
     RDKit          3D

 60 65  0  0  0  0  0  0  0  0999 V2000
   11.6168   -3.4634   23.9842 C   0  0  0  0  0  0  0  0  0  0  0  0
   10.6882   -2.5185   24.4474 O   0  0  0  0  0  0  0  0  0  0  0  0
    9.4383   -2.5589   23.7970 C   0  0  0  0  0  0  0  0  0  0  0  0
    9.3966   -1.6401   22.5783 C   0  0  1  0  0  0  0  0  0  0  0  0
    8.0006   -1.5007   21.9576 C   0  0  0  0  0  0  0  0  0  0  0  0
    8.1078   -0.2444   21.2327 N   0  0  0  0  0  0  0  0  0  0  0  0
    7.2313    0.1800   20.2058 C   0  0  0  0  0  0  0  0  0  0  0  0
    7.5099   -0.1293   18.8983 C   0  0  0  0  0  0  0  0  0  0  0  0
    6.7408    0.2365   17.8422 N   0  0  0  0  0  0  0  0  0  0  0  0
    5.6633    0.9380   18.1077 C   0  0  0  0  0  0  0  0  0  0  0  0
    5.2626    1.3345   19.4173 C   0  0  0  0  0  0  0  0  0  0  0  0
    4.0918    2.1102   19.6378 C   0  0  0  0  0  0  0  0  0  0  0  0
    3.7324    2.4683   20.9080 C   0  0  0  0  0  0  0  0  0  0  0  0
    4.5235    2.0800   22.0137 C   0  0  0  0  0  0  0  0  0  0  0  0
    5.6692    1.3447   21.8250 C   0  0  0  0  0  0  0  0  0  0  0  0
    6.0629    0.9423   20.5141 C   0  0  0  0  0  0  0  0  0  0  0  0
    9.2204    0.5028   21.5611 C   0  0  0  0  0  0  0  0  0  0  0  0
    9.5884    1.4904   20.9548 O   0  0  0  0  0  0  0  0  0  0  0  0
    9.8682   -0.1686   22.7991 C   0  0  1  0  0  0  0  0  0  0  0  0
    9.2706    0.3876   24.1194 C   0  0  0  0  0  0  0  0  0  0  0  0
    9.7753    1.7107   24.4311 N   0  0  0  0  0  0  0  0  0  0  0  0
    8.8883    2.8506   24.6491 C   0  0  0  0  0  0  0  0  0  0  0  0
    8.9613    3.9159   23.5648 C   0  0  0  0  0  0  0  0  0  0  0  0
    8.0055    4.2487   22.5750 C   0  0  0  0  0  0  0  0  0  0  0  0
    8.3892    5.2788   21.8250 N   0  0  0  0  0  0  0  0  0  0  0  0
    9.6032    5.5837   22.3034 N   0  0  0  0  0  0  0  0  0  0  0  0
    9.9958    4.7989   23.3286 C   0  0  0  0  0  0  0  0  0  0  0  0
   11.1217    1.9395   24.5054 C   0  0  0  0  0  0  0  0  0  0  0  0
   11.5949    2.8898   25.1180 O   0  0  0  0  0  0  0  0  0  0  0  0
   11.9572    1.0244   23.6741 C   0  0  0  0  0  0  0  0  0  0  0  0
   13.3291    1.2667   23.6476 C   0  0  0  0  0  0  0  0  0  0  0  0
   14.1391    0.5879   22.7616 C   0  0  0  0  0  0  0  0  0  0  0  0
   13.5474   -0.3405   21.9068 C   0  0  0  0  0  0  0  0  0  0  0  0
   14.5354   -1.1875   20.7527 Cl  0  0  0  0  0  0  0  0  0  0  0  0
   12.1912   -0.6150   21.9425 C   0  0  0  0  0  0  0  0  0  0  0  0
   11.3638    0.0627   22.8416 C   0  0  0  0  0  0  0  0  0  0  0  0
   12.5570   -3.2722   24.5022 H   0  0  0  0  0  0  0  0  0  0  0  0
   11.7980   -3.3823   22.9028 H   0  0  0  0  0  0  0  0  0  0  0  0
   11.2885   -4.4858   24.2196 H   0  0  0  0  0  0  0  0  0  0  0  0
    8.6927   -2.2202   24.5271 H   0  0  0  0  0  0  0  0  0  0  0  0
    9.1747   -3.5898   23.5072 H   0  0  0  0  0  0  0  0  0  0  0  0
   10.0431   -2.0629   21.8055 H   0  0  0  0  0  0  0  0  0  0  0  0
    7.7568   -2.3227   21.2781 H   0  0  0  0  0  0  0  0  0  0  0  0
    7.2197   -1.4677   22.7349 H   0  0  0  0  0  0  0  0  0  0  0  0
    8.4069   -0.6988   18.6658 H   0  0  0  0  0  0  0  0  0  0  0  0
    5.0423    1.2355   17.2635 H   0  0  0  0  0  0  0  0  0  0  0  0
    3.4961    2.4076   18.7767 H   0  0  0  0  0  0  0  0  0  0  0  0
    2.8310    3.0524   21.0779 H   0  0  0  0  0  0  0  0  0  0  0  0
    4.2216    2.3697   23.0177 H   0  0  0  0  0  0  0  0  0  0  0  0
    6.2770    1.0692   22.6839 H   0  0  0  0  0  0  0  0  0  0  0  0
    9.5454   -0.3080   24.9256 H   0  0  0  0  0  0  0  0  0  0  0  0
    8.1757    0.4389   24.0524 H   0  0  0  0  0  0  0  0  0  0  0  0
    7.8739    2.4444   24.6941 H   0  0  0  0  0  0  0  0  0  0  0  0
    9.1207    3.2917   25.6269 H   0  0  0  0  0  0  0  0  0  0  0  0
    7.0362    3.7988   22.3794 H   0  0  0  0  0  0  0  0  0  0  0  0
   10.1161    6.3623   21.9018 H   0  0  0  0  0  0  0  0  0  0  0  0
   10.9612    4.9169   23.8011 H   0  0  0  0  0  0  0  0  0  0  0  0
   13.7223    2.0233   24.3149 H   0  0  0  0  0  0  0  0  0  0  0  0
   15.1992    0.8039   22.6885 H   0  0  0  0  0  0  0  0  0  0  0  0
   11.7795   -1.3270   21.2317 H   0  0  0  0  0  0  0  0  0  0  0  0
  1  2  1  0
  2  3  1  0
  3  4  1  0
  4  5  1  0
  5  6  1  0
  6  7  1  0
  7  8  2  0
  8  9  1  0
  9 10  2  0
 10 11  1  0
 11 12  2  0
 12 13  1  0
 13 14  2  0
 14 15  1  0
 15 16  2  0
  6 17  1  0
 17 18  2  0
 17 19  1  0
 19 20  1  1
 20 21  1  0
 21 22  1  0
 22 23  1  0
 23 24  1  0
 24 25  2  0
 25 26  1  0
 26 27  1  0
 21 28  1  0
 28 29  2  0
 28 30  1  0
 30 31  2  0
 31 32  1  0
 32 33  2  0
 33 34  1  0
 33 35  1  0
 35 36  2  0
 19  4  1  0
 27 23  2  0
 36 30  1  0
 16  7  1  0
 36 19  1  0
 16 11  1  0
  1 37  1  0
  1 38  1  0
  1 39  1  0
  3 40  1  0
  3 41  1  0
  4 42  1  6
  5 43  1  0
  5 44  1  0
  8 45  1  0
 10 46  1  0
 12 47  1  0
 13 48  1  0
 14 49  1  0
 15 50  1  0
 20 51  1  0
 20 52  1  0
 22 53  1  0
 22 54  1  0
 24 55  1  0
 26 56  1  0
 27 57  1  0
 31 58  1  0
 32 59  1  0
 35 60  1  0
M  END
$$$$
