LIG(A-307)
     RDKit          3D

 37 42  0  0  1  0  0  0  0  0999 V2000
    9.1214    7.2186   22.7611 N   0  0  0  0  0  0  0  0  0  0  0  0
    8.4544    6.2976   22.8091 C   0  0  0  0  0  0  0  0  0  0  0  0
    7.5975    5.1015   22.8122 C   0  0  0  0  0  0  0  0  0  0  0  0
    6.2155    5.2844   23.4045 C   0  0  0  0  0  0  0  0  0  0  0  0
    6.3693    5.2025   21.9314 C   0  0  0  0  0  0  0  0  0  0  0  0
    8.3746    3.7856   22.9331 C   0  0  0  0  0  0  0  0  0  0  0  0
    8.6918    3.0645   24.5350 S   0  0  0  0  0  0  0  0  0  0  0  0
    7.4619    2.5385   25.0342 O   0  0  0  0  0  0  0  0  0  0  0  0
    9.4089    4.0205   25.3179 O   0  0  0  0  0  0  0  0  0  0  0  0
    9.6919    1.8016   24.2848 N   0  0  0  0  0  0  0  0  0  0  0  0
    9.1999    0.4246   24.1189 C   0  0  0  0  0  0  0  0  0  0  0  0
   11.1189    1.8586   24.6346 C   0  0  0  0  0  0  0  0  0  0  0  0
   11.9558    1.0547   23.6555 C   0  0  0  0  0  0  0  0  0  0  0  0
   11.3877    0.0857   22.8105 C   0  0  0  0  0  0  0  0  0  0  0  0
   12.2026   -0.6132   21.9154 C   0  0  0  0  0  0  0  0  0  0  0  0
   13.5556   -0.3342   21.8632 C   0  0  0  0  0  0  0  0  0  0  0  0
   14.5565   -1.1981   20.7170 Cl  0  0  0  0  0  0  0  0  0  0  0  0
   14.1277    0.6129   22.6821 C   0  0  0  0  0  0  0  0  0  0  0  0
   13.3278    1.2958   23.5782 C   0  0  0  0  0  0  0  0  0  0  0  0
    9.8827   -0.1804   22.8687 C   0  0  1  0  0  0  0  0  0  0  0  0
    9.4398   -1.6524   22.6038 C   0  0  1  0  0  0  0  0  0  0  0  0
    9.4810   -2.5934   23.8077 C   0  0  0  0  0  0  0  0  0  0  0  0
   10.8971   -2.9574   24.2205 C   0  0  0  0  0  0  0  0  0  0  0  0
    9.2245    0.5366   21.6829 C   0  0  0  0  0  0  0  0  0  0  0  0
    9.5734    1.5927   21.1998 O   0  0  0  0  0  0  0  0  0  0  0  0
    8.1515   -0.2034   21.2830 N   0  0  0  0  0  0  0  0  0  0  0  0
    8.0537   -1.4844   21.9940 C   0  0  0  0  0  0  0  0  0  0  0  0
    7.2193    0.1686   20.2552 C   0  0  0  0  0  0  0  0  0  0  0  0
    6.0463    0.9385   20.5274 C   0  0  0  0  0  0  0  0  0  0  0  0
    5.6385    1.3354   21.8304 C   0  0  0  0  0  0  0  0  0  0  0  0
    4.5055    2.0754   22.0206 C   0  0  0  0  0  0  0  0  0  0  0  0
    3.7263    2.4694   20.9378 C   0  0  0  0  0  0  0  0  0  0  0  0
    4.0761    2.1164   19.6637 C   0  0  0  0  0  0  0  0  0  0  0  0
    5.2371    1.3385   19.4225 C   0  0  0  0  0  0  0  0  0  0  0  0
    5.6459    0.9375   18.1224 C   0  0  0  0  0  0  0  0  0  0  0  0
    6.7339    0.2226   17.8732 N   0  0  0  0  0  0  0  0  0  0  0  0
    7.4841   -0.1434   18.9251 C   0  0  0  0  0  0  0  0  0  0  0  0
  1  2  3  0
  3  2  1  0
  3  4  1  0
  3  5  1  0
  3  6  1  0
  4  5  1  0
  6  7  1  0
  7  8  2  0
  7  9  2  0
  7 10  1  0
 10 11  1  0
 10 12  1  0
 20 11  1  1
 12 13  1  0
 13 14  2  0
 13 19  1  0
 14 15  1  0
 14 20  1  0
 15 16  2  0
 16 17  1  0
 16 18  1  0
 18 19  2  0
 20 21  1  0
 20 24  1  0
 21 22  1  1
 21 27  1  0
 22 23  1  0
 24 25  2  0
 24 26  1  0
 26 27  1  0
 26 28  1  0
 28 29  1  0
 28 37  2  0
 29 30  2  0
 29 34  1  0
 30 31  1  0
 31 32  2  0
 32 33  1  0
 33 34  2  0
 34 35  1  0
 35 36  2  0
 36 37  1  0
M  END
$$$$
