
     RDKit          3D

 70 75  0  0  0  0  0  0  0  0999 V2000
    5.7438    8.9324   25.3507 C   0  0  0  0  0  0  0  0  0  0  0  0
    6.9129    9.3026   24.6586 O   0  0  0  0  0  0  0  0  0  0  0  0
    7.4970    8.3231   23.9151 C   0  0  0  0  0  0  0  0  0  0  0  0
    8.7106    8.6808   23.3237 C   0  0  0  0  0  0  0  0  0  0  0  0
    9.4449    7.7341   22.6283 C   0  0  0  0  0  0  0  0  0  0  0  0
    8.9616    6.4331   22.4997 C   0  0  0  0  0  0  0  0  0  0  0  0
    7.6967    6.1055   22.9761 C   0  0  0  0  0  0  0  0  0  0  0  0
    7.1637    4.7171   22.6543 C   0  0  0  0  0  0  0  0  0  0  0  0
    7.9099    3.6594   23.3186 N   0  0  0  0  0  0  0  0  0  0  0  0
    7.6183    3.3942   24.6125 C   0  0  0  0  0  0  0  0  0  0  0  0
    6.7476    3.9951   25.2299 O   0  0  0  0  0  0  0  0  0  0  0  0
    8.4232    2.3119   25.3377 C   0  0  0  0  0  0  0  0  0  0  0  0
    9.2715    1.4831   24.5108 N   0  0  0  0  0  0  0  0  0  0  0  0
    8.8397    0.1328   24.1935 C   0  0  0  0  0  0  0  0  0  0  0  0
    9.4236   -0.3562   22.8414 C   0  0  2  0  0  0  0  0  0  0  0  0
    8.7989    0.4721   21.6894 C   0  0  0  0  0  0  0  0  0  0  0  0
    9.1097    1.5924   21.3280 O   0  0  0  0  0  0  0  0  0  0  0  0
    7.7727   -0.2665   21.1465 N   0  0  0  0  0  0  0  0  0  0  0  0
    6.9406    0.2594   20.1279 C   0  0  0  0  0  0  0  0  0  0  0  0
    7.2339   -0.0038   18.8151 C   0  0  0  0  0  0  0  0  0  0  0  0
    6.5157    0.4543   17.7584 N   0  0  0  0  0  0  0  0  0  0  0  0
    5.4721    1.2030   18.0345 C   0  0  0  0  0  0  0  0  0  0  0  0
    5.0566    1.5540   19.3518 C   0  0  0  0  0  0  0  0  0  0  0  0
    3.9236    2.3769   19.5889 C   0  0  0  0  0  0  0  0  0  0  0  0
    3.5464    2.6814   20.8677 C   0  0  0  0  0  0  0  0  0  0  0  0
    4.2765    2.1831   21.9704 C   0  0  0  0  0  0  0  0  0  0  0  0
    5.3801    1.3911   21.7687 C   0  0  0  0  0  0  0  0  0  0  0  0
    5.8031    1.0629   20.4470 C   0  0  0  0  0  0  0  0  0  0  0  0
    7.5577   -1.5431   21.8019 C   0  0  0  0  0  0  0  0  0  0  0  0
    8.9100   -1.7815   22.4882 C   0  0  2  0  0  0  0  0  0  0  0  0
    8.8643   -2.7927   23.6276 C   0  0  0  0  0  0  0  0  0  0  0  0
   10.9272   -0.1732   22.8988 C   0  0  0  0  0  0  0  0  0  0  0  0
   11.8289   -1.0391   22.2651 C   0  0  0  0  0  0  0  0  0  0  0  0
   13.1796   -0.7411   22.2599 C   0  0  0  0  0  0  0  0  0  0  0  0
   14.2830   -1.8165   21.4547 Cl  0  0  0  0  0  0  0  0  0  0  0  0
   13.6867    0.4037   22.8708 C   0  0  0  0  0  0  0  0  0  0  0  0
   12.8087    1.2495   23.5129 C   0  0  0  0  0  0  0  0  0  0  0  0
   11.4465    0.9574   23.5466 C   0  0  0  0  0  0  0  0  0  0  0  0
   10.5658    1.8890   24.3199 C   0  0  0  0  0  0  0  0  0  0  0  0
   10.9821    2.9547   24.7549 O   0  0  0  0  0  0  0  0  0  0  0  0
    6.9667    7.0368   23.7344 C   0  0  0  0  0  0  0  0  0  0  0  0
    5.9476    8.0827   26.0191 H   0  0  0  0  0  0  0  0  0  0  0  0
    4.9499    8.6786   24.6345 H   0  0  0  0  0  0  0  0  0  0  0  0
    5.4338    9.7914   25.9502 H   0  0  0  0  0  0  0  0  0  0  0  0
    9.0493    9.7077   23.4576 H   0  0  0  0  0  0  0  0  0  0  0  0
   10.3937    8.0161   22.1770 H   0  0  0  0  0  0  0  0  0  0  0  0
    9.5776    5.6497   22.0535 H   0  0  0  0  0  0  0  0  0  0  0  0
    6.1183    4.6372   22.9604 H   0  0  0  0  0  0  0  0  0  0  0  0
    7.2100    4.5113   21.5750 H   0  0  0  0  0  0  0  0  0  0  0  0
    8.5431    3.0856   22.7696 H   0  0  0  0  0  0  0  0  0  0  0  0
    7.6932    1.6921   25.8679 H   0  0  0  0  0  0  0  0  0  0  0  0
    9.0376    2.8063   26.1006 H   0  0  0  0  0  0  0  0  0  0  0  0
    9.1626   -0.5574   24.9846 H   0  0  0  0  0  0  0  0  0  0  0  0
    7.7438    0.1229   24.1579 H   0  0  0  0  0  0  0  0  0  0  0  0
    8.1036   -0.6171   18.5852 H   0  0  0  0  0  0  0  0  0  0  0  0
    4.8875    1.5735   17.1931 H   0  0  0  0  0  0  0  0  0  0  0  0
    3.3704    2.7595   18.7347 H   0  0  0  0  0  0  0  0  0  0  0  0
    2.6798    3.3104   21.0464 H   0  0  0  0  0  0  0  0  0  0  0  0
    3.9729    2.4428   22.9830 H   0  0  0  0  0  0  0  0  0  0  0  0
    5.9362    1.0199   22.6264 H   0  0  0  0  0  0  0  0  0  0  0  0
    7.3153   -2.3147   21.0650 H   0  0  0  0  0  0  0  0  0  0  0  0
    6.7324   -1.5029   22.5351 H   0  0  0  0  0  0  0  0  0  0  0  0
    9.5639   -2.1619   21.6971 H   0  0  0  0  0  0  0  0  0  0  0  0
    8.1143   -2.5083   24.3763 H   0  0  0  0  0  0  0  0  0  0  0  0
    9.8348   -2.8562   24.1325 H   0  0  0  0  0  0  0  0  0  0  0  0
    8.6051   -3.7883   23.2510 H   0  0  0  0  0  0  0  0  0  0  0  0
   11.5113   -1.9496   21.7686 H   0  0  0  0  0  0  0  0  0  0  0  0
   14.7487    0.6182   22.8422 H   0  0  0  0  0  0  0  0  0  0  0  0
   13.1525    2.1520   24.0049 H   0  0  0  0  0  0  0  0  0  0  0  0
    6.0201    6.7382   24.1918 H   0  0  0  0  0  0  0  0  0  0  0  0
  1  2  1  0
  2  3  1  0
  3  4  2  0
  4  5  1  0
  5  6  2  0
  6  7  1  0
  7  8  1  0
  8  9  1  0
  9 10  1  0
 10 11  2  0
 10 12  1  0
 12 13  1  0
 13 14  1  0
 15 14  1  1
 15 16  1  0
 16 17  2  0
 16 18  1  0
 18 19  1  0
 19 20  2  0
 20 21  1  0
 21 22  2  0
 22 23  1  0
 23 24  2  0
 24 25  1  0
 25 26  2  0
 26 27  1  0
 27 28  2  0
 18 29  1  0
 29 30  1  0
 30 31  1  0
 15 32  1  0
 32 33  2  0
 33 34  1  0
 34 35  1  0
 34 36  2  0
 36 37  1  0
 37 38  2  0
 38 39  1  0
 39 40  2  0
  7 41  2  0
 41  3  1  0
 39 13  1  0
 30 15  1  0
 38 32  1  0
 28 19  1  0
 28 23  1  0
  1 42  1  0
  1 43  1  0
  1 44  1  0
  4 45  1  0
  5 46  1  0
  6 47  1  0
  8 48  1  0
  8 49  1  0
  9 50  1  0
 12 51  1  0
 12 52  1  0
 14 53  1  0
 14 54  1  0
 20 55  1  0
 22 56  1  0
 24 57  1  0
 25 58  1  0
 26 59  1  0
 27 60  1  0
 29 61  1  0
 29 62  1  0
 30 63  1  6
 31 64  1  0
 31 65  1  0
 31 66  1  0
 33 67  1  0
 36 68  1  0
 37 69  1  0
 41 70  1  0
M  END
$$$$
