
     RDKit          3D

 77 84  0  0  0  0  0  0  0  0999 V2000
   11.5577    2.8232   25.2506 O   0  0  0  0  0  0  0  0  0  0  0  0
   11.0754    1.9950   24.4888 C   0  0  0  0  0  0  0  0  0  0  0  0
   11.9216    1.0671   23.6635 C   0  0  0  0  0  0  0  0  0  0  0  0
   13.2944    1.3091   23.6231 C   0  0  0  0  0  0  0  0  0  0  0  0
   14.1069    0.6231   22.7385 C   0  0  0  0  0  0  0  0  0  0  0  0
   13.5216   -0.3265   21.8989 C   0  0  0  0  0  0  0  0  0  0  0  0
   14.5218   -1.1722   20.7468 Cl  0  0  0  0  0  0  0  0  0  0  0  0
   12.1628   -0.5877   21.9305 C   0  0  0  0  0  0  0  0  0  0  0  0
   11.3361    0.0902   22.8405 C   0  0  0  0  0  0  0  0  0  0  0  0
    9.8426   -0.1540   22.8212 C   0  0  1  0  0  0  0  0  0  0  0  0
    9.2212    0.4988   24.0786 C   0  0  0  0  0  0  0  0  0  0  0  0
    9.7286    1.8459   24.2646 N   0  0  0  0  0  0  0  0  0  0  0  0
    8.8496    2.9979   24.3595 C   0  0  0  0  0  0  0  0  0  0  0  0
    8.5118    3.6433   23.0083 C   0  0  0  0  0  0  0  0  0  0  0  0
    7.9488    5.0313   23.2117 N   0  0  0  0  0  4  0  0  0  0  0  0
    7.4809    5.8365   22.0077 C   0  0  0  0  0  0  0  0  0  0  0  0
    6.0684    6.0360   22.6049 C   0  0  0  0  0  0  0  0  0  0  0  0
    4.7948    5.6714   21.8340 C   0  0  0  0  0  0  0  0  0  0  0  0
    4.2631    6.9858   22.0006 O   0  0  0  0  0  0  0  0  0  0  0  0
    5.4086    7.4122   22.7395 C   0  0  0  0  0  0  0  0  0  0  0  0
    6.5415    5.2011   23.8155 C   0  0  0  0  0  0  0  0  0  0  0  0
    9.2033    0.5083   21.5777 C   0  0  0  0  0  0  0  0  0  0  0  0
    9.5604    1.5104   20.9937 O   0  0  0  0  0  0  0  0  0  0  0  0
    8.1031   -0.2419   21.2373 N   0  0  0  0  0  0  0  0  0  0  0  0
    7.2227    0.1802   20.2167 C   0  0  0  0  0  0  0  0  0  0  0  0
    7.5046   -0.1322   18.9135 C   0  0  0  0  0  0  0  0  0  0  0  0
    6.7390    0.2350   17.8557 N   0  0  0  0  0  0  0  0  0  0  0  0
    5.6614    0.9367   18.1199 C   0  0  0  0  0  0  0  0  0  0  0  0
    5.2565    1.3321   19.4277 C   0  0  0  0  0  0  0  0  0  0  0  0
    4.0888    2.1035   19.6561 C   0  0  0  0  0  0  0  0  0  0  0  0
    3.7288    2.4697   20.9243 C   0  0  0  0  0  0  0  0  0  0  0  0
    4.5130    2.0745   22.0283 C   0  0  0  0  0  0  0  0  0  0  0  0
    5.6472    1.3217   21.8363 C   0  0  0  0  0  0  0  0  0  0  0  0
    6.0549    0.9405   20.5262 C   0  0  0  0  0  0  0  0  0  0  0  0
    7.9911   -1.4940   21.9561 C   0  0  0  0  0  0  0  0  0  0  0  0
    9.3844   -1.6364   22.5932 C   0  0  2  0  0  0  0  0  0  0  0  0
    9.4378   -2.6238   23.7753 C   0  0  0  0  0  0  0  0  0  0  0  0
    9.2087   -4.0029   23.3838 N   0  0  0  0  0  0  0  0  0  0  0  0
    7.9917   -4.5995   23.3323 C   0  0  0  0  0  0  0  0  0  0  0  0
    7.9860   -5.8437   22.8035 N   0  0  0  0  0  0  0  0  0  0  0  0
    6.8051   -6.4326   22.7355 C   0  0  0  0  0  0  0  0  0  0  0  0
    5.6280   -5.8343   23.1820 C   0  0  0  0  0  0  0  0  0  0  0  0
    5.7578   -4.5604   23.7164 C   0  0  0  0  0  0  0  0  0  0  0  0
    6.9274   -3.9251   23.7995 N   0  0  0  0  0  0  0  0  0  0  0  0
   13.6951    2.0646   24.2916 H   0  0  0  0  0  0  0  0  0  0  0  0
   15.1734    0.8211   22.6759 H   0  0  0  0  0  0  0  0  0  0  0  0
   11.7623   -1.3101   21.2247 H   0  0  0  0  0  0  0  0  0  0  0  0
    8.1288    0.5326   24.0034 H   0  0  0  0  0  0  0  0  0  0  0  0
    9.4884   -0.1150   24.9490 H   0  0  0  0  0  0  0  0  0  0  0  0
    9.3599    3.6988   25.0265 H   0  0  0  0  0  0  0  0  0  0  0  0
    7.9195    2.6797   24.8429 H   0  0  0  0  0  0  0  0  0  0  0  0
    9.3908    3.7267   22.3693 H   0  0  0  0  0  0  0  0  0  0  0  0
    7.7601    3.0563   22.4675 H   0  0  0  0  0  0  0  0  0  0  0  0
    8.6598    5.5746   23.7314 H   0  0  0  0  0  0  0  0  0  0  0  0
    8.0714    6.7444   21.8965 H   0  0  0  0  0  0  0  0  0  0  0  0
    7.5203    5.2398   21.0975 H   0  0  0  0  0  0  0  0  0  0  0  0
    4.1501    4.9233   22.3101 H   0  0  0  0  0  0  0  0  0  0  0  0
    4.9395    5.4170   20.7755 H   0  0  0  0  0  0  0  0  0  0  0  0
    5.9196    8.2435   22.2356 H   0  0  0  0  0  0  0  0  0  0  0  0
    5.1350    7.7154   23.7593 H   0  0  0  0  0  0  0  0  0  0  0  0
    6.0501    4.2381   23.9310 H   0  0  0  0  0  0  0  0  0  0  0  0
    6.5909    5.7271   24.7653 H   0  0  0  0  0  0  0  0  0  0  0  0
    8.3995   -0.7084   18.6848 H   0  0  0  0  0  0  0  0  0  0  0  0
    5.0357    1.2287   17.2752 H   0  0  0  0  0  0  0  0  0  0  0  0
    3.4998    2.4037   18.7968 H   0  0  0  0  0  0  0  0  0  0  0  0
    2.8429    3.0797   21.0876 H   0  0  0  0  0  0  0  0  0  0  0  0
    4.2190    2.3648   23.0333 H   0  0  0  0  0  0  0  0  0  0  0  0
    6.2374    1.0232   22.6959 H   0  0  0  0  0  0  0  0  0  0  0  0
    7.7288   -2.3089   21.2748 H   0  0  0  0  0  0  0  0  0  0  0  0
    7.2069   -1.4388   22.7252 H   0  0  0  0  0  0  0  0  0  0  0  0
   10.0545   -2.0267   21.8208 H   0  0  0  0  0  0  0  0  0  0  0  0
    8.6666   -2.3590   24.5039 H   0  0  0  0  0  0  0  0  0  0  0  0
   10.4174   -2.5646   24.2680 H   0  0  0  0  0  0  0  0  0  0  0  0
    9.9637   -4.5579   23.0142 H   0  0  0  0  0  0  0  0  0  0  0  0
    6.8182   -7.4326   22.2983 H   0  0  0  0  0  0  0  0  0  0  0  0
    4.6753   -6.3458   23.1194 H   0  0  0  0  0  0  0  0  0  0  0  0
    4.8920   -4.0171   24.1003 H   0  0  0  0  0  0  0  0  0  0  0  0
  1  2  2  0
  2  3  1  0
  3  4  2  0
  4  5  1  0
  5  6  2  0
  6  7  1  0
  6  8  1  0
  8  9  2  0
  9 10  1  0
 10 11  1  1
 11 12  1  0
 12 13  1  0
 13 14  1  0
 14 15  1  0
 15 16  1  0
 16 17  1  0
 17 18  1  0
 18 19  1  0
 19 20  1  0
 17 21  1  0
 10 22  1  0
 22 23  2  0
 22 24  1  0
 24 25  1  0
 25 26  2  0
 26 27  1  0
 27 28  2  0
 28 29  1  0
 29 30  2  0
 30 31  1  0
 31 32  2  0
 32 33  1  0
 33 34  2  0
 24 35  1  0
 35 36  1  0
 36 37  1  0
 37 38  1  0
 38 39  1  0
 39 40  2  0
 40 41  1  0
 41 42  2  0
 42 43  1  0
 43 44  2  0
 12  2  1  0
 21 15  1  0
 34 25  1  0
 44 39  1  0
  9  3  1  0
 36 10  1  0
 20 17  1  0
 34 29  1  0
  4 45  1  0
  5 46  1  0
  8 47  1  0
 11 48  1  0
 11 49  1  0
 13 50  1  0
 13 51  1  0
 14 52  1  0
 14 53  1  0
 15 54  1  0
 16 55  1  0
 16 56  1  0
 18 57  1  0
 18 58  1  0
 20 59  1  0
 20 60  1  0
 21 61  1  0
 21 62  1  0
 26 63  1  0
 28 64  1  0
 30 65  1  0
 31 66  1  0
 32 67  1  0
 33 68  1  0
 35 69  1  0
 35 70  1  0
 36 71  1  6
 37 72  1  0
 37 73  1  0
 38 74  1  0
 41 75  1  0
 42 76  1  0
 43 77  1  0
M  CHG  1  15   1
M  END
$$$$
