LIG(A-306)
     RDKit          3D

 38 43  0  0  1  0  0  0  0  0999 V2000
   -9.8472    0.6881  -21.1002 O   0  0  0  0  0  0  0  0  0  0  0  0
   -9.3046   -0.2856  -21.6085 C   0  0  0  0  0  0  0  0  0  0  0  0
   -8.1198   -0.7687  -21.1470 N   0  0  0  0  0  0  0  0  0  0  0  0
   -7.3401   -0.2715  -20.0690 C   0  0  0  0  0  0  0  0  0  0  0  0
   -6.1688    0.5006  -20.3623 C   0  0  0  0  0  0  0  0  0  0  0  0
   -5.7319    0.8024  -21.6774 C   0  0  0  0  0  0  0  0  0  0  0  0
   -4.6358    1.5908  -21.8916 C   0  0  0  0  0  0  0  0  0  0  0  0
   -3.9266    2.1209  -20.8219 C   0  0  0  0  0  0  0  0  0  0  0  0
   -4.2959    1.8494  -19.5367 C   0  0  0  0  0  0  0  0  0  0  0  0
   -5.4202    1.0277  -19.2697 C   0  0  0  0  0  0  0  0  0  0  0  0
   -5.8643    0.7295  -17.9577 C   0  0  0  0  0  0  0  0  0  0  0  0
   -6.9408    0.0101  -17.6828 N   0  0  0  0  0  0  0  0  0  0  0  0
   -7.6513   -0.4594  -18.7187 C   0  0  0  0  0  0  0  0  0  0  0  0
   -9.9461   -0.9997  -22.8233 C   0  0  2  0  0  0  0  0  0  0  0  0
   -9.4309   -0.2611  -24.0837 C   0  0  0  0  0  0  0  0  0  0  0  0
  -10.0422    1.1185  -24.2185 C   0  0  0  0  0  0  0  0  0  0  0  0
  -11.4769    1.0608  -24.3428 O   0  0  0  0  0  0  0  0  0  0  0  0
  -11.4726   -0.7892  -22.7389 C   0  0  0  0  0  0  0  0  0  0  0  0
  -12.1211    0.2423  -23.4463 C   0  0  0  0  0  0  0  0  0  0  0  0
  -13.4827    0.4643  -23.3230 C   0  0  0  0  0  0  0  0  0  0  0  0
  -14.2299   -0.3445  -22.4872 C   0  0  0  0  0  0  0  0  0  0  0  0
  -12.2513   -1.6117  -21.9266 C   0  0  0  0  0  0  0  0  0  0  0  0
  -13.6078   -1.3675  -21.8038 C   0  0  0  0  0  0  0  0  0  0  0  0
  -14.5389   -2.3332  -20.6921 Cl  0  0  0  0  0  0  0  0  0  0  0  0
   -9.6580   -2.5239  -22.8561 C   0  0  0  0  0  0  0  0  0  0  0  0
   -8.5136   -2.9569  -23.7496 C   0  0  0  0  0  0  0  0  0  0  0  0
   -7.4444   -2.3590  -23.7522 O   0  0  0  0  0  0  0  0  0  0  0  0
   -8.6840   -4.0754  -24.4925 N   0  0  0  0  0  0  0  0  0  0  0  0
   -7.4831   -4.8131  -24.9196 C   0  0  2  0  0  0  0  0  0  0  0  0
   -7.6122   -5.3845  -26.3418 C   0  0  0  0  0  0  0  0  0  0  0  0
   -8.9608   -6.0611  -26.5673 C   0  0  0  0  0  0  0  0  0  0  0  0
  -10.1037   -5.1217  -26.2422 C   0  0  0  0  0  0  0  0  0  0  0  0
  -10.0060   -4.6355  -24.8113 C   0  0  0  0  0  0  0  0  0  0  0  0
   -6.9476   -5.7755  -23.8948 C   0  0  0  0  0  0  0  0  0  0  0  0
   -7.5342   -6.1299  -22.7120 C   0  0  0  0  0  0  0  0  0  0  0  0
   -6.6693   -6.9070  -22.0484 N   0  0  0  0  0  0  0  0  0  0  0  0
   -5.5244   -7.1021  -22.7401 N   0  0  0  0  0  0  0  0  0  0  0  0
   -5.7026   -6.4200  -23.8637 C   0  0  0  0  0  0  0  0  0  0  0  0
  1  2  2  0
  2  3  1  0
 14  2  1  0
  3  4  1  0
  4  5  1  0
  4 13  2  0
  5  6  2  0
  5 10  1  0
  6  7  1  0
  7  8  2  0
  8  9  1  0
  9 10  2  0
 10 11  1  0
 11 12  2  0
 12 13  1  0
 14 15  1  0
 14 18  1  0
 14 25  1  6
 15 16  1  0
 16 17  1  0
 17 19  1  0
 18 19  2  0
 18 22  1  0
 19 20  1  0
 20 21  2  0
 21 23  1  0
 22 23  2  0
 23 24  1  0
 25 26  1  0
 26 27  2  0
 26 28  1  0
 28 29  1  0
 28 33  1  0
 29 30  1  0
 29 34  1  1
 30 31  1  0
 31 32  1  0
 32 33  1  0
 34 35  2  0
 34 38  1  0
 35 36  1  0
 36 37  1  0
 37 38  2  0
M  END
$$$$
