
     RDKit          3D

 62 67  0  0  0  0  0  0  0  0999 V2000
    9.5071    5.4673   26.9074 C   0  0  0  0  0  0  0  0  0  0  0  0
    8.0493    5.1003   26.6689 C   0  0  0  0  0  0  0  0  0  0  0  0
    7.7512    4.7652   25.2826 N   0  0  0  0  0  0  0  0  0  0  0  0
    7.3189    5.7100   24.4306 N   0  0  0  0  0  0  0  0  0  0  0  0
    7.1919    5.0860   23.2640 C   0  0  0  0  0  0  0  0  0  0  0  0
    7.5695    3.7360   23.3512 C   0  0  0  0  0  0  0  0  0  0  0  0
    7.9457    3.5716   24.6633 C   0  0  0  0  0  0  0  0  0  0  0  0
    8.3964    2.3144   25.3409 C   0  0  0  0  0  0  0  0  0  0  0  0
    9.2391    1.4953   24.4820 N   0  0  0  0  0  0  0  0  0  0  0  0
    8.8445    0.1247   24.2061 C   0  0  0  0  0  0  0  0  0  0  0  0
    9.4265   -0.3766   22.8594 C   0  0  2  0  0  0  0  0  0  0  0  0
    8.8186    0.4513   21.6985 C   0  0  0  0  0  0  0  0  0  0  0  0
    9.1608    1.5486   21.3131 O   0  0  0  0  0  0  0  0  0  0  0  0
    7.7777   -0.2712   21.1563 N   0  0  0  0  0  0  0  0  0  0  0  0
    6.9401    0.2604   20.1379 C   0  0  0  0  0  0  0  0  0  0  0  0
    7.2121   -0.0139   18.8226 C   0  0  0  0  0  0  0  0  0  0  0  0
    6.4857    0.4451   17.7716 N   0  0  0  0  0  0  0  0  0  0  0  0
    5.4492    1.2047   18.0404 C   0  0  0  0  0  0  0  0  0  0  0  0
    5.0339    1.5521   19.3594 C   0  0  0  0  0  0  0  0  0  0  0  0
    3.9065    2.3846   19.6121 C   0  0  0  0  0  0  0  0  0  0  0  0
    3.5468    2.6933   20.8952 C   0  0  0  0  0  0  0  0  0  0  0  0
    4.2857    2.1866   21.9891 C   0  0  0  0  0  0  0  0  0  0  0  0
    5.3745    1.3771   21.7704 C   0  0  0  0  0  0  0  0  0  0  0  0
    5.7888    1.0528   20.4495 C   0  0  0  0  0  0  0  0  0  0  0  0
    7.5665   -1.5510   21.8064 C   0  0  0  0  0  0  0  0  0  0  0  0
    8.9110   -1.7973   22.5042 C   0  0  2  0  0  0  0  0  0  0  0  0
    8.8509   -2.7976   23.6505 C   0  0  0  0  0  0  0  0  0  0  0  0
   10.9268   -0.1894   22.9259 C   0  0  0  0  0  0  0  0  0  0  0  0
   11.8208   -1.0559   22.2884 C   0  0  0  0  0  0  0  0  0  0  0  0
   13.1656   -0.7472   22.2710 C   0  0  0  0  0  0  0  0  0  0  0  0
   14.0026   -1.5788   21.6271 F   0  0  0  0  0  0  0  0  0  0  0  0
   13.6861    0.3952   22.8730 C   0  0  0  0  0  0  0  0  0  0  0  0
   12.8043    1.2414   23.5195 C   0  0  0  0  0  0  0  0  0  0  0  0
   11.4351    0.9612   23.5531 C   0  0  0  0  0  0  0  0  0  0  0  0
   10.5222    1.9205   24.2687 C   0  0  0  0  0  0  0  0  0  0  0  0
   10.9119    3.0120   24.6566 O   0  0  0  0  0  0  0  0  0  0  0  0
    9.7760    6.3226   26.2864 H   0  0  0  0  0  0  0  0  0  0  0  0
   10.1727    4.6352   26.6567 H   0  0  0  0  0  0  0  0  0  0  0  0
    9.6664    5.7448   27.9551 H   0  0  0  0  0  0  0  0  0  0  0  0
    7.3901    5.9234   26.9413 H   0  0  0  0  0  0  0  0  0  0  0  0
    7.7673    4.2535   27.2969 H   0  0  0  0  0  0  0  0  0  0  0  0
    6.8307    5.6168   22.3942 H   0  0  0  0  0  0  0  0  0  0  0  0
    7.5837    2.9737   22.5793 H   0  0  0  0  0  0  0  0  0  0  0  0
    8.9177    2.5254   26.2863 H   0  0  0  0  0  0  0  0  0  0  0  0
    7.5086    1.7167   25.5810 H   0  0  0  0  0  0  0  0  0  0  0  0
    9.1767   -0.5379   25.0205 H   0  0  0  0  0  0  0  0  0  0  0  0
    7.7511    0.0885   24.1629 H   0  0  0  0  0  0  0  0  0  0  0  0
    8.0706   -0.6314   18.5676 H   0  0  0  0  0  0  0  0  0  0  0  0
    4.8736    1.5831   17.1927 H   0  0  0  0  0  0  0  0  0  0  0  0
    3.3472    2.7825   18.7660 H   0  0  0  0  0  0  0  0  0  0  0  0
    2.6889    3.3334   21.0882 H   0  0  0  0  0  0  0  0  0  0  0  0
    3.9921    2.4318   23.0058 H   0  0  0  0  0  0  0  0  0  0  0  0
    5.9423    0.9895   22.6125 H   0  0  0  0  0  0  0  0  0  0  0  0
    7.3297   -2.3185   21.0667 H   0  0  0  0  0  0  0  0  0  0  0  0
    6.7454   -1.5304   22.5439 H   0  0  0  0  0  0  0  0  0  0  0  0
    9.5717   -2.2003   21.7330 H   0  0  0  0  0  0  0  0  0  0  0  0
    8.5955   -3.8000   23.2933 H   0  0  0  0  0  0  0  0  0  0  0  0
    9.8082   -2.8642   24.1778 H   0  0  0  0  0  0  0  0  0  0  0  0
    8.0973   -2.5078   24.3891 H   0  0  0  0  0  0  0  0  0  0  0  0
   11.4907   -1.9693   21.8035 H   0  0  0  0  0  0  0  0  0  0  0  0
   14.7530    0.5990   22.8127 H   0  0  0  0  0  0  0  0  0  0  0  0
   13.1710    2.1369   24.0084 H   0  0  0  0  0  0  0  0  0  0  0  0
  1  2  1  0
  2  3  1  0
  3  4  1  0
  4  5  2  0
  5  6  1  0
  6  7  2  0
  7  8  1  0
  8  9  1  0
  9 10  1  0
 11 10  1  1
 11 12  1  0
 12 13  2  0
 12 14  1  0
 14 15  1  0
 15 16  2  0
 16 17  1  0
 17 18  2  0
 18 19  1  0
 19 20  2  0
 20 21  1  0
 21 22  2  0
 22 23  1  0
 23 24  2  0
 14 25  1  0
 25 26  1  0
 26 27  1  0
 11 28  1  0
 28 29  2  0
 29 30  1  0
 30 31  1  0
 30 32  2  0
 32 33  1  0
 33 34  2  0
 34 35  1  0
 35 36  2  0
  7  3  1  0
 35  9  1  0
 26 11  1  0
 34 28  1  0
 24 15  1  0
 24 19  1  0
  1 37  1  0
  1 38  1  0
  1 39  1  0
  2 40  1  0
  2 41  1  0
  5 42  1  0
  6 43  1  0
  8 44  1  0
  8 45  1  0
 10 46  1  0
 10 47  1  0
 16 48  1  0
 18 49  1  0
 20 50  1  0
 21 51  1  0
 22 52  1  0
 23 53  1  0
 25 54  1  0
 25 55  1  0
 26 56  1  6
 27 57  1  0
 27 58  1  0
 27 59  1  0
 29 60  1  0
 32 61  1  0
 33 62  1  0
M  END
$$$$
