
     RDKit          3D

 63 69  0  0  0  0  0  0  0  0999 V2000
    9.2827    2.3789   25.7898 O   0  0  0  0  0  0  0  0  0  0  0  0
    8.9507    1.5228   24.9796 C   0  0  0  0  0  0  0  0  0  0  0  0
    9.9496    0.7746   24.1479 C   0  0  0  0  0  0  0  0  0  0  0  0
   11.2772    1.0970   24.3808 C   0  0  0  0  0  0  0  0  0  0  0  0
   12.2615    0.7228   23.4990 C   0  0  0  0  0  0  0  0  0  0  0  0
   11.8791   -0.0176   22.3838 C   0  0  0  0  0  0  0  0  0  0  0  0
   13.1146   -0.2783   21.2172 Cl  0  0  0  0  0  0  0  0  0  0  0  0
   10.5811   -0.4547   22.1790 C   0  0  0  0  0  0  0  0  0  0  0  0
    9.5795   -0.0735   23.0972 C   0  0  0  0  0  0  0  0  0  0  0  0
    8.1163   -0.3981   22.8575 C   0  0  1  0  0  0  0  0  0  0  0  0
    7.2916   -0.0489   24.1405 C   0  0  0  0  0  0  0  0  0  0  0  0
    7.6395    1.2467   24.7052 N   0  0  0  0  0  0  0  0  0  0  0  0
    6.6790    2.2651   25.0781 C   0  0  0  0  0  0  0  0  0  0  0  0
    6.4975    3.3138   24.0194 C   0  0  0  0  0  0  0  0  0  0  0  0
    5.4076    3.9349   23.6991 N   0  0  0  0  0  0  0  0  0  0  0  0
    5.7528    4.8459   22.7024 N   0  0  0  0  0  0  0  0  0  0  0  0
    7.0187    4.7001   22.5180 C   0  0  0  0  0  0  0  0  0  0  0  0
    7.5612    3.7594   23.3218 O   0  0  0  0  0  0  0  0  0  0  0  0
    7.6632    5.2301   21.8329 H   0  0  0  0  0  0  0  0  0  0  0  0
    7.0732    2.7535   25.9784 H   0  0  0  0  0  0  0  0  0  0  0  0
    5.6995    1.8376   25.3033 H   0  0  0  0  0  0  0  0  0  0  0  0
    7.4843   -0.8227   24.8957 H   0  0  0  0  0  0  0  0  0  0  0  0
    6.2176   -0.0718   23.9233 H   0  0  0  0  0  0  0  0  0  0  0  0
    7.6149    0.4174   21.6478 C   0  0  0  0  0  0  0  0  0  0  0  0
    7.8546    1.5774   21.3945 O   0  0  0  0  0  0  0  0  0  0  0  0
    6.8429   -0.4055   20.8577 N   0  0  0  0  0  0  0  0  0  0  0  0
    6.0912    0.0940   19.7787 C   0  0  0  0  0  0  0  0  0  0  0  0
    6.4269   -0.2516   18.4968 C   0  0  0  0  0  0  0  0  0  0  0  0
    5.7730    0.1926   17.3999 N   0  0  0  0  0  0  0  0  0  0  0  0
    4.7521    0.9936   17.5874 C   0  0  0  0  0  0  0  0  0  0  0  0
    4.2785    1.3942   18.8701 C   0  0  0  0  0  0  0  0  0  0  0  0
    3.1436    2.2317   19.0304 C   0  0  0  0  0  0  0  0  0  0  0  0
    2.7004    2.5747   20.2765 C   0  0  0  0  0  0  0  0  0  0  0  0
    3.3702    2.1003   21.4298 C   0  0  0  0  0  0  0  0  0  0  0  0
    4.4736    1.2962   21.3031 C   0  0  0  0  0  0  0  0  0  0  0  0
    4.9601    0.9323   20.0138 C   0  0  0  0  0  0  0  0  0  0  0  0
    4.9771    0.9163   22.1898 H   0  0  0  0  0  0  0  0  0  0  0  0
    3.0155    2.3817   22.4176 H   0  0  0  0  0  0  0  0  0  0  0  0
    1.8339    3.2194   20.3892 H   0  0  0  0  0  0  0  0  0  0  0  0
    2.6540    2.5980   18.1318 H   0  0  0  0  0  0  0  0  0  0  0  0
    4.2356    1.3597   16.6999 H   0  0  0  0  0  0  0  0  0  0  0  0
    7.2791   -0.9076   18.3191 H   0  0  0  0  0  0  0  0  0  0  0  0
    6.6614   -1.7366   21.3803 C   0  0  0  0  0  0  0  0  0  0  0  0
    7.8389   -1.8451   22.3529 C   0  0  2  0  0  0  0  0  0  0  0  0
    7.6456   -2.9302   23.4125 C   0  0  0  0  0  0  0  0  0  0  0  0
    7.5699   -4.2610   22.8378 N   0  0  0  0  0  0  0  0  0  0  0  0
    6.4184   -4.8968   22.5565 C   0  0  0  0  0  0  0  0  0  0  0  0
    5.2620   -4.2809   22.8787 N   0  0  0  0  0  0  0  0  0  0  0  0
    4.1764   -4.9941   22.6299 C   0  0  0  0  0  0  0  0  0  0  0  0
    4.1262   -6.2046   22.0798 N   0  0  0  0  0  0  0  0  0  0  0  0
    5.3344   -6.6982   21.7850 C   0  0  0  0  0  0  0  0  0  0  0  0
    6.5041   -6.1178   21.9798 N   0  0  0  0  0  0  0  0  0  0  0  0
    5.3534   -7.6901   21.3321 H   0  0  0  0  0  0  0  0  0  0  0  0
    3.2216   -4.5452   22.9030 H   0  0  0  0  0  0  0  0  0  0  0  0
    8.4172   -4.7540   22.6091 H   0  0  0  0  0  0  0  0  0  0  0  0
    6.7167   -2.7616   23.9645 H   0  0  0  0  0  0  0  0  0  0  0  0
    8.4836   -2.9058   24.1159 H   0  0  0  0  0  0  0  0  0  0  0  0
    8.7138   -2.1207   21.7576 H   0  0  0  0  0  0  0  0  0  0  0  0
    6.6974   -2.4775   20.5787 H   0  0  0  0  0  0  0  0  0  0  0  0
    5.6888   -1.8524   21.8837 H   0  0  0  0  0  0  0  0  0  0  0  0
   10.3628   -1.0508   21.2910 H   0  0  0  0  0  0  0  0  0  0  0  0
   13.2945    1.0402   23.6040 H   0  0  0  0  0  0  0  0  0  0  0  0
   11.4795    1.6906   25.2522 H   0  0  0  0  0  0  0  0  0  0  0  0
  1  2  2  0
  2  3  1  0
  3  4  2  0
  4  5  1  0
  5  6  2  0
  6  7  1  0
  6  8  1  0
  8  9  2  0
  9 10  1  0
 10 11  1  1
 11 12  1  0
 12 13  1  0
 13 14  1  0
 14 15  2  0
 15 16  1  0
 16 17  2  0
 17 18  1  0
 17 19  1  0
 13 20  1  0
 13 21  1  0
 11 22  1  0
 11 23  1  0
 10 24  1  0
 24 25  2  0
 24 26  1  0
 26 27  1  0
 27 28  2  0
 28 29  1  0
 29 30  2  0
 30 31  1  0
 31 32  2  0
 32 33  1  0
 33 34  2  0
 34 35  1  0
 35 36  2  0
 35 37  1  0
 34 38  1  0
 33 39  1  0
 32 40  1  0
 30 41  1  0
 28 42  1  0
 26 43  1  0
 43 44  1  0
 44 45  1  0
 45 46  1  0
 46 47  1  0
 47 48  2  0
 48 49  1  0
 49 50  2  0
 50 51  1  0
 51 52  2  0
 51 53  1  0
 49 54  1  0
 46 55  1  0
 45 56  1  0
 45 57  1  0
 44 58  1  6
 43 59  1  0
 43 60  1  0
  8 61  1  0
  5 62  1  0
  4 63  1  0
 12  2  1  0
 18 14  1  0
 36 27  1  0
 52 47  1  0
  9  3  1  0
 44 10  1  0
 36 31  1  0
M  END
>  <cnnaffinities>  (1) 
[6.4527]

>  <score>  (1) 
6.4527

>  <index>  (1) 
0

>  <Smiles>  (1) 
O=C1c2c(c(c(Cl)c(c2[C@@]2(C(N1C(c1nnc(o1)[H])([H])[H])([H])[H])C(=O)N(c1c(nc(c3c(c(c(c(c13)[H])[H])[H])[H])[H])[H])C([C@@]2(C(N(c1nc(nc(n1)[H])[H])[H])([H])[H])[H])([H])[H])[H])[H])[H]

>  <h>  (1) 
<NA>

>  <Training>  (1) 
True

>  <Success>  (1) 
True

>  <enamine_searched>  (1) 
False

>  <enamine_id>  (1) 
nan

$$$$

     RDKit          3D

 51 54  0  0  0  0  0  0  0  0999 V2000
   13.3632   -2.2394   23.5030 C   0  0  0  0  0  0  0  0  0  0  0  0
   12.2476   -1.5337   24.0011 O   0  0  0  0  0  0  0  0  0  0  0  0
   11.0406   -1.8566   23.4615 C   0  0  0  0  0  0  0  0  0  0  0  0
   10.8617   -2.8017   22.4603 C   0  0  0  0  0  0  0  0  0  0  0  0
    9.5842   -3.1082   22.0015 C   0  0  0  0  0  0  0  0  0  0  0  0
    8.4868   -2.3966   22.4597 C   0  0  0  0  0  0  0  0  0  0  0  0
    7.1811   -2.7058   21.9723 N   0  0  0  0  0  0  0  0  0  0  0  0
    6.5852   -3.9671   22.3897 C   0  0  0  0  0  0  0  0  0  0  0  0
    6.0397   -3.8802   23.7990 C   0  0  0  0  0  0  0  0  0  0  0  0
    4.6694   -3.7708   24.0327 C   0  0  0  0  0  0  0  0  0  0  0  0
    4.1837   -3.7667   25.3347 C   0  0  0  0  0  0  0  0  0  0  0  0
    5.0605   -3.8870   26.4068 C   0  0  0  0  0  0  0  0  0  0  0  0
    6.4307   -3.9108   26.1630 C   0  0  0  0  0  0  0  0  0  0  0  0
    7.5383   -3.9837   27.5064 Cl  0  0  0  0  0  0  0  0  0  0  0  0
    6.9323   -3.8814   24.8711 C   0  0  0  0  0  0  0  0  0  0  0  0
    8.0095   -3.8958   24.6941 H   0  0  0  0  0  0  0  0  0  0  0  0
    4.6980   -3.9356   27.4298 H   0  0  0  0  0  0  0  0  0  0  0  0
    3.1113   -3.7590   25.5121 H   0  0  0  0  0  0  0  0  0  0  0  0
    3.9813   -3.7008   23.1897 H   0  0  0  0  0  0  0  0  0  0  0  0
    5.7843   -4.1758   21.6789 H   0  0  0  0  0  0  0  0  0  0  0  0
    7.3473   -4.7540   22.3197 H   0  0  0  0  0  0  0  0  0  0  0  0
    6.3090   -1.7867   21.4237 C   0  0  0  0  0  0  0  0  0  0  0  0
    5.1134   -2.0113   21.3338 O   0  0  0  0  0  0  0  0  0  0  0  0
    6.9295   -0.5047   20.8818 C   0  0  0  0  0  0  0  0  0  0  0  0
    6.1215    0.0840   19.7628 C   0  0  0  0  0  0  0  0  0  0  0  0
    6.4337   -0.2180   18.4640 C   0  0  0  0  0  0  0  0  0  0  0  0
    5.7648    0.2285   17.3705 N   0  0  0  0  0  0  0  0  0  0  0  0
    4.7410    1.0183   17.5825 C   0  0  0  0  0  0  0  0  0  0  0  0
    4.2888    1.3977   18.8734 C   0  0  0  0  0  0  0  0  0  0  0  0
    3.1697    2.2515   19.0484 C   0  0  0  0  0  0  0  0  0  0  0  0
    2.7561    2.6057   20.3039 C   0  0  0  0  0  0  0  0  0  0  0  0
    3.4377    2.1144   21.4380 C   0  0  0  0  0  0  0  0  0  0  0  0
    4.5216    1.2816   21.2962 C   0  0  0  0  0  0  0  0  0  0  0  0
    4.9855    0.9116   20.0033 C   0  0  0  0  0  0  0  0  0  0  0  0
    5.0223    0.8961   22.1787 H   0  0  0  0  0  0  0  0  0  0  0  0
    3.1050    2.4065   22.4316 H   0  0  0  0  0  0  0  0  0  0  0  0
    1.9037    3.2682   20.4339 H   0  0  0  0  0  0  0  0  0  0  0  0
    2.6657    2.6281   18.1626 H   0  0  0  0  0  0  0  0  0  0  0  0
    4.2041    1.3959   16.7103 H   0  0  0  0  0  0  0  0  0  0  0  0
    7.2806   -0.8698   18.2475 H   0  0  0  0  0  0  0  0  0  0  0  0
    7.9361   -0.7675   20.5410 H   0  0  0  0  0  0  0  0  0  0  0  0
    7.0426    0.2010   21.7164 H   0  0  0  0  0  0  0  0  0  0  0  0
    8.6753   -1.4327   23.4533 C   0  0  0  0  0  0  0  0  0  0  0  0
    9.9349   -1.1779   23.9623 C   0  0  0  0  0  0  0  0  0  0  0  0
   10.1063   -0.4475   24.7410 H   0  0  0  0  0  0  0  0  0  0  0  0
    7.8133   -0.9210   23.8699 H   0  0  0  0  0  0  0  0  0  0  0  0
    9.4385   -3.9121   21.2838 H   0  0  0  0  0  0  0  0  0  0  0  0
   11.7266   -3.2667   22.0251 H   0  0  0  0  0  0  0  0  0  0  0  0
   14.2365   -1.8367   24.0166 H   0  0  0  0  0  0  0  0  0  0  0  0
   13.2743   -3.3142   23.7093 H   0  0  0  0  0  0  0  0  0  0  0  0
   13.4784   -2.0984   22.4196 H   0  0  0  0  0  0  0  0  0  0  0  0
  1  2  1  0
  2  3  1  0
  3  4  2  0
  4  5  1  0
  5  6  2  0
  6  7  1  0
  7  8  1  0
  8  9  1  0
  9 10  2  0
 10 11  1  0
 11 12  2  0
 12 13  1  0
 13 14  1  0
 13 15  2  0
 15 16  1  0
 12 17  1  0
 11 18  1  0
 10 19  1  0
  8 20  1  0
  8 21  1  0
  7 22  1  0
 22 23  2  0
 22 24  1  0
 24 25  1  0
 25 26  2  0
 26 27  1  0
 27 28  2  0
 28 29  1  0
 29 30  2  0
 30 31  1  0
 31 32  2  0
 32 33  1  0
 33 34  2  0
 33 35  1  0
 32 36  1  0
 31 37  1  0
 30 38  1  0
 28 39  1  0
 26 40  1  0
 24 41  1  0
 24 42  1  0
  6 43  1  0
 43 44  2  0
 44 45  1  0
 43 46  1  0
  5 47  1  0
  4 48  1  0
  1 49  1  0
  1 50  1  0
  1 51  1  0
 44  3  1  0
 15  9  1  0
 34 25  1  0
 34 29  1  0
M  END
>  <cnnaffinities>  (2) 
[5.89331]

>  <score>  (2) 
5.89331

>  <index>  (2) 
1

>  <Smiles>  (2) 
C(Oc1c(c(c(N(C(c2c(c(c(c(Cl)c2[H])[H])[H])[H])([H])[H])C(=O)C(c2c(nc(c3c(c(c(c(c23)[H])[H])[H])[H])[H])[H])([H])[H])c(c1[H])[H])[H])[H])([H])([H])[H]

>  <h>  (2) 
<NA>

>  <Training>  (2) 
True

>  <Success>  (2) 
True

>  <enamine_searched>  (2) 
False

>  <enamine_id>  (2) 
nan

$$$$

     RDKit          3D

 56 60  0  0  0  0  0  0  0  0999 V2000
    6.7232    4.4685   21.3378 C   0  0  0  0  0  0  0  0  0  0  0  0
    7.5971    4.0666   22.4272 N   0  0  0  0  0  0  0  0  0  0  0  0
    7.0375    3.3779   23.4527 C   0  0  0  0  0  0  0  0  0  0  0  0
    5.8288    3.2342   23.5550 O   0  0  0  0  0  0  0  0  0  0  0  0
    7.9827    2.8105   24.5166 C   0  0  0  0  0  0  0  0  0  0  0  0
    8.7272    1.6485   24.0824 N   0  0  0  0  0  0  0  0  0  0  0  0
    8.0043    0.3924   23.9508 C   0  0  0  0  0  0  0  0  0  0  0  0
    8.4302   -0.3499   22.6760 C   0  0  2  0  0  0  0  0  0  0  0  0
    7.9143    0.3653   21.4052 C   0  0  0  0  0  0  0  0  0  0  0  0
    8.3126    1.4138   20.9412 O   0  0  0  0  0  0  0  0  0  0  0  0
    6.9283   -0.4012   20.8294 N   0  0  0  0  0  0  0  0  0  0  0  0
    6.1420    0.1115   19.7632 C   0  0  0  0  0  0  0  0  0  0  0  0
    6.4550   -0.2114   18.4676 C   0  0  0  0  0  0  0  0  0  0  0  0
    5.7676    0.2266   17.3878 N   0  0  0  0  0  0  0  0  0  0  0  0
    4.7453    1.0182   17.5952 C   0  0  0  0  0  0  0  0  0  0  0  0
    4.2954    1.4199   18.8852 C   0  0  0  0  0  0  0  0  0  0  0  0
    3.1718    2.2715   19.0658 C   0  0  0  0  0  0  0  0  0  0  0  0
    2.7624    2.6348   20.3204 C   0  0  0  0  0  0  0  0  0  0  0  0
    3.4592    2.1571   21.4545 C   0  0  0  0  0  0  0  0  0  0  0  0
    4.5509    1.3344   21.3043 C   0  0  0  0  0  0  0  0  0  0  0  0
    5.0097    0.9506   20.0136 C   0  0  0  0  0  0  0  0  0  0  0  0
    5.0767    0.9794   22.1858 H   0  0  0  0  0  0  0  0  0  0  0  0
    3.1517    2.4560   22.4508 H   0  0  0  0  0  0  0  0  0  0  0  0
    1.9126    3.3007   20.4467 H   0  0  0  0  0  0  0  0  0  0  0  0
    2.6648    2.6424   18.1788 H   0  0  0  0  0  0  0  0  0  0  0  0
    4.2177    1.3809   16.7136 H   0  0  0  0  0  0  0  0  0  0  0  0
    7.2998   -0.8631   18.2560 H   0  0  0  0  0  0  0  0  0  0  0  0
    6.6031   -1.6144   21.5498 C   0  0  0  0  0  0  0  0  0  0  0  0
    7.7716   -1.7628   22.5400 C   0  0  2  0  0  0  0  0  0  0  0  0
    7.3298   -2.3885   23.8420 N   0  0  0  0  0  4  0  0  0  0  0  0
    6.6016   -1.8000   24.2820 H   0  0  0  0  0  0  0  0  0  0  0  0
    8.1277   -2.4843   24.4928 H   0  0  0  0  0  0  0  0  0  0  0  0
    6.9430   -3.3338   23.6701 H   0  0  0  0  0  0  0  0  0  0  0  0
    8.5122   -2.4366   22.1243 H   0  0  0  0  0  0  0  0  0  0  0  0
    5.6532   -1.5178   22.0976 H   0  0  0  0  0  0  0  0  0  0  0  0
    6.5031   -2.4511   20.8480 H   0  0  0  0  0  0  0  0  0  0  0  0
    9.9381   -0.3617   22.6428 C   0  0  0  0  0  0  0  0  0  0  0  0
   10.5520   -1.2335   21.7579 C   0  0  0  0  0  0  0  0  0  0  0  0
   11.9190   -1.2666   21.6343 C   0  0  0  0  0  0  0  0  0  0  0  0
   12.4840   -2.3699   20.4205 Cl  0  0  0  0  0  0  0  0  0  0  0  0
   12.7391   -0.4248   22.3895 C   0  0  0  0  0  0  0  0  0  0  0  0
   12.1286    0.5088   23.2134 C   0  0  0  0  0  0  0  0  0  0  0  0
   10.7378    0.5675   23.3166 C   0  0  0  0  0  0  0  0  0  0  0  0
   10.1016    1.7007   24.0598 C   0  0  0  0  0  0  0  0  0  0  0  0
   10.7443    2.6136   24.5585 O   0  0  0  0  0  0  0  0  0  0  0  0
   12.7019    1.2407   23.7709 H   0  0  0  0  0  0  0  0  0  0  0  0
   13.8174   -0.4712   22.2964 H   0  0  0  0  0  0  0  0  0  0  0  0
    9.9749   -1.8646   21.0990 H   0  0  0  0  0  0  0  0  0  0  0  0
    8.1873   -0.2579   24.8204 H   0  0  0  0  0  0  0  0  0  0  0  0
    6.9437    0.6558   23.8891 H   0  0  0  0  0  0  0  0  0  0  0  0
    7.3395    2.5512   25.3645 H   0  0  0  0  0  0  0  0  0  0  0  0
    8.7464    3.5238   24.8352 H   0  0  0  0  0  0  0  0  0  0  0  0
    8.5964    4.0031   22.2868 H   0  0  0  0  0  0  0  0  0  0  0  0
    5.9638    5.1625   21.7096 H   0  0  0  0  0  0  0  0  0  0  0  0
    7.2991    4.9725   20.5658 H   0  0  0  0  0  0  0  0  0  0  0  0
    6.2048    3.5924   20.9249 H   0  0  0  0  0  0  0  0  0  0  0  0
  1  2  1  0
  2  3  1  0
  3  4  2  0
  3  5  1  0
  5  6  1  0
  6  7  1  0
  8  7  1  1
  8  9  1  0
  9 10  2  0
  9 11  1  0
 11 12  1  0
 12 13  2  0
 13 14  1  0
 14 15  2  0
 15 16  1  0
 16 17  2  0
 17 18  1  0
 18 19  2  0
 19 20  1  0
 20 21  2  0
 20 22  1  0
 19 23  1  0
 18 24  1  0
 17 25  1  0
 15 26  1  0
 13 27  1  0
 11 28  1  0
 28 29  1  0
 29 30  1  0
 30 31  1  0
 30 32  1  0
 30 33  1  0
 29 34  1  6
 28 35  1  0
 28 36  1  0
  8 37  1  0
 37 38  2  0
 38 39  1  0
 39 40  1  0
 39 41  2  0
 41 42  1  0
 42 43  2  0
 43 44  1  0
 44 45  2  0
 42 46  1  0
 41 47  1  0
 38 48  1  0
  7 49  1  0
  7 50  1  0
  5 51  1  0
  5 52  1  0
  2 53  1  0
  1 54  1  0
  1 55  1  0
  1 56  1  0
 44  6  1  0
 29  8  1  0
 43 37  1  0
 21 12  1  0
 21 16  1  0
M  CHG  1  30   1
M  END
>  <cnnaffinities>  (3) 
[5.69541]

>  <score>  (3) 
5.69541

>  <index>  (3) 
2

>  <Smiles>  (3) 
C(N(C(=O)C(N1C([C@@]2(C(=O)N(c3c(nc(c4c(c(c(c(c34)[H])[H])[H])[H])[H])[H])C([C@@]2([N+]([H])([H])[H])[H])([H])[H])c2c(c(Cl)c(c(c2C1=O)[H])[H])[H])([H])[H])([H])[H])[H])([H])([H])[H]

>  <h>  (3) 
<NA>

>  <Training>  (3) 
True

>  <Success>  (3) 
True

>  <enamine_searched>  (3) 
False

>  <enamine_id>  (3) 
nan

$$$$

     RDKit          3D

 67 73  0  0  0  0  0  0  0  0999 V2000
    9.3437    2.6827   25.4666 O   0  0  0  0  0  0  0  0  0  0  0  0
    9.0189    1.7461   24.7416 C   0  0  0  0  0  0  0  0  0  0  0  0
   10.0027    0.8849   24.0265 C   0  0  0  0  0  0  0  0  0  0  0  0
   11.3506    1.1158   24.2544 C   0  0  0  0  0  0  0  0  0  0  0  0
   12.3211    0.3812   23.6046 C   0  0  0  0  0  0  0  0  0  0  0  0
   11.8929   -0.6073   22.7208 C   0  0  0  0  0  0  0  0  0  0  0  0
   12.9869   -1.8198   22.1412 Cl  0  0  0  0  0  0  0  0  0  0  0  0
   10.5651   -0.7578   22.3872 C   0  0  0  0  0  0  0  0  0  0  0  0
    9.5851   -0.0754   23.1013 C   0  0  0  0  0  0  0  0  0  0  0  0
    8.1295   -0.3630   22.8394 C   0  0  1  0  0  0  0  0  0  0  0  0
    7.3527    0.0765   24.1037 C   0  0  0  0  0  0  0  0  0  0  0  0
    7.7233    1.4295   24.4760 N   0  0  0  0  0  0  0  0  0  0  0  0
    6.6962    2.4238   24.6809 C   0  0  0  0  0  0  0  0  0  0  0  0
    5.8994    2.1432   25.9252 C   0  0  0  0  0  0  0  0  0  0  0  0
    6.4334    2.3662   27.1728 C   0  0  0  0  0  0  0  0  0  0  0  0
    5.6471    2.0132   28.2644 C   0  0  0  0  0  0  0  0  0  0  0  0
    4.4414    1.4589   28.1669 N   0  0  0  0  0  0  0  0  0  0  0  0
    3.9400    1.2096   26.9673 N   0  0  0  0  0  0  0  0  0  0  0  0
    4.6437    1.5392   25.8890 C   0  0  0  0  0  0  0  0  0  0  0  0
    4.1852    1.2862   24.9358 H   0  0  0  0  0  0  0  0  0  0  0  0
    5.9993    2.1903   29.2763 H   0  0  0  0  0  0  0  0  0  0  0  0
    7.4336    2.7802   27.2891 H   0  0  0  0  0  0  0  0  0  0  0  0
    6.0669    2.4373   23.7795 H   0  0  0  0  0  0  0  0  0  0  0  0
    7.2054    3.3878   24.7607 H   0  0  0  0  0  0  0  0  0  0  0  0
    7.5859   -0.6137   24.9311 H   0  0  0  0  0  0  0  0  0  0  0  0
    6.2699    0.0408   23.9492 H   0  0  0  0  0  0  0  0  0  0  0  0
    7.6559    0.4279   21.6058 C   0  0  0  0  0  0  0  0  0  0  0  0
    7.8856    1.5872   21.3314 O   0  0  0  0  0  0  0  0  0  0  0  0
    6.9026   -0.4145   20.8252 N   0  0  0  0  0  0  0  0  0  0  0  0
    6.1228    0.0936   19.7696 C   0  0  0  0  0  0  0  0  0  0  0  0
    6.4382   -0.2378   18.4798 C   0  0  0  0  0  0  0  0  0  0  0  0
    5.7682    0.2140   17.3965 N   0  0  0  0  0  0  0  0  0  0  0  0
    4.7524    1.0150   17.6028 C   0  0  0  0  0  0  0  0  0  0  0  0
    4.3059    1.4116   18.8950 C   0  0  0  0  0  0  0  0  0  0  0  0
    3.1811    2.2586   19.0659 C   0  0  0  0  0  0  0  0  0  0  0  0
    2.7557    2.6099   20.3165 C   0  0  0  0  0  0  0  0  0  0  0  0
    3.4316    2.1243   21.4578 C   0  0  0  0  0  0  0  0  0  0  0  0
    4.5239    1.3063   21.3213 C   0  0  0  0  0  0  0  0  0  0  0  0
    5.0004    0.9382   20.0264 C   0  0  0  0  0  0  0  0  0  0  0  0
    5.0286    0.9304   22.2069 H   0  0  0  0  0  0  0  0  0  0  0  0
    3.0765    2.4023   22.4470 H   0  0  0  0  0  0  0  0  0  0  0  0
    1.8960    3.2611   20.4370 H   0  0  0  0  0  0  0  0  0  0  0  0
    2.6780    2.6239   18.1752 H   0  0  0  0  0  0  0  0  0  0  0  0
    4.2144    1.3801   16.7264 H   0  0  0  0  0  0  0  0  0  0  0  0
    7.2893   -0.8890   18.2850 H   0  0  0  0  0  0  0  0  0  0  0  0
    6.6766   -1.7181   21.4044 C   0  0  0  0  0  0  0  0  0  0  0  0
    7.8220   -1.8277   22.4133 C   0  0  2  0  0  0  0  0  0  0  0  0
    7.5850   -2.8177   23.5612 C   0  0  0  0  0  0  0  0  0  0  0  0
    7.5458   -4.2012   23.1524 N   0  0  0  0  0  0  0  0  0  0  0  0
    6.4544   -4.8088   22.6236 C   0  0  0  0  0  0  0  0  0  0  0  0
    5.1300   -4.3805   22.8364 C   0  0  0  0  0  0  0  0  0  0  0  0
    4.1369   -5.2005   22.3496 C   0  0  0  0  0  0  0  0  0  0  0  0
    4.3859   -6.3043   21.6423 N   0  0  0  0  0  0  0  0  0  0  0  0
    5.6665   -6.5740   21.4494 C   0  0  0  0  0  0  0  0  0  0  0  0
    6.7167   -5.9161   21.9120 N   0  0  0  0  0  0  0  0  0  0  0  0
    5.8740   -7.4506   20.8376 H   0  0  0  0  0  0  0  0  0  0  0  0
    3.0863   -4.9689   22.5240 H   0  0  0  0  0  0  0  0  0  0  0  0
    4.8865   -3.4510   23.3346 H   0  0  0  0  0  0  0  0  0  0  0  0
    8.4077   -4.6455   22.8662 H   0  0  0  0  0  0  0  0  0  0  0  0
    8.3764   -2.7137   24.3109 H   0  0  0  0  0  0  0  0  0  0  0  0
    6.6465   -2.5842   24.0725 H   0  0  0  0  0  0  0  0  0  0  0  0
    8.6899   -2.1871   21.8534 H   0  0  0  0  0  0  0  0  0  0  0  0
    5.6878   -1.7919   21.8850 H   0  0  0  0  0  0  0  0  0  0  0  0
    6.7125   -2.4727   20.6204 H   0  0  0  0  0  0  0  0  0  0  0  0
   10.2994   -1.4181   21.5721 H   0  0  0  0  0  0  0  0  0  0  0  0
   13.3734    0.5789   23.7680 H   0  0  0  0  0  0  0  0  0  0  0  0
   11.5743    1.8687   24.9882 H   0  0  0  0  0  0  0  0  0  0  0  0
  1  2  2  0
  2  3  1  0
  3  4  2  0
  4  5  1  0
  5  6  2  0
  6  7  1  0
  6  8  1  0
  8  9  2  0
  9 10  1  0
 10 11  1  1
 11 12  1  0
 12 13  1  0
 13 14  1  0
 14 15  2  0
 15 16  1  0
 16 17  2  0
 17 18  1  0
 18 19  2  0
 19 20  1  0
 16 21  1  0
 15 22  1  0
 13 23  1  0
 13 24  1  0
 11 25  1  0
 11 26  1  0
 10 27  1  0
 27 28  2  0
 27 29  1  0
 29 30  1  0
 30 31  2  0
 31 32  1  0
 32 33  2  0
 33 34  1  0
 34 35  2  0
 35 36  1  0
 36 37  2  0
 37 38  1  0
 38 39  2  0
 38 40  1  0
 37 41  1  0
 36 42  1  0
 35 43  1  0
 33 44  1  0
 31 45  1  0
 29 46  1  0
 46 47  1  0
 47 48  1  0
 48 49  1  0
 49 50  1  0
 50 51  2  0
 51 52  1  0
 52 53  2  0
 53 54  1  0
 54 55  2  0
 54 56  1  0
 52 57  1  0
 51 58  1  0
 49 59  1  0
 48 60  1  0
 48 61  1  0
 47 62  1  6
 46 63  1  0
 46 64  1  0
  8 65  1  0
  5 66  1  0
  4 67  1  0
 12  2  1  0
 19 14  1  0
 39 30  1  0
 55 50  1  0
  9  3  1  0
 47 10  1  0
 39 34  1  0
M  END
>  <cnnaffinities>  (4) 
[6.38552, 6.20766]

>  <score>  (4) 
6.38552

>  <index>  (4) 
3

>  <Smiles>  (4) 
O=C1c2c(c(c(Cl)c(c2[C@@]2(C(N1C(c1c(c(nnc1[H])[H])[H])([H])[H])([H])[H])C(=O)N(c1c(nc(c3c(c(c(c(c13)[H])[H])[H])[H])[H])[H])C([C@@]2(C(N(c1c(c(nc(n1)[H])[H])[H])[H])([H])[H])[H])([H])[H])[H])[H])[H]

>  <h>  (4) 
<NA>

>  <Training>  (4) 
True

>  <Success>  (4) 
True

>  <enamine_searched>  (4) 
False

>  <enamine_id>  (4) 
nan

$$$$

     RDKit          3D

 41 44  0  0  0  0  0  0  0  0999 V2000
    7.3482   -0.3051   24.4582 C   0  0  0  0  0  0  0  0  0  0  0  0
    7.7869   -1.4657   23.5506 C   0  0  1  0  0  0  0  0  0  0  0  0
    8.5186   -2.5183   24.3443 C   0  0  0  0  0  0  0  0  0  0  0  0
    9.9131   -2.5879   24.6448 C   0  0  0  0  0  0  0  0  0  0  0  0
   10.2065   -3.5774   25.5320 C   0  0  0  0  0  0  0  0  0  0  0  0
    8.7875   -4.4218   26.0287 S   0  0  0  0  0  0  0  0  0  0  0  0
    7.7850   -3.4431   25.0113 C   0  0  0  0  0  0  0  0  0  0  0  0
    6.2837   -3.4082   24.8959 C   0  0  0  0  0  0  0  0  0  0  0  0
    5.8983   -3.1815   23.4414 C   0  0  0  0  0  0  0  0  0  0  0  0
    6.6377   -2.0643   22.8586 N   0  0  0  0  0  0  0  0  0  0  0  0
    6.1801   -1.6669   21.6323 C   0  0  0  0  0  0  0  0  0  0  0  0
    5.2324   -2.2342   21.1029 O   0  0  0  0  0  0  0  0  0  0  0  0
    6.8980   -0.5152   20.9305 C   0  0  0  0  0  0  0  0  0  0  0  0
    6.1049    0.0642   19.7932 C   0  0  0  0  0  0  0  0  0  0  0  0
    6.4246   -0.2322   18.4915 C   0  0  0  0  0  0  0  0  0  0  0  0
    5.7669    0.2224   17.3941 N   0  0  0  0  0  0  0  0  0  0  0  0
    4.7442    1.0135   17.5939 C   0  0  0  0  0  0  0  0  0  0  0  0
    4.2846    1.4008   18.8833 C   0  0  0  0  0  0  0  0  0  0  0  0
    3.1655    2.2557   19.0504 C   0  0  0  0  0  0  0  0  0  0  0  0
    2.7488    2.6149   20.3024 C   0  0  0  0  0  0  0  0  0  0  0  0
    3.4334    2.1347   21.4434 C   0  0  0  0  0  0  0  0  0  0  0  0
    4.5232    1.3074   21.3023 C   0  0  0  0  0  0  0  0  0  0  0  0
    4.9797    0.9158   20.0160 C   0  0  0  0  0  0  0  0  0  0  0  0
    5.0429    0.9483   22.1852 H   0  0  0  0  0  0  0  0  0  0  0  0
    3.1014    2.4269   22.4342 H   0  0  0  0  0  0  0  0  0  0  0  0
    1.8978    3.2777   20.4268 H   0  0  0  0  0  0  0  0  0  0  0  0
    2.6664    2.6279   18.1567 H   0  0  0  0  0  0  0  0  0  0  0  0
    4.2226    1.3882   16.7124 H   0  0  0  0  0  0  0  0  0  0  0  0
    7.2717   -0.8807   18.2733 H   0  0  0  0  0  0  0  0  0  0  0  0
    7.8503   -0.9046   20.5443 H   0  0  0  0  0  0  0  0  0  0  0  0
    7.1555    0.2605   21.6606 H   0  0  0  0  0  0  0  0  0  0  0  0
    4.8330   -2.9419   23.3457 H   0  0  0  0  0  0  0  0  0  0  0  0
    6.0940   -4.0865   22.8508 H   0  0  0  0  0  0  0  0  0  0  0  0
    5.9169   -2.5578   25.4876 H   0  0  0  0  0  0  0  0  0  0  0  0
    5.7684   -4.2845   25.2962 H   0  0  0  0  0  0  0  0  0  0  0  0
   11.1635   -3.7859   25.9979 H   0  0  0  0  0  0  0  0  0  0  0  0
   10.6421   -1.8769   24.2762 H   0  0  0  0  0  0  0  0  0  0  0  0
    8.4707   -1.0912   22.7790 H   0  0  0  0  0  0  0  0  0  0  0  0
    6.8179    0.4639   23.8924 H   0  0  0  0  0  0  0  0  0  0  0  0
    8.2239    0.1439   24.9370 H   0  0  0  0  0  0  0  0  0  0  0  0
    6.6685   -0.6561   25.2409 H   0  0  0  0  0  0  0  0  0  0  0  0
  1  2  1  0
  2  3  1  0
  3  4  1  0
  4  5  2  0
  5  6  1  0
  6  7  1  0
  7  8  1  0
  8  9  1  0
  9 10  1  0
 10 11  1  0
 11 12  2  0
 11 13  1  0
 13 14  1  0
 14 15  2  0
 15 16  1  0
 16 17  2  0
 17 18  1  0
 18 19  2  0
 19 20  1  0
 20 21  2  0
 21 22  1  0
 22 23  2  0
 22 24  1  0
 21 25  1  0
 20 26  1  0
 19 27  1  0
 17 28  1  0
 15 29  1  0
 13 30  1  0
 13 31  1  0
  9 32  1  0
  9 33  1  0
  8 34  1  0
  8 35  1  0
  5 36  1  0
  4 37  1  0
  2 38  1  6
  1 39  1  0
  1 40  1  0
  1 41  1  0
 10  2  1  0
 23 14  1  0
  7  3  2  0
 23 18  1  0
M  END
>  <cnnaffinities>  (5) 
[5.18376, 5.47413, 5.85153, 5.24965]

>  <score>  (5) 
5.18376

>  <index>  (5) 
4

>  <Smiles>  (5) 
C([C@]1(c2c(c(sc2C(C(N1C(=O)C(c1c(nc(c2c(c(c(c(c12)[H])[H])[H])[H])[H])[H])([H])[H])([H])[H])([H])[H])[H])[H])[H])([H])([H])[H]

>  <h>  (5) 
<NA>

>  <Training>  (5) 
True

>  <Success>  (5) 
True

>  <enamine_searched>  (5) 
False

>  <enamine_id>  (5) 
nan

$$$$

     RDKit          3D

 50 54  0  0  0  0  0  0  0  0999 V2000
    7.0264   -2.4609   23.4758 C   0  0  0  0  0  0  0  0  0  0  0  0
    7.9159   -1.8851   22.3715 C   0  0  1  0  0  0  0  0  0  0  0  0
    7.1923   -1.7968   21.0110 C   0  0  0  0  0  0  0  0  0  0  0  0
    6.8881   -0.3936   20.8563 N   0  0  0  0  0  0  0  0  0  0  0  0
    6.1135    0.0977   19.7886 C   0  0  0  0  0  0  0  0  0  0  0  0
    6.4320   -0.2382   18.4981 C   0  0  0  0  0  0  0  0  0  0  0  0
    5.7712    0.2105   17.4077 N   0  0  0  0  0  0  0  0  0  0  0  0
    4.7528    1.0107   17.6054 C   0  0  0  0  0  0  0  0  0  0  0  0
    4.2942    1.4018   18.8945 C   0  0  0  0  0  0  0  0  0  0  0  0
    3.1710    2.2519   19.0537 C   0  0  0  0  0  0  0  0  0  0  0  0
    2.7373    2.6039   20.3013 C   0  0  0  0  0  0  0  0  0  0  0  0
    3.3955    2.1113   21.4481 C   0  0  0  0  0  0  0  0  0  0  0  0
    4.4827    1.2847   21.3217 C   0  0  0  0  0  0  0  0  0  0  0  0
    4.9765    0.9285   20.0330 C   0  0  0  0  0  0  0  0  0  0  0  0
    4.9779    0.9109   22.2112 H   0  0  0  0  0  0  0  0  0  0  0  0
    3.0355    2.3906   22.4340 H   0  0  0  0  0  0  0  0  0  0  0  0
    1.8820    3.2622   20.4165 H   0  0  0  0  0  0  0  0  0  0  0  0
    2.6797    2.6245   18.1608 H   0  0  0  0  0  0  0  0  0  0  0  0
    4.2235    1.3810   16.7269 H   0  0  0  0  0  0  0  0  0  0  0  0
    7.2880   -0.8836   18.3029 H   0  0  0  0  0  0  0  0  0  0  0  0
    7.6599    0.4279   21.6462 C   0  0  0  0  0  0  0  0  0  0  0  0
    7.6721    1.6399   21.5687 O   0  0  0  0  0  0  0  0  0  0  0  0
    8.4722   -0.4479   22.6256 C   0  0  1  0  0  0  0  0  0  0  0  0
    8.2768    0.0599   24.0616 C   0  0  0  0  0  0  0  0  0  0  0  0
    8.8120    1.3938   24.1915 N   0  0  0  0  0  0  0  0  0  0  0  0
    7.9825    2.4001   24.8005 C   0  0  0  0  0  0  0  0  0  0  0  0
    7.9630    2.2161   26.2617 C   0  0  0  0  0  0  0  0  0  0  0  0
    8.0722    2.0192   27.3937 N   0  0  0  0  0  0  0  0  0  0  0  0
    8.3840    3.3866   24.5413 H   0  0  0  0  0  0  0  0  0  0  0  0
    6.9667    2.2828   24.4004 H   0  0  0  0  0  0  0  0  0  0  0  0
   10.1238    1.6605   23.9013 C   0  0  0  0  0  0  0  0  0  0  0  0
   10.7021    2.6421   24.3376 O   0  0  0  0  0  0  0  0  0  0  0  0
   10.7465    0.6791   22.9555 C   0  0  0  0  0  0  0  0  0  0  0  0
   12.1025    0.8101   22.6527 C   0  0  0  0  0  0  0  0  0  0  0  0
   12.7245   -0.0808   21.7967 C   0  0  0  0  0  0  0  0  0  0  0  0
   11.9276   -1.0763   21.2423 C   0  0  0  0  0  0  0  0  0  0  0  0
   12.4534   -1.9995   20.4286 F   0  0  0  0  0  0  0  0  0  0  0  0
   10.5733   -1.1705   21.4521 C   0  0  0  0  0  0  0  0  0  0  0  0
    9.9610   -0.3169   22.3568 C   0  0  0  0  0  0  0  0  0  0  0  0
   10.0365   -1.9403   20.9130 H   0  0  0  0  0  0  0  0  0  0  0  0
   13.7806   -0.0132   21.5511 H   0  0  0  0  0  0  0  0  0  0  0  0
   12.6396    1.6336   23.1086 H   0  0  0  0  0  0  0  0  0  0  0  0
    8.7834   -0.6179   24.7634 H   0  0  0  0  0  0  0  0  0  0  0  0
    7.2203    0.0849   24.3210 H   0  0  0  0  0  0  0  0  0  0  0  0
    6.2657   -2.3785   20.9777 H   0  0  0  0  0  0  0  0  0  0  0  0
    7.8423   -2.1481   20.1993 H   0  0  0  0  0  0  0  0  0  0  0  0
    8.7517   -2.5845   22.3013 H   0  0  0  0  0  0  0  0  0  0  0  0
    6.1320   -1.8539   23.6475 H   0  0  0  0  0  0  0  0  0  0  0  0
    6.7068   -3.4745   23.2096 H   0  0  0  0  0  0  0  0  0  0  0  0
    7.5810   -2.5318   24.4177 H   0  0  0  0  0  0  0  0  0  0  0  0
  1  2  1  0
  2  3  1  0
  3  4  1  0
  4  5  1  0
  5  6  2  0
  6  7  1  0
  7  8  2  0
  8  9  1  0
  9 10  2  0
 10 11  1  0
 11 12  2  0
 12 13  1  0
 13 14  2  0
 13 15  1  0
 12 16  1  0
 11 17  1  0
 10 18  1  0
  8 19  1  0
  6 20  1  0
  4 21  1  0
 21 22  2  0
 21 23  1  0
 23 24  1  1
 24 25  1  0
 25 26  1  0
 26 27  1  0
 27 28  3  0
 26 29  1  0
 26 30  1  0
 25 31  1  0
 31 32  2  0
 31 33  1  0
 33 34  2  0
 34 35  1  0
 35 36  2  0
 36 37  1  0
 36 38  1  0
 38 39  2  0
 38 40  1  0
 35 41  1  0
 34 42  1  0
 24 43  1  0
 24 44  1  0
  3 45  1  0
  3 46  1  0
  2 47  1  6
  1 48  1  0
  1 49  1  0
  1 50  1  0
 23  2  1  0
 39 33  1  0
 14  5  1  0
 39 23  1  0
 14  9  1  0
M  END
>  <cnnaffinities>  (6) 
[5.79148, 6.35079]

>  <score>  (6) 
5.79148

>  <index>  (6) 
5

>  <Smiles>  (6) 
C([C@]1(C(N(c2c(nc(c3c(c(c(c(c23)[H])[H])[H])[H])[H])[H])C(=O)[C@]21C(N(C(C#N)([H])[H])C(=O)c1c(c(c(F)c(c21)[H])[H])[H])([H])[H])([H])[H])[H])([H])([H])[H]

>  <h>  (6) 
<NA>

>  <Training>  (6) 
True

>  <Success>  (6) 
True

>  <enamine_searched>  (6) 
False

>  <enamine_id>  (6) 
nan

$$$$

     RDKit          3D

 65 69  0  0  0  0  0  0  0  0999 V2000
    8.9746    4.9813   26.1398 C   0  0  0  0  0  0  0  0  0  0  0  0
    9.6601    3.6343   25.9030 C   0  0  0  0  0  0  0  0  0  0  0  0
    8.7141    2.6733   25.2324 C   0  0  0  0  0  0  0  0  0  0  0  0
    8.1499    2.9093   24.1991 O   0  0  0  0  0  0  0  0  0  0  0  0
    8.4897    1.3351   25.9659 N   0  0  1  0  0  4  0  0  0  0  0  0
    7.1600    1.2518   26.7592 C   0  0  0  0  0  0  0  0  0  0  0  0
    6.0081    1.0801   25.7841 C   0  0  0  0  0  0  0  0  0  0  0  0
    6.1292   -0.2715   25.0844 C   0  0  0  0  0  0  0  0  0  0  0  0
    7.5232   -0.5021   24.5220 C   0  0  0  0  0  0  0  0  0  0  0  0
    7.7272   -1.4059   23.4705 C   0  0  0  0  0  0  0  0  0  0  0  0
    6.5792   -1.9673   22.8356 N   0  0  0  0  0  0  0  0  0  0  0  0
    6.0214   -3.1658   23.4525 C   0  0  0  0  0  0  0  0  0  0  0  0
    6.6997   -4.4161   22.9404 C   0  0  0  0  0  0  0  0  0  0  0  0
    7.8977   -4.8876   23.4757 C   0  0  0  0  0  0  0  0  0  0  0  0
    8.3687   -6.1399   23.0915 C   0  0  0  0  0  0  0  0  0  0  0  0
    7.7183   -6.8725   22.1047 C   0  0  0  0  0  0  0  0  0  0  0  0
    6.6426   -6.2917   21.4432 C   0  0  0  0  0  0  0  0  0  0  0  0
    5.8804   -7.0810   20.0886 Cl  0  0  0  0  0  0  0  0  0  0  0  0
    6.1400   -5.0669   21.8436 C   0  0  0  0  0  0  0  0  0  0  0  0
    5.3432   -4.5924   21.2822 H   0  0  0  0  0  0  0  0  0  0  0  0
    8.0820   -7.8538   21.8257 H   0  0  0  0  0  0  0  0  0  0  0  0
    9.2235   -6.5722   23.6070 H   0  0  0  0  0  0  0  0  0  0  0  0
    8.4687   -4.2878   24.1855 H   0  0  0  0  0  0  0  0  0  0  0  0
    4.9531   -3.2066   23.2191 H   0  0  0  0  0  0  0  0  0  0  0  0
    6.1256   -3.0700   24.5387 H   0  0  0  0  0  0  0  0  0  0  0  0
    6.1872   -1.6568   21.5555 C   0  0  0  0  0  0  0  0  0  0  0  0
    5.2899   -2.2632   20.9852 O   0  0  0  0  0  0  0  0  0  0  0  0
    6.9079   -0.4840   20.8869 C   0  0  0  0  0  0  0  0  0  0  0  0
    6.1170    0.0877   19.7570 C   0  0  0  0  0  0  0  0  0  0  0  0
    6.4258   -0.2341   18.4625 C   0  0  0  0  0  0  0  0  0  0  0  0
    5.7605    0.2133   17.3689 N   0  0  0  0  0  0  0  0  0  0  0  0
    4.7429    1.0084   17.5810 C   0  0  0  0  0  0  0  0  0  0  0  0
    4.2869    1.3998   18.8700 C   0  0  0  0  0  0  0  0  0  0  0  0
    3.1667    2.2512   19.0453 C   0  0  0  0  0  0  0  0  0  0  0  0
    2.7563    2.6114   20.2984 C   0  0  0  0  0  0  0  0  0  0  0  0
    3.4446    2.1340   21.4374 C   0  0  0  0  0  0  0  0  0  0  0  0
    4.5347    1.3101   21.2929 C   0  0  0  0  0  0  0  0  0  0  0  0
    4.9886    0.9230   20.0006 C   0  0  0  0  0  0  0  0  0  0  0  0
    5.0569    0.9537   22.1780 H   0  0  0  0  0  0  0  0  0  0  0  0
    3.1113    2.4299   22.4280 H   0  0  0  0  0  0  0  0  0  0  0  0
    1.9055    3.2739   20.4273 H   0  0  0  0  0  0  0  0  0  0  0  0
    2.6587    2.6234   18.1581 H   0  0  0  0  0  0  0  0  0  0  0  0
    4.2147    1.3798   16.7033 H   0  0  0  0  0  0  0  0  0  0  0  0
    7.2669   -0.8970   18.2569 H   0  0  0  0  0  0  0  0  0  0  0  0
    7.1285    0.2711   21.6485 H   0  0  0  0  0  0  0  0  0  0  0  0
    7.8808   -0.8513   20.5298 H   0  0  0  0  0  0  0  0  0  0  0  0
    9.0103   -1.7838   23.0918 C   0  0  0  0  0  0  0  0  0  0  0  0
   10.1183   -1.2365   23.7340 C   0  0  0  0  0  0  0  0  0  0  0  0
    9.9369   -0.2719   24.7152 C   0  0  0  0  0  0  0  0  0  0  0  0
    8.6452    0.1282   25.0564 C   0  0  0  0  0  0  0  0  0  0  0  0
   10.7876    0.1784   25.2184 H   0  0  0  0  0  0  0  0  0  0  0  0
   11.1205   -1.5456   23.4574 H   0  0  0  0  0  0  0  0  0  0  0  0
    9.1455   -2.5353   22.3171 H   0  0  0  0  0  0  0  0  0  0  0  0
    5.3831   -0.3444   24.2845 H   0  0  0  0  0  0  0  0  0  0  0  0
    5.9040   -1.0748   25.8050 H   0  0  0  0  0  0  0  0  0  0  0  0
    6.0473    1.8826   25.0380 H   0  0  0  0  0  0  0  0  0  0  0  0
    5.0567    1.1525   26.3174 H   0  0  0  0  0  0  0  0  0  0  0  0
    7.0548    2.1433   27.3801 H   0  0  0  0  0  0  0  0  0  0  0  0
    7.2335    0.3810   27.4169 H   0  0  0  0  0  0  0  0  0  0  0  0
    9.2653    1.2770   26.6485 H   0  0  0  0  0  0  0  0  0  0  0  0
   10.5250    3.7695   25.2445 H   0  0  0  0  0  0  0  0  0  0  0  0
   10.0292    3.1811   26.8221 H   0  0  0  0  0  0  0  0  0  0  0  0
    9.6204    5.6388   26.7262 H   0  0  0  0  0  0  0  0  0  0  0  0
    8.0341    4.8577   26.6903 H   0  0  0  0  0  0  0  0  0  0  0  0
    8.7578    5.4646   25.1818 H   0  0  0  0  0  0  0  0  0  0  0  0
  1  2  1  0
  2  3  1  0
  3  4  2  0
  3  5  1  0
  5  6  1  0
  6  7  1  0
  7  8  1  0
  8  9  1  0
  9 10  2  0
 10 11  1  0
 11 12  1  0
 12 13  1  0
 13 14  2  0
 14 15  1  0
 15 16  2  0
 16 17  1  0
 17 18  1  0
 17 19  2  0
 19 20  1  0
 16 21  1  0
 15 22  1  0
 14 23  1  0
 12 24  1  0
 12 25  1  0
 11 26  1  0
 26 27  2  0
 26 28  1  0
 28 29  1  0
 29 30  2  0
 30 31  1  0
 31 32  2  0
 32 33  1  0
 33 34  2  0
 34 35  1  0
 35 36  2  0
 36 37  1  0
 37 38  2  0
 37 39  1  0
 36 40  1  0
 35 41  1  0
 34 42  1  0
 32 43  1  0
 30 44  1  0
 28 45  1  0
 28 46  1  0
 10 47  1  0
 47 48  2  0
 48 49  1  0
 49 50  2  0
 49 51  1  0
 48 52  1  0
 47 53  1  0
  8 54  1  0
  8 55  1  0
  7 56  1  0
  7 57  1  0
  6 58  1  0
  6 59  1  0
  5 60  1  1
  2 61  1  0
  2 62  1  0
  1 63  1  0
  1 64  1  0
  1 65  1  0
 50  5  1  0
 50  9  1  0
 19 13  1  0
 38 29  1  0
 38 33  1  0
M  CHG  1   5   1
M  END
>  <cnnaffinities>  (7) 
[6.40027]

>  <score>  (7) 
6.40027

>  <index>  (7) 
6

>  <Smiles>  (7) 
C(C(C(=O)[N@+]1(C(C(C(c2c(N(C(c3c(c(c(c(Cl)c3[H])[H])[H])[H])([H])[H])C(=O)C(c3c(nc(c4c(c(c(c(c34)[H])[H])[H])[H])[H])[H])([H])[H])c(c(c(c12)[H])[H])[H])([H])[H])([H])[H])([H])[H])[H])([H])[H])([H])([H])[H]

>  <h>  (7) 
<NA>

>  <Training>  (7) 
True

>  <Success>  (7) 
True

>  <enamine_searched>  (7) 
False

>  <enamine_id>  (7) 
nan

$$$$

     RDKit          3D

 37 39  0  0  0  0  0  0  0  0999 V2000
    5.1651   -2.2641   20.9993 O   0  0  0  0  0  0  0  0  0  0  0  0
    5.8787   -1.5560   21.6925 C   0  0  0  0  0  0  0  0  0  0  0  0
    6.8287   -0.5650   20.9985 C   0  0  0  0  0  0  0  0  0  0  0  0
    6.1206    0.0639   19.8222 C   0  0  0  0  0  0  0  0  0  0  0  0
    6.4624   -0.2350   18.5297 C   0  0  0  0  0  0  0  0  0  0  0  0
    5.8171    0.2199   17.4237 N   0  0  0  0  0  0  0  0  0  0  0  0
    4.7845    1.0006   17.6152 C   0  0  0  0  0  0  0  0  0  0  0  0
    4.3081    1.3924   18.8964 C   0  0  0  0  0  0  0  0  0  0  0  0
    3.1755    2.2310   19.0564 C   0  0  0  0  0  0  0  0  0  0  0  0
    2.7472    2.5966   20.3035 C   0  0  0  0  0  0  0  0  0  0  0  0
    3.4388    2.1388   21.4469 C   0  0  0  0  0  0  0  0  0  0  0  0
    4.5338    1.3244   21.3179 C   0  0  0  0  0  0  0  0  0  0  0  0
    4.9986    0.9194   20.0359 C   0  0  0  0  0  0  0  0  0  0  0  0
    5.0496    0.9766   22.2080 H   0  0  0  0  0  0  0  0  0  0  0  0
    3.0925    2.4367   22.4326 H   0  0  0  0  0  0  0  0  0  0  0  0
    1.8833    3.2444   20.4226 H   0  0  0  0  0  0  0  0  0  0  0  0
    2.6679    2.5911   18.1646 H   0  0  0  0  0  0  0  0  0  0  0  0
    4.2636    1.3576   16.7254 H   0  0  0  0  0  0  0  0  0  0  0  0
    7.3102   -0.8903   18.3264 H   0  0  0  0  0  0  0  0  0  0  0  0
    7.6970   -1.1342   20.6342 H   0  0  0  0  0  0  0  0  0  0  0  0
    7.1838    0.2128   21.6844 H   0  0  0  0  0  0  0  0  0  0  0  0
    5.8247   -1.5875   23.0705 N   0  0  0  0  0  0  0  0  0  0  0  0
    4.7146   -2.3258   23.6726 C   0  0  0  0  0  0  0  0  0  0  0  0
    4.1439   -1.5308   24.8380 C   0  0  0  0  0  0  0  0  0  0  0  0
    5.2365   -1.3342   25.8805 C   0  0  0  0  0  0  0  0  0  0  0  0
    6.3952   -0.5614   25.2472 C   0  0  0  0  0  0  0  0  0  0  0  0
    6.9218   -1.3009   24.0096 C   0  0  0  0  0  0  0  0  0  0  0  0
    7.3696   -2.2503   24.3592 H   0  0  0  0  0  0  0  0  0  0  0  0
    7.7038   -0.7103   23.5181 H   0  0  0  0  0  0  0  0  0  0  0  0
    6.0373    0.4363   24.9602 H   0  0  0  0  0  0  0  0  0  0  0  0
    7.2018   -0.4219   25.9810 H   0  0  0  0  0  0  0  0  0  0  0  0
    5.5982   -2.3162   26.2141 H   0  0  0  0  0  0  0  0  0  0  0  0
    4.8659   -0.8299   26.7810 H   0  0  0  0  0  0  0  0  0  0  0  0
    3.2605   -2.0303   25.2525 H   0  0  0  0  0  0  0  0  0  0  0  0
    3.8503   -0.5407   24.4667 H   0  0  0  0  0  0  0  0  0  0  0  0
    3.9663   -2.5133   22.9013 H   0  0  0  0  0  0  0  0  0  0  0  0
    5.0768   -3.3014   24.0319 H   0  0  0  0  0  0  0  0  0  0  0  0
  1  2  2  0
  2  3  1  0
  3  4  1  0
  4  5  2  0
  5  6  1  0
  6  7  2  0
  7  8  1  0
  8  9  2  0
  9 10  1  0
 10 11  2  0
 11 12  1  0
 12 13  2  0
 12 14  1  0
 11 15  1  0
 10 16  1  0
  9 17  1  0
  7 18  1  0
  5 19  1  0
  3 20  1  0
  3 21  1  0
  2 22  1  0
 22 23  1  0
 23 24  1  0
 24 25  1  0
 25 26  1  0
 26 27  1  0
 27 28  1  0
 27 29  1  0
 26 30  1  0
 26 31  1  0
 25 32  1  0
 25 33  1  0
 24 34  1  0
 24 35  1  0
 23 36  1  0
 23 37  1  0
 13  4  1  0
 27 22  1  0
 13  8  1  0
M  END
>  <cnnaffinities>  (8) 
[4.75192, 4.85457, 4.85513, 4.69608, 4.69589, 4.65818]

>  <score>  (8) 
4.75192

>  <index>  (8) 
7

>  <Smiles>  (8) 
O=C(C(c1c(nc(c2c(c(c(c(c12)[H])[H])[H])[H])[H])[H])([H])[H])N1C(C(C(C(C1([H])[H])([H])[H])([H])[H])([H])[H])([H])[H]

>  <h>  (8) 
<NA>

>  <Training>  (8) 
True

>  <Success>  (8) 
True

>  <enamine_searched>  (8) 
False

>  <enamine_id>  (8) 
nan

$$$$

     RDKit          3D

 66 71  0  0  0  0  0  0  0  0999 V2000
    7.7714   -2.8590   23.3662 C   0  0  0  0  0  0  0  0  0  0  0  0
    8.0751   -1.8462   22.2628 C   0  0  1  0  0  0  0  0  0  0  0  0
    6.9131   -1.7338   21.2646 C   0  0  0  0  0  0  0  0  0  0  0  0
    6.9394   -0.3596   20.8357 N   0  0  0  0  0  0  0  0  0  0  0  0
    6.1362    0.1143   19.7778 C   0  0  0  0  0  0  0  0  0  0  0  0
    6.4425   -0.2352   18.4883 C   0  0  0  0  0  0  0  0  0  0  0  0
    5.7752    0.2075   17.3996 N   0  0  0  0  0  0  0  0  0  0  0  0
    4.7560    1.0066   17.6042 C   0  0  0  0  0  0  0  0  0  0  0  0
    4.3034    1.4003   18.8949 C   0  0  0  0  0  0  0  0  0  0  0  0
    3.1746    2.2437   19.0608 C   0  0  0  0  0  0  0  0  0  0  0  0
    2.7482    2.5947   20.3100 C   0  0  0  0  0  0  0  0  0  0  0  0
    3.4238    2.1194   21.4560 C   0  0  0  0  0  0  0  0  0  0  0  0
    4.5178    1.3013   21.3235 C   0  0  0  0  0  0  0  0  0  0  0  0
    4.9975    0.9364   20.0327 C   0  0  0  0  0  0  0  0  0  0  0  0
    5.0247    0.9446   22.2156 H   0  0  0  0  0  0  0  0  0  0  0  0
    3.0843    2.4110   22.4447 H   0  0  0  0  0  0  0  0  0  0  0  0
    1.8854    3.2417   20.4266 H   0  0  0  0  0  0  0  0  0  0  0  0
    2.6757    2.6115   18.1683 H   0  0  0  0  0  0  0  0  0  0  0  0
    4.2164    1.3732   16.7300 H   0  0  0  0  0  0  0  0  0  0  0  0
    7.2963   -0.8856   18.3010 H   0  0  0  0  0  0  0  0  0  0  0  0
    7.7268    0.4654   21.5918 C   0  0  0  0  0  0  0  0  0  0  0  0
    7.8426    1.6613   21.4042 O   0  0  0  0  0  0  0  0  0  0  0  0
    8.4003   -0.3771   22.6988 C   0  0  1  0  0  0  0  0  0  0  0  0
    7.7614   -0.0481   24.0703 C   0  0  0  0  0  0  0  0  0  0  0  0
    8.2085    1.2156   24.6256 N   0  0  0  0  0  0  0  0  0  0  0  0
    7.2429    2.1772   25.1244 C   0  0  0  0  0  0  0  0  0  0  0  0
    6.8956    3.2021   24.0432 C   0  0  0  0  0  0  0  0  0  0  0  0
    5.7838    3.2586   23.5280 O   0  0  0  0  0  0  0  0  0  0  0  0
    7.9168    4.0259   23.7090 N   0  0  0  0  0  0  0  0  0  0  0  0
    7.7858    4.9182   22.5763 C   0  0  0  0  0  0  0  0  0  0  0  0
    9.0358    5.7180   22.3738 C   0  0  0  0  0  0  0  0  0  0  0  0
    9.2839    7.0722   22.4923 C   0  0  0  0  0  0  0  0  0  0  0  0
   10.6330    7.2257   22.1138 C   0  0  0  0  0  0  0  0  0  0  0  0
   11.1853    6.0623   21.8052 N   0  0  0  0  0  0  0  0  0  0  0  0
   10.2106    5.1527   21.9696 N   0  0  0  0  0  0  0  0  0  0  0  0
   10.5268    3.7712   21.6444 C   0  0  0  0  0  0  0  0  0  0  0  0
   11.5720    3.7881   21.3234 H   0  0  0  0  0  0  0  0  0  0  0  0
   10.4232    3.1265   22.5221 H   0  0  0  0  0  0  0  0  0  0  0  0
    9.8823    3.3882   20.8466 H   0  0  0  0  0  0  0  0  0  0  0  0
   11.2423    8.1212   22.0431 H   0  0  0  0  0  0  0  0  0  0  0  0
    8.5955    7.8245   22.8593 H   0  0  0  0  0  0  0  0  0  0  0  0
    7.5400    4.3284   21.6805 H   0  0  0  0  0  0  0  0  0  0  0  0
    6.9312    5.5779   22.7480 H   0  0  0  0  0  0  0  0  0  0  0  0
    8.7957    3.9956   24.2161 H   0  0  0  0  0  0  0  0  0  0  0  0
    7.6907    2.6823   25.9859 H   0  0  0  0  0  0  0  0  0  0  0  0
    6.3361    1.6500   25.4320 H   0  0  0  0  0  0  0  0  0  0  0  0
    9.5144    1.5857   24.6070 C   0  0  0  0  0  0  0  0  0  0  0  0
    9.9170    2.5793   25.2198 O   0  0  0  0  0  0  0  0  0  0  0  0
   10.4191    0.8007   23.7197 C   0  0  0  0  0  0  0  0  0  0  0  0
   11.7843    1.0791   23.7623 C   0  0  0  0  0  0  0  0  0  0  0  0
   12.6326    0.5570   22.8050 C   0  0  0  0  0  0  0  0  0  0  0  0
   12.0981   -0.2576   21.8059 C   0  0  0  0  0  0  0  0  0  0  0  0
   10.7420   -0.5249   21.7615 C   0  0  0  0  0  0  0  0  0  0  0  0
    9.8812   -0.0540   22.7544 C   0  0  0  0  0  0  0  0  0  0  0  0
   10.3432   -1.0913   20.9250 H   0  0  0  0  0  0  0  0  0  0  0  0
   12.7363   -0.6991   21.0497 H   0  0  0  0  0  0  0  0  0  0  0  0
   13.6847    0.8268   22.8003 H   0  0  0  0  0  0  0  0  0  0  0  0
   12.1454    1.7528   24.5260 H   0  0  0  0  0  0  0  0  0  0  0  0
    8.0228   -0.8482   24.7696 H   0  0  0  0  0  0  0  0  0  0  0  0
    6.6700   -0.0206   23.9671 H   0  0  0  0  0  0  0  0  0  0  0  0
    7.0429   -2.3834   20.3999 H   0  0  0  0  0  0  0  0  0  0  0  0
    5.9493   -1.9859   21.7300 H   0  0  0  0  0  0  0  0  0  0  0  0
    8.9491   -2.2229   21.7261 H   0  0  0  0  0  0  0  0  0  0  0  0
    8.5880   -2.9367   24.0912 H   0  0  0  0  0  0  0  0  0  0  0  0
    6.8564   -2.5968   23.9093 H   0  0  0  0  0  0  0  0  0  0  0  0
    7.6206   -3.8516   22.9309 H   0  0  0  0  0  0  0  0  0  0  0  0
  1  2  1  0
  2  3  1  0
  3  4  1  0
  4  5  1  0
  5  6  2  0
  6  7  1  0
  7  8  2  0
  8  9  1  0
  9 10  2  0
 10 11  1  0
 11 12  2  0
 12 13  1  0
 13 14  2  0
 13 15  1  0
 12 16  1  0
 11 17  1  0
 10 18  1  0
  8 19  1  0
  6 20  1  0
  4 21  1  0
 21 22  2  0
 21 23  1  0
 23 24  1  1
 24 25  1  0
 25 26  1  0
 26 27  1  0
 27 28  2  0
 27 29  1  0
 29 30  1  0
 30 31  1  0
 31 32  2  0
 32 33  1  0
 33 34  2  0
 34 35  1  0
 35 36  1  0
 36 37  1  0
 36 38  1  0
 36 39  1  0
 33 40  1  0
 32 41  1  0
 30 42  1  0
 30 43  1  0
 29 44  1  0
 26 45  1  0
 26 46  1  0
 25 47  1  0
 47 48  2  0
 47 49  1  0
 49 50  2  0
 50 51  1  0
 51 52  2  0
 52 53  1  0
 53 54  2  0
 53 55  1  0
 52 56  1  0
 51 57  1  0
 50 58  1  0
 24 59  1  0
 24 60  1  0
  3 61  1  0
  3 62  1  0
  2 63  1  6
  1 64  1  0
  1 65  1  0
  1 66  1  0
 23  2  1  0
 35 31  1  0
 54 49  1  0
 14  5  1  0
 54 23  1  0
 14  9  1  0
M  END
>  <cnnaffinities>  (9) 
[6.59985]

>  <score>  (9) 
6.59985

>  <index>  (9) 
8

>  <Smiles>  (9) 
C([C@]1(C(N(c2c(nc(c3c(c(c(c(c23)[H])[H])[H])[H])[H])[H])C(=O)[C@]21C(N(C(C(=O)N(C(c1c(c(nn1C([H])([H])[H])[H])[H])([H])[H])[H])([H])[H])C(=O)c1c(c(c(c(c21)[H])[H])[H])[H])([H])[H])([H])[H])[H])([H])([H])[H]

>  <h>  (9) 
<NA>

>  <Training>  (9) 
True

>  <Success>  (9) 
True

>  <enamine_searched>  (9) 
False

>  <enamine_id>  (9) 
nan

$$$$

     RDKit          3D

 58 63  0  0  0  0  0  0  0  0999 V2000
    5.4408    5.0269   21.9929 C   0  0  0  0  0  0  0  0  0  0  0  0
    6.0493    4.1993   23.0824 C   0  0  0  0  0  0  0  0  0  0  0  0
    7.4355    3.9919   23.3245 C   0  0  0  0  0  0  0  0  0  0  0  0
    7.4611    3.1062   24.3513 C   0  0  0  0  0  0  0  0  0  0  0  0
    8.5773    2.3857   25.0460 C   0  0  0  0  0  0  0  0  0  0  0  0
    9.2156    1.3980   24.1910 N   0  0  0  0  0  0  0  0  0  0  0  0
    8.5635    0.1169   24.0084 C   0  0  0  0  0  0  0  0  0  0  0  0
    8.6357   -0.4074   22.5504 C   0  0  2  0  0  0  0  0  0  0  0  0
    7.8283    0.4616   21.5561 C   0  0  0  0  0  0  0  0  0  0  0  0
    7.9627    1.6474   21.3561 O   0  0  0  0  0  0  0  0  0  0  0  0
    6.9292   -0.3507   20.8911 N   0  0  0  0  0  0  0  0  0  0  0  0
    6.1568    0.1276   19.8062 C   0  0  0  0  0  0  0  0  0  0  0  0
    6.4614   -0.2265   18.5156 C   0  0  0  0  0  0  0  0  0  0  0  0
    5.7894    0.2067   17.4247 N   0  0  0  0  0  0  0  0  0  0  0  0
    4.7692    1.0060   17.6154 C   0  0  0  0  0  0  0  0  0  0  0  0
    4.3160    1.4141   18.9011 C   0  0  0  0  0  0  0  0  0  0  0  0
    3.1813    2.2531   19.0601 C   0  0  0  0  0  0  0  0  0  0  0  0
    2.7471    2.6039   20.3097 C   0  0  0  0  0  0  0  0  0  0  0  0
    3.4177    2.1220   21.4558 C   0  0  0  0  0  0  0  0  0  0  0  0
    4.5226    1.3125   21.3280 C   0  0  0  0  0  0  0  0  0  0  0  0
    5.0118    0.9531   20.0408 C   0  0  0  0  0  0  0  0  0  0  0  0
    5.0227    0.9150   22.2047 H   0  0  0  0  0  0  0  0  0  0  0  0
    3.0592    2.3985   22.4436 H   0  0  0  0  0  0  0  0  0  0  0  0
    1.8825    3.2541   20.4227 H   0  0  0  0  0  0  0  0  0  0  0  0
    2.6797    2.6146   18.1670 H   0  0  0  0  0  0  0  0  0  0  0  0
    4.2367    1.3595   16.7321 H   0  0  0  0  0  0  0  0  0  0  0  0
    7.3107   -0.8753   18.3057 H   0  0  0  0  0  0  0  0  0  0  0  0
    7.2098   -1.7599   21.0633 C   0  0  0  0  0  0  0  0  0  0  0  0
    8.0029   -1.8288   22.3841 C   0  0  2  0  0  0  0  0  0  0  0  0
    7.1114   -2.3091   23.5317 C   0  0  0  0  0  0  0  0  0  0  0  0
    6.7600   -3.3271   23.3349 H   0  0  0  0  0  0  0  0  0  0  0  0
    7.6619   -2.3413   24.4746 H   0  0  0  0  0  0  0  0  0  0  0  0
    6.2342   -1.6680   23.6665 H   0  0  0  0  0  0  0  0  0  0  0  0
    8.8012   -2.5730   22.3130 H   0  0  0  0  0  0  0  0  0  0  0  0
    7.8005   -2.1480   20.2243 H   0  0  0  0  0  0  0  0  0  0  0  0
    6.2688   -2.3183   21.1031 H   0  0  0  0  0  0  0  0  0  0  0  0
   10.1046   -0.3459   22.1606 C   0  0  0  0  0  0  0  0  0  0  0  0
   10.6640   -1.3073   21.3234 C   0  0  0  0  0  0  0  0  0  0  0  0
   12.0023   -1.2447   21.0024 C   0  0  0  0  0  0  0  0  0  0  0  0
   12.4972   -2.1875   20.1854 F   0  0  0  0  0  0  0  0  0  0  0  0
   12.8144   -0.1944   21.4291 C   0  0  0  0  0  0  0  0  0  0  0  0
   12.2449    0.7991   22.1994 C   0  0  0  0  0  0  0  0  0  0  0  0
   10.9102    0.7116   22.6026 C   0  0  0  0  0  0  0  0  0  0  0  0
   10.4068    1.7088   23.5993 C   0  0  0  0  0  0  0  0  0  0  0  0
   11.0260    2.7280   23.8807 O   0  0  0  0  0  0  0  0  0  0  0  0
   12.8435    1.6374   22.5372 H   0  0  0  0  0  0  0  0  0  0  0  0
   13.8517   -0.1237   21.1268 H   0  0  0  0  0  0  0  0  0  0  0  0
   10.0869   -2.1204   20.9005 H   0  0  0  0  0  0  0  0  0  0  0  0
    7.5301    0.2467   24.3219 H   0  0  0  0  0  0  0  0  0  0  0  0
    9.0287   -0.6287   24.6708 H   0  0  0  0  0  0  0  0  0  0  0  0
    9.3610    3.0927   25.3254 H   0  0  0  0  0  0  0  0  0  0  0  0
    8.1896    1.9113   25.9509 H   0  0  0  0  0  0  0  0  0  0  0  0
    6.2060    2.8333   24.7396 O   0  0  0  0  0  0  0  0  0  0  0  0
    5.3132    3.5179   23.9362 N   0  0  0  0  0  0  0  0  0  0  0  0
    8.2651    4.3871   22.7564 H   0  0  0  0  0  0  0  0  0  0  0  0
    6.0119    5.9484   21.8479 H   0  0  0  0  0  0  0  0  0  0  0  0
    4.4017    5.2798   22.2181 H   0  0  0  0  0  0  0  0  0  0  0  0
    5.4622    4.4661   21.0505 H   0  0  0  0  0  0  0  0  0  0  0  0
  1  2  1  0
  2  3  1  0
  3  4  2  0
  4  5  1  0
  5  6  1  0
  6  7  1  0
  8  7  1  1
  8  9  1  0
  9 10  2  0
  9 11  1  0
 11 12  1  0
 12 13  2  0
 13 14  1  0
 14 15  2  0
 15 16  1  0
 16 17  2  0
 17 18  1  0
 18 19  2  0
 19 20  1  0
 20 21  2  0
 20 22  1  0
 19 23  1  0
 18 24  1  0
 17 25  1  0
 15 26  1  0
 13 27  1  0
 11 28  1  0
 28 29  1  0
 29 30  1  0
 30 31  1  0
 30 32  1  0
 30 33  1  0
 29 34  1  6
 28 35  1  0
 28 36  1  0
  8 37  1  0
 37 38  2  0
 38 39  1  0
 39 40  1  0
 39 41  2  0
 41 42  1  0
 42 43  2  0
 43 44  1  0
 44 45  2  0
 42 46  1  0
 41 47  1  0
 38 48  1  0
  7 49  1  0
  7 50  1  0
  5 51  1  0
  5 52  1  0
  4 53  1  0
 53 54  1  0
  3 55  1  0
  1 56  1  0
  1 57  1  0
  1 58  1  0
 54  2  2  0
 44  6  1  0
 29  8  1  0
 43 37  1  0
 21 12  1  0
 21 16  1  0
M  END
>  <cnnaffinities>  (10) 
[6.48048]

>  <score>  (10) 
6.48048

>  <index>  (10) 
9

>  <Smiles>  (10) 
C(c1c(c(C(N2C([C@@]3(C(=O)N(c4c(nc(c5c(c(c(c(c45)[H])[H])[H])[H])[H])[H])C([C@@]3(C([H])([H])[H])[H])([H])[H])c3c(c(F)c(c(c3C2=O)[H])[H])[H])([H])[H])([H])[H])on1)[H])([H])([H])[H]

>  <h>  (10) 
<NA>

>  <Training>  (10) 
True

>  <Success>  (10) 
True

>  <enamine_searched>  (10) 
False

>  <enamine_id>  (10) 
nan

$$$$

     RDKit          3D

 72 77  0  0  0  0  0  0  0  0999 V2000
    7.4886    8.3807   24.7279 C   0  0  0  0  0  0  0  0  0  0  0  0
    6.7380    7.3389   23.9169 C   0  0  1  0  0  0  0  0  0  0  0  0
    7.4763    6.0042   23.9203 C   0  0  0  0  0  0  0  0  0  0  0  0
    6.6902    4.9732   23.1607 N   0  0  0  0  0  4  0  0  0  0  0  0
    7.4022    3.6613   22.9953 C   0  0  0  0  0  0  0  0  0  0  0  0
    7.5747    2.8508   24.2866 C   0  0  0  0  0  0  0  0  0  0  0  0
    8.4180    1.6939   24.0858 N   0  0  0  0  0  0  0  0  0  0  0  0
    7.8275    0.3799   23.9319 C   0  0  0  0  0  0  0  0  0  0  0  0
    8.3812   -0.3563   22.6967 C   0  0  2  0  0  0  0  0  0  0  0  0
    7.9322    0.3277   21.3859 C   0  0  0  0  0  0  0  0  0  0  0  0
    8.3694    1.3465   20.8982 O   0  0  0  0  0  0  0  0  0  0  0  0
    6.9215   -0.4218   20.8251 N   0  0  0  0  0  0  0  0  0  0  0  0
    6.1382    0.1035   19.7641 C   0  0  0  0  0  0  0  0  0  0  0  0
    6.4525   -0.2122   18.4687 C   0  0  0  0  0  0  0  0  0  0  0  0
    5.7644    0.2279   17.3894 N   0  0  0  0  0  0  0  0  0  0  0  0
    4.7421    1.0183   17.5955 C   0  0  0  0  0  0  0  0  0  0  0  0
    4.2923    1.4155   18.8864 C   0  0  0  0  0  0  0  0  0  0  0  0
    3.1663    2.2627   19.0622 C   0  0  0  0  0  0  0  0  0  0  0  0
    2.7518    2.6170   20.3163 C   0  0  0  0  0  0  0  0  0  0  0  0
    3.4448    2.1353   21.4488 C   0  0  0  0  0  0  0  0  0  0  0  0
    4.5462    1.3256   21.3053 C   0  0  0  0  0  0  0  0  0  0  0  0
    5.0060    0.9438   20.0142 C   0  0  0  0  0  0  0  0  0  0  0  0
    5.0664    0.9720   22.1896 H   0  0  0  0  0  0  0  0  0  0  0  0
    3.1095    2.4113   22.4441 H   0  0  0  0  0  0  0  0  0  0  0  0
    1.8986    3.2768   20.4513 H   0  0  0  0  0  0  0  0  0  0  0  0
    2.6602    2.6364   18.1763 H   0  0  0  0  0  0  0  0  0  0  0  0
    4.2163    1.3825   16.7124 H   0  0  0  0  0  0  0  0  0  0  0  0
    7.2986   -0.8620   18.2551 H   0  0  0  0  0  0  0  0  0  0  0  0
    6.5720   -1.6077   21.5838 C   0  0  0  0  0  0  0  0  0  0  0  0
    7.7624   -1.7889   22.5460 C   0  0  2  0  0  0  0  0  0  0  0  0
    7.3730   -2.5254   23.8329 C   0  0  0  0  0  0  0  0  0  0  0  0
    6.5638   -2.0015   24.3563 H   0  0  0  0  0  0  0  0  0  0  0  0
    7.0148   -3.5413   23.6211 H   0  0  0  0  0  0  0  0  0  0  0  0
    8.2135   -2.6124   24.5319 H   0  0  0  0  0  0  0  0  0  0  0  0
    8.5077   -2.3963   22.0272 H   0  0  0  0  0  0  0  0  0  0  0  0
    6.4288   -2.4595   20.9092 H   0  0  0  0  0  0  0  0  0  0  0  0
    5.6295   -1.4777   22.1402 H   0  0  0  0  0  0  0  0  0  0  0  0
    9.8795   -0.2751   22.7946 C   0  0  0  0  0  0  0  0  0  0  0  0
   10.6380   -1.1898   22.0938 C   0  0  0  0  0  0  0  0  0  0  0  0
   12.0029   -1.1377   22.2031 C   0  0  0  0  0  0  0  0  0  0  0  0
   12.8061   -2.4690   21.5182 Cl  0  0  0  0  0  0  0  0  0  0  0  0
   12.6926   -0.1477   22.8894 C   0  0  0  0  0  0  0  0  0  0  0  0
   11.9380    0.8176   23.5202 C   0  0  0  0  0  0  0  0  0  0  0  0
   10.5482    0.7610   23.4707 C   0  0  0  0  0  0  0  0  0  0  0  0
    9.7706    1.8767   24.0845 C   0  0  0  0  0  0  0  0  0  0  0  0
   10.2982    2.8979   24.5164 O   0  0  0  0  0  0  0  0  0  0  0  0
   12.4156    1.6225   24.0594 H   0  0  0  0  0  0  0  0  0  0  0  0
   13.7740   -0.1605   22.8819 H   0  0  0  0  0  0  0  0  0  0  0  0
   10.1998   -1.9402   21.4456 H   0  0  0  0  0  0  0  0  0  0  0  0
    8.0318   -0.2381   24.8222 H   0  0  0  0  0  0  0  0  0  0  0  0
    6.7455    0.5052   23.8215 H   0  0  0  0  0  0  0  0  0  0  0  0
    6.6078    2.4808   24.6372 H   0  0  0  0  0  0  0  0  0  0  0  0
    8.0390    3.4514   25.0726 H   0  0  0  0  0  0  0  0  0  0  0  0
    6.8378    3.0688   22.2673 H   0  0  0  0  0  0  0  0  0  0  0  0
    8.3872    3.8769   22.5687 H   0  0  0  0  0  0  0  0  0  0  0  0
    5.2996    4.8754   23.7350 C   0  0  0  0  0  0  0  0  0  0  0  0
    4.6191    6.2456   23.8129 C   0  0  2  0  0  0  0  0  0  0  0  0
    4.1223    6.7501   22.4595 C   0  0  0  0  0  0  0  0  0  0  0  0
    3.3820    6.0531   22.0486 H   0  0  0  0  0  0  0  0  0  0  0  0
    4.9292    6.8388   21.7224 H   0  0  0  0  0  0  0  0  0  0  0  0
    3.6497    7.7315   22.5737 H   0  0  0  0  0  0  0  0  0  0  0  0
    5.4439    7.1928   24.4864 O   0  0  0  0  0  0  0  0  0  0  0  0
    3.7518    6.1445   24.4761 H   0  0  0  0  0  0  0  0  0  0  0  0
    5.3742    4.4722   24.7463 H   0  0  0  0  0  0  0  0  0  0  0  0
    4.7067    4.1878   23.1255 H   0  0  0  0  0  0  0  0  0  0  0  0
    6.5867    5.3310   22.1888 H   0  0  0  0  0  0  0  0  0  0  0  0
    8.4654    6.1185   23.4628 H   0  0  0  0  0  0  0  0  0  0  0  0
    7.6032    5.6754   24.9560 H   0  0  0  0  0  0  0  0  0  0  0  0
    6.6509    7.6734   22.8702 H   0  0  0  0  0  0  0  0  0  0  0  0
    7.5850    8.0510   25.7692 H   0  0  0  0  0  0  0  0  0  0  0  0
    6.9698    9.3445   24.7198 H   0  0  0  0  0  0  0  0  0  0  0  0
    8.4950    8.5252   24.3185 H   0  0  0  0  0  0  0  0  0  0  0  0
  1  2  1  0
  2  3  1  0
  3  4  1  0
  4  5  1  0
  5  6  1  0
  6  7  1  0
  7  8  1  0
  9  8  1  1
  9 10  1  0
 10 11  2  0
 10 12  1  0
 12 13  1  0
 13 14  2  0
 14 15  1  0
 15 16  2  0
 16 17  1  0
 17 18  2  0
 18 19  1  0
 19 20  2  0
 20 21  1  0
 21 22  2  0
 21 23  1  0
 20 24  1  0
 19 25  1  0
 18 26  1  0
 16 27  1  0
 14 28  1  0
 12 29  1  0
 29 30  1  0
 30 31  1  0
 31 32  1  0
 31 33  1  0
 31 34  1  0
 30 35  1  6
 29 36  1  0
 29 37  1  0
  9 38  1  0
 38 39  2  0
 39 40  1  0
 40 41  1  0
 40 42  2  0
 42 43  1  0
 43 44  2  0
 44 45  1  0
 45 46  2  0
 43 47  1  0
 42 48  1  0
 39 49  1  0
  8 50  1  0
  8 51  1  0
  6 52  1  0
  6 53  1  0
  5 54  1  0
  5 55  1  0
  4 56  1  0
 56 57  1  0
 57 58  1  0
 58 59  1  0
 58 60  1  0
 58 61  1  0
 57 62  1  0
 57 63  1  1
 56 64  1  0
 56 65  1  0
  4 66  1  0
  3 67  1  0
  3 68  1  0
  2 69  1  6
  1 70  1  0
  1 71  1  0
  1 72  1  0
 62  2  1  0
 45  7  1  0
 30  9  1  0
 44 38  1  0
 22 13  1  0
 22 17  1  0
M  CHG  1   4   1
M  END
>  <cnnaffinities>  (11) 
[6.40349]

>  <score>  (11) 
6.40349

>  <index>  (11) 
10

>  <Smiles>  (11) 
C([C@]1(C([N+](C(C(N2C([C@@]3(C(=O)N(c4c(nc(c5c(c(c(c(c45)[H])[H])[H])[H])[H])[H])C([C@@]3(C([H])([H])[H])[H])([H])[H])c3c(c(Cl)c(c(c3C2=O)[H])[H])[H])([H])[H])([H])[H])([H])[H])(C([C@](C([H])([H])[H])(O1)[H])([H])[H])[H])([H])[H])[H])([H])([H])[H]

>  <h>  (11) 
<NA>

>  <Training>  (11) 
True

>  <Success>  (11) 
True

>  <enamine_searched>  (11) 
False

>  <enamine_id>  (11) 
nan

$$$$

     RDKit          3D

 54 57  0  0  0  0  0  0  0  0999 V2000
    4.8795    1.9201   25.3042 C   0  0  0  0  0  0  0  0  0  0  0  0
    6.1347    1.9661   24.6617 O   0  0  0  0  0  0  0  0  0  0  0  0
    6.4398    2.9883   23.8099 C   0  0  0  0  0  0  0  0  0  0  0  0
    5.5514    4.0277   23.5137 C   0  0  0  0  0  0  0  0  0  0  0  0
    5.9384    5.0320   22.6259 C   0  0  0  0  0  0  0  0  0  0  0  0
    7.1972    5.0155   22.0461 C   0  0  0  0  0  0  0  0  0  0  0  0
    8.0721    3.9820   22.3667 C   0  0  0  0  0  0  0  0  0  0  0  0
    7.7269    2.9601   23.2375 C   0  0  0  0  0  0  0  0  0  0  0  0
    8.6564    1.7832   23.5087 C   0  0  2  0  0  0  0  0  0  0  0  0
   10.1645    2.0524   23.3433 C   0  0  0  0  0  0  0  0  0  0  0  0
   10.9930    0.8541   23.8289 C   0  0  2  0  0  0  0  0  0  0  0  0
   12.4891    1.0788   23.6101 C   0  0  0  0  0  0  0  0  0  0  0  0
   12.8387    1.9807   24.1221 H   0  0  0  0  0  0  0  0  0  0  0  0
   13.0859    0.2312   23.9683 H   0  0  0  0  0  0  0  0  0  0  0  0
   12.7098    1.2057   22.5435 H   0  0  0  0  0  0  0  0  0  0  0  0
   10.5196   -0.4275   23.1387 C   0  0  0  0  0  0  0  0  0  0  0  0
    8.9989   -0.6102   23.2634 C   0  0  0  0  0  0  0  0  0  0  0  0
    8.2611    0.5600   22.7867 N   0  0  0  0  0  0  0  0  0  0  0  0
    7.9300    0.6544   21.4241 C   0  0  0  0  0  0  0  0  0  0  0  0
    8.3444    1.5311   20.6966 O   0  0  0  0  0  0  0  0  0  0  0  0
    6.9761   -0.4303   20.8968 C   0  0  0  0  0  0  0  0  0  0  0  0
    6.1115    0.0833   19.7695 C   0  0  0  0  0  0  0  0  0  0  0  0
    6.4259   -0.2090   18.4686 C   0  0  0  0  0  0  0  0  0  0  0  0
    5.7576    0.2414   17.3747 N   0  0  0  0  0  0  0  0  0  0  0  0
    4.7330    1.0300   17.5799 C   0  0  0  0  0  0  0  0  0  0  0  0
    4.2859    1.4211   18.8692 C   0  0  0  0  0  0  0  0  0  0  0  0
    3.1687    2.2744   19.0464 C   0  0  0  0  0  0  0  0  0  0  0  0
    2.7636    2.6440   20.2997 C   0  0  0  0  0  0  0  0  0  0  0  0
    3.4650    2.1652   21.4320 C   0  0  0  0  0  0  0  0  0  0  0  0
    4.5485    1.3328   21.2905 C   0  0  0  0  0  0  0  0  0  0  0  0
    4.9928    0.9377   20.0016 C   0  0  0  0  0  0  0  0  0  0  0  0
    5.0709    0.9761   22.1740 H   0  0  0  0  0  0  0  0  0  0  0  0
    3.1369    2.4653   22.4242 H   0  0  0  0  0  0  0  0  0  0  0  0
    1.9124    3.3087   20.4265 H   0  0  0  0  0  0  0  0  0  0  0  0
    2.6562    2.6473   18.1626 H   0  0  0  0  0  0  0  0  0  0  0  0
    4.2030    1.3961   16.6974 H   0  0  0  0  0  0  0  0  0  0  0  0
    7.2735   -0.8524   18.2393 H   0  0  0  0  0  0  0  0  0  0  0  0
    6.3694   -0.8300   21.7213 H   0  0  0  0  0  0  0  0  0  0  0  0
    7.5888   -1.2633   20.5239 H   0  0  0  0  0  0  0  0  0  0  0  0
    8.6690   -1.4846   22.6988 H   0  0  0  0  0  0  0  0  0  0  0  0
    8.7404   -0.7781   24.3181 H   0  0  0  0  0  0  0  0  0  0  0  0
   10.7965   -0.3851   22.0781 H   0  0  0  0  0  0  0  0  0  0  0  0
   11.0495   -1.2958   23.5537 H   0  0  0  0  0  0  0  0  0  0  0  0
   10.8234    0.7368   24.9097 H   0  0  0  0  0  0  0  0  0  0  0  0
   10.4539    2.9447   23.9136 H   0  0  0  0  0  0  0  0  0  0  0  0
   10.3986    2.2590   22.2921 H   0  0  0  0  0  0  0  0  0  0  0  0
    8.5164    1.5179   24.5621 H   0  0  0  0  0  0  0  0  0  0  0  0
    9.0398    3.9582   21.8776 H   0  0  0  0  0  0  0  0  0  0  0  0
    7.5017    5.7833   21.3388 H   0  0  0  0  0  0  0  0  0  0  0  0
    5.2503    5.8351   22.3805 H   0  0  0  0  0  0  0  0  0  0  0  0
    4.5618    4.0691   23.9624 H   0  0  0  0  0  0  0  0  0  0  0  0
    4.6963    2.7757   25.9652 H   0  0  0  0  0  0  0  0  0  0  0  0
    4.9066    1.0232   25.9181 H   0  0  0  0  0  0  0  0  0  0  0  0
    4.0300    1.8262   24.6149 H   0  0  0  0  0  0  0  0  0  0  0  0
  1  2  1  0
  2  3  1  0
  3  4  2  0
  4  5  1  0
  5  6  2  0
  6  7  1  0
  7  8  2  0
  8  9  1  0
  9 10  1  0
 10 11  1  0
 11 12  1  0
 12 13  1  0
 12 14  1  0
 12 15  1  0
 11 16  1  0
 16 17  1  0
 17 18  1  0
 18 19  1  0
 19 20  2  0
 19 21  1  0
 21 22  1  0
 22 23  2  0
 23 24  1  0
 24 25  2  0
 25 26  1  0
 26 27  2  0
 27 28  1  0
 28 29  2  0
 29 30  1  0
 30 31  2  0
 30 32  1  0
 29 33  1  0
 28 34  1  0
 27 35  1  0
 25 36  1  0
 23 37  1  0
 21 38  1  0
 21 39  1  0
 17 40  1  0
 17 41  1  0
 16 42  1  0
 16 43  1  0
 11 44  1  1
 10 45  1  0
 10 46  1  0
  9 47  1  1
  7 48  1  0
  6 49  1  0
  5 50  1  0
  4 51  1  0
  1 52  1  0
  1 53  1  0
  1 54  1  0
  8  3  1  0
 18  9  1  0
 31 22  1  0
 31 26  1  0
M  END
>  <cnnaffinities>  (12) 
[5.71362]

>  <score>  (12) 
5.71362

>  <index>  (12) 
11

>  <Smiles>  (12) 
C(Oc1c(c(c(c(c1[C@@]1(C([C@](C([H])([H])[H])(C(C(N1C(=O)C(c1c(nc(c2c(c(c(c(c12)[H])[H])[H])[H])[H])[H])([H])[H])([H])[H])([H])[H])[H])([H])[H])[H])[H])[H])[H])[H])([H])([H])[H]

>  <h>  (12) 
<NA>

>  <Training>  (12) 
True

>  <Success>  (12) 
True

>  <enamine_searched>  (12) 
False

>  <enamine_id>  (12) 
nan

$$$$

     RDKit          3D

 47 50  0  0  0  0  0  0  0  0999 V2000
    8.4835    1.4178   20.8237 O   0  0  0  0  0  0  0  0  0  0  0  0
    7.8318    0.6724   21.5390 C   0  0  0  0  0  0  0  0  0  0  0  0
    6.9412   -0.4246   20.9270 C   0  0  0  0  0  0  0  0  0  0  0  0
    6.1081    0.0921   19.7794 C   0  0  0  0  0  0  0  0  0  0  0  0
    6.4311   -0.2036   18.4831 C   0  0  0  0  0  0  0  0  0  0  0  0
    5.7663    0.2431   17.3863 N   0  0  0  0  0  0  0  0  0  0  0  0
    4.7385    1.0265   17.5874 C   0  0  0  0  0  0  0  0  0  0  0  0
    4.2813    1.4152   18.8738 C   0  0  0  0  0  0  0  0  0  0  0  0
    3.1652    2.2714   19.0486 C   0  0  0  0  0  0  0  0  0  0  0  0
    2.7643    2.6403   20.3022 C   0  0  0  0  0  0  0  0  0  0  0  0
    3.4592    2.1685   21.4360 C   0  0  0  0  0  0  0  0  0  0  0  0
    4.5421    1.3381   21.2954 C   0  0  0  0  0  0  0  0  0  0  0  0
    4.9833    0.9393   20.0050 C   0  0  0  0  0  0  0  0  0  0  0  0
    5.0703    0.9818   22.1755 H   0  0  0  0  0  0  0  0  0  0  0  0
    3.1354    2.4659   22.4299 H   0  0  0  0  0  0  0  0  0  0  0  0
    1.9161    3.3081   20.4294 H   0  0  0  0  0  0  0  0  0  0  0  0
    2.6607    2.6381   18.1591 H   0  0  0  0  0  0  0  0  0  0  0  0
    4.2114    1.3892   16.7028 H   0  0  0  0  0  0  0  0  0  0  0  0
    7.2784   -0.8516   18.2532 H   0  0  0  0  0  0  0  0  0  0  0  0
    6.3174   -0.9038   21.6894 H   0  0  0  0  0  0  0  0  0  0  0  0
    7.6166   -1.1988   20.5403 H   0  0  0  0  0  0  0  0  0  0  0  0
    7.8731    0.7696   22.8995 N   0  0  0  0  0  0  0  0  0  0  0  0
    7.4123   -0.2141   23.8755 C   0  0  0  0  0  0  0  0  0  0  0  0
    7.9930    0.2902   25.2127 C   0  0  2  0  0  0  0  0  0  0  0  0
    7.1142   -0.1385   26.3735 C   0  0  0  0  0  0  0  0  0  0  0  0
    7.6123    0.3551   27.5770 F   0  0  0  0  0  0  0  0  0  0  0  0
    7.0773   -1.2352   26.4481 H   0  0  0  0  0  0  0  0  0  0  0  0
    6.0895    0.2415   26.2486 H   0  0  0  0  0  0  0  0  0  0  0  0
    8.2271    1.8175   25.0148 C   0  0  0  0  0  0  0  0  0  0  0  0
    7.0408    2.7239   25.4062 C   0  0  0  0  0  0  0  0  0  0  0  0
    7.6481    4.1410   25.5892 C   0  0  0  0  0  0  0  0  0  0  0  0
    9.1690    3.9452   25.8370 C   0  0  0  0  0  0  0  0  0  0  0  0
    9.3639    2.4108   25.8670 C   0  0  0  0  0  0  0  0  0  0  0  0
   10.3268    2.0903   25.4544 H   0  0  0  0  0  0  0  0  0  0  0  0
    9.2553    1.9753   26.8664 H   0  0  0  0  0  0  0  0  0  0  0  0
    9.5079    4.4822   26.7295 H   0  0  0  0  0  0  0  0  0  0  0  0
    9.7582    4.3713   25.0130 H   0  0  0  0  0  0  0  0  0  0  0  0
    7.4736    4.7679   24.7086 H   0  0  0  0  0  0  0  0  0  0  0  0
    7.1554    4.6459   26.4269 H   0  0  0  0  0  0  0  0  0  0  0  0
    6.2258    2.6785   24.6672 H   0  0  0  0  0  0  0  0  0  0  0  0
    6.6364    2.3602   26.3589 H   0  0  0  0  0  0  0  0  0  0  0  0
    8.5412    1.9161   23.5051 C   0  0  0  0  0  0  0  0  0  0  0  0
    8.1696    2.8494   23.0651 H   0  0  0  0  0  0  0  0  0  0  0  0
    9.6222    1.8899   23.3047 H   0  0  0  0  0  0  0  0  0  0  0  0
    8.9839   -0.1625   25.3630 H   0  0  0  0  0  0  0  0  0  0  0  0
    6.3095   -0.2590   23.8997 H   0  0  0  0  0  0  0  0  0  0  0  0
    7.7658   -1.2248   23.6252 H   0  0  0  0  0  0  0  0  0  0  0  0
  1  2  2  0
  2  3  1  0
  3  4  1  0
  4  5  2  0
  5  6  1  0
  6  7  2  0
  7  8  1  0
  8  9  2  0
  9 10  1  0
 10 11  2  0
 11 12  1  0
 12 13  2  0
 12 14  1  0
 11 15  1  0
 10 16  1  0
  9 17  1  0
  7 18  1  0
  5 19  1  0
  3 20  1  0
  3 21  1  0
  2 22  1  0
 22 23  1  0
 23 24  1  0
 24 25  1  0
 25 26  1  0
 25 27  1  0
 25 28  1  0
 24 29  1  0
 29 30  1  0
 30 31  1  0
 31 32  1  0
 32 33  1  0
 33 34  1  0
 33 35  1  0
 32 36  1  0
 32 37  1  0
 31 38  1  0
 31 39  1  0
 30 40  1  0
 30 41  1  0
 29 42  1  0
 42 43  1  0
 42 44  1  0
 24 45  1  1
 23 46  1  0
 23 47  1  0
 13  4  1  0
 42 22  1  0
 13  8  1  0
 33 29  1  0
M  END
>  <cnnaffinities>  (13) 
[5.0828, 5.12007, 5.34279, 5.33788, 5.42312]

>  <score>  (13) 
5.0828

>  <index>  (13) 
12

>  <Smiles>  (13) 
O=C(C(c1c(nc(c2c(c(c(c(c12)[H])[H])[H])[H])[H])[H])([H])[H])N1C([C@](C(F)([H])[H])(C2(C(C(C(C2([H])[H])([H])[H])([H])[H])([H])[H])C1([H])[H])[H])([H])[H]

>  <h>  (13) 
<NA>

>  <Training>  (13) 
True

>  <Success>  (13) 
True

>  <enamine_searched>  (13) 
False

>  <enamine_id>  (13) 
nan

$$$$

     RDKit          3D

 67 72  0  0  0  0  0  0  0  0999 V2000
    6.5050    4.3452   21.4063 C   0  0  0  0  0  0  0  0  0  0  0  0
    7.5338    3.9403   22.3575 N   0  0  0  0  0  0  0  0  0  0  0  0
    7.1279    3.2876   23.4865 C   0  0  0  0  0  0  0  0  0  0  0  0
    5.9451    3.0921   23.7341 O   0  0  0  0  0  0  0  0  0  0  0  0
    8.2218    2.8228   24.4644 C   0  0  0  0  0  0  0  0  0  0  0  0
    8.8854    1.6224   23.9739 N   0  0  0  0  0  0  0  0  0  0  0  0
    8.0861    0.4140   23.8345 C   0  0  0  0  0  0  0  0  0  0  0  0
    8.4570   -0.3891   22.5681 C   0  0  2  0  0  0  0  0  0  0  0  0
    7.9767    0.3246   21.2855 C   0  0  0  0  0  0  0  0  0  0  0  0
    8.4640    1.3049   20.7567 O   0  0  0  0  0  0  0  0  0  0  0  0
    6.8963   -0.3634   20.7979 N   0  0  0  0  0  0  0  0  0  0  0  0
    6.1305    0.1419   19.7329 C   0  0  0  0  0  0  0  0  0  0  0  0
    6.4673   -0.1741   18.4450 C   0  0  0  0  0  0  0  0  0  0  0  0
    5.7731    0.2468   17.3665 N   0  0  0  0  0  0  0  0  0  0  0  0
    4.7292    1.0133   17.5773 C   0  0  0  0  0  0  0  0  0  0  0  0
    4.2744    1.4057   18.8714 C   0  0  0  0  0  0  0  0  0  0  0  0
    3.1521    2.2529   19.0601 C   0  0  0  0  0  0  0  0  0  0  0  0
    2.7618    2.6226   20.3206 C   0  0  0  0  0  0  0  0  0  0  0  0
    3.4697    2.1630   21.4542 C   0  0  0  0  0  0  0  0  0  0  0  0
    4.5583    1.3388   21.2984 C   0  0  0  0  0  0  0  0  0  0  0  0
    4.9884    0.9477   19.9967 C   0  0  0  0  0  0  0  0  0  0  0  0
    5.1258    1.0277   22.1710 H   0  0  0  0  0  0  0  0  0  0  0  0
    3.1770    2.4840   22.4502 H   0  0  0  0  0  0  0  0  0  0  0  0
    1.9120    3.2844   20.4529 H   0  0  0  0  0  0  0  0  0  0  0  0
    2.6362    2.6181   18.1784 H   0  0  0  0  0  0  0  0  0  0  0  0
    4.1824    1.3634   16.7021 H   0  0  0  0  0  0  0  0  0  0  0  0
    7.3388   -0.7984   18.2542 H   0  0  0  0  0  0  0  0  0  0  0  0
    6.4757   -1.4926   21.5894 C   0  0  0  0  0  0  0  0  0  0  0  0
    7.7002   -1.7421   22.4745 C   0  0  2  0  0  0  0  0  0  0  0  0
    7.3353   -2.4657   23.7620 C   0  0  0  0  0  0  0  0  0  0  0  0
    6.7718   -3.7191   23.4486 O   0  0  0  0  0  0  0  0  0  0  0  0
    7.7434   -4.7350   23.3550 C   0  0  0  0  0  0  0  0  0  0  0  0
    7.0885   -5.9918   22.8483 C   0  0  0  0  0  0  0  0  0  0  0  0
    7.9294   -7.2213   22.6782 C   0  0  0  0  0  0  0  0  0  0  0  0
    7.4279   -6.4743   21.4685 C   0  0  0  0  0  0  0  0  0  0  0  0
    8.1440   -5.8741   20.9177 H   0  0  0  0  0  0  0  0  0  0  0  0
    6.6591   -6.9080   20.8332 H   0  0  0  0  0  0  0  0  0  0  0  0
    7.4929   -8.1919   22.9091 H   0  0  0  0  0  0  0  0  0  0  0  0
    8.9868   -7.1457   22.9258 H   0  0  0  0  0  0  0  0  0  0  0  0
    6.0658   -6.1387   23.1775 H   0  0  0  0  0  0  0  0  0  0  0  0
    8.2252   -4.8639   24.3396 H   0  0  0  0  0  0  0  0  0  0  0  0
    8.5664   -4.4631   22.6671 H   0  0  0  0  0  0  0  0  0  0  0  0
    6.5737   -1.9008   24.3116 H   0  0  0  0  0  0  0  0  0  0  0  0
    8.2102   -2.5779   24.4250 H   0  0  0  0  0  0  0  0  0  0  0  0
    8.3529   -2.4140   21.9168 H   0  0  0  0  0  0  0  0  0  0  0  0
    5.5733   -1.2647   22.1755 H   0  0  0  0  0  0  0  0  0  0  0  0
    6.2380   -2.3460   20.9482 H   0  0  0  0  0  0  0  0  0  0  0  0
    9.9589   -0.4942   22.4805 C   0  0  0  0  0  0  0  0  0  0  0  0
   10.5176   -1.3836   21.5593 C   0  0  0  0  0  0  0  0  0  0  0  0
   11.8816   -1.4418   21.3856 C   0  0  0  0  0  0  0  0  0  0  0  0
   12.4745   -2.5212   20.1606 Cl  0  0  0  0  0  0  0  0  0  0  0  0
   12.7443   -0.6323   22.1233 C   0  0  0  0  0  0  0  0  0  0  0  0
   12.1959    0.2733   23.0133 C   0  0  0  0  0  0  0  0  0  0  0  0
   10.8104    0.3958   23.1454 C   0  0  0  0  0  0  0  0  0  0  0  0
   10.2550    1.5625   23.9251 C   0  0  0  0  0  0  0  0  0  0  0  0
   10.9719    2.4172   24.4307 O   0  0  0  0  0  0  0  0  0  0  0  0
   12.8280    0.9176   23.6130 H   0  0  0  0  0  0  0  0  0  0  0  0
   13.8143   -0.6845   21.9608 H   0  0  0  0  0  0  0  0  0  0  0  0
    9.9100   -2.0149   20.9224 H   0  0  0  0  0  0  0  0  0  0  0  0
    7.0338    0.7034   23.8005 H   0  0  0  0  0  0  0  0  0  0  0  0
    8.2222   -0.2195   24.7208 H   0  0  0  0  0  0  0  0  0  0  0  0
    9.0044    3.5760   24.6164 H   0  0  0  0  0  0  0  0  0  0  0  0
    7.7408    2.6293   25.4364 H   0  0  0  0  0  0  0  0  0  0  0  0
    8.4346    3.6750   21.9803 H   0  0  0  0  0  0  0  0  0  0  0  0
    5.7143    4.8708   21.9499 H   0  0  0  0  0  0  0  0  0  0  0  0
    6.9286    5.0243   20.6591 H   0  0  0  0  0  0  0  0  0  0  0  0
    6.0590    3.4728   20.9046 H   0  0  0  0  0  0  0  0  0  0  0  0
  1  2  1  0
  2  3  1  0
  3  4  2  0
  3  5  1  0
  5  6  1  0
  6  7  1  0
  8  7  1  1
  8  9  1  0
  9 10  2  0
  9 11  1  0
 11 12  1  0
 12 13  2  0
 13 14  1  0
 14 15  2  0
 15 16  1  0
 16 17  2  0
 17 18  1  0
 18 19  2  0
 19 20  1  0
 20 21  2  0
 20 22  1  0
 19 23  1  0
 18 24  1  0
 17 25  1  0
 15 26  1  0
 13 27  1  0
 11 28  1  0
 28 29  1  0
 29 30  1  0
 30 31  1  0
 31 32  1  0
 32 33  1  0
 33 34  1  0
 34 35  1  0
 35 36  1  0
 35 37  1  0
 34 38  1  0
 34 39  1  0
 33 40  1  0
 32 41  1  0
 32 42  1  0
 30 43  1  0
 30 44  1  0
 29 45  1  6
 28 46  1  0
 28 47  1  0
  8 48  1  0
 48 49  2  0
 49 50  1  0
 50 51  1  0
 50 52  2  0
 52 53  1  0
 53 54  2  0
 54 55  1  0
 55 56  2  0
 53 57  1  0
 52 58  1  0
 49 59  1  0
  7 60  1  0
  7 61  1  0
  5 62  1  0
  5 63  1  0
  2 64  1  0
  1 65  1  0
  1 66  1  0
  1 67  1  0
 55  6  1  0
 29  8  1  0
 35 33  1  0
 54 48  1  0
 21 12  1  0
 21 16  1  0
M  END
>  <cnnaffinities>  (14) 
[6.65175]

>  <score>  (14) 
6.65175

>  <index>  (14) 
13

>  <Smiles>  (14) 
C(N(C(=O)C(N1C([C@@]2(C(=O)N(c3c(nc(c4c(c(c(c(c34)[H])[H])[H])[H])[H])[H])C([C@@]2(C(OC(C2(C(C2([H])[H])([H])[H])[H])([H])[H])([H])[H])[H])([H])[H])c2c(c(Cl)c(c(c2C1=O)[H])[H])[H])([H])[H])([H])[H])[H])([H])([H])[H]

>  <h>  (14) 
<NA>

>  <Training>  (14) 
True

>  <Success>  (14) 
True

>  <enamine_searched>  (14) 
False

>  <enamine_id>  (14) 
nan

$$$$

     RDKit          3D

 67 73  0  0  0  0  0  0  0  0999 V2000
    7.4964   -2.3947   23.8860 C   0  0  0  0  0  0  0  0  0  0  0  0
    7.8252   -1.6909   22.5660 C   0  0  1  0  0  0  0  0  0  0  0  0
    6.5984   -1.5374   21.6436 C   0  0  0  0  0  0  0  0  0  0  0  0
    6.9353   -0.3868   20.8265 N   0  0  0  0  0  0  0  0  0  0  0  0
    6.1350    0.1056   19.7611 C   0  0  0  0  0  0  0  0  0  0  0  0
    6.4564   -0.2098   18.4673 C   0  0  0  0  0  0  0  0  0  0  0  0
    5.7701    0.2257   17.3845 N   0  0  0  0  0  0  0  0  0  0  0  0
    4.7453    1.0142   17.5955 C   0  0  0  0  0  0  0  0  0  0  0  0
    4.2962    1.4187   18.8861 C   0  0  0  0  0  0  0  0  0  0  0  0
    3.1757    2.2728   19.0640 C   0  0  0  0  0  0  0  0  0  0  0  0
    2.7717    2.6413   20.3185 C   0  0  0  0  0  0  0  0  0  0  0  0
    3.4649    2.1667   21.4538 C   0  0  0  0  0  0  0  0  0  0  0  0
    4.5482    1.3319   21.3083 C   0  0  0  0  0  0  0  0  0  0  0  0
    5.0039    0.9457   20.0149 C   0  0  0  0  0  0  0  0  0  0  0  0
    5.0663    0.9794   22.1939 H   0  0  0  0  0  0  0  0  0  0  0  0
    3.1497    2.4778   22.4458 H   0  0  0  0  0  0  0  0  0  0  0  0
    1.9281    3.3141   20.4446 H   0  0  0  0  0  0  0  0  0  0  0  0
    2.6674    2.6414   18.1780 H   0  0  0  0  0  0  0  0  0  0  0  0
    4.2126    1.3763   16.7174 H   0  0  0  0  0  0  0  0  0  0  0  0
    7.3117   -0.8530   18.2665 H   0  0  0  0  0  0  0  0  0  0  0  0
    7.9910    0.3534   21.3063 C   0  0  0  0  0  0  0  0  0  0  0  0
    8.4626    1.3197   20.7387 O   0  0  0  0  0  0  0  0  0  0  0  0
    8.4441   -0.2572   22.6518 C   0  0  1  0  0  0  0  0  0  0  0  0
    7.8548    0.5359   23.8457 C   0  0  0  0  0  0  0  0  0  0  0  0
    8.3881    1.8821   23.9181 N   0  0  0  0  0  0  0  0  0  0  0  0
    7.4835    3.0089   24.0401 C   0  0  0  0  0  0  0  0  0  0  0  0
    7.1856    3.6474   22.6792 C   0  0  0  0  0  0  0  0  0  0  0  0
    6.2247    4.7884   22.7921 N   0  0  2  0  0  4  0  0  0  0  0  0
    5.6066    5.2022   21.4558 C   0  0  0  0  0  0  0  0  0  0  0  0
    5.9580    6.6951   21.3566 C   0  0  2  0  0  0  0  0  0  0  0  0
    7.3619    6.7373   21.9589 C   0  0  0  0  0  0  0  0  0  0  0  0
    6.8617    6.1163   23.2644 C   0  0  1  0  0  0  0  0  0  0  0  0
    5.7209    7.0689   23.5954 C   0  0  0  0  0  0  0  0  0  0  0  0
    5.1708    7.4104   22.3154 O   0  0  0  0  0  0  0  0  0  0  0  0
    6.0787    7.9795   24.0911 H   0  0  0  0  0  0  0  0  0  0  0  0
    4.9520    6.5998   24.2211 H   0  0  0  0  0  0  0  0  0  0  0  0
    7.5721    5.9350   24.0637 H   0  0  0  0  0  0  0  0  0  0  0  0
    7.7319    7.7563   22.0872 H   0  0  0  0  0  0  0  0  0  0  0  0
    8.1126    6.1418   21.4319 H   0  0  0  0  0  0  0  0  0  0  0  0
    5.7780    7.1392   20.3803 H   0  0  0  0  0  0  0  0  0  0  0  0
    4.5311    5.0242   21.4661 H   0  0  0  0  0  0  0  0  0  0  0  0
    6.0672    4.6037   20.6670 H   0  0  0  0  0  0  0  0  0  0  0  0
    5.4752    4.4782   23.4388 H   0  0  0  0  0  0  0  0  0  0  0  0
    6.7573    2.8930   22.0104 H   0  0  0  0  0  0  0  0  0  0  0  0
    8.1206    3.9931   22.2199 H   0  0  0  0  0  0  0  0  0  0  0  0
    6.5572    2.6378   24.4978 H   0  0  0  0  0  0  0  0  0  0  0  0
    7.9583    3.7238   24.7154 H   0  0  0  0  0  0  0  0  0  0  0  0
    9.7287    2.1332   23.8143 C   0  0  0  0  0  0  0  0  0  0  0  0
   10.2225    3.2185   24.0969 O   0  0  0  0  0  0  0  0  0  0  0  0
   10.5555    0.9817   23.3135 C   0  0  0  0  0  0  0  0  0  0  0  0
   11.9436    1.0880   23.3682 C   0  0  0  0  0  0  0  0  0  0  0  0
   12.7402    0.0533   22.9208 C   0  0  0  0  0  0  0  0  0  0  0  0
   12.1259   -1.0903   22.4185 C   0  0  0  0  0  0  0  0  0  0  0  0
   13.0532   -2.5133   22.0867 Cl  0  0  0  0  0  0  0  0  0  0  0  0
   10.7585   -1.1772   22.2695 C   0  0  0  0  0  0  0  0  0  0  0  0
    9.9493   -0.1612   22.7654 C   0  0  0  0  0  0  0  0  0  0  0  0
   10.3384   -2.0287   21.7453 H   0  0  0  0  0  0  0  0  0  0  0  0
   13.8203    0.1163   22.9304 H   0  0  0  0  0  0  0  0  0  0  0  0
   12.3694    1.9897   23.7890 H   0  0  0  0  0  0  0  0  0  0  0  0
    8.1053   -0.0168   24.7649 H   0  0  0  0  0  0  0  0  0  0  0  0
    6.7609    0.5999   23.7583 H   0  0  0  0  0  0  0  0  0  0  0  0
    5.6860   -1.3589   22.2332 H   0  0  0  0  0  0  0  0  0  0  0  0
    6.4233   -2.4195   21.0143 H   0  0  0  0  0  0  0  0  0  0  0  0
    8.5466   -2.3029   22.0225 H   0  0  0  0  0  0  0  0  0  0  0  0
    8.3665   -2.4616   24.5502 H   0  0  0  0  0  0  0  0  0  0  0  0
    7.1365   -3.4155   23.7101 H   0  0  0  0  0  0  0  0  0  0  0  0
    6.7026   -1.8629   24.4242 H   0  0  0  0  0  0  0  0  0  0  0  0
  1  2  1  0
  2  3  1  0
  3  4  1  0
  4  5  1  0
  5  6  2  0
  6  7  1  0
  7  8  2  0
  8  9  1  0
  9 10  2  0
 10 11  1  0
 11 12  2  0
 12 13  1  0
 13 14  2  0
 13 15  1  0
 12 16  1  0
 11 17  1  0
 10 18  1  0
  8 19  1  0
  6 20  1  0
  4 21  1  0
 21 22  2  0
 21 23  1  0
 23 24  1  1
 24 25  1  0
 25 26  1  0
 26 27  1  0
 27 28  1  0
 28 29  1  0
 29 30  1  0
 30 31  1  0
 31 32  1  0
 32 33  1  0
 33 34  1  0
 33 35  1  0
 33 36  1  0
 32 37  1  1
 31 38  1  0
 31 39  1  0
 30 40  1  6
 29 41  1  0
 29 42  1  0
 28 43  1  1
 27 44  1  0
 27 45  1  0
 26 46  1  0
 26 47  1  0
 25 48  1  0
 48 49  2  0
 48 50  1  0
 50 51  2  0
 51 52  1  0
 52 53  2  0
 53 54  1  0
 53 55  1  0
 55 56  2  0
 55 57  1  0
 52 58  1  0
 51 59  1  0
 24 60  1  0
 24 61  1  0
  3 62  1  0
  3 63  1  0
  2 64  1  6
  1 65  1  0
  1 66  1  0
  1 67  1  0
 23  2  1  0
 32 28  1  0
 56 50  1  0
 14  5  1  0
 56 23  1  0
 14  9  1  0
 34 30  1  0
M  CHG  1  28   1
M  END
>  <cnnaffinities>  (15) 
[6.55185]

>  <score>  (15) 
6.55185

>  <index>  (15) 
14

>  <Smiles>  (15) 
C([C@]1(C(N(c2c(nc(c3c(c(c(c(c23)[H])[H])[H])[H])[H])[H])C(=O)[C@]21C(N(C(C([N@@+]1(C([C@@]3(C([C@]1(C(O3)([H])[H])[H])([H])[H])[H])([H])[H])[H])([H])[H])([H])[H])C(=O)c1c(c(c(Cl)c(c21)[H])[H])[H])([H])[H])([H])[H])[H])([H])([H])[H]

>  <h>  (15) 
<NA>

>  <Training>  (15) 
True

>  <Success>  (15) 
True

>  <enamine_searched>  (15) 
False

>  <enamine_id>  (15) 
nan

$$$$

     RDKit          3D

 72 77  0  0  0  0  0  0  0  0999 V2000
    4.9641    5.5471   20.5605 C   0  0  0  0  0  0  0  0  0  0  0  0
    5.7238    5.1146   21.8028 C   0  0  1  0  0  0  0  0  0  0  0  0
    6.8906    4.1973   21.4262 C   0  0  0  0  0  0  0  0  0  0  0  0
    7.8883    4.0729   22.5393 N   0  0  2  0  0  4  0  0  0  0  0  0
    7.1995    3.4183   23.7110 C   0  0  0  0  0  0  0  0  0  0  0  0
    8.1805    2.8170   24.7056 C   0  0  0  0  0  0  0  0  0  0  0  0
    8.8658    1.6685   24.1328 N   0  0  0  0  0  0  0  0  0  0  0  0
    8.0942    0.4520   23.9403 C   0  0  0  0  0  0  0  0  0  0  0  0
    8.4544   -0.3093   22.6415 C   0  0  2  0  0  0  0  0  0  0  0  0
    7.9078    0.4259   21.4031 C   0  0  0  0  0  0  0  0  0  0  0  0
    8.2757    1.5195   20.9973 O   0  0  0  0  0  0  0  0  0  0  0  0
    6.9237   -0.3417   20.8308 N   0  0  0  0  0  0  0  0  0  0  0  0
    6.1464    0.1520   19.7545 C   0  0  0  0  0  0  0  0  0  0  0  0
    6.4859   -0.1569   18.4643 C   0  0  0  0  0  0  0  0  0  0  0  0
    5.7947    0.2675   17.3818 N   0  0  0  0  0  0  0  0  0  0  0  0
    4.7522    1.0346   17.5889 C   0  0  0  0  0  0  0  0  0  0  0  0
    4.2909    1.4262   18.8787 C   0  0  0  0  0  0  0  0  0  0  0  0
    3.1622    2.2656   19.0680 C   0  0  0  0  0  0  0  0  0  0  0  0
    2.7570    2.6255   20.3246 C   0  0  0  0  0  0  0  0  0  0  0  0
    3.4540    2.1532   21.4588 C   0  0  0  0  0  0  0  0  0  0  0  0
    4.5458    1.3337   21.3061 C   0  0  0  0  0  0  0  0  0  0  0  0
    5.0008    0.9603   20.0082 C   0  0  0  0  0  0  0  0  0  0  0  0
    5.0845    0.9902   22.1834 H   0  0  0  0  0  0  0  0  0  0  0  0
    3.1294    2.4482   22.4516 H   0  0  0  0  0  0  0  0  0  0  0  0
    1.9208    3.3071   20.4543 H   0  0  0  0  0  0  0  0  0  0  0  0
    2.6589    2.6465   18.1859 H   0  0  0  0  0  0  0  0  0  0  0  0
    4.2092    1.3855   16.7106 H   0  0  0  0  0  0  0  0  0  0  0  0
    7.3569   -0.7793   18.2653 H   0  0  0  0  0  0  0  0  0  0  0  0
    6.5040   -1.4639   21.6494 C   0  0  0  0  0  0  0  0  0  0  0  0
    7.7335   -1.6889   22.5425 C   0  0  2  0  0  0  0  0  0  0  0  0
    7.4584   -2.4172   23.8528 C   0  0  0  0  0  0  0  0  0  0  0  0
    7.0515   -3.4161   23.6655 H   0  0  0  0  0  0  0  0  0  0  0  0
    8.3863   -2.5321   24.4252 H   0  0  0  0  0  0  0  0  0  0  0  0
    6.7386   -1.8808   24.4807 H   0  0  0  0  0  0  0  0  0  0  0  0
    8.4029   -2.3197   21.9589 H   0  0  0  0  0  0  0  0  0  0  0  0
    6.2767   -2.3339   21.0220 H   0  0  0  0  0  0  0  0  0  0  0  0
    5.5929   -1.2369   22.2269 H   0  0  0  0  0  0  0  0  0  0  0  0
    9.9575   -0.3773   22.5029 C   0  0  0  0  0  0  0  0  0  0  0  0
   10.5298   -1.2834   21.6073 C   0  0  0  0  0  0  0  0  0  0  0  0
   11.8931   -1.3163   21.4086 C   0  0  0  0  0  0  0  0  0  0  0  0
   12.4613   -2.4724   20.2431 Cl  0  0  0  0  0  0  0  0  0  0  0  0
   12.7479   -0.4425   22.0865 C   0  0  0  0  0  0  0  0  0  0  0  0
   12.1726    0.4865   22.9403 C   0  0  0  0  0  0  0  0  0  0  0  0
   10.7884    0.5634   23.1198 C   0  0  0  0  0  0  0  0  0  0  0  0
   10.2111    1.7218   23.9004 C   0  0  0  0  0  0  0  0  0  0  0  0
   10.9038    2.6693   24.2564 O   0  0  0  0  0  0  0  0  0  0  0  0
   12.7796    1.1895   23.4934 H   0  0  0  0  0  0  0  0  0  0  0  0
   13.8231   -0.4706   21.9215 H   0  0  0  0  0  0  0  0  0  0  0  0
    9.9376   -1.9688   21.0082 H   0  0  0  0  0  0  0  0  0  0  0  0
    8.2339   -0.2127   24.8008 H   0  0  0  0  0  0  0  0  0  0  0  0
    7.0353    0.7134   23.9049 H   0  0  0  0  0  0  0  0  0  0  0  0
    7.6295    2.5233   25.6070 H   0  0  0  0  0  0  0  0  0  0  0  0
    8.9448    3.5354   25.0025 H   0  0  0  0  0  0  0  0  0  0  0  0
    6.5504    4.1539   24.1943 H   0  0  0  0  0  0  0  0  0  0  0  0
    6.5517    2.6317   23.2978 H   0  0  0  0  0  0  0  0  0  0  0  0
    8.4513    5.4673   22.8944 C   0  0  1  0  0  0  0  0  0  0  0  0
    9.9148    5.6912   22.5408 C   0  0  0  0  0  0  0  0  0  0  0  0
   10.2290    6.6619   22.9392 H   0  0  0  0  0  0  0  0  0  0  0  0
   10.1031    5.7225   21.4652 H   0  0  0  0  0  0  0  0  0  0  0  0
   10.5480    4.9213   22.9840 H   0  0  0  0  0  0  0  0  0  0  0  0
    7.5413    6.5413   22.2927 C   0  0  0  0  0  0  0  0  0  0  0  0
    6.1823    6.2449   22.5496 O   0  0  0  0  0  0  0  0  0  0  0  0
    7.7487    7.5119   22.7481 H   0  0  0  0  0  0  0  0  0  0  0  0
    7.7290    6.6271   21.2111 H   0  0  0  0  0  0  0  0  0  0  0  0
    8.3673    5.5169   23.9817 H   0  0  0  0  0  0  0  0  0  0  0  0
    8.6296    3.4322   22.1953 H   0  0  0  0  0  0  0  0  0  0  0  0
    7.3927    4.5818   20.5366 H   0  0  0  0  0  0  0  0  0  0  0  0
    6.5111    3.2156   21.1467 H   0  0  0  0  0  0  0  0  0  0  0  0
    5.0220    4.5818   22.4630 H   0  0  0  0  0  0  0  0  0  0  0  0
    4.5531    4.6620   20.0590 H   0  0  0  0  0  0  0  0  0  0  0  0
    4.1398    6.2187   20.8233 H   0  0  0  0  0  0  0  0  0  0  0  0
    5.6393    6.0680   19.8706 H   0  0  0  0  0  0  0  0  0  0  0  0
  1  2  1  0
  2  3  1  0
  3  4  1  0
  4  5  1  0
  5  6  1  0
  6  7  1  0
  7  8  1  0
  9  8  1  1
  9 10  1  0
 10 11  2  0
 10 12  1  0
 12 13  1  0
 13 14  2  0
 14 15  1  0
 15 16  2  0
 16 17  1  0
 17 18  2  0
 18 19  1  0
 19 20  2  0
 20 21  1  0
 21 22  2  0
 21 23  1  0
 20 24  1  0
 19 25  1  0
 18 26  1  0
 16 27  1  0
 14 28  1  0
 12 29  1  0
 29 30  1  0
 30 31  1  0
 31 32  1  0
 31 33  1  0
 31 34  1  0
 30 35  1  6
 29 36  1  0
 29 37  1  0
  9 38  1  0
 38 39  2  0
 39 40  1  0
 40 41  1  0
 40 42  2  0
 42 43  1  0
 43 44  2  0
 44 45  1  0
 45 46  2  0
 43 47  1  0
 42 48  1  0
 39 49  1  0
  8 50  1  0
  8 51  1  0
  6 52  1  0
  6 53  1  0
  5 54  1  0
  5 55  1  0
  4 56  1  0
 56 57  1  0
 57 58  1  0
 57 59  1  0
 57 60  1  0
 56 61  1  0
 61 62  1  0
 61 63  1  0
 61 64  1  0
 56 65  1  1
  4 66  1  6
  3 67  1  0
  3 68  1  0
  2 69  1  1
  1 70  1  0
  1 71  1  0
  1 72  1  0
 62  2  1  0
 45  7  1  0
 30  9  1  0
 44 38  1  0
 22 13  1  0
 22 17  1  0
M  CHG  1   4   1
M  END
>  <cnnaffinities>  (16) 
[6.60804]

>  <score>  (16) 
6.60804

>  <index>  (16) 
15

>  <Smiles>  (16) 
C([C@]1(C([N@+](C(C(N2C([C@@]3(C(=O)N(c4c(nc(c5c(c(c(c(c45)[H])[H])[H])[H])[H])[H])C([C@@]3(C([H])([H])[H])[H])([H])[H])c3c(c(Cl)c(c(c3C2=O)[H])[H])[H])([H])[H])([H])[H])([H])[H])([C@@](C([H])([H])[H])(C(O1)([H])[H])[H])[H])([H])[H])[H])([H])([H])[H]

>  <h>  (16) 
<NA>

>  <Training>  (16) 
True

>  <Success>  (16) 
True

>  <enamine_searched>  (16) 
False

>  <enamine_id>  (16) 
nan

$$$$

     RDKit          3D

 47 50  0  0  0  0  0  0  0  0999 V2000
    6.9072   -0.6079   26.4133 C   0  0  0  0  0  0  0  0  0  0  0  0
    6.9733   -1.6093   25.2679 C   0  0  1  0  0  0  0  0  0  0  0  0
    5.7399   -2.5136   25.1790 C   0  0  0  0  0  0  0  0  0  0  0  0
    5.5435   -2.8354   23.6876 C   0  0  2  0  0  0  0  0  0  0  0  0
    6.0315   -4.2256   23.3227 C   0  0  0  0  0  0  0  0  0  0  0  0
    5.1194   -5.2700   23.1658 C   0  0  0  0  0  0  0  0  0  0  0  0
    5.5586   -6.5587   22.8713 C   0  0  0  0  0  0  0  0  0  0  0  0
    6.9195   -6.8152   22.7397 C   0  0  0  0  0  0  0  0  0  0  0  0
    7.8348   -5.7838   22.9246 C   0  0  0  0  0  0  0  0  0  0  0  0
    7.3926   -4.5028   23.2257 C   0  0  0  0  0  0  0  0  0  0  0  0
    8.1232   -3.7137   23.3847 H   0  0  0  0  0  0  0  0  0  0  0  0
    8.9000   -5.9716   22.8581 H   0  0  0  0  0  0  0  0  0  0  0  0
    7.2668   -7.8187   22.5128 H   0  0  0  0  0  0  0  0  0  0  0  0
    4.8370   -7.3607   22.7435 H   0  0  0  0  0  0  0  0  0  0  0  0
    4.0551   -5.0754   23.2851 H   0  0  0  0  0  0  0  0  0  0  0  0
    6.2641   -1.7632   22.9975 N   0  0  0  0  0  0  0  0  0  0  0  0
    6.1555   -1.6455   21.6339 C   0  0  0  0  0  0  0  0  0  0  0  0
    5.4781   -2.4262   20.9880 O   0  0  0  0  0  0  0  0  0  0  0  0
    6.9057   -0.4882   20.9273 C   0  0  0  0  0  0  0  0  0  0  0  0
    6.1130    0.0885   19.7745 C   0  0  0  0  0  0  0  0  0  0  0  0
    6.4215   -0.2142   18.4741 C   0  0  0  0  0  0  0  0  0  0  0  0
    5.7556    0.2381   17.3779 N   0  0  0  0  0  0  0  0  0  0  0  0
    4.7350    1.0310   17.5802 C   0  0  0  0  0  0  0  0  0  0  0  0
    4.2847    1.4211   18.8691 C   0  0  0  0  0  0  0  0  0  0  0  0
    3.1617    2.2673   19.0473 C   0  0  0  0  0  0  0  0  0  0  0  0
    2.7484    2.6242   20.3011 C   0  0  0  0  0  0  0  0  0  0  0  0
    3.4422    2.1389   21.4329 C   0  0  0  0  0  0  0  0  0  0  0  0
    4.5313    1.3169   21.2894 C   0  0  0  0  0  0  0  0  0  0  0  0
    4.9895    0.9382   20.0006 C   0  0  0  0  0  0  0  0  0  0  0  0
    5.0483    0.9498   22.1726 H   0  0  0  0  0  0  0  0  0  0  0  0
    3.1077    2.4248   22.4251 H   0  0  0  0  0  0  0  0  0  0  0  0
    1.8933    3.2830   20.4353 H   0  0  0  0  0  0  0  0  0  0  0  0
    2.6490    2.6415   18.1640 H   0  0  0  0  0  0  0  0  0  0  0  0
    4.2032    1.3974   16.6978 H   0  0  0  0  0  0  0  0  0  0  0  0
    7.2640   -0.8665   18.2444 H   0  0  0  0  0  0  0  0  0  0  0  0
    7.8394   -0.9019   20.5216 H   0  0  0  0  0  0  0  0  0  0  0  0
    7.2014    0.3068   21.6238 H   0  0  0  0  0  0  0  0  0  0  0  0
    7.0724   -0.9447   23.8888 C   0  0  0  0  0  0  0  0  0  0  0  0
    8.1116   -0.8751   23.5504 H   0  0  0  0  0  0  0  0  0  0  0  0
    6.6824    0.0803   23.9185 H   0  0  0  0  0  0  0  0  0  0  0  0
    4.4827   -2.7804   23.4268 H   0  0  0  0  0  0  0  0  0  0  0  0
    4.8647   -1.9962   25.5832 H   0  0  0  0  0  0  0  0  0  0  0  0
    5.8559   -3.4153   25.7834 H   0  0  0  0  0  0  0  0  0  0  0  0
    7.8562   -2.2396   25.4175 H   0  0  0  0  0  0  0  0  0  0  0  0
    6.0296    0.0383   26.3034 H   0  0  0  0  0  0  0  0  0  0  0  0
    7.7895    0.0400   26.4482 H   0  0  0  0  0  0  0  0  0  0  0  0
    6.8194   -1.0995   27.3886 H   0  0  0  0  0  0  0  0  0  0  0  0
  1  2  1  0
  2  3  1  0
  3  4  1  0
  4  5  1  0
  5  6  2  0
  6  7  1  0
  7  8  2  0
  8  9  1  0
  9 10  2  0
 10 11  1  0
  9 12  1  0
  8 13  1  0
  7 14  1  0
  6 15  1  0
  4 16  1  0
 16 17  1  0
 17 18  2  0
 17 19  1  0
 19 20  1  0
 20 21  2  0
 21 22  1  0
 22 23  2  0
 23 24  1  0
 24 25  2  0
 25 26  1  0
 26 27  2  0
 27 28  1  0
 28 29  2  0
 28 30  1  0
 27 31  1  0
 26 32  1  0
 25 33  1  0
 23 34  1  0
 21 35  1  0
 19 36  1  0
 19 37  1  0
 16 38  1  0
 38 39  1  0
 38 40  1  0
  4 41  1  6
  3 42  1  0
  3 43  1  0
  2 44  1  1
  1 45  1  0
  1 46  1  0
  1 47  1  0
 38  2  1  0
 10  5  1  0
 29 20  1  0
 29 24  1  0
M  END
>  <cnnaffinities>  (17) 
[5.21715, 5.21468, 5.53929, 5.53778, 5.59914, 5.59722]

>  <score>  (17) 
5.21715

>  <index>  (17) 
16

>  <Smiles>  (17) 
C([C@]1(C([C@](c2c(c(c(c(c2[H])[H])[H])[H])[H])(N(C(=O)C(c2c(nc(c3c(c(c(c(c23)[H])[H])[H])[H])[H])[H])([H])[H])C1([H])[H])[H])([H])[H])[H])([H])([H])[H]

>  <h>  (17) 
<NA>

>  <Training>  (17) 
True

>  <Success>  (17) 
True

>  <enamine_searched>  (17) 
False

>  <enamine_id>  (17) 
nan

$$$$

     RDKit          3D

 58 63  0  0  0  0  0  0  0  0999 V2000
    7.6254   -2.9204   23.4429 C   0  0  0  0  0  0  0  0  0  0  0  0
    7.9552   -1.8830   22.3608 C   0  0  1  0  0  0  0  0  0  0  0  0
    6.8479   -1.7676   21.2954 C   0  0  0  0  0  0  0  0  0  0  0  0
    6.9353   -0.3966   20.8350 N   0  0  0  0  0  0  0  0  0  0  0  0
    6.1446    0.1137   19.7739 C   0  0  0  0  0  0  0  0  0  0  0  0
    6.4426   -0.2218   18.4789 C   0  0  0  0  0  0  0  0  0  0  0  0
    5.7619    0.2226   17.3963 N   0  0  0  0  0  0  0  0  0  0  0  0
    4.7443    1.0204   17.6006 C   0  0  0  0  0  0  0  0  0  0  0  0
    4.2951    1.4164   18.8910 C   0  0  0  0  0  0  0  0  0  0  0  0
    3.1666    2.2626   19.0665 C   0  0  0  0  0  0  0  0  0  0  0  0
    2.7436    2.6100   20.3189 C   0  0  0  0  0  0  0  0  0  0  0  0
    3.4222    2.1131   21.4576 C   0  0  0  0  0  0  0  0  0  0  0  0
    4.5127    1.2947   21.3123 C   0  0  0  0  0  0  0  0  0  0  0  0
    5.0001    0.9420   20.0213 C   0  0  0  0  0  0  0  0  0  0  0  0
    5.0193    0.9113   22.1937 H   0  0  0  0  0  0  0  0  0  0  0  0
    3.0864    2.3876   22.4532 H   0  0  0  0  0  0  0  0  0  0  0  0
    1.8913    3.2721   20.4441 H   0  0  0  0  0  0  0  0  0  0  0  0
    2.6629    2.6382   18.1784 H   0  0  0  0  0  0  0  0  0  0  0  0
    4.2196    1.3857   16.7166 H   0  0  0  0  0  0  0  0  0  0  0  0
    7.2857   -0.8768   18.2649 H   0  0  0  0  0  0  0  0  0  0  0  0
    7.6637    0.4237   21.6621 C   0  0  0  0  0  0  0  0  0  0  0  0
    7.8086    1.6164   21.4898 O   0  0  0  0  0  0  0  0  0  0  0  0
    8.2149   -0.4181   22.8359 C   0  0  1  0  0  0  0  0  0  0  0  0
    7.4132   -0.0792   24.1200 C   0  0  0  0  0  0  0  0  0  0  0  0
    7.6924    1.2608   24.5983 N   0  0  0  0  0  0  0  0  0  0  0  0
    6.5864    2.1899   24.7835 C   0  0  0  0  0  0  0  0  0  0  0  0
    5.5245    1.6713   25.7053 C   0  0  0  0  0  0  0  0  0  0  0  0
    4.3032    1.3472   25.3556 N   0  0  0  0  0  0  0  0  0  0  0  0
    3.6642    0.8609   26.4703 N   0  0  0  0  0  0  0  0  0  0  0  0
    4.5209    0.9125   27.4512 C   0  0  0  0  0  0  0  0  0  0  0  0
    5.7166    1.4258   27.0344 N   0  0  0  0  0  0  0  0  0  0  0  0
    6.9279    1.6218   27.8121 C   0  0  0  0  0  0  0  0  0  0  0  0
    7.3493    2.6152   27.6271 H   0  0  0  0  0  0  0  0  0  0  0  0
    6.6640    1.5399   28.8699 H   0  0  0  0  0  0  0  0  0  0  0  0
    7.6787    0.8633   27.5680 H   0  0  0  0  0  0  0  0  0  0  0  0
    4.3390    0.5954   28.4706 H   0  0  0  0  0  0  0  0  0  0  0  0
    7.0271    3.1215   25.1533 H   0  0  0  0  0  0  0  0  0  0  0  0
    6.1033    2.3836   23.8150 H   0  0  0  0  0  0  0  0  0  0  0  0
    8.9817    1.6536   24.8135 C   0  0  0  0  0  0  0  0  0  0  0  0
    9.2835    2.5855   25.5535 O   0  0  0  0  0  0  0  0  0  0  0  0
   10.0191    0.8811   24.0489 C   0  0  0  0  0  0  0  0  0  0  0  0
   11.3516    1.2065   24.2751 C   0  0  0  0  0  0  0  0  0  0  0  0
   12.3608    0.6716   23.5024 C   0  0  0  0  0  0  0  0  0  0  0  0
   11.9924   -0.1853   22.4715 C   0  0  0  0  0  0  0  0  0  0  0  0
   12.9508   -0.6734   21.6703 F   0  0  0  0  0  0  0  0  0  0  0  0
   10.6814   -0.5479   22.2360 C   0  0  0  0  0  0  0  0  0  0  0  0
    9.6687   -0.0589   23.0721 C   0  0  0  0  0  0  0  0  0  0  0  0
   10.4794   -1.1816   21.3784 H   0  0  0  0  0  0  0  0  0  0  0  0
   13.4067    0.9196   23.6428 H   0  0  0  0  0  0  0  0  0  0  0  0
   11.5237    1.9180   25.0625 H   0  0  0  0  0  0  0  0  0  0  0  0
    6.3416   -0.1380   23.9165 H   0  0  0  0  0  0  0  0  0  0  0  0
    7.6662   -0.8053   24.9071 H   0  0  0  0  0  0  0  0  0  0  0  0
    6.9967   -2.4425   20.4526 H   0  0  0  0  0  0  0  0  0  0  0  0
    5.8585   -1.9911   21.7237 H   0  0  0  0  0  0  0  0  0  0  0  0
    8.8715   -2.2055   21.8597 H   0  0  0  0  0  0  0  0  0  0  0  0
    7.5399   -3.9242   23.0094 H   0  0  0  0  0  0  0  0  0  0  0  0
    6.6695   -2.6936   23.9320 H   0  0  0  0  0  0  0  0  0  0  0  0
    8.3941   -2.9603   24.2243 H   0  0  0  0  0  0  0  0  0  0  0  0
  1  2  1  0
  2  3  1  0
  3  4  1  0
  4  5  1  0
  5  6  2  0
  6  7  1  0
  7  8  2  0
  8  9  1  0
  9 10  2  0
 10 11  1  0
 11 12  2  0
 12 13  1  0
 13 14  2  0
 13 15  1  0
 12 16  1  0
 11 17  1  0
 10 18  1  0
  8 19  1  0
  6 20  1  0
  4 21  1  0
 21 22  2  0
 21 23  1  0
 23 24  1  1
 24 25  1  0
 25 26  1  0
 26 27  1  0
 27 28  2  0
 28 29  1  0
 29 30  2  0
 30 31  1  0
 31 32  1  0
 32 33  1  0
 32 34  1  0
 32 35  1  0
 30 36  1  0
 26 37  1  0
 26 38  1  0
 25 39  1  0
 39 40  2  0
 39 41  1  0
 41 42  2  0
 42 43  1  0
 43 44  2  0
 44 45  1  0
 44 46  1  0
 46 47  2  0
 46 48  1  0
 43 49  1  0
 42 50  1  0
 24 51  1  0
 24 52  1  0
  3 53  1  0
  3 54  1  0
  2 55  1  6
  1 56  1  0
  1 57  1  0
  1 58  1  0
 23  2  1  0
 31 27  1  0
 47 41  1  0
 14  5  1  0
 47 23  1  0
 14  9  1  0
M  END
>  <cnnaffinities>  (18) 
[6.26707, 6.45351]

>  <score>  (18) 
6.26707

>  <index>  (18) 
17

>  <Smiles>  (18) 
C([C@]1(C(N(c2c(nc(c3c(c(c(c(c23)[H])[H])[H])[H])[H])[H])C(=O)[C@]21C(N(C(c1nnc(n1C([H])([H])[H])[H])([H])[H])C(=O)c1c(c(c(F)c(c21)[H])[H])[H])([H])[H])([H])[H])[H])([H])([H])[H]

>  <h>  (18) 
<NA>

>  <Training>  (18) 
True

>  <Success>  (18) 
True

>  <enamine_searched>  (18) 
False

>  <enamine_id>  (18) 
nan

$$$$

     RDKit          3D

 50 53  0  0  0  0  0  0  0  0999 V2000
    3.9010   -1.8264   29.3971 C   0  0  0  0  0  0  0  0  0  0  0  0
    3.9694   -2.1646   27.9151 C   0  0  1  0  0  0  0  0  0  0  0  0
    4.0173   -0.9056   27.0489 C   0  0  0  0  0  0  0  0  0  0  0  0
    4.1267   -1.2248   25.5556 C   0  0  0  0  0  0  0  0  0  0  0  0
    5.2865   -2.1854   25.1950 C   0  0  2  0  0  0  0  0  0  0  0  0
    6.6533   -1.4730   25.2920 C   0  0  0  0  0  0  0  0  0  0  0  0
    6.9250   -0.8663   23.9098 C   0  0  0  0  0  0  0  0  0  0  0  0
    6.0984   -1.6410   22.9925 N   0  0  0  0  0  0  0  0  0  0  0  0
    6.1458   -1.6285   21.6271 C   0  0  0  0  0  0  0  0  0  0  0  0
    5.5822   -2.4842   20.9633 O   0  0  0  0  0  0  0  0  0  0  0  0
    6.9093   -0.4854   20.9202 C   0  0  0  0  0  0  0  0  0  0  0  0
    6.1154    0.0916   19.7690 C   0  0  0  0  0  0  0  0  0  0  0  0
    6.4213   -0.2140   18.4666 C   0  0  0  0  0  0  0  0  0  0  0  0
    5.7551    0.2386   17.3721 N   0  0  0  0  0  0  0  0  0  0  0  0
    4.7338    1.0324   17.5768 C   0  0  0  0  0  0  0  0  0  0  0  0
    4.2849    1.4234   18.8694 C   0  0  0  0  0  0  0  0  0  0  0  0
    3.1600    2.2701   19.0451 C   0  0  0  0  0  0  0  0  0  0  0  0
    2.7478    2.6254   20.3013 C   0  0  0  0  0  0  0  0  0  0  0  0
    3.4409    2.1413   21.4323 C   0  0  0  0  0  0  0  0  0  0  0  0
    4.5327    1.3199   21.2881 C   0  0  0  0  0  0  0  0  0  0  0  0
    4.9896    0.9410   19.9968 C   0  0  0  0  0  0  0  0  0  0  0  0
    5.0480    0.9561   22.1722 H   0  0  0  0  0  0  0  0  0  0  0  0
    3.1055    2.4253   22.4241 H   0  0  0  0  0  0  0  0  0  0  0  0
    1.8917    3.2800   20.4359 H   0  0  0  0  0  0  0  0  0  0  0  0
    2.6423    2.6433   18.1650 H   0  0  0  0  0  0  0  0  0  0  0  0
    4.1992    1.3993   16.6989 H   0  0  0  0  0  0  0  0  0  0  0  0
    7.2658   -0.8670   18.2471 H   0  0  0  0  0  0  0  0  0  0  0  0
    7.8355   -0.9155   20.5176 H   0  0  0  0  0  0  0  0  0  0  0  0
    7.2119    0.3115   21.6097 H   0  0  0  0  0  0  0  0  0  0  0  0
    5.2290   -2.5792   23.6996 C   0  0  0  0  0  0  0  0  0  0  0  0
    5.5658   -3.6117   23.5483 H   0  0  0  0  0  0  0  0  0  0  0  0
    4.2096   -2.5258   23.3088 H   0  0  0  0  0  0  0  0  0  0  0  0
    7.9831   -0.9507   23.6503 H   0  0  0  0  0  0  0  0  0  0  0  0
    6.6510    0.1945   23.8872 H   0  0  0  0  0  0  0  0  0  0  0  0
    6.6760   -0.7054   26.0697 H   0  0  0  0  0  0  0  0  0  0  0  0
    7.4345   -2.1941   25.5538 H   0  0  0  0  0  0  0  0  0  0  0  0
    5.2162   -3.4242   26.1114 C   0  0  0  0  0  0  0  0  0  0  0  0
    5.1541   -3.0771   27.5988 C   0  0  0  0  0  0  0  0  0  0  0  0
    5.0913   -3.9942   28.1992 H   0  0  0  0  0  0  0  0  0  0  0  0
    6.0865   -2.5833   27.9019 H   0  0  0  0  0  0  0  0  0  0  0  0
    4.3270   -4.0142   25.8505 H   0  0  0  0  0  0  0  0  0  0  0  0
    6.0770   -4.0762   25.9184 H   0  0  0  0  0  0  0  0  0  0  0  0
    3.1809   -1.6851   25.2417 H   0  0  0  0  0  0  0  0  0  0  0  0
    4.2222   -0.2978   24.9768 H   0  0  0  0  0  0  0  0  0  0  0  0
    3.1213   -0.2974   27.2313 H   0  0  0  0  0  0  0  0  0  0  0  0
    4.8637   -0.2823   27.3637 H   0  0  0  0  0  0  0  0  0  0  0  0
    3.0564   -2.7116   27.6473 H   0  0  0  0  0  0  0  0  0  0  0  0
    3.0367   -1.1950   29.6234 H   0  0  0  0  0  0  0  0  0  0  0  0
    3.8335   -2.7309   30.0091 H   0  0  0  0  0  0  0  0  0  0  0  0
    4.7999   -1.2838   29.7067 H   0  0  0  0  0  0  0  0  0  0  0  0
  1  2  1  0
  2  3  1  0
  3  4  1  0
  5  4  1  1
  5  6  1  0
  6  7  1  0
  7  8  1  0
  8  9  1  0
  9 10  2  0
  9 11  1  0
 11 12  1  0
 12 13  2  0
 13 14  1  0
 14 15  2  0
 15 16  1  0
 16 17  2  0
 17 18  1  0
 18 19  2  0
 19 20  1  0
 20 21  2  0
 20 22  1  0
 19 23  1  0
 18 24  1  0
 17 25  1  0
 15 26  1  0
 13 27  1  0
 11 28  1  0
 11 29  1  0
  8 30  1  0
 30 31  1  0
 30 32  1  0
  7 33  1  0
  7 34  1  0
  6 35  1  0
  6 36  1  0
  5 37  1  0
 37 38  1  0
 38 39  1  0
 38 40  1  0
 37 41  1  0
 37 42  1  0
  4 43  1  0
  4 44  1  0
  3 45  1  0
  3 46  1  0
  2 47  1  6
  1 48  1  0
  1 49  1  0
  1 50  1  0
 38  2  1  0
 30  5  1  0
 21 12  1  0
 21 16  1  0
M  END
>  <cnnaffinities>  (19) 
[5.42918]

>  <score>  (19) 
5.42918

>  <index>  (19) 
18

>  <Smiles>  (19) 
C([C@]1(C(C([C@@]2(C(C(N(C(=O)C(c3c(nc(c4c(c(c(c(c34)[H])[H])[H])[H])[H])[H])([H])[H])C2([H])[H])([H])[H])([H])[H])C(C1([H])[H])([H])[H])([H])[H])([H])[H])[H])([H])([H])[H]

>  <h>  (19) 
<NA>

>  <Training>  (19) 
True

>  <Success>  (19) 
True

>  <enamine_searched>  (19) 
False

>  <enamine_id>  (19) 
nan

$$$$

     RDKit          3D

 67 71  0  0  0  0  0  0  0  0999 V2000
    3.5540   -5.2744   21.8415 O   0  0  0  0  0  0  0  0  0  0  0  0
    4.1563   -5.8491   22.7389 C   0  0  0  0  0  0  0  0  0  0  0  0
    5.6669   -5.6910   22.7240 C   0  0  0  0  0  0  0  0  0  0  0  0
    5.8986   -4.2114   22.7510 N   0  0  1  0  0  4  0  0  0  0  0  0
    5.1978   -3.6152   23.9451 C   0  0  0  0  0  0  0  0  0  0  0  0
    5.5287   -2.1725   24.2508 C   0  0  0  0  0  0  0  0  0  0  0  0
    4.7236   -1.4599   25.1454 C   0  0  0  0  0  0  0  0  0  0  0  0
    5.0649   -0.1765   25.5545 C   0  0  0  0  0  0  0  0  0  0  0  0
    6.2372    0.3940   25.0619 C   0  0  0  0  0  0  0  0  0  0  0  0
    6.6995    1.9967   25.5786 Cl  0  0  0  0  0  0  0  0  0  0  0  0
    7.0257   -0.2824   24.1427 C   0  0  0  0  0  0  0  0  0  0  0  0
    6.6488   -1.5553   23.7057 C   0  0  0  0  0  0  0  0  0  0  0  0
    7.3416   -2.2258   22.5428 C   0  0  2  0  0  0  0  0  0  0  0  0
    6.5965   -1.8096   21.2660 C   0  0  0  0  0  0  0  0  0  0  0  0
    5.8289   -2.5563   20.6766 O   0  0  0  0  0  0  0  0  0  0  0  0
    6.8272   -0.5211   20.8461 N   0  0  0  0  0  0  0  0  0  0  0  0
    6.1049    0.0576   19.7761 C   0  0  0  0  0  0  0  0  0  0  0  0
    6.4424   -0.2437   18.4830 C   0  0  0  0  0  0  0  0  0  0  0  0
    5.7966    0.2389   17.3944 N   0  0  0  0  0  0  0  0  0  0  0  0
    4.7746    1.0305   17.5970 C   0  0  0  0  0  0  0  0  0  0  0  0
    4.3178    1.4309   18.8885 C   0  0  0  0  0  0  0  0  0  0  0  0
    3.1869    2.2695   19.0615 C   0  0  0  0  0  0  0  0  0  0  0  0
    2.7641    2.6130   20.3160 C   0  0  0  0  0  0  0  0  0  0  0  0
    3.4493    2.1302   21.4530 C   0  0  0  0  0  0  0  0  0  0  0  0
    4.5438    1.3131   21.3153 C   0  0  0  0  0  0  0  0  0  0  0  0
    5.0043    0.9419   20.0201 C   0  0  0  0  0  0  0  0  0  0  0  0
    5.0338    0.9201   22.2021 H   0  0  0  0  0  0  0  0  0  0  0  0
    3.0961    2.4050   22.4421 H   0  0  0  0  0  0  0  0  0  0  0  0
    1.9046    3.2631   20.4455 H   0  0  0  0  0  0  0  0  0  0  0  0
    2.6701    2.6282   18.1767 H   0  0  0  0  0  0  0  0  0  0  0  0
    4.2331    1.3838   16.7182 H   0  0  0  0  0  0  0  0  0  0  0  0
    7.2942   -0.8943   18.3070 H   0  0  0  0  0  0  0  0  0  0  0  0
    7.2387    0.1289   21.5020 H   0  0  0  0  0  0  0  0  0  0  0  0
    7.3162   -3.7533   22.6689 C   0  0  0  0  0  0  0  0  0  0  0  0
    7.7994   -4.1972   21.7953 H   0  0  0  0  0  0  0  0  0  0  0  0
    7.8665   -4.0763   23.5606 H   0  0  0  0  0  0  0  0  0  0  0  0
    8.3738   -1.8603   22.4794 H   0  0  0  0  0  0  0  0  0  0  0  0
    7.9292    0.1880   23.7657 H   0  0  0  0  0  0  0  0  0  0  0  0
    4.4454    0.3751   26.2564 H   0  0  0  0  0  0  0  0  0  0  0  0
    3.8145   -1.9115   25.5417 H   0  0  0  0  0  0  0  0  0  0  0  0
    5.4293   -4.2336   24.8219 H   0  0  0  0  0  0  0  0  0  0  0  0
    4.1194   -3.6889   23.7806 H   0  0  0  0  0  0  0  0  0  0  0  0
    5.4298   -3.8514   21.8884 H   0  0  0  0  0  0  0  0  0  0  0  0
    6.1582   -6.2088   23.5451 H   0  0  0  0  0  0  0  0  0  0  0  0
    6.0337   -6.1155   21.7832 H   0  0  0  0  0  0  0  0  0  0  0  0
    3.5230   -6.4810   23.7539 N   0  0  0  0  0  0  0  0  0  0  0  0
    2.0815   -6.7003   23.6934 C   0  0  0  0  0  0  0  0  0  0  0  0
    1.2886   -5.3832   23.6193 C   0  0  0  0  0  0  0  0  0  0  0  0
   -0.2061   -5.5805   23.5827 C   0  0  0  0  0  0  0  0  0  0  0  0
   -0.9398   -5.6150   24.7698 C   0  0  0  0  0  0  0  0  0  0  0  0
   -2.3140   -5.8312   24.7572 C   0  0  0  0  0  0  0  0  0  0  0  0
   -2.9857   -6.0152   23.5524 C   0  0  0  0  0  0  0  0  0  0  0  0
   -4.4643   -6.2490   23.5374 C   0  0  0  0  0  0  0  0  0  0  0  0
   -5.0855   -5.3344   22.7374 F   0  0  0  0  0  0  0  0  0  0  0  0
   -4.7404   -7.4777   23.0111 F   0  0  0  0  0  0  0  0  0  0  0  0
   -4.9128   -6.1930   24.5365 H   0  0  0  0  0  0  0  0  0  0  0  0
   -2.2645   -5.9783   22.3590 C   0  0  0  0  0  0  0  0  0  0  0  0
   -0.8905   -5.7587   22.3753 C   0  0  0  0  0  0  0  0  0  0  0  0
   -0.3501   -5.7153   21.4287 H   0  0  0  0  0  0  0  0  0  0  0  0
   -2.7836   -6.1088   21.4133 H   0  0  0  0  0  0  0  0  0  0  0  0
   -2.8622   -5.8419   25.6988 H   0  0  0  0  0  0  0  0  0  0  0  0
   -0.4249   -5.4625   25.7172 H   0  0  0  0  0  0  0  0  0  0  0  0
    1.5573   -4.7512   24.4777 H   0  0  0  0  0  0  0  0  0  0  0  0
    1.6195   -4.8618   22.7186 H   0  0  0  0  0  0  0  0  0  0  0  0
    1.7837   -7.2907   24.5635 H   0  0  0  0  0  0  0  0  0  0  0  0
    1.8393   -7.2964   22.8057 H   0  0  0  0  0  0  0  0  0  0  0  0
    4.0543   -6.8068   24.5440 H   0  0  0  0  0  0  0  0  0  0  0  0
  1  2  2  0
  2  3  1  0
  3  4  1  0
  4  5  1  0
  5  6  1  0
  6  7  2  0
  7  8  1  0
  8  9  2  0
  9 10  1  0
  9 11  1  0
 11 12  2  0
 12 13  1  0
 13 14  1  0
 14 15  2  0
 14 16  1  0
 16 17  1  0
 17 18  2  0
 18 19  1  0
 19 20  2  0
 20 21  1  0
 21 22  2  0
 22 23  1  0
 23 24  2  0
 24 25  1  0
 25 26  2  0
 25 27  1  0
 24 28  1  0
 23 29  1  0
 22 30  1  0
 20 31  1  0
 18 32  1  0
 16 33  1  0
 13 34  1  0
 34 35  1  0
 34 36  1  0
 13 37  1  6
 11 38  1  0
  8 39  1  0
  7 40  1  0
  5 41  1  0
  5 42  1  0
  4 43  1  6
  3 44  1  0
  3 45  1  0
  2 46  1  0
 46 47  1  0
 47 48  1  0
 48 49  1  0
 49 50  2  0
 50 51  1  0
 51 52  2  0
 52 53  1  0
 53 54  1  0
 53 55  1  0
 53 56  1  0
 52 57  1  0
 57 58  2  0
 58 59  1  0
 57 60  1  0
 51 61  1  0
 50 62  1  0
 48 63  1  0
 48 64  1  0
 47 65  1  0
 47 66  1  0
 46 67  1  0
 34  4  1  0
 58 49  1  0
 12  6  1  0
 26 17  1  0
 26 21  1  0
M  CHG  1   4   1
M  END
>  <cnnaffinities>  (20) 
[5.86084]

>  <score>  (20) 
5.86084

>  <index>  (20) 
19

>  <Smiles>  (20) 
O=C(C([N@+]1(C(c2c(c(c(Cl)c(c2[C@](C(=O)N(c2c(nc(c3c(c(c(c(c23)[H])[H])[H])[H])[H])[H])[H])(C1([H])[H])[H])[H])[H])[H])([H])[H])[H])([H])[H])N(C(C(c1c(c(c(C(F)(F)[H])c(c1[H])[H])[H])[H])([H])[H])([H])[H])[H]

>  <h>  (20) 
<NA>

>  <Training>  (20) 
True

>  <Success>  (20) 
True

>  <enamine_searched>  (20) 
False

>  <enamine_id>  (20) 
nan

$$$$

     RDKit          3D

 66 70  0  0  0  0  0  0  0  0999 V2000
    4.1731    6.0393   21.2607 C   0  0  0  0  0  0  0  0  0  0  0  0
    5.3143    5.0565   20.9512 C   0  0  0  0  0  0  0  0  0  0  0  0
    6.5676    5.8961   20.8223 C   0  0  0  0  0  0  0  0  0  0  0  0
    6.6783    6.6579   19.8812 O   0  0  0  0  0  0  0  0  0  0  0  0
    7.4950    5.9376   21.8627 N   0  0  0  0  0  0  0  0  0  0  0  0
    8.1847    7.2136   22.0402 C   0  0  0  0  0  0  0  0  0  0  0  0
    8.1129    7.5798   23.5103 C   0  0  0  0  0  0  0  0  0  0  0  0
    8.9128    6.5488   24.2980 C   0  0  0  0  0  0  0  0  0  0  0  0
    8.5649    5.1323   23.8852 C   0  0  0  0  0  0  0  0  0  0  0  0
    8.9116    4.0537   24.6962 C   0  0  0  0  0  0  0  0  0  0  0  0
    8.6749    2.7431   24.3135 C   0  0  0  0  0  0  0  0  0  0  0  0
    8.1110    2.4859   23.0603 C   0  0  0  0  0  0  0  0  0  0  0  0
    7.8144    1.1531   22.6680 N   0  0  0  0  0  0  0  0  0  0  0  0
    7.7995    0.8297   21.3096 C   0  0  0  0  0  0  0  0  0  0  0  0
    8.4451    1.4768   20.5159 O   0  0  0  0  0  0  0  0  0  0  0  0
    6.9574   -0.3572   20.8596 C   0  0  0  0  0  0  0  0  0  0  0  0
    6.0844    0.0834   19.7242 C   0  0  0  0  0  0  0  0  0  0  0  0
    6.3947   -0.2185   18.4267 C   0  0  0  0  0  0  0  0  0  0  0  0
    5.7227    0.2366   17.3412 N   0  0  0  0  0  0  0  0  0  0  0  0
    4.7082    1.0360   17.5645 C   0  0  0  0  0  0  0  0  0  0  0  0
    4.2655    1.4301   18.8559 C   0  0  0  0  0  0  0  0  0  0  0  0
    3.1462    2.2775   19.0516 C   0  0  0  0  0  0  0  0  0  0  0  0
    2.7543    2.6372   20.3118 C   0  0  0  0  0  0  0  0  0  0  0  0
    3.4696    2.1712   21.4373 C   0  0  0  0  0  0  0  0  0  0  0  0
    4.5664    1.3597   21.2739 C   0  0  0  0  0  0  0  0  0  0  0  0
    4.9847    0.9516   19.9772 C   0  0  0  0  0  0  0  0  0  0  0  0
    5.1226    1.0356   22.1488 H   0  0  0  0  0  0  0  0  0  0  0  0
    3.1596    2.4710   22.4359 H   0  0  0  0  0  0  0  0  0  0  0  0
    1.9016    3.2969   20.4521 H   0  0  0  0  0  0  0  0  0  0  0  0
    2.6226    2.6431   18.1734 H   0  0  0  0  0  0  0  0  0  0  0  0
    4.1727    1.4110   16.6917 H   0  0  0  0  0  0  0  0  0  0  0  0
    7.2432   -0.8695   18.2106 H   0  0  0  0  0  0  0  0  0  0  0  0
    6.3848   -0.7351   21.7064 H   0  0  0  0  0  0  0  0  0  0  0  0
    7.6632   -1.1336   20.5423 H   0  0  0  0  0  0  0  0  0  0  0  0
    7.5140    0.2075   23.6314 N   0  0  0  0  0  0  0  0  0  0  0  0
    6.3428    0.4244   24.4567 C   0  0  0  0  0  0  0  0  0  0  0  0
    6.5623    0.0867   25.4759 H   0  0  0  0  0  0  0  0  0  0  0  0
    5.4535   -0.1143   24.0824 H   0  0  0  0  0  0  0  0  0  0  0  0
    6.1213    1.4986   24.4888 H   0  0  0  0  0  0  0  0  0  0  0  0
    8.3752   -0.8724   23.8434 C   0  0  0  0  0  0  0  0  0  0  0  0
    9.6410   -0.9376   23.2380 C   0  0  0  0  0  0  0  0  0  0  0  0
   10.4726   -2.0285   23.4571 C   0  0  0  0  0  0  0  0  0  0  0  0
   10.0856   -3.0705   24.2945 C   0  0  0  0  0  0  0  0  0  0  0  0
    8.8388   -2.9871   24.8944 C   0  0  0  0  0  0  0  0  0  0  0  0
    8.3648   -4.2645   25.9719 Cl  0  0  0  0  0  0  0  0  0  0  0  0
    7.9706   -1.9268   24.6750 C   0  0  0  0  0  0  0  0  0  0  0  0
    6.9863   -1.9635   25.1353 H   0  0  0  0  0  0  0  0  0  0  0  0
   10.7373   -3.9203   24.4805 H   0  0  0  0  0  0  0  0  0  0  0  0
   11.4494   -2.0563   22.9820 H   0  0  0  0  0  0  0  0  0  0  0  0
    9.9689   -0.1148   22.6087 H   0  0  0  0  0  0  0  0  0  0  0  0
    7.7733    3.5402   22.2212 C   0  0  0  0  0  0  0  0  0  0  0  0
    7.9240    4.8561   22.6641 C   0  0  0  0  0  0  0  0  0  0  0  0
    7.4175    3.3558   21.2148 H   0  0  0  0  0  0  0  0  0  0  0  0
    8.9252    1.9190   24.9702 H   0  0  0  0  0  0  0  0  0  0  0  0
    9.3750    4.2487   25.6602 H   0  0  0  0  0  0  0  0  0  0  0  0
    8.7671    6.6716   25.3797 H   0  0  0  0  0  0  0  0  0  0  0  0
    9.9847    6.7169   24.1112 H   0  0  0  0  0  0  0  0  0  0  0  0
    8.4807    8.5966   23.6861 H   0  0  0  0  0  0  0  0  0  0  0  0
    7.0621    7.5442   23.8194 H   0  0  0  0  0  0  0  0  0  0  0  0
    9.2233    7.1270   21.6905 H   0  0  0  0  0  0  0  0  0  0  0  0
    7.6818    7.9415   21.4053 H   0  0  0  0  0  0  0  0  0  0  0  0
    5.1311    4.5687   19.9883 H   0  0  0  0  0  0  0  0  0  0  0  0
    5.4241    4.2873   21.7147 H   0  0  0  0  0  0  0  0  0  0  0  0
    4.2658    6.8789   20.5648 H   0  0  0  0  0  0  0  0  0  0  0  0
    4.2571    6.4277   22.2840 H   0  0  0  0  0  0  0  0  0  0  0  0
    3.1748    5.6119   21.1326 H   0  0  0  0  0  0  0  0  0  0  0  0
  1  2  1  0
  2  3  1  0
  3  4  2  0
  3  5  1  0
  5  6  1  0
  6  7  1  0
  7  8  1  0
  8  9  1  0
  9 10  2  0
 10 11  1  0
 11 12  2  0
 12 13  1  0
 13 14  1  0
 14 15  2  0
 14 16  1  0
 16 17  1  0
 17 18  2  0
 18 19  1  0
 19 20  2  0
 20 21  1  0
 21 22  2  0
 22 23  1  0
 23 24  2  0
 24 25  1  0
 25 26  2  0
 25 27  1  0
 24 28  1  0
 23 29  1  0
 22 30  1  0
 20 31  1  0
 18 32  1  0
 16 33  1  0
 16 34  1  0
 13 35  1  0
 35 36  1  0
 36 37  1  0
 36 38  1  0
 36 39  1  0
 35 40  1  0
 40 41  2  0
 41 42  1  0
 42 43  2  0
 43 44  1  0
 44 45  1  0
 44 46  2  0
 46 47  1  0
 43 48  1  0
 42 49  1  0
 41 50  1  0
 12 51  1  0
 51 52  2  0
 51 53  1  0
 11 54  1  0
 10 55  1  0
  8 56  1  0
  8 57  1  0
  7 58  1  0
  7 59  1  0
  6 60  1  0
  6 61  1  0
  2 62  1  0
  2 63  1  0
  1 64  1  0
  1 65  1  0
  1 66  1  0
 52  5  1  0
 52  9  1  0
 26 17  1  0
 46 40  1  0
 26 21  1  0
M  END
>  <cnnaffinities>  (21) 
[7.24047]

>  <score>  (21) 
7.24047

>  <index>  (21) 
20

>  <Smiles>  (21) 
C(C(C(=O)N1C(C(C(c2c(c(c(N(C(=O)C(c3c(nc(c4c(c(c(c(c34)[H])[H])[H])[H])[H])[H])([H])[H])N(C([H])([H])[H])c3c(c(c(c(Cl)c3[H])[H])[H])[H])c(c12)[H])[H])[H])([H])[H])([H])[H])([H])[H])([H])[H])([H])([H])[H]

>  <h>  (21) 
<NA>

>  <Training>  (21) 
True

>  <Success>  (21) 
True

>  <enamine_searched>  (21) 
False

>  <enamine_id>  (21) 
nan

$$$$

     RDKit          3D

 59 64  0  0  0  0  0  0  0  0999 V2000
    6.8031   -2.2576   23.6459 C   0  0  0  0  0  0  0  0  0  0  0  0
    7.7743   -1.8285   22.5276 C   0  0  1  0  0  0  0  0  0  0  0  0
    7.0398   -1.7935   21.1638 C   0  0  0  0  0  0  0  0  0  0  0  0
    6.8904   -0.3879   20.8693 N   0  0  0  0  0  0  0  0  0  0  0  0
    6.1313    0.1073   19.7797 C   0  0  0  0  0  0  0  0  0  0  0  0
    6.4435   -0.2260   18.4836 C   0  0  0  0  0  0  0  0  0  0  0  0
    5.7663    0.2213   17.4018 N   0  0  0  0  0  0  0  0  0  0  0  0
    4.7461    1.0205   17.5998 C   0  0  0  0  0  0  0  0  0  0  0  0
    4.2928    1.4215   18.8874 C   0  0  0  0  0  0  0  0  0  0  0  0
    3.1638    2.2652   19.0653 C   0  0  0  0  0  0  0  0  0  0  0  0
    2.7398    2.6116   20.3224 C   0  0  0  0  0  0  0  0  0  0  0  0
    3.4253    2.1217   21.4567 C   0  0  0  0  0  0  0  0  0  0  0  0
    4.5232    1.3096   21.3072 C   0  0  0  0  0  0  0  0  0  0  0  0
    4.9998    0.9522   20.0155 C   0  0  0  0  0  0  0  0  0  0  0  0
    5.0324    0.9131   22.1771 H   0  0  0  0  0  0  0  0  0  0  0  0
    3.0759    2.3894   22.4503 H   0  0  0  0  0  0  0  0  0  0  0  0
    1.8797    3.2617   20.4483 H   0  0  0  0  0  0  0  0  0  0  0  0
    2.6570    2.6376   18.1825 H   0  0  0  0  0  0  0  0  0  0  0  0
    4.2248    1.3829   16.7165 H   0  0  0  0  0  0  0  0  0  0  0  0
    7.2888   -0.8742   18.2564 H   0  0  0  0  0  0  0  0  0  0  0  0
    7.7204    0.4280   21.6018 C   0  0  0  0  0  0  0  0  0  0  0  0
    7.8689    1.6123   21.3794 O   0  0  0  0  0  0  0  0  0  0  0  0
    8.4392   -0.4150   22.6840 C   0  0  1  0  0  0  0  0  0  0  0  0
    8.2465    0.1769   24.1030 C   0  0  0  0  0  0  0  0  0  0  0  0
    8.9583    1.4238   24.3048 N   0  0  0  0  0  0  0  0  0  0  0  0
    8.2788    2.5733   24.9068 C   0  0  0  0  0  0  0  0  0  0  0  0
    7.7567    3.5798   23.9044 C   0  0  0  0  0  0  0  0  0  0  0  0
    8.4793    4.5966   23.2440 C   0  0  0  0  0  0  0  0  0  0  0  0
    7.7376    5.2178   22.3330 N   0  0  0  0  0  0  0  0  0  0  0  0
    6.5450    4.6249   22.3942 N   0  0  0  0  0  0  0  0  0  0  0  0
    5.4942    4.9483   21.4553 C   0  0  0  0  0  0  0  0  0  0  0  0
    5.4704    4.2357   20.6177 H   0  0  0  0  0  0  0  0  0  0  0  0
    5.6663    5.9660   21.0949 H   0  0  0  0  0  0  0  0  0  0  0  0
    4.5466    4.8815   21.9954 H   0  0  0  0  0  0  0  0  0  0  0  0
    6.5013    3.6547   23.3340 C   0  0  0  0  0  0  0  0  0  0  0  0
    5.5956    3.0674   23.4463 H   0  0  0  0  0  0  0  0  0  0  0  0
    9.5214    4.8711   23.3652 H   0  0  0  0  0  0  0  0  0  0  0  0
    8.9915    3.0385   25.5969 H   0  0  0  0  0  0  0  0  0  0  0  0
    7.4501    2.1839   25.5073 H   0  0  0  0  0  0  0  0  0  0  0  0
   10.2620    1.5763   23.9269 C   0  0  0  0  0  0  0  0  0  0  0  0
   10.9421    2.5199   24.3153 O   0  0  0  0  0  0  0  0  0  0  0  0
   10.7794    0.5395   22.9770 C   0  0  0  0  0  0  0  0  0  0  0  0
   12.1336    0.5861   22.6504 C   0  0  0  0  0  0  0  0  0  0  0  0
   12.6662   -0.3022   21.7426 C   0  0  0  0  0  0  0  0  0  0  0  0
   11.8176   -1.2259   21.1497 C   0  0  0  0  0  0  0  0  0  0  0  0
   12.3417   -2.0635   20.2408 F   0  0  0  0  0  0  0  0  0  0  0  0
   10.4654   -1.2751   21.4225 C   0  0  0  0  0  0  0  0  0  0  0  0
    9.9338   -0.4092   22.3866 C   0  0  0  0  0  0  0  0  0  0  0  0
    9.8481   -1.9542   20.8412 H   0  0  0  0  0  0  0  0  0  0  0  0
   13.7029   -0.2661   21.4321 H   0  0  0  0  0  0  0  0  0  0  0  0
   12.7564    1.3372   23.1170 H   0  0  0  0  0  0  0  0  0  0  0  0
    7.1900    0.3873   24.2583 H   0  0  0  0  0  0  0  0  0  0  0  0
    8.5747   -0.5723   24.8431 H   0  0  0  0  0  0  0  0  0  0  0  0
    7.6204   -2.2967   20.3815 H   0  0  0  0  0  0  0  0  0  0  0  0
    6.0514   -2.2685   21.2113 H   0  0  0  0  0  0  0  0  0  0  0  0
    8.5662   -2.5870   22.5048 H   0  0  0  0  0  0  0  0  0  0  0  0
    7.3033   -2.3284   24.6180 H   0  0  0  0  0  0  0  0  0  0  0  0
    6.3862   -3.2506   23.4247 H   0  0  0  0  0  0  0  0  0  0  0  0
    5.9601   -1.5620   23.7498 H   0  0  0  0  0  0  0  0  0  0  0  0
  1  2  1  0
  2  3  1  0
  3  4  1  0
  4  5  1  0
  5  6  2  0
  6  7  1  0
  7  8  2  0
  8  9  1  0
  9 10  2  0
 10 11  1  0
 11 12  2  0
 12 13  1  0
 13 14  2  0
 13 15  1  0
 12 16  1  0
 11 17  1  0
 10 18  1  0
  8 19  1  0
  6 20  1  0
  4 21  1  0
 21 22  2  0
 21 23  1  0
 23 24  1  1
 24 25  1  0
 25 26  1  0
 26 27  1  0
 27 28  1  0
 28 29  2  0
 29 30  1  0
 30 31  1  0
 31 32  1  0
 31 33  1  0
 31 34  1  0
 30 35  1  0
 35 36  1  0
 28 37  1  0
 26 38  1  0
 26 39  1  0
 25 40  1  0
 40 41  2  0
 40 42  1  0
 42 43  2  0
 43 44  1  0
 44 45  2  0
 45 46  1  0
 45 47  1  0
 47 48  2  0
 47 49  1  0
 44 50  1  0
 43 51  1  0
 24 52  1  0
 24 53  1  0
  3 54  1  0
  3 55  1  0
  2 56  1  6
  1 57  1  0
  1 58  1  0
  1 59  1  0
 23  2  1  0
 35 27  2  0
 48 42  1  0
 14  5  1  0
 48 23  1  0
 14  9  1  0
M  END
>  <cnnaffinities>  (22) 
[6.64333, 6.445]

>  <score>  (22) 
6.64333

>  <index>  (22) 
21

>  <Smiles>  (22) 
C([C@]1(C(N(c2c(nc(c3c(c(c(c(c23)[H])[H])[H])[H])[H])[H])C(=O)[C@]21C(N(C(c1c(nn(C([H])([H])[H])c1[H])[H])([H])[H])C(=O)c1c(c(c(F)c(c21)[H])[H])[H])([H])[H])([H])[H])[H])([H])([H])[H]

>  <h>  (22) 
<NA>

>  <Training>  (22) 
True

>  <Success>  (22) 
True

>  <enamine_searched>  (22) 
False

>  <enamine_id>  (22) 
nan

$$$$

     RDKit          3D

 41 44  0  0  0  0  0  0  0  0999 V2000
    7.9487    1.7428   21.0993 O   0  0  0  0  0  0  0  0  0  0  0  0
    8.0366    0.5590   21.3806 C   0  0  0  0  0  0  0  0  0  0  0  0
    6.9901   -0.4498   20.9039 C   0  0  0  0  0  0  0  0  0  0  0  0
    6.1409    0.0869   19.7866 C   0  0  0  0  0  0  0  0  0  0  0  0
    6.4545   -0.2140   18.4867 C   0  0  0  0  0  0  0  0  0  0  0  0
    5.7865    0.2291   17.3930 N   0  0  0  0  0  0  0  0  0  0  0  0
    4.7589    1.0148   17.5993 C   0  0  0  0  0  0  0  0  0  0  0  0
    4.3150    1.4117   18.8876 C   0  0  0  0  0  0  0  0  0  0  0  0
    3.1890    2.2554   19.0555 C   0  0  0  0  0  0  0  0  0  0  0  0
    2.7819    2.6287   20.3073 C   0  0  0  0  0  0  0  0  0  0  0  0
    3.4831    2.1669   21.4424 C   0  0  0  0  0  0  0  0  0  0  0  0
    4.5797    1.3500   21.3056 C   0  0  0  0  0  0  0  0  0  0  0  0
    5.0259    0.9472   20.0182 C   0  0  0  0  0  0  0  0  0  0  0  0
    5.1205    1.0208   22.1869 H   0  0  0  0  0  0  0  0  0  0  0  0
    3.1510    2.4662   22.4324 H   0  0  0  0  0  0  0  0  0  0  0  0
    1.9272    3.2880   20.4331 H   0  0  0  0  0  0  0  0  0  0  0  0
    2.6729    2.6122   18.1679 H   0  0  0  0  0  0  0  0  0  0  0  0
    4.2170    1.3810   16.7258 H   0  0  0  0  0  0  0  0  0  0  0  0
    7.2970   -0.8697   18.2639 H   0  0  0  0  0  0  0  0  0  0  0  0
    6.3774   -0.7554   21.7632 H   0  0  0  0  0  0  0  0  0  0  0  0
    7.5225   -1.3464   20.5642 H   0  0  0  0  0  0  0  0  0  0  0  0
    9.0757    0.0718   22.1252 N   0  0  0  0  0  0  0  0  0  0  0  0
    9.1846   -1.3163   22.5830 C   0  0  0  0  0  0  0  0  0  0  0  0
   10.1158   -1.4047   23.7868 C   0  0  0  0  0  0  0  0  0  0  0  0
   11.4516   -0.8371   23.4149 C   0  0  0  0  0  0  0  0  0  0  0  0
   12.6660   -1.4246   23.7350 C   0  0  0  0  0  0  0  0  0  0  0  0
   12.6974   -3.0334   24.4150 Cl  0  0  0  0  0  0  0  0  0  0  0  0
   13.8589   -0.7543   23.5109 C   0  0  0  0  0  0  0  0  0  0  0  0
   13.8566    0.4340   22.7886 C   0  0  0  0  0  0  0  0  0  0  0  0
   12.6494    0.9831   22.3723 C   0  0  0  0  0  0  0  0  0  0  0  0
   11.4461    0.3821   22.7341 C   0  0  0  0  0  0  0  0  0  0  0  0
   10.1106    1.0362   22.4992 C   0  0  0  0  0  0  0  0  0  0  0  0
    9.7969    1.5658   23.4148 H   0  0  0  0  0  0  0  0  0  0  0  0
   10.1906    1.7927   21.7211 H   0  0  0  0  0  0  0  0  0  0  0  0
   12.6680    1.8822   21.7615 H   0  0  0  0  0  0  0  0  0  0  0  0
   14.7924    0.9293   22.5402 H   0  0  0  0  0  0  0  0  0  0  0  0
   14.7390   -1.1855   23.9538 H   0  0  0  0  0  0  0  0  0  0  0  0
   10.2194   -2.4307   24.1331 H   0  0  0  0  0  0  0  0  0  0  0  0
    9.6921   -0.8461   24.6313 H   0  0  0  0  0  0  0  0  0  0  0  0
    9.5916   -1.9483   21.7803 H   0  0  0  0  0  0  0  0  0  0  0  0
    8.2007   -1.7158   22.8606 H   0  0  0  0  0  0  0  0  0  0  0  0
  1  2  2  0
  2  3  1  0
  3  4  1  0
  4  5  2  0
  5  6  1  0
  6  7  2  0
  7  8  1  0
  8  9  2  0
  9 10  1  0
 10 11  2  0
 11 12  1  0
 12 13  2  0
 12 14  1  0
 11 15  1  0
 10 16  1  0
  9 17  1  0
  7 18  1  0
  5 19  1  0
  3 20  1  0
  3 21  1  0
  2 22  1  0
 22 23  1  0
 23 24  1  0
 24 25  1  0
 25 26  2  0
 26 27  1  0
 26 28  1  0
 28 29  2  0
 29 30  1  0
 30 31  2  0
 31 32  1  0
 32 33  1  0
 32 34  1  0
 30 35  1  0
 29 36  1  0
 28 37  1  0
 24 38  1  0
 24 39  1  0
 23 40  1  0
 23 41  1  0
 13  4  1  0
 32 22  1  0
 13  8  1  0
 31 25  1  0
M  END
>  <cnnaffinities>  (23) 
[5.94047, 5.71047]

>  <score>  (23) 
5.94047

>  <index>  (23) 
22

>  <Smiles>  (23) 
O=C(C(c1c(nc(c2c(c(c(c(c12)[H])[H])[H])[H])[H])[H])([H])[H])N1C(C(c2c(Cl)c(c(c(c2C1([H])[H])[H])[H])[H])([H])[H])([H])[H]

>  <h>  (23) 
<NA>

>  <Training>  (23) 
True

>  <Success>  (23) 
True

>  <enamine_searched>  (23) 
False

>  <enamine_id>  (23) 
nan

$$$$

     RDKit          3D

 69 74  0  0  0  0  0  0  0  0999 V2000
    7.8953    7.7329   22.5302 C   0  0  0  0  0  0  0  0  0  0  0  0
    7.7610    6.4145   21.7849 C   0  0  1  0  0  0  0  0  0  0  0  0
    8.6608    5.2842   22.3326 C   0  0  0  0  0  0  0  0  0  0  0  0
    8.0523    3.8962   22.1796 N   0  0  1  0  0  4  0  0  0  0  0  0
    7.4079    3.4400   23.4522 C   0  0  0  0  0  0  0  0  0  0  0  0
    8.4473    2.8417   24.3926 C   0  0  0  0  0  0  0  0  0  0  0  0
    9.0895    1.6790   23.7960 N   0  0  0  0  0  0  0  0  0  0  0  0
    8.3257    0.4455   23.7585 C   0  0  0  0  0  0  0  0  0  0  0  0
    8.6243   -0.3747   22.4917 C   0  0  2  0  0  0  0  0  0  0  0  0
    8.0805    0.3426   21.2386 C   0  0  0  0  0  0  0  0  0  0  0  0
    8.5254    1.3578   20.7308 O   0  0  0  0  0  0  0  0  0  0  0  0
    6.9714   -0.3408   20.8105 N   0  0  0  0  0  0  0  0  0  0  0  0
    6.1691    0.1415   19.7496 C   0  0  0  0  0  0  0  0  0  0  0  0
    6.5008   -0.1593   18.4537 C   0  0  0  0  0  0  0  0  0  0  0  0
    5.7981    0.2616   17.3774 N   0  0  0  0  0  0  0  0  0  0  0  0
    4.7545    1.0250   17.5895 C   0  0  0  0  0  0  0  0  0  0  0  0
    4.3016    1.4091   18.8871 C   0  0  0  0  0  0  0  0  0  0  0  0
    3.1870    2.2697   19.0781 C   0  0  0  0  0  0  0  0  0  0  0  0
    2.7946    2.6364   20.3389 C   0  0  0  0  0  0  0  0  0  0  0  0
    3.4827    2.1520   21.4703 C   0  0  0  0  0  0  0  0  0  0  0  0
    4.5577    1.3038   21.3148 C   0  0  0  0  0  0  0  0  0  0  0  0
    5.0105    0.9301   20.0140 C   0  0  0  0  0  0  0  0  0  0  0  0
    5.0918    0.9589   22.1950 H   0  0  0  0  0  0  0  0  0  0  0  0
    3.1630    2.4475   22.4659 H   0  0  0  0  0  0  0  0  0  0  0  0
    1.9504    3.3083   20.4752 H   0  0  0  0  0  0  0  0  0  0  0  0
    2.6679    2.6401   18.1995 H   0  0  0  0  0  0  0  0  0  0  0  0
    4.1951    1.3722   16.7169 H   0  0  0  0  0  0  0  0  0  0  0  0
    7.3732   -0.7752   18.2478 H   0  0  0  0  0  0  0  0  0  0  0  0
    6.5748   -1.4254   21.6850 C   0  0  0  0  0  0  0  0  0  0  0  0
    7.8565   -1.7226   22.4605 C   0  0  2  0  0  0  0  0  0  0  0  0
    7.6533   -2.4367   23.7887 C   0  0  0  0  0  0  0  0  0  0  0  0
    7.0255   -1.8512   24.4695 H   0  0  0  0  0  0  0  0  0  0  0  0
    8.6115   -2.6243   24.2864 H   0  0  0  0  0  0  0  0  0  0  0  0
    7.1696   -3.4039   23.6245 H   0  0  0  0  0  0  0  0  0  0  0  0
    8.4401   -2.3859   21.8238 H   0  0  0  0  0  0  0  0  0  0  0  0
    5.7578   -1.1444   22.3633 H   0  0  0  0  0  0  0  0  0  0  0  0
    6.2391   -2.2809   21.0969 H   0  0  0  0  0  0  0  0  0  0  0  0
   10.1185   -0.5143   22.3719 C   0  0  0  0  0  0  0  0  0  0  0  0
   10.6314   -1.4748   21.4954 C   0  0  0  0  0  0  0  0  0  0  0  0
   11.9867   -1.5593   21.2741 C   0  0  0  0  0  0  0  0  0  0  0  0
   12.5540   -2.6050   20.0086 Cl  0  0  0  0  0  0  0  0  0  0  0  0
   12.8567   -0.7046   21.9462 C   0  0  0  0  0  0  0  0  0  0  0  0
   12.3586    0.2900   22.7611 C   0  0  0  0  0  0  0  0  0  0  0  0
   10.9828    0.4205   22.9465 C   0  0  0  0  0  0  0  0  0  0  0  0
   10.4537    1.6394   23.6512 C   0  0  0  0  0  0  0  0  0  0  0  0
   11.1976    2.5390   24.0186 O   0  0  0  0  0  0  0  0  0  0  0  0
   13.0375    1.0005   23.2179 H   0  0  0  0  0  0  0  0  0  0  0  0
   13.9198   -0.7785   21.8121 H   0  0  0  0  0  0  0  0  0  0  0  0
    9.9739   -2.1064   20.9128 H   0  0  0  0  0  0  0  0  0  0  0  0
    8.5652   -0.1808   24.6298 H   0  0  0  0  0  0  0  0  0  0  0  0
    7.2650    0.6957   23.8031 H   0  0  0  0  0  0  0  0  0  0  0  0
    9.2370    3.5632   24.6048 H   0  0  0  0  0  0  0  0  0  0  0  0
    7.9726    2.5595   25.3396 H   0  0  0  0  0  0  0  0  0  0  0  0
    6.8892    4.2819   23.9103 H   0  0  0  0  0  0  0  0  0  0  0  0
    6.6401    2.7020   23.1898 H   0  0  0  0  0  0  0  0  0  0  0  0
    7.1087    3.8163   21.0300 C   0  0  0  0  0  0  0  0  0  0  0  0
    6.1441    5.0119   20.9266 C   0  0  0  0  0  0  0  0  0  0  0  0
    6.4035    6.0199   21.8726 O   0  0  0  0  0  0  0  0  0  0  0  0
    6.2254    5.4499   19.9202 H   0  0  0  0  0  0  0  0  0  0  0  0
    5.1071    4.6968   21.0796 H   0  0  0  0  0  0  0  0  0  0  0  0
    6.5329    2.9020   21.1312 H   0  0  0  0  0  0  0  0  0  0  0  0
    7.7206    3.6961   20.1312 H   0  0  0  0  0  0  0  0  0  0  0  0
    8.7944    3.2168   21.9444 H   0  0  0  0  0  0  0  0  0  0  0  0
    8.8336    5.4527   23.3976 H   0  0  0  0  0  0  0  0  0  0  0  0
    9.6419    5.3079   21.8494 H   0  0  0  0  0  0  0  0  0  0  0  0
    8.0114    6.5884   20.7262 H   0  0  0  0  0  0  0  0  0  0  0  0
    7.5999    7.6171   23.5770 H   0  0  0  0  0  0  0  0  0  0  0  0
    7.2230    8.4692   22.0784 H   0  0  0  0  0  0  0  0  0  0  0  0
    8.9171    8.1274   22.4891 H   0  0  0  0  0  0  0  0  0  0  0  0
  1  2  1  0
  2  3  1  0
  3  4  1  0
  4  5  1  0
  5  6  1  0
  6  7  1  0
  7  8  1  0
  9  8  1  1
  9 10  1  0
 10 11  2  0
 10 12  1  0
 12 13  1  0
 13 14  2  0
 14 15  1  0
 15 16  2  0
 16 17  1  0
 17 18  2  0
 18 19  1  0
 19 20  2  0
 20 21  1  0
 21 22  2  0
 21 23  1  0
 20 24  1  0
 19 25  1  0
 18 26  1  0
 16 27  1  0
 14 28  1  0
 12 29  1  0
 29 30  1  0
 30 31  1  0
 31 32  1  0
 31 33  1  0
 31 34  1  0
 30 35  1  6
 29 36  1  0
 29 37  1  0
  9 38  1  0
 38 39  2  0
 39 40  1  0
 40 41  1  0
 40 42  2  0
 42 43  1  0
 43 44  2  0
 44 45  1  0
 45 46  2  0
 43 47  1  0
 42 48  1  0
 39 49  1  0
  8 50  1  0
  8 51  1  0
  6 52  1  0
  6 53  1  0
  5 54  1  0
  5 55  1  0
  4 56  1  0
 56 57  1  0
 57 58  1  0
 57 59  1  0
 57 60  1  0
 56 61  1  0
 56 62  1  0
  4 63  1  6
  3 64  1  0
  3 65  1  0
  2 66  1  6
  1 67  1  0
  1 68  1  0
  1 69  1  0
 58  2  1  0
 45  7  1  0
 30  9  1  0
 44 38  1  0
 22 13  1  0
 22 17  1  0
M  CHG  1   4   1
M  END
>  <cnnaffinities>  (24) 
[6.50208]

>  <score>  (24) 
6.50208

>  <index>  (24) 
23

>  <Smiles>  (24) 
C([C@]1(C([N@@+](C(C(N2C([C@@]3(C(=O)N(c4c(nc(c5c(c(c(c(c45)[H])[H])[H])[H])[H])[H])C([C@@]3(C([H])([H])[H])[H])([H])[H])c3c(c(Cl)c(c(c3C2=O)[H])[H])[H])([H])[H])([H])[H])([H])[H])(C(C(O1)([H])[H])([H])[H])[H])([H])[H])[H])([H])([H])[H]

>  <h>  (24) 
<NA>

>  <Training>  (24) 
True

>  <Success>  (24) 
True

>  <enamine_searched>  (24) 
False

>  <enamine_id>  (24) 
nan

$$$$

     RDKit          3D

 70 75  0  0  0  0  0  0  0  0999 V2000
    6.5314    4.5783   21.3491 C   0  0  0  0  0  0  0  0  0  0  0  0
    6.8499    3.6258   22.4200 N   0  0  0  0  0  4  0  0  0  0  0  0
    7.9338    4.0523   23.3369 C   0  0  0  0  0  0  0  0  0  0  0  0
    8.1354    3.0514   24.4782 C   0  0  0  0  0  0  0  0  0  0  0  0
    8.7568    1.8116   24.0382 N   0  0  0  0  0  0  0  0  0  0  0  0
    7.9683    0.5957   23.9537 C   0  0  0  0  0  0  0  0  0  0  0  0
    8.3516   -0.2460   22.7203 C   0  0  2  0  0  0  0  0  0  0  0  0
    7.7888    0.4394   21.4619 C   0  0  0  0  0  0  0  0  0  0  0  0
    7.9744    1.6025   21.1214 O   0  0  0  0  0  0  0  0  0  0  0  0
    6.9382   -0.4055   20.8159 N   0  0  0  0  0  0  0  0  0  0  0  0
    6.1382    0.1084   19.7593 C   0  0  0  0  0  0  0  0  0  0  0  0
    6.4679   -0.2025   18.4684 C   0  0  0  0  0  0  0  0  0  0  0  0
    5.7782    0.2307   17.3894 N   0  0  0  0  0  0  0  0  0  0  0  0
    4.7528    1.0123   17.6139 C   0  0  0  0  0  0  0  0  0  0  0  0
    4.3188    1.4248   18.9056 C   0  0  0  0  0  0  0  0  0  0  0  0
    3.2020    2.2819   19.0806 C   0  0  0  0  0  0  0  0  0  0  0  0
    2.8047    2.6651   20.3307 C   0  0  0  0  0  0  0  0  0  0  0  0
    3.5010    2.2031   21.4682 C   0  0  0  0  0  0  0  0  0  0  0  0
    4.5878    1.3723   21.3281 C   0  0  0  0  0  0  0  0  0  0  0  0
    5.0324    0.9628   20.0339 C   0  0  0  0  0  0  0  0  0  0  0  0
    5.0911    1.0098   22.2230 H   0  0  0  0  0  0  0  0  0  0  0  0
    3.1705    2.5069   22.4583 H   0  0  0  0  0  0  0  0  0  0  0  0
    1.9501    3.3231   20.4512 H   0  0  0  0  0  0  0  0  0  0  0  0
    2.6865    2.6274   18.1887 H   0  0  0  0  0  0  0  0  0  0  0  0
    4.2038    1.3663   16.7415 H   0  0  0  0  0  0  0  0  0  0  0  0
    7.3349   -0.8304   18.2753 H   0  0  0  0  0  0  0  0  0  0  0  0
    6.5108   -1.5191   21.6471 C   0  0  0  0  0  0  0  0  0  0  0  0
    7.6412   -1.6357   22.6732 C   0  0  2  0  0  0  0  0  0  0  0  0
    7.1836   -2.2590   23.9847 C   0  0  0  0  0  0  0  0  0  0  0  0
    6.0828   -1.5487   24.5175 O   0  0  0  0  0  0  0  0  0  0  0  0
    5.6913   -2.0016   25.7962 C   0  0  0  0  0  0  0  0  0  0  0  0
    4.5959   -1.0844   26.3038 C   0  0  0  0  0  0  0  0  0  0  0  0
    3.2570   -1.1976   25.5572 C   0  0  0  0  0  0  0  0  0  0  0  0
    2.6114   -1.7740   26.7008 O   0  0  0  0  0  0  0  0  0  0  0  0
    3.8021   -1.6421   27.4902 C   0  0  0  0  0  0  0  0  0  0  0  0
    3.6604   -0.9628   28.3401 H   0  0  0  0  0  0  0  0  0  0  0  0
    4.1552   -2.6136   27.8654 H   0  0  0  0  0  0  0  0  0  0  0  0
    2.7950   -0.2468   25.2627 H   0  0  0  0  0  0  0  0  0  0  0  0
    3.2598   -1.8845   24.7011 H   0  0  0  0  0  0  0  0  0  0  0  0
    4.9716   -0.0631   26.4139 H   0  0  0  0  0  0  0  0  0  0  0  0
    6.5499   -1.9961   26.4889 H   0  0  0  0  0  0  0  0  0  0  0  0
    5.3201   -3.0388   25.7354 H   0  0  0  0  0  0  0  0  0  0  0  0
    8.0175   -2.2621   24.7040 H   0  0  0  0  0  0  0  0  0  0  0  0
    6.9038   -3.3089   23.8035 H   0  0  0  0  0  0  0  0  0  0  0  0
    8.3710   -2.3392   22.2757 H   0  0  0  0  0  0  0  0  0  0  0  0
    5.5559   -1.3019   22.1407 H   0  0  0  0  0  0  0  0  0  0  0  0
    6.3958   -2.4276   21.0488 H   0  0  0  0  0  0  0  0  0  0  0  0
    9.8602   -0.3298   22.6159 C   0  0  0  0  0  0  0  0  0  0  0  0
   10.4360   -1.2782   21.7684 C   0  0  0  0  0  0  0  0  0  0  0  0
   11.8000   -1.2998   21.5879 C   0  0  0  0  0  0  0  0  0  0  0  0
   12.3985   -2.3630   20.3567 Cl  0  0  0  0  0  0  0  0  0  0  0  0
   12.6557   -0.4744   22.3244 C   0  0  0  0  0  0  0  0  0  0  0  0
   12.0897    0.4686   23.1613 C   0  0  0  0  0  0  0  0  0  0  0  0
   10.7023    0.5940   23.2416 C   0  0  0  0  0  0  0  0  0  0  0  0
   10.1234    1.7951   23.9236 C   0  0  0  0  0  0  0  0  0  0  0  0
   10.8281    2.7151   24.3243 O   0  0  0  0  0  0  0  0  0  0  0  0
   12.7115    1.1442   23.7328 H   0  0  0  0  0  0  0  0  0  0  0  0
   13.7268   -0.5673   22.2065 H   0  0  0  0  0  0  0  0  0  0  0  0
    9.8619   -2.0189   21.2262 H   0  0  0  0  0  0  0  0  0  0  0  0
    8.1047   -0.0124   24.8573 H   0  0  0  0  0  0  0  0  0  0  0  0
    6.9122    0.8597   23.8702 H   0  0  0  0  0  0  0  0  0  0  0  0
    8.7812    3.4827   25.2462 H   0  0  0  0  0  0  0  0  0  0  0  0
    7.1707    2.8016   24.9385 H   0  0  0  0  0  0  0  0  0  0  0  0
    8.8735    4.1380   22.7764 H   0  0  0  0  0  0  0  0  0  0  0  0
    7.7071    5.0398   23.7605 H   0  0  0  0  0  0  0  0  0  0  0  0
    5.9839    3.4445   22.9557 H   0  0  0  0  0  0  0  0  0  0  0  0
    7.1409    2.7353   21.9642 H   0  0  0  0  0  0  0  0  0  0  0  0
    6.3715    5.5866   21.7441 H   0  0  0  0  0  0  0  0  0  0  0  0
    7.3548    4.6267   20.6319 H   0  0  0  0  0  0  0  0  0  0  0  0
    5.6271    4.2436   20.8313 H   0  0  0  0  0  0  0  0  0  0  0  0
  1  2  1  0
  2  3  1  0
  3  4  1  0
  4  5  1  0
  5  6  1  0
  7  6  1  1
  7  8  1  0
  8  9  2  0
  8 10  1  0
 10 11  1  0
 11 12  2  0
 12 13  1  0
 13 14  2  0
 14 15  1  0
 15 16  2  0
 16 17  1  0
 17 18  2  0
 18 19  1  0
 19 20  2  0
 19 21  1  0
 18 22  1  0
 17 23  1  0
 16 24  1  0
 14 25  1  0
 12 26  1  0
 10 27  1  0
 27 28  1  0
 28 29  1  0
 29 30  1  0
 30 31  1  0
 31 32  1  0
 32 33  1  0
 33 34  1  0
 34 35  1  0
 35 36  1  0
 35 37  1  0
 33 38  1  0
 33 39  1  0
 32 40  1  0
 31 41  1  0
 31 42  1  0
 29 43  1  0
 29 44  1  0
 28 45  1  6
 27 46  1  0
 27 47  1  0
  7 48  1  0
 48 49  2  0
 49 50  1  0
 50 51  1  0
 50 52  2  0
 52 53  1  0
 53 54  2  0
 54 55  1  0
 55 56  2  0
 53 57  1  0
 52 58  1  0
 49 59  1  0
  6 60  1  0
  6 61  1  0
  4 62  1  0
  4 63  1  0
  3 64  1  0
  3 65  1  0
  2 66  1  0
  2 67  1  0
  1 68  1  0
  1 69  1  0
  1 70  1  0
 55  5  1  0
 28  7  1  0
 35 32  1  0
 54 48  1  0
 20 11  1  0
 20 15  1  0
M  CHG  1   2   1
M  END
>  <cnnaffinities>  (25) 
[6.09991]

>  <score>  (25) 
6.09991

>  <index>  (25) 
24

>  <Smiles>  (25) 
C([N+](C(C(N1C([C@@]2(C(=O)N(c3c(nc(c4c(c(c(c(c34)[H])[H])[H])[H])[H])[H])C([C@@]2(C(OC(C2(C(OC2([H])[H])([H])[H])[H])([H])[H])([H])[H])[H])([H])[H])c2c(c(Cl)c(c(c2C1=O)[H])[H])[H])([H])[H])([H])[H])([H])[H])([H])[H])([H])([H])[H]

>  <h>  (25) 
<NA>

>  <Training>  (25) 
True

>  <Success>  (25) 
True

>  <enamine_searched>  (25) 
False

>  <enamine_id>  (25) 
nan

$$$$

     RDKit          3D

 68 73  0  0  0  0  0  0  0  0999 V2000
    6.5851    4.3316   21.3918 C   0  0  0  0  0  0  0  0  0  0  0  0
    7.6266    3.9474   22.3340 N   0  0  0  0  0  0  0  0  0  0  0  0
    7.2160    3.2714   23.4505 C   0  0  0  0  0  0  0  0  0  0  0  0
    6.0304    3.0528   23.6675 O   0  0  0  0  0  0  0  0  0  0  0  0
    8.2935    2.7845   24.4288 C   0  0  0  0  0  0  0  0  0  0  0  0
    8.9107    1.5680   23.9388 N   0  0  0  0  0  0  0  0  0  0  0  0
    8.0738    0.3764   23.8427 C   0  0  0  0  0  0  0  0  0  0  0  0
    8.4526   -0.4689   22.6077 C   0  0  2  0  0  0  0  0  0  0  0  0
    7.9923    0.2345   21.3100 C   0  0  0  0  0  0  0  0  0  0  0  0
    8.4902    1.2071   20.7735 O   0  0  0  0  0  0  0  0  0  0  0  0
    6.8910   -0.4311   20.8347 N   0  0  0  0  0  0  0  0  0  0  0  0
    6.1316    0.0944   19.7702 C   0  0  0  0  0  0  0  0  0  0  0  0
    6.4801   -0.2027   18.4787 C   0  0  0  0  0  0  0  0  0  0  0  0
    5.8009    0.2324   17.3946 N   0  0  0  0  0  0  0  0  0  0  0  0
    4.7591    0.9977   17.6081 C   0  0  0  0  0  0  0  0  0  0  0  0
    4.3004    1.3901   18.8995 C   0  0  0  0  0  0  0  0  0  0  0  0
    3.1827    2.2460   19.0754 C   0  0  0  0  0  0  0  0  0  0  0  0
    2.7849    2.6227   20.3286 C   0  0  0  0  0  0  0  0  0  0  0  0
    3.4855    2.1660   21.4682 C   0  0  0  0  0  0  0  0  0  0  0  0
    4.5712    1.3329   21.3259 C   0  0  0  0  0  0  0  0  0  0  0  0
    5.0024    0.9223   20.0311 C   0  0  0  0  0  0  0  0  0  0  0  0
    5.1313    1.0340   22.2072 H   0  0  0  0  0  0  0  0  0  0  0  0
    3.1852    2.4966   22.4574 H   0  0  0  0  0  0  0  0  0  0  0  0
    1.9361    3.2888   20.4502 H   0  0  0  0  0  0  0  0  0  0  0  0
    2.6754    2.6072   18.1857 H   0  0  0  0  0  0  0  0  0  0  0  0
    4.2204    1.3555   16.7321 H   0  0  0  0  0  0  0  0  0  0  0  0
    7.3509   -0.8272   18.2965 H   0  0  0  0  0  0  0  0  0  0  0  0
    6.4657   -1.5555   21.6346 C   0  0  0  0  0  0  0  0  0  0  0  0
    7.6796   -1.8222   22.5208 C   0  0  2  0  0  0  0  0  0  0  0  0
    7.2788   -2.5073   23.8175 C   0  0  0  0  0  0  0  0  0  0  0  0
    8.4496   -2.9609   24.5155 N   0  0  0  0  0  0  0  0  0  0  0  0
    8.3617   -3.4692   25.7992 C   0  0  0  0  0  0  0  0  0  0  0  0
    7.2305   -3.7660   26.6073 C   0  0  0  0  0  0  0  0  0  0  0  0
    7.5958   -4.2856   27.7773 N   0  0  0  0  0  0  0  0  0  0  0  0
    8.9324   -4.3182   27.7432 N   0  0  0  0  0  0  0  0  0  0  0  0
    9.6812   -4.8377   28.8597 C   0  0  0  0  0  0  0  0  0  0  0  0
    9.1933   -4.5199   29.7774 H   0  0  0  0  0  0  0  0  0  0  0  0
    9.7205   -5.9316   28.8332 H   0  0  0  0  0  0  0  0  0  0  0  0
   10.6989   -4.4389   28.8459 H   0  0  0  0  0  0  0  0  0  0  0  0
    9.4388   -3.8463   26.5769 C   0  0  0  0  0  0  0  0  0  0  0  0
   10.5051   -3.7618   26.3949 H   0  0  0  0  0  0  0  0  0  0  0  0
    6.1702   -3.6419   26.3974 H   0  0  0  0  0  0  0  0  0  0  0  0
    9.3541   -2.5795   24.2582 H   0  0  0  0  0  0  0  0  0  0  0  0
    6.6461   -3.3765   23.5882 H   0  0  0  0  0  0  0  0  0  0  0  0
    6.6616   -1.8239   24.4308 H   0  0  0  0  0  0  0  0  0  0  0  0
    8.3309   -2.5219   21.9870 H   0  0  0  0  0  0  0  0  0  0  0  0
    5.5724   -1.3125   22.2314 H   0  0  0  0  0  0  0  0  0  0  0  0
    6.2199   -2.4201   21.0067 H   0  0  0  0  0  0  0  0  0  0  0  0
    9.9538   -0.5936   22.5315 C   0  0  0  0  0  0  0  0  0  0  0  0
   10.5032   -1.4815   21.5993 C   0  0  0  0  0  0  0  0  0  0  0  0
   11.8682   -1.5347   21.4198 C   0  0  0  0  0  0  0  0  0  0  0  0
   12.4587   -2.5352   20.1332 Cl  0  0  0  0  0  0  0  0  0  0  0  0
   12.7421   -0.7544   22.1801 C   0  0  0  0  0  0  0  0  0  0  0  0
   12.1990    0.1434   23.0828 C   0  0  0  0  0  0  0  0  0  0  0  0
   10.8155    0.2819   23.2048 C   0  0  0  0  0  0  0  0  0  0  0  0
   10.2796    1.4801   23.9281 C   0  0  0  0  0  0  0  0  0  0  0  0
   11.0054    2.3366   24.4173 O   0  0  0  0  0  0  0  0  0  0  0  0
   12.8284    0.7851   23.6915 H   0  0  0  0  0  0  0  0  0  0  0  0
   13.8149   -0.8141   22.0236 H   0  0  0  0  0  0  0  0  0  0  0  0
    9.8984   -2.1116   20.9533 H   0  0  0  0  0  0  0  0  0  0  0  0
    8.1770   -0.2257   24.7577 H   0  0  0  0  0  0  0  0  0  0  0  0
    7.0285    0.6927   23.7674 H   0  0  0  0  0  0  0  0  0  0  0  0
    9.0966    3.5144   24.5824 H   0  0  0  0  0  0  0  0  0  0  0  0
    7.7974    2.6165   25.3953 H   0  0  0  0  0  0  0  0  0  0  0  0
    8.5185    3.7061   21.9164 H   0  0  0  0  0  0  0  0  0  0  0  0
    6.1289    3.4443   20.9323 H   0  0  0  0  0  0  0  0  0  0  0  0
    7.0056    4.9741   20.6167 H   0  0  0  0  0  0  0  0  0  0  0  0
    5.8081    4.8932   21.9164 H   0  0  0  0  0  0  0  0  0  0  0  0
  1  2  1  0
  2  3  1  0
  3  4  2  0
  3  5  1  0
  5  6  1  0
  6  7  1  0
  8  7  1  1
  8  9  1  0
  9 10  2  0
  9 11  1  0
 11 12  1  0
 12 13  2  0
 13 14  1  0
 14 15  2  0
 15 16  1  0
 16 17  2  0
 17 18  1  0
 18 19  2  0
 19 20  1  0
 20 21  2  0
 20 22  1  0
 19 23  1  0
 18 24  1  0
 17 25  1  0
 15 26  1  0
 13 27  1  0
 11 28  1  0
 28 29  1  0
 29 30  1  0
 30 31  1  0
 31 32  1  0
 32 33  1  0
 33 34  2  0
 34 35  1  0
 35 36  1  0
 36 37  1  0
 36 38  1  0
 36 39  1  0
 35 40  1  0
 40 41  1  0
 33 42  1  0
 31 43  1  0
 30 44  1  0
 30 45  1  0
 29 46  1  6
 28 47  1  0
 28 48  1  0
  8 49  1  0
 49 50  2  0
 50 51  1  0
 51 52  1  0
 51 53  2  0
 53 54  1  0
 54 55  2  0
 55 56  1  0
 56 57  2  0
 54 58  1  0
 53 59  1  0
 50 60  1  0
  7 61  1  0
  7 62  1  0
  5 63  1  0
  5 64  1  0
  2 65  1  0
  1 66  1  0
  1 67  1  0
  1 68  1  0
 56  6  1  0
 29  8  1  0
 40 32  2  0
 55 49  1  0
 21 12  1  0
 21 16  1  0
M  END
>  <cnnaffinities>  (26) 
[6.35199]

>  <score>  (26) 
6.35199

>  <index>  (26) 
25

>  <Smiles>  (26) 
C(N(C(=O)C(N1C([C@@]2(C(=O)N(c3c(nc(c4c(c(c(c(c34)[H])[H])[H])[H])[H])[H])C([C@@]2(C(N(c2c(nn(C([H])([H])[H])c2[H])[H])[H])([H])[H])[H])([H])[H])c2c(c(Cl)c(c(c2C1=O)[H])[H])[H])([H])[H])([H])[H])[H])([H])([H])[H]

>  <h>  (26) 
<NA>

>  <Training>  (26) 
True

>  <Success>  (26) 
True

>  <enamine_searched>  (26) 
False

>  <enamine_id>  (26) 
nan

$$$$

     RDKit          3D

 43 47  0  0  0  0  0  0  0  0999 V2000
    6.3372   -2.5755   20.7969 O   0  0  0  0  0  0  0  0  0  0  0  0
    7.0968   -1.6983   21.1290 C   0  0  0  0  0  0  0  0  0  0  0  0
    8.2797   -1.8037   21.8194 N   0  0  0  0  0  0  0  0  0  0  0  0
    8.7216   -0.5332   22.3643 C   0  0  1  0  0  0  0  0  0  0  0  0
    8.7479   -0.3671   23.9052 C   0  0  0  0  0  0  0  0  0  0  0  0
   10.2607    0.0005   23.8595 C   0  0  2  0  0  0  0  0  0  0  0  0
   10.6248    1.3935   24.3588 C   0  0  0  0  0  0  0  0  0  0  0  0
    9.8592    2.0632   25.3209 C   0  0  0  0  0  0  0  0  0  0  0  0
   10.1111    3.3832   25.6793 C   0  0  0  0  0  0  0  0  0  0  0  0
   11.0996    4.1097   25.0255 C   0  0  0  0  0  0  0  0  0  0  0  0
   11.9140    3.4656   24.1057 C   0  0  0  0  0  0  0  0  0  0  0  0
   11.7118    2.1128   23.8427 C   0  0  0  0  0  0  0  0  0  0  0  0
   12.8575    1.3144   22.7950 Cl  0  0  0  0  0  0  0  0  0  0  0  0
   12.7224    3.9779   23.5963 H   0  0  0  0  0  0  0  0  0  0  0  0
   11.2348    5.1744   25.1933 H   0  0  0  0  0  0  0  0  0  0  0  0
    9.4697    3.8849   26.3936 H   0  0  0  0  0  0  0  0  0  0  0  0
    9.0217    1.5521   25.7868 H   0  0  0  0  0  0  0  0  0  0  0  0
   10.2120   -0.1673   22.3139 C   0  0  0  0  0  0  0  0  0  0  0  0
   10.3600    0.7639   21.7714 H   0  0  0  0  0  0  0  0  0  0  0  0
   10.8608   -0.9478   21.9121 H   0  0  0  0  0  0  0  0  0  0  0  0
   10.8795   -0.7907   24.2999 H   0  0  0  0  0  0  0  0  0  0  0  0
    8.4937   -1.2844   24.4479 H   0  0  0  0  0  0  0  0  0  0  0  0
    8.0868    0.4414   24.2188 H   0  0  0  0  0  0  0  0  0  0  0  0
    7.8215    0.4468   21.6114 C   0  0  0  0  0  0  0  0  0  0  0  0
    7.8477    1.6511   21.6318 O   0  0  0  0  0  0  0  0  0  0  0  0
    6.9175   -0.3281   20.8773 N   0  0  0  0  0  0  0  0  0  0  0  0
    6.1229    0.1572   19.7978 C   0  0  0  0  0  0  0  0  0  0  0  0
    6.4484   -0.1786   18.5067 C   0  0  0  0  0  0  0  0  0  0  0  0
    5.7753    0.2608   17.4159 N   0  0  0  0  0  0  0  0  0  0  0  0
    4.7447    1.0434   17.6096 C   0  0  0  0  0  0  0  0  0  0  0  0
    4.2843    1.4486   18.8946 C   0  0  0  0  0  0  0  0  0  0  0  0
    3.1471    2.2804   19.0613 C   0  0  0  0  0  0  0  0  0  0  0  0
    2.7148    2.6150   20.3132 C   0  0  0  0  0  0  0  0  0  0  0  0
    3.3935    2.1358   21.4540 C   0  0  0  0  0  0  0  0  0  0  0  0
    4.5056    1.3425   21.3211 C   0  0  0  0  0  0  0  0  0  0  0  0
    4.9828    0.9877   20.0308 C   0  0  0  0  0  0  0  0  0  0  0  0
    5.0275    0.9727   22.1979 H   0  0  0  0  0  0  0  0  0  0  0  0
    3.0292    2.3915   22.4427 H   0  0  0  0  0  0  0  0  0  0  0  0
    1.8448    3.2528   20.4371 H   0  0  0  0  0  0  0  0  0  0  0  0
    2.6416    2.6407   18.1709 H   0  0  0  0  0  0  0  0  0  0  0  0
    4.2042    1.3799   16.7247 H   0  0  0  0  0  0  0  0  0  0  0  0
    7.3021   -0.8239   18.3069 H   0  0  0  0  0  0  0  0  0  0  0  0
    8.5255   -2.6937   22.2263 H   0  0  0  0  0  0  0  0  0  0  0  0
  1  2  2  0
  2  3  1  0
  4  3  1  1
  4  5  1  0
  5  6  1  0
  6  7  1  0
  7  8  2  0
  8  9  1  0
  9 10  2  0
 10 11  1  0
 11 12  2  0
 12 13  1  0
 11 14  1  0
 10 15  1  0
  9 16  1  0
  8 17  1  0
  6 18  1  0
 18 19  1  0
 18 20  1  0
  6 21  1  1
  5 22  1  0
  5 23  1  0
  4 24  1  0
 24 25  2  0
 24 26  1  0
 26 27  1  0
 27 28  2  0
 28 29  1  0
 29 30  2  0
 30 31  1  0
 31 32  2  0
 32 33  1  0
 33 34  2  0
 34 35  1  0
 35 36  2  0
 35 37  1  0
 34 38  1  0
 33 39  1  0
 32 40  1  0
 30 41  1  0
 28 42  1  0
  3 43  1  0
 26  2  1  0
 36 27  1  0
 18  4  1  0
 36 31  1  0
 12  7  1  0
M  END
>  <cnnaffinities>  (27) 
[5.95126]

>  <score>  (27) 
5.95126

>  <index>  (27) 
26

>  <Smiles>  (27) 
O=C1N([C@]2(C([C@](c3c(c(c(c(c3Cl)[H])[H])[H])[H])(C2([H])[H])[H])([H])[H])C(=O)N1c1c(nc(c2c(c(c(c(c12)[H])[H])[H])[H])[H])[H])[H]

>  <h>  (27) 
<NA>

>  <Training>  (27) 
True

>  <Success>  (27) 
True

>  <enamine_searched>  (27) 
False

>  <enamine_id>  (27) 
nan

$$$$

     RDKit          3D

 46 48  0  0  0  0  0  0  0  0999 V2000
    6.8365    3.9208   21.4038 C   0  0  0  0  0  0  0  0  0  0  0  0
    7.1970    3.3934   22.7921 C   0  0  0  0  0  0  0  0  0  0  0  0
    8.4686    2.5064   22.7925 C   0  0  1  0  0  0  0  0  0  0  0  0
    9.3508    2.7113   24.0230 C   0  0  0  0  0  0  0  0  0  0  0  0
    8.9321    1.9514   25.2760 C   0  0  1  0  0  0  0  0  0  0  0  0
    7.8372    2.6019   26.0960 C   0  0  0  0  0  0  0  0  0  0  0  0
    7.7399    1.9966   27.2993 F   0  0  0  0  0  0  0  0  0  0  0  0
    6.6140    2.5363   25.5266 F   0  0  0  0  0  0  0  0  0  0  0  0
    8.1111    3.9032   26.3239 F   0  0  0  0  0  0  0  0  0  0  0  0
    8.6489    0.4942   24.9346 C   0  0  0  0  0  0  0  0  0  0  0  0
    7.6921    0.3291   23.7502 C   0  0  0  0  0  0  0  0  0  0  0  0
    8.1649    1.0833   22.6021 N   0  0  0  0  0  0  0  0  0  0  0  0
    8.0443    0.6531   21.2983 C   0  0  0  0  0  0  0  0  0  0  0  0
    8.7478    1.1169   20.4187 O   0  0  0  0  0  0  0  0  0  0  0  0
    6.9781   -0.3985   20.9189 C   0  0  0  0  0  0  0  0  0  0  0  0
    6.1155    0.0939   19.7762 C   0  0  0  0  0  0  0  0  0  0  0  0
    6.4297   -0.2102   18.4717 C   0  0  0  0  0  0  0  0  0  0  0  0
    5.7595    0.2381   17.3814 N   0  0  0  0  0  0  0  0  0  0  0  0
    4.7361    1.0272   17.5821 C   0  0  0  0  0  0  0  0  0  0  0  0
    4.2815    1.4212   18.8702 C   0  0  0  0  0  0  0  0  0  0  0  0
    3.1702    2.2819   19.0503 C   0  0  0  0  0  0  0  0  0  0  0  0
    2.7700    2.6599   20.3024 C   0  0  0  0  0  0  0  0  0  0  0  0
    3.4679    2.1865   21.4364 C   0  0  0  0  0  0  0  0  0  0  0  0
    4.5480    1.3466   21.2865 C   0  0  0  0  0  0  0  0  0  0  0  0
    4.9899    0.9394   20.0019 C   0  0  0  0  0  0  0  0  0  0  0  0
    5.0658    0.9917   22.1738 H   0  0  0  0  0  0  0  0  0  0  0  0
    3.1477    2.4828   22.4295 H   0  0  0  0  0  0  0  0  0  0  0  0
    1.9251    3.3294   20.4297 H   0  0  0  0  0  0  0  0  0  0  0  0
    2.6625    2.6500   18.1625 H   0  0  0  0  0  0  0  0  0  0  0  0
    4.2092    1.3921   16.6980 H   0  0  0  0  0  0  0  0  0  0  0  0
    7.2786   -0.8510   18.2402 H   0  0  0  0  0  0  0  0  0  0  0  0
    7.5268   -1.2802   20.5703 H   0  0  0  0  0  0  0  0  0  0  0  0
    6.3616   -0.7047   21.7723 H   0  0  0  0  0  0  0  0  0  0  0  0
    6.6740    0.6297   24.0386 H   0  0  0  0  0  0  0  0  0  0  0  0
    7.6754   -0.7208   23.4551 H   0  0  0  0  0  0  0  0  0  0  0  0
    8.2490   -0.0265   25.8082 H   0  0  0  0  0  0  0  0  0  0  0  0
    9.6015    0.0193   24.6689 H   0  0  0  0  0  0  0  0  0  0  0  0
    9.7722    1.9930   25.9692 H   0  0  0  0  0  0  0  0  0  0  0  0
    9.4093    3.7789   24.2500 H   0  0  0  0  0  0  0  0  0  0  0  0
   10.3620    2.3774   23.7604 H   0  0  0  0  0  0  0  0  0  0  0  0
    9.0724    2.7710   21.9204 H   0  0  0  0  0  0  0  0  0  0  0  0
    6.3549    2.8226   23.2036 H   0  0  0  0  0  0  0  0  0  0  0  0
    7.3733    4.2379   23.4747 H   0  0  0  0  0  0  0  0  0  0  0  0
    7.5787    4.6492   21.0835 H   0  0  0  0  0  0  0  0  0  0  0  0
    6.7940    3.1039   20.6720 H   0  0  0  0  0  0  0  0  0  0  0  0
    5.8788    4.4496   21.3887 H   0  0  0  0  0  0  0  0  0  0  0  0
  1  2  1  0
  2  3  1  0
  3  4  1  0
  4  5  1  0
  5  6  1  0
  6  7  1  0
  6  8  1  0
  6  9  1  0
  5 10  1  0
 10 11  1  0
 11 12  1  0
 12 13  1  0
 13 14  2  0
 13 15  1  0
 15 16  1  0
 16 17  2  0
 17 18  1  0
 18 19  2  0
 19 20  1  0
 20 21  2  0
 21 22  1  0
 22 23  2  0
 23 24  1  0
 24 25  2  0
 24 26  1  0
 23 27  1  0
 22 28  1  0
 21 29  1  0
 19 30  1  0
 17 31  1  0
 15 32  1  0
 15 33  1  0
 11 34  1  0
 11 35  1  0
 10 36  1  0
 10 37  1  0
  5 38  1  1
  4 39  1  0
  4 40  1  0
  3 41  1  6
  2 42  1  0
  2 43  1  0
  1 44  1  0
  1 45  1  0
  1 46  1  0
 12  3  1  0
 25 16  1  0
 25 20  1  0
M  END
>  <cnnaffinities>  (28) 
[5.47367, 5.47377, 5.3778, 5.37769, 5.3777, 5.37757]

>  <score>  (28) 
5.47367

>  <index>  (28) 
27

>  <Smiles>  (28) 
C(C([C@]1(C([C@@](C(F)(F)F)(C(C(N1C(=O)C(c1c(nc(c2c(c(c(c(c12)[H])[H])[H])[H])[H])[H])([H])[H])([H])[H])([H])[H])[H])([H])[H])[H])([H])[H])([H])([H])[H]

>  <h>  (28) 
<NA>

>  <Training>  (28) 
True

>  <Success>  (28) 
True

>  <enamine_searched>  (28) 
False

>  <enamine_id>  (28) 
nan

$$$$

     RDKit          3D

 70 75  0  0  0  0  0  0  0  0999 V2000
    6.4762    4.5873   21.4694 C   0  0  0  0  0  0  0  0  0  0  0  0
    6.8259    3.5820   22.4813 N   0  0  0  0  0  4  0  0  0  0  0  0
    7.8262    4.0272   23.4803 C   0  0  0  0  0  0  0  0  0  0  0  0
    8.0453    2.9844   24.5803 C   0  0  0  0  0  0  0  0  0  0  0  0
    8.7046    1.7723   24.1128 N   0  0  0  0  0  0  0  0  0  0  0  0
    7.9475    0.5375   23.9801 C   0  0  0  0  0  0  0  0  0  0  0  0
    8.3436   -0.2726   22.7238 C   0  0  2  0  0  0  0  0  0  0  0  0
    7.7691    0.4266   21.4844 C   0  0  0  0  0  0  0  0  0  0  0  0
    7.9666    1.5929   21.1544 O   0  0  0  0  0  0  0  0  0  0  0  0
    6.9154   -0.4129   20.8321 N   0  0  0  0  0  0  0  0  0  0  0  0
    6.1314    0.1077   19.7710 C   0  0  0  0  0  0  0  0  0  0  0  0
    6.4658   -0.2041   18.4800 C   0  0  0  0  0  0  0  0  0  0  0  0
    5.7789    0.2313   17.4016 N   0  0  0  0  0  0  0  0  0  0  0  0
    4.7506    1.0168   17.6122 C   0  0  0  0  0  0  0  0  0  0  0  0
    4.3132    1.4273   18.9054 C   0  0  0  0  0  0  0  0  0  0  0  0
    3.1952    2.2850   19.0819 C   0  0  0  0  0  0  0  0  0  0  0  0
    2.7995    2.6700   20.3354 C   0  0  0  0  0  0  0  0  0  0  0  0
    3.4991    2.2122   21.4713 C   0  0  0  0  0  0  0  0  0  0  0  0
    4.5859    1.3795   21.3270 C   0  0  0  0  0  0  0  0  0  0  0  0
    5.0268    0.9686   20.0320 C   0  0  0  0  0  0  0  0  0  0  0  0
    5.0980    1.0149   22.2142 H   0  0  0  0  0  0  0  0  0  0  0  0
    3.1771    2.5204   22.4629 H   0  0  0  0  0  0  0  0  0  0  0  0
    1.9485    3.3330   20.4580 H   0  0  0  0  0  0  0  0  0  0  0  0
    2.6811    2.6359   18.1928 H   0  0  0  0  0  0  0  0  0  0  0  0
    4.2017    1.3697   16.7376 H   0  0  0  0  0  0  0  0  0  0  0  0
    7.3311   -0.8322   18.2770 H   0  0  0  0  0  0  0  0  0  0  0  0
    6.4894   -1.5258   21.6660 C   0  0  0  0  0  0  0  0  0  0  0  0
    7.6655   -1.6752   22.6290 C   0  0  2  0  0  0  0  0  0  0  0  0
    7.2930   -2.3746   23.9180 C   0  0  0  0  0  0  0  0  0  0  0  0
    6.1327   -1.7498   24.4512 O   0  0  0  0  0  0  0  0  0  0  0  0
    5.7753   -2.2044   25.7311 C   0  0  0  0  0  0  0  0  0  0  0  0
    6.3842   -1.3345   26.8032 C   0  0  0  0  0  0  0  0  0  0  0  0
    7.7682   -1.4722   26.7363 F   0  0  0  0  0  0  0  0  0  0  0  0
    5.8412   -1.4528   28.2265 C   0  0  0  0  0  0  0  0  0  0  0  0
    5.3313   -0.1090   28.1802 O   0  0  0  0  0  0  0  0  0  0  0  0
    5.9434    0.1281   26.9040 C   0  0  0  0  0  0  0  0  0  0  0  0
    5.2298    0.4908   26.1538 H   0  0  0  0  0  0  0  0  0  0  0  0
    6.8025    0.8090   26.9672 H   0  0  0  0  0  0  0  0  0  0  0  0
    6.6380   -1.5868   28.9710 H   0  0  0  0  0  0  0  0  0  0  0  0
    5.0454   -2.1861   28.4019 H   0  0  0  0  0  0  0  0  0  0  0  0
    4.6836   -2.1569   25.8043 H   0  0  0  0  0  0  0  0  0  0  0  0
    6.0921   -3.2477   25.8895 H   0  0  0  0  0  0  0  0  0  0  0  0
    7.0818   -3.4357   23.7166 H   0  0  0  0  0  0  0  0  0  0  0  0
    8.1317   -2.3363   24.6235 H   0  0  0  0  0  0  0  0  0  0  0  0
    8.3912   -2.3159   22.1337 H   0  0  0  0  0  0  0  0  0  0  0  0
    5.5612   -1.2918   22.2007 H   0  0  0  0  0  0  0  0  0  0  0  0
    6.3256   -2.4182   21.0550 H   0  0  0  0  0  0  0  0  0  0  0  0
    9.8528   -0.3233   22.6184 C   0  0  0  0  0  0  0  0  0  0  0  0
   10.4545   -1.2493   21.7644 C   0  0  0  0  0  0  0  0  0  0  0  0
   11.8177   -1.2512   21.5967 C   0  0  0  0  0  0  0  0  0  0  0  0
   12.4163   -2.3472   20.3991 Cl  0  0  0  0  0  0  0  0  0  0  0  0
   12.6589   -0.3987   22.3107 C   0  0  0  0  0  0  0  0  0  0  0  0
   12.0645    0.5363   23.1413 C   0  0  0  0  0  0  0  0  0  0  0  0
   10.6714    0.6241   23.2454 C   0  0  0  0  0  0  0  0  0  0  0  0
   10.0662    1.7991   23.9727 C   0  0  0  0  0  0  0  0  0  0  0  0
   10.7478    2.7335   24.3796 O   0  0  0  0  0  0  0  0  0  0  0  0
   12.6717    1.2369   23.7036 H   0  0  0  0  0  0  0  0  0  0  0  0
   13.7362   -0.4613   22.1728 H   0  0  0  0  0  0  0  0  0  0  0  0
    9.9029   -1.9816   21.1835 H   0  0  0  0  0  0  0  0  0  0  0  0
    6.8867    0.7789   23.9044 H   0  0  0  0  0  0  0  0  0  0  0  0
    8.0750   -0.0710   24.8812 H   0  0  0  0  0  0  0  0  0  0  0  0
    8.6762    3.4096   25.3624 H   0  0  0  0  0  0  0  0  0  0  0  0
    7.0843    2.7011   25.0265 H   0  0  0  0  0  0  0  0  0  0  0  0
    7.5001    4.9762   23.9248 H   0  0  0  0  0  0  0  0  0  0  0  0
    8.7838    4.2077   22.9781 H   0  0  0  0  0  0  0  0  0  0  0  0
    7.1964    2.7437   21.9964 H   0  0  0  0  0  0  0  0  0  0  0  0
    5.9489    3.3017   22.9613 H   0  0  0  0  0  0  0  0  0  0  0  0
    7.3212    4.7497   20.7924 H   0  0  0  0  0  0  0  0  0  0  0  0
    5.6180    4.2292   20.8912 H   0  0  0  0  0  0  0  0  0  0  0  0
    6.2230    5.5456   21.9377 H   0  0  0  0  0  0  0  0  0  0  0  0
  1  2  1  0
  2  3  1  0
  3  4  1  0
  4  5  1  0
  5  6  1  0
  7  6  1  1
  7  8  1  0
  8  9  2  0
  8 10  1  0
 10 11  1  0
 11 12  2  0
 12 13  1  0
 13 14  2  0
 14 15  1  0
 15 16  2  0
 16 17  1  0
 17 18  2  0
 18 19  1  0
 19 20  2  0
 19 21  1  0
 18 22  1  0
 17 23  1  0
 16 24  1  0
 14 25  1  0
 12 26  1  0
 10 27  1  0
 27 28  1  0
 28 29  1  0
 29 30  1  0
 30 31  1  0
 31 32  1  0
 32 33  1  0
 32 34  1  0
 34 35  1  0
 35 36  1  0
 36 37  1  0
 36 38  1  0
 34 39  1  0
 34 40  1  0
 31 41  1  0
 31 42  1  0
 29 43  1  0
 29 44  1  0
 28 45  1  6
 27 46  1  0
 27 47  1  0
  7 48  1  0
 48 49  2  0
 49 50  1  0
 50 51  1  0
 50 52  2  0
 52 53  1  0
 53 54  2  0
 54 55  1  0
 55 56  2  0
 53 57  1  0
 52 58  1  0
 49 59  1  0
  6 60  1  0
  6 61  1  0
  4 62  1  0
  4 63  1  0
  3 64  1  0
  3 65  1  0
  2 66  1  0
  2 67  1  0
  1 68  1  0
  1 69  1  0
  1 70  1  0
 55  5  1  0
 28  7  1  0
 36 32  1  0
 54 48  1  0
 20 11  1  0
 20 15  1  0
M  CHG  1   2   1
M  END
>  <cnnaffinities>  (29) 
[6.19425]

>  <score>  (29) 
6.19425

>  <index>  (29) 
28

>  <Smiles>  (29) 
C([N+](C(C(N1C([C@@]2(C(=O)N(c3c(nc(c4c(c(c(c(c34)[H])[H])[H])[H])[H])[H])C([C@@]2(C(OC(C2(F)C(OC2([H])[H])([H])[H])([H])[H])([H])[H])[H])([H])[H])c2c(c(Cl)c(c(c2C1=O)[H])[H])[H])([H])[H])([H])[H])([H])[H])([H])[H])([H])([H])[H]

>  <h>  (29) 
<NA>

>  <Training>  (29) 
True

>  <Success>  (29) 
True

>  <enamine_searched>  (29) 
False

>  <enamine_id>  (29) 
nan

$$$$

     RDKit          3D

 67 72  0  0  0  0  0  0  0  0999 V2000
    6.6467    4.3639   21.3122 C   0  0  0  0  0  0  0  0  0  0  0  0
    7.0312    3.3745   22.3234 N   0  0  0  0  0  4  0  0  0  0  0  0
    8.1137    3.8121   23.2349 C   0  0  0  0  0  0  0  0  0  0  0  0
    8.3550    2.8041   24.3598 C   0  0  0  0  0  0  0  0  0  0  0  0
    8.9673    1.5629   23.9058 N   0  0  0  0  0  0  0  0  0  0  0  0
    8.1906    0.3378   23.8136 C   0  0  0  0  0  0  0  0  0  0  0  0
    8.5303   -0.4818   22.5468 C   0  0  2  0  0  0  0  0  0  0  0  0
    7.9549    0.2807   21.3349 C   0  0  0  0  0  0  0  0  0  0  0  0
    8.2494    1.4224   20.9744 O   0  0  0  0  0  0  0  0  0  0  0  0
    6.9288   -0.4376   20.8005 N   0  0  0  0  0  0  0  0  0  0  0  0
    6.1434    0.1070   19.7497 C   0  0  0  0  0  0  0  0  0  0  0  0
    6.4707   -0.1947   18.4536 C   0  0  0  0  0  0  0  0  0  0  0  0
    5.7788    0.2417   17.3785 N   0  0  0  0  0  0  0  0  0  0  0  0
    4.7509    1.0232   17.5994 C   0  0  0  0  0  0  0  0  0  0  0  0
    4.3202    1.4316   18.8953 C   0  0  0  0  0  0  0  0  0  0  0  0
    3.2038    2.2887   19.0843 C   0  0  0  0  0  0  0  0  0  0  0  0
    2.8229    2.6715   20.3412 C   0  0  0  0  0  0  0  0  0  0  0  0
    3.5287    2.2100   21.4718 C   0  0  0  0  0  0  0  0  0  0  0  0
    4.6117    1.3751   21.3151 C   0  0  0  0  0  0  0  0  0  0  0  0
    5.0374    0.9645   20.0189 C   0  0  0  0  0  0  0  0  0  0  0  0
    5.1304    1.0065   22.1965 H   0  0  0  0  0  0  0  0  0  0  0  0
    3.2142    2.5171   22.4655 H   0  0  0  0  0  0  0  0  0  0  0  0
    1.9756    3.3363   20.4737 H   0  0  0  0  0  0  0  0  0  0  0  0
    2.6748    2.6403   18.2039 H   0  0  0  0  0  0  0  0  0  0  0  0
    4.1949    1.3731   16.7291 H   0  0  0  0  0  0  0  0  0  0  0  0
    7.3341   -0.8271   18.2570 H   0  0  0  0  0  0  0  0  0  0  0  0
    6.4933   -1.5258   21.6538 C   0  0  0  0  0  0  0  0  0  0  0  0
    7.7556   -1.8341   22.4647 C   0  0  2  0  0  0  0  0  0  0  0  0
    7.4763   -2.5586   23.7896 C   0  0  0  0  0  0  0  0  0  0  0  0
    6.8568   -3.8603   23.6066 N   0  0  0  0  0  0  0  0  0  0  0  0
    5.5271   -4.0840   23.6186 C   0  0  0  0  0  0  0  0  0  0  0  0
    4.6986   -3.0761   23.9607 N   0  0  0  0  0  0  0  0  0  0  0  0
    3.4133   -3.4079   23.9700 C   0  0  0  0  0  0  0  0  0  0  0  0
    2.8943   -4.5972   23.6731 N   0  0  0  0  0  0  0  0  0  0  0  0
    3.8167   -5.5099   23.3472 C   0  0  0  0  0  0  0  0  0  0  0  0
    5.1223   -5.3315   23.2892 N   0  0  0  0  0  0  0  0  0  0  0  0
    3.4554   -6.5104   23.1032 H   0  0  0  0  0  0  0  0  0  0  0  0
    2.7134   -2.6201   24.2517 H   0  0  0  0  0  0  0  0  0  0  0  0
    7.4313   -4.6422   23.3290 H   0  0  0  0  0  0  0  0  0  0  0  0
    6.7926   -1.9643   24.4003 H   0  0  0  0  0  0  0  0  0  0  0  0
    8.4159   -2.6821   24.3443 H   0  0  0  0  0  0  0  0  0  0  0  0
    8.3609   -2.5054   21.8538 H   0  0  0  0  0  0  0  0  0  0  0  0
    5.6653   -1.2231   22.3103 H   0  0  0  0  0  0  0  0  0  0  0  0
    6.1521   -2.3648   21.0475 H   0  0  0  0  0  0  0  0  0  0  0  0
   10.0345   -0.6119   22.4630 C   0  0  0  0  0  0  0  0  0  0  0  0
   10.6054   -1.5697   21.6230 C   0  0  0  0  0  0  0  0  0  0  0  0
   11.9650   -1.5977   21.4045 C   0  0  0  0  0  0  0  0  0  0  0  0
   12.5312   -2.5763   20.0778 Cl  0  0  0  0  0  0  0  0  0  0  0  0
   12.8236   -0.7741   22.1383 C   0  0  0  0  0  0  0  0  0  0  0  0
   12.2660    0.1796   22.9685 C   0  0  0  0  0  0  0  0  0  0  0  0
   10.8819    0.3231   23.0702 C   0  0  0  0  0  0  0  0  0  0  0  0
   10.3218    1.5547   23.7255 C   0  0  0  0  0  0  0  0  0  0  0  0
   11.0335    2.5001   24.0490 O   0  0  0  0  0  0  0  0  0  0  0  0
   12.9035    0.8599   23.5207 H   0  0  0  0  0  0  0  0  0  0  0  0
   13.9008   -0.8482   22.0197 H   0  0  0  0  0  0  0  0  0  0  0  0
    9.9954   -2.2481   21.0419 H   0  0  0  0  0  0  0  0  0  0  0  0
    7.1255    0.5934   23.8030 H   0  0  0  0  0  0  0  0  0  0  0  0
    8.3922   -0.2885   24.6898 H   0  0  0  0  0  0  0  0  0  0  0  0
    9.0150    3.2427   25.1124 H   0  0  0  0  0  0  0  0  0  0  0  0
    7.4069    2.5486   24.8438 H   0  0  0  0  0  0  0  0  0  0  0  0
    9.0367    3.9445   22.6630 H   0  0  0  0  0  0  0  0  0  0  0  0
    7.8552    4.7815   23.6738 H   0  0  0  0  0  0  0  0  0  0  0  0
    7.3414    2.5213   21.8277 H   0  0  0  0  0  0  0  0  0  0  0  0
    6.1872    3.1375   22.8733 H   0  0  0  0  0  0  0  0  0  0  0  0
    7.4231    4.4379   20.5500 H   0  0  0  0  0  0  0  0  0  0  0  0
    6.5080    5.3523   21.7597 H   0  0  0  0  0  0  0  0  0  0  0  0
    5.7142    4.0536   20.8355 H   0  0  0  0  0  0  0  0  0  0  0  0
  1  2  1  0
  2  3  1  0
  3  4  1  0
  4  5  1  0
  5  6  1  0
  7  6  1  1
  7  8  1  0
  8  9  2  0
  8 10  1  0
 10 11  1  0
 11 12  2  0
 12 13  1  0
 13 14  2  0
 14 15  1  0
 15 16  2  0
 16 17  1  0
 17 18  2  0
 18 19  1  0
 19 20  2  0
 19 21  1  0
 18 22  1  0
 17 23  1  0
 16 24  1  0
 14 25  1  0
 12 26  1  0
 10 27  1  0
 27 28  1  0
 28 29  1  0
 29 30  1  0
 30 31  1  0
 31 32  2  0
 32 33  1  0
 33 34  2  0
 34 35  1  0
 35 36  2  0
 35 37  1  0
 33 38  1  0
 30 39  1  0
 29 40  1  0
 29 41  1  0
 28 42  1  6
 27 43  1  0
 27 44  1  0
  7 45  1  0
 45 46  2  0
 46 47  1  0
 47 48  1  0
 47 49  2  0
 49 50  1  0
 50 51  2  0
 51 52  1  0
 52 53  2  0
 50 54  1  0
 49 55  1  0
 46 56  1  0
  6 57  1  0
  6 58  1  0
  4 59  1  0
  4 60  1  0
  3 61  1  0
  3 62  1  0
  2 63  1  0
  2 64  1  0
  1 65  1  0
  1 66  1  0
  1 67  1  0
 52  5  1  0
 28  7  1  0
 36 31  1  0
 51 45  1  0
 20 11  1  0
 20 15  1  0
M  CHG  1   2   1
M  END
>  <cnnaffinities>  (30) 
[6.53897, 6.452]

>  <score>  (30) 
6.53897

>  <index>  (30) 
29

>  <Smiles>  (30) 
C([N+](C(C(N1C([C@@]2(C(=O)N(c3c(nc(c4c(c(c(c(c34)[H])[H])[H])[H])[H])[H])C([C@@]2(C(N(c2nc(nc(n2)[H])[H])[H])([H])[H])[H])([H])[H])c2c(c(Cl)c(c(c2C1=O)[H])[H])[H])([H])[H])([H])[H])([H])[H])([H])[H])([H])([H])[H]

>  <h>  (30) 
<NA>

>  <Training>  (30) 
True

>  <Success>  (30) 
True

>  <enamine_searched>  (30) 
False

>  <enamine_id>  (30) 
nan

$$$$

     RDKit          3D

 66 71  0  0  0  0  0  0  0  0999 V2000
    6.5697    4.3587   21.3631 C   0  0  0  0  0  0  0  0  0  0  0  0
    7.5772    3.9618   22.3359 N   0  0  0  0  0  0  0  0  0  0  0  0
    7.1370    3.3082   23.4538 C   0  0  0  0  0  0  0  0  0  0  0  0
    5.9457    3.1154   23.6591 O   0  0  0  0  0  0  0  0  0  0  0  0
    8.1993    2.8193   24.4478 C   0  0  0  0  0  0  0  0  0  0  0  0
    8.8660    1.6279   23.9629 N   0  0  0  0  0  0  0  0  0  0  0  0
    8.0701    0.4096   23.8504 C   0  0  0  0  0  0  0  0  0  0  0  0
    8.4619   -0.3950   22.5927 C   0  0  2  0  0  0  0  0  0  0  0  0
    7.9767    0.2982   21.2983 C   0  0  0  0  0  0  0  0  0  0  0  0
    8.4664    1.2583   20.7418 O   0  0  0  0  0  0  0  0  0  0  0  0
    6.8895   -0.3978   20.8283 N   0  0  0  0  0  0  0  0  0  0  0  0
    6.1232    0.1079   19.7577 C   0  0  0  0  0  0  0  0  0  0  0  0
    6.4709   -0.1942   18.4683 C   0  0  0  0  0  0  0  0  0  0  0  0
    5.7864    0.2359   17.3841 N   0  0  0  0  0  0  0  0  0  0  0  0
    4.7473    1.0032   17.5981 C   0  0  0  0  0  0  0  0  0  0  0  0
    4.2875    1.3980   18.8869 C   0  0  0  0  0  0  0  0  0  0  0  0
    3.1694    2.2512   19.0684 C   0  0  0  0  0  0  0  0  0  0  0  0
    2.7717    2.6238   20.3211 C   0  0  0  0  0  0  0  0  0  0  0  0
    3.4727    2.1644   21.4612 C   0  0  0  0  0  0  0  0  0  0  0  0
    4.5584    1.3345   21.3146 C   0  0  0  0  0  0  0  0  0  0  0  0
    4.9926    0.9326   20.0195 C   0  0  0  0  0  0  0  0  0  0  0  0
    5.1182    1.0256   22.1945 H   0  0  0  0  0  0  0  0  0  0  0  0
    3.1737    2.4902   22.4522 H   0  0  0  0  0  0  0  0  0  0  0  0
    1.9202    3.2859   20.4468 H   0  0  0  0  0  0  0  0  0  0  0  0
    2.6608    2.6144   18.1794 H   0  0  0  0  0  0  0  0  0  0  0  0
    4.2089    1.3596   16.7208 H   0  0  0  0  0  0  0  0  0  0  0  0
    7.3418   -0.8199   18.2840 H   0  0  0  0  0  0  0  0  0  0  0  0
    6.4925   -1.5241   21.6403 C   0  0  0  0  0  0  0  0  0  0  0  0
    7.7370   -1.7715   22.4954 C   0  0  2  0  0  0  0  0  0  0  0  0
    7.4560   -2.5593   23.7822 C   0  0  0  0  0  0  0  0  0  0  0  0
    6.9278   -3.9487   23.4854 C   0  0  0  0  0  0  0  0  0  0  0  0
    5.5530   -4.2047   23.4560 C   0  0  0  0  0  0  0  0  0  0  0  0
    5.0642   -5.4727   23.1530 C   0  0  0  0  0  0  0  0  0  0  0  0
    5.9475   -6.5068   22.8504 C   0  0  0  0  0  0  0  0  0  0  0  0
    7.3192   -6.2624   22.8574 C   0  0  0  0  0  0  0  0  0  0  0  0
    7.8021   -4.9955   23.1749 C   0  0  0  0  0  0  0  0  0  0  0  0
    8.8782   -4.8216   23.1984 H   0  0  0  0  0  0  0  0  0  0  0  0
    8.0179   -7.0704   22.6502 H   0  0  0  0  0  0  0  0  0  0  0  0
    5.5699   -7.5025   22.6328 H   0  0  0  0  0  0  0  0  0  0  0  0
    3.9926   -5.6594   23.1703 H   0  0  0  0  0  0  0  0  0  0  0  0
    4.8550   -3.3943   23.6667 H   0  0  0  0  0  0  0  0  0  0  0  0
    6.7297   -2.0106   24.3956 H   0  0  0  0  0  0  0  0  0  0  0  0
    8.3860   -2.6331   24.3609 H   0  0  0  0  0  0  0  0  0  0  0  0
    8.3891   -2.4098   21.8990 H   0  0  0  0  0  0  0  0  0  0  0  0
    5.6071   -1.2928   22.2540 H   0  0  0  0  0  0  0  0  0  0  0  0
    6.2484   -2.3954   21.0205 H   0  0  0  0  0  0  0  0  0  0  0  0
    9.9631   -0.4802   22.5115 C   0  0  0  0  0  0  0  0  0  0  0  0
   10.5256   -1.3846   21.6094 C   0  0  0  0  0  0  0  0  0  0  0  0
   11.8855   -1.4222   21.4211 C   0  0  0  0  0  0  0  0  0  0  0  0
   12.4514   -2.5022   20.1840 Cl  0  0  0  0  0  0  0  0  0  0  0  0
   12.7402   -0.6072   22.1614 C   0  0  0  0  0  0  0  0  0  0  0  0
   12.1903    0.3034   23.0461 C   0  0  0  0  0  0  0  0  0  0  0  0
   10.8045    0.4247   23.1651 C   0  0  0  0  0  0  0  0  0  0  0  0
   10.2397    1.5954   23.9158 C   0  0  0  0  0  0  0  0  0  0  0  0
   10.9474    2.4589   24.4093 O   0  0  0  0  0  0  0  0  0  0  0  0
   12.8239    0.9568   23.6349 H   0  0  0  0  0  0  0  0  0  0  0  0
   13.8078   -0.6766   21.9977 H   0  0  0  0  0  0  0  0  0  0  0  0
    9.9373   -2.0650   21.0050 H   0  0  0  0  0  0  0  0  0  0  0  0
    8.2314   -0.2202   24.7394 H   0  0  0  0  0  0  0  0  0  0  0  0
    7.0093    0.6888   23.8067 H   0  0  0  0  0  0  0  0  0  0  0  0
    8.9737    3.5649   24.6533 H   0  0  0  0  0  0  0  0  0  0  0  0
    7.6737    2.6180   25.3869 H   0  0  0  0  0  0  0  0  0  0  0  0
    8.4795    3.7150   21.9463 H   0  0  0  0  0  0  0  0  0  0  0  0
    5.7871    4.9274   21.8684 H   0  0  0  0  0  0  0  0  0  0  0  0
    6.0985    3.4804   20.9028 H   0  0  0  0  0  0  0  0  0  0  0  0
    7.0095    4.9945   20.5944 H   0  0  0  0  0  0  0  0  0  0  0  0
  1  2  1  0
  2  3  1  0
  3  4  2  0
  3  5  1  0
  5  6  1  0
  6  7  1  0
  8  7  1  1
  8  9  1  0
  9 10  2  0
  9 11  1  0
 11 12  1  0
 12 13  2  0
 13 14  1  0
 14 15  2  0
 15 16  1  0
 16 17  2  0
 17 18  1  0
 18 19  2  0
 19 20  1  0
 20 21  2  0
 20 22  1  0
 19 23  1  0
 18 24  1  0
 17 25  1  0
 15 26  1  0
 13 27  1  0
 11 28  1  0
 28 29  1  0
 29 30  1  0
 30 31  1  0
 31 32  2  0
 32 33  1  0
 33 34  2  0
 34 35  1  0
 35 36  2  0
 36 37  1  0
 35 38  1  0
 34 39  1  0
 33 40  1  0
 32 41  1  0
 30 42  1  0
 30 43  1  0
 29 44  1  6
 28 45  1  0
 28 46  1  0
  8 47  1  0
 47 48  2  0
 48 49  1  0
 49 50  1  0
 49 51  2  0
 51 52  1  0
 52 53  2  0
 53 54  1  0
 54 55  2  0
 52 56  1  0
 51 57  1  0
 48 58  1  0
  7 59  1  0
  7 60  1  0
  5 61  1  0
  5 62  1  0
  2 63  1  0
  1 64  1  0
  1 65  1  0
  1 66  1  0
 54  6  1  0
 29  8  1  0
 36 31  1  0
 53 47  1  0
 21 12  1  0
 21 16  1  0
M  END
>  <cnnaffinities>  (31) 
[6.6041, 6.62651]

>  <score>  (31) 
6.6041

>  <index>  (31) 
30

>  <Smiles>  (31) 
C(N(C(=O)C(N1C([C@@]2(C(=O)N(c3c(nc(c4c(c(c(c(c34)[H])[H])[H])[H])[H])[H])C([C@@]2(C(c2c(c(c(c(c2[H])[H])[H])[H])[H])([H])[H])[H])([H])[H])c2c(c(Cl)c(c(c2C1=O)[H])[H])[H])([H])[H])([H])[H])[H])([H])([H])[H]

>  <h>  (31) 
<NA>

>  <Training>  (31) 
True

>  <Success>  (31) 
True

>  <enamine_searched>  (31) 
False

>  <enamine_id>  (31) 
nan

$$$$

     RDKit          3D

 64 70  0  0  0  0  0  0  0  0999 V2000
    9.2789    2.4186   25.6911 O   0  0  0  0  0  0  0  0  0  0  0  0
    8.9644    1.5265   24.9087 C   0  0  0  0  0  0  0  0  0  0  0  0
    9.9844    0.7849   24.1194 C   0  0  0  0  0  0  0  0  0  0  0  0
   11.3048    1.1240   24.3670 C   0  0  0  0  0  0  0  0  0  0  0  0
   12.2943    0.7232   23.5084 C   0  0  0  0  0  0  0  0  0  0  0  0
   11.9398   -0.0173   22.3856 C   0  0  0  0  0  0  0  0  0  0  0  0
   13.1975   -0.2197   21.2109 Cl  0  0  0  0  0  0  0  0  0  0  0  0
   10.6496   -0.4781   22.1834 C   0  0  0  0  0  0  0  0  0  0  0  0
    9.6385   -0.0820   23.0777 C   0  0  0  0  0  0  0  0  0  0  0  0
    8.1889   -0.4307   22.8199 C   0  0  1  0  0  0  0  0  0  0  0  0
    7.3666   -0.1332   24.1097 C   0  0  0  0  0  0  0  0  0  0  0  0
    7.6674    1.1808   24.6562 N   0  0  0  0  0  0  0  0  0  0  0  0
    6.6531    2.1179   25.0726 C   0  0  0  0  0  0  0  0  0  0  0  0
    6.4288    3.2136   24.0697 C   0  0  0  0  0  0  0  0  0  0  0  0
    5.3098    3.8060   23.8062 N   0  0  0  0  0  0  0  0  0  0  0  0
    5.5989    4.7847   22.8567 N   0  0  0  0  0  0  0  0  0  0  0  0
    6.8626    4.6963   22.6361 C   0  0  0  0  0  0  0  0  0  0  0  0
    7.4594    3.7312   23.3710 O   0  0  0  0  0  0  0  0  0  0  0  0
    7.4710    5.2956   21.9719 H   0  0  0  0  0  0  0  0  0  0  0  0
    6.9789    2.5726   26.0160 H   0  0  0  0  0  0  0  0  0  0  0  0
    5.6963    1.6211   25.2476 H   0  0  0  0  0  0  0  0  0  0  0  0
    6.2897   -0.1981   23.9073 H   0  0  0  0  0  0  0  0  0  0  0  0
    7.6176   -0.8879   24.8684 H   0  0  0  0  0  0  0  0  0  0  0  0
    7.6686    0.4102   21.6311 C   0  0  0  0  0  0  0  0  0  0  0  0
    7.8898    1.5750   21.3950 O   0  0  0  0  0  0  0  0  0  0  0  0
    6.8750   -0.4041   20.8523 N   0  0  0  0  0  0  0  0  0  0  0  0
    6.1124    0.0990   19.7767 C   0  0  0  0  0  0  0  0  0  0  0  0
    6.4338   -0.2399   18.4867 C   0  0  0  0  0  0  0  0  0  0  0  0
    5.7725    0.2090   17.3946 N   0  0  0  0  0  0  0  0  0  0  0  0
    4.7521    1.0053   17.5984 C   0  0  0  0  0  0  0  0  0  0  0  0
    4.2910    1.4005   18.8855 C   0  0  0  0  0  0  0  0  0  0  0  0
    3.1585    2.2392   19.0476 C   0  0  0  0  0  0  0  0  0  0  0  0
    2.7188    2.5797   20.2934 C   0  0  0  0  0  0  0  0  0  0  0  0
    3.3919    2.0996   21.4412 C   0  0  0  0  0  0  0  0  0  0  0  0
    4.4985    1.2997   21.3147 C   0  0  0  0  0  0  0  0  0  0  0  0
    4.9781    0.9324   20.0248 C   0  0  0  0  0  0  0  0  0  0  0  0
    5.0081    0.9286   22.2020 H   0  0  0  0  0  0  0  0  0  0  0  0
    3.0335    2.3735   22.4276 H   0  0  0  0  0  0  0  0  0  0  0  0
    1.8513    3.2225   20.4089 H   0  0  0  0  0  0  0  0  0  0  0  0
    2.6660    2.6068   18.1516 H   0  0  0  0  0  0  0  0  0  0  0  0
    4.2297    1.3729   16.7167 H   0  0  0  0  0  0  0  0  0  0  0  0
    7.2866   -0.8930   18.3002 H   0  0  0  0  0  0  0  0  0  0  0  0
    6.7549   -1.7619   21.3316 C   0  0  0  0  0  0  0  0  0  0  0  0
    7.9412   -1.8733   22.2974 C   0  0  2  0  0  0  0  0  0  0  0  0
    7.8006   -2.9488   23.3843 C   0  0  0  0  0  0  0  0  0  0  0  0
    7.8561   -4.3090   22.8939 N   0  0  0  0  0  0  0  0  0  0  0  0
    6.8104   -4.9783   22.3431 C   0  0  0  0  0  0  0  0  0  0  0  0
    5.4598   -4.6415   22.5891 C   0  0  0  0  0  0  0  0  0  0  0  0
    4.5227   -5.4617   22.0035 C   0  0  0  0  0  0  0  0  0  0  0  0
    4.8356   -6.4701   21.1878 N   0  0  0  0  0  0  0  0  0  0  0  0
    6.1291   -6.6483   20.9854 C   0  0  0  0  0  0  0  0  0  0  0  0
    7.1445   -6.0142   21.5528 N   0  0  0  0  0  0  0  0  0  0  0  0
    6.3599   -7.4153   20.2579 H   0  0  0  0  0  0  0  0  0  0  0  0
    3.4584   -5.3220   22.1881 H   0  0  0  0  0  0  0  0  0  0  0  0
    5.1471   -3.7929   23.1947 H   0  0  0  0  0  0  0  0  0  0  0  0
    8.7494   -4.6353   22.5519 H   0  0  0  0  0  0  0  0  0  0  0  0
    8.6205   -2.8153   24.1017 H   0  0  0  0  0  0  0  0  0  0  0  0
    6.8589   -2.8052   23.9279 H   0  0  0  0  0  0  0  0  0  0  0  0
    8.8060   -2.1282   21.6807 H   0  0  0  0  0  0  0  0  0  0  0  0
    6.8069   -2.4620   20.4952 H   0  0  0  0  0  0  0  0  0  0  0  0
    5.7897   -1.9209   21.8357 H   0  0  0  0  0  0  0  0  0  0  0  0
   10.4441   -1.1180   21.3275 H   0  0  0  0  0  0  0  0  0  0  0  0
   13.3306    1.0070   23.6342 H   0  0  0  0  0  0  0  0  0  0  0  0
   11.5069    1.7592   25.2105 H   0  0  0  0  0  0  0  0  0  0  0  0
  1  2  2  0
  2  3  1  0
  3  4  2  0
  4  5  1  0
  5  6  2  0
  6  7  1  0
  6  8  1  0
  8  9  2  0
  9 10  1  0
 10 11  1  1
 11 12  1  0
 12 13  1  0
 13 14  1  0
 14 15  2  0
 15 16  1  0
 16 17  2  0
 17 18  1  0
 17 19  1  0
 13 20  1  0
 13 21  1  0
 11 22  1  0
 11 23  1  0
 10 24  1  0
 24 25  2  0
 24 26  1  0
 26 27  1  0
 27 28  2  0
 28 29  1  0
 29 30  2  0
 30 31  1  0
 31 32  2  0
 32 33  1  0
 33 34  2  0
 34 35  1  0
 35 36  2  0
 35 37  1  0
 34 38  1  0
 33 39  1  0
 32 40  1  0
 30 41  1  0
 28 42  1  0
 26 43  1  0
 43 44  1  0
 44 45  1  0
 45 46  1  0
 46 47  1  0
 47 48  2  0
 48 49  1  0
 49 50  2  0
 50 51  1  0
 51 52  2  0
 51 53  1  0
 49 54  1  0
 48 55  1  0
 46 56  1  0
 45 57  1  0
 45 58  1  0
 44 59  1  6
 43 60  1  0
 43 61  1  0
  8 62  1  0
  5 63  1  0
  4 64  1  0
 12  2  1  0
 18 14  1  0
 36 27  1  0
 52 47  1  0
  9  3  1  0
 44 10  1  0
 36 31  1  0
M  END
>  <cnnaffinities>  (32) 
[6.19797, 6.18019, 6.07918]

>  <score>  (32) 
6.19797

>  <index>  (32) 
31

>  <Smiles>  (32) 
O=C1c2c(c(c(Cl)c(c2[C@@]2(C(N1C(c1nnc(o1)[H])([H])[H])([H])[H])C(=O)N(c1c(nc(c3c(c(c(c(c13)[H])[H])[H])[H])[H])[H])C([C@@]2(C(N(c1c(c(nc(n1)[H])[H])[H])[H])([H])[H])[H])([H])[H])[H])[H])[H]

>  <h>  (32) 
<NA>

>  <Training>  (32) 
True

>  <Success>  (32) 
True

>  <enamine_searched>  (32) 
False

>  <enamine_id>  (32) 
nan

$$$$

     RDKit          3D

 72 77  0  0  0  0  0  0  0  0999 V2000
    7.6489   -2.9445   23.4247 C   0  0  0  0  0  0  0  0  0  0  0  0
    7.9506   -1.8896   22.3526 C   0  0  1  0  0  0  0  0  0  0  0  0
    6.8345   -1.7731   21.2970 C   0  0  0  0  0  0  0  0  0  0  0  0
    6.9261   -0.4041   20.8338 N   0  0  0  0  0  0  0  0  0  0  0  0
    6.1427    0.1126   19.7728 C   0  0  0  0  0  0  0  0  0  0  0  0
    6.4433   -0.2228   18.4785 C   0  0  0  0  0  0  0  0  0  0  0  0
    5.7633    0.2228   17.3977 N   0  0  0  0  0  0  0  0  0  0  0  0
    4.7458    1.0206   17.6038 C   0  0  0  0  0  0  0  0  0  0  0  0
    4.2955    1.4171   18.8940 C   0  0  0  0  0  0  0  0  0  0  0  0
    3.1623    2.2569   19.0677 C   0  0  0  0  0  0  0  0  0  0  0  0
    2.7353    2.6009   20.3202 C   0  0  0  0  0  0  0  0  0  0  0  0
    3.4184    2.1134   21.4573 C   0  0  0  0  0  0  0  0  0  0  0  0
    4.5199    1.3048   21.3159 C   0  0  0  0  0  0  0  0  0  0  0  0
    5.0050    0.9466   20.0246 C   0  0  0  0  0  0  0  0  0  0  0  0
    5.0283    0.9245   22.1960 H   0  0  0  0  0  0  0  0  0  0  0  0
    3.0763    2.3881   22.4518 H   0  0  0  0  0  0  0  0  0  0  0  0
    1.8696    3.2484   20.4396 H   0  0  0  0  0  0  0  0  0  0  0  0
    2.6622    2.6310   18.1782 H   0  0  0  0  0  0  0  0  0  0  0  0
    4.2224    1.3848   16.7189 H   0  0  0  0  0  0  0  0  0  0  0  0
    7.2859   -0.8785   18.2632 H   0  0  0  0  0  0  0  0  0  0  0  0
    7.6670    0.4146   21.6500 C   0  0  0  0  0  0  0  0  0  0  0  0
    7.8622    1.5934   21.4388 O   0  0  0  0  0  0  0  0  0  0  0  0
    8.1814   -0.4239   22.8469 C   0  0  1  0  0  0  0  0  0  0  0  0
    7.3579   -0.1085   24.1180 C   0  0  0  0  0  0  0  0  0  0  0  0
    7.6033    1.2307   24.6141 N   0  0  0  0  0  0  0  0  0  0  0  0
    6.5163    2.1047   25.0021 C   0  0  0  0  0  0  0  0  0  0  0  0
    6.3906    3.3037   24.0597 C   0  0  0  0  0  0  0  0  0  0  0  0
    5.1654    4.1316   24.3244 N   0  0  1  0  0  4  0  0  0  0  0  0
    5.2280    4.8874   25.6344 C   0  0  0  0  0  0  0  0  0  0  0  0
    4.0104    5.7848   25.7941 C   0  0  0  0  0  0  0  0  0  0  0  0
    3.8772    6.6964   24.7225 O   0  0  0  0  0  0  0  0  0  0  0  0
    3.7600    6.0709   23.4402 C   0  0  0  0  0  0  0  0  0  0  0  0
    2.4199    5.3481   23.3012 C   0  0  0  0  0  0  0  0  0  0  0  0
    1.6054    6.0367   23.5487 H   0  0  0  0  0  0  0  0  0  0  0  0
    2.3540    4.4638   23.9467 H   0  0  0  0  0  0  0  0  0  0  0  0
    2.2900    5.0113   22.2653 H   0  0  0  0  0  0  0  0  0  0  0  0
    3.8395    7.2029   22.4240 C   0  0  0  0  0  0  0  0  0  0  0  0
    2.9994    7.8910   22.5567 H   0  0  0  0  0  0  0  0  0  0  0  0
    3.8036    6.7990   21.4051 H   0  0  0  0  0  0  0  0  0  0  0  0
    4.7724    7.7624   22.5467 H   0  0  0  0  0  0  0  0  0  0  0  0
    4.9407    5.1177   23.2075 C   0  0  0  0  0  0  0  0  0  0  0  0
    5.8513    5.7170   23.0974 H   0  0  0  0  0  0  0  0  0  0  0  0
    4.7845    4.5610   22.2760 H   0  0  0  0  0  0  0  0  0  0  0  0
    3.1109    5.1620   25.9030 H   0  0  0  0  0  0  0  0  0  0  0  0
    4.1043    6.4048   26.6905 H   0  0  0  0  0  0  0  0  0  0  0  0
    6.1337    5.5033   25.6293 H   0  0  0  0  0  0  0  0  0  0  0  0
    5.2877    4.1774   26.4624 H   0  0  0  0  0  0  0  0  0  0  0  0
    4.3597    3.4715   24.3411 H   0  0  0  0  0  0  0  0  0  0  0  0
    7.2750    3.9430   24.1713 H   0  0  0  0  0  0  0  0  0  0  0  0
    6.3484    2.9547   23.0208 H   0  0  0  0  0  0  0  0  0  0  0  0
    6.6972    2.4272   26.0312 H   0  0  0  0  0  0  0  0  0  0  0  0
    5.6033    1.5063   24.9661 H   0  0  0  0  0  0  0  0  0  0  0  0
    8.8732    1.6520   24.8555 C   0  0  0  0  0  0  0  0  0  0  0  0
    9.1418    2.6005   25.5855 O   0  0  0  0  0  0  0  0  0  0  0  0
    9.9288    0.9003   24.1188 C   0  0  0  0  0  0  0  0  0  0  0  0
   11.2384    1.2661   24.3938 C   0  0  0  0  0  0  0  0  0  0  0  0
   12.2611    0.7364   23.6482 C   0  0  0  0  0  0  0  0  0  0  0  0
   11.9320   -0.1216   22.6084 C   0  0  0  0  0  0  0  0  0  0  0  0
   13.2091   -0.6213   21.5946 Cl  0  0  0  0  0  0  0  0  0  0  0  0
   10.6460   -0.5273   22.3354 C   0  0  0  0  0  0  0  0  0  0  0  0
    9.6137   -0.0510   23.1401 C   0  0  0  0  0  0  0  0  0  0  0  0
   10.4746   -1.1719   21.4796 H   0  0  0  0  0  0  0  0  0  0  0  0
   13.3047    0.9820   23.7830 H   0  0  0  0  0  0  0  0  0  0  0  0
   11.3643    1.9980   25.1753 H   0  0  0  0  0  0  0  0  0  0  0  0
    6.2948   -0.1852   23.8767 H   0  0  0  0  0  0  0  0  0  0  0  0
    7.6210   -0.8547   24.8867 H   0  0  0  0  0  0  0  0  0  0  0  0
    5.8500   -1.9935   21.7383 H   0  0  0  0  0  0  0  0  0  0  0  0
    6.9684   -2.4472   20.4520 H   0  0  0  0  0  0  0  0  0  0  0  0
    8.8693   -2.1853   21.8387 H   0  0  0  0  0  0  0  0  0  0  0  0
    8.4215   -2.9789   24.2027 H   0  0  0  0  0  0  0  0  0  0  0  0
    7.5774   -3.9467   22.9854 H   0  0  0  0  0  0  0  0  0  0  0  0
    6.6927   -2.7384   23.9209 H   0  0  0  0  0  0  0  0  0  0  0  0
  1  2  1  0
  2  3  1  0
  3  4  1  0
  4  5  1  0
  5  6  2  0
  6  7  1  0
  7  8  2  0
  8  9  1  0
  9 10  2  0
 10 11  1  0
 11 12  2  0
 12 13  1  0
 13 14  2  0
 13 15  1  0
 12 16  1  0
 11 17  1  0
 10 18  1  0
  8 19  1  0
  6 20  1  0
  4 21  1  0
 21 22  2  0
 21 23  1  0
 23 24  1  1
 24 25  1  0
 25 26  1  0
 26 27  1  0
 27 28  1  0
 28 29  1  0
 29 30  1  0
 30 31  1  0
 31 32  1  0
 32 33  1  0
 33 34  1  0
 33 35  1  0
 33 36  1  0
 32 37  1  0
 37 38  1  0
 37 39  1  0
 37 40  1  0
 32 41  1  0
 41 42  1  0
 41 43  1  0
 30 44  1  0
 30 45  1  0
 29 46  1  0
 29 47  1  0
 28 48  1  1
 27 49  1  0
 27 50  1  0
 26 51  1  0
 26 52  1  0
 25 53  1  0
 53 54  2  0
 53 55  1  0
 55 56  2  0
 56 57  1  0
 57 58  2  0
 58 59  1  0
 58 60  1  0
 60 61  2  0
 60 62  1  0
 57 63  1  0
 56 64  1  0
 24 65  1  0
 24 66  1  0
  3 67  1  0
  3 68  1  0
  2 69  1  6
  1 70  1  0
  1 71  1  0
  1 72  1  0
 23  2  1  0
 41 28  1  0
 61 55  1  0
 14  5  1  0
 61 23  1  0
 14  9  1  0
M  CHG  1  28   1
M  END
>  <cnnaffinities>  (33) 
[6.31839, 6.04861, 6.37557]

>  <score>  (33) 
6.31839

>  <index>  (33) 
32

>  <Smiles>  (33) 
C([C@]1(C(N(c2c(nc(c3c(c(c(c(c23)[H])[H])[H])[H])[H])[H])C(=O)[C@]21C(N(C(C([N@+]1(C(C(OC(C([H])([H])[H])(C([H])([H])[H])C1([H])[H])([H])[H])([H])[H])[H])([H])[H])([H])[H])C(=O)c1c(c(c(Cl)c(c21)[H])[H])[H])([H])[H])([H])[H])[H])([H])([H])[H]

>  <h>  (33) 
<NA>

>  <Training>  (33) 
True

>  <Success>  (33) 
True

>  <enamine_searched>  (33) 
False

>  <enamine_id>  (33) 
nan

$$$$

     RDKit          3D

 44 47  0  0  0  0  0  0  0  0999 V2000
    8.5146    1.3938   20.7391 O   0  0  0  0  0  0  0  0  0  0  0  0
    7.8672    0.6942   21.5006 C   0  0  0  0  0  0  0  0  0  0  0  0
    6.9523   -0.4140   20.9244 C   0  0  0  0  0  0  0  0  0  0  0  0
    6.1119    0.0915   19.7721 C   0  0  0  0  0  0  0  0  0  0  0  0
    6.4272   -0.2061   18.4716 C   0  0  0  0  0  0  0  0  0  0  0  0
    5.7571    0.2422   17.3763 N   0  0  0  0  0  0  0  0  0  0  0  0
    4.7330    1.0305   17.5807 C   0  0  0  0  0  0  0  0  0  0  0  0
    4.2833    1.4220   18.8699 C   0  0  0  0  0  0  0  0  0  0  0  0
    3.1679    2.2786   19.0492 C   0  0  0  0  0  0  0  0  0  0  0  0
    2.7637    2.6501   20.3010 C   0  0  0  0  0  0  0  0  0  0  0  0
    3.4649    2.1700   21.4307 C   0  0  0  0  0  0  0  0  0  0  0  0
    4.5451    1.3355   21.2911 C   0  0  0  0  0  0  0  0  0  0  0  0
    4.9880    0.9392   20.0018 C   0  0  0  0  0  0  0  0  0  0  0  0
    5.0702    0.9832   22.1771 H   0  0  0  0  0  0  0  0  0  0  0  0
    3.1343    2.4709   22.4205 H   0  0  0  0  0  0  0  0  0  0  0  0
    1.9132    3.3155   20.4315 H   0  0  0  0  0  0  0  0  0  0  0  0
    2.6552    2.6508   18.1647 H   0  0  0  0  0  0  0  0  0  0  0  0
    4.2018    1.3977   16.6985 H   0  0  0  0  0  0  0  0  0  0  0  0
    7.2745   -0.8539   18.2438 H   0  0  0  0  0  0  0  0  0  0  0  0
    7.6169   -1.1974   20.5376 H   0  0  0  0  0  0  0  0  0  0  0  0
    6.3241   -0.8881   21.6875 H   0  0  0  0  0  0  0  0  0  0  0  0
    7.9389    0.8592   22.8632 N   0  0  0  0  0  0  0  0  0  0  0  0
    7.4845   -0.0781   23.8821 C   0  0  0  0  0  0  0  0  0  0  0  0
    7.8300    0.5793   25.2261 C   0  0  0  0  0  0  0  0  0  0  0  0
    8.7642    1.7538   24.9060 C   0  0  0  0  0  0  0  0  0  0  0  0
    8.5945    2.0494   23.4076 C   0  0  2  0  0  0  0  0  0  0  0  0
    7.7992    3.3153   23.1430 C   0  0  0  0  0  0  0  0  0  0  0  0
    8.3963    4.4122   22.5249 C   0  0  0  0  0  0  0  0  0  0  0  0
    7.6661    5.5696   22.2704 C   0  0  0  0  0  0  0  0  0  0  0  0
    6.3292    5.6583   22.6343 C   0  0  0  0  0  0  0  0  0  0  0  0
    5.7640    4.5617   23.2652 C   0  0  0  0  0  0  0  0  0  0  0  0
    4.4647    4.6173   23.6172 F   0  0  0  0  0  0  0  0  0  0  0  0
    6.4666    3.3993   23.5344 C   0  0  0  0  0  0  0  0  0  0  0  0
    5.9558    2.5751   24.0288 H   0  0  0  0  0  0  0  0  0  0  0  0
    5.7331    6.5441   22.4327 H   0  0  0  0  0  0  0  0  0  0  0  0
    8.1397    6.4042   21.7651 H   0  0  0  0  0  0  0  0  0  0  0  0
    9.4401    4.3560   22.2257 H   0  0  0  0  0  0  0  0  0  0  0  0
    9.5690    2.1689   22.9320 H   0  0  0  0  0  0  0  0  0  0  0  0
    8.5340    2.6305   25.5169 H   0  0  0  0  0  0  0  0  0  0  0  0
    9.8025    1.4985   25.1341 H   0  0  0  0  0  0  0  0  0  0  0  0
    8.3020   -0.1304   25.9071 H   0  0  0  0  0  0  0  0  0  0  0  0
    6.9257    0.9281   25.7315 H   0  0  0  0  0  0  0  0  0  0  0  0
    7.9986   -1.0363   23.7581 H   0  0  0  0  0  0  0  0  0  0  0  0
    6.4075   -0.2708   23.8080 H   0  0  0  0  0  0  0  0  0  0  0  0
  1  2  2  0
  2  3  1  0
  3  4  1  0
  4  5  2  0
  5  6  1  0
  6  7  2  0
  7  8  1  0
  8  9  2  0
  9 10  1  0
 10 11  2  0
 11 12  1  0
 12 13  2  0
 12 14  1  0
 11 15  1  0
 10 16  1  0
  9 17  1  0
  7 18  1  0
  5 19  1  0
  3 20  1  0
  3 21  1  0
  2 22  1  0
 22 23  1  0
 23 24  1  0
 24 25  1  0
 25 26  1  0
 26 27  1  0
 27 28  2  0
 28 29  1  0
 29 30  2  0
 30 31  1  0
 31 32  1  0
 31 33  2  0
 33 34  1  0
 30 35  1  0
 29 36  1  0
 28 37  1  0
 26 38  1  6
 25 39  1  0
 25 40  1  0
 24 41  1  0
 24 42  1  0
 23 43  1  0
 23 44  1  0
 13  4  1  0
 26 22  1  0
 33 27  1  0
 13  8  1  0
M  END
>  <cnnaffinities>  (34) 
[5.23485, 5.60304, 5.63113, 5.62617, 5.62131]

>  <score>  (34) 
5.23485

>  <index>  (34) 
33

>  <Smiles>  (34) 
O=C(C(c1c(nc(c2c(c(c(c(c12)[H])[H])[H])[H])[H])[H])([H])[H])N1C(C(C([C@@]1(c1c(c(c(c(F)c1[H])[H])[H])[H])[H])([H])[H])([H])[H])([H])[H]

>  <h>  (34) 
<NA>

>  <Training>  (34) 
True

>  <Success>  (34) 
True

>  <enamine_searched>  (34) 
False

>  <enamine_id>  (34) 
nan

$$$$

     RDKit          3D

 58 63  0  0  0  0  0  0  0  0999 V2000
    6.7007   -2.3089   23.6166 C   0  0  0  0  0  0  0  0  0  0  0  0
    7.7109   -1.8426   22.5516 C   0  0  1  0  0  0  0  0  0  0  0  0
    7.0431   -1.8009   21.1538 C   0  0  0  0  0  0  0  0  0  0  0  0
    6.8826   -0.3935   20.8690 N   0  0  0  0  0  0  0  0  0  0  0  0
    6.1284    0.1061   19.7782 C   0  0  0  0  0  0  0  0  0  0  0  0
    6.4418   -0.2269   18.4851 C   0  0  0  0  0  0  0  0  0  0  0  0
    5.7678    0.2220   17.3997 N   0  0  0  0  0  0  0  0  0  0  0  0
    4.7490    1.0208   17.5991 C   0  0  0  0  0  0  0  0  0  0  0  0
    4.2942    1.4249   18.8846 C   0  0  0  0  0  0  0  0  0  0  0  0
    3.1615    2.2655   19.0636 C   0  0  0  0  0  0  0  0  0  0  0  0
    2.7342    2.6072   20.3170 C   0  0  0  0  0  0  0  0  0  0  0  0
    3.4176    2.1176   21.4532 C   0  0  0  0  0  0  0  0  0  0  0  0
    4.5154    1.3095   21.3051 C   0  0  0  0  0  0  0  0  0  0  0  0
    4.9984    0.9520   20.0166 C   0  0  0  0  0  0  0  0  0  0  0  0
    5.0209    0.9212   22.1828 H   0  0  0  0  0  0  0  0  0  0  0  0
    3.0800    2.3905   22.4497 H   0  0  0  0  0  0  0  0  0  0  0  0
    1.8733    3.2572   20.4444 H   0  0  0  0  0  0  0  0  0  0  0  0
    2.6552    2.6359   18.1765 H   0  0  0  0  0  0  0  0  0  0  0  0
    4.2253    1.3830   16.7143 H   0  0  0  0  0  0  0  0  0  0  0  0
    7.2883   -0.8749   18.2622 H   0  0  0  0  0  0  0  0  0  0  0  0
    7.6827    0.4274   21.6320 C   0  0  0  0  0  0  0  0  0  0  0  0
    7.8601    1.6018   21.4090 O   0  0  0  0  0  0  0  0  0  0  0  0
    8.3355   -0.4179   22.7599 C   0  0  1  0  0  0  0  0  0  0  0  0
    8.0364    0.1654   24.1627 C   0  0  0  0  0  0  0  0  0  0  0  0
    8.7075    1.4287   24.4024 N   0  0  0  0  0  0  0  0  0  0  0  0
    7.9579    2.5646   24.9417 C   0  0  0  0  0  0  0  0  0  0  0  0
    7.5772    3.5949   23.9071 C   0  0  0  0  0  0  0  0  0  0  0  0
    8.3690    4.6219   23.3803 C   0  0  0  0  0  0  0  0  0  0  0  0
    7.6934    5.2381   22.4171 N   0  0  0  0  0  0  0  0  0  0  0  0
    6.5390    4.6063   22.3903 N   0  0  0  0  0  0  0  0  0  0  0  0
    5.5367    4.8824   21.3750 C   0  0  0  0  0  0  0  0  0  0  0  0
    4.5618    4.8476   21.8648 H   0  0  0  0  0  0  0  0  0  0  0  0
    5.7425    5.8817   20.9784 H   0  0  0  0  0  0  0  0  0  0  0  0
    5.5668    4.1235   20.5799 H   0  0  0  0  0  0  0  0  0  0  0  0
    6.3965    3.6291   23.2785 N   0  0  0  0  0  0  0  0  0  0  0  0
    9.3716    4.9211   23.6568 H   0  0  0  0  0  0  0  0  0  0  0  0
    8.5861    3.0318   25.7056 H   0  0  0  0  0  0  0  0  0  0  0  0
    7.0502    2.1804   25.4190 H   0  0  0  0  0  0  0  0  0  0  0  0
   10.0406    1.5945   24.1381 C   0  0  0  0  0  0  0  0  0  0  0  0
   10.6823    2.5334   24.5961 O   0  0  0  0  0  0  0  0  0  0  0  0
   10.6453    0.5743   23.2148 C   0  0  0  0  0  0  0  0  0  0  0  0
   12.0175    0.6390   22.9625 C   0  0  0  0  0  0  0  0  0  0  0  0
   12.6096   -0.2141   22.0504 C   0  0  0  0  0  0  0  0  0  0  0  0
   11.7945   -1.1159   21.3784 C   0  0  0  0  0  0  0  0  0  0  0  0
   12.3336   -1.9285   20.4570 F   0  0  0  0  0  0  0  0  0  0  0  0
   10.4372   -1.1957   21.5972 C   0  0  0  0  0  0  0  0  0  0  0  0
    9.8453   -0.3728   22.5593 C   0  0  0  0  0  0  0  0  0  0  0  0
    9.8783   -1.8892   20.9777 H   0  0  0  0  0  0  0  0  0  0  0  0
   13.6689   -0.1862   21.8210 H   0  0  0  0  0  0  0  0  0  0  0  0
   12.5952    1.3879   23.4927 H   0  0  0  0  0  0  0  0  0  0  0  0
    8.3392   -0.5781   24.9178 H   0  0  0  0  0  0  0  0  0  0  0  0
    6.9655    0.3548   24.2504 H   0  0  0  0  0  0  0  0  0  0  0  0
    6.0623   -2.2922   21.1475 H   0  0  0  0  0  0  0  0  0  0  0  0
    7.6715   -2.2836   20.3956 H   0  0  0  0  0  0  0  0  0  0  0  0
    8.5229   -2.5790   22.5547 H   0  0  0  0  0  0  0  0  0  0  0  0
    5.8386   -1.6348   23.6889 H   0  0  0  0  0  0  0  0  0  0  0  0
    6.3211   -3.3059   23.3613 H   0  0  0  0  0  0  0  0  0  0  0  0
    7.1582   -2.3829   24.6080 H   0  0  0  0  0  0  0  0  0  0  0  0
  1  2  1  0
  2  3  1  0
  3  4  1  0
  4  5  1  0
  5  6  2  0
  6  7  1  0
  7  8  2  0
  8  9  1  0
  9 10  2  0
 10 11  1  0
 11 12  2  0
 12 13  1  0
 13 14  2  0
 13 15  1  0
 12 16  1  0
 11 17  1  0
 10 18  1  0
  8 19  1  0
  6 20  1  0
  4 21  1  0
 21 22  2  0
 21 23  1  0
 23 24  1  1
 24 25  1  0
 25 26  1  0
 26 27  1  0
 27 28  1  0
 28 29  2  0
 29 30  1  0
 30 31  1  0
 31 32  1  0
 31 33  1  0
 31 34  1  0
 30 35  1  0
 28 36  1  0
 26 37  1  0
 26 38  1  0
 25 39  1  0
 39 40  2  0
 39 41  1  0
 41 42  2  0
 42 43  1  0
 43 44  2  0
 44 45  1  0
 44 46  1  0
 46 47  2  0
 46 48  1  0
 43 49  1  0
 42 50  1  0
 24 51  1  0
 24 52  1  0
  3 53  1  0
  3 54  1  0
  2 55  1  6
  1 56  1  0
  1 57  1  0
  1 58  1  0
 23  2  1  0
 35 27  2  0
 47 41  1  0
 14  5  1  0
 47 23  1  0
 14  9  1  0
M  END
>  <cnnaffinities>  (35) 
[6.44896, 6.56281]

>  <score>  (35) 
6.44896

>  <index>  (35) 
34

>  <Smiles>  (35) 
C([C@]1(C(N(c2c(nc(c3c(c(c(c(c23)[H])[H])[H])[H])[H])[H])C(=O)[C@]21C(N(C(c1c(nn(C([H])([H])[H])n1)[H])([H])[H])C(=O)c1c(c(c(F)c(c21)[H])[H])[H])([H])[H])([H])[H])[H])([H])([H])[H]

>  <h>  (35) 
<NA>

>  <Training>  (35) 
True

>  <Success>  (35) 
True

>  <enamine_searched>  (35) 
False

>  <enamine_id>  (35) 
nan

$$$$

     RDKit          3D

 51 54  0  0  0  0  0  0  0  0999 V2000
   13.7080    0.1904   22.2137 N   0  0  0  0  0  0  0  0  0  0  0  0
   13.1647   -0.6165   22.8384 C   0  0  0  0  0  0  0  0  0  0  0  0
   12.4786   -1.5943   23.7020 C   0  0  0  0  0  0  0  0  0  0  0  0
   11.0349   -1.8427   23.3051 C   0  0  0  0  0  0  0  0  0  0  0  0
    9.9316   -1.2243   23.8851 C   0  0  0  0  0  0  0  0  0  0  0  0
    8.6553   -1.4673   23.3880 C   0  0  0  0  0  0  0  0  0  0  0  0
    8.4476   -2.4079   22.3792 C   0  0  0  0  0  0  0  0  0  0  0  0
    7.1419   -2.7195   21.9116 N   0  0  0  0  0  0  0  0  0  0  0  0
    6.5665   -3.9828   22.3338 C   0  0  0  0  0  0  0  0  0  0  0  0
    6.0705   -3.8937   23.7542 C   0  0  0  0  0  0  0  0  0  0  0  0
    4.7065   -3.8389   24.0210 C   0  0  0  0  0  0  0  0  0  0  0  0
    4.2551   -3.8903   25.3350 C   0  0  0  0  0  0  0  0  0  0  0  0
    5.1686   -3.8996   26.3837 C   0  0  0  0  0  0  0  0  0  0  0  0
    6.5290   -3.8415   26.1005 C   0  0  0  0  0  0  0  0  0  0  0  0
    7.6879   -3.7455   27.3991 Cl  0  0  0  0  0  0  0  0  0  0  0  0
    6.9974   -3.8373   24.7966 C   0  0  0  0  0  0  0  0  0  0  0  0
    8.0662   -3.7585   24.6111 H   0  0  0  0  0  0  0  0  0  0  0  0
    4.8374   -3.9485   27.4146 H   0  0  0  0  0  0  0  0  0  0  0  0
    3.1891   -3.8988   25.5325 H   0  0  0  0  0  0  0  0  0  0  0  0
    4.0044   -3.7785   23.1933 H   0  0  0  0  0  0  0  0  0  0  0  0
    5.7515   -4.2022   21.6441 H   0  0  0  0  0  0  0  0  0  0  0  0
    7.3365   -4.7578   22.2371 H   0  0  0  0  0  0  0  0  0  0  0  0
    6.2712   -1.7895   21.3892 C   0  0  0  0  0  0  0  0  0  0  0  0
    5.0783   -2.0084   21.2993 O   0  0  0  0  0  0  0  0  0  0  0  0
    6.9149   -0.5042   20.8761 C   0  0  0  0  0  0  0  0  0  0  0  0
    6.1193    0.0927   19.7589 C   0  0  0  0  0  0  0  0  0  0  0  0
    6.4330   -0.2133   18.4613 C   0  0  0  0  0  0  0  0  0  0  0  0
    5.7656    0.2320   17.3685 N   0  0  0  0  0  0  0  0  0  0  0  0
    4.7396    1.0186   17.5794 C   0  0  0  0  0  0  0  0  0  0  0  0
    4.2868    1.4011   18.8701 C   0  0  0  0  0  0  0  0  0  0  0  0
    3.1675    2.2503   19.0481 C   0  0  0  0  0  0  0  0  0  0  0  0
    2.7554    2.6039   20.3030 C   0  0  0  0  0  0  0  0  0  0  0  0
    3.4381    2.1125   21.4378 C   0  0  0  0  0  0  0  0  0  0  0  0
    4.5211    1.2814   21.2929 C   0  0  0  0  0  0  0  0  0  0  0  0
    4.9841    0.9168   20.0003 C   0  0  0  0  0  0  0  0  0  0  0  0
    5.0189    0.8897   22.1748 H   0  0  0  0  0  0  0  0  0  0  0  0
    3.1057    2.4030   22.4302 H   0  0  0  0  0  0  0  0  0  0  0  0
    1.9060    3.2675   20.4343 H   0  0  0  0  0  0  0  0  0  0  0  0
    2.6630    2.6282   18.1625 H   0  0  0  0  0  0  0  0  0  0  0  0
    4.2046    1.3936   16.7051 H   0  0  0  0  0  0  0  0  0  0  0  0
    7.2782   -0.8682   18.2508 H   0  0  0  0  0  0  0  0  0  0  0  0
    7.0205    0.1944   21.7192 H   0  0  0  0  0  0  0  0  0  0  0  0
    7.9246   -0.7663   20.5363 H   0  0  0  0  0  0  0  0  0  0  0  0
    9.5356   -3.0923   21.8622 C   0  0  0  0  0  0  0  0  0  0  0  0
   10.8102   -2.7457   22.2733 C   0  0  0  0  0  0  0  0  0  0  0  0
   11.6720   -3.1504   21.7646 H   0  0  0  0  0  0  0  0  0  0  0  0
    9.3730   -3.9009   21.1557 H   0  0  0  0  0  0  0  0  0  0  0  0
    7.7953   -0.9927   23.8475 H   0  0  0  0  0  0  0  0  0  0  0  0
   10.0547   -0.5358   24.7150 H   0  0  0  0  0  0  0  0  0  0  0  0
   13.0287   -2.5428   23.6462 H   0  0  0  0  0  0  0  0  0  0  0  0
   12.5814   -1.2141   24.7189 H   0  0  0  0  0  0  0  0  0  0  0  0
  1  2  3  0
  2  3  1  0
  3  4  1  0
  4  5  2  0
  5  6  1  0
  6  7  2  0
  7  8  1  0
  8  9  1  0
  9 10  1  0
 10 11  2  0
 11 12  1  0
 12 13  2  0
 13 14  1  0
 14 15  1  0
 14 16  2  0
 16 17  1  0
 13 18  1  0
 12 19  1  0
 11 20  1  0
  9 21  1  0
  9 22  1  0
  8 23  1  0
 23 24  2  0
 23 25  1  0
 25 26  1  0
 26 27  2  0
 27 28  1  0
 28 29  2  0
 29 30  1  0
 30 31  2  0
 31 32  1  0
 32 33  2  0
 33 34  1  0
 34 35  2  0
 34 36  1  0
 33 37  1  0
 32 38  1  0
 31 39  1  0
 29 40  1  0
 27 41  1  0
 25 42  1  0
 25 43  1  0
  7 44  1  0
 44 45  2  0
 45 46  1  0
 44 47  1  0
  6 48  1  0
  5 49  1  0
  3 50  1  0
  3 51  1  0
 45  4  1  0
 16 10  1  0
 35 26  1  0
 35 30  1  0
M  END
>  <cnnaffinities>  (36) 
[6.80716, 6.10074, 6.06993, 6.32911, 6.07402, 6.30786, 6.07296]

>  <score>  (36) 
6.80716

>  <index>  (36) 
35

>  <Smiles>  (36) 
N#CC(c1c(c(c(N(C(c2c(c(c(c(Cl)c2[H])[H])[H])[H])([H])[H])C(=O)C(c2c(nc(c3c(c(c(c(c23)[H])[H])[H])[H])[H])[H])([H])[H])c(c1[H])[H])[H])[H])([H])[H]

>  <h>  (36) 
<NA>

>  <Training>  (36) 
True

>  <Success>  (36) 
True

>  <enamine_searched>  (36) 
False

>  <enamine_id>  (36) 
nan

$$$$

     RDKit          3D

 59 64  0  0  0  0  0  0  0  0999 V2000
    6.5773   -2.0032   23.7855 C   0  0  0  0  0  0  0  0  0  0  0  0
    7.5765   -1.7695   22.6418 C   0  0  1  0  0  0  0  0  0  0  0  0
    6.8585   -1.7717   21.2761 C   0  0  0  0  0  0  0  0  0  0  0  0
    6.8591   -0.3904   20.8730 N   0  0  0  0  0  0  0  0  0  0  0  0
    6.1181    0.1104   19.7812 C   0  0  0  0  0  0  0  0  0  0  0  0
    6.4363   -0.2336   18.4898 C   0  0  0  0  0  0  0  0  0  0  0  0
    5.7728    0.2192   17.4032 N   0  0  0  0  0  0  0  0  0  0  0  0
    4.7590    1.0300   17.6021 C   0  0  0  0  0  0  0  0  0  0  0  0
    4.3136    1.4446   18.8922 C   0  0  0  0  0  0  0  0  0  0  0  0
    3.1869    2.2913   19.0667 C   0  0  0  0  0  0  0  0  0  0  0  0
    2.7647    2.6430   20.3222 C   0  0  0  0  0  0  0  0  0  0  0  0
    3.4469    2.1637   21.4616 C   0  0  0  0  0  0  0  0  0  0  0  0
    4.5422    1.3463   21.3192 C   0  0  0  0  0  0  0  0  0  0  0  0
    5.0067    0.9716   20.0245 C   0  0  0  0  0  0  0  0  0  0  0  0
    5.0586    0.9744   22.1986 H   0  0  0  0  0  0  0  0  0  0  0  0
    3.1141    2.4531   22.4559 H   0  0  0  0  0  0  0  0  0  0  0  0
    1.9036    3.2937   20.4447 H   0  0  0  0  0  0  0  0  0  0  0  0
    2.6708    2.6508   18.1836 H   0  0  0  0  0  0  0  0  0  0  0  0
    4.2241    1.3838   16.7214 H   0  0  0  0  0  0  0  0  0  0  0  0
    7.2852   -0.8900   18.2929 H   0  0  0  0  0  0  0  0  0  0  0  0
    7.7815    0.3897   21.5242 C   0  0  0  0  0  0  0  0  0  0  0  0
    8.0830    1.5094   21.1828 O   0  0  0  0  0  0  0  0  0  0  0  0
    8.3776   -0.4283   22.6890 C   0  0  1  0  0  0  0  0  0  0  0  0
    8.2228    0.2857   24.0519 C   0  0  0  0  0  0  0  0  0  0  0  0
    9.0599    1.4614   24.1770 N   0  0  0  0  0  0  0  0  0  0  0  0
    8.4982    2.7161   24.6438 C   0  0  0  0  0  0  0  0  0  0  0  0
    8.0715    3.6455   23.5401 C   0  0  0  0  0  0  0  0  0  0  0  0
    8.8723    4.6192   22.9023 C   0  0  0  0  0  0  0  0  0  0  0  0
    8.0171    5.2434   22.0294 C   0  0  0  0  0  0  0  0  0  0  0  0
    6.8245    4.6243   22.1311 N   0  0  0  0  0  0  0  0  0  0  0  0
    5.6770    4.7895   21.2648 C   0  0  0  0  0  0  0  0  0  0  0  0
    4.7673    4.8732   21.8638 H   0  0  0  0  0  0  0  0  0  0  0  0
    5.8077    5.6976   20.6728 H   0  0  0  0  0  0  0  0  0  0  0  0
    5.5886    3.9295   20.5926 H   0  0  0  0  0  0  0  0  0  0  0  0
    6.8332    3.6446   23.0559 N   0  0  0  0  0  0  0  0  0  0  0  0
    8.1668    6.0673   21.3315 H   0  0  0  0  0  0  0  0  0  0  0  0
    9.9459    4.7424   22.9906 H   0  0  0  0  0  0  0  0  0  0  0  0
    9.2723    3.1870   25.2571 H   0  0  0  0  0  0  0  0  0  0  0  0
    7.6365    2.4849   25.2712 H   0  0  0  0  0  0  0  0  0  0  0  0
   10.3655    1.4719   23.7918 C   0  0  0  0  0  0  0  0  0  0  0  0
   11.1354    2.3779   24.0966 O   0  0  0  0  0  0  0  0  0  0  0  0
   10.7911    0.3228   22.9538 C   0  0  0  0  0  0  0  0  0  0  0  0
   12.1493    0.2328   22.6804 C   0  0  0  0  0  0  0  0  0  0  0  0
   12.6102   -0.7677   21.8604 C   0  0  0  0  0  0  0  0  0  0  0  0
   11.6971   -1.6390   21.2834 C   0  0  0  0  0  0  0  0  0  0  0  0
   12.1467   -2.5833   20.4420 F   0  0  0  0  0  0  0  0  0  0  0  0
   10.3410   -1.5580   21.5389 C   0  0  0  0  0  0  0  0  0  0  0  0
    9.8707   -0.5860   22.4257 C   0  0  0  0  0  0  0  0  0  0  0  0
    9.6772   -2.2503   21.0369 H   0  0  0  0  0  0  0  0  0  0  0  0
   13.6619   -0.8512   21.6622 H   0  0  0  0  0  0  0  0  0  0  0  0
   12.7929    0.9881   23.1224 H   0  0  0  0  0  0  0  0  0  0  0  0
    7.1886    0.6046   24.2032 H   0  0  0  0  0  0  0  0  0  0  0  0
    8.4930   -0.4374   24.8330 H   0  0  0  0  0  0  0  0  0  0  0  0
    7.3899   -2.3889   20.5478 H   0  0  0  0  0  0  0  0  0  0  0  0
    5.8295   -2.1385   21.3429 H   0  0  0  0  0  0  0  0  0  0  0  0
    8.2938   -2.5927   22.6986 H   0  0  0  0  0  0  0  0  0  0  0  0
    6.0647   -2.9615   23.6532 H   0  0  0  0  0  0  0  0  0  0  0  0
    5.8119   -1.2205   23.8221 H   0  0  0  0  0  0  0  0  0  0  0  0
    7.0726   -2.0433   24.7596 H   0  0  0  0  0  0  0  0  0  0  0  0
  1  2  1  0
  2  3  1  0
  3  4  1  0
  4  5  1  0
  5  6  2  0
  6  7  1  0
  7  8  2  0
  8  9  1  0
  9 10  2  0
 10 11  1  0
 11 12  2  0
 12 13  1  0
 13 14  2  0
 13 15  1  0
 12 16  1  0
 11 17  1  0
 10 18  1  0
  8 19  1  0
  6 20  1  0
  4 21  1  0
 21 22  2  0
 21 23  1  0
 23 24  1  1
 24 25  1  0
 25 26  1  0
 26 27  1  0
 27 28  1  0
 28 29  2  0
 29 30  1  0
 30 31  1  0
 31 32  1  0
 31 33  1  0
 31 34  1  0
 30 35  1  0
 29 36  1  0
 28 37  1  0
 26 38  1  0
 26 39  1  0
 25 40  1  0
 40 41  2  0
 40 42  1  0
 42 43  2  0
 43 44  1  0
 44 45  2  0
 45 46  1  0
 45 47  1  0
 47 48  2  0
 47 49  1  0
 44 50  1  0
 43 51  1  0
 24 52  1  0
 24 53  1  0
  3 54  1  0
  3 55  1  0
  2 56  1  6
  1 57  1  0
  1 58  1  0
  1 59  1  0
 23  2  1  0
 35 27  2  0
 48 42  1  0
 14  5  1  0
 48 23  1  0
 14  9  1  0
M  END
>  <cnnaffinities>  (37) 
[6.00911, 6.50144]

>  <score>  (37) 
6.00911

>  <index>  (37) 
36

>  <Smiles>  (37) 
C([C@]1(C(N(c2c(nc(c3c(c(c(c(c23)[H])[H])[H])[H])[H])[H])C(=O)[C@]21C(N(C(c1c(c(n(C([H])([H])[H])n1)[H])[H])([H])[H])C(=O)c1c(c(c(F)c(c21)[H])[H])[H])([H])[H])([H])[H])[H])([H])([H])[H]

>  <h>  (37) 
<NA>

>  <Training>  (37) 
True

>  <Success>  (37) 
True

>  <enamine_searched>  (37) 
False

>  <enamine_id>  (37) 
nan

$$$$

     RDKit          3D

 48 51  0  0  0  0  0  0  0  0999 V2000
   12.0040    5.6030   25.5102 N   0  0  0  0  0  0  0  0  0  0  0  0
   11.5153    4.6992   24.9760 C   0  0  0  0  0  0  0  0  0  0  0  0
   10.7445    3.6192   24.4289 C   0  0  0  0  0  0  0  0  0  0  0  0
    9.5116    3.3695   25.0377 C   0  0  0  0  0  0  0  0  0  0  0  0
    8.6518    2.4325   24.4984 C   0  0  0  0  0  0  0  0  0  0  0  0
    9.0008    1.7464   23.3324 C   0  0  0  0  0  0  0  0  0  0  0  0
    8.0680    0.8204   22.7828 N   0  0  0  0  0  0  0  0  0  0  0  0
    7.5895   -0.2336   23.6754 C   0  0  0  0  0  0  0  0  0  0  0  0
    8.2680   -1.5620   23.4043 C   0  0  0  0  0  0  0  0  0  0  0  0
    9.6614   -1.6083   23.3984 C   0  0  0  0  0  0  0  0  0  0  0  0
   10.3111   -2.8313   23.3248 C   0  0  0  0  0  0  0  0  0  0  0  0
    9.5807   -4.0025   23.1630 C   0  0  0  0  0  0  0  0  0  0  0  0
    8.1960   -3.9443   23.0828 C   0  0  0  0  0  0  0  0  0  0  0  0
    7.2990   -5.4139   22.8173 Cl  0  0  0  0  0  0  0  0  0  0  0  0
    7.5306   -2.7284   23.1898 C   0  0  0  0  0  0  0  0  0  0  0  0
    6.4499   -2.6876   23.0887 H   0  0  0  0  0  0  0  0  0  0  0  0
   10.0915   -4.9575   23.1396 H   0  0  0  0  0  0  0  0  0  0  0  0
   11.3947   -2.8959   23.3911 H   0  0  0  0  0  0  0  0  0  0  0  0
   10.2047   -0.6624   23.4576 H   0  0  0  0  0  0  0  0  0  0  0  0
    7.8082    0.1073   24.6923 H   0  0  0  0  0  0  0  0  0  0  0  0
    6.4971   -0.3238   23.6068 H   0  0  0  0  0  0  0  0  0  0  0  0
    7.9296    0.7164   21.4047 C   0  0  0  0  0  0  0  0  0  0  0  0
    8.5443    1.4213   20.6294 O   0  0  0  0  0  0  0  0  0  0  0  0
    6.9523   -0.3580   20.8918 C   0  0  0  0  0  0  0  0  0  0  0  0
    6.1104    0.1238   19.7518 C   0  0  0  0  0  0  0  0  0  0  0  0
    6.4338   -0.1801   18.4568 C   0  0  0  0  0  0  0  0  0  0  0  0
    5.7544    0.2447   17.3623 N   0  0  0  0  0  0  0  0  0  0  0  0
    4.7200    1.0198   17.5673 C   0  0  0  0  0  0  0  0  0  0  0  0
    4.2626    1.4121   18.8562 C   0  0  0  0  0  0  0  0  0  0  0  0
    3.1379    2.2552   19.0280 C   0  0  0  0  0  0  0  0  0  0  0  0
    2.7301    2.6278   20.2797 C   0  0  0  0  0  0  0  0  0  0  0  0
    3.4335    2.1688   21.4162 C   0  0  0  0  0  0  0  0  0  0  0  0
    4.5302    1.3546   21.2773 C   0  0  0  0  0  0  0  0  0  0  0  0
    4.9761    0.9548   19.9877 C   0  0  0  0  0  0  0  0  0  0  0  0
    5.0651    1.0255   22.1649 H   0  0  0  0  0  0  0  0  0  0  0  0
    3.1043    2.4672   22.4073 H   0  0  0  0  0  0  0  0  0  0  0  0
    1.8738    3.2846   20.4034 H   0  0  0  0  0  0  0  0  0  0  0  0
    2.6313    2.6126   18.1357 H   0  0  0  0  0  0  0  0  0  0  0  0
    4.1848    1.3717   16.6837 H   0  0  0  0  0  0  0  0  0  0  0  0
    7.2886   -0.8231   18.2457 H   0  0  0  0  0  0  0  0  0  0  0  0
    6.3012   -0.7147   21.6934 H   0  0  0  0  0  0  0  0  0  0  0  0
    7.5612   -1.2126   20.5652 H   0  0  0  0  0  0  0  0  0  0  0  0
   10.2785    1.9179   22.7910 C   0  0  0  0  0  0  0  0  0  0  0  0
   11.1511    2.8557   23.3320 C   0  0  0  0  0  0  0  0  0  0  0  0
   12.1426    2.9939   22.9052 H   0  0  0  0  0  0  0  0  0  0  0  0
   10.5826    1.3142   21.9426 H   0  0  0  0  0  0  0  0  0  0  0  0
    7.6939    2.2387   24.9726 H   0  0  0  0  0  0  0  0  0  0  0  0
    9.2640    3.9049   25.9484 H   0  0  0  0  0  0  0  0  0  0  0  0
  1  2  3  0
  2  3  1  0
  3  4  2  0
  4  5  1  0
  5  6  2  0
  6  7  1  0
  7  8  1  0
  8  9  1  0
  9 10  2  0
 10 11  1  0
 11 12  2  0
 12 13  1  0
 13 14  1  0
 13 15  2  0
 15 16  1  0
 12 17  1  0
 11 18  1  0
 10 19  1  0
  8 20  1  0
  8 21  1  0
  7 22  1  0
 22 23  2  0
 22 24  1  0
 24 25  1  0
 25 26  2  0
 26 27  1  0
 27 28  2  0
 28 29  1  0
 29 30  2  0
 30 31  1  0
 31 32  2  0
 32 33  1  0
 33 34  2  0
 33 35  1  0
 32 36  1  0
 31 37  1  0
 30 38  1  0
 28 39  1  0
 26 40  1  0
 24 41  1  0
 24 42  1  0
  6 43  1  0
 43 44  2  0
 44 45  1  0
 43 46  1  0
  5 47  1  0
  4 48  1  0
 44  3  1  0
 15  9  1  0
 34 25  1  0
 34 29  1  0
M  END
>  <cnnaffinities>  (38) 
[6.4274, 6.21265, 6.17329, 5.89195, 5.88801, 6.42279]

>  <score>  (38) 
6.4274

>  <index>  (38) 
37

>  <Smiles>  (38) 
N#Cc1c(c(c(N(C(c2c(c(c(c(Cl)c2[H])[H])[H])[H])([H])[H])C(=O)C(c2c(nc(c3c(c(c(c(c23)[H])[H])[H])[H])[H])[H])([H])[H])c(c1[H])[H])[H])[H]

>  <h>  (38) 
<NA>

>  <Training>  (38) 
True

>  <Success>  (38) 
True

>  <enamine_searched>  (38) 
False

>  <enamine_id>  (38) 
nan

$$$$

     RDKit          3D

 72 77  0  0  0  0  0  0  0  0999 V2000
    4.9028   -7.6183   20.1320 C   0  0  0  0  0  0  0  0  0  0  0  0
    5.4315   -6.3299   19.6409 N   0  0  0  0  0  4  0  0  0  0  0  0
    5.4685   -5.2726   20.7004 C   0  0  0  0  0  0  0  0  0  0  0  0
    6.5755   -5.5289   21.7340 C   0  0  0  0  0  0  0  0  0  0  0  0
    6.7508   -4.3753   22.5970 N   0  0  0  0  0  0  0  0  0  0  0  0
    7.8286   -3.4286   22.3884 C   0  0  0  0  0  0  0  0  0  0  0  0
    7.3756   -1.9659   22.6669 C   0  0  2  0  0  0  0  0  0  0  0  0
    6.2669   -1.5658   21.6533 C   0  0  0  0  0  0  0  0  0  0  0  0
    5.1428   -2.0221   21.5826 O   0  0  0  0  0  0  0  0  0  0  0  0
    6.7658   -0.5963   20.8083 N   0  0  0  0  0  0  0  0  0  0  0  0
    6.0316   -0.0182   19.7531 C   0  0  0  0  0  0  0  0  0  0  0  0
    6.4156   -0.2420   18.4553 C   0  0  0  0  0  0  0  0  0  0  0  0
    5.7765    0.2506   17.3704 N   0  0  0  0  0  0  0  0  0  0  0  0
    4.7397    1.0222   17.5807 C   0  0  0  0  0  0  0  0  0  0  0  0
    4.2620    1.3724   18.8755 C   0  0  0  0  0  0  0  0  0  0  0  0
    3.1576    2.2457   19.0451 C   0  0  0  0  0  0  0  0  0  0  0  0
    2.7632    2.6274   20.2970 C   0  0  0  0  0  0  0  0  0  0  0  0
    3.4480    2.1487   21.4363 C   0  0  0  0  0  0  0  0  0  0  0  0
    4.5067    1.2834   21.3011 C   0  0  0  0  0  0  0  0  0  0  0  0
    4.9308    0.8618   20.0082 C   0  0  0  0  0  0  0  0  0  0  0  0
    5.0335    0.9175   22.1782 H   0  0  0  0  0  0  0  0  0  0  0  0
    3.1356    2.4749   22.4235 H   0  0  0  0  0  0  0  0  0  0  0  0
    1.9302    3.3131   20.4216 H   0  0  0  0  0  0  0  0  0  0  0  0
    2.6604    2.6221   18.1558 H   0  0  0  0  0  0  0  0  0  0  0  0
    4.2277    1.4202   16.7051 H   0  0  0  0  0  0  0  0  0  0  0  0
    7.2772   -0.8758   18.2496 H   0  0  0  0  0  0  0  0  0  0  0  0
    8.1968   -0.4343   20.9106 C   0  0  0  0  0  0  0  0  0  0  0  0
    8.4956   -0.9363   22.3332 C   0  0  2  0  0  0  0  0  0  0  0  0
    9.9476   -1.4045   22.4535 C   0  0  0  0  0  0  0  0  0  0  0  0
   10.8203   -0.3074   22.3977 O   0  0  0  0  0  0  0  0  0  0  0  0
   11.3137   -0.0182   23.6706 C   0  0  0  0  0  0  0  0  0  0  0  0
   12.1356    1.2802   23.7685 C   0  0  0  0  0  0  0  0  0  0  0  0
   10.9911    2.2704   23.3361 C   0  0  0  0  0  0  0  0  0  0  0  0
   10.7377    3.8662   24.1644 S   0  0  0  0  0  0  0  0  0  0  0  0
   11.9188    4.7163   24.0800 O   0  0  0  0  0  0  0  0  0  0  0  0
   10.0608    3.5963   25.4328 O   0  0  0  0  0  0  0  0  0  0  0  0
   11.9696    1.2904   23.4688 C   0  0  0  0  0  0  0  0  0  0  0  0
   13.2006    1.0028   24.5003 H   0  0  0  0  0  0  0  0  0  0  0  0
   12.1531    1.3894   24.9907 H   0  0  0  0  0  0  0  0  0  0  0  0
   11.1394    2.4147   22.2776 H   0  0  0  0  0  0  0  0  0  0  0  0
    9.9964    1.8201   23.3542 H   0  0  0  0  0  0  0  0  0  0  0  0
   13.0469    1.5388   22.6431 H   0  0  0  0  0  0  0  0  0  0  0  0
   10.4659    0.0871   24.3672 H   0  0  0  0  0  0  0  0  0  0  0  0
   11.9442   -0.8459   24.0317 H   0  0  0  0  0  0  0  0  0  0  0  0
   10.1850   -2.0867   21.6233 H   0  0  0  0  0  0  0  0  0  0  0  0
   10.1122   -1.9511   23.3935 H   0  0  0  0  0  0  0  0  0  0  0  0
    8.3571   -0.0781   22.9966 H   0  0  0  0  0  0  0  0  0  0  0  0
    8.4669    0.6149   20.7615 H   0  0  0  0  0  0  0  0  0  0  0  0
    8.7349   -1.0268   20.1557 H   0  0  0  0  0  0  0  0  0  0  0  0
    6.8476   -1.9605   24.0987 C   0  0  0  0  0  0  0  0  0  0  0  0
    7.0049   -0.8883   24.9891 C   0  0  0  0  0  0  0  0  0  0  0  0
    6.5703   -1.0095   26.2983 C   0  0  0  0  0  0  0  0  0  0  0  0
    6.8355    0.3090   27.4084 Cl  0  0  0  0  0  0  0  0  0  0  0  0
    5.9267   -2.1540   26.7610 C   0  0  0  0  0  0  0  0  0  0  0  0
    5.6912   -3.1803   25.8675 C   0  0  0  0  0  0  0  0  0  0  0  0
    6.1405   -3.0868   24.5526 C   0  0  0  0  0  0  0  0  0  0  0  0
    5.8588   -4.2227   23.6131 C   0  0  0  0  0  0  0  0  0  0  0  0
    4.9094   -4.9810   23.7699 O   0  0  0  0  0  0  0  0  0  0  0  0
    5.1628   -4.0754   26.1837 H   0  0  0  0  0  0  0  0  0  0  0  0
    5.6141   -2.2163   27.7991 H   0  0  0  0  0  0  0  0  0  0  0  0
    7.4282    0.0574   24.6798 H   0  0  0  0  0  0  0  0  0  0  0  0
    8.6631   -3.6666   23.0617 H   0  0  0  0  0  0  0  0  0  0  0  0
    8.1940   -3.5050   21.3637 H   0  0  0  0  0  0  0  0  0  0  0  0
    7.5350   -5.7387   21.2411 H   0  0  0  0  0  0  0  0  0  0  0  0
    6.3314   -6.3859   22.3732 H   0  0  0  0  0  0  0  0  0  0  0  0
    4.5093   -5.2303   21.2166 H   0  0  0  0  0  0  0  0  0  0  0  0
    5.6312   -4.3135   20.2197 H   0  0  0  0  0  0  0  0  0  0  0  0
    6.4266   -6.4840   19.3477 H   0  0  0  0  0  0  0  0  0  0  0  0
    4.8750   -6.0405   18.8152 H   0  0  0  0  0  0  0  0  0  0  0  0
    4.1756   -7.4430   20.9257 H   0  0  0  0  0  0  0  0  0  0  0  0
    4.4237   -8.1661   19.3209 H   0  0  0  0  0  0  0  0  0  0  0  0
    5.7018   -8.2352   20.5455 H   0  0  0  0  0  0  0  0  0  0  0  0
  1  2  1  0
  2  3  1  0
  3  4  1  0
  4  5  1  0
  5  6  1  0
  7  6  1  6
  7  8  1  0
  8  9  2  0
  8 10  1  0
 10 11  1  0
 11 12  2  0
 12 13  1  0
 13 14  2  0
 14 15  1  0
 15 16  2  0
 16 17  1  0
 17 18  2  0
 18 19  1  0
 19 20  2  0
 19 21  1  0
 18 22  1  0
 17 23  1  0
 16 24  1  0
 14 25  1  0
 12 26  1  0
 10 27  1  0
 27 28  1  0
 28 29  1  0
 29 30  1  0
 30 31  1  0
 31 32  1  0
 32 33  1  0
 33 34  1  0
 34 35  2  0
 34 36  2  0
 34 37  1  0
 37 38  1  0
 37 39  1  0
 33 40  1  0
 33 41  1  0
 32 42  1  0
 31 43  1  0
 31 44  1  0
 29 45  1  0
 29 46  1  0
 28 47  1  1
 27 48  1  0
 27 49  1  0
  7 50  1  0
 50 51  2  0
 51 52  1  0
 52 53  1  0
 52 54  2  0
 54 55  1  0
 55 56  2  0
 56 57  1  0
 57 58  2  0
 55 59  1  0
 54 60  1  0
 51 61  1  0
  6 62  1  0
  6 63  1  0
  4 64  1  0
  4 65  1  0
  3 66  1  0
  3 67  1  0
  2 68  1  0
  2 69  1  0
  1 70  1  0
  1 71  1  0
  1 72  1  0
 57  5  1  0
 28  7  1  0
 37 32  1  0
 56 50  1  0
 20 11  1  0
 20 15  1  0
M  CHG  1   2   1
M  END
>  <cnnaffinities>  (39) 
[6.4229]

>  <score>  (39) 
6.4229

>  <index>  (39) 
38

>  <Smiles>  (39) 
C([N+](C(C(N1C([C@@]2(C(=O)N(c3c(nc(c4c(c(c(c(c34)[H])[H])[H])[H])[H])[H])C([C@@]2(C(OC(C2(C(S(=O)(=O)C2([H])[H])([H])[H])[H])([H])[H])([H])[H])[H])([H])[H])c2c(c(Cl)c(c(c2C1=O)[H])[H])[H])([H])[H])([H])[H])([H])[H])([H])[H])([H])([H])[H]

>  <h>  (39) 
<NA>

>  <Training>  (39) 
True

>  <Success>  (39) 
True

>  <enamine_searched>  (39) 
False

>  <enamine_id>  (39) 
nan

$$$$

     RDKit          3D

 60 64  0  0  0  0  0  0  0  0999 V2000
    8.5262   -4.2768   23.9733 C   0  0  0  0  0  0  0  0  0  0  0  0
    8.3851   -2.8326   24.4381 C   0  0  0  0  0  0  0  0  0  0  0  0
    7.2872   -2.2011   23.7873 O   0  0  0  0  0  0  0  0  0  0  0  0
    7.6561   -1.6469   22.5505 C   0  0  1  0  0  0  0  0  0  0  0  0
    6.4517   -1.4888   21.6236 C   0  0  0  0  0  0  0  0  0  0  0  0
    6.8570   -0.3647   20.8099 N   0  0  0  0  0  0  0  0  0  0  0  0
    6.0975    0.1366   19.7318 C   0  0  0  0  0  0  0  0  0  0  0  0
    6.4463   -0.1715   18.4462 C   0  0  0  0  0  0  0  0  0  0  0  0
    5.7548    0.2516   17.3644 N   0  0  0  0  0  0  0  0  0  0  0  0
    4.7141    1.0212   17.5677 C   0  0  0  0  0  0  0  0  0  0  0  0
    4.2531    1.4204   18.8565 C   0  0  0  0  0  0  0  0  0  0  0  0
    3.1275    2.2640   19.0478 C   0  0  0  0  0  0  0  0  0  0  0  0
    2.7340    2.6358   20.3053 C   0  0  0  0  0  0  0  0  0  0  0  0
    3.4525    2.1875   21.4382 C   0  0  0  0  0  0  0  0  0  0  0  0
    4.5437    1.3709   21.2807 C   0  0  0  0  0  0  0  0  0  0  0  0
    4.9726    0.9697   19.9842 C   0  0  0  0  0  0  0  0  0  0  0  0
    5.1199    1.0677   22.1518 H   0  0  0  0  0  0  0  0  0  0  0  0
    3.1722    2.5168   22.4342 H   0  0  0  0  0  0  0  0  0  0  0  0
    1.8799    3.2932   20.4385 H   0  0  0  0  0  0  0  0  0  0  0  0
    2.6126    2.6285   18.1639 H   0  0  0  0  0  0  0  0  0  0  0  0
    4.1799    1.3718   16.6835 H   0  0  0  0  0  0  0  0  0  0  0  0
    7.3190   -0.7933   18.2505 H   0  0  0  0  0  0  0  0  0  0  0  0
    7.8490    0.4123   21.3493 C   0  0  0  0  0  0  0  0  0  0  0  0
    8.2643    1.4366   20.8421 O   0  0  0  0  0  0  0  0  0  0  0  0
    8.3526   -0.2568   22.6366 C   0  0  1  0  0  0  0  0  0  0  0  0
    7.9239    0.4971   23.9149 C   0  0  0  0  0  0  0  0  0  0  0  0
    8.7033    1.7041   24.1452 N   0  0  0  0  0  0  0  0  0  0  0  0
    7.9803    2.8538   24.6778 C   0  0  0  0  0  0  0  0  0  0  0  0
    6.9292    3.3413   23.6631 C   0  0  0  0  0  0  0  0  0  0  0  0
    5.7298    3.1519   23.8146 O   0  0  0  0  0  0  0  0  0  0  0  0
    7.4381    4.0015   22.5814 N   0  0  0  0  0  0  0  0  0  0  0  0
    6.5113    4.3996   21.5347 C   0  0  0  0  0  0  0  0  0  0  0  0
    6.0952    3.5361   20.9972 H   0  0  0  0  0  0  0  0  0  0  0  0
    7.0197    5.0631   20.8329 H   0  0  0  0  0  0  0  0  0  0  0  0
    5.6691    4.9314   21.9828 H   0  0  0  0  0  0  0  0  0  0  0  0
    8.3594    3.7142   22.2754 H   0  0  0  0  0  0  0  0  0  0  0  0
    7.4346    2.5852   25.5896 H   0  0  0  0  0  0  0  0  0  0  0  0
    8.7311    3.6106   24.9403 H   0  0  0  0  0  0  0  0  0  0  0  0
   10.0783    1.6795   24.1182 C   0  0  0  0  0  0  0  0  0  0  0  0
   10.7605    2.5178   24.6917 O   0  0  0  0  0  0  0  0  0  0  0  0
   10.6728    0.5692   23.2765 C   0  0  0  0  0  0  0  0  0  0  0  0
   12.0593    0.4454   23.1665 C   0  0  0  0  0  0  0  0  0  0  0  0
   12.6366   -0.4596   22.2893 C   0  0  0  0  0  0  0  0  0  0  0  0
   11.8012   -1.2476   21.5003 C   0  0  0  0  0  0  0  0  0  0  0  0
   12.4109   -2.3828   20.3381 Cl  0  0  0  0  0  0  0  0  0  0  0  0
   10.4339   -1.1597   21.6134 C   0  0  0  0  0  0  0  0  0  0  0  0
    9.8550   -0.3029   22.5519 C   0  0  0  0  0  0  0  0  0  0  0  0
    9.8330   -1.7500   20.9319 H   0  0  0  0  0  0  0  0  0  0  0  0
   13.7120   -0.5414   22.1899 H   0  0  0  0  0  0  0  0  0  0  0  0
   12.6758    1.0845   23.7828 H   0  0  0  0  0  0  0  0  0  0  0  0
    8.0077   -0.1743   24.7792 H   0  0  0  0  0  0  0  0  0  0  0  0
    6.8728    0.7786   23.8222 H   0  0  0  0  0  0  0  0  0  0  0  0
    6.2923   -2.3733   20.9972 H   0  0  0  0  0  0  0  0  0  0  0  0
    5.5236   -1.2972   22.1811 H   0  0  0  0  0  0  0  0  0  0  0  0
    8.3605   -2.3199   22.0542 H   0  0  0  0  0  0  0  0  0  0  0  0
    8.1818   -2.7620   25.5123 H   0  0  0  0  0  0  0  0  0  0  0  0
    9.3269   -2.2879   24.2426 H   0  0  0  0  0  0  0  0  0  0  0  0
    8.9293   -4.3140   22.9544 H   0  0  0  0  0  0  0  0  0  0  0  0
    9.2113   -4.8416   24.6151 H   0  0  0  0  0  0  0  0  0  0  0  0
    7.5493   -4.7669   23.9739 H   0  0  0  0  0  0  0  0  0  0  0  0
  1  2  1  0
  2  3  1  0
  3  4  1  0
  4  5  1  0
  5  6  1  0
  6  7  1  0
  7  8  2  0
  8  9  1  0
  9 10  2  0
 10 11  1  0
 11 12  2  0
 12 13  1  0
 13 14  2  0
 14 15  1  0
 15 16  2  0
 15 17  1  0
 14 18  1  0
 13 19  1  0
 12 20  1  0
 10 21  1  0
  8 22  1  0
  6 23  1  0
 23 24  2  0
 23 25  1  0
 25 26  1  1
 26 27  1  0
 27 28  1  0
 28 29  1  0
 29 30  2  0
 29 31  1  0
 31 32  1  0
 32 33  1  0
 32 34  1  0
 32 35  1  0
 31 36  1  0
 28 37  1  0
 28 38  1  0
 27 39  1  0
 39 40  2  0
 39 41  1  0
 41 42  2  0
 42 43  1  0
 43 44  2  0
 44 45  1  0
 44 46  1  0
 46 47  2  0
 46 48  1  0
 43 49  1  0
 42 50  1  0
 26 51  1  0
 26 52  1  0
  5 53  1  0
  5 54  1  0
  4 55  1  6
  2 56  1  0
  2 57  1  0
  1 58  1  0
  1 59  1  0
  1 60  1  0
 25  4  1  0
 47 41  1  0
 16  7  1  0
 47 25  1  0
 16 11  1  0
M  END
>  <cnnaffinities>  (40) 
[6.07677]

>  <score>  (40) 
6.07677

>  <index>  (40) 
39

>  <Smiles>  (40) 
C(C(O[C@]1(C(N(c2c(nc(c3c(c(c(c(c23)[H])[H])[H])[H])[H])[H])C(=O)[C@]21C(N(C(C(=O)N(C([H])([H])[H])[H])([H])[H])C(=O)c1c(c(c(Cl)c(c21)[H])[H])[H])([H])[H])([H])[H])[H])([H])[H])([H])([H])[H]

>  <h>  (40) 
<NA>

>  <Training>  (40) 
True

>  <Success>  (40) 
True

>  <enamine_searched>  (40) 
False

>  <enamine_id>  (40) 
nan

$$$$

     RDKit          3D

 57 61  0  0  0  0  0  0  0  0999 V2000
    6.6724    4.3716   21.3210 C   0  0  0  0  0  0  0  0  0  0  0  0
    7.6397    4.0074   22.3438 N   0  0  0  0  0  0  0  0  0  0  0  0
    7.1346    3.3365   23.4182 C   0  0  0  0  0  0  0  0  0  0  0  0
    5.9310    3.1707   23.5592 O   0  0  0  0  0  0  0  0  0  0  0  0
    8.1064    2.8059   24.4701 C   0  0  0  0  0  0  0  0  0  0  0  0
    8.8115    1.6314   24.0003 N   0  0  0  0  0  0  0  0  0  0  0  0
    8.0647    0.3943   23.8710 C   0  0  0  0  0  0  0  0  0  0  0  0
    8.4692   -0.3766   22.6039 C   0  0  2  0  0  0  0  0  0  0  0  0
    7.9696    0.3210   21.3185 C   0  0  0  0  0  0  0  0  0  0  0  0
    8.4195    1.3251   20.8001 O   0  0  0  0  0  0  0  0  0  0  0  0
    6.9076   -0.3988   20.8287 N   0  0  0  0  0  0  0  0  0  0  0  0
    6.1260    0.0993   19.7629 C   0  0  0  0  0  0  0  0  0  0  0  0
    6.4612   -0.2092   18.4710 C   0  0  0  0  0  0  0  0  0  0  0  0
    5.7830    0.2320   17.3876 N   0  0  0  0  0  0  0  0  0  0  0  0
    4.7512    1.0139   17.5931 C   0  0  0  0  0  0  0  0  0  0  0  0
    4.2964    1.4077   18.8848 C   0  0  0  0  0  0  0  0  0  0  0  0
    3.1780    2.2623   19.0655 C   0  0  0  0  0  0  0  0  0  0  0  0
    2.7771    2.6305   20.3206 C   0  0  0  0  0  0  0  0  0  0  0  0
    3.4726    2.1648   21.4581 C   0  0  0  0  0  0  0  0  0  0  0  0
    4.5580    1.3336   21.3117 C   0  0  0  0  0  0  0  0  0  0  0  0
    4.9979    0.9336   20.0172 C   0  0  0  0  0  0  0  0  0  0  0  0
    5.1030    1.0099   22.1944 H   0  0  0  0  0  0  0  0  0  0  0  0
    3.1656    2.4774   22.4513 H   0  0  0  0  0  0  0  0  0  0  0  0
    1.9242    3.2891   20.4465 H   0  0  0  0  0  0  0  0  0  0  0  0
    2.6644    2.6268   18.1806 H   0  0  0  0  0  0  0  0  0  0  0  0
    4.2050    1.3719   16.7181 H   0  0  0  0  0  0  0  0  0  0  0  0
    7.3268   -0.8386   18.2755 H   0  0  0  0  0  0  0  0  0  0  0  0
    6.5570   -1.5602   21.6130 C   0  0  0  0  0  0  0  0  0  0  0  0
    7.7778   -1.7590   22.5095 C   0  0  2  0  0  0  0  0  0  0  0  0
    7.4407   -2.4866   23.8153 C   0  0  0  0  0  0  0  0  0  0  0  0
    6.9172   -3.8104   23.4658 C   0  0  0  0  0  0  0  0  0  0  0  0
    6.4972   -4.8110   23.0665 N   0  0  0  0  0  0  0  0  0  0  0  0
    8.3273   -2.6083   24.4433 H   0  0  0  0  0  0  0  0  0  0  0  0
    6.6784   -1.9471   24.3846 H   0  0  0  0  0  0  0  0  0  0  0  0
    8.4664   -2.4200   21.9863 H   0  0  0  0  0  0  0  0  0  0  0  0
    6.3869   -2.4303   20.9745 H   0  0  0  0  0  0  0  0  0  0  0  0
    5.6457   -1.3971   22.2076 H   0  0  0  0  0  0  0  0  0  0  0  0
    9.9727   -0.4315   22.5606 C   0  0  0  0  0  0  0  0  0  0  0  0
   10.5531   -1.3194   21.6644 C   0  0  0  0  0  0  0  0  0  0  0  0
   11.9172   -1.3418   21.5044 C   0  0  0  0  0  0  0  0  0  0  0  0
   12.4941   -2.4013   20.2644 Cl  0  0  0  0  0  0  0  0  0  0  0  0
   12.7660   -0.5282   22.2601 C   0  0  0  0  0  0  0  0  0  0  0  0
   12.1889    0.3983   23.1140 C   0  0  0  0  0  0  0  0  0  0  0  0
   10.7969    0.4812   23.2271 C   0  0  0  0  0  0  0  0  0  0  0  0
   10.1814    1.6364   23.9594 C   0  0  0  0  0  0  0  0  0  0  0  0
   10.8441    2.5452   24.4400 O   0  0  0  0  0  0  0  0  0  0  0  0
   12.7994    1.1023   23.6740 H   0  0  0  0  0  0  0  0  0  0  0  0
   13.8447   -0.6091   22.1554 H   0  0  0  0  0  0  0  0  0  0  0  0
    9.9509   -1.9998   21.0717 H   0  0  0  0  0  0  0  0  0  0  0  0
    6.9974    0.6289   23.8606 H   0  0  0  0  0  0  0  0  0  0  0  0
    8.2549   -0.2420   24.7448 H   0  0  0  0  0  0  0  0  0  0  0  0
    7.4858    2.5529   25.3434 H   0  0  0  0  0  0  0  0  0  0  0  0
    8.8633    3.5510   24.7413 H   0  0  0  0  0  0  0  0  0  0  0  0
    8.5963    3.8628   22.0411 H   0  0  0  0  0  0  0  0  0  0  0  0
    5.9252    5.0456   21.7480 H   0  0  0  0  0  0  0  0  0  0  0  0
    7.1733    4.9007   20.5129 H   0  0  0  0  0  0  0  0  0  0  0  0
    6.1703    3.4815   20.9144 H   0  0  0  0  0  0  0  0  0  0  0  0
  1  2  1  0
  2  3  1  0
  3  4  2  0
  3  5  1  0
  5  6  1  0
  6  7  1  0
  8  7  1  1
  8  9  1  0
  9 10  2  0
  9 11  1  0
 11 12  1  0
 12 13  2  0
 13 14  1  0
 14 15  2  0
 15 16  1  0
 16 17  2  0
 17 18  1  0
 18 19  2  0
 19 20  1  0
 20 21  2  0
 20 22  1  0
 19 23  1  0
 18 24  1  0
 17 25  1  0
 15 26  1  0
 13 27  1  0
 11 28  1  0
 28 29  1  0
 29 30  1  0
 30 31  1  0
 31 32  3  0
 30 33  1  0
 30 34  1  0
 29 35  1  6
 28 36  1  0
 28 37  1  0
  8 38  1  0
 38 39  2  0
 39 40  1  0
 40 41  1  0
 40 42  2  0
 42 43  1  0
 43 44  2  0
 44 45  1  0
 45 46  2  0
 43 47  1  0
 42 48  1  0
 39 49  1  0
  7 50  1  0
  7 51  1  0
  5 52  1  0
  5 53  1  0
  2 54  1  0
  1 55  1  0
  1 56  1  0
  1 57  1  0
 45  6  1  0
 29  8  1  0
 44 38  1  0
 21 12  1  0
 21 16  1  0
M  END
>  <cnnaffinities>  (41) 
[6.29975]

>  <score>  (41) 
6.29975

>  <index>  (41) 
40

>  <Smiles>  (41) 
C(N(C(=O)C(N1C([C@@]2(C(=O)N(c3c(nc(c4c(c(c(c(c34)[H])[H])[H])[H])[H])[H])C([C@@]2(C(C#N)([H])[H])[H])([H])[H])c2c(c(Cl)c(c(c2C1=O)[H])[H])[H])([H])[H])([H])[H])[H])([H])([H])[H]

>  <h>  (41) 
<NA>

>  <Training>  (41) 
True

>  <Success>  (41) 
True

>  <enamine_searched>  (41) 
False

>  <enamine_id>  (41) 
nan

$$$$

     RDKit          3D

 68 73  0  0  0  0  0  0  0  0999 V2000
    7.6035   -2.8263   23.4990 C   0  0  0  0  0  0  0  0  0  0  0  0
    7.8365   -1.7995   22.4021 C   0  0  1  0  0  0  0  0  0  0  0  0
    6.6869   -1.7192   21.3928 C   0  0  0  0  0  0  0  0  0  0  0  0
    6.8593   -0.3968   20.8401 N   0  0  0  0  0  0  0  0  0  0  0  0
    6.0990    0.1159   19.7744 C   0  0  0  0  0  0  0  0  0  0  0  0
    6.4067   -0.2366   18.4870 C   0  0  0  0  0  0  0  0  0  0  0  0
    5.7395    0.2128   17.4016 N   0  0  0  0  0  0  0  0  0  0  0  0
    4.7318    1.0239   17.6111 C   0  0  0  0  0  0  0  0  0  0  0  0
    4.2900    1.4370   18.9003 C   0  0  0  0  0  0  0  0  0  0  0  0
    3.1651    2.2819   19.0686 C   0  0  0  0  0  0  0  0  0  0  0  0
    2.7416    2.6506   20.3141 C   0  0  0  0  0  0  0  0  0  0  0  0
    3.4405    2.1994   21.4608 C   0  0  0  0  0  0  0  0  0  0  0  0
    4.5443    1.3954   21.3252 C   0  0  0  0  0  0  0  0  0  0  0  0
    4.9975    0.9845   20.0346 C   0  0  0  0  0  0  0  0  0  0  0  0
    5.0740    1.0551   22.2128 H   0  0  0  0  0  0  0  0  0  0  0  0
    3.0960    2.5120   22.4423 H   0  0  0  0  0  0  0  0  0  0  0  0
    1.8720    3.2921   20.4307 H   0  0  0  0  0  0  0  0  0  0  0  0
    2.6615    2.6308   18.1712 H   0  0  0  0  0  0  0  0  0  0  0  0
    4.2039    1.3958   16.7336 H   0  0  0  0  0  0  0  0  0  0  0  0
    7.2486   -0.9024   18.2974 H   0  0  0  0  0  0  0  0  0  0  0  0
    7.6341    0.4396   21.6018 C   0  0  0  0  0  0  0  0  0  0  0  0
    7.8708    1.5938   21.3058 O   0  0  0  0  0  0  0  0  0  0  0  0
    8.0955   -0.3304   22.8541 C   0  0  1  0  0  0  0  0  0  0  0  0
    7.2208    0.0406   24.0860 C   0  0  0  0  0  0  0  0  0  0  0  0
    7.4941    1.3696   24.5908 N   0  0  0  0  0  0  0  0  0  0  0  0
    6.4540    2.3398   24.8573 C   0  0  0  0  0  0  0  0  0  0  0  0
    6.4796    3.4376   23.8000 C   0  0  0  0  0  0  0  0  0  0  0  0
    5.3141    4.3360   23.9066 N   0  0  0  0  0  4  0  0  0  0  0  0
    5.1891    5.1323   22.6374 C   0  0  0  0  0  0  0  0  0  0  0  0
    4.1815    6.2842   22.7675 C   0  0  0  0  0  0  0  0  0  0  0  0
    2.9640    5.8381   24.0199 S   0  0  0  0  0  0  0  0  0  0  0  0
    2.0155    6.9291   24.2089 O   0  0  0  0  0  0  0  0  0  0  0  0
    2.4958    4.4937   23.6491 O   0  0  0  0  0  0  0  0  0  0  0  0
    3.9368    5.6171   25.5258 C   0  0  0  0  0  0  0  0  0  0  0  0
    5.3512    5.1960   25.1315 C   0  0  0  0  0  0  0  0  0  0  0  0
    5.7911    4.6252   25.9520 H   0  0  0  0  0  0  0  0  0  0  0  0
    5.9926    6.0641   24.9429 H   0  0  0  0  0  0  0  0  0  0  0  0
    3.9273    6.5260   26.1310 H   0  0  0  0  0  0  0  0  0  0  0  0
    3.4167    4.8183   26.0669 H   0  0  0  0  0  0  0  0  0  0  0  0
    4.6519    7.2394   23.0262 H   0  0  0  0  0  0  0  0  0  0  0  0
    3.6105    6.3984   21.8415 H   0  0  0  0  0  0  0  0  0  0  0  0
    4.8717    4.4297   21.8553 H   0  0  0  0  0  0  0  0  0  0  0  0
    6.1763    5.5262   22.3744 H   0  0  0  0  0  0  0  0  0  0  0  0
    4.4478    3.7631   23.9471 H   0  0  0  0  0  0  0  0  0  0  0  0
    7.4004    4.0276   23.8905 H   0  0  0  0  0  0  0  0  0  0  0  0
    6.4953    2.9819   22.8054 H   0  0  0  0  0  0  0  0  0  0  0  0
    6.6502    2.7610   25.8439 H   0  0  0  0  0  0  0  0  0  0  0  0
    5.4656    1.8639   24.8745 H   0  0  0  0  0  0  0  0  0  0  0  0
    8.7741    1.7798   24.8239 C   0  0  0  0  0  0  0  0  0  0  0  0
    9.0414    2.7428   25.5416 O   0  0  0  0  0  0  0  0  0  0  0  0
    9.8380    1.0159   24.1032 C   0  0  0  0  0  0  0  0  0  0  0  0
   11.1552    1.3654   24.3865 C   0  0  0  0  0  0  0  0  0  0  0  0
   12.2045    0.6868   23.7998 C   0  0  0  0  0  0  0  0  0  0  0  0
   11.8988   -0.3498   22.9175 C   0  0  0  0  0  0  0  0  0  0  0  0
   13.1812   -1.3605   22.3328 Cl  0  0  0  0  0  0  0  0  0  0  0  0
   10.6018   -0.6365   22.5389 C   0  0  0  0  0  0  0  0  0  0  0  0
    9.5343    0.0071   23.1781 C   0  0  0  0  0  0  0  0  0  0  0  0
   10.4615   -1.3529   21.7320 H   0  0  0  0  0  0  0  0  0  0  0  0
   13.2369    0.9426   24.0081 H   0  0  0  0  0  0  0  0  0  0  0  0
   11.3088    2.1648   25.0943 H   0  0  0  0  0  0  0  0  0  0  0  0
    6.1586   -0.0431   23.8319 H   0  0  0  0  0  0  0  0  0  0  0  0
    7.4365   -0.6831   24.8832 H   0  0  0  0  0  0  0  0  0  0  0  0
    6.7500   -2.4789   20.6093 H   0  0  0  0  0  0  0  0  0  0  0  0
    5.7057   -1.8308   21.8772 H   0  0  0  0  0  0  0  0  0  0  0  0
    8.7104   -2.1000   21.8220 H   0  0  0  0  0  0  0  0  0  0  0  0
    6.6821   -2.6095   24.0518 H   0  0  0  0  0  0  0  0  0  0  0  0
    8.4319   -2.8396   24.2144 H   0  0  0  0  0  0  0  0  0  0  0  0
    7.4990   -3.8285   23.0698 H   0  0  0  0  0  0  0  0  0  0  0  0
  1  2  1  0
  2  3  1  0
  3  4  1  0
  4  5  1  0
  5  6  2  0
  6  7  1  0
  7  8  2  0
  8  9  1  0
  9 10  2  0
 10 11  1  0
 11 12  2  0
 12 13  1  0
 13 14  2  0
 13 15  1  0
 12 16  1  0
 11 17  1  0
 10 18  1  0
  8 19  1  0
  6 20  1  0
  4 21  1  0
 21 22  2  0
 21 23  1  0
 23 24  1  1
 24 25  1  0
 25 26  1  0
 26 27  1  0
 27 28  1  0
 28 29  1  0
 29 30  1  0
 30 31  1  0
 31 32  2  0
 31 33  2  0
 31 34  1  0
 34 35  1  0
 35 36  1  0
 35 37  1  0
 34 38  1  0
 34 39  1  0
 30 40  1  0
 30 41  1  0
 29 42  1  0
 29 43  1  0
 28 44  1  0
 27 45  1  0
 27 46  1  0
 26 47  1  0
 26 48  1  0
 25 49  1  0
 49 50  2  0
 49 51  1  0
 51 52  2  0
 52 53  1  0
 53 54  2  0
 54 55  1  0
 54 56  1  0
 56 57  2  0
 56 58  1  0
 53 59  1  0
 52 60  1  0
 24 61  1  0
 24 62  1  0
  3 63  1  0
  3 64  1  0
  2 65  1  6
  1 66  1  0
  1 67  1  0
  1 68  1  0
 23  2  1  0
 35 28  1  0
 57 51  1  0
 14  5  1  0
 57 23  1  0
 14  9  1  0
M  CHG  1  28   1
M  END
>  <cnnaffinities>  (42) 
[6.47149]

>  <score>  (42) 
6.47149

>  <index>  (42) 
41

>  <Smiles>  (42) 
C([C@]1(C(N(c2c(nc(c3c(c(c(c(c23)[H])[H])[H])[H])[H])[H])C(=O)[C@]21C(N(C(C([N+]1(C(C(S(=O)(=O)C(C1([H])[H])([H])[H])([H])[H])([H])[H])[H])([H])[H])([H])[H])C(=O)c1c(c(c(Cl)c(c21)[H])[H])[H])([H])[H])([H])[H])[H])([H])([H])[H]

>  <h>  (42) 
<NA>

>  <Training>  (42) 
True

>  <Success>  (42) 
True

>  <enamine_searched>  (42) 
False

>  <enamine_id>  (42) 
nan

$$$$

     RDKit          3D

 60 65  0  0  0  0  0  0  0  0999 V2000
    6.5984    4.3708   21.3390 C   0  0  0  0  0  0  0  0  0  0  0  0
    7.5911    3.9945   22.3322 N   0  0  0  0  0  0  0  0  0  0  0  0
    7.1321    3.3332   23.4383 C   0  0  0  0  0  0  0  0  0  0  0  0
    5.9433    3.1278   23.6208 O   0  0  0  0  0  0  0  0  0  0  0  0
    8.1602    2.8405   24.4551 C   0  0  0  0  0  0  0  0  0  0  0  0
    8.8361    1.6533   23.9799 N   0  0  0  0  0  0  0  0  0  0  0  0
    8.0562    0.4267   23.8730 C   0  0  0  0  0  0  0  0  0  0  0  0
    8.4539   -0.3702   22.6150 C   0  0  2  0  0  0  0  0  0  0  0  0
    7.9513    0.2980   21.3159 C   0  0  0  0  0  0  0  0  0  0  0  0
    8.4190    1.2743   20.7581 O   0  0  0  0  0  0  0  0  0  0  0  0
    6.8919   -0.4352   20.8306 N   0  0  0  0  0  0  0  0  0  0  0  0
    6.1124    0.0731   19.7685 C   0  0  0  0  0  0  0  0  0  0  0  0
    6.4663   -0.2122   18.4764 C   0  0  0  0  0  0  0  0  0  0  0  0
    5.7912    0.2285   17.3923 N   0  0  0  0  0  0  0  0  0  0  0  0
    4.7526    0.9995   17.6064 C   0  0  0  0  0  0  0  0  0  0  0  0
    4.2932    1.3917   18.8954 C   0  0  0  0  0  0  0  0  0  0  0  0
    3.1764    2.2474   19.0705 C   0  0  0  0  0  0  0  0  0  0  0  0
    2.7769    2.6228   20.3240 C   0  0  0  0  0  0  0  0  0  0  0  0
    3.4774    2.1633   21.4624 C   0  0  0  0  0  0  0  0  0  0  0  0
    4.5600    1.3285   21.3207 C   0  0  0  0  0  0  0  0  0  0  0  0
    4.9929    0.9176   20.0276 C   0  0  0  0  0  0  0  0  0  0  0  0
    5.1156    1.0201   22.2019 H   0  0  0  0  0  0  0  0  0  0  0  0
    3.1742    2.4895   22.4517 H   0  0  0  0  0  0  0  0  0  0  0  0
    1.9235    3.2814   20.4460 H   0  0  0  0  0  0  0  0  0  0  0  0
    2.6664    2.6084   18.1826 H   0  0  0  0  0  0  0  0  0  0  0  0
    4.2181    1.3584   16.7294 H   0  0  0  0  0  0  0  0  0  0  0  0
    7.3383   -0.8356   18.2930 H   0  0  0  0  0  0  0  0  0  0  0  0
    6.5277   -1.5727   21.6451 C   0  0  0  0  0  0  0  0  0  0  0  0
    7.7539   -1.7506   22.5456 C   0  0  2  0  0  0  0  0  0  0  0  0
    7.4271   -2.4985   23.8443 C   0  0  0  0  0  0  0  0  0  0  0  0
    6.8887   -3.8339   23.4316 C   0  0  0  0  0  0  0  0  0  0  0  0
    5.5956   -4.1215   23.3664 N   0  0  0  0  0  0  0  0  0  0  0  0
    5.5449   -5.3472   22.8459 N   0  0  0  0  0  0  0  0  0  0  0  0
    6.7578   -5.7661   22.6029 N   0  0  0  0  0  2  0  0  0  0  0  0
    7.6315   -4.8270   22.9624 N   0  0  0  0  0  0  0  0  0  0  0  0
    6.6597   -1.9817   24.4298 H   0  0  0  0  0  0  0  0  0  0  0  0
    8.3303   -2.6335   24.4491 H   0  0  0  0  0  0  0  0  0  0  0  0
    8.4348   -2.4243   22.0185 H   0  0  0  0  0  0  0  0  0  0  0  0
    6.3509   -2.4791   21.0527 H   0  0  0  0  0  0  0  0  0  0  0  0
    5.6152   -1.3801   22.2328 H   0  0  0  0  0  0  0  0  0  0  0  0
    9.9577   -0.4424   22.5336 C   0  0  0  0  0  0  0  0  0  0  0  0
   10.5216   -1.3366   21.6238 C   0  0  0  0  0  0  0  0  0  0  0  0
   11.8815   -1.3784   21.4447 C   0  0  0  0  0  0  0  0  0  0  0  0
   12.4589   -2.4608   20.2188 Cl  0  0  0  0  0  0  0  0  0  0  0  0
   12.7345   -0.5742   22.2004 C   0  0  0  0  0  0  0  0  0  0  0  0
   12.1849    0.3447   23.0775 C   0  0  0  0  0  0  0  0  0  0  0  0
   10.7962    0.4592   23.1941 C   0  0  0  0  0  0  0  0  0  0  0  0
   10.2119    1.6249   23.9380 C   0  0  0  0  0  0  0  0  0  0  0  0
   10.9144    2.4970   24.4280 O   0  0  0  0  0  0  0  0  0  0  0  0
   12.8117    1.0149   23.6585 H   0  0  0  0  0  0  0  0  0  0  0  0
   13.8038   -0.6509   22.0592 H   0  0  0  0  0  0  0  0  0  0  0  0
    9.9256   -2.0073   21.0171 H   0  0  0  0  0  0  0  0  0  0  0  0
    6.9894    0.6855   23.8272 H   0  0  0  0  0  0  0  0  0  0  0  0
    8.2304   -0.2085   24.7573 H   0  0  0  0  0  0  0  0  0  0  0  0
    7.6136    2.6206   25.3781 H   0  0  0  0  0  0  0  0  0  0  0  0
    8.9289    3.5784   24.6841 H   0  0  0  0  0  0  0  0  0  0  0  0
    8.5127    3.7860   21.9708 H   0  0  0  0  0  0  0  0  0  0  0  0
    6.1196    3.4762   20.9170 H   0  0  0  0  0  0  0  0  0  0  0  0
    5.8251    4.9750   21.8208 H   0  0  0  0  0  0  0  0  0  0  0  0
    7.0710    4.9674   20.5498 H   0  0  0  0  0  0  0  0  0  0  0  0
  1  2  1  0
  2  3  1  0
  3  4  2  0
  3  5  1  0
  5  6  1  0
  6  7  1  0
  8  7  1  1
  8  9  1  0
  9 10  2  0
  9 11  1  0
 11 12  1  0
 12 13  2  0
 13 14  1  0
 14 15  2  0
 15 16  1  0
 16 17  2  0
 17 18  1  0
 18 19  2  0
 19 20  1  0
 20 21  2  0
 20 22  1  0
 19 23  1  0
 18 24  1  0
 17 25  1  0
 15 26  1  0
 13 27  1  0
 11 28  1  0
 28 29  1  0
 29 30  1  0
 30 31  1  0
 31 32  1  0
 32 33  2  0
 33 34  1  0
 34 35  1  0
 30 36  1  0
 30 37  1  0
 29 38  1  6
 28 39  1  0
 28 40  1  0
  8 41  1  0
 41 42  2  0
 42 43  1  0
 43 44  1  0
 43 45  2  0
 45 46  1  0
 46 47  2  0
 47 48  1  0
 48 49  2  0
 46 50  1  0
 45 51  1  0
 42 52  1  0
  7 53  1  0
  7 54  1  0
  5 55  1  0
  5 56  1  0
  2 57  1  0
  1 58  1  0
  1 59  1  0
  1 60  1  0
 48  6  1  0
 29  8  1  0
 35 31  2  0
 47 41  1  0
 21 12  1  0
 21 16  1  0
M  CHG  1  34  -1
M  END
>  <cnnaffinities>  (43) 
[6.58506, 6.56036]

>  <score>  (43) 
6.58506

>  <index>  (43) 
42

>  <Smiles>  (43) 
C(N(C(=O)C(N1C([C@@]2(C(=O)N(c3c(nc(c4c(c(c(c(c34)[H])[H])[H])[H])[H])[H])C([C@@]2(C(c2nn[n-]n2)([H])[H])[H])([H])[H])c2c(c(Cl)c(c(c2C1=O)[H])[H])[H])([H])[H])([H])[H])[H])([H])([H])[H]

>  <h>  (43) 
<NA>

>  <Training>  (43) 
True

>  <Success>  (43) 
True

>  <enamine_searched>  (43) 
False

>  <enamine_id>  (43) 
nan

$$$$

     RDKit          3D

 62 67  0  0  0  0  0  0  0  0999 V2000
    6.5016    4.2584   28.0448 C   0  0  0  0  0  0  0  0  0  0  0  0
    5.2311    3.9513   27.2526 C   0  0  0  0  0  0  0  0  0  0  0  0
    5.4348    3.9981   25.8078 N   0  0  0  0  0  0  0  0  0  0  0  0
    5.1917    5.1453   25.1523 N   0  0  0  0  0  0  0  0  0  0  0  0
    5.5169    4.9032   23.8889 C   0  0  0  0  0  0  0  0  0  0  0  0
    5.9907    3.5836   23.7288 C   0  0  0  0  0  0  0  0  0  0  0  0
    5.9420    3.0355   24.9894 C   0  0  0  0  0  0  0  0  0  0  0  0
    6.3060    1.6412   25.4152 C   0  0  0  0  0  0  0  0  0  0  0  0
    7.4336    1.1000   24.6730 N   0  0  0  0  0  0  0  0  0  0  0  0
    7.3290   -0.2296   24.0968 C   0  0  0  0  0  0  0  0  0  0  0  0
    8.2175   -0.4009   22.8371 C   0  0  2  0  0  0  0  0  0  0  0  0
    7.6432    0.4492   21.6738 C   0  0  0  0  0  0  0  0  0  0  0  0
    7.7709    1.6457   21.5040 O   0  0  0  0  0  0  0  0  0  0  0  0
    6.9333   -0.3793   20.8411 N   0  0  0  0  0  0  0  0  0  0  0  0
    6.1453    0.1140   19.7728 C   0  0  0  0  0  0  0  0  0  0  0  0
    6.4437   -0.2243   18.4773 C   0  0  0  0  0  0  0  0  0  0  0  0
    5.7624    0.2198   17.3956 N   0  0  0  0  0  0  0  0  0  0  0  0
    4.7454    1.0188   17.6007 C   0  0  0  0  0  0  0  0  0  0  0  0
    4.2987    1.4186   18.8902 C   0  0  0  0  0  0  0  0  0  0  0  0
    3.1726    2.2687   19.0650 C   0  0  0  0  0  0  0  0  0  0  0  0
    2.7537    2.6244   20.3155 C   0  0  0  0  0  0  0  0  0  0  0  0
    3.4347    2.1308   21.4528 C   0  0  0  0  0  0  0  0  0  0  0  0
    4.5211    1.3052   21.3087 C   0  0  0  0  0  0  0  0  0  0  0  0
    5.0047    0.9461   20.0199 C   0  0  0  0  0  0  0  0  0  0  0  0
    5.0251    0.9178   22.1891 H   0  0  0  0  0  0  0  0  0  0  0  0
    3.0959    2.4119   22.4447 H   0  0  0  0  0  0  0  0  0  0  0  0
    1.9038    3.2891   20.4422 H   0  0  0  0  0  0  0  0  0  0  0  0
    2.6684    2.6409   18.1757 H   0  0  0  0  0  0  0  0  0  0  0  0
    4.2195    1.3847   16.7178 H   0  0  0  0  0  0  0  0  0  0  0  0
    7.2890   -0.8762   18.2618 H   0  0  0  0  0  0  0  0  0  0  0  0
    6.9599   -1.7729   21.2367 C   0  0  0  0  0  0  0  0  0  0  0  0
    8.0995   -1.8516   22.2701 C   0  0  2  0  0  0  0  0  0  0  0  0
    7.9067   -2.9846   23.2861 C   0  0  0  0  0  0  0  0  0  0  0  0
    7.9345   -3.9638   22.7936 H   0  0  0  0  0  0  0  0  0  0  0  0
    8.6832   -2.9807   24.0611 H   0  0  0  0  0  0  0  0  0  0  0  0
    6.9352   -2.9045   23.7903 H   0  0  0  0  0  0  0  0  0  0  0  0
    9.0271   -2.0412   21.7234 H   0  0  0  0  0  0  0  0  0  0  0  0
    7.1423   -2.3883   20.3576 H   0  0  0  0  0  0  0  0  0  0  0  0
    5.9992   -2.0872   21.6728 H   0  0  0  0  0  0  0  0  0  0  0  0
    9.6190    0.0714   23.1629 C   0  0  0  0  0  0  0  0  0  0  0  0
   10.7241   -0.3203   22.3946 C   0  0  0  0  0  0  0  0  0  0  0  0
   11.9740    0.1770   22.7041 C   0  0  0  0  0  0  0  0  0  0  0  0
   13.0285   -0.2151   21.9701 F   0  0  0  0  0  0  0  0  0  0  0  0
   12.1846    1.0815   23.7396 C   0  0  0  0  0  0  0  0  0  0  0  0
   11.0849    1.5193   24.4485 C   0  0  0  0  0  0  0  0  0  0  0  0
    9.8121    1.0381   24.1601 C   0  0  0  0  0  0  0  0  0  0  0  0
    8.6653    1.6366   24.9225 C   0  0  0  0  0  0  0  0  0  0  0  0
    8.8267    2.5591   25.7136 O   0  0  0  0  0  0  0  0  0  0  0  0
   11.1291    2.2659   25.2285 H   0  0  0  0  0  0  0  0  0  0  0  0
   13.1912    1.4308   23.9313 H   0  0  0  0  0  0  0  0  0  0  0  0
   10.6400   -0.9796   21.5358 H   0  0  0  0  0  0  0  0  0  0  0  0
    7.6213   -0.9898   24.8376 H   0  0  0  0  0  0  0  0  0  0  0  0
    6.2870   -0.4013   23.8079 H   0  0  0  0  0  0  0  0  0  0  0  0
    5.4633    0.9727   25.2165 H   0  0  0  0  0  0  0  0  0  0  0  0
    6.5099    1.6081   26.4935 H   0  0  0  0  0  0  0  0  0  0  0  0
    6.3220    3.0577   22.8387 H   0  0  0  0  0  0  0  0  0  0  0  0
    5.4063    5.7007   23.1609 H   0  0  0  0  0  0  0  0  0  0  0  0
    4.4433    4.6820   27.4656 H   0  0  0  0  0  0  0  0  0  0  0  0
    4.8441    2.9564   27.5054 H   0  0  0  0  0  0  0  0  0  0  0  0
    7.2937    3.5411   27.7999 H   0  0  0  0  0  0  0  0  0  0  0  0
    6.2909    4.1973   29.1171 H   0  0  0  0  0  0  0  0  0  0  0  0
    6.8616    5.2678   27.8233 H   0  0  0  0  0  0  0  0  0  0  0  0
  1  2  1  0
  2  3  1  0
  3  4  1  0
  4  5  2  0
  5  6  1  0
  6  7  2  0
  7  8  1  0
  8  9  1  0
  9 10  1  0
 11 10  1  1
 11 12  1  0
 12 13  2  0
 12 14  1  0
 14 15  1  0
 15 16  2  0
 16 17  1  0
 17 18  2  0
 18 19  1  0
 19 20  2  0
 20 21  1  0
 21 22  2  0
 22 23  1  0
 23 24  2  0
 23 25  1  0
 22 26  1  0
 21 27  1  0
 20 28  1  0
 18 29  1  0
 16 30  1  0
 14 31  1  0
 31 32  1  0
 32 33  1  0
 33 34  1  0
 33 35  1  0
 33 36  1  0
 32 37  1  6
 31 38  1  0
 31 39  1  0
 11 40  1  0
 40 41  2  0
 41 42  1  0
 42 43  1  0
 42 44  2  0
 44 45  1  0
 45 46  2  0
 46 47  1  0
 47 48  2  0
 45 49  1  0
 44 50  1  0
 41 51  1  0
 10 52  1  0
 10 53  1  0
  8 54  1  0
  8 55  1  0
  6 56  1  0
  5 57  1  0
  2 58  1  0
  2 59  1  0
  1 60  1  0
  1 61  1  0
  1 62  1  0
  7  3  1  0
 47  9  1  0
 32 11  1  0
 46 40  1  0
 24 15  1  0
 24 19  1  0
M  END
>  <cnnaffinities>  (44) 
[6.54941, 5.99289]

>  <score>  (44) 
6.54941

>  <index>  (44) 
43

>  <Smiles>  (44) 
C(C(n1nc(c(c1C(N1C([C@@]2(C(=O)N(c3c(nc(c4c(c(c(c(c34)[H])[H])[H])[H])[H])[H])C([C@@]2(C([H])([H])[H])[H])([H])[H])c2c(c(F)c(c(c2C1=O)[H])[H])[H])([H])[H])([H])[H])[H])[H])([H])[H])([H])([H])[H]

>  <h>  (44) 
<NA>

>  <Training>  (44) 
True

>  <Success>  (44) 
True

>  <enamine_searched>  (44) 
False

>  <enamine_id>  (44) 
nan

$$$$

     RDKit          3D

 56 60  0  0  0  0  0  0  0  0999 V2000
    6.6538    4.3527   21.2994 C   0  0  0  0  0  0  0  0  0  0  0  0
    7.6492    3.9735   22.2886 N   0  0  0  0  0  0  0  0  0  0  0  0
    7.1836    3.3178   23.3908 C   0  0  0  0  0  0  0  0  0  0  0  0
    5.9859    3.1450   23.5783 O   0  0  0  0  0  0  0  0  0  0  0  0
    8.1829    2.8013   24.4169 C   0  0  0  0  0  0  0  0  0  0  0  0
    8.8665    1.6138   23.9393 N   0  0  0  0  0  0  0  0  0  0  0  0
    8.1114    0.3721   23.8426 C   0  0  0  0  0  0  0  0  0  0  0  0
    8.4950   -0.4184   22.5736 C   0  0  2  0  0  0  0  0  0  0  0  0
    7.9970    0.2794   21.2889 C   0  0  0  0  0  0  0  0  0  0  0  0
    8.4842    1.2523   20.7430 O   0  0  0  0  0  0  0  0  0  0  0  0
    6.9043   -0.4115   20.8272 N   0  0  0  0  0  0  0  0  0  0  0  0
    6.1260    0.0970   19.7639 C   0  0  0  0  0  0  0  0  0  0  0  0
    6.4665   -0.2036   18.4713 C   0  0  0  0  0  0  0  0  0  0  0  0
    5.7852    0.2326   17.3893 N   0  0  0  0  0  0  0  0  0  0  0  0
    4.7507    1.0094   17.5986 C   0  0  0  0  0  0  0  0  0  0  0  0
    4.2956    1.4025   18.8900 C   0  0  0  0  0  0  0  0  0  0  0  0
    3.1783    2.2576   19.0675 C   0  0  0  0  0  0  0  0  0  0  0  0
    2.7799    2.6299   20.3226 C   0  0  0  0  0  0  0  0  0  0  0  0
    3.4777    2.1655   21.4591 C   0  0  0  0  0  0  0  0  0  0  0  0
    4.5598    1.3317   21.3148 C   0  0  0  0  0  0  0  0  0  0  0  0
    4.9970    0.9289   20.0207 C   0  0  0  0  0  0  0  0  0  0  0  0
    5.1116    1.0184   22.1959 H   0  0  0  0  0  0  0  0  0  0  0  0
    3.1720    2.4846   22.4504 H   0  0  0  0  0  0  0  0  0  0  0  0
    1.9282    3.2895   20.4469 H   0  0  0  0  0  0  0  0  0  0  0  0
    2.6671    2.6220   18.1823 H   0  0  0  0  0  0  0  0  0  0  0  0
    4.2095    1.3672   16.7229 H   0  0  0  0  0  0  0  0  0  0  0  0
    7.3315   -0.8348   18.2795 H   0  0  0  0  0  0  0  0  0  0  0  0
    6.5267   -1.5494   21.6372 C   0  0  0  0  0  0  0  0  0  0  0  0
    7.7819   -1.7989   22.4827 C   0  0  2  0  0  0  0  0  0  0  0  0
    7.4350   -2.5349   23.7675 C   0  0  0  0  0  0  0  0  0  0  0  0
    8.8787   -3.0182   24.7054 Cl  0  0  0  0  0  0  0  0  0  0  0  0
    6.8108   -1.9198   24.4211 H   0  0  0  0  0  0  0  0  0  0  0  0
    6.8995   -3.4555   23.5283 H   0  0  0  0  0  0  0  0  0  0  0  0
    8.4289   -2.4636   21.9106 H   0  0  0  0  0  0  0  0  0  0  0  0
    5.6509   -1.3389   22.2715 H   0  0  0  0  0  0  0  0  0  0  0  0
    6.2944   -2.4096   21.0038 H   0  0  0  0  0  0  0  0  0  0  0  0
    9.9959   -0.4824   22.5052 C   0  0  0  0  0  0  0  0  0  0  0  0
   10.5658   -1.3749   21.6063 C   0  0  0  0  0  0  0  0  0  0  0  0
   11.9275   -1.3999   21.4365 C   0  0  0  0  0  0  0  0  0  0  0  0
   12.4881   -2.4733   20.2035 Cl  0  0  0  0  0  0  0  0  0  0  0  0
   12.7874   -0.5935   22.1815 C   0  0  0  0  0  0  0  0  0  0  0  0
   12.2270    0.3310   23.0430 C   0  0  0  0  0  0  0  0  0  0  0  0
   10.8356    0.4281   23.1550 C   0  0  0  0  0  0  0  0  0  0  0  0
   10.2370    1.5985   23.8828 C   0  0  0  0  0  0  0  0  0  0  0  0
   10.9290    2.4919   24.3479 O   0  0  0  0  0  0  0  0  0  0  0  0
   12.8478    1.0132   23.6158 H   0  0  0  0  0  0  0  0  0  0  0  0
   13.8601   -0.6684   22.0526 H   0  0  0  0  0  0  0  0  0  0  0  0
    9.9842   -2.0698   21.0121 H   0  0  0  0  0  0  0  0  0  0  0  0
    7.0447    0.6145   23.8288 H   0  0  0  0  0  0  0  0  0  0  0  0
    8.3141   -0.2538   24.7251 H   0  0  0  0  0  0  0  0  0  0  0  0
    7.6105    2.5664   25.3241 H   0  0  0  0  0  0  0  0  0  0  0  0
    8.9514    3.5360   24.6641 H   0  0  0  0  0  0  0  0  0  0  0  0
    8.5767    3.7927   21.9383 H   0  0  0  0  0  0  0  0  0  0  0  0
    5.9061    4.9909   21.7770 H   0  0  0  0  0  0  0  0  0  0  0  0
    7.1313    4.9261   20.4999 H   0  0  0  0  0  0  0  0  0  0  0  0
    6.1615    3.4544   20.8944 H   0  0  0  0  0  0  0  0  0  0  0  0
  1  2  1  0
  2  3  1  0
  3  4  2  0
  3  5  1  0
  5  6  1  0
  6  7  1  0
  8  7  1  1
  8  9  1  0
  9 10  2  0
  9 11  1  0
 11 12  1  0
 12 13  2  0
 13 14  1  0
 14 15  2  0
 15 16  1  0
 16 17  2  0
 17 18  1  0
 18 19  2  0
 19 20  1  0
 20 21  2  0
 20 22  1  0
 19 23  1  0
 18 24  1  0
 17 25  1  0
 15 26  1  0
 13 27  1  0
 11 28  1  0
 28 29  1  0
 29 30  1  0
 30 31  1  0
 30 32  1  0
 30 33  1  0
 29 34  1  6
 28 35  1  0
 28 36  1  0
  8 37  1  0
 37 38  2  0
 38 39  1  0
 39 40  1  0
 39 41  2  0
 41 42  1  0
 42 43  2  0
 43 44  1  0
 44 45  2  0
 42 46  1  0
 41 47  1  0
 38 48  1  0
  7 49  1  0
  7 50  1  0
  5 51  1  0
  5 52  1  0
  2 53  1  0
  1 54  1  0
  1 55  1  0
  1 56  1  0
 44  6  1  0
 29  8  1  0
 43 37  1  0
 21 12  1  0
 21 16  1  0
M  END
>  <cnnaffinities>  (45) 
[6.46177]

>  <score>  (45) 
6.46177

>  <index>  (45) 
44

>  <Smiles>  (45) 
C(N(C(=O)C(N1C([C@@]2(C(=O)N(c3c(nc(c4c(c(c(c(c34)[H])[H])[H])[H])[H])[H])C([C@@]2(C(Cl)([H])[H])[H])([H])[H])c2c(c(Cl)c(c(c2C1=O)[H])[H])[H])([H])[H])([H])[H])[H])([H])([H])[H]

>  <h>  (45) 
<NA>

>  <Training>  (45) 
True

>  <Success>  (45) 
True

>  <enamine_searched>  (45) 
False

>  <enamine_id>  (45) 
nan

$$$$

     RDKit          3D

 60 64  0  0  0  0  0  0  0  0999 V2000
    6.5985    4.3638   21.3410 C   0  0  0  0  0  0  0  0  0  0  0  0
    7.5919    3.9784   22.3324 N   0  0  0  0  0  0  0  0  0  0  0  0
    7.1343    3.3184   23.4395 C   0  0  0  0  0  0  0  0  0  0  0  0
    5.9402    3.1273   23.6297 O   0  0  0  0  0  0  0  0  0  0  0  0
    8.1670    2.8210   24.4502 C   0  0  0  0  0  0  0  0  0  0  0  0
    8.8444    1.6299   23.9776 N   0  0  0  0  0  0  0  0  0  0  0  0
    8.0698    0.3963   23.8739 C   0  0  0  0  0  0  0  0  0  0  0  0
    8.4585   -0.3988   22.6067 C   0  0  2  0  0  0  0  0  0  0  0  0
    7.9701    0.2975   21.3176 C   0  0  0  0  0  0  0  0  0  0  0  0
    8.4559    1.2725   20.7734 O   0  0  0  0  0  0  0  0  0  0  0  0
    6.9006   -0.4092   20.8259 N   0  0  0  0  0  0  0  0  0  0  0  0
    6.1285    0.1025   19.7605 C   0  0  0  0  0  0  0  0  0  0  0  0
    6.4736   -0.1964   18.4685 C   0  0  0  0  0  0  0  0  0  0  0  0
    5.7890    0.2354   17.3866 N   0  0  0  0  0  0  0  0  0  0  0  0
    4.7508    1.0040   17.6009 C   0  0  0  0  0  0  0  0  0  0  0  0
    4.2942    1.3984   18.8911 C   0  0  0  0  0  0  0  0  0  0  0  0
    3.1758    2.2512   19.0688 C   0  0  0  0  0  0  0  0  0  0  0  0
    2.7769    2.6238   20.3228 C   0  0  0  0  0  0  0  0  0  0  0  0
    3.4774    2.1624   21.4606 C   0  0  0  0  0  0  0  0  0  0  0  0
    4.5624    1.3309   21.3162 C   0  0  0  0  0  0  0  0  0  0  0  0
    4.9989    0.9299   20.0216 C   0  0  0  0  0  0  0  0  0  0  0  0
    5.1180    1.0206   22.1968 H   0  0  0  0  0  0  0  0  0  0  0  0
    3.1750    2.4866   22.4508 H   0  0  0  0  0  0  0  0  0  0  0  0
    1.9243    3.2833   20.4467 H   0  0  0  0  0  0  0  0  0  0  0  0
    2.6668    2.6141   18.1811 H   0  0  0  0  0  0  0  0  0  0  0  0
    4.2118    1.3611   16.7249 H   0  0  0  0  0  0  0  0  0  0  0  0
    7.3419   -0.8234   18.2813 H   0  0  0  0  0  0  0  0  0  0  0  0
    6.5143   -1.5516   21.6242 C   0  0  0  0  0  0  0  0  0  0  0  0
    7.7404   -1.7778   22.5128 C   0  0  2  0  0  0  0  0  0  0  0  0
    7.3863   -2.4886   23.8038 C   0  0  0  0  0  0  0  0  0  0  0  0
    8.5617   -2.7194   24.5380 O   0  0  0  0  0  0  0  0  0  0  0  0
    8.3004   -3.3205   25.7817 C   0  0  0  0  0  0  0  0  0  0  0  0
    7.7403   -4.2584   25.6603 H   0  0  0  0  0  0  0  0  0  0  0  0
    7.7159   -2.6550   26.4368 H   0  0  0  0  0  0  0  0  0  0  0  0
    9.2598   -3.5414   26.2563 H   0  0  0  0  0  0  0  0  0  0  0  0
    6.8919   -3.4451   23.5620 H   0  0  0  0  0  0  0  0  0  0  0  0
    6.6697   -1.8856   24.3851 H   0  0  0  0  0  0  0  0  0  0  0  0
    8.4169   -2.4518   21.9877 H   0  0  0  0  0  0  0  0  0  0  0  0
    5.6138   -1.3436   22.2260 H   0  0  0  0  0  0  0  0  0  0  0  0
    6.3042   -2.4192   20.9886 H   0  0  0  0  0  0  0  0  0  0  0  0
    9.9631   -0.4709   22.5348 C   0  0  0  0  0  0  0  0  0  0  0  0
   10.5311   -1.3605   21.6259 C   0  0  0  0  0  0  0  0  0  0  0  0
   11.8900   -1.3952   21.4429 C   0  0  0  0  0  0  0  0  0  0  0  0
   12.4489   -2.4769   20.2087 Cl  0  0  0  0  0  0  0  0  0  0  0  0
   12.7448   -0.5857   22.1898 C   0  0  0  0  0  0  0  0  0  0  0  0
   12.1899    0.3284   23.0693 C   0  0  0  0  0  0  0  0  0  0  0  0
   10.8021    0.4361   23.1898 C   0  0  0  0  0  0  0  0  0  0  0  0
   10.2191    1.6056   23.9306 C   0  0  0  0  0  0  0  0  0  0  0  0
   10.9213    2.4798   24.4146 O   0  0  0  0  0  0  0  0  0  0  0  0
   12.8157    0.9977   23.6501 H   0  0  0  0  0  0  0  0  0  0  0  0
   13.8133   -0.6503   22.0382 H   0  0  0  0  0  0  0  0  0  0  0  0
    9.9489   -2.0324   21.0077 H   0  0  0  0  0  0  0  0  0  0  0  0
    7.0023    0.6474   23.8380 H   0  0  0  0  0  0  0  0  0  0  0  0
    8.2591   -0.2394   24.7519 H   0  0  0  0  0  0  0  0  0  0  0  0
    7.6251    2.6102   25.3769 H   0  0  0  0  0  0  0  0  0  0  0  0
    8.9377    3.5590   24.6786 H   0  0  0  0  0  0  0  0  0  0  0  0
    8.5056    3.7580   21.9657 H   0  0  0  0  0  0  0  0  0  0  0  0
    7.0672    4.9731   20.5597 H   0  0  0  0  0  0  0  0  0  0  0  0
    6.1223    3.4732   20.9054 H   0  0  0  0  0  0  0  0  0  0  0  0
    5.8242    4.9623   21.8240 H   0  0  0  0  0  0  0  0  0  0  0  0
  1  2  1  0
  2  3  1  0
  3  4  2  0
  3  5  1  0
  5  6  1  0
  6  7  1  0
  8  7  1  1
  8  9  1  0
  9 10  2  0
  9 11  1  0
 11 12  1  0
 12 13  2  0
 13 14  1  0
 14 15  2  0
 15 16  1  0
 16 17  2  0
 17 18  1  0
 18 19  2  0
 19 20  1  0
 20 21  2  0
 20 22  1  0
 19 23  1  0
 18 24  1  0
 17 25  1  0
 15 26  1  0
 13 27  1  0
 11 28  1  0
 28 29  1  0
 29 30  1  0
 30 31  1  0
 31 32  1  0
 32 33  1  0
 32 34  1  0
 32 35  1  0
 30 36  1  0
 30 37  1  0
 29 38  1  6
 28 39  1  0
 28 40  1  0
  8 41  1  0
 41 42  2  0
 42 43  1  0
 43 44  1  0
 43 45  2  0
 45 46  1  0
 46 47  2  0
 47 48  1  0
 48 49  2  0
 46 50  1  0
 45 51  1  0
 42 52  1  0
  7 53  1  0
  7 54  1  0
  5 55  1  0
  5 56  1  0
  2 57  1  0
  1 58  1  0
  1 59  1  0
  1 60  1  0
 48  6  1  0
 29  8  1  0
 47 41  1  0
 21 12  1  0
 21 16  1  0
M  END
>  <cnnaffinities>  (46) 
[6.18127]

>  <score>  (46) 
6.18127

>  <index>  (46) 
45

>  <Smiles>  (46) 
C(N(C(=O)C(N1C([C@@]2(C(=O)N(c3c(nc(c4c(c(c(c(c34)[H])[H])[H])[H])[H])[H])C([C@@]2(C(OC([H])([H])[H])([H])[H])[H])([H])[H])c2c(c(Cl)c(c(c2C1=O)[H])[H])[H])([H])[H])([H])[H])[H])([H])([H])[H]

>  <h>  (46) 
<NA>

>  <Training>  (46) 
True

>  <Success>  (46) 
True

>  <enamine_searched>  (46) 
False

>  <enamine_id>  (46) 
nan

$$$$

     RDKit          3D

 64 68  0  0  0  0  0  0  0  0999 V2000
   13.2296   -2.4025   23.2332 C   0  0  0  0  0  0  0  0  0  0  0  0
   11.7141   -2.5070   23.1393 C   0  0  0  0  0  0  0  0  0  0  0  0
   11.1301   -1.9440   21.5498 S   0  0  0  0  0  0  0  0  0  0  0  0
   11.1686   -0.4871   21.5333 O   0  0  0  0  0  0  0  0  0  0  0  0
   11.8273   -2.7212   20.5403 O   0  0  0  0  0  0  0  0  0  0  0  0
    9.5002   -2.4653   21.5860 N   0  0  0  0  0  0  0  0  0  0  0  0
    8.5422   -1.4946   22.1451 C   0  0  1  0  0  0  0  0  0  0  0  0
    8.1722   -0.3690   21.1635 C   0  0  0  0  0  0  0  0  0  0  0  0
    6.7572   -0.5345   20.9166 N   0  0  0  0  0  0  0  0  0  0  0  0
    6.0752    0.0495   19.8258 C   0  0  0  0  0  0  0  0  0  0  0  0
    6.4651   -0.2077   18.5342 C   0  0  0  0  0  0  0  0  0  0  0  0
    5.8192    0.2513   17.4380 N   0  0  0  0  0  0  0  0  0  0  0  0
    4.7712    1.0154   17.6233 C   0  0  0  0  0  0  0  0  0  0  0  0
    4.2861    1.3931   18.9069 C   0  0  0  0  0  0  0  0  0  0  0  0
    3.1639    2.2486   19.0623 C   0  0  0  0  0  0  0  0  0  0  0  0
    2.7501    2.6395   20.3062 C   0  0  0  0  0  0  0  0  0  0  0  0
    3.4396    2.1904   21.4543 C   0  0  0  0  0  0  0  0  0  0  0  0
    4.5184    1.3546   21.3297 C   0  0  0  0  0  0  0  0  0  0  0  0
    4.9624    0.9183   20.0491 C   0  0  0  0  0  0  0  0  0  0  0  0
    5.0320    1.0117   22.2209 H   0  0  0  0  0  0  0  0  0  0  0  0
    3.1132    2.5054   22.4407 H   0  0  0  0  0  0  0  0  0  0  0  0
    1.9009    3.3073   20.4190 H   0  0  0  0  0  0  0  0  0  0  0  0
    2.6602    2.6026   18.1668 H   0  0  0  0  0  0  0  0  0  0  0  0
    4.2563    1.3760   16.7319 H   0  0  0  0  0  0  0  0  0  0  0  0
    7.3241   -0.8486   18.3373 H   0  0  0  0  0  0  0  0  0  0  0  0
    6.1296   -1.3871   21.7905 C   0  0  0  0  0  0  0  0  0  0  0  0
    4.9319   -1.6069   21.7954 O   0  0  0  0  0  0  0  0  0  0  0  0
    7.1791   -2.0533   22.6750 C   0  0  1  0  0  0  0  0  0  0  0  0
    6.9496   -3.5829   22.6245 C   0  0  0  0  0  0  0  0  0  0  0  0
    7.8823   -4.3168   23.4482 N   0  0  0  0  0  0  0  0  0  0  0  0
    8.6759   -5.3622   22.8562 C   0  0  0  0  0  0  0  0  0  0  0  0
    7.9527   -6.6776   22.5465 C   0  0  0  0  0  0  0  0  0  0  0  0
    7.1214   -6.7702   21.6614 O   0  0  0  0  0  0  0  0  0  0  0  0
    8.3975   -7.7306   23.2888 N   0  0  0  0  0  0  0  0  0  0  0  0
    7.8587   -9.0787   23.1876 C   0  0  0  0  0  0  0  0  0  0  0  0
    6.7710   -9.0727   23.0653 H   0  0  0  0  0  0  0  0  0  0  0  0
    8.2807   -9.6446   22.3545 H   0  0  0  0  0  0  0  0  0  0  0  0
    8.1213   -9.6085   24.1046 H   0  0  0  0  0  0  0  0  0  0  0  0
    8.9557   -7.5032   24.0991 H   0  0  0  0  0  0  0  0  0  0  0  0
    9.0314   -4.9547   21.9076 H   0  0  0  0  0  0  0  0  0  0  0  0
    9.5230   -5.5185   23.5225 H   0  0  0  0  0  0  0  0  0  0  0  0
    8.1648   -3.9041   24.7215 C   0  0  0  0  0  0  0  0  0  0  0  0
    8.8718   -4.5496   25.4829 O   0  0  0  0  0  0  0  0  0  0  0  0
    7.5706   -2.5861   25.1094 C   0  0  0  0  0  0  0  0  0  0  0  0
    7.6704   -2.2071   26.4423 C   0  0  0  0  0  0  0  0  0  0  0  0
    7.2736   -0.9462   26.8500 C   0  0  0  0  0  0  0  0  0  0  0  0
    6.7791   -0.0626   25.8936 C   0  0  0  0  0  0  0  0  0  0  0  0
    6.3408    1.5429   26.3888 Cl  0  0  0  0  0  0  0  0  0  0  0  0
    6.6982   -0.4128   24.5555 C   0  0  0  0  0  0  0  0  0  0  0  0
    7.0676   -1.6964   24.1527 C   0  0  0  0  0  0  0  0  0  0  0  0
    6.4122    0.3229   23.8122 H   0  0  0  0  0  0  0  0  0  0  0  0
    7.3679   -0.6323   27.8840 H   0  0  0  0  0  0  0  0  0  0  0  0
    8.1008   -2.9282   27.1285 H   0  0  0  0  0  0  0  0  0  0  0  0
    5.9233   -3.7631   22.9769 H   0  0  0  0  0  0  0  0  0  0  0  0
    7.0078   -3.9463   21.6020 H   0  0  0  0  0  0  0  0  0  0  0  0
    8.7307   -0.4559   20.2348 H   0  0  0  0  0  0  0  0  0  0  0  0
    8.3731    0.6149   21.6015 H   0  0  0  0  0  0  0  0  0  0  0  0
    9.0609   -1.0799   23.0083 H   0  0  0  0  0  0  0  0  0  0  0  0
    9.2480   -2.7169   20.6335 H   0  0  0  0  0  0  0  0  0  0  0  0
   11.3764   -3.5430   23.2171 H   0  0  0  0  0  0  0  0  0  0  0  0
   11.1862   -1.9125   23.8892 H   0  0  0  0  0  0  0  0  0  0  0  0
   13.5979   -2.8603   24.1514 H   0  0  0  0  0  0  0  0  0  0  0  0
   13.5672   -1.3670   23.2094 H   0  0  0  0  0  0  0  0  0  0  0  0
   13.6938   -2.9205   22.3991 H   0  0  0  0  0  0  0  0  0  0  0  0
  1  2  1  0
  2  3  1  0
  3  4  2  0
  3  5  2  0
  3  6  1  0
  6  7  1  0
  7  8  1  0
  8  9  1  0
  9 10  1  0
 10 11  2  0
 11 12  1  0
 12 13  2  0
 13 14  1  0
 14 15  2  0
 15 16  1  0
 16 17  2  0
 17 18  1  0
 18 19  2  0
 18 20  1  0
 17 21  1  0
 16 22  1  0
 15 23  1  0
 13 24  1  0
 11 25  1  0
  9 26  1  0
 26 27  2  0
 26 28  1  0
 28 29  1  1
 29 30  1  0
 30 31  1  0
 31 32  1  0
 32 33  2  0
 32 34  1  0
 34 35  1  0
 35 36  1  0
 35 37  1  0
 35 38  1  0
 34 39  1  0
 31 40  1  0
 31 41  1  0
 30 42  1  0
 42 43  2  0
 42 44  1  0
 44 45  2  0
 45 46  1  0
 46 47  2  0
 47 48  1  0
 47 49  1  0
 49 50  2  0
 49 51  1  0
 46 52  1  0
 45 53  1  0
 29 54  1  0
 29 55  1  0
  8 56  1  0
  8 57  1  0
  7 58  1  1
  6 59  1  0
  2 60  1  0
  2 61  1  0
  1 62  1  0
  1 63  1  0
  1 64  1  0
 28  7  1  0
 50 44  1  0
 19 10  1  0
 50 28  1  0
 19 14  1  0
M  END
>  <cnnaffinities>  (47) 
[6.96245, 6.15779, 6.96425, 6.99569, 6.37105]

>  <score>  (47) 
6.96245

>  <index>  (47) 
46

>  <Smiles>  (47) 
C(C(S(=O)(=O)N([C@]1(C(N(c2c(nc(c3c(c(c(c(c23)[H])[H])[H])[H])[H])[H])C(=O)[C@]21C(N(C(C(=O)N(C([H])([H])[H])[H])([H])[H])C(=O)c1c(c(c(Cl)c(c21)[H])[H])[H])([H])[H])([H])[H])[H])[H])([H])[H])([H])([H])[H]

>  <h>  (47) 
<NA>

>  <Training>  (47) 
True

>  <Success>  (47) 
True

>  <enamine_searched>  (47) 
False

>  <enamine_id>  (47) 
nan

$$$$

     RDKit          3D

 56 60  0  0  0  0  0  0  0  0999 V2000
    6.7411    4.4475   21.3064 C   0  0  0  0  0  0  0  0  0  0  0  0
    7.6230    4.0431   22.3887 N   0  0  0  0  0  0  0  0  0  0  0  0
    7.0662    3.3732   23.4217 C   0  0  0  0  0  0  0  0  0  0  0  0
    5.8558    3.2409   23.5379 O   0  0  0  0  0  0  0  0  0  0  0  0
    8.0053    2.7986   24.4932 C   0  0  0  0  0  0  0  0  0  0  0  0
    8.7527    1.6339   24.0612 N   0  0  0  0  0  0  0  0  0  0  0  0
    8.0405    0.3736   23.9246 C   0  0  0  0  0  0  0  0  0  0  0  0
    8.4634   -0.3883   22.6483 C   0  0  2  0  0  0  0  0  0  0  0  0
    7.9410    0.3376   21.3801 C   0  0  0  0  0  0  0  0  0  0  0  0
    8.3474    1.3821   20.9133 O   0  0  0  0  0  0  0  0  0  0  0  0
    6.9258   -0.4068   20.8316 N   0  0  0  0  0  0  0  0  0  0  0  0
    6.1418    0.1094   19.7641 C   0  0  0  0  0  0  0  0  0  0  0  0
    6.4554   -0.2105   18.4697 C   0  0  0  0  0  0  0  0  0  0  0  0
    5.7685    0.2276   17.3886 N   0  0  0  0  0  0  0  0  0  0  0  0
    4.7451    1.0171   17.5949 C   0  0  0  0  0  0  0  0  0  0  0  0
    4.2939    1.4187   18.8848 C   0  0  0  0  0  0  0  0  0  0  0  0
    3.1701    2.2719   19.0664 C   0  0  0  0  0  0  0  0  0  0  0  0
    2.7647    2.6351   20.3207 C   0  0  0  0  0  0  0  0  0  0  0  0
    3.4621    2.1580   21.4535 C   0  0  0  0  0  0  0  0  0  0  0  0
    4.5517    1.3344   21.3041 C   0  0  0  0  0  0  0  0  0  0  0  0
    5.0082    0.9477   20.0129 C   0  0  0  0  0  0  0  0  0  0  0  0
    5.0833    0.9804   22.1827 H   0  0  0  0  0  0  0  0  0  0  0  0
    3.1551    2.4582   22.4500 H   0  0  0  0  0  0  0  0  0  0  0  0
    1.9152    3.3018   20.4480 H   0  0  0  0  0  0  0  0  0  0  0  0
    2.6616    2.6420   18.1794 H   0  0  0  0  0  0  0  0  0  0  0  0
    4.2168    1.3804   16.7131 H   0  0  0  0  0  0  0  0  0  0  0  0
    7.3006   -0.8614   18.2580 H   0  0  0  0  0  0  0  0  0  0  0  0
    6.5882   -1.6043   21.5739 C   0  0  0  0  0  0  0  0  0  0  0  0
    7.7747   -1.7943   22.5443 C   0  0  2  0  0  0  0  0  0  0  0  0
    7.3506   -2.4694   23.8541 C   0  0  0  0  0  0  0  0  0  0  0  0
    6.9352   -3.4639   23.6593 H   0  0  0  0  0  0  0  0  0  0  0  0
    6.5753   -1.8869   24.3645 H   0  0  0  0  0  0  0  0  0  0  0  0
    8.1899   -2.5906   24.5479 H   0  0  0  0  0  0  0  0  0  0  0  0
    8.4996   -2.4494   22.0564 H   0  0  0  0  0  0  0  0  0  0  0  0
    5.6437   -1.4781   22.1252 H   0  0  0  0  0  0  0  0  0  0  0  0
    6.4582   -2.4532   20.8921 H   0  0  0  0  0  0  0  0  0  0  0  0
    9.9797   -0.3969   22.6008 C   0  0  0  0  0  0  0  0  0  0  0  0
   10.6217   -1.2860   21.7431 C   0  0  0  0  0  0  0  0  0  0  0  0
   11.9921   -1.3105   21.6791 C   0  0  0  0  0  0  0  0  0  0  0  0
   12.5251   -2.2371   20.8717 F   0  0  0  0  0  0  0  0  0  0  0  0
   12.7927   -0.4337   22.4042 C   0  0  0  0  0  0  0  0  0  0  0  0
   12.1599    0.5078   23.1965 C   0  0  0  0  0  0  0  0  0  0  0  0
   10.7662    0.5474   23.2776 C   0  0  0  0  0  0  0  0  0  0  0  0
   10.1226    1.6853   24.0152 C   0  0  0  0  0  0  0  0  0  0  0  0
   10.7733    2.6000   24.4976 O   0  0  0  0  0  0  0  0  0  0  0  0
   12.7120    1.2531   23.7619 H   0  0  0  0  0  0  0  0  0  0  0  0
   13.8703   -0.4782   22.3161 H   0  0  0  0  0  0  0  0  0  0  0  0
   10.0996   -1.9663   21.0830 H   0  0  0  0  0  0  0  0  0  0  0  0
    6.9726    0.6052   23.8689 H   0  0  0  0  0  0  0  0  0  0  0  0
    8.2315   -0.2752   24.7954 H   0  0  0  0  0  0  0  0  0  0  0  0
    7.3555    2.5430   25.3400 H   0  0  0  0  0  0  0  0  0  0  0  0
    8.7614    3.5174   24.8180 H   0  0  0  0  0  0  0  0  0  0  0  0
    8.6211    3.9836   22.2477 H   0  0  0  0  0  0  0  0  0  0  0  0
    7.3027    4.9431   20.5192 H   0  0  0  0  0  0  0  0  0  0  0  0
    6.2122    3.5715   20.9125 H   0  0  0  0  0  0  0  0  0  0  0  0
    5.9904    5.1430   21.6880 H   0  0  0  0  0  0  0  0  0  0  0  0
  1  2  1  0
  2  3  1  0
  3  4  2  0
  3  5  1  0
  5  6  1  0
  6  7  1  0
  8  7  1  1
  8  9  1  0
  9 10  2  0
  9 11  1  0
 11 12  1  0
 12 13  2  0
 13 14  1  0
 14 15  2  0
 15 16  1  0
 16 17  2  0
 17 18  1  0
 18 19  2  0
 19 20  1  0
 20 21  2  0
 20 22  1  0
 19 23  1  0
 18 24  1  0
 17 25  1  0
 15 26  1  0
 13 27  1  0
 11 28  1  0
 28 29  1  0
 29 30  1  0
 30 31  1  0
 30 32  1  0
 30 33  1  0
 29 34  1  6
 28 35  1  0
 28 36  1  0
  8 37  1  0
 37 38  2  0
 38 39  1  0
 39 40  1  0
 39 41  2  0
 41 42  1  0
 42 43  2  0
 43 44  1  0
 44 45  2  0
 42 46  1  0
 41 47  1  0
 38 48  1  0
  7 49  1  0
  7 50  1  0
  5 51  1  0
  5 52  1  0
  2 53  1  0
  1 54  1  0
  1 55  1  0
  1 56  1  0
 44  6  1  0
 29  8  1  0
 43 37  1  0
 21 12  1  0
 21 16  1  0
M  END
>  <cnnaffinities>  (48) 
[5.96961]

>  <score>  (48) 
5.96961

>  <index>  (48) 
47

>  <Smiles>  (48) 
C(N(C(=O)C(N1C([C@@]2(C(=O)N(c3c(nc(c4c(c(c(c(c34)[H])[H])[H])[H])[H])[H])C([C@@]2(C([H])([H])[H])[H])([H])[H])c2c(c(F)c(c(c2C1=O)[H])[H])[H])([H])[H])([H])[H])[H])([H])([H])[H]

>  <h>  (48) 
<NA>

>  <Training>  (48) 
True

>  <Success>  (48) 
True

>  <enamine_searched>  (48) 
False

>  <enamine_id>  (48) 
nan

$$$$

     RDKit          3D

 41 43  0  0  0  0  0  0  0  0999 V2000
   12.3434   -1.3467   22.1016 C   0  0  0  0  0  0  0  0  0  0  0  0
   11.0304   -0.6309   22.3420 C   0  0  1  0  0  0  0  0  0  0  0  0
    9.9034   -1.6086   22.6915 C   0  0  0  0  0  0  0  0  0  0  0  0
    8.6663   -0.9401   23.3212 C   0  0  0  0  0  0  0  0  0  0  0  0
    8.3497    0.3969   22.8179 N   0  0  0  0  0  0  0  0  0  0  0  0
    7.8715    0.6134   21.5385 C   0  0  0  0  0  0  0  0  0  0  0  0
    8.1303    1.6360   20.9272 O   0  0  0  0  0  0  0  0  0  0  0  0
    6.9475   -0.4548   20.9126 C   0  0  0  0  0  0  0  0  0  0  0  0
    6.1145    0.0839   19.7723 C   0  0  0  0  0  0  0  0  0  0  0  0
    6.4267   -0.2070   18.4692 C   0  0  0  0  0  0  0  0  0  0  0  0
    5.7588    0.2425   17.3743 N   0  0  0  0  0  0  0  0  0  0  0  0
    4.7336    1.0305   17.5782 C   0  0  0  0  0  0  0  0  0  0  0  0
    4.2872    1.4233   18.8700 C   0  0  0  0  0  0  0  0  0  0  0  0
    3.1666    2.2760   19.0457 C   0  0  0  0  0  0  0  0  0  0  0  0
    2.7644    2.6461   20.3002 C   0  0  0  0  0  0  0  0  0  0  0  0
    3.4655    2.1718   21.4311 C   0  0  0  0  0  0  0  0  0  0  0  0
    4.5513    1.3420   21.2876 C   0  0  0  0  0  0  0  0  0  0  0  0
    4.9964    0.9444   19.9989 C   0  0  0  0  0  0  0  0  0  0  0  0
    5.0809    0.9898   22.1674 H   0  0  0  0  0  0  0  0  0  0  0  0
    3.1404    2.4695   22.4225 H   0  0  0  0  0  0  0  0  0  0  0  0
    1.9129    3.3080   20.4347 H   0  0  0  0  0  0  0  0  0  0  0  0
    2.6470    2.6466   18.1647 H   0  0  0  0  0  0  0  0  0  0  0  0
    4.1999    1.3983   16.6991 H   0  0  0  0  0  0  0  0  0  0  0  0
    7.2729   -0.8544   18.2431 H   0  0  0  0  0  0  0  0  0  0  0  0
    6.2924   -0.8954   21.6759 H   0  0  0  0  0  0  0  0  0  0  0  0
    7.5768   -1.2737   20.5362 H   0  0  0  0  0  0  0  0  0  0  0  0
    9.0751    1.4948   23.4614 C   0  0  0  0  0  0  0  0  0  0  0  0
   10.5746    1.5630   23.1566 C   0  0  0  0  0  0  0  0  0  0  0  0
   11.2416    0.3362   23.3637 O   0  0  0  0  0  0  0  0  0  0  0  0
   11.0613    2.2946   23.8207 H   0  0  0  0  0  0  0  0  0  0  0  0
   10.7286    1.9064   22.1239 H   0  0  0  0  0  0  0  0  0  0  0  0
    8.9598    1.3703   24.5420 H   0  0  0  0  0  0  0  0  0  0  0  0
    8.6036    2.4408   23.1849 H   0  0  0  0  0  0  0  0  0  0  0  0
    8.8278   -0.8413   24.3958 H   0  0  0  0  0  0  0  0  0  0  0  0
    7.7910   -1.5818   23.2008 H   0  0  0  0  0  0  0  0  0  0  0  0
   10.2861   -2.3801   23.3742 H   0  0  0  0  0  0  0  0  0  0  0  0
    9.6157   -2.1346   21.7715 H   0  0  0  0  0  0  0  0  0  0  0  0
   10.7533   -0.0980   21.4270 H   0  0  0  0  0  0  0  0  0  0  0  0
   13.1158   -0.6298   21.8107 H   0  0  0  0  0  0  0  0  0  0  0  0
   12.2355   -2.0806   21.2968 H   0  0  0  0  0  0  0  0  0  0  0  0
   12.6720   -1.8609   23.0085 H   0  0  0  0  0  0  0  0  0  0  0  0
  1  2  1  0
  2  3  1  0
  3  4  1  0
  4  5  1  0
  5  6  1  0
  6  7  2  0
  6  8  1  0
  8  9  1  0
  9 10  2  0
 10 11  1  0
 11 12  2  0
 12 13  1  0
 13 14  2  0
 14 15  1  0
 15 16  2  0
 16 17  1  0
 17 18  2  0
 17 19  1  0
 16 20  1  0
 15 21  1  0
 14 22  1  0
 12 23  1  0
 10 24  1  0
  8 25  1  0
  8 26  1  0
  5 27  1  0
 27 28  1  0
 28 29  1  0
 28 30  1  0
 28 31  1  0
 27 32  1  0
 27 33  1  0
  4 34  1  0
  4 35  1  0
  3 36  1  0
  3 37  1  0
  2 38  1  6
  1 39  1  0
  1 40  1  0
  1 41  1  0
 29  2  1  0
 18  9  1  0
 18 13  1  0
M  END
>  <cnnaffinities>  (49) 
[5.12589, 5.42884]

>  <score>  (49) 
5.12589

>  <index>  (49) 
48

>  <Smiles>  (49) 
C([C@]1(C(C(N(C(=O)C(c2c(nc(c3c(c(c(c(c23)[H])[H])[H])[H])[H])[H])([H])[H])C(C(O1)([H])[H])([H])[H])([H])[H])([H])[H])[H])([H])([H])[H]

>  <h>  (49) 
<NA>

>  <Training>  (49) 
True

>  <Success>  (49) 
True

>  <enamine_searched>  (49) 
False

>  <enamine_id>  (49) 
nan

$$$$

     RDKit          3D

 42 45  0  0  0  0  0  0  0  0999 V2000
   12.3169   -1.1478   22.4387 C   0  0  0  0  0  0  0  0  0  0  0  0
   10.8860   -1.3686   22.6250 N   0  0  0  0  0  0  0  0  0  0  0  0
    9.9171   -0.7187   21.7704 C   0  0  0  0  0  0  0  0  0  0  0  0
    8.7066   -0.2490   22.5849 C   0  0  1  0  0  0  0  0  0  0  0  0
    7.6910    0.4107   21.6526 C   0  0  0  0  0  0  0  0  0  0  0  0
    7.5722    1.6189   21.5941 O   0  0  0  0  0  0  0  0  0  0  0  0
    6.9219   -0.4007   20.8434 N   0  0  0  0  0  0  0  0  0  0  0  0
    6.1270    0.1037   19.7771 C   0  0  0  0  0  0  0  0  0  0  0  0
    6.4302   -0.2222   18.4764 C   0  0  0  0  0  0  0  0  0  0  0  0
    5.7622    0.2358   17.3920 N   0  0  0  0  0  0  0  0  0  0  0  0
    4.7386    1.0329   17.5837 C   0  0  0  0  0  0  0  0  0  0  0  0
    4.2894    1.4186   18.8763 C   0  0  0  0  0  0  0  0  0  0  0  0
    3.1607    2.2633   19.0500 C   0  0  0  0  0  0  0  0  0  0  0  0
    2.7366    2.6031   20.3085 C   0  0  0  0  0  0  0  0  0  0  0  0
    3.4158    2.1019   21.4395 C   0  0  0  0  0  0  0  0  0  0  0  0
    4.5071    1.2806   21.2951 C   0  0  0  0  0  0  0  0  0  0  0  0
    4.9889    0.9341   20.0062 C   0  0  0  0  0  0  0  0  0  0  0  0
    5.0188    0.8923   22.1664 H   0  0  0  0  0  0  0  0  0  0  0  0
    3.0712    2.3649   22.4332 H   0  0  0  0  0  0  0  0  0  0  0  0
    1.8775    3.2538   20.4450 H   0  0  0  0  0  0  0  0  0  0  0  0
    2.6446    2.6430   18.1715 H   0  0  0  0  0  0  0  0  0  0  0  0
    4.2034    1.3969   16.7015 H   0  0  0  0  0  0  0  0  0  0  0  0
    7.2792   -0.8658   18.2508 H   0  0  0  0  0  0  0  0  0  0  0  0
    7.1144   -1.3896   20.8356 H   0  0  0  0  0  0  0  0  0  0  0  0
    8.1682   -1.3484   23.4682 C   0  0  0  0  0  0  0  0  0  0  0  0
    6.8532   -1.3131   23.9397 C   0  0  0  0  0  0  0  0  0  0  0  0
    6.3866   -2.3273   24.7560 C   0  0  0  0  0  0  0  0  0  0  0  0
    4.7409   -2.2812   25.3099 Cl  0  0  0  0  0  0  0  0  0  0  0  0
    7.2136   -3.3759   25.1448 C   0  0  0  0  0  0  0  0  0  0  0  0
    8.5312   -3.3803   24.7119 C   0  0  0  0  0  0  0  0  0  0  0  0
    9.0243   -2.3703   23.8783 C   0  0  0  0  0  0  0  0  0  0  0  0
   10.4881   -2.3507   23.5016 C   0  0  0  0  0  0  0  0  0  0  0  0
   11.2867   -3.1363   23.9851 O   0  0  0  0  0  0  0  0  0  0  0  0
    9.1880   -4.1761   25.0385 H   0  0  0  0  0  0  0  0  0  0  0  0
    6.8210   -4.1547   25.7929 H   0  0  0  0  0  0  0  0  0  0  0  0
    6.1936   -0.4927   23.6763 H   0  0  0  0  0  0  0  0  0  0  0  0
    9.0532    0.5585   23.2338 H   0  0  0  0  0  0  0  0  0  0  0  0
   10.3867    0.1427   21.2950 H   0  0  0  0  0  0  0  0  0  0  0  0
    9.5734   -1.3740   20.9592 H   0  0  0  0  0  0  0  0  0  0  0  0
   12.4864   -0.3850   21.6776 H   0  0  0  0  0  0  0  0  0  0  0  0
   12.8512   -2.0525   22.1354 H   0  0  0  0  0  0  0  0  0  0  0  0
   12.7737   -0.7931   23.3647 H   0  0  0  0  0  0  0  0  0  0  0  0
  1  2  1  0
  2  3  1  0
  3  4  1  0
  4  5  1  0
  5  6  2  0
  5  7  1  0
  7  8  1  0
  8  9  2  0
  9 10  1  0
 10 11  2  0
 11 12  1  0
 12 13  2  0
 13 14  1  0
 14 15  2  0
 15 16  1  0
 16 17  2  0
 16 18  1  0
 15 19  1  0
 14 20  1  0
 13 21  1  0
 11 22  1  0
  9 23  1  0
  7 24  1  0
  4 25  1  0
 25 26  2  0
 26 27  1  0
 27 28  1  0
 27 29  2  0
 29 30  1  0
 30 31  2  0
 31 32  1  0
 32 33  2  0
 30 34  1  0
 29 35  1  0
 26 36  1  0
  4 37  1  1
  3 38  1  0
  3 39  1  0
  1 40  1  0
  1 41  1  0
  1 42  1  0
 32  2  1  0
 17  8  1  0
 31 25  1  0
 17 12  1  0
M  END
>  <cnnaffinities>  (50) 
[5.88402, 5.81787]

>  <score>  (50) 
5.88402

>  <index>  (50) 
49

>  <Smiles>  (50) 
C(N1C([C@@](C(=O)N(c2c(nc(c3c(c(c(c(c23)[H])[H])[H])[H])[H])[H])[H])(c2c(c(Cl)c(c(c2C1=O)[H])[H])[H])[H])([H])[H])([H])([H])[H]

>  <h>  (50) 
<NA>

>  <Training>  (50) 
True

>  <Success>  (50) 
True

>  <enamine_searched>  (50) 
False

>  <enamine_id>  (50) 
nan

$$$$

     RDKit          3D

 38 41  0  0  0  0  0  0  0  0999 V2000
    8.6101    1.2618   20.7284 O   0  0  0  0  0  0  0  0  0  0  0  0
    7.8618    0.6694   21.4849 C   0  0  0  0  0  0  0  0  0  0  0  0
    6.9465   -0.4392   20.9190 C   0  0  0  0  0  0  0  0  0  0  0  0
    6.1084    0.0829   19.7687 C   0  0  0  0  0  0  0  0  0  0  0  0
    6.4263   -0.2071   18.4657 C   0  0  0  0  0  0  0  0  0  0  0  0
    5.7573    0.2429   17.3712 N   0  0  0  0  0  0  0  0  0  0  0  0
    4.7325    1.0311   17.5771 C   0  0  0  0  0  0  0  0  0  0  0  0
    4.2836    1.4222   18.8692 C   0  0  0  0  0  0  0  0  0  0  0  0
    3.1659    2.2778   19.0452 C   0  0  0  0  0  0  0  0  0  0  0  0
    2.7639    2.6475   20.2999 C   0  0  0  0  0  0  0  0  0  0  0  0
    3.4619    2.1701   21.4308 C   0  0  0  0  0  0  0  0  0  0  0  0
    4.5450    1.3369   21.2872 C   0  0  0  0  0  0  0  0  0  0  0  0
    4.9887    0.9400   19.9968 C   0  0  0  0  0  0  0  0  0  0  0  0
    5.0703    0.9867   22.1707 H   0  0  0  0  0  0  0  0  0  0  0  0
    3.1354    2.4662   22.4218 H   0  0  0  0  0  0  0  0  0  0  0  0
    1.9139    3.3104   20.4336 H   0  0  0  0  0  0  0  0  0  0  0  0
    2.6480    2.6495   18.1641 H   0  0  0  0  0  0  0  0  0  0  0  0
    4.1995    1.3992   16.6984 H   0  0  0  0  0  0  0  0  0  0  0  0
    7.2732   -0.8561   18.2453 H   0  0  0  0  0  0  0  0  0  0  0  0
    6.3021   -0.8994   21.6753 H   0  0  0  0  0  0  0  0  0  0  0  0
    7.6001   -1.2298   20.5329 H   0  0  0  0  0  0  0  0  0  0  0  0
    7.7608    1.0120   22.8227 N   0  0  0  0  0  0  0  0  0  0  0  0
    8.3086    2.3205   23.2107 C   0  0  0  0  0  0  0  0  0  0  0  0
    7.6733    2.8472   24.4953 C   0  0  0  0  0  0  0  0  0  0  0  0
    7.7411    1.7976   25.5555 C   0  0  0  0  0  0  0  0  0  0  0  0
    7.8276    2.0684   27.2614 S   0  0  0  0  0  0  0  0  0  0  0  0
    7.7937    0.3704   27.5681 C   0  0  0  0  0  0  0  0  0  0  0  0
    7.7195   -0.3559   26.4160 C   0  0  0  0  0  0  0  0  0  0  0  0
    7.6944    0.4758   25.2550 C   0  0  0  0  0  0  0  0  0  0  0  0
    7.5143   -0.0072   23.8406 C   0  0  0  0  0  0  0  0  0  0  0  0
    8.1589   -0.8835   23.6958 H   0  0  0  0  0  0  0  0  0  0  0  0
    6.4903   -0.3919   23.7482 H   0  0  0  0  0  0  0  0  0  0  0  0
    7.6707   -1.4418   26.3966 H   0  0  0  0  0  0  0  0  0  0  0  0
    7.8340    0.0044   28.5860 H   0  0  0  0  0  0  0  0  0  0  0  0
    8.1612    3.7696   24.8192 H   0  0  0  0  0  0  0  0  0  0  0  0
    6.6218    3.1046   24.3138 H   0  0  0  0  0  0  0  0  0  0  0  0
    9.3971    2.2732   23.3355 H   0  0  0  0  0  0  0  0  0  0  0  0
    8.1181    3.0163   22.3920 H   0  0  0  0  0  0  0  0  0  0  0  0
  1  2  2  0
  2  3  1  0
  3  4  1  0
  4  5  2  0
  5  6  1  0
  6  7  2  0
  7  8  1  0
  8  9  2  0
  9 10  1  0
 10 11  2  0
 11 12  1  0
 12 13  2  0
 12 14  1  0
 11 15  1  0
 10 16  1  0
  9 17  1  0
  7 18  1  0
  5 19  1  0
  3 20  1  0
  3 21  1  0
  2 22  1  0
 22 23  1  0
 23 24  1  0
 24 25  1  0
 25 26  1  0
 26 27  1  0
 27 28  2  0
 28 29  1  0
 29 30  1  0
 30 31  1  0
 30 32  1  0
 28 33  1  0
 27 34  1  0
 24 35  1  0
 24 36  1  0
 23 37  1  0
 23 38  1  0
 13  4  1  0
 30 22  1  0
 13  8  1  0
 29 25  2  0
M  END
>  <cnnaffinities>  (51) 
[4.71779, 4.90331, 4.93619]

>  <score>  (51) 
4.71779

>  <index>  (51) 
50

>  <Smiles>  (51) 
O=C(C(c1c(nc(c2c(c(c(c(c12)[H])[H])[H])[H])[H])[H])([H])[H])N1C(C(c2sc(c(c2C1([H])[H])[H])[H])([H])[H])([H])[H]

>  <h>  (51) 
<NA>

>  <Training>  (51) 
True

>  <Success>  (51) 
True

>  <enamine_searched>  (51) 
False

>  <enamine_id>  (51) 
nan

$$$$

     RDKit          3D

 67 73  0  0  0  0  0  0  0  0999 V2000
    7.9129   -9.4585   23.4545 C   0  0  0  0  0  0  0  0  0  0  0  0
    7.5157   -8.1666   22.8236 C   0  0  0  0  0  0  0  0  0  0  0  0
    8.2089   -7.6364   21.8897 N   0  0  0  0  0  0  0  0  0  0  0  0
    7.6422   -6.4192   21.5787 N   0  0  0  0  0  0  0  0  0  0  0  0
    6.6257   -6.2973   22.3505 C   0  0  0  0  0  0  0  0  0  0  0  0
    5.7374   -5.1009   22.4037 C   0  0  0  0  0  0  0  0  0  0  0  0
    6.2944   -4.0229   23.2031 N   0  0  0  0  0  0  0  0  0  0  0  0
    7.4871   -3.3153   22.7525 C   0  0  0  0  0  0  0  0  0  0  0  0
    7.2859   -1.7797   22.8377 C   0  0  2  0  0  0  0  0  0  0  0  0
    6.2615   -1.4058   21.7463 C   0  0  0  0  0  0  0  0  0  0  0  0
    5.1477   -1.8749   21.6077 O   0  0  0  0  0  0  0  0  0  0  0  0
    6.8297   -0.4777   20.9027 N   0  0  0  0  0  0  0  0  0  0  0  0
    6.1171    0.0674   19.8228 C   0  0  0  0  0  0  0  0  0  0  0  0
    6.4912   -0.2130   18.5335 C   0  0  0  0  0  0  0  0  0  0  0  0
    5.8346    0.2299   17.4399 N   0  0  0  0  0  0  0  0  0  0  0  0
    4.7879    0.9931   17.6328 C   0  0  0  0  0  0  0  0  0  0  0  0
    4.3185    1.3916   18.9161 C   0  0  0  0  0  0  0  0  0  0  0  0
    3.1916    2.2391   19.0642 C   0  0  0  0  0  0  0  0  0  0  0  0
    2.7926    2.6484   20.3063 C   0  0  0  0  0  0  0  0  0  0  0  0
    3.4983    2.2255   21.4558 C   0  0  0  0  0  0  0  0  0  0  0  0
    4.5840    1.3929   21.3410 C   0  0  0  0  0  0  0  0  0  0  0  0
    5.0074    0.9378   20.0577 C   0  0  0  0  0  0  0  0  0  0  0  0
    5.1262    1.0656   22.2267 H   0  0  0  0  0  0  0  0  0  0  0  0
    3.1736    2.5594   22.4362 H   0  0  0  0  0  0  0  0  0  0  0  0
    1.9377    3.3096   20.4122 H   0  0  0  0  0  0  0  0  0  0  0  0
    2.6832    2.5708   18.1643 H   0  0  0  0  0  0  0  0  0  0  0  0
    4.2598    1.3362   16.7452 H   0  0  0  0  0  0  0  0  0  0  0  0
    7.3480   -0.8565   18.3388 H   0  0  0  0  0  0  0  0  0  0  0  0
    8.2754   -0.4629   20.9905 C   0  0  0  0  0  0  0  0  0  0  0  0
    8.5383   -0.9510   22.4198 C   0  0  2  0  0  0  0  0  0  0  0  0
    9.9053   -1.6213   22.5130 C   0  0  0  0  0  0  0  0  0  0  0  0
   10.1563   -2.1279   23.8369 N   0  0  0  0  0  0  0  0  0  0  0  0
   11.3317   -2.6924   24.2054 C   0  0  0  0  0  0  0  0  0  0  0  0
   12.4925   -2.5518   23.4223 C   0  0  0  0  0  0  0  0  0  0  0  0
   13.6671   -2.9537   24.0116 C   0  0  0  0  0  0  0  0  0  0  0  0
   13.7246   -3.5905   25.1911 N   0  0  0  0  0  0  0  0  0  0  0  0
   12.5478   -3.7918   25.7748 C   0  0  0  0  0  0  0  0  0  0  0  0
   11.3560   -3.3546   25.3739 N   0  0  0  0  0  0  0  0  0  0  0  0
   12.5533   -4.3993   26.6818 H   0  0  0  0  0  0  0  0  0  0  0  0
   14.6188   -2.8017   23.4992 H   0  0  0  0  0  0  0  0  0  0  0  0
   12.4882   -2.0988   22.4352 H   0  0  0  0  0  0  0  0  0  0  0  0
    9.4202   -2.1427   24.5246 H   0  0  0  0  0  0  0  0  0  0  0  0
   10.6784   -0.8857   22.2533 H   0  0  0  0  0  0  0  0  0  0  0  0
    9.9782   -2.4167   21.7537 H   0  0  0  0  0  0  0  0  0  0  0  0
    8.5524   -0.0774   23.0734 H   0  0  0  0  0  0  0  0  0  0  0  0
    8.7300   -1.1431   20.2521 H   0  0  0  0  0  0  0  0  0  0  0  0
    8.6563    0.5485   20.8083 H   0  0  0  0  0  0  0  0  0  0  0  0
    6.7491   -1.4340   24.2262 C   0  0  0  0  0  0  0  0  0  0  0  0
    6.7867   -0.1246   24.7331 C   0  0  0  0  0  0  0  0  0  0  0  0
    6.3151    0.1360   26.0090 C   0  0  0  0  0  0  0  0  0  0  0  0
    6.3725    1.7665   26.6246 Cl  0  0  0  0  0  0  0  0  0  0  0  0
    5.8079   -0.8731   26.8283 C   0  0  0  0  0  0  0  0  0  0  0  0
    5.6650   -2.1385   26.2956 C   0  0  0  0  0  0  0  0  0  0  0  0
    6.0817   -2.3994   24.9895 C   0  0  0  0  0  0  0  0  0  0  0  0
    5.6677   -3.6970   24.3761 C   0  0  0  0  0  0  0  0  0  0  0  0
    4.7996   -4.3991   24.8747 O   0  0  0  0  0  0  0  0  0  0  0  0
    5.2079   -2.9394   26.8689 H   0  0  0  0  0  0  0  0  0  0  0  0
    5.5138   -0.6520   27.8485 H   0  0  0  0  0  0  0  0  0  0  0  0
    7.1651    0.7038   24.1433 H   0  0  0  0  0  0  0  0  0  0  0  0
    7.6781   -3.5996   21.7155 H   0  0  0  0  0  0  0  0  0  0  0  0
    8.3622   -3.6182   23.3393 H   0  0  0  0  0  0  0  0  0  0  0  0
    4.7802   -5.3736   22.8484 H   0  0  0  0  0  0  0  0  0  0  0  0
    5.5918   -4.7412   21.3751 H   0  0  0  0  0  0  0  0  0  0  0  0
    6.4481   -7.3818   23.1521 O   0  0  0  0  0  0  0  0  0  0  0  0
    8.7129   -9.3005   24.1860 H   0  0  0  0  0  0  0  0  0  0  0  0
    7.0970   -9.9903   23.9237 H   0  0  0  0  0  0  0  0  0  0  0  0
    8.3493  -10.0640   22.6609 H   0  0  0  0  0  0  0  0  0  0  0  0
  1  2  1  0
  2  3  2  0
  3  4  1  0
  4  5  2  0
  5  6  1  0
  6  7  1  0
  7  8  1  0
  9  8  1  1
  9 10  1  0
 10 11  2  0
 10 12  1  0
 12 13  1  0
 13 14  2  0
 14 15  1  0
 15 16  2  0
 16 17  1  0
 17 18  2  0
 18 19  1  0
 19 20  2  0
 20 21  1  0
 21 22  2  0
 21 23  1  0
 20 24  1  0
 19 25  1  0
 18 26  1  0
 16 27  1  0
 14 28  1  0
 12 29  1  0
 29 30  1  0
 30 31  1  0
 31 32  1  0
 32 33  1  0
 33 34  2  0
 34 35  1  0
 35 36  2  0
 36 37  1  0
 37 38  2  0
 37 39  1  0
 35 40  1  0
 34 41  1  0
 32 42  1  0
 31 43  1  0
 31 44  1  0
 30 45  1  1
 29 46  1  0
 29 47  1  0
  9 48  1  0
 48 49  2  0
 49 50  1  0
 50 51  1  0
 50 52  2  0
 52 53  1  0
 53 54  2  0
 54 55  1  0
 55 56  2  0
 53 57  1  0
 52 58  1  0
 49 59  1  0
  8 60  1  0
  8 61  1  0
  6 62  1  0
  6 63  1  0
  5 64  1  0
  1 65  1  0
  1 66  1  0
  1 67  1  0
 64  2  1  0
 55  7  1  0
 30  9  1  0
 38 33  1  0
 54 48  1  0
 22 13  1  0
 22 17  1  0
M  END
>  <cnnaffinities>  (52) 
[7.66401, 6.29352, 6.83772]

>  <score>  (52) 
7.66401

>  <index>  (52) 
51

>  <Smiles>  (52) 
C(c1nnc(C(N2C([C@@]3(C(=O)N(c4c(nc(c5c(c(c(c(c45)[H])[H])[H])[H])[H])[H])C([C@@]3(C(N(c3c(c(nc(n3)[H])[H])[H])[H])([H])[H])[H])([H])[H])c3c(c(Cl)c(c(c3C2=O)[H])[H])[H])([H])[H])([H])[H])o1)([H])([H])[H]

>  <h>  (52) 
<NA>

>  <Training>  (52) 
True

>  <Success>  (52) 
True

>  <enamine_searched>  (52) 
False

>  <enamine_id>  (52) 
nan

$$$$

     RDKit          3D

 66 71  0  0  0  0  0  0  0  0999 V2000
    6.6290    4.3735   21.3367 C   0  0  0  0  0  0  0  0  0  0  0  0
    7.6177    4.0186   22.3477 N   0  0  0  0  0  0  0  0  0  0  0  0
    7.1358    3.3337   23.4269 C   0  0  0  0  0  0  0  0  0  0  0  0
    5.9381    3.1451   23.5896 O   0  0  0  0  0  0  0  0  0  0  0  0
    8.1228    2.8118   24.4709 C   0  0  0  0  0  0  0  0  0  0  0  0
    8.8052    1.6232   24.0013 N   0  0  0  0  0  0  0  0  0  0  0  0
    8.0309    0.3985   23.8959 C   0  0  0  0  0  0  0  0  0  0  0  0
    8.4380   -0.4144   22.6562 C   0  0  2  0  0  0  0  0  0  0  0  0
    7.9604    0.2769   21.3571 C   0  0  0  0  0  0  0  0  0  0  0  0
    8.4268    1.2749   20.8420 O   0  0  0  0  0  0  0  0  0  0  0  0
    6.9043   -0.4405   20.8536 N   0  0  0  0  0  0  0  0  0  0  0  0
    6.1304    0.0791   19.7859 C   0  0  0  0  0  0  0  0  0  0  0  0
    6.4755   -0.2144   18.4934 C   0  0  0  0  0  0  0  0  0  0  0  0
    5.7996    0.2255   17.4069 N   0  0  0  0  0  0  0  0  0  0  0  0
    4.7647    1.0021   17.6103 C   0  0  0  0  0  0  0  0  0  0  0  0
    4.3066    1.3964   18.8994 C   0  0  0  0  0  0  0  0  0  0  0  0
    3.1867    2.2508   19.0723 C   0  0  0  0  0  0  0  0  0  0  0  0
    2.7820    2.6250   20.3237 C   0  0  0  0  0  0  0  0  0  0  0  0
    3.4765    2.1641   21.4652 C   0  0  0  0  0  0  0  0  0  0  0  0
    4.5617    1.3313   21.3251 C   0  0  0  0  0  0  0  0  0  0  0  0
    5.0058    0.9225   20.0356 C   0  0  0  0  0  0  0  0  0  0  0  0
    5.1078    1.0192   22.2109 H   0  0  0  0  0  0  0  0  0  0  0  0
    3.1675    2.4845   22.4557 H   0  0  0  0  0  0  0  0  0  0  0  0
    1.9271    3.2831   20.4443 H   0  0  0  0  0  0  0  0  0  0  0  0
    2.6769    2.6125   18.1829 H   0  0  0  0  0  0  0  0  0  0  0  0
    4.2215    1.3592   16.7331 H   0  0  0  0  0  0  0  0  0  0  0  0
    7.3426   -0.8424   18.3006 H   0  0  0  0  0  0  0  0  0  0  0  0
    6.5307   -1.5913   21.6523 C   0  0  0  0  0  0  0  0  0  0  0  0
    7.7386   -1.8040   22.5726 C   0  0  2  0  0  0  0  0  0  0  0  0
    7.3556   -2.5121   23.8694 C   0  0  0  0  0  0  0  0  0  0  0  0
    8.5144   -2.8606   24.6628 N   0  0  0  0  0  0  0  0  0  0  0  0
    8.3895   -3.4440   25.8836 C   0  0  0  0  0  0  0  0  0  0  0  0
    9.5153   -3.8014   26.6532 C   0  0  0  0  0  0  0  0  0  0  0  0
    9.2751   -4.3036   27.9090 C   0  0  0  0  0  0  0  0  0  0  0  0
    8.0430   -4.5132   28.3985 N   0  0  0  0  0  0  0  0  0  0  0  0
    7.0642   -4.1803   27.5750 C   0  0  0  0  0  0  0  0  0  0  0  0
    7.1510   -3.6628   26.3481 N   0  0  0  0  0  0  0  0  0  0  0  0
    6.0516   -4.3524   27.9411 H   0  0  0  0  0  0  0  0  0  0  0  0
   10.1003   -4.5516   28.5763 H   0  0  0  0  0  0  0  0  0  0  0  0
   10.5276   -3.6558   26.2894 H   0  0  0  0  0  0  0  0  0  0  0  0
    9.4372   -2.6491   24.3116 H   0  0  0  0  0  0  0  0  0  0  0  0
    6.8119   -3.4345   23.6323 H   0  0  0  0  0  0  0  0  0  0  0  0
    6.6776   -1.8923   24.4722 H   0  0  0  0  0  0  0  0  0  0  0  0
    8.4329   -2.4763   22.0588 H   0  0  0  0  0  0  0  0  0  0  0  0
    6.3499   -2.4570   21.0097 H   0  0  0  0  0  0  0  0  0  0  0  0
    5.6113   -1.4050   22.2290 H   0  0  0  0  0  0  0  0  0  0  0  0
    9.9419   -0.4791   22.6092 C   0  0  0  0  0  0  0  0  0  0  0  0
   10.5133   -1.3556   21.6927 C   0  0  0  0  0  0  0  0  0  0  0  0
   11.8767   -1.3728   21.5147 C   0  0  0  0  0  0  0  0  0  0  0  0
   12.4698   -2.3994   20.2519 Cl  0  0  0  0  0  0  0  0  0  0  0  0
   12.7352   -0.5753   22.2753 C   0  0  0  0  0  0  0  0  0  0  0  0
   12.1691    0.3397   23.1457 C   0  0  0  0  0  0  0  0  0  0  0  0
   10.7786    0.4284   23.2671 C   0  0  0  0  0  0  0  0  0  0  0  0
   10.1760    1.5993   23.9804 C   0  0  0  0  0  0  0  0  0  0  0  0
   10.8539    2.4999   24.4572 O   0  0  0  0  0  0  0  0  0  0  0  0
   12.7841    1.0336   23.7108 H   0  0  0  0  0  0  0  0  0  0  0  0
   13.8120   -0.6510   22.1541 H   0  0  0  0  0  0  0  0  0  0  0  0
    9.9102   -2.0100   21.0737 H   0  0  0  0  0  0  0  0  0  0  0  0
    8.1815   -0.2135   24.7949 H   0  0  0  0  0  0  0  0  0  0  0  0
    6.9729    0.6629   23.8465 H   0  0  0  0  0  0  0  0  0  0  0  0
    8.8936    3.5493   24.7173 H   0  0  0  0  0  0  0  0  0  0  0  0
    7.5276    2.5756   25.3676 H   0  0  0  0  0  0  0  0  0  0  0  0
    8.5605    3.8327   22.0196 H   0  0  0  0  0  0  0  0  0  0  0  0
    7.1275    4.9246   20.5378 H   0  0  0  0  0  0  0  0  0  0  0  0
    6.1475    3.4630   20.9431 H   0  0  0  0  0  0  0  0  0  0  0  0
    5.8703    5.0173   21.7977 H   0  0  0  0  0  0  0  0  0  0  0  0
  1  2  1  0
  2  3  1  0
  3  4  2  0
  3  5  1  0
  5  6  1  0
  6  7  1  0
  8  7  1  1
  8  9  1  0
  9 10  2  0
  9 11  1  0
 11 12  1  0
 12 13  2  0
 13 14  1  0
 14 15  2  0
 15 16  1  0
 16 17  2  0
 17 18  1  0
 18 19  2  0
 19 20  1  0
 20 21  2  0
 20 22  1  0
 19 23  1  0
 18 24  1  0
 17 25  1  0
 15 26  1  0
 13 27  1  0
 11 28  1  0
 28 29  1  0
 29 30  1  0
 30 31  1  0
 31 32  1  0
 32 33  2  0
 33 34  1  0
 34 35  2  0
 35 36  1  0
 36 37  2  0
 36 38  1  0
 34 39  1  0
 33 40  1  0
 31 41  1  0
 30 42  1  0
 30 43  1  0
 29 44  1  6
 28 45  1  0
 28 46  1  0
  8 47  1  0
 47 48  2  0
 48 49  1  0
 49 50  1  0
 49 51  2  0
 51 52  1  0
 52 53  2  0
 53 54  1  0
 54 55  2  0
 52 56  1  0
 51 57  1  0
 48 58  1  0
  7 59  1  0
  7 60  1  0
  5 61  1  0
  5 62  1  0
  2 63  1  0
  1 64  1  0
  1 65  1  0
  1 66  1  0
 54  6  1  0
 29  8  1  0
 37 32  1  0
 53 47  1  0
 21 12  1  0
 21 16  1  0
M  END
>  <cnnaffinities>  (53) 
[6.26845, 6.75317]

>  <score>  (53) 
6.26845

>  <index>  (53) 
52

>  <Smiles>  (53) 
C(N(C(=O)C(N1C([C@@]2(C(=O)N(c3c(nc(c4c(c(c(c(c34)[H])[H])[H])[H])[H])[H])C([C@@]2(C(N(c2c(c(nc(n2)[H])[H])[H])[H])([H])[H])[H])([H])[H])c2c(c(Cl)c(c(c2C1=O)[H])[H])[H])([H])[H])([H])[H])[H])([H])([H])[H]

>  <h>  (53) 
<NA>

>  <Training>  (53) 
True

>  <Success>  (53) 
True

>  <enamine_searched>  (53) 
False

>  <enamine_id>  (53) 
nan

$$$$

     RDKit          3D

 77 84  0  0  0  0  0  0  0  0999 V2000
    8.9530    2.3556   25.8991 O   0  0  0  0  0  0  0  0  0  0  0  0
    8.7608    1.5476   24.9829 C   0  0  0  0  0  0  0  0  0  0  0  0
    9.8491    0.8302   24.2373 C   0  0  0  0  0  0  0  0  0  0  0  0
   11.1643    1.1876   24.5068 C   0  0  0  0  0  0  0  0  0  0  0  0
   12.1926    0.7939   23.6802 C   0  0  0  0  0  0  0  0  0  0  0  0
   11.8650    0.0198   22.5718 C   0  0  0  0  0  0  0  0  0  0  0  0
   13.1165   -0.2385   21.4051 Cl  0  0  0  0  0  0  0  0  0  0  0  0
   10.5890   -0.4622   22.3472 C   0  0  0  0  0  0  0  0  0  0  0  0
    9.5437   -0.0662   23.1948 C   0  0  0  0  0  0  0  0  0  0  0  0
    8.1079   -0.4313   22.8620 C   0  0  1  0  0  0  0  0  0  0  0  0
    7.2347   -0.0954   24.0905 C   0  0  0  0  0  0  0  0  0  0  0  0
    7.5071    1.2559   24.5422 N   0  0  0  0  0  0  0  0  0  0  0  0
    6.4162    2.1186   24.9484 C   0  0  0  0  0  0  0  0  0  0  0  0
    5.7835    1.6999   26.2622 C   0  0  0  0  0  0  0  0  0  0  0  0
    6.7531    1.8552   27.3914 N   0  0  0  0  0  4  0  0  0  0  0  0
    7.6842    0.6843   27.8145 C   0  0  0  0  0  0  0  0  0  0  0  0
    6.9614    0.5384   29.1564 C   0  0  0  0  0  0  0  0  0  0  0  0
    6.3188   -0.7917   29.5064 C   0  0  0  0  0  0  0  0  0  0  0  0
    6.8065   -0.7166   30.8494 O   0  0  0  0  0  0  0  0  0  0  0  0
    7.6055    0.4300   30.5350 C   0  0  0  0  0  0  0  0  0  0  0  0
    8.6791    0.1935   30.5347 H   0  0  0  0  0  0  0  0  0  0  0  0
    7.4168    1.2720   31.2133 H   0  0  0  0  0  0  0  0  0  0  0  0
    5.2259   -0.8526   29.4409 H   0  0  0  0  0  0  0  0  0  0  0  0
    6.7697   -1.6332   28.9612 H   0  0  0  0  0  0  0  0  0  0  0  0
    6.1289    1.7705   28.7625 C   0  0  0  0  0  0  0  0  0  0  0  0
    5.0550    1.5989   28.6950 H   0  0  0  0  0  0  0  0  0  0  0  0
    6.3180    2.6779   29.3249 H   0  0  0  0  0  0  0  0  0  0  0  0
    7.6311   -0.1617   27.1313 H   0  0  0  0  0  0  0  0  0  0  0  0
    8.7016    1.0530   27.8927 H   0  0  0  0  0  0  0  0  0  0  0  0
    7.3749    2.6604   27.2004 H   0  0  0  0  0  0  0  0  0  0  0  0
    5.4376    0.6608   26.2109 H   0  0  0  0  0  0  0  0  0  0  0  0
    4.9221    2.3309   26.4855 H   0  0  0  0  0  0  0  0  0  0  0  0
    5.6665    2.1487   24.1486 H   0  0  0  0  0  0  0  0  0  0  0  0
    6.8290    3.1264   25.0325 H   0  0  0  0  0  0  0  0  0  0  0  0
    7.4754   -0.8031   24.8991 H   0  0  0  0  0  0  0  0  0  0  0  0
    6.1693   -0.1936   23.8561 H   0  0  0  0  0  0  0  0  0  0  0  0
    7.6285    0.4098   21.6575 C   0  0  0  0  0  0  0  0  0  0  0  0
    7.8235    1.5890   21.4690 O   0  0  0  0  0  0  0  0  0  0  0  0
    6.9201   -0.4081   20.8015 N   0  0  0  0  0  0  0  0  0  0  0  0
    6.1323    0.1116   19.7525 C   0  0  0  0  0  0  0  0  0  0  0  0
    6.4335   -0.2355   18.4628 C   0  0  0  0  0  0  0  0  0  0  0  0
    5.7579    0.2099   17.3795 N   0  0  0  0  0  0  0  0  0  0  0  0
    4.7457    1.0158   17.5828 C   0  0  0  0  0  0  0  0  0  0  0  0
    4.2984    1.4155   18.8737 C   0  0  0  0  0  0  0  0  0  0  0  0
    3.1706    2.2596   19.0462 C   0  0  0  0  0  0  0  0  0  0  0  0
    2.7392    2.5989   20.2977 C   0  0  0  0  0  0  0  0  0  0  0  0
    3.4069    2.1006   21.4391 C   0  0  0  0  0  0  0  0  0  0  0  0
    4.5016    1.2872   21.2973 C   0  0  0  0  0  0  0  0  0  0  0  0
    4.9940    0.9418   20.0052 C   0  0  0  0  0  0  0  0  0  0  0  0
    5.0018    0.8956   22.1779 H   0  0  0  0  0  0  0  0  0  0  0  0
    3.0532    2.3688   22.4308 H   0  0  0  0  0  0  0  0  0  0  0  0
    1.8825    3.2542   20.4226 H   0  0  0  0  0  0  0  0  0  0  0  0
    2.6761    2.6372   18.1551 H   0  0  0  0  0  0  0  0  0  0  0  0
    4.2114    1.3841   16.7052 H   0  0  0  0  0  0  0  0  0  0  0  0
    7.2763   -0.8990   18.2682 H   0  0  0  0  0  0  0  0  0  0  0  0
    6.6882   -1.7291   21.3412 C   0  0  0  0  0  0  0  0  0  0  0  0
    7.8547   -1.8700   22.3222 C   0  0  2  0  0  0  0  0  0  0  0  0
    7.7193   -3.0264   23.3257 C   0  0  0  0  0  0  0  0  0  0  0  0
    6.4347   -3.1763   23.9893 N   0  0  0  0  0  0  0  0  0  0  0  0
    5.4171   -3.9480   23.5168 C   0  0  0  0  0  0  0  0  0  0  0  0
    4.2803   -3.9595   24.2421 N   0  0  0  0  0  0  0  0  0  0  0  0
    3.2894   -4.6843   23.7400 C   0  0  0  0  0  0  0  0  0  0  0  0
    3.3889   -5.4093   22.5565 C   0  0  0  0  0  0  0  0  0  0  0  0
    4.6188   -5.3433   21.9208 C   0  0  0  0  0  0  0  0  0  0  0  0
    5.6332   -4.6113   22.3691 N   0  0  0  0  0  0  0  0  0  0  0  0
    4.8184   -5.8942   21.0027 H   0  0  0  0  0  0  0  0  0  0  0  0
    2.5657   -5.9929   22.1578 H   0  0  0  0  0  0  0  0  0  0  0  0
    2.3656   -4.6908   24.3169 H   0  0  0  0  0  0  0  0  0  0  0  0
    6.2293   -2.6563   24.8276 H   0  0  0  0  0  0  0  0  0  0  0  0
    7.9073   -3.9647   22.8044 H   0  0  0  0  0  0  0  0  0  0  0  0
    8.4938   -2.9145   24.0928 H   0  0  0  0  0  0  0  0  0  0  0  0
    8.7332   -2.0970   21.7089 H   0  0  0  0  0  0  0  0  0  0  0  0
    5.7079   -1.7879   21.8336 H   0  0  0  0  0  0  0  0  0  0  0  0
    6.6977   -2.4833   20.5535 H   0  0  0  0  0  0  0  0  0  0  0  0
   10.4224   -1.1334   21.5051 H   0  0  0  0  0  0  0  0  0  0  0  0
   13.2221    1.0984   23.8427 H   0  0  0  0  0  0  0  0  0  0  0  0
   11.3346    1.8332   25.3443 H   0  0  0  0  0  0  0  0  0  0  0  0
  1  2  2  0
  2  3  1  0
  3  4  2  0
  4  5  1  0
  5  6  2  0
  6  7  1  0
  6  8  1  0
  8  9  2  0
  9 10  1  0
 10 11  1  1
 11 12  1  0
 12 13  1  0
 13 14  1  0
 14 15  1  0
 15 16  1  0
 16 17  1  0
 17 18  1  0
 18 19  1  0
 19 20  1  0
 20 21  1  0
 20 22  1  0
 18 23  1  0
 18 24  1  0
 17 25  1  0
 25 26  1  0
 25 27  1  0
 16 28  1  0
 16 29  1  0
 15 30  1  0
 14 31  1  0
 14 32  1  0
 13 33  1  0
 13 34  1  0
 11 35  1  0
 11 36  1  0
 10 37  1  0
 37 38  2  0
 37 39  1  0
 39 40  1  0
 40 41  2  0
 41 42  1  0
 42 43  2  0
 43 44  1  0
 44 45  2  0
 45 46  1  0
 46 47  2  0
 47 48  1  0
 48 49  2  0
 48 50  1  0
 47 51  1  0
 46 52  1  0
 45 53  1  0
 43 54  1  0
 41 55  1  0
 39 56  1  0
 56 57  1  0
 57 58  1  0
 58 59  1  0
 59 60  1  0
 60 61  2  0
 61 62  1  0
 62 63  2  0
 63 64  1  0
 64 65  2  0
 64 66  1  0
 63 67  1  0
 62 68  1  0
 59 69  1  0
 58 70  1  0
 58 71  1  0
 57 72  1  6
 56 73  1  0
 56 74  1  0
  8 75  1  0
  5 76  1  0
  4 77  1  0
 12  2  1  0
 25 15  1  0
 49 40  1  0
 65 60  1  0
  9  3  1  0
 57 10  1  0
 20 17  1  0
 49 44  1  0
M  CHG  1  15   1
M  END
>  <cnnaffinities>  (54) 
[6.57815]

>  <score>  (54) 
6.57815

>  <index>  (54) 
53

>  <Smiles>  (54) 
O=C1c2c(c(c(Cl)c(c2[C@@]2(C(N1C(C([N+]1(C(C3(C(OC3([H])[H])([H])[H])C1([H])[H])([H])[H])[H])([H])[H])([H])[H])([H])[H])C(=O)N(c1c(nc(c3c(c(c(c(c13)[H])[H])[H])[H])[H])[H])C([C@@]2(C(N(c1nc(c(c(n1)[H])[H])[H])[H])([H])[H])[H])([H])[H])[H])[H])[H]

>  <h>  (54) 
<NA>

>  <Training>  (54) 
True

>  <Success>  (54) 
True

>  <enamine_searched>  (54) 
False

>  <enamine_id>  (54) 
nan

$$$$

     RDKit          3D

 66 71  0  0  0  0  0  0  0  0999 V2000
    6.6140    4.3819   21.3299 C   0  0  0  0  0  0  0  0  0  0  0  0
    7.6382    3.9867   22.2850 N   0  0  0  0  0  0  0  0  0  0  0  0
    7.2234    3.3237   23.4068 C   0  0  0  0  0  0  0  0  0  0  0  0
    6.0392    3.1114   23.6316 O   0  0  0  0  0  0  0  0  0  0  0  0
    8.3091    2.8568   24.3859 C   0  0  0  0  0  0  0  0  0  0  0  0
    8.9387    1.6326   23.9243 N   0  0  0  0  0  0  0  0  0  0  0  0
    8.1121    0.4312   23.8321 C   0  0  0  0  0  0  0  0  0  0  0  0
    8.4825   -0.4210   22.5947 C   0  0  2  0  0  0  0  0  0  0  0  0
    7.9981    0.2723   21.2993 C   0  0  0  0  0  0  0  0  0  0  0  0
    8.4865    1.2429   20.7552 O   0  0  0  0  0  0  0  0  0  0  0  0
    6.9019   -0.4077   20.8298 N   0  0  0  0  0  0  0  0  0  0  0  0
    6.1347    0.1081   19.7633 C   0  0  0  0  0  0  0  0  0  0  0  0
    6.4763   -0.2003   18.4736 C   0  0  0  0  0  0  0  0  0  0  0  0
    5.7925    0.2301   17.3908 N   0  0  0  0  0  0  0  0  0  0  0  0
    4.7539    1.0007   17.6035 C   0  0  0  0  0  0  0  0  0  0  0  0
    4.2967    1.3976   18.8930 C   0  0  0  0  0  0  0  0  0  0  0  0
    3.1786    2.2513   19.0719 C   0  0  0  0  0  0  0  0  0  0  0  0
    2.7828    2.6274   20.3260 C   0  0  0  0  0  0  0  0  0  0  0  0
    3.4875    2.1716   21.4633 C   0  0  0  0  0  0  0  0  0  0  0  0
    4.5743    1.3422   21.3190 C   0  0  0  0  0  0  0  0  0  0  0  0
    5.0040    0.9349   20.0237 C   0  0  0  0  0  0  0  0  0  0  0  0
    5.1328    1.0329   22.1989 H   0  0  0  0  0  0  0  0  0  0  0  0
    3.1867    2.4962   22.4540 H   0  0  0  0  0  0  0  0  0  0  0  0
    1.9324    3.2908   20.4504 H   0  0  0  0  0  0  0  0  0  0  0  0
    2.6679    2.6110   18.1842 H   0  0  0  0  0  0  0  0  0  0  0  0
    4.2146    1.3550   16.7271 H   0  0  0  0  0  0  0  0  0  0  0  0
    7.3459   -0.8277   18.2878 H   0  0  0  0  0  0  0  0  0  0  0  0
    6.4913   -1.5314   21.6389 C   0  0  0  0  0  0  0  0  0  0  0  0
    7.7142   -1.7822   22.5240 C   0  0  2  0  0  0  0  0  0  0  0  0
    7.3334   -2.4850   23.8193 C   0  0  0  0  0  0  0  0  0  0  0  0
    8.5141   -2.9949   24.4959 N   0  0  0  0  0  0  0  0  0  0  0  0
    8.4072   -3.4349   25.7920 C   0  0  0  0  0  0  0  0  0  0  0  0
    9.5673   -3.7562   26.5462 C   0  0  0  0  0  0  0  0  0  0  0  0
    9.4956   -4.0097   27.8338 N   0  0  0  0  0  0  0  0  0  0  0  0
    8.2712   -4.0378   28.3825 C   0  0  0  0  0  0  0  0  0  0  0  0
    7.1324   -3.8834   27.6160 C   0  0  0  0  0  0  0  0  0  0  0  0
    7.1850   -3.5686   26.3168 N   0  0  0  0  0  0  0  0  0  0  0  0
    6.1465   -4.0114   28.0632 H   0  0  0  0  0  0  0  0  0  0  0  0
    8.2237   -4.1903   29.4498 H   0  0  0  0  0  0  0  0  0  0  0  0
   10.5604   -3.7693   26.0871 H   0  0  0  0  0  0  0  0  0  0  0  0
    9.4114   -2.6083   24.2213 H   0  0  0  0  0  0  0  0  0  0  0  0
    6.6623   -3.3274   23.6074 H   0  0  0  0  0  0  0  0  0  0  0  0
    6.7587   -1.8089   24.4702 H   0  0  0  0  0  0  0  0  0  0  0  0
    8.3597   -2.4799   21.9873 H   0  0  0  0  0  0  0  0  0  0  0  0
    6.2499   -2.4035   21.0167 H   0  0  0  0  0  0  0  0  0  0  0  0
    5.6026   -1.2873   22.2413 H   0  0  0  0  0  0  0  0  0  0  0  0
    9.9885   -0.5364   22.5045 C   0  0  0  0  0  0  0  0  0  0  0  0
   10.5401   -1.4435   21.5935 C   0  0  0  0  0  0  0  0  0  0  0  0
   11.9044   -1.5026   21.4066 C   0  0  0  0  0  0  0  0  0  0  0  0
   12.4767   -2.5526   20.1449 Cl  0  0  0  0  0  0  0  0  0  0  0  0
   12.7702   -0.6939   22.1435 C   0  0  0  0  0  0  0  0  0  0  0  0
   12.2314    0.2326   23.0185 C   0  0  0  0  0  0  0  0  0  0  0  0
   10.8480    0.3691   23.1417 C   0  0  0  0  0  0  0  0  0  0  0  0
   10.3090    1.5657   23.8697 C   0  0  0  0  0  0  0  0  0  0  0  0
   11.0401    2.4298   24.3397 O   0  0  0  0  0  0  0  0  0  0  0  0
   12.8669    0.8985   23.5931 H   0  0  0  0  0  0  0  0  0  0  0  0
   13.8393   -0.7478   21.9805 H   0  0  0  0  0  0  0  0  0  0  0  0
    9.9320   -2.0684   20.9488 H   0  0  0  0  0  0  0  0  0  0  0  0
    7.0632    0.7406   23.7616 H   0  0  0  0  0  0  0  0  0  0  0  0
    8.2338   -0.1750   24.7447 H   0  0  0  0  0  0  0  0  0  0  0  0
    9.1093    3.5918   24.5246 H   0  0  0  0  0  0  0  0  0  0  0  0
    7.8282    2.7027   25.3596 H   0  0  0  0  0  0  0  0  0  0  0  0
    8.5493    3.7708   21.9001 H   0  0  0  0  0  0  0  0  0  0  0  0
    7.0234    5.0494   20.5669 H   0  0  0  0  0  0  0  0  0  0  0  0
    5.8185    4.9088   21.8571 H   0  0  0  0  0  0  0  0  0  0  0  0
    6.1559    3.5075   20.8514 H   0  0  0  0  0  0  0  0  0  0  0  0
  1  2  1  0
  2  3  1  0
  3  4  2  0
  3  5  1  0
  5  6  1  0
  6  7  1  0
  8  7  1  1
  8  9  1  0
  9 10  2  0
  9 11  1  0
 11 12  1  0
 12 13  2  0
 13 14  1  0
 14 15  2  0
 15 16  1  0
 16 17  2  0
 17 18  1  0
 18 19  2  0
 19 20  1  0
 20 21  2  0
 20 22  1  0
 19 23  1  0
 18 24  1  0
 17 25  1  0
 15 26  1  0
 13 27  1  0
 11 28  1  0
 28 29  1  0
 29 30  1  0
 30 31  1  0
 31 32  1  0
 32 33  2  0
 33 34  1  0
 34 35  2  0
 35 36  1  0
 36 37  2  0
 36 38  1  0
 35 39  1  0
 33 40  1  0
 31 41  1  0
 30 42  1  0
 30 43  1  0
 29 44  1  6
 28 45  1  0
 28 46  1  0
  8 47  1  0
 47 48  2  0
 48 49  1  0
 49 50  1  0
 49 51  2  0
 51 52  1  0
 52 53  2  0
 53 54  1  0
 54 55  2  0
 52 56  1  0
 51 57  1  0
 48 58  1  0
  7 59  1  0
  7 60  1  0
  5 61  1  0
  5 62  1  0
  2 63  1  0
  1 64  1  0
  1 65  1  0
  1 66  1  0
 54  6  1  0
 29  8  1  0
 37 32  1  0
 53 47  1  0
 21 12  1  0
 21 16  1  0
M  END
>  <cnnaffinities>  (55) 
[6.43601]

>  <score>  (55) 
6.43601

>  <index>  (55) 
54

>  <Smiles>  (55) 
C(N(C(=O)C(N1C([C@@]2(C(=O)N(c3c(nc(c4c(c(c(c(c34)[H])[H])[H])[H])[H])[H])C([C@@]2(C(N(c2c(nc(c(n2)[H])[H])[H])[H])([H])[H])[H])([H])[H])c2c(c(Cl)c(c(c2C1=O)[H])[H])[H])([H])[H])([H])[H])[H])([H])([H])[H]

>  <h>  (55) 
<NA>

>  <Training>  (55) 
True

>  <Success>  (55) 
True

>  <enamine_searched>  (55) 
False

>  <enamine_id>  (55) 
nan

$$$$

     RDKit          3D

 56 61  0  0  0  0  0  0  0  0999 V2000
    5.5689    4.8338   21.4546 C   0  0  0  0  0  0  0  0  0  0  0  0
    6.5794    4.5717   22.4627 N   0  0  0  0  0  0  0  0  0  0  0  0
    7.7843    5.1701   22.5696 C   0  0  0  0  0  0  0  0  0  0  0  0
    8.4628    4.5280   23.5785 C   0  0  0  0  0  0  0  0  0  0  0  0
    7.5836    3.5118   24.0095 C   0  0  0  0  0  0  0  0  0  0  0  0
    7.8914    2.4351   25.0236 C   0  0  0  0  0  0  0  0  0  0  0  0
    8.6647    1.3143   24.4871 N   0  0  0  0  0  0  0  0  0  0  0  0
    7.9941    0.0736   24.1554 C   0  0  0  0  0  0  0  0  0  0  0  0
    8.3487   -0.4330   22.7442 C   0  0  1  0  0  0  0  0  0  0  0  0
    7.7325   -1.8347   22.5276 C   0  0  0  0  0  0  0  0  0  0  0  0
    6.9926   -1.8130   21.1764 C   0  0  0  0  0  0  0  0  0  0  0  0
    6.8713   -0.4008   20.8778 N   0  0  0  0  0  0  0  0  0  0  0  0
    6.1292    0.1071   19.7837 C   0  0  0  0  0  0  0  0  0  0  0  0
    6.4456   -0.2261   18.4899 C   0  0  0  0  0  0  0  0  0  0  0  0
    5.7723    0.2213   17.4050 N   0  0  0  0  0  0  0  0  0  0  0  0
    4.7508    1.0183   17.6028 C   0  0  0  0  0  0  0  0  0  0  0  0
    4.2938    1.4217   18.8879 C   0  0  0  0  0  0  0  0  0  0  0  0
    3.1600    2.2605   19.0638 C   0  0  0  0  0  0  0  0  0  0  0  0
    2.7326    2.6037   20.3181 C   0  0  0  0  0  0  0  0  0  0  0  0
    3.4171    2.1181   21.4537 C   0  0  0  0  0  0  0  0  0  0  0  0
    4.5198    1.3133   21.3088 C   0  0  0  0  0  0  0  0  0  0  0  0
    5.0004    0.9536   20.0203 C   0  0  0  0  0  0  0  0  0  0  0  0
    5.0259    0.9359   22.1907 H   0  0  0  0  0  0  0  0  0  0  0  0
    3.0807    2.3904   22.4503 H   0  0  0  0  0  0  0  0  0  0  0  0
    1.8720    3.2534   20.4443 H   0  0  0  0  0  0  0  0  0  0  0  0
    2.6556    2.6316   18.1770 H   0  0  0  0  0  0  0  0  0  0  0  0
    4.2292    1.3795   16.7172 H   0  0  0  0  0  0  0  0  0  0  0  0
    7.2889   -0.8775   18.2653 H   0  0  0  0  0  0  0  0  0  0  0  0
    7.7021    0.4134   21.6173 C   0  0  0  0  0  0  0  0  0  0  0  0
    7.8950    1.5825   21.3762 O   0  0  0  0  0  0  0  0  0  0  0  0
    5.9942   -2.2646   21.2282 H   0  0  0  0  0  0  0  0  0  0  0  0
    7.5569   -2.3273   20.3907 H   0  0  0  0  0  0  0  0  0  0  0  0
    8.4919   -2.6203   22.5699 H   0  0  0  0  0  0  0  0  0  0  0  0
    7.0239   -2.0396   23.3357 H   0  0  0  0  0  0  0  0  0  0  0  0
    9.8468   -0.3737   22.5972 C   0  0  0  0  0  0  0  0  0  0  0  0
   10.4416   -1.1592   21.6156 C   0  0  0  0  0  0  0  0  0  0  0  0
   11.8029   -1.1105   21.4135 C   0  0  0  0  0  0  0  0  0  0  0  0
   12.4467   -2.1784   20.2087 Cl  0  0  0  0  0  0  0  0  0  0  0  0
   12.6138   -0.2446   22.1451 C   0  0  0  0  0  0  0  0  0  0  0  0
   12.0166    0.5722   23.0917 C   0  0  0  0  0  0  0  0  0  0  0  0
   10.6410    0.5202   23.3231 C   0  0  0  0  0  0  0  0  0  0  0  0
   10.0143    1.4833   24.2899 C   0  0  0  0  0  0  0  0  0  0  0  0
   10.6396    2.3865   24.8322 O   0  0  0  0  0  0  0  0  0  0  0  0
   12.5892    1.2838   23.6738 H   0  0  0  0  0  0  0  0  0  0  0  0
   13.6816   -0.2043   21.9580 H   0  0  0  0  0  0  0  0  0  0  0  0
    9.8698   -1.8179   20.9724 H   0  0  0  0  0  0  0  0  0  0  0  0
    8.2544   -0.7219   24.8761 H   0  0  0  0  0  0  0  0  0  0  0  0
    6.9181    0.2619   24.1877 H   0  0  0  0  0  0  0  0  0  0  0  0
    6.9588    2.0343   25.4407 H   0  0  0  0  0  0  0  0  0  0  0  0
    8.4873    2.8649   25.8338 H   0  0  0  0  0  0  0  0  0  0  0  0
    6.4273    3.5711   23.3518 N   0  0  0  0  0  0  0  0  0  0  0  0
    9.4565    4.7054   23.9619 H   0  0  0  0  0  0  0  0  0  0  0  0
    8.0566    5.9776   21.8985 H   0  0  0  0  0  0  0  0  0  0  0  0
    4.5862    4.7733   21.9283 H   0  0  0  0  0  0  0  0  0  0  0  0
    5.7349    5.8458   21.0697 H   0  0  0  0  0  0  0  0  0  0  0  0
    5.6119    4.1002   20.6362 H   0  0  0  0  0  0  0  0  0  0  0  0
  1  2  1  0
  2  3  1  0
  3  4  2  0
  4  5  1  0
  5  6  1  0
  6  7  1  0
  7  8  1  0
  9  8  1  1
  9 10  1  0
 10 11  1  0
 11 12  1  0
 12 13  1  0
 13 14  2  0
 14 15  1  0
 15 16  2  0
 16 17  1  0
 17 18  2  0
 18 19  1  0
 19 20  2  0
 20 21  1  0
 21 22  2  0
 21 23  1  0
 20 24  1  0
 19 25  1  0
 18 26  1  0
 16 27  1  0
 14 28  1  0
 12 29  1  0
 29 30  2  0
 11 31  1  0
 11 32  1  0
 10 33  1  0
 10 34  1  0
  9 35  1  0
 35 36  2  0
 36 37  1  0
 37 38  1  0
 37 39  2  0
 39 40  1  0
 40 41  2  0
 41 42  1  0
 42 43  2  0
 40 44  1  0
 39 45  1  0
 36 46  1  0
  8 47  1  0
  8 48  1  0
  6 49  1  0
  6 50  1  0
  5 51  2  0
  4 52  1  0
  3 53  1  0
  1 54  1  0
  1 55  1  0
  1 56  1  0
 51  2  1  0
 42  7  1  0
 29  9  1  0
 41 35  1  0
 22 13  1  0
 22 17  1  0
M  END
>  <cnnaffinities>  (56) 
[6.24245]

>  <score>  (56) 
6.24245

>  <index>  (56) 
55

>  <Smiles>  (56) 
C(n1c(c(c(C(N2C([C@]3(C(C(N(c4c(nc(c5c(c(c(c(c45)[H])[H])[H])[H])[H])[H])C3=O)([H])[H])([H])[H])c3c(c(Cl)c(c(c3C2=O)[H])[H])[H])([H])[H])([H])[H])n1)[H])[H])([H])([H])[H]

>  <h>  (56) 
<NA>

>  <Training>  (56) 
True

>  <Success>  (56) 
True

>  <enamine_searched>  (56) 
False

>  <enamine_id>  (56) 
nan

$$$$

     RDKit          3D

 41 43  0  0  0  0  0  0  0  0999 V2000
    8.3903    1.4753   20.6700 O   0  0  0  0  0  0  0  0  0  0  0  0
    7.9657    0.6265   21.4263 C   0  0  0  0  0  0  0  0  0  0  0  0
    6.9667   -0.4304   20.9093 C   0  0  0  0  0  0  0  0  0  0  0  0
    6.1116    0.0847   19.7716 C   0  0  0  0  0  0  0  0  0  0  0  0
    6.4257   -0.2076   18.4667 C   0  0  0  0  0  0  0  0  0  0  0  0
    5.7578    0.2413   17.3727 N   0  0  0  0  0  0  0  0  0  0  0  0
    4.7323    1.0311   17.5769 C   0  0  0  0  0  0  0  0  0  0  0  0
    4.2854    1.4234   18.8686 C   0  0  0  0  0  0  0  0  0  0  0  0
    3.1680    2.2786   19.0437 C   0  0  0  0  0  0  0  0  0  0  0  0
    2.7657    2.6482   20.3000 C   0  0  0  0  0  0  0  0  0  0  0  0
    3.4646    2.1699   21.4303 C   0  0  0  0  0  0  0  0  0  0  0  0
    4.5515    1.3375   21.2885 C   0  0  0  0  0  0  0  0  0  0  0  0
    4.9916    0.9399   19.9982 C   0  0  0  0  0  0  0  0  0  0  0  0
    5.0755    0.9845   22.1726 H   0  0  0  0  0  0  0  0  0  0  0  0
    3.1354    2.4664   22.4210 H   0  0  0  0  0  0  0  0  0  0  0  0
    1.9163    3.3119   20.4342 H   0  0  0  0  0  0  0  0  0  0  0  0
    2.6491    2.6508   18.1635 H   0  0  0  0  0  0  0  0  0  0  0  0
    4.1996    1.3990   16.6982 H   0  0  0  0  0  0  0  0  0  0  0  0
    7.2734   -0.8528   18.2429 H   0  0  0  0  0  0  0  0  0  0  0  0
    6.3332   -0.8097   21.7225 H   0  0  0  0  0  0  0  0  0  0  0  0
    7.5524   -1.2856   20.5416 H   0  0  0  0  0  0  0  0  0  0  0  0
    8.3505    0.5370   22.7720 N   0  0  0  0  0  0  0  0  0  0  0  0
    8.7803   -0.7584   23.3041 C   0  0  0  0  0  0  0  0  0  0  0  0
   10.0262   -1.3665   22.6259 C   0  0  0  0  0  0  0  0  0  0  0  0
   11.0891   -0.3447   22.2217 C   0  0  0  0  0  0  0  0  0  0  0  0
   11.5095    0.8820   23.4914 S   0  0  0  0  0  0  0  0  0  0  0  0
   10.2798    2.1493   23.0878 C   0  0  0  0  0  0  0  0  0  0  0  0
    8.8601    1.7244   23.4596 C   0  0  1  0  0  0  0  0  0  0  0  0
    7.8731    2.8895   23.3744 C   0  0  0  0  0  0  0  0  0  0  0  0
    8.1697    3.8177   24.3132 F   0  0  0  0  0  0  0  0  0  0  0  0
    6.6206    2.4728   23.6213 F   0  0  0  0  0  0  0  0  0  0  0  0
    7.8745    3.5132   22.1967 F   0  0  0  0  0  0  0  0  0  0  0  0
    8.8741    1.4772   24.5242 H   0  0  0  0  0  0  0  0  0  0  0  0
   10.5734    3.0520   23.6394 H   0  0  0  0  0  0  0  0  0  0  0  0
   10.3422    2.3616   22.0214 H   0  0  0  0  0  0  0  0  0  0  0  0
   10.7659    0.2127   21.3412 H   0  0  0  0  0  0  0  0  0  0  0  0
   12.0196   -0.8553   21.9515 H   0  0  0  0  0  0  0  0  0  0  0  0
   10.4782   -2.1015   23.3035 H   0  0  0  0  0  0  0  0  0  0  0  0
    9.7279   -1.9223   21.7251 H   0  0  0  0  0  0  0  0  0  0  0  0
    7.9457   -1.4604   23.2323 H   0  0  0  0  0  0  0  0  0  0  0  0
    8.9815   -0.6302   24.3713 H   0  0  0  0  0  0  0  0  0  0  0  0
  1  2  2  0
  2  3  1  0
  3  4  1  0
  4  5  2  0
  5  6  1  0
  6  7  2  0
  7  8  1  0
  8  9  2  0
  9 10  1  0
 10 11  2  0
 11 12  1  0
 12 13  2  0
 12 14  1  0
 11 15  1  0
 10 16  1  0
  9 17  1  0
  7 18  1  0
  5 19  1  0
  3 20  1  0
  3 21  1  0
  2 22  1  0
 22 23  1  0
 23 24  1  0
 24 25  1  0
 25 26  1  0
 26 27  1  0
 27 28  1  0
 28 29  1  0
 29 30  1  0
 29 31  1  0
 29 32  1  0
 28 33  1  1
 27 34  1  0
 27 35  1  0
 25 36  1  0
 25 37  1  0
 24 38  1  0
 24 39  1  0
 23 40  1  0
 23 41  1  0
 13  4  1  0
 28 22  1  0
 13  8  1  0
M  END
>  <cnnaffinities>  (57) 
[5.80526, 5.80188, 6.04724, 6.04716, 6.04716, 5.55094]

>  <score>  (57) 
5.80526

>  <index>  (57) 
56

>  <Smiles>  (57) 
O=C(C(c1c(nc(c2c(c(c(c(c12)[H])[H])[H])[H])[H])[H])([H])[H])N1C(C(C(SC([C@]1(C(F)(F)F)[H])([H])[H])([H])[H])([H])[H])([H])[H]

>  <h>  (57) 
<NA>

>  <Training>  (57) 
True

>  <Success>  (57) 
True

>  <enamine_searched>  (57) 
False

>  <enamine_id>  (57) 
nan

$$$$

     RDKit          3D

 67 72  0  0  0  0  0  0  0  0999 V2000
    6.5235    4.4106   21.3752 C   0  0  0  0  0  0  0  0  0  0  0  0
    7.5825    3.9689   22.2727 N   0  0  0  0  0  0  0  0  0  0  0  0
    7.2615    3.3061   23.4226 C   0  0  0  0  0  0  0  0  0  0  0  0
    6.1076    3.0708   23.7599 O   0  0  0  0  0  0  0  0  0  0  0  0
    8.4619    2.8805   24.2886 C   0  0  0  0  0  0  0  0  0  0  0  0
    9.0728    1.6497   23.8113 N   0  0  0  0  0  0  0  0  0  0  0  0
    8.2623    0.4473   23.7198 C   0  0  0  0  0  0  0  0  0  0  0  0
    8.5818   -0.3816   22.4509 C   0  0  2  0  0  0  0  0  0  0  0  0
    8.0526    0.3444   21.1935 C   0  0  0  0  0  0  0  0  0  0  0  0
    8.5073    1.3377   20.6680 O   0  0  0  0  0  0  0  0  0  0  0  0
    6.9297   -0.3200   20.7592 N   0  0  0  0  0  0  0  0  0  0  0  0
    6.1466    0.1712   19.6993 C   0  0  0  0  0  0  0  0  0  0  0  0
    6.4657   -0.1577   18.4103 C   0  0  0  0  0  0  0  0  0  0  0  0
    5.7503    0.2465   17.3382 N   0  0  0  0  0  0  0  0  0  0  0  0
    4.7076    1.0098   17.5618 C   0  0  0  0  0  0  0  0  0  0  0  0
    4.2673    1.4144   18.8566 C   0  0  0  0  0  0  0  0  0  0  0  0
    3.1402    2.2527   19.0586 C   0  0  0  0  0  0  0  0  0  0  0  0
    2.7655    2.6261   20.3217 C   0  0  0  0  0  0  0  0  0  0  0  0
    3.4926    2.1771   21.4477 C   0  0  0  0  0  0  0  0  0  0  0  0
    4.5883    1.3672   21.2790 C   0  0  0  0  0  0  0  0  0  0  0  0
    5.0023    0.9709   19.9751 C   0  0  0  0  0  0  0  0  0  0  0  0
    5.1729    1.0666   22.1440 H   0  0  0  0  0  0  0  0  0  0  0  0
    3.2083    2.4931   22.4478 H   0  0  0  0  0  0  0  0  0  0  0  0
    1.9150    3.2850   20.4625 H   0  0  0  0  0  0  0  0  0  0  0  0
    2.6123    2.6135   18.1813 H   0  0  0  0  0  0  0  0  0  0  0  0
    4.1505    1.3472   16.6896 H   0  0  0  0  0  0  0  0  0  0  0  0
    7.3344   -0.7849   18.2146 H   0  0  0  0  0  0  0  0  0  0  0  0
    6.5073   -1.4201   21.5859 C   0  0  0  0  0  0  0  0  0  0  0  0
    7.7795   -1.7225   22.3697 C   0  0  2  0  0  0  0  0  0  0  0  0
    7.4882   -2.4545   23.6634 C   0  0  0  0  0  0  0  0  0  0  0  0
    8.7291   -2.9662   24.1879 N   0  0  0  0  0  0  0  0  0  0  0  0
    8.7432   -3.4847   25.4608 C   0  0  0  0  0  0  0  0  0  0  0  0
    7.7095   -3.5486   26.3439 C   0  0  0  0  0  0  0  0  0  0  0  0
    7.9994   -4.0583   27.5879 N   0  0  0  0  0  0  0  0  0  0  0  0
    9.2553   -4.3596   27.6703 C   0  0  0  0  0  0  0  0  0  0  0  0
    9.9290   -4.8437   28.8980 C   0  0  0  0  0  0  0  0  0  0  0  0
   10.7631   -4.2039   29.1966 H   0  0  0  0  0  0  0  0  0  0  0  0
   10.3252   -5.8528   28.7483 H   0  0  0  0  0  0  0  0  0  0  0  0
    9.2091   -4.8442   29.7122 H   0  0  0  0  0  0  0  0  0  0  0  0
   10.1810   -4.1326   26.2052 S   0  0  0  0  0  0  0  0  0  0  0  0
    6.7094   -3.1843   26.1370 H   0  0  0  0  0  0  0  0  0  0  0  0
    9.5817   -2.5189   23.8700 H   0  0  0  0  0  0  0  0  0  0  0  0
    6.9939   -1.7720   24.3778 H   0  0  0  0  0  0  0  0  0  0  0  0
    6.7831   -3.2792   23.4887 H   0  0  0  0  0  0  0  0  0  0  0  0
    8.3749   -2.3936   21.7469 H   0  0  0  0  0  0  0  0  0  0  0  0
    6.1817   -2.2630   20.9646 H   0  0  0  0  0  0  0  0  0  0  0  0
    5.6595   -1.1528   22.2406 H   0  0  0  0  0  0  0  0  0  0  0  0
   10.0847   -0.5245   22.3440 C   0  0  0  0  0  0  0  0  0  0  0  0
   10.6343   -1.4582   21.4598 C   0  0  0  0  0  0  0  0  0  0  0  0
   11.9995   -1.5139   21.2523 C   0  0  0  0  0  0  0  0  0  0  0  0
   12.5535   -2.5799   19.9904 Cl  0  0  0  0  0  0  0  0  0  0  0  0
   12.8679   -0.6757   21.9574 C   0  0  0  0  0  0  0  0  0  0  0  0
   12.3273    0.2738   22.7988 C   0  0  0  0  0  0  0  0  0  0  0  0
   10.9498    0.3888   22.9594 C   0  0  0  0  0  0  0  0  0  0  0  0
   10.4336    1.5875   23.6932 C   0  0  0  0  0  0  0  0  0  0  0  0
   11.1760    2.4663   24.1092 O   0  0  0  0  0  0  0  0  0  0  0  0
   12.9744    0.9761   23.3102 H   0  0  0  0  0  0  0  0  0  0  0  0
   13.9419   -0.7012   21.8314 H   0  0  0  0  0  0  0  0  0  0  0  0
   10.0033   -2.1030   20.8587 H   0  0  0  0  0  0  0  0  0  0  0  0
    8.4298   -0.1677   24.6166 H   0  0  0  0  0  0  0  0  0  0  0  0
    7.2193    0.7675   23.7056 H   0  0  0  0  0  0  0  0  0  0  0  0
    9.2536    3.6390   24.2864 H   0  0  0  0  0  0  0  0  0  0  0  0
    8.1069    2.7746   25.3212 H   0  0  0  0  0  0  0  0  0  0  0  0
    8.4959    3.7949   21.8696 H   0  0  0  0  0  0  0  0  0  0  0  0
    5.7179    4.8197   21.9881 H   0  0  0  0  0  0  0  0  0  0  0  0
    6.8895    5.1975   20.7040 H   0  0  0  0  0  0  0  0  0  0  0  0
    6.1027    3.5710   20.8007 H   0  0  0  0  0  0  0  0  0  0  0  0
  1  2  1  0
  2  3  1  0
  3  4  2  0
  3  5  1  0
  5  6  1  0
  6  7  1  0
  8  7  1  1
  8  9  1  0
  9 10  2  0
  9 11  1  0
 11 12  1  0
 12 13  2  0
 13 14  1  0
 14 15  2  0
 15 16  1  0
 16 17  2  0
 17 18  1  0
 18 19  2  0
 19 20  1  0
 20 21  2  0
 20 22  1  0
 19 23  1  0
 18 24  1  0
 17 25  1  0
 15 26  1  0
 13 27  1  0
 11 28  1  0
 28 29  1  0
 29 30  1  0
 30 31  1  0
 31 32  1  0
 32 33  2  0
 33 34  1  0
 34 35  2  0
 35 36  1  0
 36 37  1  0
 36 38  1  0
 36 39  1  0
 35 40  1  0
 33 41  1  0
 31 42  1  0
 30 43  1  0
 30 44  1  0
 29 45  1  6
 28 46  1  0
 28 47  1  0
  8 48  1  0
 48 49  2  0
 49 50  1  0
 50 51  1  0
 50 52  2  0
 52 53  1  0
 53 54  2  0
 54 55  1  0
 55 56  2  0
 53 57  1  0
 52 58  1  0
 49 59  1  0
  7 60  1  0
  7 61  1  0
  5 62  1  0
  5 63  1  0
  2 64  1  0
  1 65  1  0
  1 66  1  0
  1 67  1  0
 55  6  1  0
 29  8  1  0
 40 32  1  0
 54 48  1  0
 21 12  1  0
 21 16  1  0
M  END
>  <cnnaffinities>  (58) 
[6.62027, 6.72084]

>  <score>  (58) 
6.62027

>  <index>  (58) 
57

>  <Smiles>  (58) 
C(N(C(=O)C(N1C([C@@]2(C(=O)N(c3c(nc(c4c(c(c(c(c34)[H])[H])[H])[H])[H])[H])C([C@@]2(C(N(c2c(nc(C([H])([H])[H])s2)[H])[H])([H])[H])[H])([H])[H])c2c(c(Cl)c(c(c2C1=O)[H])[H])[H])([H])[H])([H])[H])[H])([H])([H])[H]

>  <h>  (58) 
<NA>

>  <Training>  (58) 
True

>  <Success>  (58) 
True

>  <enamine_searched>  (58) 
False

>  <enamine_id>  (58) 
nan

$$$$

     RDKit          3D

 57 62  0  0  0  0  0  0  0  0999 V2000
    7.0008   -2.2885   23.6067 C   0  0  0  0  0  0  0  0  0  0  0  0
    7.8793   -1.8678   22.4213 C   0  0  1  0  0  0  0  0  0  0  0  0
    7.0583   -1.7873   21.1177 C   0  0  0  0  0  0  0  0  0  0  0  0
    6.8860   -0.3714   20.8941 N   0  0  0  0  0  0  0  0  0  0  0  0
    6.1204    0.1148   19.8071 C   0  0  0  0  0  0  0  0  0  0  0  0
    6.4382   -0.2252   18.5158 C   0  0  0  0  0  0  0  0  0  0  0  0
    5.7757    0.2159   17.4211 N   0  0  0  0  0  0  0  0  0  0  0  0
    4.7542    1.0125   17.6143 C   0  0  0  0  0  0  0  0  0  0  0  0
    4.2930    1.4095   18.9017 C   0  0  0  0  0  0  0  0  0  0  0  0
    3.1620    2.2503   19.0590 C   0  0  0  0  0  0  0  0  0  0  0  0
    2.7172    2.5810   20.3084 C   0  0  0  0  0  0  0  0  0  0  0  0
    3.3752    2.0871   21.4538 C   0  0  0  0  0  0  0  0  0  0  0  0
    4.4934    1.3006   21.3320 C   0  0  0  0  0  0  0  0  0  0  0  0
    4.9810    0.9427   20.0435 C   0  0  0  0  0  0  0  0  0  0  0  0
    5.0082    0.9522   22.2220 H   0  0  0  0  0  0  0  0  0  0  0  0
    2.9920    2.3429   22.4392 H   0  0  0  0  0  0  0  0  0  0  0  0
    1.8531    3.2271   20.4258 H   0  0  0  0  0  0  0  0  0  0  0  0
    2.6698    2.6238   18.1662 H   0  0  0  0  0  0  0  0  0  0  0  0
    4.2249    1.3788   16.7341 H   0  0  0  0  0  0  0  0  0  0  0  0
    7.2905   -0.8738   18.3182 H   0  0  0  0  0  0  0  0  0  0  0  0
    7.8288    0.4075   21.5365 C   0  0  0  0  0  0  0  0  0  0  0  0
    8.0214    1.5812   21.3155 O   0  0  0  0  0  0  0  0  0  0  0  0
    8.5888   -0.4764   22.5550 C   0  0  1  0  0  0  0  0  0  0  0  0
    8.4665    0.1151   23.9861 C   0  0  0  0  0  0  0  0  0  0  0  0
    9.2317    1.3368   24.1662 N   0  0  0  0  0  0  0  0  0  0  0  0
    8.6661    2.4763   24.8656 C   0  0  0  0  0  0  0  0  0  0  0  0
    8.0347    3.4276   23.8783 C   0  0  0  0  0  0  0  0  0  0  0  0
    8.7934    4.3684   23.1807 C   0  0  0  0  0  0  0  0  0  0  0  0
    8.1030    5.2395   22.3542 C   0  0  0  0  0  0  0  0  0  0  0  0
    6.7745    5.1871   22.2111 N   0  0  0  0  0  0  0  0  0  0  0  0
    6.1656    4.2199   22.8875 C   0  0  0  0  0  0  0  0  0  0  0  0
    6.7130    3.3176   23.6962 N   0  0  0  0  0  0  0  0  0  0  0  0
    5.0809    4.1601   22.7771 H   0  0  0  0  0  0  0  0  0  0  0  0
    8.6326    6.0117   21.7941 H   0  0  0  0  0  0  0  0  0  0  0  0
    9.8708    4.4107   23.2813 H   0  0  0  0  0  0  0  0  0  0  0  0
    9.4847    2.9543   25.4191 H   0  0  0  0  0  0  0  0  0  0  0  0
    7.9057    2.1243   25.5697 H   0  0  0  0  0  0  0  0  0  0  0  0
   10.4922    1.4929   23.6848 C   0  0  0  0  0  0  0  0  0  0  0  0
   11.2053    2.4444   24.0088 O   0  0  0  0  0  0  0  0  0  0  0  0
   10.9542    0.4625   22.7306 C   0  0  0  0  0  0  0  0  0  0  0  0
   12.2888    0.5336   22.3427 C   0  0  0  0  0  0  0  0  0  0  0  0
   12.8033   -0.3939   21.4712 C   0  0  0  0  0  0  0  0  0  0  0  0
   11.9631   -1.4126   21.0300 C   0  0  0  0  0  0  0  0  0  0  0  0
   12.4675   -2.4041   20.2799 F   0  0  0  0  0  0  0  0  0  0  0  0
   10.6218   -1.4658   21.3567 C   0  0  0  0  0  0  0  0  0  0  0  0
   10.0814   -0.5046   22.2148 C   0  0  0  0  0  0  0  0  0  0  0  0
   10.0313   -2.2673   20.9278 H   0  0  0  0  0  0  0  0  0  0  0  0
   13.8191   -0.2822   21.1284 H   0  0  0  0  0  0  0  0  0  0  0  0
   12.9041    1.3421   22.7176 H   0  0  0  0  0  0  0  0  0  0  0  0
    7.4209    0.3325   24.2227 H   0  0  0  0  0  0  0  0  0  0  0  0
    8.8326   -0.6409   24.6917 H   0  0  0  0  0  0  0  0  0  0  0  0
    7.5957   -2.2476   20.2796 H   0  0  0  0  0  0  0  0  0  0  0  0
    6.0778   -2.2727   21.1970 H   0  0  0  0  0  0  0  0  0  0  0  0
    8.6385   -2.6488   22.3310 H   0  0  0  0  0  0  0  0  0  0  0  0
    6.1910   -1.5728   23.7908 H   0  0  0  0  0  0  0  0  0  0  0  0
    6.5505   -3.2677   23.4075 H   0  0  0  0  0  0  0  0  0  0  0  0
    7.5993   -2.3850   24.5181 H   0  0  0  0  0  0  0  0  0  0  0  0
  1  2  1  0
  2  3  1  0
  3  4  1  0
  4  5  1  0
  5  6  2  0
  6  7  1  0
  7  8  2  0
  8  9  1  0
  9 10  2  0
 10 11  1  0
 11 12  2  0
 12 13  1  0
 13 14  2  0
 13 15  1  0
 12 16  1  0
 11 17  1  0
 10 18  1  0
  8 19  1  0
  6 20  1  0
  4 21  1  0
 21 22  2  0
 21 23  1  0
 23 24  1  1
 24 25  1  0
 25 26  1  0
 26 27  1  0
 27 28  2  0
 28 29  1  0
 29 30  2  0
 30 31  1  0
 31 32  2  0
 31 33  1  0
 29 34  1  0
 28 35  1  0
 26 36  1  0
 26 37  1  0
 25 38  1  0
 38 39  2  0
 38 40  1  0
 40 41  2  0
 41 42  1  0
 42 43  2  0
 43 44  1  0
 43 45  1  0
 45 46  2  0
 45 47  1  0
 42 48  1  0
 41 49  1  0
 24 50  1  0
 24 51  1  0
  3 52  1  0
  3 53  1  0
  2 54  1  6
  1 55  1  0
  1 56  1  0
  1 57  1  0
 23  2  1  0
 32 27  1  0
 46 40  1  0
 14  5  1  0
 46 23  1  0
 14  9  1  0
M  END
>  <cnnaffinities>  (59) 
[6.40829, 6.47438]

>  <score>  (59) 
6.40829

>  <index>  (59) 
58

>  <Smiles>  (59) 
C([C@]1(C(N(c2c(nc(c3c(c(c(c(c23)[H])[H])[H])[H])[H])[H])C(=O)[C@]21C(N(C(c1c(c(nc(n1)[H])[H])[H])([H])[H])C(=O)c1c(c(c(F)c(c21)[H])[H])[H])([H])[H])([H])[H])[H])([H])([H])[H]

>  <h>  (59) 
<NA>

>  <Training>  (59) 
True

>  <Success>  (59) 
True

>  <enamine_searched>  (59) 
False

>  <enamine_id>  (59) 
nan

$$$$

     RDKit          3D

 60 65  0  0  0  0  0  0  0  0999 V2000
    7.6269   -5.1025   23.0973 C   0  0  0  0  0  0  0  0  0  0  0  0
    7.9770   -4.0000   22.3075 O   0  0  0  0  0  0  0  0  0  0  0  0
    8.0012   -2.8155   23.0599 C   0  0  0  0  0  0  0  0  0  0  0  0
    8.1160   -1.6779   22.0769 C   0  0  1  0  0  0  0  0  0  0  0  0
    6.9008   -1.6163   21.1559 C   0  0  0  0  0  0  0  0  0  0  0  0
    6.9035   -0.2368   20.7590 N   0  0  0  0  0  0  0  0  0  0  0  0
    6.1014    0.2128   19.7063 C   0  0  0  0  0  0  0  0  0  0  0  0
    6.3903   -0.1783   18.4260 C   0  0  0  0  0  0  0  0  0  0  0  0
    5.7031    0.2378   17.3422 N   0  0  0  0  0  0  0  0  0  0  0  0
    4.6874    1.0427   17.5464 C   0  0  0  0  0  0  0  0  0  0  0  0
    4.2458    1.4544   18.8372 C   0  0  0  0  0  0  0  0  0  0  0  0
    3.1161    2.2901   19.0190 C   0  0  0  0  0  0  0  0  0  0  0  0
    2.6891    2.6206   20.2751 C   0  0  0  0  0  0  0  0  0  0  0  0
    3.3579    2.1240   21.4163 C   0  0  0  0  0  0  0  0  0  0  0  0
    4.4612    1.3258   21.2699 C   0  0  0  0  0  0  0  0  0  0  0  0
    4.9486    1.0035   19.9686 C   0  0  0  0  0  0  0  0  0  0  0  0
    4.9703    0.9365   22.1486 H   0  0  0  0  0  0  0  0  0  0  0  0
    2.9976    2.3800   22.4085 H   0  0  0  0  0  0  0  0  0  0  0  0
    1.8282    3.2686   20.4039 H   0  0  0  0  0  0  0  0  0  0  0  0
    2.6138    2.6634   18.1324 H   0  0  0  0  0  0  0  0  0  0  0  0
    4.1497    1.3988   16.6683 H   0  0  0  0  0  0  0  0  0  0  0  0
    7.2371   -0.8421   18.2424 H   0  0  0  0  0  0  0  0  0  0  0  0
    7.6309    0.6039   21.5700 C   0  0  0  0  0  0  0  0  0  0  0  0
    7.7183    1.7994   21.4003 O   0  0  0  0  0  0  0  0  0  0  0  0
    8.2444   -0.2618   22.6960 C   0  0  1  0  0  0  0  0  0  0  0  0
    7.3699   -0.1218   23.9720 C   0  0  0  0  0  0  0  0  0  0  0  0
    7.5472    1.1971   24.5603 N   0  0  0  0  0  0  0  0  0  0  0  0
    6.4050    1.9132   25.1024 C   0  0  0  0  0  0  0  0  0  0  0  0
    6.0134    1.4082   26.4561 C   0  0  0  0  0  0  0  0  0  0  0  0
    5.0644    0.5397   26.7121 N   0  0  0  0  0  0  0  0  0  0  0  0
    5.0886    0.3995   28.0809 C   0  0  0  0  0  0  0  0  0  0  0  0
    6.0509    1.1912   28.6378 C   0  0  0  0  0  0  0  0  0  0  0  0
    6.6572    1.8269   27.5802 N   0  0  0  0  0  0  0  0  0  0  0  0
    7.5688    2.2716   27.5457 H   0  0  0  0  0  0  0  0  0  0  0  0
    6.2952    1.4239   29.6651 H   0  0  0  0  0  0  0  0  0  0  0  0
    4.4059   -0.2738   28.5838 H   0  0  0  0  0  0  0  0  0  0  0  0
    5.5597    1.8237   24.4081 H   0  0  0  0  0  0  0  0  0  0  0  0
    6.6838    2.9710   25.1627 H   0  0  0  0  0  0  0  0  0  0  0  0
    8.7920    1.5474   24.9928 C   0  0  0  0  0  0  0  0  0  0  0  0
    8.9763    2.3006   25.9493 O   0  0  0  0  0  0  0  0  0  0  0  0
    9.9065    0.9817   24.1699 C   0  0  0  0  0  0  0  0  0  0  0  0
   11.2017    1.3609   24.4950 C   0  0  0  0  0  0  0  0  0  0  0  0
   12.2643    1.0528   23.6765 C   0  0  0  0  0  0  0  0  0  0  0  0
   12.0050    0.3197   22.5198 C   0  0  0  0  0  0  0  0  0  0  0  0
   13.3149   -0.0034   21.4312 Cl  0  0  0  0  0  0  0  0  0  0  0  0
   10.7365   -0.1437   22.2173 C   0  0  0  0  0  0  0  0  0  0  0  0
    9.6530    0.1760   23.0481 C   0  0  0  0  0  0  0  0  0  0  0  0
   10.6138   -0.7623   21.3345 H   0  0  0  0  0  0  0  0  0  0  0  0
   13.2714    1.3893   23.8951 H   0  0  0  0  0  0  0  0  0  0  0  0
   11.3260    1.9324   25.3973 H   0  0  0  0  0  0  0  0  0  0  0  0
    6.3041   -0.2871   23.7720 H   0  0  0  0  0  0  0  0  0  0  0  0
    7.6826   -0.8853   24.6993 H   0  0  0  0  0  0  0  0  0  0  0  0
    5.9558   -1.8829   21.6572 H   0  0  0  0  0  0  0  0  0  0  0  0
    6.9976   -2.2602   20.2837 H   0  0  0  0  0  0  0  0  0  0  0  0
    8.9853   -1.8606   21.4362 H   0  0  0  0  0  0  0  0  0  0  0  0
    7.0865   -2.6957   23.6827 H   0  0  0  0  0  0  0  0  0  0  0  0
    8.8619   -2.8157   23.7455 H   0  0  0  0  0  0  0  0  0  0  0  0
    7.9961   -5.9950   22.5892 H   0  0  0  0  0  0  0  0  0  0  0  0
    8.1091   -5.0129   24.0822 H   0  0  0  0  0  0  0  0  0  0  0  0
    6.5335   -5.1737   23.2535 H   0  0  0  0  0  0  0  0  0  0  0  0
  1  2  1  0
  2  3  1  0
  3  4  1  0
  4  5  1  0
  5  6  1  0
  6  7  1  0
  7  8  2  0
  8  9  1  0
  9 10  2  0
 10 11  1  0
 11 12  2  0
 12 13  1  0
 13 14  2  0
 14 15  1  0
 15 16  2  0
 15 17  1  0
 14 18  1  0
 13 19  1  0
 12 20  1  0
 10 21  1  0
  8 22  1  0
  6 23  1  0
 23 24  2  0
 23 25  1  0
 25 26  1  1
 26 27  1  0
 27 28  1  0
 28 29  1  0
 29 30  2  0
 30 31  1  0
 31 32  2  0
 32 33  1  0
 33 34  1  0
 32 35  1  0
 31 36  1  0
 28 37  1  0
 28 38  1  0
 27 39  1  0
 39 40  2  0
 39 41  1  0
 41 42  2  0
 42 43  1  0
 43 44  2  0
 44 45  1  0
 44 46  1  0
 46 47  2  0
 46 48  1  0
 43 49  1  0
 42 50  1  0
 26 51  1  0
 26 52  1  0
  5 53  1  0
  5 54  1  0
  4 55  1  6
  3 56  1  0
  3 57  1  0
  1 58  1  0
  1 59  1  0
  1 60  1  0
 25  4  1  0
 33 29  1  0
 47 41  1  0
 16  7  1  0
 47 25  1  0
 16 11  1  0
M  END
>  <cnnaffinities>  (60) 
[6.26974, 6.1696]

>  <score>  (60) 
6.26974

>  <index>  (60) 
59

>  <Smiles>  (60) 
C(OC([C@]1(C(N(c2c(nc(c3c(c(c(c(c23)[H])[H])[H])[H])[H])[H])C(=O)[C@]21C(N(C(c1nc(c(n1[H])[H])[H])([H])[H])C(=O)c1c(c(c(Cl)c(c21)[H])[H])[H])([H])[H])([H])[H])[H])([H])[H])([H])([H])[H]

>  <h>  (60) 
<NA>

>  <Training>  (60) 
True

>  <Success>  (60) 
True

>  <enamine_searched>  (60) 
False

>  <enamine_id>  (60) 
nan

$$$$

     RDKit          3D

 38 41  0  0  0  0  0  0  0  0999 V2000
    8.6101    1.2618   20.7284 O   0  0  0  0  0  0  0  0  0  0  0  0
    7.8618    0.6694   21.4849 C   0  0  0  0  0  0  0  0  0  0  0  0
    6.9465   -0.4392   20.9190 C   0  0  0  0  0  0  0  0  0  0  0  0
    6.1084    0.0829   19.7687 C   0  0  0  0  0  0  0  0  0  0  0  0
    6.4263   -0.2071   18.4657 C   0  0  0  0  0  0  0  0  0  0  0  0
    5.7573    0.2429   17.3712 N   0  0  0  0  0  0  0  0  0  0  0  0
    4.7325    1.0311   17.5771 C   0  0  0  0  0  0  0  0  0  0  0  0
    4.2836    1.4222   18.8692 C   0  0  0  0  0  0  0  0  0  0  0  0
    3.1659    2.2778   19.0452 C   0  0  0  0  0  0  0  0  0  0  0  0
    2.7639    2.6475   20.2999 C   0  0  0  0  0  0  0  0  0  0  0  0
    3.4619    2.1701   21.4308 C   0  0  0  0  0  0  0  0  0  0  0  0
    4.5450    1.3369   21.2872 C   0  0  0  0  0  0  0  0  0  0  0  0
    4.9887    0.9400   19.9968 C   0  0  0  0  0  0  0  0  0  0  0  0
    5.0703    0.9867   22.1707 H   0  0  0  0  0  0  0  0  0  0  0  0
    3.1354    2.4662   22.4218 H   0  0  0  0  0  0  0  0  0  0  0  0
    1.9139    3.3104   20.4336 H   0  0  0  0  0  0  0  0  0  0  0  0
    2.6480    2.6495   18.1641 H   0  0  0  0  0  0  0  0  0  0  0  0
    4.1995    1.3992   16.6984 H   0  0  0  0  0  0  0  0  0  0  0  0
    7.2732   -0.8561   18.2453 H   0  0  0  0  0  0  0  0  0  0  0  0
    6.3021   -0.8994   21.6753 H   0  0  0  0  0  0  0  0  0  0  0  0
    7.6001   -1.2298   20.5329 H   0  0  0  0  0  0  0  0  0  0  0  0
    7.7608    1.0120   22.8227 N   0  0  0  0  0  0  0  0  0  0  0  0
    8.3086    2.3205   23.2107 C   0  0  0  0  0  0  0  0  0  0  0  0
    7.6733    2.8472   24.4953 C   0  0  0  0  0  0  0  0  0  0  0  0
    7.7411    1.7976   25.5555 C   0  0  0  0  0  0  0  0  0  0  0  0
    7.8276    2.0684   27.2614 S   0  0  0  0  0  0  0  0  0  0  0  0
    7.7937    0.3704   27.5681 C   0  0  0  0  0  0  0  0  0  0  0  0
    7.7195   -0.3559   26.4160 C   0  0  0  0  0  0  0  0  0  0  0  0
    7.6944    0.4758   25.2550 C   0  0  0  0  0  0  0  0  0  0  0  0
    7.5143   -0.0072   23.8406 C   0  0  0  0  0  0  0  0  0  0  0  0
    8.1589   -0.8835   23.6958 H   0  0  0  0  0  0  0  0  0  0  0  0
    6.4903   -0.3919   23.7482 H   0  0  0  0  0  0  0  0  0  0  0  0
    7.6707   -1.4418   26.3966 H   0  0  0  0  0  0  0  0  0  0  0  0
    7.8340    0.0044   28.5860 H   0  0  0  0  0  0  0  0  0  0  0  0
    8.1612    3.7696   24.8192 H   0  0  0  0  0  0  0  0  0  0  0  0
    6.6218    3.1046   24.3138 H   0  0  0  0  0  0  0  0  0  0  0  0
    9.3971    2.2732   23.3355 H   0  0  0  0  0  0  0  0  0  0  0  0
    8.1181    3.0163   22.3920 H   0  0  0  0  0  0  0  0  0  0  0  0
  1  2  2  0
  2  3  1  0
  3  4  1  0
  4  5  2  0
  5  6  1  0
  6  7  2  0
  7  8  1  0
  8  9  2  0
  9 10  1  0
 10 11  2  0
 11 12  1  0
 12 13  2  0
 12 14  1  0
 11 15  1  0
 10 16  1  0
  9 17  1  0
  7 18  1  0
  5 19  1  0
  3 20  1  0
  3 21  1  0
  2 22  1  0
 22 23  1  0
 23 24  1  0
 24 25  1  0
 25 26  1  0
 26 27  1  0
 27 28  2  0
 28 29  1  0
 29 30  1  0
 30 31  1  0
 30 32  1  0
 28 33  1  0
 27 34  1  0
 24 35  1  0
 24 36  1  0
 23 37  1  0
 23 38  1  0
 13  4  1  0
 30 22  1  0
 13  8  1  0
 29 25  2  0
M  END
>  <cnnaffinities>  (61) 
[4.71779, 4.90342, 4.93619]

>  <score>  (61) 
4.71779

>  <index>  (61) 
60

>  <Smiles>  (61) 
O=C(C(c1c(nc(c2c(c(c(c(c12)[H])[H])[H])[H])[H])[H])([H])[H])N1C(C(c2sc(c(c2C1([H])[H])[H])[H])([H])[H])([H])[H]

>  <h>  (61) 
<NA>

>  <Training>  (61) 
True

>  <Success>  (61) 
True

>  <enamine_searched>  (61) 
False

>  <enamine_id>  (61) 
nan

$$$$

     RDKit          3D

 64 70  0  0  0  0  0  0  0  0999 V2000
    9.2039    2.6268   25.5981 O   0  0  0  0  0  0  0  0  0  0  0  0
    8.9090    1.6941   24.8578 C   0  0  0  0  0  0  0  0  0  0  0  0
    9.9275    0.8756   24.1512 C   0  0  0  0  0  0  0  0  0  0  0  0
   11.2568    1.1834   24.3997 C   0  0  0  0  0  0  0  0  0  0  0  0
   12.2559    0.6652   23.6094 C   0  0  0  0  0  0  0  0  0  0  0  0
   11.8675   -0.1354   22.5381 C   0  0  0  0  0  0  0  0  0  0  0  0
   13.0236   -0.5333   21.3399 Cl  0  0  0  0  0  0  0  0  0  0  0  0
   10.5596   -0.5260   22.3371 C   0  0  0  0  0  0  0  0  0  0  0  0
    9.5542   -0.0449   23.1690 C   0  0  0  0  0  0  0  0  0  0  0  0
    8.1093   -0.3843   22.8700 C   0  0  1  0  0  0  0  0  0  0  0  0
    7.3030   -0.0013   24.1343 C   0  0  0  0  0  0  0  0  0  0  0  0
    7.6294    1.3571   24.5464 N   0  0  0  0  0  0  0  0  0  0  0  0
    6.5801    2.3187   24.7989 C   0  0  0  0  0  0  0  0  0  0  0  0
    5.8008    1.9441   26.0265 C   0  0  0  0  0  0  0  0  0  0  0  0
    6.3377    2.0883   27.2834 C   0  0  0  0  0  0  0  0  0  0  0  0
    5.5602    1.6463   28.3482 C   0  0  0  0  0  0  0  0  0  0  0  0
    4.3656    1.0733   28.2135 N   0  0  0  0  0  0  0  0  0  0  0  0
    3.8666    0.8954   27.0001 N   0  0  0  0  0  0  0  0  0  0  0  0
    4.5617    1.3141   25.9469 C   0  0  0  0  0  0  0  0  0  0  0  0
    4.1222    1.1145   24.9725 H   0  0  0  0  0  0  0  0  0  0  0  0
    5.9192    1.7640   29.3660 H   0  0  0  0  0  0  0  0  0  0  0  0
    7.3347    2.5026   27.4305 H   0  0  0  0  0  0  0  0  0  0  0  0
    7.0582    3.2933   24.9364 H   0  0  0  0  0  0  0  0  0  0  0  0
    5.9513    2.3694   23.8990 H   0  0  0  0  0  0  0  0  0  0  0  0
    7.5602   -0.7107   24.9393 H   0  0  0  0  0  0  0  0  0  0  0  0
    6.2241   -0.0751   23.9658 H   0  0  0  0  0  0  0  0  0  0  0  0
    7.6143    0.4274   21.6487 C   0  0  0  0  0  0  0  0  0  0  0  0
    7.8181    1.5958   21.4034 O   0  0  0  0  0  0  0  0  0  0  0  0
    6.8857   -0.4162   20.8426 N   0  0  0  0  0  0  0  0  0  0  0  0
    6.1103    0.0847   19.7792 C   0  0  0  0  0  0  0  0  0  0  0  0
    6.4332   -0.2432   18.4900 C   0  0  0  0  0  0  0  0  0  0  0  0
    5.7713    0.2108   17.4028 N   0  0  0  0  0  0  0  0  0  0  0  0
    4.7544    1.0126   17.6067 C   0  0  0  0  0  0  0  0  0  0  0  0
    4.3029    1.4074   18.8969 C   0  0  0  0  0  0  0  0  0  0  0  0
    3.1809    2.2585   19.0641 C   0  0  0  0  0  0  0  0  0  0  0  0
    2.7540    2.6081   20.3150 C   0  0  0  0  0  0  0  0  0  0  0  0
    3.4214    2.1177   21.4583 C   0  0  0  0  0  0  0  0  0  0  0  0
    4.5093    1.2942   21.3255 C   0  0  0  0  0  0  0  0  0  0  0  0
    4.9880    0.9299   20.0307 C   0  0  0  0  0  0  0  0  0  0  0  0
    5.0092    0.9168   22.2124 H   0  0  0  0  0  0  0  0  0  0  0  0
    3.0613    2.3929   22.4460 H   0  0  0  0  0  0  0  0  0  0  0  0
    1.8939    3.2583   20.4329 H   0  0  0  0  0  0  0  0  0  0  0  0
    2.6818    2.6261   18.1731 H   0  0  0  0  0  0  0  0  0  0  0  0
    4.2198    1.3785   16.7301 H   0  0  0  0  0  0  0  0  0  0  0  0
    7.2876   -0.8925   18.3026 H   0  0  0  0  0  0  0  0  0  0  0  0
    6.7379   -1.7572   21.3564 C   0  0  0  0  0  0  0  0  0  0  0  0
    7.8654   -1.8458   22.3898 C   0  0  2  0  0  0  0  0  0  0  0  0
    7.5847   -2.8890   23.4754 C   0  0  0  0  0  0  0  0  0  0  0  0
    7.5241   -4.2320   22.9194 N   0  0  0  0  0  0  0  0  0  0  0  0
    6.3490   -4.8359   22.6121 C   0  0  0  0  0  0  0  0  0  0  0  0
    5.1704   -4.3039   22.8144 N   0  0  0  0  0  0  0  0  0  0  0  0
    4.1415   -5.1329   22.4560 N   0  0  0  0  0  0  0  0  0  0  0  0
    4.5543   -6.2656   21.9933 C   0  0  0  0  0  0  0  0  0  0  0  0
    6.2759   -6.4420   21.9222 S   0  0  0  0  0  0  0  0  0  0  0  0
    3.8910   -7.0535   21.6706 H   0  0  0  0  0  0  0  0  0  0  0  0
    8.3946   -4.7065   22.7384 H   0  0  0  0  0  0  0  0  0  0  0  0
    6.6176   -2.6918   23.9479 H   0  0  0  0  0  0  0  0  0  0  0  0
    8.3638   -2.8407   24.2490 H   0  0  0  0  0  0  0  0  0  0  0  0
    8.7678   -2.1706   21.8575 H   0  0  0  0  0  0  0  0  0  0  0  0
    5.7481   -1.9308   21.8085 H   0  0  0  0  0  0  0  0  0  0  0  0
    6.8508   -2.4765   20.5469 H   0  0  0  0  0  0  0  0  0  0  0  0
   10.3391   -1.1764   21.5036 H   0  0  0  0  0  0  0  0  0  0  0  0
   13.2955    0.9174   23.7669 H   0  0  0  0  0  0  0  0  0  0  0  0
   11.4398    1.8922   25.1875 H   0  0  0  0  0  0  0  0  0  0  0  0
  1  2  2  0
  2  3  1  0
  3  4  2  0
  4  5  1  0
  5  6  2  0
  6  7  1  0
  6  8  1  0
  8  9  2  0
  9 10  1  0
 10 11  1  1
 11 12  1  0
 12 13  1  0
 13 14  1  0
 14 15  2  0
 15 16  1  0
 16 17  2  0
 17 18  1  0
 18 19  2  0
 19 20  1  0
 16 21  1  0
 15 22  1  0
 13 23  1  0
 13 24  1  0
 11 25  1  0
 11 26  1  0
 10 27  1  0
 27 28  2  0
 27 29  1  0
 29 30  1  0
 30 31  2  0
 31 32  1  0
 32 33  2  0
 33 34  1  0
 34 35  2  0
 35 36  1  0
 36 37  2  0
 37 38  1  0
 38 39  2  0
 38 40  1  0
 37 41  1  0
 36 42  1  0
 35 43  1  0
 33 44  1  0
 31 45  1  0
 29 46  1  0
 46 47  1  0
 47 48  1  0
 48 49  1  0
 49 50  1  0
 50 51  2  0
 51 52  1  0
 52 53  2  0
 53 54  1  0
 53 55  1  0
 49 56  1  0
 48 57  1  0
 48 58  1  0
 47 59  1  6
 46 60  1  0
 46 61  1  0
  8 62  1  0
  5 63  1  0
  4 64  1  0
 12  2  1  0
 19 14  1  0
 39 30  1  0
 54 50  1  0
  9  3  1  0
 47 10  1  0
 39 34  1  0
M  END
>  <cnnaffinities>  (62) 
[6.42798]

>  <score>  (62) 
6.42798

>  <index>  (62) 
61

>  <Smiles>  (62) 
O=C1c2c(c(c(Cl)c(c2[C@@]2(C(N1C(c1c(c(nnc1[H])[H])[H])([H])[H])([H])[H])C(=O)N(c1c(nc(c3c(c(c(c(c13)[H])[H])[H])[H])[H])[H])C([C@@]2(C(N(c1nnc(s1)[H])[H])([H])[H])[H])([H])[H])[H])[H])[H]

>  <h>  (62) 
<NA>

>  <Training>  (62) 
True

>  <Success>  (62) 
True

>  <enamine_searched>  (62) 
False

>  <enamine_id>  (62) 
nan

$$$$

     RDKit          3D

 70 76  0  0  0  0  0  0  0  0999 V2000
    7.5559   -2.5208   23.7846 C   0  0  0  0  0  0  0  0  0  0  0  0
    7.8808   -1.7039   22.5296 C   0  0  1  0  0  0  0  0  0  0  0  0
    6.6872   -1.6066   21.5546 C   0  0  0  0  0  0  0  0  0  0  0  0
    6.9490   -0.3794   20.8251 N   0  0  0  0  0  0  0  0  0  0  0  0
    6.1415    0.1101   19.7618 C   0  0  0  0  0  0  0  0  0  0  0  0
    6.4493   -0.2158   18.4660 C   0  0  0  0  0  0  0  0  0  0  0  0
    5.7603    0.2223   17.3867 N   0  0  0  0  0  0  0  0  0  0  0  0
    4.7417    1.0181   17.5941 C   0  0  0  0  0  0  0  0  0  0  0  0
    4.2954    1.4229   18.8860 C   0  0  0  0  0  0  0  0  0  0  0  0
    3.1739    2.2781   19.0641 C   0  0  0  0  0  0  0  0  0  0  0  0
    2.7632    2.6424   20.3175 C   0  0  0  0  0  0  0  0  0  0  0  0
    3.4525    2.1605   21.4509 C   0  0  0  0  0  0  0  0  0  0  0  0
    4.5387    1.3306   21.3029 C   0  0  0  0  0  0  0  0  0  0  0  0
    5.0062    0.9482   20.0123 C   0  0  0  0  0  0  0  0  0  0  0  0
    5.0496    0.9548   22.1832 H   0  0  0  0  0  0  0  0  0  0  0  0
    3.1321    2.4564   22.4463 H   0  0  0  0  0  0  0  0  0  0  0  0
    1.9141    3.3106   20.4394 H   0  0  0  0  0  0  0  0  0  0  0  0
    2.6688    2.6495   18.1776 H   0  0  0  0  0  0  0  0  0  0  0  0
    4.2139    1.3834   16.7130 H   0  0  0  0  0  0  0  0  0  0  0  0
    7.2973   -0.8640   18.2526 H   0  0  0  0  0  0  0  0  0  0  0  0
    7.8854    0.4349   21.4187 C   0  0  0  0  0  0  0  0  0  0  0  0
    8.2647    1.4882   20.9490 O   0  0  0  0  0  0  0  0  0  0  0  0
    8.3484   -0.2227   22.7393 C   0  0  1  0  0  0  0  0  0  0  0  0
    7.6402    0.4219   23.9571 C   0  0  0  0  0  0  0  0  0  0  0  0
    8.0331    1.8037   24.1407 N   0  0  0  0  0  0  0  0  0  0  0  0
    7.0301    2.8408   24.2919 C   0  0  0  0  0  0  0  0  0  0  0  0
    6.8541    3.6525   23.0072 C   0  0  0  0  0  0  0  0  0  0  0  0
    5.7174    4.6501   23.1186 N   0  0  2  0  0  4  0  0  0  0  0  0
    5.2622    5.1707   21.7744 C   0  0  0  0  0  0  0  0  0  0  0  0
    6.1402    6.3945   21.4750 C   0  0  0  0  0  0  0  0  0  0  0  0
    6.6683    6.8920   22.8291 C   0  0  0  0  0  0  0  0  0  0  0  0
    6.5102    8.3822   23.1774 C   0  0  0  0  0  0  0  0  0  0  0  0
    7.9289    8.5824   23.2430 O   0  0  0  0  0  0  0  0  0  0  0  0
    8.1748    7.2109   22.9095 C   0  0  0  0  0  0  0  0  0  0  0  0
    8.7255    6.6873   23.7044 H   0  0  0  0  0  0  0  0  0  0  0  0
    8.7312    7.1023   21.9680 H   0  0  0  0  0  0  0  0  0  0  0  0
    6.0358    8.9979   22.4016 H   0  0  0  0  0  0  0  0  0  0  0  0
    6.0224    8.5947   24.1385 H   0  0  0  0  0  0  0  0  0  0  0  0
    6.1127    5.9133   23.8695 C   0  0  0  0  0  0  0  0  0  0  0  0
    6.8477    5.6503   24.6305 H   0  0  0  0  0  0  0  0  0  0  0  0
    5.2269    6.3159   24.3679 H   0  0  0  0  0  0  0  0  0  0  0  0
    6.9774    6.1212   20.8235 H   0  0  0  0  0  0  0  0  0  0  0  0
    5.5737    7.1733   20.9556 H   0  0  0  0  0  0  0  0  0  0  0  0
    4.2073    5.4309   21.8582 H   0  0  0  0  0  0  0  0  0  0  0  0
    5.3595    4.3631   21.0472 H   0  0  0  0  0  0  0  0  0  0  0  0
    4.9326    4.1647   23.5820 H   0  0  0  0  0  0  0  0  0  0  0  0
    7.7741    4.1930   22.7694 H   0  0  0  0  0  0  0  0  0  0  0  0
    6.6389    2.9855   22.1706 H   0  0  0  0  0  0  0  0  0  0  0  0
    6.0875    2.3475   24.5499 H   0  0  0  0  0  0  0  0  0  0  0  0
    7.3408    3.4737   25.1272 H   0  0  0  0  0  0  0  0  0  0  0  0
    9.3461    2.1797   24.1540 C   0  0  0  0  0  0  0  0  0  0  0  0
    9.7124    3.2705   24.5665 O   0  0  0  0  0  0  0  0  0  0  0  0
   10.3023    1.1664   23.5898 C   0  0  0  0  0  0  0  0  0  0  0  0
   11.6682    1.4131   23.6908 C   0  0  0  0  0  0  0  0  0  0  0  0
   12.5838    0.5189   23.1755 C   0  0  0  0  0  0  0  0  0  0  0  0
   12.0950   -0.6311   22.5582 C   0  0  0  0  0  0  0  0  0  0  0  0
   13.1137   -1.9932   22.1966 Cl  0  0  0  0  0  0  0  0  0  0  0  0
   10.7502   -0.8288   22.3417 C   0  0  0  0  0  0  0  0  0  0  0  0
    9.8278    0.0293   22.9169 C   0  0  0  0  0  0  0  0  0  0  0  0
   10.4513   -1.6660   21.7227 H   0  0  0  0  0  0  0  0  0  0  0  0
   13.6487    0.6987   23.2386 H   0  0  0  0  0  0  0  0  0  0  0  0
   11.9727    2.3113   24.2082 H   0  0  0  0  0  0  0  0  0  0  0  0
    7.9039   -0.1651   24.8518 H   0  0  0  0  0  0  0  0  0  0  0  0
    6.5526    0.3868   23.8213 H   0  0  0  0  0  0  0  0  0  0  0  0
    6.6229   -2.4565   20.8667 H   0  0  0  0  0  0  0  0  0  0  0  0
    5.7336   -1.5641   22.1054 H   0  0  0  0  0  0  0  0  0  0  0  0
    8.6865   -2.2091   21.9927 H   0  0  0  0  0  0  0  0  0  0  0  0
    8.3914   -2.5373   24.4926 H   0  0  0  0  0  0  0  0  0  0  0  0
    7.3163   -3.5611   23.5341 H   0  0  0  0  0  0  0  0  0  0  0  0
    6.6861   -2.1094   24.3097 H   0  0  0  0  0  0  0  0  0  0  0  0
  1  2  1  0
  2  3  1  0
  3  4  1  0
  4  5  1  0
  5  6  2  0
  6  7  1  0
  7  8  2  0
  8  9  1  0
  9 10  2  0
 10 11  1  0
 11 12  2  0
 12 13  1  0
 13 14  2  0
 13 15  1  0
 12 16  1  0
 11 17  1  0
 10 18  1  0
  8 19  1  0
  6 20  1  0
  4 21  1  0
 21 22  2  0
 21 23  1  0
 23 24  1  1
 24 25  1  0
 25 26  1  0
 26 27  1  0
 27 28  1  0
 28 29  1  0
 29 30  1  0
 30 31  1  0
 31 32  1  0
 32 33  1  0
 33 34  1  0
 34 35  1  0
 34 36  1  0
 32 37  1  0
 32 38  1  0
 31 39  1  0
 39 40  1  0
 39 41  1  0
 30 42  1  0
 30 43  1  0
 29 44  1  0
 29 45  1  0
 28 46  1  1
 27 47  1  0
 27 48  1  0
 26 49  1  0
 26 50  1  0
 25 51  1  0
 51 52  2  0
 51 53  1  0
 53 54  2  0
 54 55  1  0
 55 56  2  0
 56 57  1  0
 56 58  1  0
 58 59  2  0
 58 60  1  0
 55 61  1  0
 54 62  1  0
 24 63  1  0
 24 64  1  0
  3 65  1  0
  3 66  1  0
  2 67  1  6
  1 68  1  0
  1 69  1  0
  1 70  1  0
 23  2  1  0
 39 28  1  0
 59 53  1  0
 14  5  1  0
 59 23  1  0
 14  9  1  0
 34 31  1  0
M  CHG  1  28   1
M  END
>  <cnnaffinities>  (63) 
[6.59124]

>  <score>  (63) 
6.59124

>  <index>  (63) 
62

>  <Smiles>  (63) 
C([C@]1(C(N(c2c(nc(c3c(c(c(c(c23)[H])[H])[H])[H])[H])[H])C(=O)[C@]21C(N(C(C([N@@+]1(C(C(C3(C(OC3([H])[H])([H])[H])C1([H])[H])([H])[H])([H])[H])[H])([H])[H])([H])[H])C(=O)c1c(c(c(Cl)c(c21)[H])[H])[H])([H])[H])([H])[H])[H])([H])([H])[H]

>  <h>  (63) 
<NA>

>  <Training>  (63) 
True

>  <Success>  (63) 
True

>  <enamine_searched>  (63) 
False

>  <enamine_id>  (63) 
nan

$$$$

     RDKit          3D

 56 61  0  0  0  0  0  0  0  0999 V2000
    5.5689    4.8338   21.4546 C   0  0  0  0  0  0  0  0  0  0  0  0
    6.5794    4.5717   22.4627 N   0  0  0  0  0  0  0  0  0  0  0  0
    7.7843    5.1701   22.5696 C   0  0  0  0  0  0  0  0  0  0  0  0
    8.4628    4.5280   23.5785 C   0  0  0  0  0  0  0  0  0  0  0  0
    7.5836    3.5118   24.0095 C   0  0  0  0  0  0  0  0  0  0  0  0
    7.8914    2.4351   25.0236 C   0  0  0  0  0  0  0  0  0  0  0  0
    8.6647    1.3143   24.4871 N   0  0  0  0  0  0  0  0  0  0  0  0
    7.9941    0.0736   24.1554 C   0  0  0  0  0  0  0  0  0  0  0  0
    8.3487   -0.4330   22.7442 C   0  0  1  0  0  0  0  0  0  0  0  0
    7.7325   -1.8347   22.5276 C   0  0  0  0  0  0  0  0  0  0  0  0
    6.9926   -1.8130   21.1764 C   0  0  0  0  0  0  0  0  0  0  0  0
    6.8713   -0.4008   20.8778 N   0  0  0  0  0  0  0  0  0  0  0  0
    6.1292    0.1071   19.7837 C   0  0  0  0  0  0  0  0  0  0  0  0
    6.4456   -0.2261   18.4899 C   0  0  0  0  0  0  0  0  0  0  0  0
    5.7723    0.2213   17.4050 N   0  0  0  0  0  0  0  0  0  0  0  0
    4.7508    1.0183   17.6028 C   0  0  0  0  0  0  0  0  0  0  0  0
    4.2938    1.4217   18.8879 C   0  0  0  0  0  0  0  0  0  0  0  0
    3.1600    2.2605   19.0639 C   0  0  0  0  0  0  0  0  0  0  0  0
    2.7326    2.6037   20.3181 C   0  0  0  0  0  0  0  0  0  0  0  0
    3.4171    2.1181   21.4537 C   0  0  0  0  0  0  0  0  0  0  0  0
    4.5198    1.3133   21.3088 C   0  0  0  0  0  0  0  0  0  0  0  0
    5.0004    0.9536   20.0203 C   0  0  0  0  0  0  0  0  0  0  0  0
    5.0259    0.9359   22.1907 H   0  0  0  0  0  0  0  0  0  0  0  0
    3.0807    2.3904   22.4503 H   0  0  0  0  0  0  0  0  0  0  0  0
    1.8720    3.2534   20.4443 H   0  0  0  0  0  0  0  0  0  0  0  0
    2.6555    2.6316   18.1770 H   0  0  0  0  0  0  0  0  0  0  0  0
    4.2292    1.3795   16.7172 H   0  0  0  0  0  0  0  0  0  0  0  0
    7.2889   -0.8775   18.2653 H   0  0  0  0  0  0  0  0  0  0  0  0
    7.7022    0.4134   21.6173 C   0  0  0  0  0  0  0  0  0  0  0  0
    7.8950    1.5825   21.3762 O   0  0  0  0  0  0  0  0  0  0  0  0
    5.9942   -2.2646   21.2282 H   0  0  0  0  0  0  0  0  0  0  0  0
    7.5569   -2.3273   20.3907 H   0  0  0  0  0  0  0  0  0  0  0  0
    8.4919   -2.6203   22.5699 H   0  0  0  0  0  0  0  0  0  0  0  0
    7.0239   -2.0396   23.3357 H   0  0  0  0  0  0  0  0  0  0  0  0
    9.8467   -0.3737   22.5972 C   0  0  0  0  0  0  0  0  0  0  0  0
   10.4416   -1.1592   21.6156 C   0  0  0  0  0  0  0  0  0  0  0  0
   11.8029   -1.1105   21.4135 C   0  0  0  0  0  0  0  0  0  0  0  0
   12.4467   -2.1784   20.2087 Cl  0  0  0  0  0  0  0  0  0  0  0  0
   12.6138   -0.2446   22.1451 C   0  0  0  0  0  0  0  0  0  0  0  0
   12.0166    0.5722   23.0917 C   0  0  0  0  0  0  0  0  0  0  0  0
   10.6410    0.5202   23.3231 C   0  0  0  0  0  0  0  0  0  0  0  0
   10.0143    1.4833   24.2899 C   0  0  0  0  0  0  0  0  0  0  0  0
   10.6396    2.3865   24.8322 O   0  0  0  0  0  0  0  0  0  0  0  0
   12.5892    1.2838   23.6738 H   0  0  0  0  0  0  0  0  0  0  0  0
   13.6816   -0.2043   21.9580 H   0  0  0  0  0  0  0  0  0  0  0  0
    9.8698   -1.8179   20.9724 H   0  0  0  0  0  0  0  0  0  0  0  0
    8.2544   -0.7219   24.8761 H   0  0  0  0  0  0  0  0  0  0  0  0
    6.9181    0.2619   24.1877 H   0  0  0  0  0  0  0  0  0  0  0  0
    6.9588    2.0343   25.4407 H   0  0  0  0  0  0  0  0  0  0  0  0
    8.4873    2.8649   25.8338 H   0  0  0  0  0  0  0  0  0  0  0  0
    6.4273    3.5711   23.3518 N   0  0  0  0  0  0  0  0  0  0  0  0
    9.4565    4.7054   23.9619 H   0  0  0  0  0  0  0  0  0  0  0  0
    8.0566    5.9776   21.8985 H   0  0  0  0  0  0  0  0  0  0  0  0
    4.5862    4.7733   21.9284 H   0  0  0  0  0  0  0  0  0  0  0  0
    5.7349    5.8458   21.0697 H   0  0  0  0  0  0  0  0  0  0  0  0
    5.6119    4.1002   20.6362 H   0  0  0  0  0  0  0  0  0  0  0  0
  1  2  1  0
  2  3  1  0
  3  4  2  0
  4  5  1  0
  5  6  1  0
  6  7  1  0
  7  8  1  0
  9  8  1  1
  9 10  1  0
 10 11  1  0
 11 12  1  0
 12 13  1  0
 13 14  2  0
 14 15  1  0
 15 16  2  0
 16 17  1  0
 17 18  2  0
 18 19  1  0
 19 20  2  0
 20 21  1  0
 21 22  2  0
 21 23  1  0
 20 24  1  0
 19 25  1  0
 18 26  1  0
 16 27  1  0
 14 28  1  0
 12 29  1  0
 29 30  2  0
 11 31  1  0
 11 32  1  0
 10 33  1  0
 10 34  1  0
  9 35  1  0
 35 36  2  0
 36 37  1  0
 37 38  1  0
 37 39  2  0
 39 40  1  0
 40 41  2  0
 41 42  1  0
 42 43  2  0
 40 44  1  0
 39 45  1  0
 36 46  1  0
  8 47  1  0
  8 48  1  0
  6 49  1  0
  6 50  1  0
  5 51  2  0
  4 52  1  0
  3 53  1  0
  1 54  1  0
  1 55  1  0
  1 56  1  0
 51  2  1  0
 42  7  1  0
 29  9  1  0
 41 35  1  0
 22 13  1  0
 22 17  1  0
M  END
>  <cnnaffinities>  (64) 
[6.24245]

>  <score>  (64) 
6.24245

>  <index>  (64) 
63

>  <Smiles>  (64) 
C(n1c(c(c(C(N2C([C@]3(C(C(N(c4c(nc(c5c(c(c(c(c45)[H])[H])[H])[H])[H])[H])C3=O)([H])[H])([H])[H])c3c(c(Cl)c(c(c3C2=O)[H])[H])[H])([H])[H])([H])[H])n1)[H])[H])([H])([H])[H]

>  <h>  (64) 
<NA>

>  <Training>  (64) 
True

>  <Success>  (64) 
True

>  <enamine_searched>  (64) 
False

>  <enamine_id>  (64) 
nan

$$$$

     RDKit          3D

 66 71  0  0  0  0  0  0  0  0999 V2000
    7.5423   -2.4211   23.8669 C   0  0  0  0  0  0  0  0  0  0  0  0
    7.8583   -1.6907   22.5560 C   0  0  1  0  0  0  0  0  0  0  0  0
    6.6274   -1.5470   21.6345 C   0  0  0  0  0  0  0  0  0  0  0  0
    6.9495   -0.3845   20.8237 N   0  0  0  0  0  0  0  0  0  0  0  0
    6.1429    0.1119   19.7633 C   0  0  0  0  0  0  0  0  0  0  0  0
    6.4557   -0.2080   18.4679 C   0  0  0  0  0  0  0  0  0  0  0  0
    5.7648    0.2242   17.3888 N   0  0  0  0  0  0  0  0  0  0  0  0
    4.7409    1.0152   17.5953 C   0  0  0  0  0  0  0  0  0  0  0  0
    4.2914    1.4165   18.8852 C   0  0  0  0  0  0  0  0  0  0  0  0
    3.1686    2.2715   19.0609 C   0  0  0  0  0  0  0  0  0  0  0  0
    2.7664    2.6420   20.3179 C   0  0  0  0  0  0  0  0  0  0  0  0
    3.4595    2.1662   21.4487 C   0  0  0  0  0  0  0  0  0  0  0  0
    4.5526    1.3429   21.3022 C   0  0  0  0  0  0  0  0  0  0  0  0
    5.0067    0.9489   20.0111 C   0  0  0  0  0  0  0  0  0  0  0  0
    5.0728    0.9830   22.1811 H   0  0  0  0  0  0  0  0  0  0  0  0
    3.1341    2.4553   22.4450 H   0  0  0  0  0  0  0  0  0  0  0  0
    1.9206    3.3148   20.4453 H   0  0  0  0  0  0  0  0  0  0  0  0
    2.6616    2.6397   18.1768 H   0  0  0  0  0  0  0  0  0  0  0  0
    4.2150    1.3810   16.7141 H   0  0  0  0  0  0  0  0  0  0  0  0
    7.3041   -0.8567   18.2599 H   0  0  0  0  0  0  0  0  0  0  0  0
    7.9895    0.3711   21.3185 C   0  0  0  0  0  0  0  0  0  0  0  0
    8.4494    1.3490   20.7658 O   0  0  0  0  0  0  0  0  0  0  0  0
    8.4371   -0.2419   22.6680 C   0  0  1  0  0  0  0  0  0  0  0  0
    7.8000    0.5265   23.8548 C   0  0  0  0  0  0  0  0  0  0  0  0
    8.2688    1.8966   23.9123 N   0  0  0  0  0  0  0  0  0  0  0  0
    7.3181    2.9878   24.0568 C   0  0  0  0  0  0  0  0  0  0  0  0
    7.0682    3.7064   22.7270 C   0  0  0  0  0  0  0  0  0  0  0  0
    5.9378    4.6736   22.7734 N   0  0  0  0  0  4  0  0  0  0  0  0
    6.1719    5.8149   23.7405 C   0  0  0  0  0  0  0  0  0  0  0  0
    5.1950    6.9677   23.4408 C   0  0  0  0  0  0  0  0  0  0  0  0
    4.0612    6.4862   22.7565 O   0  0  0  0  0  0  0  0  0  0  0  0
    4.3887    6.1178   21.4331 C   0  0  0  0  0  0  0  0  0  0  0  0
    5.6196    5.1882   21.3945 C   0  0  0  0  0  0  0  0  0  0  0  0
    6.4998    5.7190   21.0105 H   0  0  0  0  0  0  0  0  0  0  0  0
    5.4343    4.3253   20.7461 H   0  0  0  0  0  0  0  0  0  0  0  0
    4.5854    7.0110   20.8154 H   0  0  0  0  0  0  0  0  0  0  0  0
    3.4922    5.6332   21.0365 H   0  0  0  0  0  0  0  0  0  0  0  0
    5.6935    7.7559   22.8535 H   0  0  0  0  0  0  0  0  0  0  0  0
    4.8268    7.4198   24.3660 H   0  0  0  0  0  0  0  0  0  0  0  0
    6.0205    5.4420   24.7561 H   0  0  0  0  0  0  0  0  0  0  0  0
    7.2094    6.1502   23.6397 H   0  0  0  0  0  0  0  0  0  0  0  0
    5.0866    4.1658   23.0860 H   0  0  0  0  0  0  0  0  0  0  0  0
    6.8570    2.9708   21.9437 H   0  0  0  0  0  0  0  0  0  0  0  0
    7.9815    4.2437   22.4342 H   0  0  0  0  0  0  0  0  0  0  0  0
    7.7194    3.6728   24.8086 H   0  0  0  0  0  0  0  0  0  0  0  0
    6.3781    2.5620   24.4280 H   0  0  0  0  0  0  0  0  0  0  0  0
    9.6003    2.1940   23.8430 C   0  0  0  0  0  0  0  0  0  0  0  0
   10.0453    3.2996   24.1276 O   0  0  0  0  0  0  0  0  0  0  0  0
   10.4900    1.0721   23.3690 C   0  0  0  0  0  0  0  0  0  0  0  0
   11.8730    1.2323   23.4407 C   0  0  0  0  0  0  0  0  0  0  0  0
   12.7226    0.2254   23.0121 C   0  0  0  0  0  0  0  0  0  0  0  0
   12.1602   -0.9504   22.5201 C   0  0  0  0  0  0  0  0  0  0  0  0
   13.0964   -2.3793   22.2323 Cl  0  0  0  0  0  0  0  0  0  0  0  0
   10.8005   -1.0760   22.3426 C   0  0  0  0  0  0  0  0  0  0  0  0
    9.9359   -0.0938   22.8167 C   0  0  0  0  0  0  0  0  0  0  0  0
   10.4433   -1.9614   21.8364 H   0  0  0  0  0  0  0  0  0  0  0  0
   13.7960    0.3486   23.0581 H   0  0  0  0  0  0  0  0  0  0  0  0
   12.2508    2.1538   23.8710 H   0  0  0  0  0  0  0  0  0  0  0  0
    8.0618   -0.0056   24.7857 H   0  0  0  0  0  0  0  0  0  0  0  0
    6.7091    0.5428   23.7464 H   0  0  0  0  0  0  0  0  0  0  0  0
    5.7072   -1.3976   22.2229 H   0  0  0  0  0  0  0  0  0  0  0  0
    6.4648   -2.4245   20.9989 H   0  0  0  0  0  0  0  0  0  0  0  0
    8.5963   -2.2788   22.0029 H   0  0  0  0  0  0  0  0  0  0  0  0
    7.2304   -3.4574   23.6818 H   0  0  0  0  0  0  0  0  0  0  0  0
    8.4075   -2.4502   24.5400 H   0  0  0  0  0  0  0  0  0  0  0  0
    6.7222   -1.9286   24.4047 H   0  0  0  0  0  0  0  0  0  0  0  0
  1  2  1  0
  2  3  1  0
  3  4  1  0
  4  5  1  0
  5  6  2  0
  6  7  1  0
  7  8  2  0
  8  9  1  0
  9 10  2  0
 10 11  1  0
 11 12  2  0
 12 13  1  0
 13 14  2  0
 13 15  1  0
 12 16  1  0
 11 17  1  0
 10 18  1  0
  8 19  1  0
  6 20  1  0
  4 21  1  0
 21 22  2  0
 21 23  1  0
 23 24  1  1
 24 25  1  0
 25 26  1  0
 26 27  1  0
 27 28  1  0
 28 29  1  0
 29 30  1  0
 30 31  1  0
 31 32  1  0
 32 33  1  0
 33 34  1  0
 33 35  1  0
 32 36  1  0
 32 37  1  0
 30 38  1  0
 30 39  1  0
 29 40  1  0
 29 41  1  0
 28 42  1  0
 27 43  1  0
 27 44  1  0
 26 45  1  0
 26 46  1  0
 25 47  1  0
 47 48  2  0
 47 49  1  0
 49 50  2  0
 50 51  1  0
 51 52  2  0
 52 53  1  0
 52 54  1  0
 54 55  2  0
 54 56  1  0
 51 57  1  0
 50 58  1  0
 24 59  1  0
 24 60  1  0
  3 61  1  0
  3 62  1  0
  2 63  1  6
  1 64  1  0
  1 65  1  0
  1 66  1  0
 23  2  1  0
 33 28  1  0
 55 49  1  0
 14  5  1  0
 55 23  1  0
 14  9  1  0
M  CHG  1  28   1
M  END
>  <cnnaffinities>  (65) 
[6.16507, 6.46504]

>  <score>  (65) 
6.16507

>  <index>  (65) 
64

>  <Smiles>  (65) 
C([C@]1(C(N(c2c(nc(c3c(c(c(c(c23)[H])[H])[H])[H])[H])[H])C(=O)[C@]21C(N(C(C([N+]1(C(C(OC(C1([H])[H])([H])[H])([H])[H])([H])[H])[H])([H])[H])([H])[H])C(=O)c1c(c(c(Cl)c(c21)[H])[H])[H])([H])[H])([H])[H])[H])([H])([H])[H]

>  <h>  (65) 
<NA>

>  <Training>  (65) 
True

>  <Success>  (65) 
True

>  <enamine_searched>  (65) 
False

>  <enamine_id>  (65) 
nan

$$$$

     RDKit          3D

 47 50  0  0  0  0  0  0  0  0999 V2000
    8.0402    1.6532   20.8965 O   0  0  0  0  0  0  0  0  0  0  0  0
    8.0502    0.5259   21.3575 C   0  0  0  0  0  0  0  0  0  0  0  0
    6.9698   -0.4799   20.9375 C   0  0  0  0  0  0  0  0  0  0  0  0
    6.1262    0.0534   19.8110 C   0  0  0  0  0  0  0  0  0  0  0  0
    6.4553   -0.2351   18.5109 C   0  0  0  0  0  0  0  0  0  0  0  0
    5.7995    0.2160   17.4117 N   0  0  0  0  0  0  0  0  0  0  0  0
    4.7732    1.0030   17.6121 C   0  0  0  0  0  0  0  0  0  0  0  0
    4.3176    1.4000   18.8977 C   0  0  0  0  0  0  0  0  0  0  0  0
    3.1921    2.2448   19.0642 C   0  0  0  0  0  0  0  0  0  0  0  0
    2.7829    2.6152   20.3142 C   0  0  0  0  0  0  0  0  0  0  0  0
    3.4883    2.1627   21.4515 C   0  0  0  0  0  0  0  0  0  0  0  0
    4.5875    1.3493   21.3159 C   0  0  0  0  0  0  0  0  0  0  0  0
    5.0222    0.9277   20.0328 C   0  0  0  0  0  0  0  0  0  0  0  0
    5.1305    1.0249   22.1977 H   0  0  0  0  0  0  0  0  0  0  0  0
    3.1522    2.4618   22.4391 H   0  0  0  0  0  0  0  0  0  0  0  0
    1.9247    3.2699   20.4379 H   0  0  0  0  0  0  0  0  0  0  0  0
    2.6738    2.5980   18.1739 H   0  0  0  0  0  0  0  0  0  0  0  0
    4.2418    1.3631   16.7298 H   0  0  0  0  0  0  0  0  0  0  0  0
    7.3090   -0.8782   18.3022 H   0  0  0  0  0  0  0  0  0  0  0  0
    6.3571   -0.7696   21.8004 H   0  0  0  0  0  0  0  0  0  0  0  0
    7.4857   -1.3866   20.5960 H   0  0  0  0  0  0  0  0  0  0  0  0
    9.0444    0.1102   22.2331 N   0  0  0  0  0  0  0  0  0  0  0  0
    9.2597   -1.2853   22.6285 C   0  0  0  0  0  0  0  0  0  0  0  0
   10.0187   -1.3333   23.9560 C   0  0  0  0  0  0  0  0  0  0  0  0
   11.3761   -0.6290   23.8720 C   0  0  1  0  0  0  0  0  0  0  0  0
   12.4501   -1.4407   23.1362 C   0  0  0  0  0  0  0  0  0  0  0  0
   13.7815   -0.6865   23.1691 C   0  0  0  0  0  0  0  0  0  0  0  0
   13.6003    0.5807   22.3596 C   0  0  0  0  0  0  0  0  0  0  0  0
   14.7708    1.2798   22.2423 F   0  0  0  0  0  0  0  0  0  0  0  0
   13.2515    0.2277   21.0738 F   0  0  0  0  0  0  0  0  0  0  0  0
   12.5264    1.4943   22.9307 C   0  0  0  0  0  0  0  0  0  0  0  0
   11.1981    0.7857   23.2791 C   0  0  1  0  0  0  0  0  0  0  0  0
   10.3262    0.7685   22.0272 C   0  0  0  0  0  0  0  0  0  0  0  0
   10.8428    0.2499   21.2010 H   0  0  0  0  0  0  0  0  0  0  0  0
   10.1187    1.8000   21.7319 H   0  0  0  0  0  0  0  0  0  0  0  0
   10.6704    1.3888   24.0342 H   0  0  0  0  0  0  0  0  0  0  0  0
   12.3335    2.2771   22.1904 H   0  0  0  0  0  0  0  0  0  0  0  0
   12.9475    1.9951   23.8036 H   0  0  0  0  0  0  0  0  0  0  0  0
   14.5882   -1.2904   22.7537 H   0  0  0  0  0  0  0  0  0  0  0  0
   14.0729   -0.3952   24.1871 H   0  0  0  0  0  0  0  0  0  0  0  0
   12.1651   -1.5804   22.0861 H   0  0  0  0  0  0  0  0  0  0  0  0
   12.5581   -2.4400   23.5742 H   0  0  0  0  0  0  0  0  0  0  0  0
   11.7445   -0.5031   24.8945 H   0  0  0  0  0  0  0  0  0  0  0  0
    9.4130   -0.8545   24.7360 H   0  0  0  0  0  0  0  0  0  0  0  0
   10.1606   -2.3730   24.2794 H   0  0  0  0  0  0  0  0  0  0  0  0
    8.3087   -1.8111   22.7479 H   0  0  0  0  0  0  0  0  0  0  0  0
    9.8521   -1.8068   21.8496 H   0  0  0  0  0  0  0  0  0  0  0  0
  1  2  2  0
  2  3  1  0
  3  4  1  0
  4  5  2  0
  5  6  1  0
  6  7  2  0
  7  8  1  0
  8  9  2  0
  9 10  1  0
 10 11  2  0
 11 12  1  0
 12 13  2  0
 12 14  1  0
 11 15  1  0
 10 16  1  0
  9 17  1  0
  7 18  1  0
  5 19  1  0
  3 20  1  0
  3 21  1  0
  2 22  1  0
 22 23  1  0
 23 24  1  0
 24 25  1  0
 25 26  1  0
 26 27  1  0
 27 28  1  0
 28 29  1  0
 28 30  1  0
 28 31  1  0
 31 32  1  0
 32 33  1  0
 33 34  1  0
 33 35  1  0
 32 36  1  1
 31 37  1  0
 31 38  1  0
 27 39  1  0
 27 40  1  0
 26 41  1  0
 26 42  1  0
 25 43  1  1
 24 44  1  0
 24 45  1  0
 23 46  1  0
 23 47  1  0
 13  4  1  0
 33 22  1  0
 13  8  1  0
 32 25  1  0
M  END
>  <cnnaffinities>  (66) 
[6.02153, 5.6048, 5.60492]

>  <score>  (66) 
6.02153

>  <index>  (66) 
66

>  <Smiles>  (66) 
O=C(C(c1c(nc(c2c(c(c(c(c12)[H])[H])[H])[H])[H])[H])([H])[H])N1C(C([C@]2(C(C(C(F)(F)C([C@]2(C1([H])[H])[H])([H])[H])([H])[H])([H])[H])[H])([H])[H])([H])[H]

>  <h>  (66) 
<NA>

>  <Training>  (66) 
True

>  <Success>  (66) 
True

>  <enamine_searched>  (66) 
False

>  <enamine_id>  (66) 
nan

$$$$

     RDKit          3D

 69 74  0  0  0  0  0  0  0  0999 V2000
    6.6239    4.3732   21.3945 C   0  0  0  0  0  0  0  0  0  0  0  0
    7.0368    3.3634   22.3753 N   0  0  0  0  0  4  0  0  0  0  0  0
    8.0952    3.8074   23.3101 C   0  0  0  0  0  0  0  0  0  0  0  0
    8.3687    2.7672   24.3967 C   0  0  0  0  0  0  0  0  0  0  0  0
    8.9925    1.5602   23.8729 N   0  0  0  0  0  0  0  0  0  0  0  0
    8.2402    0.3226   23.7768 C   0  0  0  0  0  0  0  0  0  0  0  0
    8.5679   -0.4454   22.4769 C   0  0  2  0  0  0  0  0  0  0  0  0
    7.9588    0.3176   21.2894 C   0  0  0  0  0  0  0  0  0  0  0  0
    8.2384    1.4587   20.9303 O   0  0  0  0  0  0  0  0  0  0  0  0
    6.9342   -0.4095   20.7668 N   0  0  0  0  0  0  0  0  0  0  0  0
    6.1372    0.1192   19.7224 C   0  0  0  0  0  0  0  0  0  0  0  0
    6.4594   -0.1847   18.4258 C   0  0  0  0  0  0  0  0  0  0  0  0
    5.7586    0.2496   17.3559 N   0  0  0  0  0  0  0  0  0  0  0  0
    4.7315    1.0280   17.5868 C   0  0  0  0  0  0  0  0  0  0  0  0
    4.3075    1.4352   18.8857 C   0  0  0  0  0  0  0  0  0  0  0  0
    3.1945    2.2951   19.0849 C   0  0  0  0  0  0  0  0  0  0  0  0
    2.8223    2.6724   20.3453 C   0  0  0  0  0  0  0  0  0  0  0  0
    3.5316    2.2051   21.4716 C   0  0  0  0  0  0  0  0  0  0  0  0
    4.6141    1.3694   21.3054 C   0  0  0  0  0  0  0  0  0  0  0  0
    5.0301    0.9662   20.0038 C   0  0  0  0  0  0  0  0  0  0  0  0
    5.1411    0.9995   22.1804 H   0  0  0  0  0  0  0  0  0  0  0  0
    3.2225    2.5088   22.4677 H   0  0  0  0  0  0  0  0  0  0  0  0
    1.9759    3.3380   20.4853 H   0  0  0  0  0  0  0  0  0  0  0  0
    2.6631    2.6519   18.2075 H   0  0  0  0  0  0  0  0  0  0  0  0
    4.1709    1.3782   16.7200 H   0  0  0  0  0  0  0  0  0  0  0  0
    7.3256   -0.8114   18.2271 H   0  0  0  0  0  0  0  0  0  0  0  0
    6.5254   -1.5128   21.6144 C   0  0  0  0  0  0  0  0  0  0  0  0
    7.8158   -1.7984   22.3869 C   0  0  2  0  0  0  0  0  0  0  0  0
    7.5683   -2.5512   23.6853 C   0  0  0  0  0  0  0  0  0  0  0  0
    6.9572   -3.7880   23.3909 O   0  0  0  0  0  0  0  0  0  0  0  0
    7.8936   -4.8183   23.2473 C   0  0  0  0  0  0  0  0  0  0  0  0
    7.2183   -6.0444   22.6931 C   0  0  0  0  0  0  0  0  0  0  0  0
    5.9051   -6.1724   23.0534 F   0  0  0  0  0  0  0  0  0  0  0  0
    7.9874   -7.3095   22.5723 C   0  0  0  0  0  0  0  0  0  0  0  0
    7.5286   -6.5521   21.3344 C   0  0  0  0  0  0  0  0  0  0  0  0
    6.6940   -6.9799   20.7916 H   0  0  0  0  0  0  0  0  0  0  0  0
    8.2069   -5.9784   20.7150 H   0  0  0  0  0  0  0  0  0  0  0  0
    7.4253   -8.2062   22.7967 H   0  0  0  0  0  0  0  0  0  0  0  0
    9.0297   -7.3390   22.8884 H   0  0  0  0  0  0  0  0  0  0  0  0
    8.3787   -5.0015   24.2173 H   0  0  0  0  0  0  0  0  0  0  0  0
    8.7234   -4.5338   22.5790 H   0  0  0  0  0  0  0  0  0  0  0  0
    6.8749   -1.9841   24.3240 H   0  0  0  0  0  0  0  0  0  0  0  0
    8.5115   -2.6944   24.2440 H   0  0  0  0  0  0  0  0  0  0  0  0
    8.4013   -2.4458   21.7337 H   0  0  0  0  0  0  0  0  0  0  0  0
    6.1892   -2.3547   21.0050 H   0  0  0  0  0  0  0  0  0  0  0  0
    5.7039   -1.2334   22.2940 H   0  0  0  0  0  0  0  0  0  0  0  0
   10.0694   -0.5499   22.3419 C   0  0  0  0  0  0  0  0  0  0  0  0
   10.6285   -1.5067   21.4892 C   0  0  0  0  0  0  0  0  0  0  0  0
   11.9878   -1.5240   21.2611 C   0  0  0  0  0  0  0  0  0  0  0  0
   12.5738   -2.5789   20.0034 Cl  0  0  0  0  0  0  0  0  0  0  0  0
   12.8340   -0.6410   21.9310 C   0  0  0  0  0  0  0  0  0  0  0  0
   12.2951    0.3072   22.7756 C   0  0  0  0  0  0  0  0  0  0  0  0
   10.9122    0.3864   22.9515 C   0  0  0  0  0  0  0  0  0  0  0  0
   10.3462    1.5748   23.6727 C   0  0  0  0  0  0  0  0  0  0  0  0
   11.0608    2.5045   24.0375 O   0  0  0  0  0  0  0  0  0  0  0  0
   12.9461    1.0284   23.2566 H   0  0  0  0  0  0  0  0  0  0  0  0
   13.9060   -0.6661   21.7789 H   0  0  0  0  0  0  0  0  0  0  0  0
   10.0085   -2.2017   20.9330 H   0  0  0  0  0  0  0  0  0  0  0  0
    8.4770   -0.3289   24.6308 H   0  0  0  0  0  0  0  0  0  0  0  0
    7.1679    0.5555   23.7918 H   0  0  0  0  0  0  0  0  0  0  0  0
    9.0316    3.1895   25.1569 H   0  0  0  0  0  0  0  0  0  0  0  0
    7.4301    2.4766   24.8837 H   0  0  0  0  0  0  0  0  0  0  0  0
    9.0202    3.9946   22.7538 H   0  0  0  0  0  0  0  0  0  0  0  0
    7.7971    4.7506   23.7777 H   0  0  0  0  0  0  0  0  0  0  0  0
    7.3813    2.5344   21.8551 H   0  0  0  0  0  0  0  0  0  0  0  0
    6.1971    3.0810   22.9066 H   0  0  0  0  0  0  0  0  0  0  0  0
    5.7160    4.0385   20.8863 H   0  0  0  0  0  0  0  0  0  0  0  0
    7.4096    4.5228   20.6515 H   0  0  0  0  0  0  0  0  0  0  0  0
    6.4266    5.3325   21.8814 H   0  0  0  0  0  0  0  0  0  0  0  0
  1  2  1  0
  2  3  1  0
  3  4  1  0
  4  5  1  0
  5  6  1  0
  7  6  1  1
  7  8  1  0
  8  9  2  0
  8 10  1  0
 10 11  1  0
 11 12  2  0
 12 13  1  0
 13 14  2  0
 14 15  1  0
 15 16  2  0
 16 17  1  0
 17 18  2  0
 18 19  1  0
 19 20  2  0
 19 21  1  0
 18 22  1  0
 17 23  1  0
 16 24  1  0
 14 25  1  0
 12 26  1  0
 10 27  1  0
 27 28  1  0
 28 29  1  0
 29 30  1  0
 30 31  1  0
 31 32  1  0
 32 33  1  0
 32 34  1  0
 34 35  1  0
 35 36  1  0
 35 37  1  0
 34 38  1  0
 34 39  1  0
 31 40  1  0
 31 41  1  0
 29 42  1  0
 29 43  1  0
 28 44  1  6
 27 45  1  0
 27 46  1  0
  7 47  1  0
 47 48  2  0
 48 49  1  0
 49 50  1  0
 49 51  2  0
 51 52  1  0
 52 53  2  0
 53 54  1  0
 54 55  2  0
 52 56  1  0
 51 57  1  0
 48 58  1  0
  6 59  1  0
  6 60  1  0
  4 61  1  0
  4 62  1  0
  3 63  1  0
  3 64  1  0
  2 65  1  0
  2 66  1  0
  1 67  1  0
  1 68  1  0
  1 69  1  0
 54  5  1  0
 28  7  1  0
 35 32  1  0
 53 47  1  0
 20 11  1  0
 20 15  1  0
M  CHG  1   2   1
M  END
>  <cnnaffinities>  (67) 
[6.75685]

>  <score>  (67) 
6.75685

>  <index>  (67) 
67

>  <Smiles>  (67) 
C([N+](C(C(N1C([C@@]2(C(=O)N(c3c(nc(c4c(c(c(c(c34)[H])[H])[H])[H])[H])[H])C([C@@]2(C(OC(C2(F)C(C2([H])[H])([H])[H])([H])[H])([H])[H])[H])([H])[H])c2c(c(Cl)c(c(c2C1=O)[H])[H])[H])([H])[H])([H])[H])([H])[H])([H])[H])([H])([H])[H]

>  <h>  (67) 
<NA>

>  <Training>  (67) 
True

>  <Success>  (67) 
True

>  <enamine_searched>  (67) 
False

>  <enamine_id>  (67) 
nan

$$$$

     RDKit          3D

 57 62  0  0  0  0  0  0  0  0999 V2000
    5.4042    4.9797   21.5231 C   0  0  0  0  0  0  0  0  0  0  0  0
    6.3760    4.5223   22.5545 C   0  0  0  0  0  0  0  0  0  0  0  0
    6.2930    3.5159   23.3816 N   0  0  0  0  0  0  0  0  0  0  0  0
    7.5195    3.5481   24.0069 C   0  0  0  0  0  0  0  0  0  0  0  0
    7.9482    2.5075   25.0025 C   0  0  0  0  0  0  0  0  0  0  0  0
    8.7036    1.4236   24.3949 N   0  0  0  0  0  0  0  0  0  0  0  0
    8.0805    0.1340   24.1533 C   0  0  0  0  0  0  0  0  0  0  0  0
    8.3699   -0.4022   22.7333 C   0  0  2  0  0  0  0  0  0  0  0  0
    7.6625    0.4454   21.6449 C   0  0  0  0  0  0  0  0  0  0  0  0
    7.7821    1.6369   21.4607 O   0  0  0  0  0  0  0  0  0  0  0  0
    6.8899   -0.3868   20.8649 N   0  0  0  0  0  0  0  0  0  0  0  0
    6.1274    0.1035   19.7788 C   0  0  0  0  0  0  0  0  0  0  0  0
    6.4428   -0.2286   18.4838 C   0  0  0  0  0  0  0  0  0  0  0  0
    5.7700    0.2199   17.4010 N   0  0  0  0  0  0  0  0  0  0  0  0
    4.7486    1.0178   17.6018 C   0  0  0  0  0  0  0  0  0  0  0  0
    4.2923    1.4168   18.8897 C   0  0  0  0  0  0  0  0  0  0  0  0
    3.1607    2.2625   19.0621 C   0  0  0  0  0  0  0  0  0  0  0  0
    2.7312    2.6047   20.3180 C   0  0  0  0  0  0  0  0  0  0  0  0
    3.4133    2.1134   21.4520 C   0  0  0  0  0  0  0  0  0  0  0  0
    4.5111    1.3016   21.3092 C   0  0  0  0  0  0  0  0  0  0  0  0
    4.9923    0.9436   20.0175 C   0  0  0  0  0  0  0  0  0  0  0  0
    5.0190    0.9240   22.1870 H   0  0  0  0  0  0  0  0  0  0  0  0
    3.0808    2.3912   22.4495 H   0  0  0  0  0  0  0  0  0  0  0  0
    1.8746    3.2620   20.4413 H   0  0  0  0  0  0  0  0  0  0  0  0
    2.6620    2.6365   18.1749 H   0  0  0  0  0  0  0  0  0  0  0  0
    4.2290    1.3813   16.7179 H   0  0  0  0  0  0  0  0  0  0  0  0
    7.2905   -0.8745   18.2622 H   0  0  0  0  0  0  0  0  0  0  0  0
    7.1218   -1.7948   21.1037 C   0  0  0  0  0  0  0  0  0  0  0  0
    7.8034   -1.8475   22.4939 C   0  0  2  0  0  0  0  0  0  0  0  0
    6.8298   -2.3824   23.5584 C   0  0  0  0  0  0  0  0  0  0  0  0
    7.3056   -2.4608   24.5410 H   0  0  0  0  0  0  0  0  0  0  0  0
    5.9421   -1.7461   23.6578 H   0  0  0  0  0  0  0  0  0  0  0  0
    6.4913   -3.3884   23.2824 H   0  0  0  0  0  0  0  0  0  0  0  0
    8.6470   -2.5473   22.4659 H   0  0  0  0  0  0  0  0  0  0  0  0
    6.1661   -2.3326   21.0906 H   0  0  0  0  0  0  0  0  0  0  0  0
    7.7655   -2.2206   20.3229 H   0  0  0  0  0  0  0  0  0  0  0  0
    9.8741   -0.2972   22.5207 C   0  0  0  0  0  0  0  0  0  0  0  0
   10.4863   -1.0969   21.5550 C   0  0  0  0  0  0  0  0  0  0  0  0
   11.8373   -0.9637   21.3276 C   0  0  0  0  0  0  0  0  0  0  0  0
   12.3835   -1.7410   20.3787 F   0  0  0  0  0  0  0  0  0  0  0  0
   12.6226   -0.0259   21.9839 C   0  0  0  0  0  0  0  0  0  0  0  0
   12.0109    0.8035   22.9052 C   0  0  0  0  0  0  0  0  0  0  0  0
   10.6473    0.6732   23.1705 C   0  0  0  0  0  0  0  0  0  0  0  0
   10.0276    1.6482   24.1241 C   0  0  0  0  0  0  0  0  0  0  0  0
   10.6394    2.5888   24.6063 O   0  0  0  0  0  0  0  0  0  0  0  0
   12.5493    1.5863   23.4285 H   0  0  0  0  0  0  0  0  0  0  0  0
   13.6680    0.0691   21.7195 H   0  0  0  0  0  0  0  0  0  0  0  0
    9.9495   -1.7881   20.9162 H   0  0  0  0  0  0  0  0  0  0  0  0
    7.0043    0.2713   24.2731 H   0  0  0  0  0  0  0  0  0  0  0  0
    8.4444   -0.6149   24.8770 H   0  0  0  0  0  0  0  0  0  0  0  0
    8.5810    2.9665   25.7677 H   0  0  0  0  0  0  0  0  0  0  0  0
    7.0479    2.0823   25.4534 H   0  0  0  0  0  0  0  0  0  0  0  0
    8.2786    4.5419   23.6510 N   0  0  0  0  0  0  0  0  0  0  0  0
    7.5311    5.1930   22.6813 O   0  0  0  0  0  0  0  0  0  0  0  0
    5.6438    5.9945   21.1974 H   0  0  0  0  0  0  0  0  0  0  0  0
    4.3939    4.9474   21.9362 H   0  0  0  0  0  0  0  0  0  0  0  0
    5.4202    4.3029   20.6611 H   0  0  0  0  0  0  0  0  0  0  0  0
  1  2  1  0
  2  3  2  0
  3  4  1  0
  4  5  1  0
  5  6  1  0
  6  7  1  0
  8  7  1  1
  8  9  1  0
  9 10  2  0
  9 11  1  0
 11 12  1  0
 12 13  2  0
 13 14  1  0
 14 15  2  0
 15 16  1  0
 16 17  2  0
 17 18  1  0
 18 19  2  0
 19 20  1  0
 20 21  2  0
 20 22  1  0
 19 23  1  0
 18 24  1  0
 17 25  1  0
 15 26  1  0
 13 27  1  0
 11 28  1  0
 28 29  1  0
 29 30  1  0
 30 31  1  0
 30 32  1  0
 30 33  1  0
 29 34  1  6
 28 35  1  0
 28 36  1  0
  8 37  1  0
 37 38  2  0
 38 39  1  0
 39 40  1  0
 39 41  2  0
 41 42  1  0
 42 43  2  0
 43 44  1  0
 44 45  2  0
 42 46  1  0
 41 47  1  0
 38 48  1  0
  7 49  1  0
  7 50  1  0
  5 51  1  0
  5 52  1  0
  4 53  2  0
 53 54  1  0
  1 55  1  0
  1 56  1  0
  1 57  1  0
 54  2  1  0
 44  6  1  0
 29  8  1  0
 43 37  1  0
 21 12  1  0
 21 16  1  0
M  END
>  <cnnaffinities>  (68) 
[6.39678, 6.45162]

>  <score>  (68) 
6.39678

>  <index>  (68) 
68

>  <Smiles>  (68) 
C(c1nc(C(N2C([C@@]3(C(=O)N(c4c(nc(c5c(c(c(c(c45)[H])[H])[H])[H])[H])[H])C([C@@]3(C([H])([H])[H])[H])([H])[H])c3c(c(F)c(c(c3C2=O)[H])[H])[H])([H])[H])([H])[H])no1)([H])([H])[H]

>  <h>  (68) 
<NA>

>  <Training>  (68) 
True

>  <Success>  (68) 
True

>  <enamine_searched>  (68) 
False

>  <enamine_id>  (68) 
nan

$$$$

     RDKit          3D

 64 68  0  0  0  0  0  0  0  0999 V2000
    1.1595   -1.2607   28.5108 C   0  0  0  0  0  0  0  0  0  0  0  0
    2.5938   -1.5791   28.0677 C   0  0  0  0  0  0  0  0  0  0  0  0
    2.6932   -2.0475   26.6182 C   0  0  0  0  0  0  0  0  0  0  0  0
    2.4453   -1.2756   25.7102 O   0  0  0  0  0  0  0  0  0  0  0  0
    3.1213   -3.3604   26.3875 N   0  0  0  0  0  0  0  0  0  0  0  0
    2.6415   -4.4654   27.2295 C   0  0  0  0  0  0  0  0  0  0  0  0
    2.2021   -5.6437   26.3634 C   0  0  0  0  0  0  0  0  0  0  0  0
    3.3887   -6.1249   25.5343 C   0  0  0  0  0  0  0  0  0  0  0  0
    4.0779   -4.9717   24.8316 C   0  0  0  0  0  0  0  0  0  0  0  0
    4.8988   -5.2211   23.7356 C   0  0  0  0  0  0  0  0  0  0  0  0
    5.6509   -4.2328   23.1188 C   0  0  0  0  0  0  0  0  0  0  0  0
    5.5553   -2.9240   23.5877 C   0  0  0  0  0  0  0  0  0  0  0  0
    6.3191   -1.8750   22.9766 N   0  0  0  0  0  0  0  0  0  0  0  0
    7.3420   -1.2071   23.7799 C   0  0  0  0  0  0  0  0  0  0  0  0
    8.7685   -1.5331   23.3621 C   0  0  0  0  0  0  0  0  0  0  0  0
    9.2128   -2.8545   23.3813 C   0  0  0  0  0  0  0  0  0  0  0  0
   10.5076   -3.1714   22.9817 C   0  0  0  0  0  0  0  0  0  0  0  0
   11.3833   -2.1787   22.5498 C   0  0  0  0  0  0  0  0  0  0  0  0
   10.9416   -0.8623   22.5528 C   0  0  0  0  0  0  0  0  0  0  0  0
   12.0248    0.4037   22.0335 Cl  0  0  0  0  0  0  0  0  0  0  0  0
    9.6523   -0.5312   22.9581 C   0  0  0  0  0  0  0  0  0  0  0  0
    9.3549    0.5145   22.9449 H   0  0  0  0  0  0  0  0  0  0  0  0
   12.3924   -2.4099   22.2184 H   0  0  0  0  0  0  0  0  0  0  0  0
   10.8314   -4.2073   23.0108 H   0  0  0  0  0  0  0  0  0  0  0  0
    8.5358   -3.6392   23.7172 H   0  0  0  0  0  0  0  0  0  0  0  0
    7.1642   -1.5528   24.8048 H   0  0  0  0  0  0  0  0  0  0  0  0
    7.2016   -0.1187   23.7586 H   0  0  0  0  0  0  0  0  0  0  0  0
    6.1257   -1.6616   21.6228 C   0  0  0  0  0  0  0  0  0  0  0  0
    5.3739   -2.3724   20.9775 O   0  0  0  0  0  0  0  0  0  0  0  0
    6.8796   -0.5060   20.9311 C   0  0  0  0  0  0  0  0  0  0  0  0
    6.1022    0.0808   19.7819 C   0  0  0  0  0  0  0  0  0  0  0  0
    6.4134   -0.2156   18.4794 C   0  0  0  0  0  0  0  0  0  0  0  0
    5.7549    0.2411   17.3849 N   0  0  0  0  0  0  0  0  0  0  0  0
    4.7297    1.0340   17.5787 C   0  0  0  0  0  0  0  0  0  0  0  0
    4.2868    1.4158   18.8734 C   0  0  0  0  0  0  0  0  0  0  0  0
    3.1636    2.2455   19.0783 C   0  0  0  0  0  0  0  0  0  0  0  0
    2.4920    2.6460   17.9848 F   0  0  0  0  0  0  0  0  0  0  0  0
    2.7402    2.6249   20.3175 C   0  0  0  0  0  0  0  0  0  0  0  0
    3.4390    2.1412   21.4433 C   0  0  0  0  0  0  0  0  0  0  0  0
    4.5258    1.3168   21.2967 C   0  0  0  0  0  0  0  0  0  0  0  0
    4.9818    0.9356   20.0076 C   0  0  0  0  0  0  0  0  0  0  0  0
    5.0439    0.9406   22.1722 H   0  0  0  0  0  0  0  0  0  0  0  0
    3.1072    2.4192   22.4401 H   0  0  0  0  0  0  0  0  0  0  0  0
    1.8841    3.2813   20.4121 H   0  0  0  0  0  0  0  0  0  0  0  0
    4.2028    1.4016   16.7010 H   0  0  0  0  0  0  0  0  0  0  0  0
    7.2579   -0.8647   18.2492 H   0  0  0  0  0  0  0  0  0  0  0  0
    7.8185   -0.9225   20.5452 H   0  0  0  0  0  0  0  0  0  0  0  0
    7.1628    0.2699   21.6504 H   0  0  0  0  0  0  0  0  0  0  0  0
    4.7303   -2.6385   24.6707 C   0  0  0  0  0  0  0  0  0  0  0  0
    3.9585   -3.6455   25.2823 C   0  0  0  0  0  0  0  0  0  0  0  0
    4.6991   -1.6148   25.0294 H   0  0  0  0  0  0  0  0  0  0  0  0
    6.3156   -4.4870   22.2996 H   0  0  0  0  0  0  0  0  0  0  0  0
    4.9939   -6.2513   23.3969 H   0  0  0  0  0  0  0  0  0  0  0  0
    4.1102   -6.6439   26.1890 H   0  0  0  0  0  0  0  0  0  0  0  0
    3.0767   -6.8721   24.7925 H   0  0  0  0  0  0  0  0  0  0  0  0
    1.3838   -5.3301   25.7034 H   0  0  0  0  0  0  0  0  0  0  0  0
    1.8208   -6.4503   26.9997 H   0  0  0  0  0  0  0  0  0  0  0  0
    3.4253   -4.7886   27.9347 H   0  0  0  0  0  0  0  0  0  0  0  0
    1.7982   -4.0798   27.8103 H   0  0  0  0  0  0  0  0  0  0  0  0
    3.1825   -0.6524   28.0867 H   0  0  0  0  0  0  0  0  0  0  0  0
    3.0912   -2.2855   28.7437 H   0  0  0  0  0  0  0  0  0  0  0  0
    0.5104   -2.1446   28.4899 H   0  0  0  0  0  0  0  0  0  0  0  0
    1.1593   -0.8655   29.5329 H   0  0  0  0  0  0  0  0  0  0  0  0
    0.7227   -0.4995   27.8569 H   0  0  0  0  0  0  0  0  0  0  0  0
  1  2  1  0
  2  3  1  0
  3  4  2  0
  3  5  1  0
  5  6  1  0
  6  7  1  0
  7  8  1  0
  8  9  1  0
  9 10  2  0
 10 11  1  0
 11 12  2  0
 12 13  1  0
 13 14  1  0
 14 15  1  0
 15 16  2  0
 16 17  1  0
 17 18  2  0
 18 19  1  0
 19 20  1  0
 19 21  2  0
 21 22  1  0
 18 23  1  0
 17 24  1  0
 16 25  1  0
 14 26  1  0
 14 27  1  0
 13 28  1  0
 28 29  2  0
 28 30  1  0
 30 31  1  0
 31 32  2  0
 32 33  1  0
 33 34  2  0
 34 35  1  0
 35 36  2  0
 36 37  1  0
 36 38  1  0
 38 39  2  0
 39 40  1  0
 40 41  2  0
 40 42  1  0
 39 43  1  0
 38 44  1  0
 34 45  1  0
 32 46  1  0
 30 47  1  0
 30 48  1  0
 12 49  1  0
 49 50  2  0
 49 51  1  0
 11 52  1  0
 10 53  1  0
  8 54  1  0
  8 55  1  0
  7 56  1  0
  7 57  1  0
  6 58  1  0
  6 59  1  0
  2 60  1  0
  2 61  1  0
  1 62  1  0
  1 63  1  0
  1 64  1  0
 50  5  1  0
 50  9  1  0
 21 15  1  0
 41 31  1  0
 41 35  1  0
M  END
>  <cnnaffinities>  (69) 
[6.27115]

>  <score>  (69) 
6.27115

>  <index>  (69) 
69

>  <Smiles>  (69) 
C(C(C(=O)N1C(C(C(c2c(c(c(N(C(c3c(c(c(c(Cl)c3[H])[H])[H])[H])([H])[H])C(=O)C(c3c(nc(c4c(F)c(c(c(c34)[H])[H])[H])[H])[H])([H])[H])c(c12)[H])[H])[H])([H])[H])([H])[H])([H])[H])([H])[H])([H])([H])[H]

>  <h>  (69) 
<NA>

>  <Training>  (69) 
True

>  <Success>  (69) 
True

>  <enamine_searched>  (69) 
False

>  <enamine_id>  (69) 
nan

$$$$

     RDKit          3D

 57 62  0  0  0  0  0  0  0  0999 V2000
    7.1302   -2.3053   23.5499 C   0  0  0  0  0  0  0  0  0  0  0  0
    8.0041   -1.8207   22.3876 C   0  0  1  0  0  0  0  0  0  0  0  0
    7.2068   -1.7636   21.0656 C   0  0  0  0  0  0  0  0  0  0  0  0
    6.9213   -0.3593   20.8874 N   0  0  0  0  0  0  0  0  0  0  0  0
    6.1469    0.1105   19.7993 C   0  0  0  0  0  0  0  0  0  0  0  0
    6.4585   -0.2350   18.5072 C   0  0  0  0  0  0  0  0  0  0  0  0
    5.7876    0.2035   17.4176 N   0  0  0  0  0  0  0  0  0  0  0  0
    4.7671    1.0007   17.6159 C   0  0  0  0  0  0  0  0  0  0  0  0
    4.3143    1.4095   18.9009 C   0  0  0  0  0  0  0  0  0  0  0  0
    3.1806    2.2505   19.0650 C   0  0  0  0  0  0  0  0  0  0  0  0
    2.7563    2.6106   20.3153 C   0  0  0  0  0  0  0  0  0  0  0  0
    3.4383    2.1367   21.4589 C   0  0  0  0  0  0  0  0  0  0  0  0
    4.5346    1.3175   21.3246 C   0  0  0  0  0  0  0  0  0  0  0  0
    5.0122    0.9455   20.0379 C   0  0  0  0  0  0  0  0  0  0  0  0
    5.0434    0.9347   22.2040 H   0  0  0  0  0  0  0  0  0  0  0  0
    3.1168    2.4385   22.4526 H   0  0  0  0  0  0  0  0  0  0  0  0
    1.8912    3.2595   20.4282 H   0  0  0  0  0  0  0  0  0  0  0  0
    2.6752    2.6086   18.1721 H   0  0  0  0  0  0  0  0  0  0  0  0
    4.2371    1.3550   16.7336 H   0  0  0  0  0  0  0  0  0  0  0  0
    7.3115   -0.8806   18.3008 H   0  0  0  0  0  0  0  0  0  0  0  0
    7.8166    0.4623   21.5487 C   0  0  0  0  0  0  0  0  0  0  0  0
    7.9175    1.6496   21.3500 O   0  0  0  0  0  0  0  0  0  0  0  0
    8.6421   -0.3965   22.5382 C   0  0  1  0  0  0  0  0  0  0  0  0
    8.5658    0.1591   23.9842 C   0  0  0  0  0  0  0  0  0  0  0  0
    9.2259    1.4456   24.1401 N   0  0  0  0  0  0  0  0  0  0  0  0
    8.5885    2.4435   24.9885 C   0  0  0  0  0  0  0  0  0  0  0  0
    7.3862    3.0575   24.3406 C   0  0  0  0  0  0  0  0  0  0  0  0
    6.1093    2.7520   24.6702 N   0  0  0  0  0  0  0  0  0  0  0  0
    5.3520    3.4375   23.8551 N   0  0  0  0  0  0  0  0  0  0  0  0
    6.1634    4.1281   23.0840 N   0  0  0  0  0  0  0  0  0  0  0  0
    5.6874    4.8767   21.9386 C   0  0  0  0  0  0  0  0  0  0  0  0
    6.3556    5.7237   21.7782 H   0  0  0  0  0  0  0  0  0  0  0  0
    4.6783    5.2294   22.1569 H   0  0  0  0  0  0  0  0  0  0  0  0
    5.6741    4.2279   21.0547 H   0  0  0  0  0  0  0  0  0  0  0  0
    7.4456    3.9420   23.3548 N   0  0  0  0  0  0  0  0  0  0  0  0
    8.2759    1.9901   25.9359 H   0  0  0  0  0  0  0  0  0  0  0  0
    9.3507    3.2018   25.1864 H   0  0  0  0  0  0  0  0  0  0  0  0
   10.4467    1.7199   23.5808 C   0  0  0  0  0  0  0  0  0  0  0  0
   11.1056    2.7014   23.8924 O   0  0  0  0  0  0  0  0  0  0  0  0
   10.9330    0.6988   22.5921 C   0  0  0  0  0  0  0  0  0  0  0  0
   12.2601    0.7713   22.1786 C   0  0  0  0  0  0  0  0  0  0  0  0
   12.8260   -0.2335   21.4234 C   0  0  0  0  0  0  0  0  0  0  0  0
   12.0059   -1.2819   21.0000 C   0  0  0  0  0  0  0  0  0  0  0  0
   12.4849   -2.2183   20.1657 F   0  0  0  0  0  0  0  0  0  0  0  0
   10.6636   -1.3316   21.3158 C   0  0  0  0  0  0  0  0  0  0  0  0
   10.1133   -0.3503   22.1476 C   0  0  0  0  0  0  0  0  0  0  0  0
   10.0636   -2.1124   20.8639 H   0  0  0  0  0  0  0  0  0  0  0  0
   13.8601   -0.1734   21.1085 H   0  0  0  0  0  0  0  0  0  0  0  0
   12.8658    1.6025   22.5243 H   0  0  0  0  0  0  0  0  0  0  0  0
    7.5282    0.2954   24.2923 H   0  0  0  0  0  0  0  0  0  0  0  0
    9.0337   -0.5829   24.6470 H   0  0  0  0  0  0  0  0  0  0  0  0
    6.2731   -2.3335   21.1138 H   0  0  0  0  0  0  0  0  0  0  0  0
    7.8016   -2.1538   20.2291 H   0  0  0  0  0  0  0  0  0  0  0  0
    8.8065   -2.5579   22.3181 H   0  0  0  0  0  0  0  0  0  0  0  0
    6.2599   -1.6581   23.6974 H   0  0  0  0  0  0  0  0  0  0  0  0
    7.6932   -2.3381   24.4888 H   0  0  0  0  0  0  0  0  0  0  0  0
    6.7739   -3.3246   23.3543 H   0  0  0  0  0  0  0  0  0  0  0  0
  1  2  1  0
  2  3  1  0
  3  4  1  0
  4  5  1  0
  5  6  2  0
  6  7  1  0
  7  8  2  0
  8  9  1  0
  9 10  2  0
 10 11  1  0
 11 12  2  0
 12 13  1  0
 13 14  2  0
 13 15  1  0
 12 16  1  0
 11 17  1  0
 10 18  1  0
  8 19  1  0
  6 20  1  0
  4 21  1  0
 21 22  2  0
 21 23  1  0
 23 24  1  1
 24 25  1  0
 25 26  1  0
 26 27  1  0
 27 28  1  0
 28 29  2  0
 29 30  1  0
 30 31  1  0
 31 32  1  0
 31 33  1  0
 31 34  1  0
 30 35  1  0
 26 36  1  0
 26 37  1  0
 25 38  1  0
 38 39  2  0
 38 40  1  0
 40 41  2  0
 41 42  1  0
 42 43  2  0
 43 44  1  0
 43 45  1  0
 45 46  2  0
 45 47  1  0
 42 48  1  0
 41 49  1  0
 24 50  1  0
 24 51  1  0
  3 52  1  0
  3 53  1  0
  2 54  1  6
  1 55  1  0
  1 56  1  0
  1 57  1  0
 23  2  1  0
 35 27  2  0
 46 40  1  0
 14  5  1  0
 46 23  1  0
 14  9  1  0
M  END
>  <cnnaffinities>  (70) 
[6.35358, 6.34297, 6.55582]

>  <score>  (70) 
6.35358

>  <index>  (70) 
70

>  <Smiles>  (70) 
C([C@]1(C(N(c2c(nc(c3c(c(c(c(c23)[H])[H])[H])[H])[H])[H])C(=O)[C@]21C(N(C(c1nnn(C([H])([H])[H])n1)([H])[H])C(=O)c1c(c(c(F)c(c21)[H])[H])[H])([H])[H])([H])[H])[H])([H])([H])[H]

>  <h>  (70) 
<NA>

>  <Training>  (70) 
True

>  <Success>  (70) 
True

>  <enamine_searched>  (70) 
False

>  <enamine_id>  (70) 
nan

$$$$

     RDKit          3D

 59 64  0  0  0  0  0  0  0  0999 V2000
    7.6024   -2.9338   23.4414 C   0  0  0  0  0  0  0  0  0  0  0  0
    7.9418   -1.9011   22.3576 C   0  0  1  0  0  0  0  0  0  0  0  0
    6.8318   -1.7742   21.2958 C   0  0  0  0  0  0  0  0  0  0  0  0
    6.9327   -0.4046   20.8345 N   0  0  0  0  0  0  0  0  0  0  0  0
    6.1439    0.1116   19.7743 C   0  0  0  0  0  0  0  0  0  0  0  0
    6.4418   -0.2222   18.4786 C   0  0  0  0  0  0  0  0  0  0  0  0
    5.7616    0.2232   17.3961 N   0  0  0  0  0  0  0  0  0  0  0  0
    4.7441    1.0210   17.6009 C   0  0  0  0  0  0  0  0  0  0  0  0
    4.2955    1.4165   18.8918 C   0  0  0  0  0  0  0  0  0  0  0  0
    3.1674    2.2635   19.0666 C   0  0  0  0  0  0  0  0  0  0  0  0
    2.7456    2.6125   20.3190 C   0  0  0  0  0  0  0  0  0  0  0  0
    3.4256    2.1172   21.4575 C   0  0  0  0  0  0  0  0  0  0  0  0
    4.5159    1.2979   21.3139 C   0  0  0  0  0  0  0  0  0  0  0  0
    5.0009    0.9421   20.0222 C   0  0  0  0  0  0  0  0  0  0  0  0
    5.0217    0.9188   22.1983 H   0  0  0  0  0  0  0  0  0  0  0  0
    3.0910    2.3935   22.4525 H   0  0  0  0  0  0  0  0  0  0  0  0
    1.8938    3.2749   20.4443 H   0  0  0  0  0  0  0  0  0  0  0  0
    2.6631    2.6384   18.1787 H   0  0  0  0  0  0  0  0  0  0  0  0
    4.2193    1.3862   16.7169 H   0  0  0  0  0  0  0  0  0  0  0  0
    7.2843   -0.8773   18.2635 H   0  0  0  0  0  0  0  0  0  0  0  0
    7.6717    0.4085   21.6592 C   0  0  0  0  0  0  0  0  0  0  0  0
    7.8256    1.6008   21.4876 O   0  0  0  0  0  0  0  0  0  0  0  0
    8.2209   -0.4380   22.8307 C   0  0  1  0  0  0  0  0  0  0  0  0
    7.4320   -0.0873   24.1192 C   0  0  0  0  0  0  0  0  0  0  0  0
    7.7337    1.2479   24.5976 N   0  0  0  0  0  0  0  0  0  0  0  0
    6.6406    2.1948   24.7787 C   0  0  0  0  0  0  0  0  0  0  0  0
    5.5597    1.6995   25.6984 C   0  0  0  0  0  0  0  0  0  0  0  0
    4.3423    1.3674   25.3178 N   0  0  0  0  0  0  0  0  0  0  0  0
    3.7164    0.9125   26.4518 C   0  0  0  0  0  0  0  0  0  0  0  0
    4.5666    0.9797   27.5216 C   0  0  0  0  0  0  0  0  0  0  0  0
    5.7492    1.4937   27.0325 N   0  0  0  0  0  0  0  0  0  0  0  0
    6.9709    1.7087   27.7870 C   0  0  0  0  0  0  0  0  0  0  0  0
    7.3892    2.6978   27.5761 H   0  0  0  0  0  0  0  0  0  0  0  0
    6.7241    1.6493   28.8499 H   0  0  0  0  0  0  0  0  0  0  0  0
    7.7221    0.9488   27.5491 H   0  0  0  0  0  0  0  0  0  0  0  0
    4.4630    0.7078   28.5612 H   0  0  0  0  0  0  0  0  0  0  0  0
    2.6970    0.5471   26.4175 H   0  0  0  0  0  0  0  0  0  0  0  0
    7.0982    3.1207   25.1413 H   0  0  0  0  0  0  0  0  0  0  0  0
    6.1678    2.3913   23.8053 H   0  0  0  0  0  0  0  0  0  0  0  0
    9.0298    1.6219   24.8068 C   0  0  0  0  0  0  0  0  0  0  0  0
    9.3501    2.5479   25.5466 O   0  0  0  0  0  0  0  0  0  0  0  0
   10.0526    0.8376   24.0347 C   0  0  0  0  0  0  0  0  0  0  0  0
   11.3930    1.1421   24.2505 C   0  0  0  0  0  0  0  0  0  0  0  0
   12.3866    0.5976   23.4652 C   0  0  0  0  0  0  0  0  0  0  0  0
   11.9955   -0.2479   22.4343 C   0  0  0  0  0  0  0  0  0  0  0  0
   12.9384   -0.7439   21.6217 F   0  0  0  0  0  0  0  0  0  0  0  0
   10.6783   -0.5921   22.2099 C   0  0  0  0  0  0  0  0  0  0  0  0
    9.6803   -0.0945   23.0576 C   0  0  0  0  0  0  0  0  0  0  0  0
   10.4618   -1.2192   21.3512 H   0  0  0  0  0  0  0  0  0  0  0  0
   13.4373    0.8301   23.5971 H   0  0  0  0  0  0  0  0  0  0  0  0
   11.5950    1.8436   25.0398 H   0  0  0  0  0  0  0  0  0  0  0  0
    7.6775   -0.8166   24.9051 H   0  0  0  0  0  0  0  0  0  0  0  0
    6.3590   -0.1292   23.9198 H   0  0  0  0  0  0  0  0  0  0  0  0
    5.8412   -1.9877   21.7272 H   0  0  0  0  0  0  0  0  0  0  0  0
    6.9689   -2.4507   20.4519 H   0  0  0  0  0  0  0  0  0  0  0  0
    8.8520   -2.2362   21.8533 H   0  0  0  0  0  0  0  0  0  0  0  0
    7.5004   -3.9364   23.0084 H   0  0  0  0  0  0  0  0  0  0  0  0
    6.6522   -2.6936   23.9353 H   0  0  0  0  0  0  0  0  0  0  0  0
    8.3745   -2.9844   24.2188 H   0  0  0  0  0  0  0  0  0  0  0  0
  1  2  1  0
  2  3  1  0
  3  4  1  0
  4  5  1  0
  5  6  2  0
  6  7  1  0
  7  8  2  0
  8  9  1  0
  9 10  2  0
 10 11  1  0
 11 12  2  0
 12 13  1  0
 13 14  2  0
 13 15  1  0
 12 16  1  0
 11 17  1  0
 10 18  1  0
  8 19  1  0
  6 20  1  0
  4 21  1  0
 21 22  2  0
 21 23  1  0
 23 24  1  1
 24 25  1  0
 25 26  1  0
 26 27  1  0
 27 28  2  0
 28 29  1  0
 29 30  2  0
 30 31  1  0
 31 32  1  0
 32 33  1  0
 32 34  1  0
 32 35  1  0
 30 36  1  0
 29 37  1  0
 26 38  1  0
 26 39  1  0
 25 40  1  0
 40 41  2  0
 40 42  1  0
 42 43  2  0
 43 44  1  0
 44 45  2  0
 45 46  1  0
 45 47  1  0
 47 48  2  0
 47 49  1  0
 44 50  1  0
 43 51  1  0
 24 52  1  0
 24 53  1  0
  3 54  1  0
  3 55  1  0
  2 56  1  6
  1 57  1  0
  1 58  1  0
  1 59  1  0
 23  2  1  0
 31 27  1  0
 48 42  1  0
 14  5  1  0
 48 23  1  0
 14  9  1  0
M  END
>  <cnnaffinities>  (71) 
[6.39082, 6.17074]

>  <score>  (71) 
6.39082

>  <index>  (71) 
71

>  <Smiles>  (71) 
C([C@]1(C(N(c2c(nc(c3c(c(c(c(c23)[H])[H])[H])[H])[H])[H])C(=O)[C@]21C(N(C(c1nc(c(n1C([H])([H])[H])[H])[H])([H])[H])C(=O)c1c(c(c(F)c(c21)[H])[H])[H])([H])[H])([H])[H])[H])([H])([H])[H]

>  <h>  (71) 
<NA>

>  <Training>  (71) 
True

>  <Success>  (71) 
True

>  <enamine_searched>  (71) 
False

>  <enamine_id>  (71) 
nan

$$$$

     RDKit          3D

 60 64  0  0  0  0  0  0  0  0999 V2000
    6.3013    4.2933   22.3943 C   0  0  0  0  0  0  0  0  0  0  0  0
    6.8017    3.3712   23.3959 N   0  0  0  0  0  0  0  0  0  0  0  0
    5.9980    2.7810   24.3075 C   0  0  0  0  0  0  0  0  0  0  0  0
    4.8325    3.0841   24.5136 O   0  0  0  0  0  0  0  0  0  0  0  0
    6.6532    1.6821   25.1598 C   0  0  0  0  0  0  0  0  0  0  0  0
    7.7886    1.0131   24.5548 N   0  0  0  0  0  0  0  0  0  0  0  0
    7.6405   -0.1851   23.7356 C   0  0  0  0  0  0  0  0  0  0  0  0
    8.5366   -0.1500   22.4620 C   0  0  2  0  0  0  0  0  0  0  0  0
    7.8992    0.7717   21.4015 C   0  0  0  0  0  0  0  0  0  0  0  0
    8.1046    1.9584   21.2329 O   0  0  0  0  0  0  0  0  0  0  0  0
    7.0253   -0.0024   20.6704 N   0  0  0  0  0  0  0  0  0  0  0  0
    6.2060    0.5029   19.6406 C   0  0  0  0  0  0  0  0  0  0  0  0
    6.5089    0.2044   18.3343 C   0  0  0  0  0  0  0  0  0  0  0  0
    5.7296    0.5240   17.2799 N   0  0  0  0  0  0  0  0  0  0  0  0
    4.6222    1.1768   17.5286 C   0  0  0  0  0  0  0  0  0  0  0  0
    4.2171    1.5841   18.8293 C   0  0  0  0  0  0  0  0  0  0  0  0
    3.0205    2.3146   19.0341 C   0  0  0  0  0  0  0  0  0  0  0  0
    2.6374    2.6969   20.2889 C   0  0  0  0  0  0  0  0  0  0  0  0
    3.4399    2.3770   21.4042 C   0  0  0  0  0  0  0  0  0  0  0  0
    4.5989    1.6575   21.2315 C   0  0  0  0  0  0  0  0  0  0  0  0
    5.0280    1.2526   19.9346 C   0  0  0  0  0  0  0  0  0  0  0  0
    5.2089    1.4293   22.1005 H   0  0  0  0  0  0  0  0  0  0  0  0
    3.1641    2.7099   22.3991 H   0  0  0  0  0  0  0  0  0  0  0  0
    1.7204    3.2593   20.4262 H   0  0  0  0  0  0  0  0  0  0  0  0
    2.4319    2.5750   18.1620 H   0  0  0  0  0  0  0  0  0  0  0  0
    3.9793    1.4158   16.6827 H   0  0  0  0  0  0  0  0  0  0  0  0
    7.4327   -0.3239   18.0967 H   0  0  0  0  0  0  0  0  0  0  0  0
    7.0588   -1.4104   21.0311 C   0  0  0  0  0  0  0  0  0  0  0  0
    8.4536   -1.4808   21.6487 C   0  0  2  0  0  0  0  0  0  0  0  0
    8.8712   -2.6885   22.3265 N   0  0  0  0  0  0  0  0  0  0  0  0
    8.0981   -3.7560   22.6873 C   0  0  0  0  0  0  0  0  0  0  0  0
    6.8939   -3.8018   22.5029 O   0  0  0  0  0  0  0  0  0  0  0  0
    8.8351   -4.8760   23.3991 C   0  0  0  0  0  0  0  0  0  0  0  0
    8.7976   -4.7237   24.4855 H   0  0  0  0  0  0  0  0  0  0  0  0
    9.8851   -4.9541   23.1090 H   0  0  0  0  0  0  0  0  0  0  0  0
    8.3156   -5.8083   23.1721 H   0  0  0  0  0  0  0  0  0  0  0  0
    9.8493   -2.6935   22.5938 H   0  0  0  0  0  0  0  0  0  0  0  0
    9.1333   -1.3544   20.7972 H   0  0  0  0  0  0  0  0  0  0  0  0
    6.9520   -2.0438   20.1509 H   0  0  0  0  0  0  0  0  0  0  0  0
    6.2756   -1.6820   21.7501 H   0  0  0  0  0  0  0  0  0  0  0  0
    9.9289    0.2470   22.8724 C   0  0  0  0  0  0  0  0  0  0  0  0
   11.0372   -0.0266   22.0558 C   0  0  0  0  0  0  0  0  0  0  0  0
   12.3035    0.3827   22.4410 C   0  0  0  0  0  0  0  0  0  0  0  0
   13.6698    0.1062   21.4130 Cl  0  0  0  0  0  0  0  0  0  0  0  0
   12.5233    1.0443   23.6457 C   0  0  0  0  0  0  0  0  0  0  0  0
   11.4394    1.2864   24.4612 C   0  0  0  0  0  0  0  0  0  0  0  0
   10.1517    0.9472   24.0661 C   0  0  0  0  0  0  0  0  0  0  0  0
    9.0360    1.4299   24.9372 C   0  0  0  0  0  0  0  0  0  0  0  0
    9.2189    2.1797   25.8857 O   0  0  0  0  0  0  0  0  0  0  0  0
   11.5270    1.7253   25.4370 H   0  0  0  0  0  0  0  0  0  0  0  0
   13.5295    1.3457   23.9102 H   0  0  0  0  0  0  0  0  0  0  0  0
   10.9260   -0.5746   21.1268 H   0  0  0  0  0  0  0  0  0  0  0  0
    7.9240   -1.0782   24.3046 H   0  0  0  0  0  0  0  0  0  0  0  0
    6.5880   -0.2707   23.4534 H   0  0  0  0  0  0  0  0  0  0  0  0
    5.8716    0.9704   25.4350 H   0  0  0  0  0  0  0  0  0  0  0  0
    7.0244    2.1539   26.0776 H   0  0  0  0  0  0  0  0  0  0  0  0
    7.6374    2.8645   23.1308 H   0  0  0  0  0  0  0  0  0  0  0  0
    6.0463    3.7568   21.4720 H   0  0  0  0  0  0  0  0  0  0  0  0
    5.4163    4.8029   22.7870 H   0  0  0  0  0  0  0  0  0  0  0  0
    7.0736    5.0300   22.1605 H   0  0  0  0  0  0  0  0  0  0  0  0
  1  2  1  0
  2  3  1  0
  3  4  2  0
  3  5  1  0
  5  6  1  0
  6  7  1  0
  8  7  1  1
  8  9  1  0
  9 10  2  0
  9 11  1  0
 11 12  1  0
 12 13  2  0
 13 14  1  0
 14 15  2  0
 15 16  1  0
 16 17  2  0
 17 18  1  0
 18 19  2  0
 19 20  1  0
 20 21  2  0
 20 22  1  0
 19 23  1  0
 18 24  1  0
 17 25  1  0
 15 26  1  0
 13 27  1  0
 11 28  1  0
 28 29  1  0
 29 30  1  0
 30 31  1  0
 31 32  2  0
 31 33  1  0
 33 34  1  0
 33 35  1  0
 33 36  1  0
 30 37  1  0
 29 38  1  6
 28 39  1  0
 28 40  1  0
  8 41  1  0
 41 42  2  0
 42 43  1  0
 43 44  1  0
 43 45  2  0
 45 46  1  0
 46 47  2  0
 47 48  1  0
 48 49  2  0
 46 50  1  0
 45 51  1  0
 42 52  1  0
  7 53  1  0
  7 54  1  0
  5 55  1  0
  5 56  1  0
  2 57  1  0
  1 58  1  0
  1 59  1  0
  1 60  1  0
 48  6  1  0
 29  8  1  0
 47 41  1  0
 21 12  1  0
 21 16  1  0
M  END
>  <cnnaffinities>  (72) 
[6.1811]

>  <score>  (72) 
6.1811

>  <index>  (72) 
72

>  <Smiles>  (72) 
C(N(C(=O)C(N1C([C@@]2(C(=O)N(c3c(nc(c4c(c(c(c(c34)[H])[H])[H])[H])[H])[H])C([C@@]2(N(C(=O)C([H])([H])[H])[H])[H])([H])[H])c2c(c(Cl)c(c(c2C1=O)[H])[H])[H])([H])[H])([H])[H])[H])([H])([H])[H]

>  <h>  (72) 
<NA>

>  <Training>  (72) 
True

>  <Success>  (72) 
True

>  <enamine_searched>  (72) 
False

>  <enamine_id>  (72) 
nan

$$$$

     RDKit          3D

 56 61  0  0  0  0  0  0  0  0999 V2000
    7.2276   -2.3863   23.9210 C   0  0  0  0  0  0  0  0  0  0  0  0
    7.7110   -1.7789   22.5987 C   0  0  1  0  0  0  0  0  0  0  0  0
    6.5605   -1.5988   21.5835 C   0  0  0  0  0  0  0  0  0  0  0  0
    6.9276   -0.4155   20.8300 N   0  0  0  0  0  0  0  0  0  0  0  0
    6.1390    0.1025   19.7634 C   0  0  0  0  0  0  0  0  0  0  0  0
    6.4498   -0.2140   18.4686 C   0  0  0  0  0  0  0  0  0  0  0  0
    5.7633    0.2279   17.3863 N   0  0  0  0  0  0  0  0  0  0  0  0
    4.7417    1.0186   17.5933 C   0  0  0  0  0  0  0  0  0  0  0  0
    4.2940    1.4179   18.8859 C   0  0  0  0  0  0  0  0  0  0  0  0
    3.1724    2.2735   19.0636 C   0  0  0  0  0  0  0  0  0  0  0  0
    2.7687    2.6353   20.3175 C   0  0  0  0  0  0  0  0  0  0  0  0
    3.4585    2.1500   21.4509 C   0  0  0  0  0  0  0  0  0  0  0  0
    4.5429    1.3207   21.3048 C   0  0  0  0  0  0  0  0  0  0  0  0
    5.0022    0.9408   20.0110 C   0  0  0  0  0  0  0  0  0  0  0  0
    5.0591    0.9462   22.1834 H   0  0  0  0  0  0  0  0  0  0  0  0
    3.1296    2.4426   22.4437 H   0  0  0  0  0  0  0  0  0  0  0  0
    1.9218    3.3036   20.4494 H   0  0  0  0  0  0  0  0  0  0  0  0
    2.6629    2.6444   18.1780 H   0  0  0  0  0  0  0  0  0  0  0  0
    4.2128    1.3851   16.7134 H   0  0  0  0  0  0  0  0  0  0  0  0
    7.2971   -0.8623   18.2564 H   0  0  0  0  0  0  0  0  0  0  0  0
    7.9266    0.3382   21.4054 C   0  0  0  0  0  0  0  0  0  0  0  0
    8.3133    1.4018   20.9681 O   0  0  0  0  0  0  0  0  0  0  0  0
    8.4302   -0.3867   22.6828 C   0  0  1  0  0  0  0  0  0  0  0  0
    8.0258    0.4164   23.9378 C   0  0  0  0  0  0  0  0  0  0  0  0
    8.8142    1.6334   24.0457 N   0  0  0  0  0  0  0  0  0  0  0  0
    8.1731    2.8599   24.4782 C   0  0  0  0  0  0  0  0  0  0  0  0
    8.8162    4.1745   23.9502 C   0  0  0  0  0  0  0  0  0  0  0  0
    7.5534    4.5468   23.1767 N   0  0  0  0  0  4  0  0  0  0  0  0
    6.8993    3.2636   23.6807 C   0  0  0  0  0  0  0  0  0  0  0  0
    6.0104    3.4692   24.2678 H   0  0  0  0  0  0  0  0  0  0  0  0
    6.6438    2.6213   22.8420 H   0  0  0  0  0  0  0  0  0  0  0  0
    7.6905    4.5646   22.1475 H   0  0  0  0  0  0  0  0  0  0  0  0
    7.0950    5.4243   23.4742 H   0  0  0  0  0  0  0  0  0  0  0  0
    9.6586    4.0468   23.2816 H   0  0  0  0  0  0  0  0  0  0  0  0
    9.0632    4.9096   24.7060 H   0  0  0  0  0  0  0  0  0  0  0  0
    8.0355    2.8406   25.5708 H   0  0  0  0  0  0  0  0  0  0  0  0
   10.1803    1.5444   24.1474 C   0  0  0  0  0  0  0  0  0  0  0  0
   10.8506    2.3614   24.7627 O   0  0  0  0  0  0  0  0  0  0  0  0
   10.7802    0.4077   23.3741 C   0  0  0  0  0  0  0  0  0  0  0  0
   12.1711    0.2794   23.2903 C   0  0  0  0  0  0  0  0  0  0  0  0
   12.7506   -0.6410   22.4274 C   0  0  0  0  0  0  0  0  0  0  0  0
   11.9094   -1.4024   21.6108 C   0  0  0  0  0  0  0  0  0  0  0  0
   12.4674   -2.4362   20.3334 Cl  0  0  0  0  0  0  0  0  0  0  0  0
   10.5418   -1.3225   21.7328 C   0  0  0  0  0  0  0  0  0  0  0  0
    9.9479   -0.4542   22.6479 C   0  0  0  0  0  0  0  0  0  0  0  0
    9.9588   -1.9265   21.0523 H   0  0  0  0  0  0  0  0  0  0  0  0
   13.8284   -0.7373   22.3617 H   0  0  0  0  0  0  0  0  0  0  0  0
   12.7751    0.9573   23.8909 H   0  0  0  0  0  0  0  0  0  0  0  0
    6.9674    0.6722   23.8723 H   0  0  0  0  0  0  0  0  0  0  0  0
    8.1861   -0.2227   24.8195 H   0  0  0  0  0  0  0  0  0  0  0  0
    6.4510   -2.4594   20.9122 H   0  0  0  0  0  0  0  0  0  0  0  0
    5.5987   -1.4609   22.1010 H   0  0  0  0  0  0  0  0  0  0  0  0
    8.4317   -2.4786   22.1666 H   0  0  0  0  0  0  0  0  0  0  0  0
    8.0469   -2.5100   24.6383 H   0  0  0  0  0  0  0  0  0  0  0  0
    6.4633   -1.7547   24.3887 H   0  0  0  0  0  0  0  0  0  0  0  0
    6.7817   -3.3726   23.7538 H   0  0  0  0  0  0  0  0  0  0  0  0
  1  2  1  0
  2  3  1  0
  3  4  1  0
  4  5  1  0
  5  6  2  0
  6  7  1  0
  7  8  2  0
  8  9  1  0
  9 10  2  0
 10 11  1  0
 11 12  2  0
 12 13  1  0
 13 14  2  0
 13 15  1  0
 12 16  1  0
 11 17  1  0
 10 18  1  0
  8 19  1  0
  6 20  1  0
  4 21  1  0
 21 22  2  0
 21 23  1  0
 23 24  1  1
 24 25  1  0
 25 26  1  0
 26 27  1  0
 27 28  1  0
 28 29  1  0
 29 30  1  0
 29 31  1  0
 28 32  1  0
 28 33  1  0
 27 34  1  0
 27 35  1  0
 26 36  1  0
 25 37  1  0
 37 38  2  0
 37 39  1  0
 39 40  2  0
 40 41  1  0
 41 42  2  0
 42 43  1  0
 42 44  1  0
 44 45  2  0
 44 46  1  0
 41 47  1  0
 40 48  1  0
 24 49  1  0
 24 50  1  0
  3 51  1  0
  3 52  1  0
  2 53  1  6
  1 54  1  0
  1 55  1  0
  1 56  1  0
 23  2  1  0
 29 26  1  0
 45 39  1  0
 14  5  1  0
 45 23  1  0
 14  9  1  0
M  CHG  1  28   1
M  END
>  <cnnaffinities>  (73) 
[5.91884, 5.91601, 6.0869, 6.08594, 5.8587, 5.85885, 5.89696, 5.90341]

>  <score>  (73) 
5.91884

>  <index>  (73) 
73

>  <Smiles>  (73) 
C([C@]1(C(N(c2c(nc(c3c(c(c(c(c23)[H])[H])[H])[H])[H])[H])C(=O)[C@]21C(N(C1(C([N+](C1([H])[H])([H])[H])([H])[H])[H])C(=O)c1c(c(c(Cl)c(c21)[H])[H])[H])([H])[H])([H])[H])[H])([H])([H])[H]

>  <h>  (73) 
<NA>

>  <Training>  (73) 
True

>  <Success>  (73) 
True

>  <enamine_searched>  (73) 
False

>  <enamine_id>  (73) 
nan

$$$$

     RDKit          3D

 55 60  0  0  0  0  0  0  0  0999 V2000
    7.3253   -2.5934   23.7796 C   0  0  0  0  0  0  0  0  0  0  0  0
    7.7680   -1.8314   22.5219 C   0  0  1  0  0  0  0  0  0  0  0  0
    6.6146   -1.6596   21.5093 C   0  0  0  0  0  0  0  0  0  0  0  0
    6.9220   -0.4169   20.8304 N   0  0  0  0  0  0  0  0  0  0  0  0
    6.1397    0.1055   19.7648 C   0  0  0  0  0  0  0  0  0  0  0  0
    6.4496   -0.2159   18.4689 C   0  0  0  0  0  0  0  0  0  0  0  0
    5.7621    0.2261   17.3890 N   0  0  0  0  0  0  0  0  0  0  0  0
    4.7426    1.0200   17.5950 C   0  0  0  0  0  0  0  0  0  0  0  0
    4.2916    1.4166   18.8854 C   0  0  0  0  0  0  0  0  0  0  0  0
    3.1678    2.2702   19.0648 C   0  0  0  0  0  0  0  0  0  0  0  0
    2.7516    2.6212   20.3172 C   0  0  0  0  0  0  0  0  0  0  0  0
    3.4331    2.1194   21.4500 C   0  0  0  0  0  0  0  0  0  0  0  0
    4.5184    1.2887   21.3009 C   0  0  0  0  0  0  0  0  0  0  0  0
    4.9949    0.9330   20.0112 C   0  0  0  0  0  0  0  0  0  0  0  0
    5.0542    0.9445   22.1815 H   0  0  0  0  0  0  0  0  0  0  0  0
    3.1263    2.4240   22.4446 H   0  0  0  0  0  0  0  0  0  0  0  0
    1.9111    3.2976   20.4478 H   0  0  0  0  0  0  0  0  0  0  0  0
    2.6640    2.6448   18.1771 H   0  0  0  0  0  0  0  0  0  0  0  0
    4.2179    1.3840   16.7127 H   0  0  0  0  0  0  0  0  0  0  0  0
    7.2903   -0.8703   18.2494 H   0  0  0  0  0  0  0  0  0  0  0  0
    7.8608    0.3633   21.4704 C   0  0  0  0  0  0  0  0  0  0  0  0
    8.2299    1.4430   21.0747 O   0  0  0  0  0  0  0  0  0  0  0  0
    8.3620   -0.3952   22.7296 C   0  0  1  0  0  0  0  0  0  0  0  0
    7.8337    0.2578   24.0251 C   0  0  0  0  0  0  0  0  0  0  0  0
    8.4691    1.5291   24.3005 N   0  0  0  0  0  0  0  0  0  0  0  0
    7.6477    2.6837   24.6004 C   0  0  0  0  0  0  0  0  0  0  0  0
    7.4570    3.5631   23.3949 C   0  0  0  0  0  0  0  0  0  0  0  0
    8.3761    4.4970   22.8447 C   0  0  0  0  0  0  0  0  0  0  0  0
    7.6707    5.0781   21.8472 C   0  0  0  0  0  0  0  0  0  0  0  0
    6.4520    4.5326   21.7581 O   0  0  0  0  0  0  0  0  0  0  0  0
    6.3220    3.5718   22.7453 N   0  0  0  0  0  0  0  0  0  0  0  0
    7.8646    5.8814   21.1462 H   0  0  0  0  0  0  0  0  0  0  0  0
    9.3859    4.6588   23.1847 H   0  0  0  0  0  0  0  0  0  0  0  0
    6.6730    2.3416   24.9674 H   0  0  0  0  0  0  0  0  0  0  0  0
    8.1523    3.2471   25.3874 H   0  0  0  0  0  0  0  0  0  0  0  0
    9.8315    1.6839   24.2901 C   0  0  0  0  0  0  0  0  0  0  0  0
   10.3890    2.6341   24.8272 O   0  0  0  0  0  0  0  0  0  0  0  0
   10.5743    0.6331   23.5262 C   0  0  0  0  0  0  0  0  0  0  0  0
   11.9710    0.6709   23.5070 C   0  0  0  0  0  0  0  0  0  0  0  0
   12.6893   -0.1949   22.6995 C   0  0  0  0  0  0  0  0  0  0  0  0
   11.9712   -1.0741   21.8960 C   0  0  0  0  0  0  0  0  0  0  0  0
   12.5813   -1.9453   21.0805 F   0  0  0  0  0  0  0  0  0  0  0  0
   10.6015   -1.1154   21.8902 C   0  0  0  0  0  0  0  0  0  0  0  0
    9.8739   -0.3132   22.7629 C   0  0  0  0  0  0  0  0  0  0  0  0
   10.1586   -1.7852   21.1650 H   0  0  0  0  0  0  0  0  0  0  0  0
   13.7708   -0.1798   22.6666 H   0  0  0  0  0  0  0  0  0  0  0  0
   12.4567    1.4090   24.1389 H   0  0  0  0  0  0  0  0  0  0  0  0
    8.0125   -0.4344   24.8626 H   0  0  0  0  0  0  0  0  0  0  0  0
    6.7587    0.4388   23.9041 H   0  0  0  0  0  0  0  0  0  0  0  0
    6.5534   -2.4832   20.7875 H   0  0  0  0  0  0  0  0  0  0  0  0
    5.6424   -1.6072   22.0266 H   0  0  0  0  0  0  0  0  0  0  0  0
    8.5491   -2.4227   22.0377 H   0  0  0  0  0  0  0  0  0  0  0  0
    8.1405   -2.6985   24.5062 H   0  0  0  0  0  0  0  0  0  0  0  0
    6.9766   -3.6015   23.5227 H   0  0  0  0  0  0  0  0  0  0  0  0
    6.4957   -2.0783   24.2807 H   0  0  0  0  0  0  0  0  0  0  0  0
  1  2  1  0
  2  3  1  0
  3  4  1  0
  4  5  1  0
  5  6  2  0
  6  7  1  0
  7  8  2  0
  8  9  1  0
  9 10  2  0
 10 11  1  0
 11 12  2  0
 12 13  1  0
 13 14  2  0
 13 15  1  0
 12 16  1  0
 11 17  1  0
 10 18  1  0
  8 19  1  0
  6 20  1  0
  4 21  1  0
 21 22  2  0
 21 23  1  0
 23 24  1  1
 24 25  1  0
 25 26  1  0
 26 27  1  0
 27 28  1  0
 28 29  2  0
 29 30  1  0
 30 31  1  0
 29 32  1  0
 28 33  1  0
 26 34  1  0
 26 35  1  0
 25 36  1  0
 36 37  2  0
 36 38  1  0
 38 39  2  0
 39 40  1  0
 40 41  2  0
 41 42  1  0
 41 43  1  0
 43 44  2  0
 43 45  1  0
 40 46  1  0
 39 47  1  0
 24 48  1  0
 24 49  1  0
  3 50  1  0
  3 51  1  0
  2 52  1  6
  1 53  1  0
  1 54  1  0
  1 55  1  0
 23  2  1  0
 31 27  2  0
 44 38  1  0
 14  5  1  0
 44 23  1  0
 14  9  1  0
M  END
>  <cnnaffinities>  (74) 
[5.821, 6.37722]

>  <score>  (74) 
5.821

>  <index>  (74) 
74

>  <Smiles>  (74) 
C([C@]1(C(N(c2c(nc(c3c(c(c(c(c23)[H])[H])[H])[H])[H])[H])C(=O)[C@]21C(N(C(c1c(c(on1)[H])[H])([H])[H])C(=O)c1c(c(c(F)c(c21)[H])[H])[H])([H])[H])([H])[H])[H])([H])([H])[H]

>  <h>  (74) 
<NA>

>  <Training>  (74) 
True

>  <Success>  (74) 
True

>  <enamine_searched>  (74) 
False

>  <enamine_id>  (74) 
nan

$$$$

     RDKit          3D

 70 75  0  0  0  0  0  0  0  0999 V2000
   11.4374    5.5026   25.7962 C   0  0  0  0  0  0  0  0  0  0  0  0
   11.8260    5.0339   24.5263 O   0  0  0  0  0  0  0  0  0  0  0  0
   10.8074    4.6662   23.7021 C   0  0  0  0  0  0  0  0  0  0  0  0
   11.1794    3.9899   22.5394 C   0  0  0  0  0  0  0  0  0  0  0  0
   10.1951    3.5895   21.6500 C   0  0  0  0  0  0  0  0  0  0  0  0
    8.8586    3.8735   21.8940 C   0  0  0  0  0  0  0  0  0  0  0  0
    8.4884    4.5729   23.0346 C   0  0  0  0  0  0  0  0  0  0  0  0
    7.0227    4.7783   23.3553 C   0  0  0  0  0  0  0  0  0  0  0  0
    6.4756    3.5036   23.7907 N   0  0  0  0  0  0  0  0  0  0  0  0
    6.5141    3.2421   25.1335 C   0  0  0  0  0  0  0  0  0  0  0  0
    6.5253    4.1100   25.9886 O   0  0  0  0  0  0  0  0  0  0  0  0
    6.5132    1.7504   25.4812 C   0  0  0  0  0  0  0  0  0  0  0  0
    7.5671    1.0319   24.7823 N   0  0  0  0  0  0  0  0  0  0  0  0
    7.3374   -0.2510   24.1246 C   0  0  0  0  0  0  0  0  0  0  0  0
    8.1727   -0.3933   22.8115 C   0  0  2  0  0  0  0  0  0  0  0  0
    7.4212    0.4160   21.7400 C   0  0  0  0  0  0  0  0  0  0  0  0
    7.2413    1.6178   21.7716 O   0  0  0  0  0  0  0  0  0  0  0  0
    6.8838   -0.4166   20.8020 N   0  0  0  0  0  0  0  0  0  0  0  0
    6.0673    0.0415   19.7393 C   0  0  0  0  0  0  0  0  0  0  0  0
    6.3561   -0.3067   18.4428 C   0  0  0  0  0  0  0  0  0  0  0  0
    5.6964    0.1678   17.3610 N   0  0  0  0  0  0  0  0  0  0  0  0
    4.7015    0.9956   17.5679 C   0  0  0  0  0  0  0  0  0  0  0  0
    4.2473    1.3749   18.8620 C   0  0  0  0  0  0  0  0  0  0  0  0
    3.1541    2.2619   19.0463 C   0  0  0  0  0  0  0  0  0  0  0  0
    2.7434    2.6121   20.3033 C   0  0  0  0  0  0  0  0  0  0  0  0
    3.3912    2.0699   21.4357 C   0  0  0  0  0  0  0  0  0  0  0  0
    4.4325    1.1940   21.2837 C   0  0  0  0  0  0  0  0  0  0  0  0
    4.9230    0.8636   19.9884 C   0  0  0  0  0  0  0  0  0  0  0  0
    4.9037    0.7658   22.1606 H   0  0  0  0  0  0  0  0  0  0  0  0
    3.0812    2.3592   22.4345 H   0  0  0  0  0  0  0  0  0  0  0  0
    1.9177    3.3039   20.4382 H   0  0  0  0  0  0  0  0  0  0  0  0
    2.6627    2.6675   18.1661 H   0  0  0  0  0  0  0  0  0  0  0  0
    4.1990    1.4025   16.6891 H   0  0  0  0  0  0  0  0  0  0  0  0
    7.1871   -0.9798   18.2343 H   0  0  0  0  0  0  0  0  0  0  0  0
    6.9804   -1.8065   21.1914 C   0  0  0  0  0  0  0  0  0  0  0  0
    8.1250   -1.8293   22.2127 C   0  0  2  0  0  0  0  0  0  0  0  0
    8.0476   -2.9777   23.2147 C   0  0  0  0  0  0  0  0  0  0  0  0
    7.1095   -2.9440   23.7788 H   0  0  0  0  0  0  0  0  0  0  0  0
    8.0927   -3.9470   22.7082 H   0  0  0  0  0  0  0  0  0  0  0  0
    8.8740   -2.9375   23.9346 H   0  0  0  0  0  0  0  0  0  0  0  0
    9.0487   -1.9515   21.6474 H   0  0  0  0  0  0  0  0  0  0  0  0
    7.1868   -2.3951   20.3050 H   0  0  0  0  0  0  0  0  0  0  0  0
    6.0443   -2.1612   21.6419 H   0  0  0  0  0  0  0  0  0  0  0  0
    9.5942    0.1089   23.0427 C   0  0  0  0  0  0  0  0  0  0  0  0
   10.6399   -0.1545   22.1382 C   0  0  0  0  0  0  0  0  0  0  0  0
   11.9284    0.2482   22.4417 C   0  0  0  0  0  0  0  0  0  0  0  0
   13.2376   -0.0384   21.3358 Cl  0  0  0  0  0  0  0  0  0  0  0  0
   12.2395    0.8880   23.6411 C   0  0  0  0  0  0  0  0  0  0  0  0
   11.2092    1.2061   24.4896 C   0  0  0  0  0  0  0  0  0  0  0  0
    9.9023    0.8723   24.1673 C   0  0  0  0  0  0  0  0  0  0  0  0
    8.8449    1.4406   25.0451 C   0  0  0  0  0  0  0  0  0  0  0  0
    9.1163    2.2660   25.9117 O   0  0  0  0  0  0  0  0  0  0  0  0
   11.3559    1.7715   25.3940 H   0  0  0  0  0  0  0  0  0  0  0  0
   13.2655    1.1595   23.8588 H   0  0  0  0  0  0  0  0  0  0  0  0
   10.4645   -0.6594   21.1936 H   0  0  0  0  0  0  0  0  0  0  0  0
    7.5901   -1.0729   24.8110 H   0  0  0  0  0  0  0  0  0  0  0  0
    6.2740   -0.3161   23.8642 H   0  0  0  0  0  0  0  0  0  0  0  0
    5.5544    1.3189   25.1737 H   0  0  0  0  0  0  0  0  0  0  0  0
    6.6285    1.6621   26.5670 H   0  0  0  0  0  0  0  0  0  0  0  0
    6.7470    2.7290   23.1850 H   0  0  0  0  0  0  0  0  0  0  0  0
    6.4552    5.1357   22.4895 H   0  0  0  0  0  0  0  0  0  0  0  0
    6.8804    5.4861   24.1749 H   0  0  0  0  0  0  0  0  0  0  0  0
    9.4602    4.9327   23.9648 C   0  0  0  0  0  0  0  0  0  0  0  0
    9.1248    5.3813   24.8956 H   0  0  0  0  0  0  0  0  0  0  0  0
    8.1288    3.5512   21.1571 H   0  0  0  0  0  0  0  0  0  0  0  0
   10.4331    3.0847   20.7200 H   0  0  0  0  0  0  0  0  0  0  0  0
   12.2416    3.7873   22.4146 H   0  0  0  0  0  0  0  0  0  0  0  0
   12.3355    5.8320   26.3146 H   0  0  0  0  0  0  0  0  0  0  0  0
   10.7612    6.3589   25.7049 H   0  0  0  0  0  0  0  0  0  0  0  0
   10.9447    4.7002   26.3616 H   0  0  0  0  0  0  0  0  0  0  0  0
  1  2  1  0
  2  3  1  0
  3  4  2  0
  4  5  1  0
  5  6  2  0
  6  7  1  0
  7  8  1  0
  8  9  1  0
  9 10  1  0
 10 11  2  0
 10 12  1  0
 12 13  1  0
 13 14  1  0
 15 14  1  1
 15 16  1  0
 16 17  2  0
 16 18  1  0
 18 19  1  0
 19 20  2  0
 20 21  1  0
 21 22  2  0
 22 23  1  0
 23 24  2  0
 24 25  1  0
 25 26  2  0
 26 27  1  0
 27 28  2  0
 27 29  1  0
 26 30  1  0
 25 31  1  0
 24 32  1  0
 22 33  1  0
 20 34  1  0
 18 35  1  0
 35 36  1  0
 36 37  1  0
 37 38  1  0
 37 39  1  0
 37 40  1  0
 36 41  1  6
 35 42  1  0
 35 43  1  0
 15 44  1  0
 44 45  2  0
 45 46  1  0
 46 47  1  0
 46 48  2  0
 48 49  1  0
 49 50  2  0
 50 51  1  0
 51 52  2  0
 49 53  1  0
 48 54  1  0
 45 55  1  0
 14 56  1  0
 14 57  1  0
 12 58  1  0
 12 59  1  0
  9 60  1  0
  8 61  1  0
  8 62  1  0
  7 63  2  0
 63 64  1  0
  6 65  1  0
  5 66  1  0
  4 67  1  0
  1 68  1  0
  1 69  1  0
  1 70  1  0
 63  3  1  0
 51 13  1  0
 36 15  1  0
 50 44  1  0
 28 19  1  0
 28 23  1  0
M  END
>  <cnnaffinities>  (75) 
[6.45201]

>  <score>  (75) 
6.45201

>  <index>  (75) 
75

>  <Smiles>  (75) 
C(Oc1c(c(c(c(C(N(C(=O)C(N2C([C@@]3(C(=O)N(c4c(nc(c5c(c(c(c(c45)[H])[H])[H])[H])[H])[H])C([C@@]3(C([H])([H])[H])[H])([H])[H])c3c(c(Cl)c(c(c3C2=O)[H])[H])[H])([H])[H])([H])[H])[H])([H])[H])c1[H])[H])[H])[H])([H])([H])[H]

>  <h>  (75) 
<NA>

>  <Training>  (75) 
True

>  <Success>  (75) 
True

>  <enamine_searched>  (75) 
False

>  <enamine_id>  (75) 
nan

$$$$

     RDKit          3D

 61 65  0  0  0  0  0  0  0  0999 V2000
    7.0007   -2.4785   23.4555 C   0  0  0  0  0  0  0  0  0  0  0  0
    7.8986   -1.7662   22.4510 C   0  0  1  0  0  0  0  0  0  0  0  0
    7.2927   -1.6814   21.0327 C   0  0  0  0  0  0  0  0  0  0  0  0
    6.9256   -0.2890   20.8785 N   0  0  0  0  0  0  0  0  0  0  0  0
    6.1440    0.1556   19.7972 C   0  0  0  0  0  0  0  0  0  0  0  0
    6.4318   -0.2314   18.5143 C   0  0  0  0  0  0  0  0  0  0  0  0
    5.7580    0.1955   17.4213 N   0  0  0  0  0  0  0  0  0  0  0  0
    4.7497    1.0100   17.6133 C   0  0  0  0  0  0  0  0  0  0  0  0
    4.3059    1.4286   18.8974 C   0  0  0  0  0  0  0  0  0  0  0  0
    3.1789    2.2767   19.0578 C   0  0  0  0  0  0  0  0  0  0  0  0
    2.7389    2.6171   20.3072 C   0  0  0  0  0  0  0  0  0  0  0  0
    3.4001    2.1260   21.4568 C   0  0  0  0  0  0  0  0  0  0  0  0
    4.5065    1.3261   21.3286 C   0  0  0  0  0  0  0  0  0  0  0  0
    5.0005    0.9761   20.0376 C   0  0  0  0  0  0  0  0  0  0  0  0
    5.0146    0.9541   22.2133 H   0  0  0  0  0  0  0  0  0  0  0  0
    3.0355    2.3924   22.4459 H   0  0  0  0  0  0  0  0  0  0  0  0
    1.8780    3.2673   20.4271 H   0  0  0  0  0  0  0  0  0  0  0  0
    2.6820    2.6429   18.1639 H   0  0  0  0  0  0  0  0  0  0  0  0
    4.2197    1.3647   16.7292 H   0  0  0  0  0  0  0  0  0  0  0  0
    7.2708   -0.8981   18.3168 H   0  0  0  0  0  0  0  0  0  0  0  0
    7.5370    0.5510   21.7757 C   0  0  0  0  0  0  0  0  0  0  0  0
    7.5042    1.7679   21.7388 O   0  0  0  0  0  0  0  0  0  0  0  0
    8.3161   -0.2979   22.7971 C   0  0  1  0  0  0  0  0  0  0  0  0
    8.0267    0.1280   24.2465 C   0  0  0  0  0  0  0  0  0  0  0  0
    8.5636    1.4482   24.5477 N   0  0  0  0  0  0  0  0  0  0  0  0
    7.7354    2.3056   25.3836 C   0  0  0  0  0  0  0  0  0  0  0  0
    6.7040    3.0537   24.5429 C   0  0  0  0  0  0  0  0  0  0  0  0
    7.3417    4.0669   23.6453 N   0  0  0  0  0  4  0  0  0  0  0  0
    7.8892    5.2070   24.4302 C   0  0  0  0  0  0  0  0  0  0  0  0
    8.7275    4.8892   25.0467 H   0  0  0  0  0  0  0  0  0  0  0  0
    7.0968    5.6166   25.0699 H   0  0  0  0  0  0  0  0  0  0  0  0
    8.2285    5.9952   23.7559 H   0  0  0  0  0  0  0  0  0  0  0  0
    6.3734    4.5946   22.6548 C   0  0  0  0  0  0  0  0  0  0  0  0
    6.8515    5.3697   22.0501 H   0  0  0  0  0  0  0  0  0  0  0  0
    6.0411    3.7837   22.0075 H   0  0  0  0  0  0  0  0  0  0  0  0
    5.5106    5.0321   23.1716 H   0  0  0  0  0  0  0  0  0  0  0  0
    8.0821    3.5856   23.1094 H   0  0  0  0  0  0  0  0  0  0  0  0
    6.1756    2.3395   23.9045 H   0  0  0  0  0  0  0  0  0  0  0  0
    5.9665    3.5597   25.1766 H   0  0  0  0  0  0  0  0  0  0  0  0
    8.3975    2.9825   25.9217 H   0  0  0  0  0  0  0  0  0  0  0  0
    7.2244    1.6872   26.1320 H   0  0  0  0  0  0  0  0  0  0  0  0
    9.8162    1.8586   24.1682 C   0  0  0  0  0  0  0  0  0  0  0  0
   10.3283    2.8851   24.6088 O   0  0  0  0  0  0  0  0  0  0  0  0
   10.5097    0.9679   23.1610 C   0  0  0  0  0  0  0  0  0  0  0  0
   11.8786    1.1008   22.8842 C   0  0  0  0  0  0  0  0  0  0  0  0
   12.5534    0.2047   22.0623 C   0  0  0  0  0  0  0  0  0  0  0  0
   11.7943   -0.7987   21.4619 C   0  0  0  0  0  0  0  0  0  0  0  0
   12.4191   -2.0746   20.4497 Cl  0  0  0  0  0  0  0  0  0  0  0  0
   10.4393   -0.8911   21.6547 C   0  0  0  0  0  0  0  0  0  0  0  0
    9.7886   -0.0638   22.5553 C   0  0  0  0  0  0  0  0  0  0  0  0
    9.9322   -1.6677   21.1005 H   0  0  0  0  0  0  0  0  0  0  0  0
   13.6281    0.2661   21.8885 H   0  0  0  0  0  0  0  0  0  0  0  0
   12.4240    1.9114   23.3488 H   0  0  0  0  0  0  0  0  0  0  0  0
    6.9448    0.1493   24.4116 H   0  0  0  0  0  0  0  0  0  0  0  0
    8.4593   -0.6183   24.9326 H   0  0  0  0  0  0  0  0  0  0  0  0
    6.4092   -2.3120   20.8966 H   0  0  0  0  0  0  0  0  0  0  0  0
    8.0208   -1.9737   20.2631 H   0  0  0  0  0  0  0  0  0  0  0  0
    8.7939   -2.3941   22.4166 H   0  0  0  0  0  0  0  0  0  0  0  0
    6.8092   -3.4990   23.1074 H   0  0  0  0  0  0  0  0  0  0  0  0
    7.5210   -2.5656   24.4142 H   0  0  0  0  0  0  0  0  0  0  0  0
    6.0414   -1.9762   23.6141 H   0  0  0  0  0  0  0  0  0  0  0  0
  1  2  1  0
  2  3  1  0
  3  4  1  0
  4  5  1  0
  5  6  2  0
  6  7  1  0
  7  8  2  0
  8  9  1  0
  9 10  2  0
 10 11  1  0
 11 12  2  0
 12 13  1  0
 13 14  2  0
 13 15  1  0
 12 16  1  0
 11 17  1  0
 10 18  1  0
  8 19  1  0
  6 20  1  0
  4 21  1  0
 21 22  2  0
 21 23  1  0
 23 24  1  1
 24 25  1  0
 25 26  1  0
 26 27  1  0
 27 28  1  0
 28 29  1  0
 29 30  1  0
 29 31  1  0
 29 32  1  0
 28 33  1  0
 33 34  1  0
 33 35  1  0
 33 36  1  0
 28 37  1  0
 27 38  1  0
 27 39  1  0
 26 40  1  0
 26 41  1  0
 25 42  1  0
 42 43  2  0
 42 44  1  0
 44 45  2  0
 45 46  1  0
 46 47  2  0
 47 48  1  0
 47 49  1  0
 49 50  2  0
 49 51  1  0
 46 52  1  0
 45 53  1  0
 24 54  1  0
 24 55  1  0
  3 56  1  0
  3 57  1  0
  2 58  1  6
  1 59  1  0
  1 60  1  0
  1 61  1  0
 23  2  1  0
 50 44  1  0
 14  5  1  0
 50 23  1  0
 14  9  1  0
M  CHG  1  28   1
M  END
>  <cnnaffinities>  (76) 
[6.0794, 5.92013]

>  <score>  (76) 
6.0794

>  <index>  (76) 
76

>  <Smiles>  (76) 
C([C@]1(C(N(c2c(nc(c3c(c(c(c(c23)[H])[H])[H])[H])[H])[H])C(=O)[C@]21C(N(C(C([N+](C([H])([H])[H])(C([H])([H])[H])[H])([H])[H])([H])[H])C(=O)c1c(c(c(Cl)c(c21)[H])[H])[H])([H])[H])([H])[H])[H])([H])([H])[H]

>  <h>  (76) 
<NA>

>  <Training>  (76) 
True

>  <Success>  (76) 
True

>  <enamine_searched>  (76) 
False

>  <enamine_id>  (76) 
nan

$$$$

     RDKit          3D

 57 60  0  0  0  0  0  0  0  0999 V2000
    4.9511   -2.0145   27.8864 C   0  0  0  0  0  0  0  0  0  0  0  0
    6.0933   -2.5933   27.0318 C   0  0  0  0  0  0  0  0  0  0  0  0
    7.2638   -2.9418   27.9761 C   0  0  0  0  0  0  0  0  0  0  0  0
    6.9851   -3.7676   28.6373 H   0  0  0  0  0  0  0  0  0  0  0  0
    7.5088   -2.0702   28.5902 H   0  0  0  0  0  0  0  0  0  0  0  0
    8.1651   -3.2312   27.4319 H   0  0  0  0  0  0  0  0  0  0  0  0
    5.5480   -3.8479   26.4694 C   0  0  0  0  0  0  0  0  0  0  0  0
    5.0296   -4.8215   26.1172 N   0  0  0  0  0  0  0  0  0  0  0  0
    6.5204   -1.6619   25.8865 C   0  0  0  0  0  0  0  0  0  0  0  0
    5.9569   -0.3963   25.7339 C   0  0  0  0  0  0  0  0  0  0  0  0
    6.3449    0.4485   24.7027 C   0  0  0  0  0  0  0  0  0  0  0  0
    7.3055    0.0548   23.7774 C   0  0  0  0  0  0  0  0  0  0  0  0
    7.7086    0.9826   22.7632 N   0  0  0  0  0  0  0  0  0  0  0  0
    8.3549    2.2305   23.1891 C   0  0  0  0  0  0  0  0  0  0  0  0
    9.8043    2.0118   23.5575 C   0  0  0  0  0  0  0  0  0  0  0  0
   10.0967    1.1662   24.6281 C   0  0  0  0  0  0  0  0  0  0  0  0
   11.4050    0.7822   24.8764 C   0  0  0  0  0  0  0  0  0  0  0  0
   12.4377    1.2599   24.0726 C   0  0  0  0  0  0  0  0  0  0  0  0
   12.1496    2.1942   23.0900 C   0  0  0  0  0  0  0  0  0  0  0  0
   13.4687    2.9316   22.2236 Cl  0  0  0  0  0  0  0  0  0  0  0  0
   10.8400    2.5695   22.8083 C   0  0  0  0  0  0  0  0  0  0  0  0
   10.6359    3.2774   22.0035 H   0  0  0  0  0  0  0  0  0  0  0  0
   13.4543    0.9026   24.1816 H   0  0  0  0  0  0  0  0  0  0  0  0
   11.6063    0.0984   25.6933 H   0  0  0  0  0  0  0  0  0  0  0  0
    9.2978    0.7562   25.2461 H   0  0  0  0  0  0  0  0  0  0  0  0
    7.8080    2.6022   24.0593 H   0  0  0  0  0  0  0  0  0  0  0  0
    8.2592    2.9444   22.3690 H   0  0  0  0  0  0  0  0  0  0  0  0
    7.7857    0.6954   21.4106 C   0  0  0  0  0  0  0  0  0  0  0  0
    8.4516    1.3766   20.6495 O   0  0  0  0  0  0  0  0  0  0  0  0
    6.9459   -0.4613   20.8680 C   0  0  0  0  0  0  0  0  0  0  0  0
    6.0801    0.0345   19.7415 C   0  0  0  0  0  0  0  0  0  0  0  0
    6.4132   -0.2297   18.4401 C   0  0  0  0  0  0  0  0  0  0  0  0
    5.7468    0.2304   17.3511 N   0  0  0  0  0  0  0  0  0  0  0  0
    4.7169    1.0047   17.5759 C   0  0  0  0  0  0  0  0  0  0  0  0
    4.2640    1.3788   18.8702 C   0  0  0  0  0  0  0  0  0  0  0  0
    3.1526    2.2386   19.0462 C   0  0  0  0  0  0  0  0  0  0  0  0
    2.7519    2.6087   20.2986 C   0  0  0  0  0  0  0  0  0  0  0  0
    3.4454    2.1271   21.4324 C   0  0  0  0  0  0  0  0  0  0  0  0
    4.5226    1.2856   21.2922 C   0  0  0  0  0  0  0  0  0  0  0  0
    4.9632    0.8872   19.9959 C   0  0  0  0  0  0  0  0  0  0  0  0
    5.0393    0.9321   22.1836 H   0  0  0  0  0  0  0  0  0  0  0  0
    3.1214    2.4302   22.4241 H   0  0  0  0  0  0  0  0  0  0  0  0
    1.9070    3.2785   20.4273 H   0  0  0  0  0  0  0  0  0  0  0  0
    2.6476    2.6080   18.1573 H   0  0  0  0  0  0  0  0  0  0  0  0
    4.1839    1.3828   16.7039 H   0  0  0  0  0  0  0  0  0  0  0  0
    7.2797   -0.8553   18.2235 H   0  0  0  0  0  0  0  0  0  0  0  0
    7.6388   -1.2220   20.4855 H   0  0  0  0  0  0  0  0  0  0  0  0
    6.3474   -0.9202   21.6582 H   0  0  0  0  0  0  0  0  0  0  0  0
    7.8901   -1.2102   23.9321 C   0  0  0  0  0  0  0  0  0  0  0  0
    7.5025   -2.0516   24.9716 C   0  0  0  0  0  0  0  0  0  0  0  0
    7.9825   -3.0259   25.0600 H   0  0  0  0  0  0  0  0  0  0  0  0
    8.6787   -1.5320   23.2565 H   0  0  0  0  0  0  0  0  0  0  0  0
    5.8943    1.4313   24.6028 H   0  0  0  0  0  0  0  0  0  0  0  0
    5.2064   -0.0366   26.4301 H   0  0  0  0  0  0  0  0  0  0  0  0
    5.2503   -1.0776   28.3602 H   0  0  0  0  0  0  0  0  0  0  0  0
    4.6863   -2.7195   28.6742 H   0  0  0  0  0  0  0  0  0  0  0  0
    4.0431   -1.8434   27.3058 H   0  0  0  0  0  0  0  0  0  0  0  0
  1  2  1  0
  2  3  1  0
  3  4  1  0
  3  5  1  0
  3  6  1  0
  2  7  1  0
  7  8  3  0
  2  9  1  0
  9 10  2  0
 10 11  1  0
 11 12  2  0
 12 13  1  0
 13 14  1  0
 14 15  1  0
 15 16  2  0
 16 17  1  0
 17 18  2  0
 18 19  1  0
 19 20  1  0
 19 21  2  0
 21 22  1  0
 18 23  1  0
 17 24  1  0
 16 25  1  0
 14 26  1  0
 14 27  1  0
 13 28  1  0
 28 29  2  0
 28 30  1  0
 30 31  1  0
 31 32  2  0
 32 33  1  0
 33 34  2  0
 34 35  1  0
 35 36  2  0
 36 37  1  0
 37 38  2  0
 38 39  1  0
 39 40  2  0
 39 41  1  0
 38 42  1  0
 37 43  1  0
 36 44  1  0
 34 45  1  0
 32 46  1  0
 30 47  1  0
 30 48  1  0
 12 49  1  0
 49 50  2  0
 50 51  1  0
 49 52  1  0
 11 53  1  0
 10 54  1  0
  1 55  1  0
  1 56  1  0
  1 57  1  0
 50  9  1  0
 21 15  1  0
 40 31  1  0
 40 35  1  0
M  END
>  <cnnaffinities>  (77) 
[6.11038, 6.30588, 6.36044, 5.79376, 5.79816]

>  <score>  (77) 
6.11038

>  <index>  (77) 
77

>  <Smiles>  (77) 
C(C(C([H])([H])[H])(C#N)c1c(c(c(N(C(c2c(c(c(c(Cl)c2[H])[H])[H])[H])([H])[H])C(=O)C(c2c(nc(c3c(c(c(c(c23)[H])[H])[H])[H])[H])[H])([H])[H])c(c1[H])[H])[H])[H])([H])([H])[H]

>  <h>  (77) 
<NA>

>  <Training>  (77) 
True

>  <Success>  (77) 
True

>  <enamine_searched>  (77) 
False

>  <enamine_id>  (77) 
nan

$$$$

     RDKit          3D

 40 42  0  0  0  0  0  0  0  0999 V2000
   12.5938   -2.0126   22.8544 C   0  0  0  0  0  0  0  0  0  0  0  0
   11.7046   -0.8419   23.3102 C   0  0  0  0  0  0  0  0  0  0  0  0
   10.2976   -1.3073   23.7248 C   0  0  0  0  0  0  0  0  0  0  0  0
    9.2686   -1.2752   22.5906 C   0  0  0  0  0  0  0  0  0  0  0  0
    9.1479    0.0740   22.0446 N   0  0  0  0  0  0  0  0  0  0  0  0
    8.0433    0.5524   21.3906 C   0  0  0  0  0  0  0  0  0  0  0  0
    7.9033    1.7481   21.1918 O   0  0  0  0  0  0  0  0  0  0  0  0
    6.9822   -0.4604   20.8963 C   0  0  0  0  0  0  0  0  0  0  0  0
    6.1245    0.0875   19.7780 C   0  0  0  0  0  0  0  0  0  0  0  0
    6.4306   -0.2103   18.4738 C   0  0  0  0  0  0  0  0  0  0  0  0
    5.7620    0.2429   17.3838 N   0  0  0  0  0  0  0  0  0  0  0  0
    4.7369    1.0301   17.5867 C   0  0  0  0  0  0  0  0  0  0  0  0
    4.2895    1.4191   18.8763 C   0  0  0  0  0  0  0  0  0  0  0  0
    3.1696    2.2706   19.0489 C   0  0  0  0  0  0  0  0  0  0  0  0
    2.7643    2.6454   20.2989 C   0  0  0  0  0  0  0  0  0  0  0  0
    3.4692    2.1771   21.4347 C   0  0  0  0  0  0  0  0  0  0  0  0
    4.5600    1.3496   21.2892 C   0  0  0  0  0  0  0  0  0  0  0  0
    5.0010    0.9437   20.0053 C   0  0  0  0  0  0  0  0  0  0  0  0
    5.1011    1.0124   22.1667 H   0  0  0  0  0  0  0  0  0  0  0  0
    3.1466    2.4793   22.4229 H   0  0  0  0  0  0  0  0  0  0  0  0
    1.9163    3.3106   20.4276 H   0  0  0  0  0  0  0  0  0  0  0  0
    2.6582    2.6348   18.1600 H   0  0  0  0  0  0  0  0  0  0  0  0
    4.2081    1.3916   16.7041 H   0  0  0  0  0  0  0  0  0  0  0  0
    7.2716   -0.8578   18.2376 H   0  0  0  0  0  0  0  0  0  0  0  0
    7.4881   -1.3726   20.5504 H   0  0  0  0  0  0  0  0  0  0  0  0
    6.3489   -0.7657   21.7432 H   0  0  0  0  0  0  0  0  0  0  0  0
   10.2615    0.9979   22.2732 C   0  0  0  0  0  0  0  0  0  0  0  0
   11.5876    0.2279   22.2063 C   0  0  0  0  0  0  0  0  0  0  0  0
   11.6837   -0.3124   21.2587 H   0  0  0  0  0  0  0  0  0  0  0  0
   12.4330    0.9211   22.2695 H   0  0  0  0  0  0  0  0  0  0  0  0
   10.1580    1.7960   21.5347 H   0  0  0  0  0  0  0  0  0  0  0  0
   10.1631    1.4922   23.2551 H   0  0  0  0  0  0  0  0  0  0  0  0
    8.2929   -1.5734   22.9894 H   0  0  0  0  0  0  0  0  0  0  0  0
    9.5362   -2.0035   21.8065 H   0  0  0  0  0  0  0  0  0  0  0  0
   10.3579   -2.3298   24.1073 H   0  0  0  0  0  0  0  0  0  0  0  0
    9.9319   -0.6812   24.5490 H   0  0  0  0  0  0  0  0  0  0  0  0
   12.1738   -0.3917   24.1960 H   0  0  0  0  0  0  0  0  0  0  0  0
   12.1462   -2.5495   22.0058 H   0  0  0  0  0  0  0  0  0  0  0  0
   12.7381   -2.7409   23.6617 H   0  0  0  0  0  0  0  0  0  0  0  0
   13.5850   -1.6668   22.5353 H   0  0  0  0  0  0  0  0  0  0  0  0
  1  2  1  0
  2  3  1  0
  3  4  1  0
  4  5  1  0
  5  6  1  0
  6  7  2  0
  6  8  1  0
  8  9  1  0
  9 10  2  0
 10 11  1  0
 11 12  2  0
 12 13  1  0
 13 14  2  0
 14 15  1  0
 15 16  2  0
 16 17  1  0
 17 18  2  0
 17 19  1  0
 16 20  1  0
 15 21  1  0
 14 22  1  0
 12 23  1  0
 10 24  1  0
  8 25  1  0
  8 26  1  0
  5 27  1  0
 27 28  1  0
 28 29  1  0
 28 30  1  0
 27 31  1  0
 27 32  1  0
  4 33  1  0
  4 34  1  0
  3 35  1  0
  3 36  1  0
  2 37  1  0
  1 38  1  0
  1 39  1  0
  1 40  1  0
 28  2  1  0
 18  9  1  0
 18 13  1  0
M  END
>  <cnnaffinities>  (78) 
[5.01636, 4.96833, 4.86011, 4.85987, 5.10093, 4.63448, 4.63447]

>  <score>  (78) 
5.01636

>  <index>  (78) 
79

>  <Smiles>  (78) 
C(C1(C(C(N(C(=O)C(c2c(nc(c3c(c(c(c(c23)[H])[H])[H])[H])[H])[H])([H])[H])C(C1([H])[H])([H])[H])([H])[H])([H])[H])[H])([H])([H])[H]

>  <h>  (78) 
<NA>

>  <Training>  (78) 
True

>  <Success>  (78) 
True

>  <enamine_searched>  (78) 
False

>  <enamine_id>  (78) 
nan

$$$$

     RDKit          3D

 59 64  0  0  0  0  0  0  0  0999 V2000
    7.7118   -2.9317   23.3988 C   0  0  0  0  0  0  0  0  0  0  0  0
    8.0107   -1.8727   22.3298 C   0  0  1  0  0  0  0  0  0  0  0  0
    6.8969   -1.7679   21.2706 C   0  0  0  0  0  0  0  0  0  0  0  0
    6.9412   -0.3871   20.8352 N   0  0  0  0  0  0  0  0  0  0  0  0
    6.1464    0.1160   19.7736 C   0  0  0  0  0  0  0  0  0  0  0  0
    6.4428   -0.2218   18.4781 C   0  0  0  0  0  0  0  0  0  0  0  0
    5.7620    0.2223   17.3962 N   0  0  0  0  0  0  0  0  0  0  0  0
    4.7442    1.0204   17.6004 C   0  0  0  0  0  0  0  0  0  0  0  0
    4.2956    1.4162   18.8914 C   0  0  0  0  0  0  0  0  0  0  0  0
    3.1674    2.2635   19.0654 C   0  0  0  0  0  0  0  0  0  0  0  0
    2.7437    2.6115   20.3178 C   0  0  0  0  0  0  0  0  0  0  0  0
    3.4209    2.1129   21.4551 C   0  0  0  0  0  0  0  0  0  0  0  0
    4.5103    1.2923   21.3127 C   0  0  0  0  0  0  0  0  0  0  0  0
    5.0003    0.9409   20.0215 C   0  0  0  0  0  0  0  0  0  0  0  0
    5.0160    0.9023   22.1914 H   0  0  0  0  0  0  0  0  0  0  0  0
    3.0787    2.3950   22.4477 H   0  0  0  0  0  0  0  0  0  0  0  0
    1.8920    3.2745   20.4425 H   0  0  0  0  0  0  0  0  0  0  0  0
    2.6641    2.6395   18.1772 H   0  0  0  0  0  0  0  0  0  0  0  0
    4.2185    1.3862   16.7167 H   0  0  0  0  0  0  0  0  0  0  0  0
    7.2867   -0.8758   18.2630 H   0  0  0  0  0  0  0  0  0  0  0  0
    7.6575    0.4375   21.6682 C   0  0  0  0  0  0  0  0  0  0  0  0
    7.7720    1.6357   21.5158 O   0  0  0  0  0  0  0  0  0  0  0  0
    8.2417   -0.4086   22.8231 C   0  0  1  0  0  0  0  0  0  0  0  0
    7.4449   -0.1026   24.1197 C   0  0  0  0  0  0  0  0  0  0  0  0
    7.6991    1.2355   24.6155 N   0  0  0  0  0  0  0  0  0  0  0  0
    6.5724    2.1266   24.8553 C   0  0  0  0  0  0  0  0  0  0  0  0
    5.5538    1.5725   25.8029 C   0  0  0  0  0  0  0  0  0  0  0  0
    4.2827    1.0875   25.5673 C   0  0  0  0  0  0  0  0  0  0  0  0
    3.8418    0.6131   26.8167 C   0  0  0  0  0  0  0  0  0  0  0  0
    4.7612    0.7990   27.7559 N   0  0  0  0  0  0  0  0  0  0  0  0
    5.7915    1.3864   27.1263 N   0  0  0  0  0  0  0  0  0  0  0  0
    7.0009    1.7035   27.8592 C   0  0  0  0  0  0  0  0  0  0  0  0
    7.3228    2.7272   27.6418 H   0  0  0  0  0  0  0  0  0  0  0  0
    6.7671    1.6047   28.9211 H   0  0  0  0  0  0  0  0  0  0  0  0
    7.8129    1.0168   27.5962 H   0  0  0  0  0  0  0  0  0  0  0  0
    2.9086    0.1274   27.0791 H   0  0  0  0  0  0  0  0  0  0  0  0
    3.7924    1.0498   24.6022 H   0  0  0  0  0  0  0  0  0  0  0  0
    6.0682    2.3148   23.8958 H   0  0  0  0  0  0  0  0  0  0  0  0
    6.9918    3.0719   25.2113 H   0  0  0  0  0  0  0  0  0  0  0  0
    8.9768    1.6608   24.8128 C   0  0  0  0  0  0  0  0  0  0  0  0
    9.2646    2.5952   25.5560 O   0  0  0  0  0  0  0  0  0  0  0  0
   10.0228    0.9220   24.0294 C   0  0  0  0  0  0  0  0  0  0  0  0
   11.3462    1.2819   24.2477 C   0  0  0  0  0  0  0  0  0  0  0  0
   12.3641    0.7787   23.4657 C   0  0  0  0  0  0  0  0  0  0  0  0
   12.0097   -0.0781   22.4296 C   0  0  0  0  0  0  0  0  0  0  0  0
   12.9741   -0.5321   21.6157 F   0  0  0  0  0  0  0  0  0  0  0  0
   10.7065   -0.4730   22.1993 C   0  0  0  0  0  0  0  0  0  0  0  0
    9.6885   -0.0181   23.0479 C   0  0  0  0  0  0  0  0  0  0  0  0
   10.5118   -1.1023   21.3366 H   0  0  0  0  0  0  0  0  0  0  0  0
   13.4043    1.0525   23.6013 H   0  0  0  0  0  0  0  0  0  0  0  0
   11.4948    1.9969   25.0354 H   0  0  0  0  0  0  0  0  0  0  0  0
    6.3759   -0.1891   23.9170 H   0  0  0  0  0  0  0  0  0  0  0  0
    7.7202   -0.8316   24.8962 H   0  0  0  0  0  0  0  0  0  0  0  0
    5.9159   -2.0287   21.6951 H   0  0  0  0  0  0  0  0  0  0  0  0
    7.0653   -2.4193   20.4148 H   0  0  0  0  0  0  0  0  0  0  0  0
    8.9317   -2.1669   21.8207 H   0  0  0  0  0  0  0  0  0  0  0  0
    8.4848   -2.9637   24.1758 H   0  0  0  0  0  0  0  0  0  0  0  0
    7.6490   -3.9308   22.9524 H   0  0  0  0  0  0  0  0  0  0  0  0
    6.7535   -2.7373   23.8954 H   0  0  0  0  0  0  0  0  0  0  0  0
  1  2  1  0
  2  3  1  0
  3  4  1  0
  4  5  1  0
  5  6  2  0
  6  7  1  0
  7  8  2  0
  8  9  1  0
  9 10  2  0
 10 11  1  0
 11 12  2  0
 12 13  1  0
 13 14  2  0
 13 15  1  0
 12 16  1  0
 11 17  1  0
 10 18  1  0
  8 19  1  0
  6 20  1  0
  4 21  1  0
 21 22  2  0
 21 23  1  0
 23 24  1  1
 24 25  1  0
 25 26  1  0
 26 27  1  0
 27 28  2  0
 28 29  1  0
 29 30  2  0
 30 31  1  0
 31 32  1  0
 32 33  1  0
 32 34  1  0
 32 35  1  0
 29 36  1  0
 28 37  1  0
 26 38  1  0
 26 39  1  0
 25 40  1  0
 40 41  2  0
 40 42  1  0
 42 43  2  0
 43 44  1  0
 44 45  2  0
 45 46  1  0
 45 47  1  0
 47 48  2  0
 47 49  1  0
 44 50  1  0
 43 51  1  0
 24 52  1  0
 24 53  1  0
  3 54  1  0
  3 55  1  0
  2 56  1  6
  1 57  1  0
  1 58  1  0
  1 59  1  0
 23  2  1  0
 31 27  1  0
 48 42  1  0
 14  5  1  0
 48 23  1  0
 14  9  1  0
M  END
>  <cnnaffinities>  (79) 
[6.26917, 6.35371, 6.505]

>  <score>  (79) 
6.26917

>  <index>  (79) 
80

>  <Smiles>  (79) 
C([C@]1(C(N(c2c(nc(c3c(c(c(c(c23)[H])[H])[H])[H])[H])[H])C(=O)[C@]21C(N(C(c1c(c(nn1C([H])([H])[H])[H])[H])([H])[H])C(=O)c1c(c(c(F)c(c21)[H])[H])[H])([H])[H])([H])[H])[H])([H])([H])[H]

>  <h>  (79) 
<NA>

>  <Training>  (79) 
True

>  <Success>  (79) 
True

>  <enamine_searched>  (79) 
False

>  <enamine_id>  (79) 
nan

$$$$

     RDKit          3D

 58 63  0  0  0  0  0  0  0  0999 V2000
    5.4574    4.9511   21.4151 C   0  0  0  0  0  0  0  0  0  0  0  0
    6.4432    4.5470   22.4652 C   0  0  0  0  0  0  0  0  0  0  0  0
    6.3469    3.5905   23.3388 N   0  0  0  0  0  0  0  0  0  0  0  0
    7.5829    3.5757   23.9891 C   0  0  0  0  0  0  0  0  0  0  0  0
    7.9675    2.5278   24.9924 C   0  0  0  0  0  0  0  0  0  0  0  0
    8.7146    1.4137   24.4136 N   0  0  0  0  0  0  0  0  0  0  0  0
    8.0562    0.1470   24.1610 C   0  0  0  0  0  0  0  0  0  0  0  0
    8.3519   -0.4123   22.7483 C   0  0  2  0  0  0  0  0  0  0  0  0
    7.6806    0.4358   21.6338 C   0  0  0  0  0  0  0  0  0  0  0  0
    7.8433    1.6151   21.4188 O   0  0  0  0  0  0  0  0  0  0  0  0
    6.8858   -0.3892   20.8679 N   0  0  0  0  0  0  0  0  0  0  0  0
    6.1274    0.1042   19.7781 C   0  0  0  0  0  0  0  0  0  0  0  0
    6.4421   -0.2276   18.4839 C   0  0  0  0  0  0  0  0  0  0  0  0
    5.7688    0.2210   17.3998 N   0  0  0  0  0  0  0  0  0  0  0  0
    4.7482    1.0185   17.5997 C   0  0  0  0  0  0  0  0  0  0  0  0
    4.2914    1.4181   18.8868 C   0  0  0  0  0  0  0  0  0  0  0  0
    3.1601    2.2628   19.0629 C   0  0  0  0  0  0  0  0  0  0  0  0
    2.7309    2.6030   20.3177 C   0  0  0  0  0  0  0  0  0  0  0  0
    3.4138    2.1121   21.4526 C   0  0  0  0  0  0  0  0  0  0  0  0
    4.5125    1.3036   21.3070 C   0  0  0  0  0  0  0  0  0  0  0  0
    4.9934    0.9456   20.0162 C   0  0  0  0  0  0  0  0  0  0  0  0
    5.0218    0.9252   22.1851 H   0  0  0  0  0  0  0  0  0  0  0  0
    3.0799    2.3889   22.4496 H   0  0  0  0  0  0  0  0  0  0  0  0
    1.8734    3.2583   20.4437 H   0  0  0  0  0  0  0  0  0  0  0  0
    2.6588    2.6376   18.1764 H   0  0  0  0  0  0  0  0  0  0  0  0
    4.2267    1.3825   16.7157 H   0  0  0  0  0  0  0  0  0  0  0  0
    7.2893   -0.8747   18.2620 H   0  0  0  0  0  0  0  0  0  0  0  0
    7.0714   -1.7984   21.1357 C   0  0  0  0  0  0  0  0  0  0  0  0
    7.7459   -1.8449   22.5296 C   0  0  2  0  0  0  0  0  0  0  0  0
    6.7494   -2.3353   23.5960 C   0  0  0  0  0  0  0  0  0  0  0  0
    7.2148   -2.4119   24.5836 H   0  0  0  0  0  0  0  0  0  0  0  0
    5.8780   -1.6740   23.6794 H   0  0  0  0  0  0  0  0  0  0  0  0
    6.3836   -3.3355   23.3338 H   0  0  0  0  0  0  0  0  0  0  0  0
    8.5691   -2.5693   22.5203 H   0  0  0  0  0  0  0  0  0  0  0  0
    6.0990   -2.3058   21.1283 H   0  0  0  0  0  0  0  0  0  0  0  0
    7.7048   -2.2604   20.3680 H   0  0  0  0  0  0  0  0  0  0  0  0
    9.8601   -0.3455   22.5408 C   0  0  0  0  0  0  0  0  0  0  0  0
   10.4565   -1.1601   21.5755 C   0  0  0  0  0  0  0  0  0  0  0  0
   11.8114   -1.0617   21.3501 C   0  0  0  0  0  0  0  0  0  0  0  0
   12.3519   -1.8603   20.4163 F   0  0  0  0  0  0  0  0  0  0  0  0
   12.6166   -0.1479   22.0168 C   0  0  0  0  0  0  0  0  0  0  0  0
   12.0206    0.6975   22.9343 C   0  0  0  0  0  0  0  0  0  0  0  0
   10.6512    0.6104   23.1936 C   0  0  0  0  0  0  0  0  0  0  0  0
   10.0368    1.6177   24.1238 C   0  0  0  0  0  0  0  0  0  0  0  0
   10.6557    2.5768   24.5655 O   0  0  0  0  0  0  0  0  0  0  0  0
   12.5871    1.4566   23.4626 H   0  0  0  0  0  0  0  0  0  0  0  0
   13.6717   -0.0980   21.7748 H   0  0  0  0  0  0  0  0  0  0  0  0
    9.9040   -1.8549   20.9523 H   0  0  0  0  0  0  0  0  0  0  0  0
    6.9833    0.3217   24.2564 H   0  0  0  0  0  0  0  0  0  0  0  0
    8.3764   -0.6054   24.9009 H   0  0  0  0  0  0  0  0  0  0  0  0
    7.0601    2.1267   25.4554 H   0  0  0  0  0  0  0  0  0  0  0  0
    8.6028    2.9740   25.7641 H   0  0  0  0  0  0  0  0  0  0  0  0
    8.3330    4.5877   23.5064 C   0  0  0  0  0  0  0  0  0  0  0  0
    7.6226    5.2191   22.5277 O   0  0  0  0  0  0  0  0  0  0  0  0
    9.3134    4.9729   23.7395 H   0  0  0  0  0  0  0  0  0  0  0  0
    5.6678    5.9522   21.0303 H   0  0  0  0  0  0  0  0  0  0  0  0
    4.4546    4.9211   21.8437 H   0  0  0  0  0  0  0  0  0  0  0  0
    5.4625    4.2343   20.5856 H   0  0  0  0  0  0  0  0  0  0  0  0
  1  2  1  0
  2  3  2  0
  3  4  1  0
  4  5  1  0
  5  6  1  0
  6  7  1  0
  8  7  1  1
  8  9  1  0
  9 10  2  0
  9 11  1  0
 11 12  1  0
 12 13  2  0
 13 14  1  0
 14 15  2  0
 15 16  1  0
 16 17  2  0
 17 18  1  0
 18 19  2  0
 19 20  1  0
 20 21  2  0
 20 22  1  0
 19 23  1  0
 18 24  1  0
 17 25  1  0
 15 26  1  0
 13 27  1  0
 11 28  1  0
 28 29  1  0
 29 30  1  0
 30 31  1  0
 30 32  1  0
 30 33  1  0
 29 34  1  6
 28 35  1  0
 28 36  1  0
  8 37  1  0
 37 38  2  0
 38 39  1  0
 39 40  1  0
 39 41  2  0
 41 42  1  0
 42 43  2  0
 43 44  1  0
 44 45  2  0
 42 46  1  0
 41 47  1  0
 38 48  1  0
  7 49  1  0
  7 50  1  0
  5 51  1  0
  5 52  1  0
  4 53  2  0
 53 54  1  0
 53 55  1  0
  1 56  1  0
  1 57  1  0
  1 58  1  0
 54  2  1  0
 44  6  1  0
 29  8  1  0
 43 37  1  0
 21 12  1  0
 21 16  1  0
M  END
>  <cnnaffinities>  (80) 
[6.40724]

>  <score>  (80) 
6.40724

>  <index>  (80) 
81

>  <Smiles>  (80) 
C(c1nc(C(N2C([C@@]3(C(=O)N(c4c(nc(c5c(c(c(c(c45)[H])[H])[H])[H])[H])[H])C([C@@]3(C([H])([H])[H])[H])([H])[H])c3c(c(F)c(c(c3C2=O)[H])[H])[H])([H])[H])([H])[H])c(o1)[H])([H])([H])[H]

>  <h>  (80) 
<NA>

>  <Training>  (80) 
True

>  <Success>  (80) 
True

>  <enamine_searched>  (80) 
False

>  <enamine_id>  (80) 
nan

$$$$

     RDKit          3D

 55 60  0  0  0  0  0  0  0  0999 V2000
    7.3896   -2.5961   23.7635 C   0  0  0  0  0  0  0  0  0  0  0  0
    7.8052   -1.8067   22.5129 C   0  0  1  0  0  0  0  0  0  0  0  0
    6.6455   -1.6548   21.5054 C   0  0  0  0  0  0  0  0  0  0  0  0
    6.9281   -0.4049   20.8283 N   0  0  0  0  0  0  0  0  0  0  0  0
    6.1400    0.1090   19.7632 C   0  0  0  0  0  0  0  0  0  0  0  0
    6.4487   -0.2167   18.4690 C   0  0  0  0  0  0  0  0  0  0  0  0
    5.7606    0.2241   17.3894 N   0  0  0  0  0  0  0  0  0  0  0  0
    4.7431    1.0199   17.5956 C   0  0  0  0  0  0  0  0  0  0  0  0
    4.2946    1.4224   18.8853 C   0  0  0  0  0  0  0  0  0  0  0  0
    3.1690    2.2725   19.0672 C   0  0  0  0  0  0  0  0  0  0  0  0
    2.7558    2.6238   20.3212 C   0  0  0  0  0  0  0  0  0  0  0  0
    3.4426    2.1312   21.4543 C   0  0  0  0  0  0  0  0  0  0  0  0
    4.5329    1.3072   21.3026 C   0  0  0  0  0  0  0  0  0  0  0  0
    5.0023    0.9436   20.0109 C   0  0  0  0  0  0  0  0  0  0  0  0
    5.0587    0.9439   22.1807 H   0  0  0  0  0  0  0  0  0  0  0  0
    3.1279    2.4299   22.4481 H   0  0  0  0  0  0  0  0  0  0  0  0
    1.9085    3.2931   20.4499 H   0  0  0  0  0  0  0  0  0  0  0  0
    2.6620    2.6456   18.1807 H   0  0  0  0  0  0  0  0  0  0  0  0
    4.2184    1.3830   16.7125 H   0  0  0  0  0  0  0  0  0  0  0  0
    7.2902   -0.8704   18.2499 H   0  0  0  0  0  0  0  0  0  0  0  0
    7.8370    0.4007   21.4801 C   0  0  0  0  0  0  0  0  0  0  0  0
    8.1512    1.5055   21.1068 O   0  0  0  0  0  0  0  0  0  0  0  0
    8.3545   -0.3551   22.7344 C   0  0  1  0  0  0  0  0  0  0  0  0
    7.7971    0.2793   24.0249 C   0  0  0  0  0  0  0  0  0  0  0  0
    8.3721    1.5867   24.2718 N   0  0  0  0  0  0  0  0  0  0  0  0
    7.5111    2.7150   24.5486 C   0  0  0  0  0  0  0  0  0  0  0  0
    7.3571    3.6155   23.3567 C   0  0  0  0  0  0  0  0  0  0  0  0
    8.1956    4.5060   22.9569 N   0  0  0  0  0  0  0  0  0  0  0  0
    7.5957    5.0689   21.8409 C   0  0  0  0  0  0  0  0  0  0  0  0
    6.4079    4.4678   21.6274 C   0  0  0  0  0  0  0  0  0  0  0  0
    6.2315    3.5384   22.6147 O   0  0  0  0  0  0  0  0  0  0  0  0
    5.6282    4.5492   20.8881 H   0  0  0  0  0  0  0  0  0  0  0  0
    8.0877    5.8764   21.3134 H   0  0  0  0  0  0  0  0  0  0  0  0
    7.9882    3.2841   25.3485 H   0  0  0  0  0  0  0  0  0  0  0  0
    6.5334    2.3478   24.8693 H   0  0  0  0  0  0  0  0  0  0  0  0
    9.7311    1.7780   24.3061 C   0  0  0  0  0  0  0  0  0  0  0  0
   10.2545    2.7317   24.8640 O   0  0  0  0  0  0  0  0  0  0  0  0
   10.5187    0.7479   23.5611 C   0  0  0  0  0  0  0  0  0  0  0  0
   11.9130    0.8379   23.5651 C   0  0  0  0  0  0  0  0  0  0  0  0
   12.6740   -0.0149   22.7837 C   0  0  0  0  0  0  0  0  0  0  0  0
   11.9980   -0.9317   21.9863 C   0  0  0  0  0  0  0  0  0  0  0  0
   12.6464   -1.8025   21.2029 F   0  0  0  0  0  0  0  0  0  0  0  0
   10.6320   -1.0194   21.9533 C   0  0  0  0  0  0  0  0  0  0  0  0
    9.8622   -0.2280   22.7952 C   0  0  0  0  0  0  0  0  0  0  0  0
   10.2301   -1.7176   21.2315 H   0  0  0  0  0  0  0  0  0  0  0  0
   13.7540    0.0365   22.7686 H   0  0  0  0  0  0  0  0  0  0  0  0
   12.3612    1.6043   24.1927 H   0  0  0  0  0  0  0  0  0  0  0  0
    8.0113   -0.3984   24.8673 H   0  0  0  0  0  0  0  0  0  0  0  0
    6.7136    0.3951   23.9055 H   0  0  0  0  0  0  0  0  0  0  0  0
    5.6751   -1.6250   22.0282 H   0  0  0  0  0  0  0  0  0  0  0  0
    6.5962   -2.4766   20.7818 H   0  0  0  0  0  0  0  0  0  0  0  0
    8.6004   -2.3694   22.0172 H   0  0  0  0  0  0  0  0  0  0  0  0
    8.2079   -2.6817   24.4891 H   0  0  0  0  0  0  0  0  0  0  0  0
    6.5447   -2.1135   24.2711 H   0  0  0  0  0  0  0  0  0  0  0  0
    7.0727   -3.6129   23.4990 H   0  0  0  0  0  0  0  0  0  0  0  0
  1  2  1  0
  2  3  1  0
  3  4  1  0
  4  5  1  0
  5  6  2  0
  6  7  1  0
  7  8  2  0
  8  9  1  0
  9 10  2  0
 10 11  1  0
 11 12  2  0
 12 13  1  0
 13 14  2  0
 13 15  1  0
 12 16  1  0
 11 17  1  0
 10 18  1  0
  8 19  1  0
  6 20  1  0
  4 21  1  0
 21 22  2  0
 21 23  1  0
 23 24  1  1
 24 25  1  0
 25 26  1  0
 26 27  1  0
 27 28  2  0
 28 29  1  0
 29 30  2  0
 30 31  1  0
 30 32  1  0
 29 33  1  0
 26 34  1  0
 26 35  1  0
 25 36  1  0
 36 37  2  0
 36 38  1  0
 38 39  2  0
 39 40  1  0
 40 41  2  0
 41 42  1  0
 41 43  1  0
 43 44  2  0
 43 45  1  0
 40 46  1  0
 39 47  1  0
 24 48  1  0
 24 49  1  0
  3 50  1  0
  3 51  1  0
  2 52  1  6
  1 53  1  0
  1 54  1  0
  1 55  1  0
 23  2  1  0
 31 27  1  0
 44 38  1  0
 14  5  1  0
 44 23  1  0
 14  9  1  0
M  END
>  <cnnaffinities>  (81) 
[5.87931, 6.31273]

>  <score>  (81) 
5.87931

>  <index>  (81) 
82

>  <Smiles>  (81) 
C([C@]1(C(N(c2c(nc(c3c(c(c(c(c23)[H])[H])[H])[H])[H])[H])C(=O)[C@]21C(N(C(c1nc(c(o1)[H])[H])([H])[H])C(=O)c1c(c(c(F)c(c21)[H])[H])[H])([H])[H])([H])[H])[H])([H])([H])[H]

>  <h>  (81) 
<NA>

>  <Training>  (81) 
True

>  <Success>  (81) 
True

>  <enamine_searched>  (81) 
False

>  <enamine_id>  (81) 
nan

$$$$

     RDKit          3D

 72 77  0  0  0  0  0  0  0  0999 V2000
    9.2135    6.0425   23.5014 C   0  0  0  0  0  0  0  0  0  0  0  0
    7.9811    6.0578   22.6013 C   0  0  2  0  0  0  0  0  0  0  0  0
    7.2580    7.3962   22.7031 C   0  0  0  0  0  0  0  0  0  0  0  0
    6.0701    7.4276   21.9451 O   0  0  0  0  0  0  0  0  0  0  0  0
    5.1528    6.4729   22.4326 C   0  0  0  0  0  0  0  0  0  0  0  0
    5.6649    5.0473   22.2747 C   0  0  1  0  0  0  0  0  0  0  0  0
    5.7142    4.6442   20.8075 C   0  0  0  0  0  0  0  0  0  0  0  0
    6.0050    3.5931   20.6950 H   0  0  0  0  0  0  0  0  0  0  0  0
    6.4104    5.2855   20.2555 H   0  0  0  0  0  0  0  0  0  0  0  0
    4.7213    4.7453   20.3544 H   0  0  0  0  0  0  0  0  0  0  0  0
    7.0169    4.9310   22.9740 N   0  0  0  0  0  4  0  0  0  0  0  0
    7.6418    3.5775   22.8563 C   0  0  0  0  0  0  0  0  0  0  0  0
    8.0741    2.9878   24.2076 C   0  0  0  0  0  0  0  0  0  0  0  0
    8.7642    1.7226   24.0246 N   0  0  0  0  0  0  0  0  0  0  0  0
    7.9510    0.5306   23.8625 C   0  0  0  0  0  0  0  0  0  0  0  0
    8.4038   -0.3344   22.6687 C   0  0  2  0  0  0  0  0  0  0  0  0
    7.9929    0.2964   21.3188 C   0  0  0  0  0  0  0  0  0  0  0  0
    8.5303    1.2200   20.7338 O   0  0  0  0  0  0  0  0  0  0  0  0
    6.8950   -0.3775   20.8437 N   0  0  0  0  0  0  0  0  0  0  0  0
    6.1396    0.1401   19.7643 C   0  0  0  0  0  0  0  0  0  0  0  0
    6.4935   -0.1467   18.4720 C   0  0  0  0  0  0  0  0  0  0  0  0
    5.8111    0.2886   17.3897 N   0  0  0  0  0  0  0  0  0  0  0  0
    4.7635    1.0498   17.6003 C   0  0  0  0  0  0  0  0  0  0  0  0
    4.2986    1.4364   18.8901 C   0  0  0  0  0  0  0  0  0  0  0  0
    3.1639    2.2685   19.0807 C   0  0  0  0  0  0  0  0  0  0  0  0
    2.7524    2.6154   20.3388 C   0  0  0  0  0  0  0  0  0  0  0  0
    3.4629    2.1622   21.4678 C   0  0  0  0  0  0  0  0  0  0  0  0
    4.5652    1.3565   21.3161 C   0  0  0  0  0  0  0  0  0  0  0  0
    5.0053    0.9653   20.0195 C   0  0  0  0  0  0  0  0  0  0  0  0
    5.1108    1.0338   22.1955 H   0  0  0  0  0  0  0  0  0  0  0  0
    3.1433    2.4539   22.4627 H   0  0  0  0  0  0  0  0  0  0  0  0
    1.8880    3.2581   20.4699 H   0  0  0  0  0  0  0  0  0  0  0  0
    2.6371    2.6265   18.2030 H   0  0  0  0  0  0  0  0  0  0  0  0
    4.2207    1.3923   16.7191 H   0  0  0  0  0  0  0  0  0  0  0  0
    7.3653   -0.7699   18.2836 H   0  0  0  0  0  0  0  0  0  0  0  0
    6.4294   -1.4426   21.7101 C   0  0  0  0  0  0  0  0  0  0  0  0
    7.6535   -1.6960   22.6025 C   0  0  2  0  0  0  0  0  0  0  0  0
    7.3821   -2.4216   23.9153 C   0  0  0  0  0  0  0  0  0  0  0  0
    8.3126   -2.5567   24.4790 H   0  0  0  0  0  0  0  0  0  0  0  0
    6.6748   -1.8834   24.5554 H   0  0  0  0  0  0  0  0  0  0  0  0
    6.9666   -3.4172   23.7244 H   0  0  0  0  0  0  0  0  0  0  0  0
    8.3037   -2.3485   22.0216 H   0  0  0  0  0  0  0  0  0  0  0  0
    6.1609   -2.3188   21.1084 H   0  0  0  0  0  0  0  0  0  0  0  0
    5.5405   -1.1527   22.2925 H   0  0  0  0  0  0  0  0  0  0  0  0
    9.9048   -0.4569   22.6956 C   0  0  0  0  0  0  0  0  0  0  0  0
   10.4796   -1.3658   21.8084 C   0  0  0  0  0  0  0  0  0  0  0  0
   11.8446   -1.4224   21.6500 C   0  0  0  0  0  0  0  0  0  0  0  0
   12.4209   -2.4399   20.3658 Cl  0  0  0  0  0  0  0  0  0  0  0  0
   12.6913   -0.6077   22.4046 C   0  0  0  0  0  0  0  0  0  0  0  0
   12.1210    0.3290   23.2546 C   0  0  0  0  0  0  0  0  0  0  0  0
   10.7320    0.4510   23.3598 C   0  0  0  0  0  0  0  0  0  0  0  0
   10.1338    1.6821   23.9911 C   0  0  0  0  0  0  0  0  0  0  0  0
   10.8347    2.6030   24.3946 O   0  0  0  0  0  0  0  0  0  0  0  0
   12.7343    1.0349   23.8004 H   0  0  0  0  0  0  0  0  0  0  0  0
   13.7629   -0.6638   22.2386 H   0  0  0  0  0  0  0  0  0  0  0  0
    9.8485   -1.9608   21.1596 H   0  0  0  0  0  0  0  0  0  0  0  0
    6.9092    0.8519   23.7432 H   0  0  0  0  0  0  0  0  0  0  0  0
    8.0106   -0.0868   24.7686 H   0  0  0  0  0  0  0  0  0  0  0  0
    8.7291    3.6501   24.7770 H   0  0  0  0  0  0  0  0  0  0  0  0
    7.1849    2.8006   24.8253 H   0  0  0  0  0  0  0  0  0  0  0  0
    8.4974    3.6269   22.1734 H   0  0  0  0  0  0  0  0  0  0  0  0
    6.9265    2.8768   22.4133 H   0  0  0  0  0  0  0  0  0  0  0  0
    6.8244    5.0484   23.9881 H   0  0  0  0  0  0  0  0  0  0  0  0
    4.9826    4.3727   22.8053 H   0  0  0  0  0  0  0  0  0  0  0  0
    4.2334    6.6070   21.8547 H   0  0  0  0  0  0  0  0  0  0  0  0
    4.9287    6.6732   23.4916 H   0  0  0  0  0  0  0  0  0  0  0  0
    7.0271    7.6031   23.7632 H   0  0  0  0  0  0  0  0  0  0  0  0
    7.9010    8.1982   22.3236 H   0  0  0  0  0  0  0  0  0  0  0  0
    8.2875    5.9012   21.5597 H   0  0  0  0  0  0  0  0  0  0  0  0
    9.8290    5.1484   23.3522 H   0  0  0  0  0  0  0  0  0  0  0  0
    9.8432    6.9167   23.3052 H   0  0  0  0  0  0  0  0  0  0  0  0
    8.9079    6.0773   24.5568 H   0  0  0  0  0  0  0  0  0  0  0  0
  1  2  1  0
  2  3  1  0
  3  4  1  0
  4  5  1  0
  5  6  1  0
  6  7  1  0
  7  8  1  0
  7  9  1  0
  7 10  1  0
  6 11  1  0
 11 12  1  0
 12 13  1  0
 13 14  1  0
 14 15  1  0
 16 15  1  1
 16 17  1  0
 17 18  2  0
 17 19  1  0
 19 20  1  0
 20 21  2  0
 21 22  1  0
 22 23  2  0
 23 24  1  0
 24 25  2  0
 25 26  1  0
 26 27  2  0
 27 28  1  0
 28 29  2  0
 28 30  1  0
 27 31  1  0
 26 32  1  0
 25 33  1  0
 23 34  1  0
 21 35  1  0
 19 36  1  0
 36 37  1  0
 37 38  1  0
 38 39  1  0
 38 40  1  0
 38 41  1  0
 37 42  1  6
 36 43  1  0
 36 44  1  0
 16 45  1  0
 45 46  2  0
 46 47  1  0
 47 48  1  0
 47 49  2  0
 49 50  1  0
 50 51  2  0
 51 52  1  0
 52 53  2  0
 50 54  1  0
 49 55  1  0
 46 56  1  0
 15 57  1  0
 15 58  1  0
 13 59  1  0
 13 60  1  0
 12 61  1  0
 12 62  1  0
 11 63  1  0
  6 64  1  1
  5 65  1  0
  5 66  1  0
  3 67  1  0
  3 68  1  0
  2 69  1  6
  1 70  1  0
  1 71  1  0
  1 72  1  0
 11  2  1  0
 52 14  1  0
 37 16  1  0
 51 45  1  0
 29 20  1  0
 29 24  1  0
M  CHG  1  11   1
M  END
>  <cnnaffinities>  (82) 
[6.51503]

>  <score>  (82) 
6.51503

>  <index>  (82) 
83

>  <Smiles>  (82) 
C([C@@]1(C(OC([C@@](C([H])([H])[H])([N+]1(C(C(N1C([C@@]2(C(=O)N(c3c(nc(c4c(c(c(c(c34)[H])[H])[H])[H])[H])[H])C([C@@]2(C([H])([H])[H])[H])([H])[H])c2c(c(Cl)c(c(c2C1=O)[H])[H])[H])([H])[H])([H])[H])([H])[H])[H])[H])([H])[H])([H])[H])[H])([H])([H])[H]

>  <h>  (82) 
<NA>

>  <Training>  (82) 
True

>  <Success>  (82) 
True

>  <enamine_searched>  (82) 
False

>  <enamine_id>  (82) 
nan

$$$$

     RDKit          3D

 60 65  0  0  0  0  0  0  0  0999 V2000
    6.2385    4.3892   22.5589 C   0  0  0  0  0  0  0  0  0  0  0  0
    6.7336    3.6929   23.7262 N   0  0  0  0  0  0  0  0  0  0  0  0
    6.0374    2.8681   24.5295 C   0  0  0  0  0  0  0  0  0  0  0  0
    4.8136    2.8505   24.6464 O   0  0  0  0  0  0  0  0  0  0  0  0
    6.9199    1.9567   25.3725 C   0  0  0  0  0  0  0  0  0  0  0  0
    8.0507    1.3576   24.7190 N   0  0  0  0  0  0  0  0  0  0  0  0
    7.9435    0.0262   24.1232 C   0  0  0  0  0  0  0  0  0  0  0  0
    8.7047   -0.1026   22.7685 C   0  0  2  0  0  0  0  0  0  0  0  0
    8.0210    0.7428   21.6613 C   0  0  0  0  0  0  0  0  0  0  0  0
    8.1921    1.9238   21.4408 O   0  0  0  0  0  0  0  0  0  0  0  0
    7.1960   -0.0858   20.9363 N   0  0  0  0  0  0  0  0  0  0  0  0
    6.3788    0.3505   19.8712 C   0  0  0  0  0  0  0  0  0  0  0  0
    6.6532   -0.0604   18.5892 C   0  0  0  0  0  0  0  0  0  0  0  0
    5.9011    0.2451   17.5096 N   0  0  0  0  0  0  0  0  0  0  0  0
    4.8327    0.9768   17.7066 C   0  0  0  0  0  0  0  0  0  0  0  0
    4.4215    1.4530   18.9833 C   0  0  0  0  0  0  0  0  0  0  0  0
    3.2398    2.2249   19.1465 C   0  0  0  0  0  0  0  0  0  0  0  0
    2.8304    2.6198   20.3906 C   0  0  0  0  0  0  0  0  0  0  0  0
    3.5877    2.2747   21.5332 C   0  0  0  0  0  0  0  0  0  0  0  0
    4.7416    1.5410   21.3945 C   0  0  0  0  0  0  0  0  0  0  0  0
    5.2028    1.1237   20.1134 C   0  0  0  0  0  0  0  0  0  0  0  0
    5.3244    1.3008   22.2785 H   0  0  0  0  0  0  0  0  0  0  0  0
    3.2850    2.6005   22.5243 H   0  0  0  0  0  0  0  0  0  0  0  0
    1.9191    3.2001   20.4981 H   0  0  0  0  0  0  0  0  0  0  0  0
    2.6802    2.4992   18.2549 H   0  0  0  0  0  0  0  0  0  0  0  0
    4.2228    1.2102   16.8336 H   0  0  0  0  0  0  0  0  0  0  0  0
    7.5369   -0.6683   18.3977 H   0  0  0  0  0  0  0  0  0  0  0  0
    7.2495   -1.4729   21.3418 C   0  0  0  0  0  0  0  0  0  0  0  0
    8.5583   -1.5297   22.1425 C   0  0  2  0  0  0  0  0  0  0  0  0
    8.6635   -2.7455   23.0563 C   0  0  0  0  0  0  0  0  0  0  0  0
    7.8619   -2.7624   23.8036 H   0  0  0  0  0  0  0  0  0  0  0  0
    8.5907   -3.6724   22.4767 H   0  0  0  0  0  0  0  0  0  0  0  0
    9.6210   -2.7640   23.5833 H   0  0  0  0  0  0  0  0  0  0  0  0
    9.3417   -1.5887   21.3819 H   0  0  0  0  0  0  0  0  0  0  0  0
    6.3641   -1.7531   21.9350 H   0  0  0  0  0  0  0  0  0  0  0  0
    7.2567   -2.1202   20.4603 H   0  0  0  0  0  0  0  0  0  0  0  0
   10.1083    0.4355   22.9752 C   0  0  0  0  0  0  0  0  0  0  0  0
   11.2096   -0.0267   22.2435 C   0  0  0  0  0  0  0  0  0  0  0  0
   12.4358    0.5886   22.4135 C   0  0  0  0  0  0  0  0  0  0  0  0
   13.8303    0.0338   21.5671 Cl  0  0  0  0  0  0  0  0  0  0  0  0
   12.6030    1.7024   23.2268 C   0  0  0  0  0  0  0  0  0  0  0  0
   11.5200    2.1869   23.9178 C   0  0  0  0  0  0  0  0  0  0  0  0
   10.2920    1.5400   23.8268 C   0  0  0  0  0  0  0  0  0  0  0  0
    9.1815    2.1121   24.6202 C   0  0  0  0  0  0  0  0  0  0  0  0
    9.2575    3.2292   25.1367 O   0  0  0  0  0  0  0  0  0  0  0  0
   11.5997    3.0723   24.5333 H   0  0  0  0  0  0  0  0  0  0  0  0
   13.5827    2.1472   23.2987 H   0  0  0  0  0  0  0  0  0  0  0  0
   11.1363   -0.8763   21.5702 H   0  0  0  0  0  0  0  0  0  0  0  0
    8.3635   -0.7065   24.8270 H   0  0  0  0  0  0  0  0  0  0  0  0
    6.8788   -0.1702   23.9774 H   0  0  0  0  0  0  0  0  0  0  0  0
    7.0594    2.3809   26.8098 C   0  0  0  0  0  0  0  0  0  0  0  0
    6.2133    1.1958   26.4535 C   0  0  0  0  0  0  0  0  0  0  0  0
    6.5983    0.2055   26.6945 H   0  0  0  0  0  0  0  0  0  0  0  0
    5.1368    1.3334   26.4552 H   0  0  0  0  0  0  0  0  0  0  0  0
    8.0393    2.2120   27.2521 H   0  0  0  0  0  0  0  0  0  0  0  0
    6.5794    3.3153   27.0847 H   0  0  0  0  0  0  0  0  0  0  0  0
    7.7193    3.7773   23.9204 H   0  0  0  0  0  0  0  0  0  0  0  0
    6.1078    3.7198   21.6981 H   0  0  0  0  0  0  0  0  0  0  0  0
    5.2907    4.8906   22.7649 H   0  0  0  0  0  0  0  0  0  0  0  0
    6.9874    5.1360   22.2839 H   0  0  0  0  0  0  0  0  0  0  0  0
  1  2  1  0
  2  3  1  0
  3  4  2  0
  3  5  1  0
  5  6  1  0
  6  7  1  0
  8  7  1  1
  8  9  1  0
  9 10  2  0
  9 11  1  0
 11 12  1  0
 12 13  2  0
 13 14  1  0
 14 15  2  0
 15 16  1  0
 16 17  2  0
 17 18  1  0
 18 19  2  0
 19 20  1  0
 20 21  2  0
 20 22  1  0
 19 23  1  0
 18 24  1  0
 17 25  1  0
 15 26  1  0
 13 27  1  0
 11 28  1  0
 28 29  1  0
 29 30  1  0
 30 31  1  0
 30 32  1  0
 30 33  1  0
 29 34  1  6
 28 35  1  0
 28 36  1  0
  8 37  1  0
 37 38  2  0
 38 39  1  0
 39 40  1  0
 39 41  2  0
 41 42  1  0
 42 43  2  0
 43 44  1  0
 44 45  2  0
 42 46  1  0
 41 47  1  0
 38 48  1  0
  7 49  1  0
  7 50  1  0
  5 51  1  0
 51 52  1  0
 52 53  1  0
 52 54  1  0
 51 55  1  0
 51 56  1  0
  2 57  1  0
  1 58  1  0
  1 59  1  0
  1 60  1  0
 52  5  1  0
 44  6  1  0
 29  8  1  0
 43 37  1  0
 21 12  1  0
 21 16  1  0
M  END
>  <cnnaffinities>  (83) 
[6.3435]

>  <score>  (83) 
6.3435

>  <index>  (83) 
84

>  <Smiles>  (83) 
C(N(C(=O)C1(N2C([C@@]3(C(=O)N(c4c(nc(c5c(c(c(c(c45)[H])[H])[H])[H])[H])[H])C([C@@]3(C([H])([H])[H])[H])([H])[H])c3c(c(Cl)c(c(c3C2=O)[H])[H])[H])([H])[H])C(C1([H])[H])([H])[H])[H])([H])([H])[H]

>  <h>  (83) 
<NA>

>  <Training>  (83) 
True

>  <Success>  (83) 
True

>  <enamine_searched>  (83) 
False

>  <enamine_id>  (83) 
nan

$$$$

     RDKit          3D

 55 60  0  0  0  0  0  0  0  0999 V2000
    7.3174   -2.5595   23.7884 C   0  0  0  0  0  0  0  0  0  0  0  0
    7.7387   -1.8440   22.5063 C   0  0  1  0  0  0  0  0  0  0  0  0
    6.5580   -1.6422   21.5423 C   0  0  0  0  0  0  0  0  0  0  0  0
    6.8961   -0.4309   20.8299 N   0  0  0  0  0  0  0  0  0  0  0  0
    6.1198    0.0927   19.7660 C   0  0  0  0  0  0  0  0  0  0  0  0
    6.4482   -0.2141   18.4725 C   0  0  0  0  0  0  0  0  0  0  0  0
    5.7720    0.2302   17.3864 N   0  0  0  0  0  0  0  0  0  0  0  0
    4.7444    1.0156   17.5936 C   0  0  0  0  0  0  0  0  0  0  0  0
    4.2910    1.4082   18.8856 C   0  0  0  0  0  0  0  0  0  0  0  0
    3.1677    2.2562   19.0602 C   0  0  0  0  0  0  0  0  0  0  0  0
    2.7530    2.6092   20.3139 C   0  0  0  0  0  0  0  0  0  0  0  0
    3.4405    2.1308   21.4521 C   0  0  0  0  0  0  0  0  0  0  0  0
    4.5322    1.3085   21.3090 C   0  0  0  0  0  0  0  0  0  0  0  0
    4.9905    0.9309   20.0158 C   0  0  0  0  0  0  0  0  0  0  0  0
    5.0559    0.9508   22.1913 H   0  0  0  0  0  0  0  0  0  0  0  0
    3.0972    2.4197   22.4409 H   0  0  0  0  0  0  0  0  0  0  0  0
    1.9000    3.2659   20.4446 H   0  0  0  0  0  0  0  0  0  0  0  0
    2.6611    2.6256   18.1739 H   0  0  0  0  0  0  0  0  0  0  0  0
    4.2077    1.3793   16.7179 H   0  0  0  0  0  0  0  0  0  0  0  0
    7.3081   -0.8516   18.2771 H   0  0  0  0  0  0  0  0  0  0  0  0
    7.8896    0.3185   21.4118 C   0  0  0  0  0  0  0  0  0  0  0  0
    8.2705    1.3883   20.9803 O   0  0  0  0  0  0  0  0  0  0  0  0
    8.4059   -0.4372   22.6613 C   0  0  1  0  0  0  0  0  0  0  0  0
    7.9403    0.2571   23.9598 C   0  0  0  0  0  0  0  0  0  0  0  0
    8.6417    1.5046   24.1966 N   0  0  0  0  0  0  0  0  0  0  0  0
    7.8861    2.6800   24.5816 C   0  0  0  0  0  0  0  0  0  0  0  0
    7.5279    3.5999   23.4563 C   0  0  0  0  0  0  0  0  0  0  0  0
    6.3589    3.8174   22.8126 C   0  0  0  0  0  0  0  0  0  0  0  0
    6.5288    4.8329   21.9280 O   0  0  0  0  0  0  0  0  0  0  0  0
    7.8190    5.1749   22.0656 C   0  0  0  0  0  0  0  0  0  0  0  0
    8.4653    4.4879   22.9477 N   0  0  0  0  0  0  0  0  0  0  0  0
    8.1585    6.0023   21.4498 H   0  0  0  0  0  0  0  0  0  0  0  0
    5.3869    3.3681   22.7877 H   0  0  0  0  0  0  0  0  0  0  0  0
    6.9869    2.3519   25.1075 H   0  0  0  0  0  0  0  0  0  0  0  0
    8.4960    3.2554   25.2764 H   0  0  0  0  0  0  0  0  0  0  0  0
   10.0116    1.5768   24.1620 C   0  0  0  0  0  0  0  0  0  0  0  0
   10.6386    2.4746   24.7091 O   0  0  0  0  0  0  0  0  0  0  0  0
   10.6816    0.4943   23.3726 C   0  0  0  0  0  0  0  0  0  0  0  0
   12.0781    0.4776   23.3169 C   0  0  0  0  0  0  0  0  0  0  0  0
   12.7391   -0.4344   22.5158 C   0  0  0  0  0  0  0  0  0  0  0  0
   11.9651   -1.3048   21.7572 C   0  0  0  0  0  0  0  0  0  0  0  0
   12.5523   -2.2091   20.9640 F   0  0  0  0  0  0  0  0  0  0  0  0
   10.5909   -1.2964   21.7815 C   0  0  0  0  0  0  0  0  0  0  0  0
    9.9207   -0.4324   22.6452 C   0  0  0  0  0  0  0  0  0  0  0  0
   10.0680   -1.9615   21.1050 H   0  0  0  0  0  0  0  0  0  0  0  0
   13.8201   -0.4716   22.4410 H   0  0  0  0  0  0  0  0  0  0  0  0
   12.6278    1.2067   23.9020 H   0  0  0  0  0  0  0  0  0  0  0  0
    8.1062   -0.4286   24.8029 H   0  0  0  0  0  0  0  0  0  0  0  0
    6.8667    0.4655   23.8938 H   0  0  0  0  0  0  0  0  0  0  0  0
    5.6061   -1.5392   22.0880 H   0  0  0  0  0  0  0  0  0  0  0  0
    6.4468   -2.4788   20.8443 H   0  0  0  0  0  0  0  0  0  0  0  0
    8.4619   -2.4896   22.0046 H   0  0  0  0  0  0  0  0  0  0  0  0
    8.1596   -2.6875   24.4765 H   0  0  0  0  0  0  0  0  0  0  0  0
    6.9232   -3.5526   23.5522 H   0  0  0  0  0  0  0  0  0  0  0  0
    6.5290   -2.0066   24.3121 H   0  0  0  0  0  0  0  0  0  0  0  0
  1  2  1  0
  2  3  1  0
  3  4  1  0
  4  5  1  0
  5  6  2  0
  6  7  1  0
  7  8  2  0
  8  9  1  0
  9 10  2  0
 10 11  1  0
 11 12  2  0
 12 13  1  0
 13 14  2  0
 13 15  1  0
 12 16  1  0
 11 17  1  0
 10 18  1  0
  8 19  1  0
  6 20  1  0
  4 21  1  0
 21 22  2  0
 21 23  1  0
 23 24  1  1
 24 25  1  0
 25 26  1  0
 26 27  1  0
 27 28  2  0
 28 29  1  0
 29 30  1  0
 30 31  2  0
 30 32  1  0
 28 33  1  0
 26 34  1  0
 26 35  1  0
 25 36  1  0
 36 37  2  0
 36 38  1  0
 38 39  2  0
 39 40  1  0
 40 41  2  0
 41 42  1  0
 41 43  1  0
 43 44  2  0
 43 45  1  0
 40 46  1  0
 39 47  1  0
 24 48  1  0
 24 49  1  0
  3 50  1  0
  3 51  1  0
  2 52  1  6
  1 53  1  0
  1 54  1  0
  1 55  1  0
 23  2  1  0
 31 27  1  0
 44 38  1  0
 14  5  1  0
 44 23  1  0
 14  9  1  0
M  END
>  <cnnaffinities>  (84) 
[5.84452, 5.71907]

>  <score>  (84) 
5.84452

>  <index>  (84) 
85

>  <Smiles>  (84) 
C([C@]1(C(N(c2c(nc(c3c(c(c(c(c23)[H])[H])[H])[H])[H])[H])C(=O)[C@]21C(N(C(c1c(oc(n1)[H])[H])([H])[H])C(=O)c1c(c(c(F)c(c21)[H])[H])[H])([H])[H])([H])[H])[H])([H])([H])[H]

>  <h>  (84) 
<NA>

>  <Training>  (84) 
True

>  <Success>  (84) 
True

>  <enamine_searched>  (84) 
False

>  <enamine_id>  (84) 
nan

$$$$

     RDKit          3D

 65 70  0  0  0  0  0  0  0  0999 V2000
    6.5924    4.3591   21.3529 C   0  0  0  0  0  0  0  0  0  0  0  0
    7.5819    3.9723   22.3445 N   0  0  0  0  0  0  0  0  0  0  0  0
    7.1217    3.3121   23.4486 C   0  0  0  0  0  0  0  0  0  0  0  0
    5.9269    3.1219   23.6309 O   0  0  0  0  0  0  0  0  0  0  0  0
    8.1538    2.8135   24.4567 C   0  0  0  0  0  0  0  0  0  0  0  0
    8.8196    1.6161   23.9855 N   0  0  0  0  0  0  0  0  0  0  0  0
    8.0371    0.3902   23.8816 C   0  0  0  0  0  0  0  0  0  0  0  0
    8.4356   -0.4162   22.6226 C   0  0  2  0  0  0  0  0  0  0  0  0
    7.9600    0.2902   21.3317 C   0  0  0  0  0  0  0  0  0  0  0  0
    8.4525    1.2626   20.7982 O   0  0  0  0  0  0  0  0  0  0  0  0
    6.8837   -0.4055   20.8375 N   0  0  0  0  0  0  0  0  0  0  0  0
    6.1221    0.1049   19.7659 C   0  0  0  0  0  0  0  0  0  0  0  0
    6.4716   -0.1981   18.4765 C   0  0  0  0  0  0  0  0  0  0  0  0
    5.7928    0.2349   17.3919 N   0  0  0  0  0  0  0  0  0  0  0  0
    4.7530    1.0055   17.6010 C   0  0  0  0  0  0  0  0  0  0  0  0
    4.2923    1.4009   18.8902 C   0  0  0  0  0  0  0  0  0  0  0  0
    3.1729    2.2533   19.0666 C   0  0  0  0  0  0  0  0  0  0  0  0
    2.7729    2.6259   20.3211 C   0  0  0  0  0  0  0  0  0  0  0  0
    3.4715    2.1666   21.4598 C   0  0  0  0  0  0  0  0  0  0  0  0
    4.5566    1.3353   21.3169 C   0  0  0  0  0  0  0  0  0  0  0  0
    4.9928    0.9341   20.0217 C   0  0  0  0  0  0  0  0  0  0  0  0
    5.1112    1.0220   22.1970 H   0  0  0  0  0  0  0  0  0  0  0  0
    3.1700    2.4909   22.4503 H   0  0  0  0  0  0  0  0  0  0  0  0
    1.9198    3.2848   20.4441 H   0  0  0  0  0  0  0  0  0  0  0  0
    2.6633    2.6151   18.1797 H   0  0  0  0  0  0  0  0  0  0  0  0
    4.2161    1.3593   16.7231 H   0  0  0  0  0  0  0  0  0  0  0  0
    7.3409   -0.8266   18.2933 H   0  0  0  0  0  0  0  0  0  0  0  0
    6.4793   -1.5444   21.6269 C   0  0  0  0  0  0  0  0  0  0  0  0
    7.7042   -1.7883   22.5160 C   0  0  2  0  0  0  0  0  0  0  0  0
    7.3639   -2.5190   23.8190 C   0  0  0  0  0  0  0  0  0  0  0  0
    6.8296   -3.8439   23.5640 N   0  0  0  0  0  0  0  0  0  0  0  0
    5.5206   -4.1425   23.5148 C   0  0  0  0  0  0  0  0  0  0  0  0
    4.6172   -3.1881   23.8280 N   0  0  0  0  0  0  0  0  0  0  0  0
    3.3561   -3.6007   23.7733 C   0  0  0  0  0  0  0  0  0  0  0  0
    2.9323   -4.8159   23.4363 N   0  0  0  0  0  0  0  0  0  0  0  0
    3.9210   -5.6695   23.1485 C   0  0  0  0  0  0  0  0  0  0  0  0
    5.2140   -5.4107   23.1582 N   0  0  0  0  0  0  0  0  0  0  0  0
    3.6270   -6.6852   22.8788 H   0  0  0  0  0  0  0  0  0  0  0  0
    2.5890   -2.8688   24.0305 H   0  0  0  0  0  0  0  0  0  0  0  0
    7.4609   -4.5988   23.3340 H   0  0  0  0  0  0  0  0  0  0  0  0
    6.6011   -1.9664   24.3733 H   0  0  0  0  0  0  0  0  0  0  0  0
    8.2610   -2.6045   24.4460 H   0  0  0  0  0  0  0  0  0  0  0  0
    8.3654   -2.4563   21.9587 H   0  0  0  0  0  0  0  0  0  0  0  0
    6.2541   -2.4046   20.9874 H   0  0  0  0  0  0  0  0  0  0  0  0
    5.5789   -1.3267   22.2188 H   0  0  0  0  0  0  0  0  0  0  0  0
    9.9389   -0.4936   22.5456 C   0  0  0  0  0  0  0  0  0  0  0  0
   10.5062   -1.3762   21.6299 C   0  0  0  0  0  0  0  0  0  0  0  0
   11.8665   -1.4050   21.4584 C   0  0  0  0  0  0  0  0  0  0  0  0
   12.4470   -2.4680   20.2235 Cl  0  0  0  0  0  0  0  0  0  0  0  0
   12.7177   -0.6002   22.2116 C   0  0  0  0  0  0  0  0  0  0  0  0
   12.1607    0.3060   23.0934 C   0  0  0  0  0  0  0  0  0  0  0  0
   10.7735    0.4114   23.2078 C   0  0  0  0  0  0  0  0  0  0  0  0
   10.1923    1.5826   23.9455 C   0  0  0  0  0  0  0  0  0  0  0  0
   10.8959    2.4564   24.4315 O   0  0  0  0  0  0  0  0  0  0  0  0
   12.7852    0.9685   23.6788 H   0  0  0  0  0  0  0  0  0  0  0  0
   13.7852   -0.6720   22.0579 H   0  0  0  0  0  0  0  0  0  0  0  0
    9.9161   -2.0424   21.0087 H   0  0  0  0  0  0  0  0  0  0  0  0
    8.2064   -0.2323   24.7750 H   0  0  0  0  0  0  0  0  0  0  0  0
    6.9720    0.6543   23.8415 H   0  0  0  0  0  0  0  0  0  0  0  0
    8.9308    3.5493   24.6726 H   0  0  0  0  0  0  0  0  0  0  0  0
    7.6142    2.6121   25.3860 H   0  0  0  0  0  0  0  0  0  0  0  0
    8.4922    3.7435   21.9685 H   0  0  0  0  0  0  0  0  0  0  0  0
    5.8157    4.9580   21.8279 H   0  0  0  0  0  0  0  0  0  0  0  0
    7.0525    4.9696   20.5705 H   0  0  0  0  0  0  0  0  0  0  0  0
    6.1175    3.4765   20.9034 H   0  0  0  0  0  0  0  0  0  0  0  0
  1  2  1  0
  2  3  1  0
  3  4  2  0
  3  5  1  0
  5  6  1  0
  6  7  1  0
  8  7  1  1
  8  9  1  0
  9 10  2  0
  9 11  1  0
 11 12  1  0
 12 13  2  0
 13 14  1  0
 14 15  2  0
 15 16  1  0
 16 17  2  0
 17 18  1  0
 18 19  2  0
 19 20  1  0
 20 21  2  0
 20 22  1  0
 19 23  1  0
 18 24  1  0
 17 25  1  0
 15 26  1  0
 13 27  1  0
 11 28  1  0
 28 29  1  0
 29 30  1  0
 30 31  1  0
 31 32  1  0
 32 33  2  0
 33 34  1  0
 34 35  2  0
 35 36  1  0
 36 37  2  0
 36 38  1  0
 34 39  1  0
 31 40  1  0
 30 41  1  0
 30 42  1  0
 29 43  1  6
 28 44  1  0
 28 45  1  0
  8 46  1  0
 46 47  2  0
 47 48  1  0
 48 49  1  0
 48 50  2  0
 50 51  1  0
 51 52  2  0
 52 53  1  0
 53 54  2  0
 51 55  1  0
 50 56  1  0
 47 57  1  0
  7 58  1  0
  7 59  1  0
  5 60  1  0
  5 61  1  0
  2 62  1  0
  1 63  1  0
  1 64  1  0
  1 65  1  0
 53  6  1  0
 29  8  1  0
 37 32  1  0
 52 46  1  0
 21 12  1  0
 21 16  1  0
M  END
>  <cnnaffinities>  (85) 
[6.55333]

>  <score>  (85) 
6.55333

>  <index>  (85) 
86

>  <Smiles>  (85) 
C(N(C(=O)C(N1C([C@@]2(C(=O)N(c3c(nc(c4c(c(c(c(c34)[H])[H])[H])[H])[H])[H])C([C@@]2(C(N(c2nc(nc(n2)[H])[H])[H])([H])[H])[H])([H])[H])c2c(c(Cl)c(c(c2C1=O)[H])[H])[H])([H])[H])([H])[H])[H])([H])([H])[H]

>  <h>  (85) 
<NA>

>  <Training>  (85) 
True

>  <Success>  (85) 
True

>  <enamine_searched>  (85) 
False

>  <enamine_id>  (85) 
nan

$$$$

     RDKit          3D

 63 68  0  0  0  0  0  0  0  0999 V2000
    6.5949    4.3695   21.3446 C   0  0  0  0  0  0  0  0  0  0  0  0
    7.5857    3.9899   22.3365 N   0  0  0  0  0  0  0  0  0  0  0  0
    7.1280    3.3261   23.4371 C   0  0  0  0  0  0  0  0  0  0  0  0
    5.9355    3.1317   23.6154 O   0  0  0  0  0  0  0  0  0  0  0  0
    8.1485    2.8264   24.4538 C   0  0  0  0  0  0  0  0  0  0  0  0
    8.8187    1.6312   23.9866 N   0  0  0  0  0  0  0  0  0  0  0  0
    8.0421    0.4007   23.8790 C   0  0  0  0  0  0  0  0  0  0  0  0
    8.4447   -0.3925   22.6151 C   0  0  2  0  0  0  0  0  0  0  0  0
    7.9554    0.3086   21.3259 C   0  0  0  0  0  0  0  0  0  0  0  0
    8.4356    1.2860   20.7862 O   0  0  0  0  0  0  0  0  0  0  0  0
    6.8879   -0.4043   20.8342 N   0  0  0  0  0  0  0  0  0  0  0  0
    6.1188    0.0990   19.7647 C   0  0  0  0  0  0  0  0  0  0  0  0
    6.4692   -0.2034   18.4772 C   0  0  0  0  0  0  0  0  0  0  0  0
    5.7908    0.2303   17.3912 N   0  0  0  0  0  0  0  0  0  0  0  0
    4.7545    1.0026   17.6040 C   0  0  0  0  0  0  0  0  0  0  0  0
    4.2939    1.3992   18.8916 C   0  0  0  0  0  0  0  0  0  0  0  0
    3.1768    2.2528   19.0694 C   0  0  0  0  0  0  0  0  0  0  0  0
    2.7771    2.6263   20.3212 C   0  0  0  0  0  0  0  0  0  0  0  0
    3.4751    2.1672   21.4624 C   0  0  0  0  0  0  0  0  0  0  0  0
    4.5583    1.3350   21.3196 C   0  0  0  0  0  0  0  0  0  0  0  0
    4.9940    0.9308   20.0260 C   0  0  0  0  0  0  0  0  0  0  0  0
    5.1138    1.0255   22.2015 H   0  0  0  0  0  0  0  0  0  0  0  0
    3.1704    2.4928   22.4514 H   0  0  0  0  0  0  0  0  0  0  0  0
    1.9232    3.2846   20.4436 H   0  0  0  0  0  0  0  0  0  0  0  0
    2.6679    2.6142   18.1800 H   0  0  0  0  0  0  0  0  0  0  0  0
    4.2172    1.3592   16.7263 H   0  0  0  0  0  0  0  0  0  0  0  0
    7.3388   -0.8320   18.2958 H   0  0  0  0  0  0  0  0  0  0  0  0
    6.5079   -1.5514   21.6224 C   0  0  0  0  0  0  0  0  0  0  0  0
    7.7371   -1.7700   22.5034 C   0  0  2  0  0  0  0  0  0  0  0  0
    7.3948   -2.5111   23.7950 C   0  0  0  0  0  0  0  0  0  0  0  0
    6.8368   -3.8139   23.4834 N   0  0  0  0  0  0  0  0  0  0  0  0
    5.5291   -4.1459   23.4034 C   0  0  0  0  0  0  0  0  0  0  0  0
    5.4741   -5.4573   22.9792 C   0  0  0  0  0  0  0  0  0  0  0  0
    6.8308   -5.8128   22.7990 C   0  0  0  0  0  0  0  0  0  0  0  0
    7.6469   -4.8071   23.0968 N   0  0  0  0  0  0  0  0  0  0  0  0
    7.2501   -6.7719   22.5144 H   0  0  0  0  0  0  0  0  0  0  0  0
    4.5940   -6.0755   22.8395 H   0  0  0  0  0  0  0  0  0  0  0  0
    4.7495   -3.4262   23.6418 H   0  0  0  0  0  0  0  0  0  0  0  0
    8.2893   -2.6773   24.4002 H   0  0  0  0  0  0  0  0  0  0  0  0
    6.6511   -1.9466   24.3706 H   0  0  0  0  0  0  0  0  0  0  0  0
    8.4136   -2.4313   21.9585 H   0  0  0  0  0  0  0  0  0  0  0  0
    5.6050   -1.3622   22.2279 H   0  0  0  0  0  0  0  0  0  0  0  0
    6.3098   -2.4249   20.9937 H   0  0  0  0  0  0  0  0  0  0  0  0
    9.9480   -0.4664   22.5453 C   0  0  0  0  0  0  0  0  0  0  0  0
   10.5163   -1.3511   21.6326 C   0  0  0  0  0  0  0  0  0  0  0  0
   11.8772   -1.3811   21.4630 C   0  0  0  0  0  0  0  0  0  0  0  0
   12.4537   -2.4485   20.2309 Cl  0  0  0  0  0  0  0  0  0  0  0  0
   12.7282   -0.5805   22.2214 C   0  0  0  0  0  0  0  0  0  0  0  0
   12.1713    0.3294   23.0990 C   0  0  0  0  0  0  0  0  0  0  0  0
   10.7829    0.4356   23.2102 C   0  0  0  0  0  0  0  0  0  0  0  0
   10.1917    1.6034   23.9461 C   0  0  0  0  0  0  0  0  0  0  0  0
   10.8925    2.4821   24.4307 O   0  0  0  0  0  0  0  0  0  0  0  0
   12.7951    0.9966   23.6832 H   0  0  0  0  0  0  0  0  0  0  0  0
   13.7975   -0.6562   22.0791 H   0  0  0  0  0  0  0  0  0  0  0  0
    9.9280   -2.0213   21.0174 H   0  0  0  0  0  0  0  0  0  0  0  0
    6.9750    0.6572   23.8404 H   0  0  0  0  0  0  0  0  0  0  0  0
    8.2211   -0.2304   24.7652 H   0  0  0  0  0  0  0  0  0  0  0  0
    8.9223    3.5608   24.6755 H   0  0  0  0  0  0  0  0  0  0  0  0
    7.6002    2.6204   25.3749 H   0  0  0  0  0  0  0  0  0  0  0  0
    8.5004    3.7748   21.9600 H   0  0  0  0  0  0  0  0  0  0  0  0
    5.8237    4.9783   21.8199 H   0  0  0  0  0  0  0  0  0  0  0  0
    7.0552    4.9702   20.5546 H   0  0  0  0  0  0  0  0  0  0  0  0
    6.1164    3.4796   20.9117 H   0  0  0  0  0  0  0  0  0  0  0  0
  1  2  1  0
  2  3  1  0
  3  4  2  0
  3  5  1  0
  5  6  1  0
  6  7  1  0
  8  7  1  1
  8  9  1  0
  9 10  2  0
  9 11  1  0
 11 12  1  0
 12 13  2  0
 13 14  1  0
 14 15  2  0
 15 16  1  0
 16 17  2  0
 17 18  1  0
 18 19  2  0
 19 20  1  0
 20 21  2  0
 20 22  1  0
 19 23  1  0
 18 24  1  0
 17 25  1  0
 15 26  1  0
 13 27  1  0
 11 28  1  0
 28 29  1  0
 29 30  1  0
 30 31  1  0
 31 32  1  0
 32 33  2  0
 33 34  1  0
 34 35  2  0
 34 36  1  0
 33 37  1  0
 32 38  1  0
 30 39  1  0
 30 40  1  0
 29 41  1  6
 28 42  1  0
 28 43  1  0
  8 44  1  0
 44 45  2  0
 45 46  1  0
 46 47  1  0
 46 48  2  0
 48 49  1  0
 49 50  2  0
 50 51  1  0
 51 52  2  0
 49 53  1  0
 48 54  1  0
 45 55  1  0
  7 56  1  0
  7 57  1  0
  5 58  1  0
  5 59  1  0
  2 60  1  0
  1 61  1  0
  1 62  1  0
  1 63  1  0
 51  6  1  0
 29  8  1  0
 35 31  1  0
 50 44  1  0
 21 12  1  0
 21 16  1  0
M  END
>  <cnnaffinities>  (86) 
[6.54567]

>  <score>  (86) 
6.54567

>  <index>  (86) 
87

>  <Smiles>  (86) 
C(N(C(=O)C(N1C([C@@]2(C(=O)N(c3c(nc(c4c(c(c(c(c34)[H])[H])[H])[H])[H])[H])C([C@@]2(C(n2c(c(c(n2)[H])[H])[H])([H])[H])[H])([H])[H])c2c(c(Cl)c(c(c2C1=O)[H])[H])[H])([H])[H])([H])[H])[H])([H])([H])[H]

>  <h>  (86) 
<NA>

>  <Training>  (86) 
True

>  <Success>  (86) 
True

>  <enamine_searched>  (86) 
False

>  <enamine_id>  (86) 
nan

$$$$

     RDKit          3D

 64 68  0  0  0  0  0  0  0  0999 V2000
    2.2506   -2.7936   27.4980 C   0  0  0  0  0  0  0  0  0  0  0  0
    3.3918   -3.6364   28.0923 C   0  0  0  0  0  0  0  0  0  0  0  0
    4.3666   -4.0908   27.0091 C   0  0  0  0  0  0  0  0  0  0  0  0
    5.4855   -3.5912   27.0222 O   0  0  0  0  0  0  0  0  0  0  0  0
    3.9559   -4.8985   25.9483 N   0  0  0  0  0  0  0  0  0  0  0  0
    2.8458   -5.8419   26.0547 C   0  0  0  0  0  0  0  0  0  0  0  0
    3.3251   -7.2260   25.5852 C   0  0  0  0  0  0  0  0  0  0  0  0
    3.7099   -7.1438   24.1057 C   0  0  0  0  0  0  0  0  0  0  0  0
    4.5237   -5.9002   23.8017 C   0  0  0  0  0  0  0  0  0  0  0  0
    5.1723   -5.8021   22.5660 C   0  0  0  0  0  0  0  0  0  0  0  0
    5.8139   -4.6133   22.2153 C   0  0  0  0  0  0  0  0  0  0  0  0
    5.8553   -3.5322   23.0917 C   0  0  0  0  0  0  0  0  0  0  0  0
    6.3977   -2.3200   22.6614 N   0  0  0  0  0  0  0  0  0  0  0  0
    7.2191   -1.5227   23.5664 C   0  0  0  0  0  0  0  0  0  0  0  0
    8.6751   -1.6318   23.1861 C   0  0  0  0  0  0  0  0  0  0  0  0
    9.3272   -2.8770   23.1754 C   0  0  0  0  0  0  0  0  0  0  0  0
   10.6931   -2.9650   22.8741 C   0  0  0  0  0  0  0  0  0  0  0  0
   11.4116   -1.8051   22.5623 C   0  0  0  0  0  0  0  0  0  0  0  0
   10.7842   -0.5532   22.5912 C   0  0  0  0  0  0  0  0  0  0  0  0
   11.7914    1.0365   22.2140 Br  0  0  0  0  0  0  0  0  0  0  0  0
    9.4213   -0.4734   22.8985 C   0  0  0  0  0  0  0  0  0  0  0  0
    8.9453    0.5026   22.9148 H   0  0  0  0  0  0  0  0  0  0  0  0
   12.4654   -1.8676   22.3090 H   0  0  0  0  0  0  0  0  0  0  0  0
   11.2097   -3.9208   22.8794 H   0  0  0  0  0  0  0  0  0  0  0  0
    8.7598   -3.7769   23.4036 H   0  0  0  0  0  0  0  0  0  0  0  0
    6.8993   -0.4759   23.5426 H   0  0  0  0  0  0  0  0  0  0  0  0
    7.0947   -1.8650   24.5987 H   0  0  0  0  0  0  0  0  0  0  0  0
    6.1698   -1.8775   21.3621 C   0  0  0  0  0  0  0  0  0  0  0  0
    5.4218   -2.5054   20.6099 O   0  0  0  0  0  0  0  0  0  0  0  0
    6.8429   -0.5808   20.8766 C   0  0  0  0  0  0  0  0  0  0  0  0
    6.1003    0.0774   19.7196 C   0  0  0  0  0  0  0  0  0  0  0  0
    6.4787   -0.1820   18.3906 C   0  0  0  0  0  0  0  0  0  0  0  0
    5.8284    0.3177   17.3282 N   0  0  0  0  0  0  0  0  0  0  0  0
    4.7616    1.1036   17.5517 C   0  0  0  0  0  0  0  0  0  0  0  0
    4.2999    1.4178   18.8352 C   0  0  0  0  0  0  0  0  0  0  0  0
    3.1790    2.2398   19.0278 C   0  0  0  0  0  0  0  0  0  0  0  0
    2.7573    2.5597   20.3213 C   0  0  0  0  0  0  0  0  0  0  0  0
    3.4426    2.0521   21.4281 C   0  0  0  0  0  0  0  0  0  0  0  0
    4.5469    1.2167   21.2374 C   0  0  0  0  0  0  0  0  0  0  0  0
    4.9878    0.8997   19.9449 C   0  0  0  0  0  0  0  0  0  0  0  0
    5.0731    0.8182   22.0976 H   0  0  0  0  0  0  0  0  0  0  0  0
    3.1223    2.3124   22.4329 H   0  0  0  0  0  0  0  0  0  0  0  0
    1.9060    3.2166   20.4617 H   0  0  0  0  0  0  0  0  0  0  0  0
    2.6473    2.6518   18.1751 H   0  0  0  0  0  0  0  0  0  0  0  0
    4.2349    1.5133   16.6962 H   0  0  0  0  0  0  0  0  0  0  0  0
    7.3317   -0.8341   18.2257 H   0  0  0  0  0  0  0  0  0  0  0  0
    6.8803    0.1159   21.7193 H   0  0  0  0  0  0  0  0  0  0  0  0
    7.8788   -0.8023   20.5944 H   0  0  0  0  0  0  0  0  0  0  0  0
    5.2722   -3.6487   24.3482 C   0  0  0  0  0  0  0  0  0  0  0  0
    4.5914   -4.8203   24.7059 C   0  0  0  0  0  0  0  0  0  0  0  0
    5.3121   -2.8148   25.0401 H   0  0  0  0  0  0  0  0  0  0  0  0
    6.3087   -4.5208   21.2579 H   0  0  0  0  0  0  0  0  0  0  0  0
    5.1879   -6.6578   21.9010 H   0  0  0  0  0  0  0  0  0  0  0  0
    4.2626   -8.0440   23.8266 H   0  0  0  0  0  0  0  0  0  0  0  0
    2.7948   -7.1170   23.5021 H   0  0  0  0  0  0  0  0  0  0  0  0
    2.5222   -7.9596   25.7070 H   0  0  0  0  0  0  0  0  0  0  0  0
    4.1865   -7.5717   26.1692 H   0  0  0  0  0  0  0  0  0  0  0  0
    2.4546   -5.8948   27.0752 H   0  0  0  0  0  0  0  0  0  0  0  0
    2.0336   -5.5172   25.3954 H   0  0  0  0  0  0  0  0  0  0  0  0
    2.9882   -4.5035   28.6183 H   0  0  0  0  0  0  0  0  0  0  0  0
    3.9498   -3.0338   28.8154 H   0  0  0  0  0  0  0  0  0  0  0  0
    1.7001   -3.3671   26.7449 H   0  0  0  0  0  0  0  0  0  0  0  0
    1.5519   -2.4887   28.2857 H   0  0  0  0  0  0  0  0  0  0  0  0
    2.6452   -1.8914   27.0165 H   0  0  0  0  0  0  0  0  0  0  0  0
  1  2  1  0
  2  3  1  0
  3  4  2  0
  3  5  1  0
  5  6  1  0
  6  7  1  0
  7  8  1  0
  8  9  1  0
  9 10  2  0
 10 11  1  0
 11 12  2  0
 12 13  1  0
 13 14  1  0
 14 15  1  0
 15 16  2  0
 16 17  1  0
 17 18  2  0
 18 19  1  0
 19 20  1  0
 19 21  2  0
 21 22  1  0
 18 23  1  0
 17 24  1  0
 16 25  1  0
 14 26  1  0
 14 27  1  0
 13 28  1  0
 28 29  2  0
 28 30  1  0
 30 31  1  0
 31 32  2  0
 32 33  1  0
 33 34  2  0
 34 35  1  0
 35 36  2  0
 36 37  1  0
 37 38  2  0
 38 39  1  0
 39 40  2  0
 39 41  1  0
 38 42  1  0
 37 43  1  0
 36 44  1  0
 34 45  1  0
 32 46  1  0
 30 47  1  0
 30 48  1  0
 12 49  1  0
 49 50  2  0
 49 51  1  0
 11 52  1  0
 10 53  1  0
  8 54  1  0
  8 55  1  0
  7 56  1  0
  7 57  1  0
  6 58  1  0
  6 59  1  0
  2 60  1  0
  2 61  1  0
  1 62  1  0
  1 63  1  0
  1 64  1  0
 50  5  1  0
 50  9  1  0
 21 15  1  0
 40 31  1  0
 40 35  1  0
M  END
>  <cnnaffinities>  (87) 
[6.471]

>  <score>  (87) 
6.471

>  <index>  (87) 
88

>  <Smiles>  (87) 
C(C(C(=O)N1C(C(C(c2c(c(c(N(C(c3c(c(c(c(Br)c3[H])[H])[H])[H])([H])[H])C(=O)C(c3c(nc(c4c(c(c(c(c34)[H])[H])[H])[H])[H])[H])([H])[H])c(c12)[H])[H])[H])([H])[H])([H])[H])([H])[H])([H])[H])([H])([H])[H]

>  <h>  (87) 
<NA>

>  <Training>  (87) 
True

>  <Success>  (87) 
True

>  <enamine_searched>  (87) 
False

>  <enamine_id>  (87) 
nan

$$$$

     RDKit          3D

 38 40  0  0  0  0  0  0  0  0999 V2000
    5.1708   -2.1200   21.1685 O   0  0  0  0  0  0  0  0  0  0  0  0
    6.2093   -1.6674   21.6152 C   0  0  0  0  0  0  0  0  0  0  0  0
    6.9236   -0.4919   20.9098 C   0  0  0  0  0  0  0  0  0  0  0  0
    6.1140    0.0854   19.7733 C   0  0  0  0  0  0  0  0  0  0  0  0
    6.4215   -0.2146   18.4728 C   0  0  0  0  0  0  0  0  0  0  0  0
    5.7557    0.2374   17.3784 N   0  0  0  0  0  0  0  0  0  0  0  0
    4.7351    1.0308   17.5805 C   0  0  0  0  0  0  0  0  0  0  0  0
    4.2850    1.4191   18.8697 C   0  0  0  0  0  0  0  0  0  0  0  0
    3.1623    2.2676   19.0463 C   0  0  0  0  0  0  0  0  0  0  0  0
    2.7478    2.6222   20.3010 C   0  0  0  0  0  0  0  0  0  0  0  0
    3.4385    2.1349   21.4326 C   0  0  0  0  0  0  0  0  0  0  0  0
    4.5288    1.3109   21.2886 C   0  0  0  0  0  0  0  0  0  0  0  0
    4.9875    0.9325   20.0002 C   0  0  0  0  0  0  0  0  0  0  0  0
    5.0425    0.9371   22.1684 H   0  0  0  0  0  0  0  0  0  0  0  0
    3.1005    2.4173   22.4251 H   0  0  0  0  0  0  0  0  0  0  0  0
    1.8913    3.2797   20.4352 H   0  0  0  0  0  0  0  0  0  0  0  0
    2.6473    2.6430   18.1645 H   0  0  0  0  0  0  0  0  0  0  0  0
    4.2023    1.3981   16.6996 H   0  0  0  0  0  0  0  0  0  0  0  0
    7.2640   -0.8667   18.2443 H   0  0  0  0  0  0  0  0  0  0  0  0
    7.8880   -0.8501   20.5169 H   0  0  0  0  0  0  0  0  0  0  0  0
    7.1654    0.2917   21.6410 H   0  0  0  0  0  0  0  0  0  0  0  0
    6.7616   -2.1744   22.7810 N   0  0  0  0  0  0  0  0  0  0  0  0
    6.0668   -3.3256   23.3766 C   0  0  0  0  0  0  0  0  0  0  0  0
    6.3290   -4.6516   22.6904 C   0  0  0  0  0  0  0  0  0  0  0  0
    7.5485   -5.1661   22.5607 C   0  0  0  0  0  0  0  0  0  0  0  0
    8.7920   -4.5162   23.1201 C   0  0  0  0  0  0  0  0  0  0  0  0
    9.0881   -3.1097   22.5770 C   0  0  0  0  0  0  0  0  0  0  0  0
    8.1681   -2.0271   23.1423 C   0  0  0  0  0  0  0  0  0  0  0  0
    8.5148   -1.0335   22.8508 H   0  0  0  0  0  0  0  0  0  0  0  0
    8.2284   -2.0667   24.2349 H   0  0  0  0  0  0  0  0  0  0  0  0
   10.1329   -2.8487   22.7999 H   0  0  0  0  0  0  0  0  0  0  0  0
    9.0050   -3.1212   21.4854 H   0  0  0  0  0  0  0  0  0  0  0  0
    9.6505   -5.1523   22.9240 H   0  0  0  0  0  0  0  0  0  0  0  0
    8.7293   -4.4664   24.2160 H   0  0  0  0  0  0  0  0  0  0  0  0
    7.6684   -6.0820   21.9819 H   0  0  0  0  0  0  0  0  0  0  0  0
    5.4764   -5.1736   22.2580 H   0  0  0  0  0  0  0  0  0  0  0  0
    6.3924   -3.3911   24.4207 H   0  0  0  0  0  0  0  0  0  0  0  0
    4.9967   -3.1146   23.3897 H   0  0  0  0  0  0  0  0  0  0  0  0
  1  2  2  0
  2  3  1  0
  3  4  1  0
  4  5  2  0
  5  6  1  0
  6  7  2  0
  7  8  1  0
  8  9  2  0
  9 10  1  0
 10 11  2  0
 11 12  1  0
 12 13  2  0
 12 14  1  0
 11 15  1  0
 10 16  1  0
  9 17  1  0
  7 18  1  0
  5 19  1  0
  3 20  1  0
  3 21  1  0
  2 22  1  0
 22 23  1  0
 23 24  1  0
 24 25  2  0
 25 26  1  0
 26 27  1  0
 27 28  1  0
 28 29  1  0
 28 30  1  0
 27 31  1  0
 27 32  1  0
 26 33  1  0
 26 34  1  0
 25 35  1  0
 24 36  1  0
 23 37  1  0
 23 38  1  0
 13  4  1  0
 28 22  1  0
 13  8  1  0
M  END
>  <cnnaffinities>  (88) 
[4.64136, 5.27797, 5.52722]

>  <score>  (88) 
4.64136

>  <index>  (88) 
89

>  <Smiles>  (88) 
O=C(C(c1c(nc(c2c(c(c(c(c12)[H])[H])[H])[H])[H])[H])([H])[H])N1C(C(=C(C(C(C1([H])[H])([H])[H])([H])[H])[H])[H])([H])[H]

>  <h>  (88) 
<NA>

>  <Training>  (88) 
True

>  <Success>  (88) 
True

>  <enamine_searched>  (88) 
False

>  <enamine_id>  (88) 
nan

$$$$

     RDKit          3D

 62 67  0  0  0  0  0  0  0  0999 V2000
    7.3656   -2.6383   23.7162 C   0  0  0  0  0  0  0  0  0  0  0  0
    7.7044   -1.7404   22.5374 C   0  0  1  0  0  0  0  0  0  0  0  0
    6.6097   -1.6242   21.4805 C   0  0  0  0  0  0  0  0  0  0  0  0
    6.9111   -0.3590   20.8386 N   0  0  0  0  0  0  0  0  0  0  0  0
    6.1364    0.1266   19.7691 C   0  0  0  0  0  0  0  0  0  0  0  0
    6.4447   -0.2328   18.4858 C   0  0  0  0  0  0  0  0  0  0  0  0
    5.7666    0.2016   17.4000 N   0  0  0  0  0  0  0  0  0  0  0  0
    4.7534    1.0078   17.6034 C   0  0  0  0  0  0  0  0  0  0  0  0
    4.3149    1.4211   18.8943 C   0  0  0  0  0  0  0  0  0  0  0  0
    3.1957    2.2736   19.0675 C   0  0  0  0  0  0  0  0  0  0  0  0
    2.7755    2.6282   20.3191 C   0  0  0  0  0  0  0  0  0  0  0  0
    3.4456    2.1396   21.4637 C   0  0  0  0  0  0  0  0  0  0  0  0
    4.5306    1.3102   21.3234 C   0  0  0  0  0  0  0  0  0  0  0  0
    5.0086    0.9553   20.0261 C   0  0  0  0  0  0  0  0  0  0  0  0
    5.0231    0.9231   22.2118 H   0  0  0  0  0  0  0  0  0  0  0  0
    3.0935    2.4169   22.4532 H   0  0  0  0  0  0  0  0  0  0  0  0
    1.9174    3.2819   20.4404 H   0  0  0  0  0  0  0  0  0  0  0  0
    2.6922    2.6356   18.1761 H   0  0  0  0  0  0  0  0  0  0  0  0
    4.2098    1.3669   16.7278 H   0  0  0  0  0  0  0  0  0  0  0  0
    7.2934   -0.8901   18.3006 H   0  0  0  0  0  0  0  0  0  0  0  0
    7.6496    0.5016   21.6099 C   0  0  0  0  0  0  0  0  0  0  0  0
    7.8562    1.6779   21.3586 O   0  0  0  0  0  0  0  0  0  0  0  0
    8.1604   -0.2751   22.8327 C   0  0  1  0  0  0  0  0  0  0  0  0
    7.5972    0.2876   24.1489 C   0  0  0  0  0  0  0  0  0  0  0  0
    8.2080    1.5481   24.5383 N   0  0  0  0  0  0  0  0  0  0  0  0
    7.3101    2.5960   24.9989 C   0  0  0  0  0  0  0  0  0  0  0  0
    6.6799    3.3476   23.8330 C   0  0  0  0  0  0  0  0  0  0  0  0
    7.7059    4.1798   23.1476 N   0  0  0  0  0  4  0  0  0  0  0  0
    7.2604    5.1747   22.0830 C   0  0  0  0  0  0  0  0  0  0  0  0
    7.8366    6.3893   22.8659 C   0  0  0  0  0  0  0  0  0  0  0  0
    8.3000    5.3722   23.9450 C   0  0  0  0  0  0  0  0  0  0  0  0
    7.7902    5.4881   24.9009 H   0  0  0  0  0  0  0  0  0  0  0  0
    9.3684    5.2398   24.0854 H   0  0  0  0  0  0  0  0  0  0  0  0
    8.6327    6.9505   22.3688 H   0  0  0  0  0  0  0  0  0  0  0  0
    7.0630    7.0764   23.2228 H   0  0  0  0  0  0  0  0  0  0  0  0
    6.1809    5.1706   21.9364 H   0  0  0  0  0  0  0  0  0  0  0  0
    7.7626    4.9284   21.1541 H   0  0  0  0  0  0  0  0  0  0  0  0
    8.4069    3.5434   22.7327 H   0  0  0  0  0  0  0  0  0  0  0  0
    5.8504    3.9778   24.1671 H   0  0  0  0  0  0  0  0  0  0  0  0
    6.3041    2.6494   23.0847 H   0  0  0  0  0  0  0  0  0  0  0  0
    7.8852    3.2496   25.6585 H   0  0  0  0  0  0  0  0  0  0  0  0
    6.5255    2.1232   25.5974 H   0  0  0  0  0  0  0  0  0  0  0  0
    9.5665    1.7334   24.5296 C   0  0  0  0  0  0  0  0  0  0  0  0
   10.1197    2.6526   25.1251 O   0  0  0  0  0  0  0  0  0  0  0  0
   10.3421    0.7644   23.6602 C   0  0  0  0  0  0  0  0  0  0  0  0
   11.7396    0.7831   23.6017 C   0  0  0  0  0  0  0  0  0  0  0  0
   12.4594   -0.0507   22.7429 C   0  0  0  0  0  0  0  0  0  0  0  0
   11.7310   -0.8880   21.8912 C   0  0  0  0  0  0  0  0  0  0  0  0
   12.4217   -2.1300   20.8903 Cl  0  0  0  0  0  0  0  0  0  0  0  0
   10.3576   -0.8394   21.8733 C   0  0  0  0  0  0  0  0  0  0  0  0
    9.6541   -0.1241   22.8390 C   0  0  0  0  0  0  0  0  0  0  0  0
    9.8260   -1.3720   21.0958 H   0  0  0  0  0  0  0  0  0  0  0  0
   13.5448   -0.0469   22.7104 H   0  0  0  0  0  0  0  0  0  0  0  0
   12.2486    1.4768   24.2609 H   0  0  0  0  0  0  0  0  0  0  0  0
    7.7487   -0.4487   24.9435 H   0  0  0  0  0  0  0  0  0  0  0  0
    6.5153    0.4172   24.0634 H   0  0  0  0  0  0  0  0  0  0  0  0
    6.6496   -2.4344   20.7498 H   0  0  0  0  0  0  0  0  0  0  0  0
    5.6038   -1.6303   21.9261 H   0  0  0  0  0  0  0  0  0  0  0  0
    8.5507   -2.2197   22.0461 H   0  0  0  0  0  0  0  0  0  0  0  0
    7.1465   -3.6467   23.3514 H   0  0  0  0  0  0  0  0  0  0  0  0
    8.2230   -2.7091   24.3936 H   0  0  0  0  0  0  0  0  0  0  0  0
    6.4991   -2.2788   24.2800 H   0  0  0  0  0  0  0  0  0  0  0  0
  1  2  1  0
  2  3  1  0
  3  4  1  0
  4  5  1  0
  5  6  2  0
  6  7  1  0
  7  8  2  0
  8  9  1  0
  9 10  2  0
 10 11  1  0
 11 12  2  0
 12 13  1  0
 13 14  2  0
 13 15  1  0
 12 16  1  0
 11 17  1  0
 10 18  1  0
  8 19  1  0
  6 20  1  0
  4 21  1  0
 21 22  2  0
 21 23  1  0
 23 24  1  1
 24 25  1  0
 25 26  1  0
 26 27  1  0
 27 28  1  0
 28 29  1  0
 29 30  1  0
 30 31  1  0
 31 32  1  0
 31 33  1  0
 30 34  1  0
 30 35  1  0
 29 36  1  0
 29 37  1  0
 28 38  1  0
 27 39  1  0
 27 40  1  0
 26 41  1  0
 26 42  1  0
 25 43  1  0
 43 44  2  0
 43 45  1  0
 45 46  2  0
 46 47  1  0
 47 48  2  0
 48 49  1  0
 48 50  1  0
 50 51  2  0
 50 52  1  0
 47 53  1  0
 46 54  1  0
 24 55  1  0
 24 56  1  0
  3 57  1  0
  3 58  1  0
  2 59  1  6
  1 60  1  0
  1 61  1  0
  1 62  1  0
 23  2  1  0
 31 28  1  0
 51 45  1  0
 14  5  1  0
 51 23  1  0
 14  9  1  0
M  CHG  1  28   1
M  END
>  <cnnaffinities>  (89) 
[6.12159]

>  <score>  (89) 
6.12159

>  <index>  (89) 
90

>  <Smiles>  (89) 
C([C@]1(C(N(c2c(nc(c3c(c(c(c(c23)[H])[H])[H])[H])[H])[H])C(=O)[C@]21C(N(C(C([N+]1(C(C(C1([H])[H])([H])[H])([H])[H])[H])([H])[H])([H])[H])C(=O)c1c(c(c(Cl)c(c21)[H])[H])[H])([H])[H])([H])[H])[H])([H])([H])[H]

>  <h>  (89) 
<NA>

>  <Training>  (89) 
True

>  <Success>  (89) 
True

>  <enamine_searched>  (89) 
False

>  <enamine_id>  (89) 
nan

$$$$

     RDKit          3D

 56 61  0  0  0  0  0  0  0  0999 V2000
    7.0627   -2.4202   23.5061 C   0  0  0  0  0  0  0  0  0  0  0  0
    7.9480   -1.8444   22.4011 C   0  0  1  0  0  0  0  0  0  0  0  0
    7.2080   -1.7736   21.0490 C   0  0  0  0  0  0  0  0  0  0  0  0
    6.8963   -0.3734   20.8836 N   0  0  0  0  0  0  0  0  0  0  0  0
    6.1259    0.1011   19.7968 C   0  0  0  0  0  0  0  0  0  0  0  0
    6.4406   -0.2374   18.5047 C   0  0  0  0  0  0  0  0  0  0  0  0
    5.7757    0.2120   17.4128 N   0  0  0  0  0  0  0  0  0  0  0  0
    4.7545    1.0096   17.6067 C   0  0  0  0  0  0  0  0  0  0  0  0
    4.2954    1.3998   18.8959 C   0  0  0  0  0  0  0  0  0  0  0  0
    3.1738    2.2521   19.0650 C   0  0  0  0  0  0  0  0  0  0  0  0
    2.7537    2.6109   20.3146 C   0  0  0  0  0  0  0  0  0  0  0  0
    3.4263    2.1249   21.4588 C   0  0  0  0  0  0  0  0  0  0  0  0
    4.4996    1.2811   21.3240 C   0  0  0  0  0  0  0  0  0  0  0  0
    4.9829    0.9260   20.0343 C   0  0  0  0  0  0  0  0  0  0  0  0
    4.9944    0.8777   22.2036 H   0  0  0  0  0  0  0  0  0  0  0  0
    3.0972    2.4326   22.4484 H   0  0  0  0  0  0  0  0  0  0  0  0
    1.8965    3.2668   20.4338 H   0  0  0  0  0  0  0  0  0  0  0  0
    2.6727    2.6260   18.1766 H   0  0  0  0  0  0  0  0  0  0  0  0
    4.2241    1.3794   16.7271 H   0  0  0  0  0  0  0  0  0  0  0  0
    7.2976   -0.8795   18.3010 H   0  0  0  0  0  0  0  0  0  0  0  0
    7.7188    0.4520   21.6250 C   0  0  0  0  0  0  0  0  0  0  0  0
    7.8204    1.6444   21.4688 O   0  0  0  0  0  0  0  0  0  0  0  0
    8.5018   -0.4037   22.6428 C   0  0  1  0  0  0  0  0  0  0  0  0
    8.3167    0.0826   24.0959 C   0  0  0  0  0  0  0  0  0  0  0  0
    8.9441    1.3640   24.3573 N   0  0  0  0  0  0  0  0  0  0  0  0
    8.1970    2.3819   25.0811 C   0  0  0  0  0  0  0  0  0  0  0  0
    7.4058    3.3185   24.1928 C   0  0  0  0  0  0  0  0  0  0  0  0
    6.0287    3.3144   23.8593 C   0  0  0  0  0  0  0  0  0  0  0  0
    5.6987    4.2981   23.0308 N   0  0  0  0  0  0  0  0  0  0  0  0
    6.8549    4.9467   22.8334 N   0  0  0  0  0  0  0  0  0  0  0  0
    7.8995    4.3959   23.4947 C   0  0  0  0  0  0  0  0  0  0  0  0
    8.8953    4.8091   23.4159 H   0  0  0  0  0  0  0  0  0  0  0  0
    6.8986    5.6801   22.1460 H   0  0  0  0  0  0  0  0  0  0  0  0
    5.2664    2.6044   24.1563 H   0  0  0  0  0  0  0  0  0  0  0  0
    8.9334    2.9309   25.6736 H   0  0  0  0  0  0  0  0  0  0  0  0
    7.5416    1.8648   25.7882 H   0  0  0  0  0  0  0  0  0  0  0  0
   10.1760    1.7046   23.8720 C   0  0  0  0  0  0  0  0  0  0  0  0
   10.7407    2.7457   24.1932 O   0  0  0  0  0  0  0  0  0  0  0  0
   10.7756    0.7377   22.9061 C   0  0  0  0  0  0  0  0  0  0  0  0
   12.1154    0.8996   22.5421 C   0  0  0  0  0  0  0  0  0  0  0  0
   12.7324   -0.0118   21.7021 C   0  0  0  0  0  0  0  0  0  0  0  0
   11.9363   -1.0408   21.2063 C   0  0  0  0  0  0  0  0  0  0  0  0
   12.4477   -1.9965   20.4107 F   0  0  0  0  0  0  0  0  0  0  0  0
   10.5872   -1.1380   21.4397 C   0  0  0  0  0  0  0  0  0  0  0  0
    9.9892   -0.2815   22.3519 C   0  0  0  0  0  0  0  0  0  0  0  0
   10.0361   -1.9053   20.9059 H   0  0  0  0  0  0  0  0  0  0  0  0
   13.7817    0.0658   21.4235 H   0  0  0  0  0  0  0  0  0  0  0  0
   12.6472    1.7611   22.9377 H   0  0  0  0  0  0  0  0  0  0  0  0
    8.7643   -0.6739   24.7496 H   0  0  0  0  0  0  0  0  0  0  0  0
    7.2581    0.1559   24.3464 H   0  0  0  0  0  0  0  0  0  0  0  0
    6.2857   -2.3615   21.0372 H   0  0  0  0  0  0  0  0  0  0  0  0
    7.8449   -2.1327   20.2304 H   0  0  0  0  0  0  0  0  0  0  0  0
    8.7863   -2.5399   22.3279 H   0  0  0  0  0  0  0  0  0  0  0  0
    7.6140   -2.5025   24.4476 H   0  0  0  0  0  0  0  0  0  0  0  0
    6.1708   -1.8100   23.6756 H   0  0  0  0  0  0  0  0  0  0  0  0
    6.7398   -3.4311   23.2363 H   0  0  0  0  0  0  0  0  0  0  0  0
  1  2  1  0
  2  3  1  0
  3  4  1  0
  4  5  1  0
  5  6  2  0
  6  7  1  0
  7  8  2  0
  8  9  1  0
  9 10  2  0
 10 11  1  0
 11 12  2  0
 12 13  1  0
 13 14  2  0
 13 15  1  0
 12 16  1  0
 11 17  1  0
 10 18  1  0
  8 19  1  0
  6 20  1  0
  4 21  1  0
 21 22  2  0
 21 23  1  0
 23 24  1  1
 24 25  1  0
 25 26  1  0
 26 27  1  0
 27 28  1  0
 28 29  2  0
 29 30  1  0
 30 31  1  0
 31 32  1  0
 30 33  1  0
 28 34  1  0
 26 35  1  0
 26 36  1  0
 25 37  1  0
 37 38  2  0
 37 39  1  0
 39 40  2  0
 40 41  1  0
 41 42  2  0
 42 43  1  0
 42 44  1  0
 44 45  2  0
 44 46  1  0
 41 47  1  0
 40 48  1  0
 24 49  1  0
 24 50  1  0
  3 51  1  0
  3 52  1  0
  2 53  1  6
  1 54  1  0
  1 55  1  0
  1 56  1  0
 23  2  1  0
 31 27  2  0
 45 39  1  0
 14  5  1  0
 45 23  1  0
 14  9  1  0
M  END
>  <cnnaffinities>  (90) 
[6.31553, 6.39581]

>  <score>  (90) 
6.31553

>  <index>  (90) 
91

>  <Smiles>  (90) 
C([C@]1(C(N(c2c(nc(c3c(c(c(c(c23)[H])[H])[H])[H])[H])[H])C(=O)[C@]21C(N(C(c1c(nn(c1[H])[H])[H])([H])[H])C(=O)c1c(c(c(F)c(c21)[H])[H])[H])([H])[H])([H])[H])[H])([H])([H])[H]

>  <h>  (90) 
<NA>

>  <Training>  (90) 
True

>  <Success>  (90) 
True

>  <enamine_searched>  (90) 
False

>  <enamine_id>  (90) 
nan

$$$$

     RDKit          3D

 47 50  0  0  0  0  0  0  0  0999 V2000
    8.2812    1.5914   20.8598 O   0  0  0  0  0  0  0  0  0  0  0  0
    7.8676    0.6561   21.5187 C   0  0  0  0  0  0  0  0  0  0  0  0
    6.9581   -0.4227   20.9163 C   0  0  0  0  0  0  0  0  0  0  0  0
    6.1142    0.0907   19.7791 C   0  0  0  0  0  0  0  0  0  0  0  0
    6.4331   -0.2064   18.4815 C   0  0  0  0  0  0  0  0  0  0  0  0
    5.7677    0.2408   17.3866 N   0  0  0  0  0  0  0  0  0  0  0  0
    4.7407    1.0250   17.5888 C   0  0  0  0  0  0  0  0  0  0  0  0
    4.2833    1.4132   18.8760 C   0  0  0  0  0  0  0  0  0  0  0  0
    3.1676    2.2684   19.0487 C   0  0  0  0  0  0  0  0  0  0  0  0
    2.7661    2.6355   20.3025 C   0  0  0  0  0  0  0  0  0  0  0  0
    3.4620    2.1664   21.4378 C   0  0  0  0  0  0  0  0  0  0  0  0
    4.5493    1.3402   21.2978 C   0  0  0  0  0  0  0  0  0  0  0  0
    4.9879    0.9373   20.0073 C   0  0  0  0  0  0  0  0  0  0  0  0
    5.0863    0.9953   22.1806 H   0  0  0  0  0  0  0  0  0  0  0  0
    3.1349    2.4651   22.4303 H   0  0  0  0  0  0  0  0  0  0  0  0
    1.9189    3.3021   20.4303 H   0  0  0  0  0  0  0  0  0  0  0  0
    2.6616    2.6341   18.1590 H   0  0  0  0  0  0  0  0  0  0  0  0
    4.2129    1.3874   16.7055 H   0  0  0  0  0  0  0  0  0  0  0  0
    7.2807   -0.8531   18.2524 H   0  0  0  0  0  0  0  0  0  0  0  0
    6.3437   -0.8559   21.7110 H   0  0  0  0  0  0  0  0  0  0  0  0
    7.6014   -1.2312   20.5426 H   0  0  0  0  0  0  0  0  0  0  0  0
    8.1889    0.5047   22.8612 N   0  0  0  0  0  0  0  0  0  0  0  0
    7.8501   -0.6384   23.6121 C   0  0  0  0  0  0  0  0  0  0  0  0
    6.8051   -0.6585   24.4578 C   0  0  0  0  0  0  0  0  0  0  0  0
    6.0476    0.5227   24.8854 C   0  0  0  0  0  0  0  0  0  0  0  0
    6.5911    1.6245   25.4399 C   0  0  0  0  0  0  0  0  0  0  0  0
    8.0122    1.7492   25.8102 C   0  0  0  0  0  0  0  0  0  0  0  0
    9.0354    1.6171   24.9652 C   0  0  0  0  0  0  0  0  0  0  0  0
    8.9714    1.6274   23.4449 C   0  0  1  0  0  0  0  0  0  0  0  0
   10.3807    1.6286   22.8741 C   0  0  0  0  0  0  0  0  0  0  0  0
   10.9299    2.7708   22.2942 C   0  0  0  0  0  0  0  0  0  0  0  0
   12.2602    2.7738   21.8761 C   0  0  0  0  0  0  0  0  0  0  0  0
   13.0457    1.6350   22.0654 C   0  0  0  0  0  0  0  0  0  0  0  0
   12.4648    0.4673   22.5517 C   0  0  0  0  0  0  0  0  0  0  0  0
   11.1402    0.4696   22.9803 C   0  0  0  0  0  0  0  0  0  0  0  0
   10.6838   -0.4074   23.4500 H   0  0  0  0  0  0  0  0  0  0  0  0
   13.0421   -0.4526   22.5633 H   0  0  0  0  0  0  0  0  0  0  0  0
   14.1128    1.6307   21.8208 H   0  0  0  0  0  0  0  0  0  0  0  0
   12.6617    3.6419   21.3555 H   0  0  0  0  0  0  0  0  0  0  0  0
   10.3108    3.6648   22.1876 H   0  0  0  0  0  0  0  0  0  0  0  0
    8.4586    2.5277   23.0925 H   0  0  0  0  0  0  0  0  0  0  0  0
   10.0505    1.5872   25.3625 H   0  0  0  0  0  0  0  0  0  0  0  0
    8.2067    1.9938   26.8592 H   0  0  0  0  0  0  0  0  0  0  0  0
    5.9539    2.4578   25.7262 H   0  0  0  0  0  0  0  0  0  0  0  0
    4.9567    0.4598   24.8320 H   0  0  0  0  0  0  0  0  0  0  0  0
    6.5176   -1.6053   24.9090 H   0  0  0  0  0  0  0  0  0  0  0  0
    8.4290   -1.5380   23.3785 H   0  0  0  0  0  0  0  0  0  0  0  0
  1  2  2  0
  2  3  1  0
  3  4  1  0
  4  5  2  0
  5  6  1  0
  6  7  2  0
  7  8  1  0
  8  9  2  0
  9 10  1  0
 10 11  2  0
 11 12  1  0
 12 13  2  0
 12 14  1  0
 11 15  1  0
 10 16  1  0
  9 17  1  0
  7 18  1  0
  5 19  1  0
  3 20  1  0
  3 21  1  0
  2 22  1  0
 22 23  1  0
 23 24  2  3
 24 25  1  0
 25 26  2  3
 26 27  1  0
 27 28  2  3
 28 29  1  0
 29 30  1  0
 30 31  2  0
 31 32  1  0
 32 33  2  0
 33 34  1  0
 34 35  2  0
 35 36  1  0
 34 37  1  0
 33 38  1  0
 32 39  1  0
 31 40  1  0
 29 41  1  1
 28 42  1  0
 27 43  1  0
 26 44  1  0
 25 45  1  0
 24 46  1  0
 23 47  1  0
 13  4  1  0
 29 22  1  0
 35 30  1  0
 13  8  1  0
M  END
>  <cnnaffinities>  (91) 
[5.68234, 5.68346]

>  <score>  (91) 
5.68234

>  <index>  (91) 
92

>  <Smiles>  (91) 
O=C(C(c1c(nc(c2c(c(c(c(c12)[H])[H])[H])[H])[H])[H])([H])[H])N1C(=C(C(=C(C(=C([C@]1(c1c(c(c(c(c1[H])[H])[H])[H])[H])[H])[H])[H])[H])[H])[H])[H]

>  <h>  (91) 
<NA>

>  <Training>  (91) 
True

>  <Success>  (91) 
True

>  <enamine_searched>  (91) 
False

>  <enamine_id>  (91) 
nan

$$$$

     RDKit          3D

 58 62  0  0  0  0  0  0  0  0999 V2000
    6.5896    4.5895   21.4518 C   0  0  0  0  0  0  0  0  0  0  0  0
    6.8120    3.6018   22.5121 N   0  0  0  0  0  4  0  0  0  0  0  0
    7.9612    3.9369   23.4059 C   0  0  0  0  0  0  0  0  0  0  0  0
    8.2118    2.8330   24.4320 C   0  0  0  0  0  0  0  0  0  0  0  0
    8.8659    1.6572   23.8750 N   0  0  0  0  0  0  0  0  0  0  0  0
    8.1475    0.3982   23.8055 C   0  0  0  0  0  0  0  0  0  0  0  0
    8.5464   -0.4294   22.5650 C   0  0  2  0  0  0  0  0  0  0  0  0
    8.0383    0.2616   21.2739 C   0  0  0  0  0  0  0  0  0  0  0  0
    8.4868    1.2632   20.7530 O   0  0  0  0  0  0  0  0  0  0  0  0
    6.9327   -0.4191   20.8207 N   0  0  0  0  0  0  0  0  0  0  0  0
    6.1413    0.1069   19.7616 C   0  0  0  0  0  0  0  0  0  0  0  0
    6.4568   -0.2089   18.4673 C   0  0  0  0  0  0  0  0  0  0  0  0
    5.7655    0.2269   17.3891 N   0  0  0  0  0  0  0  0  0  0  0  0
    4.7445    1.0170   17.6008 C   0  0  0  0  0  0  0  0  0  0  0  0
    4.2996    1.4232   18.8907 C   0  0  0  0  0  0  0  0  0  0  0  0
    3.1795    2.2802   19.0694 C   0  0  0  0  0  0  0  0  0  0  0  0
    2.7811    2.6571   20.3224 C   0  0  0  0  0  0  0  0  0  0  0  0
    3.4800    2.1850   21.4538 C   0  0  0  0  0  0  0  0  0  0  0  0
    4.5652    1.3525   21.3091 C   0  0  0  0  0  0  0  0  0  0  0  0
    5.0156    0.9520   20.0189 C   0  0  0  0  0  0  0  0  0  0  0  0
    5.0748    0.9806   22.1939 H   0  0  0  0  0  0  0  0  0  0  0  0
    3.1611    2.4850   22.4496 H   0  0  0  0  0  0  0  0  0  0  0  0
    1.9320    3.3251   20.4472 H   0  0  0  0  0  0  0  0  0  0  0  0
    2.6693    2.6430   18.1808 H   0  0  0  0  0  0  0  0  0  0  0  0
    4.2167    1.3799   16.7184 H   0  0  0  0  0  0  0  0  0  0  0  0
    7.3021   -0.8604   18.2554 H   0  0  0  0  0  0  0  0  0  0  0  0
    6.5498   -1.5525   21.6405 C   0  0  0  0  0  0  0  0  0  0  0  0
    7.7899   -1.7990   22.5278 C   0  0  2  0  0  0  0  0  0  0  0  0
    7.4253   -2.4329   23.8783 C   0  0  0  0  0  0  0  0  0  0  0  0
    6.9646   -3.4196   23.7401 H   0  0  0  0  0  0  0  0  0  0  0  0
    8.3021   -2.5627   24.5253 H   0  0  0  0  0  0  0  0  0  0  0  0
    6.7014   -1.8116   24.4231 H   0  0  0  0  0  0  0  0  0  0  0  0
    8.4408   -2.4935   21.9902 H   0  0  0  0  0  0  0  0  0  0  0  0
    6.3016   -2.4130   21.0076 H   0  0  0  0  0  0  0  0  0  0  0  0
    5.6597   -1.3305   22.2515 H   0  0  0  0  0  0  0  0  0  0  0  0
   10.0574   -0.5030   22.5341 C   0  0  0  0  0  0  0  0  0  0  0  0
   10.6912   -1.4956   21.7914 C   0  0  0  0  0  0  0  0  0  0  0  0
   12.0614   -1.5119   21.7191 C   0  0  0  0  0  0  0  0  0  0  0  0
   12.6060   -2.4703   20.9660 F   0  0  0  0  0  0  0  0  0  0  0  0
   12.8700   -0.5804   22.3586 C   0  0  0  0  0  0  0  0  0  0  0  0
   12.2483    0.4469   23.0410 C   0  0  0  0  0  0  0  0  0  0  0  0
   10.8545    0.5048   23.1039 C   0  0  0  0  0  0  0  0  0  0  0  0
   10.2240    1.7091   23.7318 C   0  0  0  0  0  0  0  0  0  0  0  0
   10.8820    2.6825   24.0802 O   0  0  0  0  0  0  0  0  0  0  0  0
   12.8106    1.2468   23.5153 H   0  0  0  0  0  0  0  0  0  0  0  0
   13.9454   -0.6633   22.2724 H   0  0  0  0  0  0  0  0  0  0  0  0
   10.1756   -2.2551   21.2162 H   0  0  0  0  0  0  0  0  0  0  0  0
    8.3389   -0.2118   24.7030 H   0  0  0  0  0  0  0  0  0  0  0  0
    7.0780    0.6243   23.7433 H   0  0  0  0  0  0  0  0  0  0  0  0
    7.2602    2.5072   24.8662 H   0  0  0  0  0  0  0  0  0  0  0  0
    8.8557    3.2175   25.2258 H   0  0  0  0  0  0  0  0  0  0  0  0
    8.8559    4.0782   22.7907 H   0  0  0  0  0  0  0  0  0  0  0  0
    7.7568    4.8799   23.9233 H   0  0  0  0  0  0  0  0  0  0  0  0
    5.9367    3.5100   23.0818 H   0  0  0  0  0  0  0  0  0  0  0  0
    7.0233    2.6826   22.0627 H   0  0  0  0  0  0  0  0  0  0  0  0
    5.7263    4.2893   20.8571 H   0  0  0  0  0  0  0  0  0  0  0  0
    7.4730    4.6460   20.8129 H   0  0  0  0  0  0  0  0  0  0  0  0
    6.4242    5.5907   21.8651 H   0  0  0  0  0  0  0  0  0  0  0  0
  1  2  1  0
  2  3  1  0
  3  4  1  0
  4  5  1  0
  5  6  1  0
  7  6  1  1
  7  8  1  0
  8  9  2  0
  8 10  1  0
 10 11  1  0
 11 12  2  0
 12 13  1  0
 13 14  2  0
 14 15  1  0
 15 16  2  0
 16 17  1  0
 17 18  2  0
 18 19  1  0
 19 20  2  0
 19 21  1  0
 18 22  1  0
 17 23  1  0
 16 24  1  0
 14 25  1  0
 12 26  1  0
 10 27  1  0
 27 28  1  0
 28 29  1  0
 29 30  1  0
 29 31  1  0
 29 32  1  0
 28 33  1  6
 27 34  1  0
 27 35  1  0
  7 36  1  0
 36 37  2  0
 37 38  1  0
 38 39  1  0
 38 40  2  0
 40 41  1  0
 41 42  2  0
 42 43  1  0
 43 44  2  0
 41 45  1  0
 40 46  1  0
 37 47  1  0
  6 48  1  0
  6 49  1  0
  4 50  1  0
  4 51  1  0
  3 52  1  0
  3 53  1  0
  2 54  1  0
  2 55  1  0
  1 56  1  0
  1 57  1  0
  1 58  1  0
 43  5  1  0
 28  7  1  0
 42 36  1  0
 20 11  1  0
 20 15  1  0
M  CHG  1   2   1
M  END
>  <cnnaffinities>  (92) 
[5.98159]

>  <score>  (92) 
5.98159

>  <index>  (92) 
93

>  <Smiles>  (92) 
C([N+](C(C(N1C([C@@]2(C(=O)N(c3c(nc(c4c(c(c(c(c34)[H])[H])[H])[H])[H])[H])C([C@@]2(C([H])([H])[H])[H])([H])[H])c2c(c(F)c(c(c2C1=O)[H])[H])[H])([H])[H])([H])[H])([H])[H])([H])[H])([H])([H])[H]

>  <h>  (92) 
<NA>

>  <Training>  (92) 
True

>  <Success>  (92) 
True

>  <enamine_searched>  (92) 
False

>  <enamine_id>  (92) 
nan

$$$$

     RDKit          3D

 65 69  0  0  0  0  0  0  0  0999 V2000
    1.5638   -8.5915   24.6179 C   0  0  0  0  0  0  0  0  0  0  0  0
    2.7574   -8.2137   23.7362 C   0  0  0  0  0  0  0  0  0  0  0  0
    2.7295   -6.7406   23.4012 C   0  0  0  0  0  0  0  0  0  0  0  0
    1.9689   -6.2137   22.6314 O   0  0  0  0  0  0  0  0  0  0  0  0
    3.7485   -5.9203   24.1160 N   0  0  2  0  0  4  0  0  0  0  0  0
    3.1396   -4.8286   25.0109 C   0  0  0  0  0  0  0  0  0  0  0  0
    4.2245   -3.8459   25.3767 C   0  0  0  0  0  0  0  0  0  0  0  0
    4.7562   -3.2149   24.0959 C   0  0  0  0  0  0  0  0  0  0  0  0
    5.4470   -4.2481   23.2453 C   0  0  0  0  0  0  0  0  0  0  0  0
    6.6159   -3.9989   22.5157 C   0  0  0  0  0  0  0  0  0  0  0  0
    7.0579   -2.6614   22.3326 N   0  0  0  0  0  0  0  0  0  0  0  0
    8.4424   -2.3660   22.7328 C   0  0  0  0  0  0  0  0  0  0  0  0
    8.7671   -3.0570   24.0404 C   0  0  0  0  0  0  0  0  0  0  0  0
    9.5988   -4.1758   24.0993 C   0  0  0  0  0  0  0  0  0  0  0  0
    9.7406   -4.8948   25.2838 C   0  0  0  0  0  0  0  0  0  0  0  0
    9.0235   -4.5308   26.4194 C   0  0  0  0  0  0  0  0  0  0  0  0
    8.1992   -3.4156   26.3498 C   0  0  0  0  0  0  0  0  0  0  0  0
    7.2325   -2.9757   27.7394 Cl  0  0  0  0  0  0  0  0  0  0  0  0
    8.0983   -2.6531   25.1932 C   0  0  0  0  0  0  0  0  0  0  0  0
    7.4847   -1.7560   25.2029 H   0  0  0  0  0  0  0  0  0  0  0  0
    9.0786   -5.1106   27.3379 H   0  0  0  0  0  0  0  0  0  0  0  0
   10.3812   -5.7738   25.3153 H   0  0  0  0  0  0  0  0  0  0  0  0
   10.0730   -4.5357   23.1872 H   0  0  0  0  0  0  0  0  0  0  0  0
    8.5399   -1.2823   22.8580 H   0  0  0  0  0  0  0  0  0  0  0  0
    9.1602   -2.6809   21.9597 H   0  0  0  0  0  0  0  0  0  0  0  0
    6.2746   -1.9224   21.4551 C   0  0  0  0  0  0  0  0  0  0  0  0
    5.1744   -2.3137   21.1138 O   0  0  0  0  0  0  0  0  0  0  0  0
    6.8778   -0.6173   20.9308 C   0  0  0  0  0  0  0  0  0  0  0  0
    6.0947   -0.0015   19.8062 C   0  0  0  0  0  0  0  0  0  0  0  0
    6.4434   -0.2650   18.5086 C   0  0  0  0  0  0  0  0  0  0  0  0
    5.8088    0.2135   17.4097 N   0  0  0  0  0  0  0  0  0  0  0  0
    4.7787    0.9969   17.6092 C   0  0  0  0  0  0  0  0  0  0  0  0
    4.2948    1.3579   18.8963 C   0  0  0  0  0  0  0  0  0  0  0  0
    3.1819    2.2190   19.0648 C   0  0  0  0  0  0  0  0  0  0  0  0
    2.7614    2.5737   20.3188 C   0  0  0  0  0  0  0  0  0  0  0  0
    3.4337    2.0738   21.4572 C   0  0  0  0  0  0  0  0  0  0  0  0
    4.5057    1.2272   21.3191 C   0  0  0  0  0  0  0  0  0  0  0  0
    4.9707    0.8498   20.0311 C   0  0  0  0  0  0  0  0  0  0  0  0
    5.0079    0.8356   22.1989 H   0  0  0  0  0  0  0  0  0  0  0  0
    3.0999    2.3684   22.4489 H   0  0  0  0  0  0  0  0  0  0  0  0
    1.9193    3.2483   20.4422 H   0  0  0  0  0  0  0  0  0  0  0  0
    2.6930    2.6068   18.1746 H   0  0  0  0  0  0  0  0  0  0  0  0
    4.2779    1.3847   16.7221 H   0  0  0  0  0  0  0  0  0  0  0  0
    7.3024   -0.9004   18.2904 H   0  0  0  0  0  0  0  0  0  0  0  0
    6.9863    0.0821   21.7687 H   0  0  0  0  0  0  0  0  0  0  0  0
    7.8892   -0.8460   20.5705 H   0  0  0  0  0  0  0  0  0  0  0  0
    7.3500   -5.0302   21.9440 C   0  0  0  0  0  0  0  0  0  0  0  0
    6.8425   -6.3213   21.9609 C   0  0  0  0  0  0  0  0  0  0  0  0
    5.6110   -6.5616   22.5619 C   0  0  0  0  0  0  0  0  0  0  0  0
    4.9599   -5.5423   23.2505 C   0  0  0  0  0  0  0  0  0  0  0  0
    5.1922   -7.5596   22.5368 H   0  0  0  0  0  0  0  0  0  0  0  0
    7.4333   -7.1262   21.5383 H   0  0  0  0  0  0  0  0  0  0  0  0
    8.3028   -4.8068   21.4677 H   0  0  0  0  0  0  0  0  0  0  0  0
    5.4214   -2.3832   24.3253 H   0  0  0  0  0  0  0  0  0  0  0  0
    3.9285   -2.7930   23.5172 H   0  0  0  0  0  0  0  0  0  0  0  0
    5.0294   -4.3517   25.9324 H   0  0  0  0  0  0  0  0  0  0  0  0
    3.8109   -3.0893   26.0552 H   0  0  0  0  0  0  0  0  0  0  0  0
    2.3369   -4.3453   24.4459 H   0  0  0  0  0  0  0  0  0  0  0  0
    2.7088   -5.3065   25.9002 H   0  0  0  0  0  0  0  0  0  0  0  0
    4.1664   -6.5900   24.7982 H   0  0  0  0  0  0  0  0  0  0  0  0
    3.6785   -8.4233   24.2920 H   0  0  0  0  0  0  0  0  0  0  0  0
    2.7889   -8.7969   22.8108 H   0  0  0  0  0  0  0  0  0  0  0  0
    0.6093   -8.5206   24.0978 H   0  0  0  0  0  0  0  0  0  0  0  0
    1.5194   -7.9204   25.4810 H   0  0  0  0  0  0  0  0  0  0  0  0
    1.6512   -9.6167   24.9830 H   0  0  0  0  0  0  0  0  0  0  0  0
  1  2  1  0
  2  3  1  0
  3  4  2  0
  3  5  1  0
  5  6  1  0
  6  7  1  0
  7  8  1  0
  8  9  1  0
  9 10  2  0
 10 11  1  0
 11 12  1  0
 12 13  1  0
 13 14  2  0
 14 15  1  0
 15 16  2  0
 16 17  1  0
 17 18  1  0
 17 19  2  0
 19 20  1  0
 16 21  1  0
 15 22  1  0
 14 23  1  0
 12 24  1  0
 12 25  1  0
 11 26  1  0
 26 27  2  0
 26 28  1  0
 28 29  1  0
 29 30  2  0
 30 31  1  0
 31 32  2  0
 32 33  1  0
 33 34  2  0
 34 35  1  0
 35 36  2  0
 36 37  1  0
 37 38  2  0
 37 39  1  0
 36 40  1  0
 35 41  1  0
 34 42  1  0
 32 43  1  0
 30 44  1  0
 28 45  1  0
 28 46  1  0
 10 47  1  0
 47 48  2  0
 48 49  1  0
 49 50  2  0
 49 51  1  0
 48 52  1  0
 47 53  1  0
  8 54  1  0
  8 55  1  0
  7 56  1  0
  7 57  1  0
  6 58  1  0
  6 59  1  0
  5 60  1  1
  2 61  1  0
  2 62  1  0
  1 63  1  0
  1 64  1  0
  1 65  1  0
 50  5  1  0
 50  9  1  0
 19 13  1  0
 38 29  1  0
 38 33  1  0
M  CHG  1   5   1
M  END
>  <cnnaffinities>  (93) 
[6.0334]

>  <score>  (93) 
6.0334

>  <index>  (93) 
94

>  <Smiles>  (93) 
C(C(C(=O)[N@@+]1(C(C(C(c2c(N(C(c3c(c(c(c(Cl)c3[H])[H])[H])[H])([H])[H])C(=O)C(c3c(nc(c4c(c(c(c(c34)[H])[H])[H])[H])[H])[H])([H])[H])c(c(c(c12)[H])[H])[H])([H])[H])([H])[H])([H])[H])[H])([H])[H])([H])([H])[H]

>  <h>  (93) 
<NA>

>  <Training>  (93) 
True

>  <Success>  (93) 
True

>  <enamine_searched>  (93) 
False

>  <enamine_id>  (93) 
nan

$$$$

     RDKit          3D

 67 71  0  0  0  0  0  0  0  0999 V2000
    7.6154   -8.4382   22.9497 C   0  0  0  0  0  0  0  0  0  0  0  0
    6.6568   -7.3639   22.7248 N   0  0  0  0  0  0  0  0  0  0  0  0
    6.8307   -6.5250   21.6633 C   0  0  0  0  0  0  0  0  0  0  0  0
    7.6811   -6.7210   20.8081 O   0  0  0  0  0  0  0  0  0  0  0  0
    5.9153   -5.2939   21.6091 C   0  0  0  0  0  0  0  0  0  0  0  0
    6.3331   -4.2440   22.5323 N   0  0  0  0  0  0  0  0  0  0  0  0
    7.5669   -3.4620   22.3849 C   0  0  0  0  0  0  0  0  0  0  0  0
    7.2813   -1.9479   22.6373 C   0  0  2  0  0  0  0  0  0  0  0  0
    6.2374   -1.4832   21.5853 C   0  0  0  0  0  0  0  0  0  0  0  0
    5.1191   -1.9198   21.4142 O   0  0  0  0  0  0  0  0  0  0  0  0
    6.8001   -0.4791   20.8197 N   0  0  0  0  0  0  0  0  0  0  0  0
    6.0932    0.0905   19.7456 C   0  0  0  0  0  0  0  0  0  0  0  0
    6.4533   -0.1809   18.4506 C   0  0  0  0  0  0  0  0  0  0  0  0
    5.7872    0.2726   17.3654 N   0  0  0  0  0  0  0  0  0  0  0  0
    4.7429    1.0364   17.5749 C   0  0  0  0  0  0  0  0  0  0  0  0
    4.2829    1.4180   18.8675 C   0  0  0  0  0  0  0  0  0  0  0  0
    3.1565    2.2630   19.0374 C   0  0  0  0  0  0  0  0  0  0  0  0
    2.7626    2.6450   20.2901 C   0  0  0  0  0  0  0  0  0  0  0  0
    3.4681    2.1981   21.4290 C   0  0  0  0  0  0  0  0  0  0  0  0
    4.5553    1.3714   21.2926 C   0  0  0  0  0  0  0  0  0  0  0  0
    4.9792    0.9489   19.9991 C   0  0  0  0  0  0  0  0  0  0  0  0
    5.0979    1.0272   22.1679 H   0  0  0  0  0  0  0  0  0  0  0  0
    3.1466    2.5149   22.4167 H   0  0  0  0  0  0  0  0  0  0  0  0
    1.9111    3.3065   20.4151 H   0  0  0  0  0  0  0  0  0  0  0  0
    2.6391    2.6164   18.1496 H   0  0  0  0  0  0  0  0  0  0  0  0
    4.2044    1.3947   16.6978 H   0  0  0  0  0  0  0  0  0  0  0  0
    7.3085   -0.8235   18.2460 H   0  0  0  0  0  0  0  0  0  0  0  0
    8.2375   -0.4426   20.9296 C   0  0  0  0  0  0  0  0  0  0  0  0
    8.4738   -0.9665   22.3494 C   0  0  2  0  0  0  0  0  0  0  0  0
    9.9287   -1.4184   22.4775 C   0  0  0  0  0  0  0  0  0  0  0  0
   10.4797   -1.5179   24.1749 S   0  0  0  0  0  0  0  0  0  0  0  0
   10.4003   -0.1835   24.7533 O   0  0  0  0  0  0  0  0  0  0  0  0
    9.8183   -2.6671   24.7729 O   0  0  0  0  0  0  0  0  0  0  0  0
   12.0972   -1.9039   24.0729 N   0  0  0  0  0  0  0  0  0  0  0  0
   13.0357   -0.8681   23.6581 C   0  0  0  0  0  0  0  0  0  0  0  0
   14.0462   -1.1795   23.9413 H   0  0  0  0  0  0  0  0  0  0  0  0
   12.8062    0.0573   24.1824 H   0  0  0  0  0  0  0  0  0  0  0  0
   13.0320   -0.6917   22.5718 H   0  0  0  0  0  0  0  0  0  0  0  0
   12.3754   -3.2137   23.5115 C   0  0  0  0  0  0  0  0  0  0  0  0
   11.6795   -3.9477   23.9257 H   0  0  0  0  0  0  0  0  0  0  0  0
   12.3036   -3.2219   22.4157 H   0  0  0  0  0  0  0  0  0  0  0  0
   13.3977   -3.4822   23.7849 H   0  0  0  0  0  0  0  0  0  0  0  0
   10.0874   -2.3919   22.0015 H   0  0  0  0  0  0  0  0  0  0  0  0
   10.5786   -0.6842   21.9876 H   0  0  0  0  0  0  0  0  0  0  0  0
    8.3344   -0.1112   23.0134 H   0  0  0  0  0  0  0  0  0  0  0  0
    8.6062    0.5784   20.8035 H   0  0  0  0  0  0  0  0  0  0  0  0
    8.7246   -1.0763   20.1719 H   0  0  0  0  0  0  0  0  0  0  0  0
    6.7215   -1.8912   24.0650 C   0  0  0  0  0  0  0  0  0  0  0  0
    6.9142   -0.8166   24.9452 C   0  0  0  0  0  0  0  0  0  0  0  0
    6.5352   -0.9421   26.2686 C   0  0  0  0  0  0  0  0  0  0  0  0
    6.7593    0.0967   27.0915 F   0  0  0  0  0  0  0  0  0  0  0  0
    5.9529   -2.0868   26.7942 C   0  0  0  0  0  0  0  0  0  0  0  0
    5.6551   -3.1052   25.9122 C   0  0  0  0  0  0  0  0  0  0  0  0
    6.0036   -2.9978   24.5692 C   0  0  0  0  0  0  0  0  0  0  0  0
    5.6288   -4.1490   23.6921 C   0  0  0  0  0  0  0  0  0  0  0  0
    4.7646   -4.9646   24.0008 O   0  0  0  0  0  0  0  0  0  0  0  0
    5.1765   -4.0167   26.2559 H   0  0  0  0  0  0  0  0  0  0  0  0
    5.7705   -2.1511   27.8598 H   0  0  0  0  0  0  0  0  0  0  0  0
    7.3846    0.1160   24.6528 H   0  0  0  0  0  0  0  0  0  0  0  0
    8.3091   -3.7753   23.1361 H   0  0  0  0  0  0  0  0  0  0  0  0
    7.9876   -3.6375   21.3987 H   0  0  0  0  0  0  0  0  0  0  0  0
    5.8761   -4.9243   20.5830 H   0  0  0  0  0  0  0  0  0  0  0  0
    4.8938   -5.5660   21.8906 H   0  0  0  0  0  0  0  0  0  0  0  0
    5.9482   -7.1747   23.4231 H   0  0  0  0  0  0  0  0  0  0  0  0
    8.5989   -8.0480   23.2348 H   0  0  0  0  0  0  0  0  0  0  0  0
    7.7345   -9.0634   22.0665 H   0  0  0  0  0  0  0  0  0  0  0  0
    7.2856   -9.1091   23.7388 H   0  0  0  0  0  0  0  0  0  0  0  0
  1  2  1  0
  2  3  1  0
  3  4  2  0
  3  5  1  0
  5  6  1  0
  6  7  1  0
  8  7  1  6
  8  9  1  0
  9 10  2  0
  9 11  1  0
 11 12  1  0
 12 13  2  0
 13 14  1  0
 14 15  2  0
 15 16  1  0
 16 17  2  0
 17 18  1  0
 18 19  2  0
 19 20  1  0
 20 21  2  0
 20 22  1  0
 19 23  1  0
 18 24  1  0
 17 25  1  0
 15 26  1  0
 13 27  1  0
 11 28  1  0
 28 29  1  0
 29 30  1  0
 30 31  1  0
 31 32  2  0
 31 33  2  0
 31 34  1  0
 34 35  1  0
 35 36  1  0
 35 37  1  0
 35 38  1  0
 34 39  1  0
 39 40  1  0
 39 41  1  0
 39 42  1  0
 30 43  1  0
 30 44  1  0
 29 45  1  1
 28 46  1  0
 28 47  1  0
  8 48  1  0
 48 49  2  0
 49 50  1  0
 50 51  1  0
 50 52  2  0
 52 53  1  0
 53 54  2  0
 54 55  1  0
 55 56  2  0
 53 57  1  0
 52 58  1  0
 49 59  1  0
  7 60  1  0
  7 61  1  0
  5 62  1  0
  5 63  1  0
  2 64  1  0
  1 65  1  0
  1 66  1  0
  1 67  1  0
 55  6  1  0
 29  8  1  0
 54 48  1  0
 21 12  1  0
 21 16  1  0
M  END
>  <cnnaffinities>  (94) 
[7.07241]

>  <score>  (94) 
7.07241

>  <index>  (94) 
95

>  <Smiles>  (94) 
C(N(C(=O)C(N1C([C@@]2(C(=O)N(c3c(nc(c4c(c(c(c(c34)[H])[H])[H])[H])[H])[H])C([C@@]2(C(S(=O)(=O)N(C([H])([H])[H])C([H])([H])[H])([H])[H])[H])([H])[H])c2c(c(F)c(c(c2C1=O)[H])[H])[H])([H])[H])([H])[H])[H])([H])([H])[H]

>  <h>  (94) 
<NA>

>  <Training>  (94) 
True

>  <Success>  (94) 
True

>  <enamine_searched>  (94) 
False

>  <enamine_id>  (94) 
nan

$$$$

     RDKit          3D

 37 39  0  0  0  0  0  0  0  0999 V2000
    8.7128    1.1919   20.6759 O   0  0  0  0  0  0  0  0  0  0  0  0
    7.9031    0.6586   21.4165 C   0  0  0  0  0  0  0  0  0  0  0  0
    6.9421   -0.4229   20.9106 C   0  0  0  0  0  0  0  0  0  0  0  0
    6.0990    0.0874   19.7721 C   0  0  0  0  0  0  0  0  0  0  0  0
    6.4240   -0.2072   18.4739 C   0  0  0  0  0  0  0  0  0  0  0  0
    5.7610    0.2426   17.3803 N   0  0  0  0  0  0  0  0  0  0  0  0
    4.7342    1.0286   17.5822 C   0  0  0  0  0  0  0  0  0  0  0  0
    4.2784    1.4174   18.8707 C   0  0  0  0  0  0  0  0  0  0  0  0
    3.1625    2.2733   19.0447 C   0  0  0  0  0  0  0  0  0  0  0  0
    2.7608    2.6425   20.3000 C   0  0  0  0  0  0  0  0  0  0  0  0
    3.4572    2.1702   21.4329 C   0  0  0  0  0  0  0  0  0  0  0  0
    4.5414    1.3400   21.2905 C   0  0  0  0  0  0  0  0  0  0  0  0
    4.9804    0.9415   19.9996 C   0  0  0  0  0  0  0  0  0  0  0  0
    5.0718    0.9883   22.1690 H   0  0  0  0  0  0  0  0  0  0  0  0
    3.1310    2.4660   22.4260 H   0  0  0  0  0  0  0  0  0  0  0  0
    1.9123    3.3081   20.4280 H   0  0  0  0  0  0  0  0  0  0  0  0
    2.6553    2.6411   18.1578 H   0  0  0  0  0  0  0  0  0  0  0  0
    4.2072    1.3927   16.6995 H   0  0  0  0  0  0  0  0  0  0  0  0
    7.2703   -0.8568   18.2475 H   0  0  0  0  0  0  0  0  0  0  0  0
    7.5644   -1.2446   20.5382 H   0  0  0  0  0  0  0  0  0  0  0  0
    6.3299   -0.8368   21.7234 H   0  0  0  0  0  0  0  0  0  0  0  0
    7.7925    0.9991   22.7335 N   0  0  0  0  0  0  0  0  0  0  0  0
    8.7165    1.9767   23.3019 C   0  0  0  0  0  0  0  0  0  0  0  0
   10.1465    1.4620   23.4550 C   0  0  0  0  0  0  0  0  0  0  0  0
   10.4083    0.5000   24.4272 C   0  0  0  0  0  0  0  0  0  0  0  0
   11.6903   -0.0153   24.5307 C   0  0  0  0  0  0  0  0  0  0  0  0
   12.7220    0.4453   23.7349 C   0  0  0  0  0  0  0  0  0  0  0  0
   12.4844    1.4858   22.8570 C   0  0  0  0  0  0  0  0  0  0  0  0
   13.9048    2.2574   22.2228 Cl  0  0  0  0  0  0  0  0  0  0  0  0
   11.1866    1.9494   22.6495 C   0  0  0  0  0  0  0  0  0  0  0  0
   10.9553    2.6586   21.8601 H   0  0  0  0  0  0  0  0  0  0  0  0
   13.7223    0.0394   23.8004 H   0  0  0  0  0  0  0  0  0  0  0  0
   11.8810   -0.7515   25.2826 H   0  0  0  0  0  0  0  0  0  0  0  0
    9.6203    0.1573   25.1024 H   0  0  0  0  0  0  0  0  0  0  0  0
    8.2967    2.2535   24.2777 H   0  0  0  0  0  0  0  0  0  0  0  0
    8.7131    2.8694   22.6666 H   0  0  0  0  0  0  0  0  0  0  0  0
    7.1768    0.4778   23.3405 H   0  0  0  0  0  0  0  0  0  0  0  0
  1  2  2  0
  2  3  1  0
  3  4  1  0
  4  5  2  0
  5  6  1  0
  6  7  2  0
  7  8  1  0
  8  9  2  0
  9 10  1  0
 10 11  2  0
 11 12  1  0
 12 13  2  0
 12 14  1  0
 11 15  1  0
 10 16  1  0
  9 17  1  0
  7 18  1  0
  5 19  1  0
  3 20  1  0
  3 21  1  0
  2 22  1  0
 22 23  1  0
 23 24  1  0
 24 25  2  0
 25 26  1  0
 26 27  2  0
 27 28  1  0
 28 29  1  0
 28 30  2  0
 30 31  1  0
 27 32  1  0
 26 33  1  0
 25 34  1  0
 23 35  1  0
 23 36  1  0
 22 37  1  0
 13  4  1  0
 30 24  1  0
 13  8  1  0
M  END
>  <cnnaffinities>  (95) 
[4.76677]

>  <score>  (95) 
4.76677

>  <index>  (95) 
96

>  <Smiles>  (95) 
O=C(C(c1c(nc(c2c(c(c(c(c12)[H])[H])[H])[H])[H])[H])([H])[H])N(C(c1c(c(c(c(Cl)c1[H])[H])[H])[H])([H])[H])[H]

>  <h>  (95) 
<NA>

>  <Training>  (95) 
True

>  <Success>  (95) 
True

>  <enamine_searched>  (95) 
False

>  <enamine_id>  (95) 
nan

$$$$
