
     RDKit          3D

 63 69  0  0  0  0  0  0  0  0999 V2000
    4.8117   -3.5940   25.5255 O   0  0  0  0  0  0  0  0  0  0  0  0
    5.6765   -3.0432   24.8547 C   0  0  0  0  0  0  0  0  0  0  0  0
    6.0617   -1.6189   25.0698 C   0  0  0  0  0  0  0  0  0  0  0  0
    5.5810   -0.9915   26.2155 C   0  0  0  0  0  0  0  0  0  0  0  0
    5.7973    0.3537   26.4259 C   0  0  0  0  0  0  0  0  0  0  0  0
    6.4927    1.0668   25.4507 C   0  0  0  0  0  0  0  0  0  0  0  0
    6.7557    2.7730   25.6828 Cl  0  0  0  0  0  0  0  0  0  0  0  0
    6.9928    0.4512   24.3147 C   0  0  0  0  0  0  0  0  0  0  0  0
    6.8125   -0.9266   24.1183 C   0  0  0  0  0  0  0  0  0  0  0  0
    7.3505   -1.6480   22.8831 C   0  0  1  0  0  0  0  0  0  0  0  0
    7.5147   -3.1467   23.2077 C   0  0  0  0  0  0  0  0  0  0  0  0
    6.3083   -3.6738   23.8217 N   0  0  0  0  0  0  0  0  0  0  0  0
    5.7340   -4.9109   23.3481 C   0  0  0  0  0  0  0  0  0  0  0  0
    6.3843   -6.1143   23.9477 C   0  0  0  0  0  0  0  0  0  0  0  0
    5.8797   -7.0046   24.7332 N   0  0  0  0  0  0  0  0  0  0  0  0
    6.8814   -7.9466   24.9515 N   0  0  0  0  0  0  0  0  0  0  0  0
    7.8992   -7.5376   24.2832 C   0  0  0  0  0  0  0  0  0  0  0  0
    7.6775   -6.3760   23.6238 O   0  0  0  0  0  0  0  0  0  0  0  0
    8.8531   -8.0273   24.1462 H   0  0  0  0  0  0  0  0  0  0  0  0
    4.6775   -4.9222   23.6246 H   0  0  0  0  0  0  0  0  0  0  0  0
    5.8076   -4.9419   22.2541 H   0  0  0  0  0  0  0  0  0  0  0  0
    7.6877   -3.7018   22.2848 H   0  0  0  0  0  0  0  0  0  0  0  0
    8.3826   -3.2942   23.8651 H   0  0  0  0  0  0  0  0  0  0  0  0
    6.3414   -1.5284   21.7302 C   0  0  0  0  0  0  0  0  0  0  0  0
    5.3342   -2.1853   21.5610 O   0  0  0  0  0  0  0  0  0  0  0  0
    6.7764   -0.5276   20.8997 N   0  0  0  0  0  0  0  0  0  0  0  0
    5.9724   -0.0403   19.8552 C   0  0  0  0  0  0  0  0  0  0  0  0
    6.4112   -0.1521   18.5612 C   0  0  0  0  0  0  0  0  0  0  0  0
    5.7582    0.3342   17.4820 N   0  0  0  0  0  0  0  0  0  0  0  0
    4.6268    0.9548   17.7124 C   0  0  0  0  0  0  0  0  0  0  0  0
    4.0521    1.1188   19.0027 C   0  0  0  0  0  0  0  0  0  0  0  0
    2.8252    1.8128   19.1641 C   0  0  0  0  0  0  0  0  0  0  0  0
    2.2477    1.9280   20.3967 C   0  0  0  0  0  0  0  0  0  0  0  0
    2.8906    1.3813   21.5320 C   0  0  0  0  0  0  0  0  0  0  0  0
    4.0948    0.7318   21.4085 C   0  0  0  0  0  0  0  0  0  0  0  0
    4.7185    0.5950   20.1280 C   0  0  0  0  0  0  0  0  0  0  0  0
    4.5724    0.3144   22.2913 H   0  0  0  0  0  0  0  0  0  0  0  0
    2.4176    1.4724   22.5021 H   0  0  0  0  0  0  0  0  0  0  0  0
    1.3113    2.4698   20.5125 H   0  0  0  0  0  0  0  0  0  0  0  0
    2.3486    2.2051   18.2709 H   0  0  0  0  0  0  0  0  0  0  0  0
    4.1245    1.4016   16.8562 H   0  0  0  0  0  0  0  0  0  0  0  0
    7.3660   -0.6349   18.3558 H   0  0  0  0  0  0  0  0  0  0  0  0
    8.1406   -0.0912   21.1343 C   0  0  0  0  0  0  0  0  0  0  0  0
    8.6242   -0.9658   22.3092 C   0  0  2  0  0  0  0  0  0  0  0  0
    9.7470   -1.9256   21.8770 C   0  0  0  0  0  0  0  0  0  0  0  0
   10.9196   -1.1996   21.4310 N   0  0  0  0  0  0  0  0  0  0  0  0
   11.8188   -0.6557   22.2809 C   0  0  0  0  0  0  0  0  0  0  0  0
   12.8643   -0.0114   21.7178 N   0  0  0  0  0  0  0  0  0  0  0  0
   13.6975    0.5344   22.5822 C   0  0  0  0  0  0  0  0  0  0  0  0
   13.6166    0.4749   23.9172 N   0  0  0  0  0  0  0  0  0  0  0  0
   12.5564   -0.1966   24.3547 C   0  0  0  0  0  0  0  0  0  0  0  0
   11.6198   -0.7764   23.6115 N   0  0  0  0  0  0  0  0  0  0  0  0
   12.4477   -0.2693   25.4389 H   0  0  0  0  0  0  0  0  0  0  0  0
   14.5451    1.0887   22.1735 H   0  0  0  0  0  0  0  0  0  0  0  0
   11.1979   -1.2595   20.4619 H   0  0  0  0  0  0  0  0  0  0  0  0
    9.3930   -2.5864   21.0763 H   0  0  0  0  0  0  0  0  0  0  0  0
   10.0536   -2.5385   22.7297 H   0  0  0  0  0  0  0  0  0  0  0  0
    9.0775   -0.3488   23.0875 H   0  0  0  0  0  0  0  0  0  0  0  0
    8.7419   -0.2512   20.2386 H   0  0  0  0  0  0  0  0  0  0  0  0
    8.1805    0.9845   21.3530 H   0  0  0  0  0  0  0  0  0  0  0  0
    7.5236    1.0645   23.5935 H   0  0  0  0  0  0  0  0  0  0  0  0
    5.4260    0.8492   27.3165 H   0  0  0  0  0  0  0  0  0  0  0  0
    5.0245   -1.5965   26.9210 H   0  0  0  0  0  0  0  0  0  0  0  0
  1  2  2  0
  2  3  1  0
  3  4  2  0
  4  5  1  0
  5  6  2  0
  6  7  1  0
  6  8  1  0
  8  9  2  0
  9 10  1  0
 10 11  1  1
 11 12  1  0
 12 13  1  0
 13 14  1  0
 14 15  2  0
 15 16  1  0
 16 17  2  0
 17 18  1  0
 17 19  1  0
 13 20  1  0
 13 21  1  0
 11 22  1  0
 11 23  1  0
 10 24  1  0
 24 25  2  0
 24 26  1  0
 26 27  1  0
 27 28  2  0
 28 29  1  0
 29 30  2  0
 30 31  1  0
 31 32  2  0
 32 33  1  0
 33 34  2  0
 34 35  1  0
 35 36  2  0
 35 37  1  0
 34 38  1  0
 33 39  1  0
 32 40  1  0
 30 41  1  0
 28 42  1  0
 26 43  1  0
 43 44  1  0
 44 45  1  0
 45 46  1  0
 46 47  1  0
 47 48  2  0
 48 49  1  0
 49 50  2  0
 50 51  1  0
 51 52  2  0
 51 53  1  0
 49 54  1  0
 46 55  1  0
 45 56  1  0
 45 57  1  0
 44 58  1  1
 43 59  1  0
 43 60  1  0
  8 61  1  0
  5 62  1  0
  4 63  1  0
 12  2  1  0
 18 14  1  0
 36 27  1  0
 52 47  1  0
  9  3  1  0
 44 10  1  0
 36 31  1  0
M  END
>  <cnnaffinities>  (1) 
[7.52201, 7.51942, 7.45676]

>  <score>  (1) 
7.52201

>  <index>  (1) 
0

>  <Smiles>  (1) 
O=C1c2c(c(c(Cl)c(c2[C@@]2(C(N1C(c1nnc(o1)[H])([H])[H])([H])[H])C(=O)N(c1c(nc(c3c(c(c(c(c13)[H])[H])[H])[H])[H])[H])C([C@@]2(C(N(c1nc(nc(n1)[H])[H])[H])([H])[H])[H])([H])[H])[H])[H])[H]

>  <h>  (1) 
<NA>

>  <Training>  (1) 
True

>  <Success>  (1) 
True

>  <enamine_searched>  (1) 
False

>  <enamine_id>  (1) 
nan

$$$$

     RDKit          3D

 51 54  0  0  0  0  0  0  0  0999 V2000
   13.3898   -2.2679   23.4636 C   0  0  0  0  0  0  0  0  0  0  0  0
   12.2710   -1.5599   23.9554 O   0  0  0  0  0  0  0  0  0  0  0  0
   11.0565   -1.8872   23.4259 C   0  0  0  0  0  0  0  0  0  0  0  0
   10.8493   -2.8460   22.4425 C   0  0  0  0  0  0  0  0  0  0  0  0
    9.5593   -3.1310   21.9949 C   0  0  0  0  0  0  0  0  0  0  0  0
    8.4624   -2.4374   22.4902 C   0  0  0  0  0  0  0  0  0  0  0  0
    7.1465   -2.7638   22.0335 N   0  0  0  0  0  0  0  0  0  0  0  0
    6.5852   -4.0744   22.3656 C   0  0  0  0  0  0  0  0  0  0  0  0
    6.0310   -4.0969   23.7740 C   0  0  0  0  0  0  0  0  0  0  0  0
    4.6815   -3.8454   24.0153 C   0  0  0  0  0  0  0  0  0  0  0  0
    4.2000   -3.8333   25.3185 C   0  0  0  0  0  0  0  0  0  0  0  0
    5.0548   -4.0490   26.3931 C   0  0  0  0  0  0  0  0  0  0  0  0
    6.4023   -4.2819   26.1426 C   0  0  0  0  0  0  0  0  0  0  0  0
    7.4817   -4.5825   27.4757 Cl  0  0  0  0  0  0  0  0  0  0  0  0
    6.8990   -4.2972   24.8460 C   0  0  0  0  0  0  0  0  0  0  0  0
    7.9640   -4.4358   24.6704 H   0  0  0  0  0  0  0  0  0  0  0  0
    4.6778   -4.0527   27.4108 H   0  0  0  0  0  0  0  0  0  0  0  0
    3.1427   -3.6643   25.5005 H   0  0  0  0  0  0  0  0  0  0  0  0
    4.0166   -3.6343   23.1824 H   0  0  0  0  0  0  0  0  0  0  0  0
    5.7992   -4.2769   21.6338 H   0  0  0  0  0  0  0  0  0  0  0  0
    7.3695   -4.8310   22.2581 H   0  0  0  0  0  0  0  0  0  0  0  0
    6.2676   -1.8738   21.4554 C   0  0  0  0  0  0  0  0  0  0  0  0
    5.0835   -2.1486   21.3439 O   0  0  0  0  0  0  0  0  0  0  0  0
    6.8355   -0.5629   20.9075 C   0  0  0  0  0  0  0  0  0  0  0  0
    5.9823   -0.0275   19.8039 C   0  0  0  0  0  0  0  0  0  0  0  0
    6.3861   -0.1809   18.5069 C   0  0  0  0  0  0  0  0  0  0  0  0
    5.7248    0.2985   17.4250 N   0  0  0  0  0  0  0  0  0  0  0  0
    4.6321    0.9764   17.6598 C   0  0  0  0  0  0  0  0  0  0  0  0
    4.0665    1.1704   18.9459 C   0  0  0  0  0  0  0  0  0  0  0  0
    2.8542    1.8825   19.1258 C   0  0  0  0  0  0  0  0  0  0  0  0
    2.3022    2.0134   20.3699 C   0  0  0  0  0  0  0  0  0  0  0  0
    2.9382    1.4199   21.4888 C   0  0  0  0  0  0  0  0  0  0  0  0
    4.1312    0.7535   21.3424 C   0  0  0  0  0  0  0  0  0  0  0  0
    4.7398    0.6216   20.0613 C   0  0  0  0  0  0  0  0  0  0  0  0
    4.6006    0.2959   22.2067 H   0  0  0  0  0  0  0  0  0  0  0  0
    2.4974    1.5382   22.4733 H   0  0  0  0  0  0  0  0  0  0  0  0
    1.3795    2.5690   20.4991 H   0  0  0  0  0  0  0  0  0  0  0  0
    2.3774    2.2961   18.2399 H   0  0  0  0  0  0  0  0  0  0  0  0
    4.1272    1.4015   16.7915 H   0  0  0  0  0  0  0  0  0  0  0  0
    7.3314   -0.6789   18.2907 H   0  0  0  0  0  0  0  0  0  0  0  0
    7.8559   -0.7441   20.5504 H   0  0  0  0  0  0  0  0  0  0  0  0
    6.9019    0.1807   21.7116 H   0  0  0  0  0  0  0  0  0  0  0  0
    8.6785   -1.4645   23.4647 C   0  0  0  0  0  0  0  0  0  0  0  0
    9.9554   -1.1955   23.9373 C   0  0  0  0  0  0  0  0  0  0  0  0
   10.1346   -0.4593   24.7113 H   0  0  0  0  0  0  0  0  0  0  0  0
    7.8269   -0.9279   23.8744 H   0  0  0  0  0  0  0  0  0  0  0  0
    9.4030   -3.8992   21.2437 H   0  0  0  0  0  0  0  0  0  0  0  0
   11.6781   -3.3934   22.0159 H   0  0  0  0  0  0  0  0  0  0  0  0
   14.2672   -1.8702   23.9775 H   0  0  0  0  0  0  0  0  0  0  0  0
   13.3001   -3.3396   23.6810 H   0  0  0  0  0  0  0  0  0  0  0  0
   13.5036   -2.1211   22.3813 H   0  0  0  0  0  0  0  0  0  0  0  0
  1  2  1  0
  2  3  1  0
  3  4  2  0
  4  5  1  0
  5  6  2  0
  6  7  1  0
  7  8  1  0
  8  9  1  0
  9 10  2  0
 10 11  1  0
 11 12  2  0
 12 13  1  0
 13 14  1  0
 13 15  2  0
 15 16  1  0
 12 17  1  0
 11 18  1  0
 10 19  1  0
  8 20  1  0
  8 21  1  0
  7 22  1  0
 22 23  2  0
 22 24  1  0
 24 25  1  0
 25 26  2  0
 26 27  1  0
 27 28  2  0
 28 29  1  0
 29 30  2  0
 30 31  1  0
 31 32  2  0
 32 33  1  0
 33 34  2  0
 33 35  1  0
 32 36  1  0
 31 37  1  0
 30 38  1  0
 28 39  1  0
 26 40  1  0
 24 41  1  0
 24 42  1  0
  6 43  1  0
 43 44  2  0
 44 45  1  0
 43 46  1  0
  5 47  1  0
  4 48  1  0
  1 49  1  0
  1 50  1  0
  1 51  1  0
 44  3  1  0
 15  9  1  0
 34 25  1  0
 34 29  1  0
M  END
>  <cnnaffinities>  (2) 
[6.46776, 6.42236]

>  <score>  (2) 
6.46776

>  <index>  (2) 
1

>  <Smiles>  (2) 
C(Oc1c(c(c(N(C(c2c(c(c(c(Cl)c2[H])[H])[H])[H])([H])[H])C(=O)C(c2c(nc(c3c(c(c(c(c23)[H])[H])[H])[H])[H])[H])([H])[H])c(c1[H])[H])[H])[H])([H])([H])[H]

>  <h>  (2) 
<NA>

>  <Training>  (2) 
True

>  <Success>  (2) 
True

>  <enamine_searched>  (2) 
False

>  <enamine_id>  (2) 
nan

$$$$

     RDKit          3D

 56 60  0  0  0  0  0  0  0  0999 V2000
    7.5159   -4.7291   26.7719 C   0  0  0  0  0  0  0  0  0  0  0  0
    7.8033   -3.3060   26.7844 N   0  0  0  0  0  0  0  0  0  0  0  0
    6.8577   -2.4300   26.3615 C   0  0  0  0  0  0  0  0  0  0  0  0
    5.8116   -2.8016   25.8415 O   0  0  0  0  0  0  0  0  0  0  0  0
    7.2480   -0.9551   26.4023 C   0  0  0  0  0  0  0  0  0  0  0  0
    8.1055   -0.6907   25.2552 N   0  0  0  0  0  0  0  0  0  0  0  0
    7.5100   -0.1219   24.0512 C   0  0  0  0  0  0  0  0  0  0  0  0
    8.3234   -0.4547   22.7695 C   0  0  2  0  0  0  0  0  0  0  0  0
    7.6745    0.4002   21.6644 C   0  0  0  0  0  0  0  0  0  0  0  0
    7.7775    1.5978   21.5154 O   0  0  0  0  0  0  0  0  0  0  0  0
    6.8568   -0.4198   20.9085 N   0  0  0  0  0  0  0  0  0  0  0  0
    6.0260    0.0455   19.8589 C   0  0  0  0  0  0  0  0  0  0  0  0
    6.4128   -0.1700   18.5603 C   0  0  0  0  0  0  0  0  0  0  0  0
    5.7451    0.2823   17.4737 N   0  0  0  0  0  0  0  0  0  0  0  0
    4.6454    0.9592   17.6883 C   0  0  0  0  0  0  0  0  0  0  0  0
    4.0825    1.1775   18.9766 C   0  0  0  0  0  0  0  0  0  0  0  0
    2.8515    1.8664   19.1340 C   0  0  0  0  0  0  0  0  0  0  0  0
    2.2699    1.9711   20.3674 C   0  0  0  0  0  0  0  0  0  0  0  0
    2.8972    1.4023   21.4996 C   0  0  0  0  0  0  0  0  0  0  0  0
    4.1100    0.7656   21.3783 C   0  0  0  0  0  0  0  0  0  0  0  0
    4.7561    0.6670   20.1091 C   0  0  0  0  0  0  0  0  0  0  0  0
    4.5988    0.3420   22.2508 H   0  0  0  0  0  0  0  0  0  0  0  0
    2.4296    1.5088   22.4791 H   0  0  0  0  0  0  0  0  0  0  0  0
    1.3346    2.5153   20.4784 H   0  0  0  0  0  0  0  0  0  0  0  0
    2.3770    2.2562   18.2377 H   0  0  0  0  0  0  0  0  0  0  0  0
    4.1380    1.3680   16.8146 H   0  0  0  0  0  0  0  0  0  0  0  0
    7.3533   -0.6811   18.3584 H   0  0  0  0  0  0  0  0  0  0  0  0
    6.8736   -1.8157   21.2704 C   0  0  0  0  0  0  0  0  0  0  0  0
    8.0662   -1.9056   22.2284 C   0  0  2  0  0  0  0  0  0  0  0  0
    7.8443   -2.9229   23.2969 N   0  0  0  0  0  4  0  0  0  0  0  0
    8.5997   -2.8382   23.9995 H   0  0  0  0  0  0  0  0  0  0  0  0
    7.8857   -3.8708   22.8743 H   0  0  0  0  0  0  0  0  0  0  0  0
    6.9177   -2.7858   23.7545 H   0  0  0  0  0  0  0  0  0  0  0  0
    8.9481   -2.2104   21.6625 H   0  0  0  0  0  0  0  0  0  0  0  0
    6.9885   -2.4263   20.3707 H   0  0  0  0  0  0  0  0  0  0  0  0
    5.9326   -2.1246   21.7574 H   0  0  0  0  0  0  0  0  0  0  0  0
    9.8008   -0.1628   23.0478 C   0  0  0  0  0  0  0  0  0  0  0  0
   10.7334    0.1150   22.0343 C   0  0  0  0  0  0  0  0  0  0  0  0
   12.0781    0.3047   22.3427 C   0  0  0  0  0  0  0  0  0  0  0  0
   13.2703    0.6332   21.1171 Cl  0  0  0  0  0  0  0  0  0  0  0  0
   12.5582    0.2193   23.6469 C   0  0  0  0  0  0  0  0  0  0  0  0
   11.6568   -0.0730   24.6422 C   0  0  0  0  0  0  0  0  0  0  0  0
   10.3068   -0.2494   24.3488 C   0  0  0  0  0  0  0  0  0  0  0  0
    9.4423   -0.5675   25.5078 C   0  0  0  0  0  0  0  0  0  0  0  0
    9.9267   -0.7252   26.6215 O   0  0  0  0  0  0  0  0  0  0  0  0
   11.9654   -0.1839   25.6749 H   0  0  0  0  0  0  0  0  0  0  0  0
   13.6113    0.3711   23.8633 H   0  0  0  0  0  0  0  0  0  0  0  0
   10.4103    0.1767   21.0048 H   0  0  0  0  0  0  0  0  0  0  0  0
    6.4814   -0.4993   23.9532 H   0  0  0  0  0  0  0  0  0  0  0  0
    7.4484    0.9722   24.1457 H   0  0  0  0  0  0  0  0  0  0  0  0
    7.8087   -0.7149   27.3063 H   0  0  0  0  0  0  0  0  0  0  0  0
    6.3627   -0.3146   26.3487 H   0  0  0  0  0  0  0  0  0  0  0  0
    8.6821   -2.9693   27.1499 H   0  0  0  0  0  0  0  0  0  0  0  0
    6.7115   -4.9681   27.4766 H   0  0  0  0  0  0  0  0  0  0  0  0
    8.4106   -5.2896   27.0518 H   0  0  0  0  0  0  0  0  0  0  0  0
    7.1972   -5.0393   25.7707 H   0  0  0  0  0  0  0  0  0  0  0  0
  1  2  1  0
  2  3  1  0
  3  4  2  0
  3  5  1  0
  5  6  1  0
  6  7  1  0
  8  7  1  1
  8  9  1  0
  9 10  2  0
  9 11  1  0
 11 12  1  0
 12 13  2  0
 13 14  1  0
 14 15  2  0
 15 16  1  0
 16 17  2  0
 17 18  1  0
 18 19  2  0
 19 20  1  0
 20 21  2  0
 20 22  1  0
 19 23  1  0
 18 24  1  0
 17 25  1  0
 15 26  1  0
 13 27  1  0
 11 28  1  0
 28 29  1  0
 29 30  1  0
 30 31  1  0
 30 32  1  0
 30 33  1  0
 29 34  1  6
 28 35  1  0
 28 36  1  0
  8 37  1  0
 37 38  2  0
 38 39  1  0
 39 40  1  0
 39 41  2  0
 41 42  1  0
 42 43  2  0
 43 44  1  0
 44 45  2  0
 42 46  1  0
 41 47  1  0
 38 48  1  0
  7 49  1  0
  7 50  1  0
  5 51  1  0
  5 52  1  0
  2 53  1  0
  1 54  1  0
  1 55  1  0
  1 56  1  0
 44  6  1  0
 29  8  1  0
 43 37  1  0
 21 12  1  0
 21 16  1  0
M  CHG  1  30   1
M  END
>  <cnnaffinities>  (3) 
[6.15989, 6.71435]

>  <score>  (3) 
6.15989

>  <index>  (3) 
2

>  <Smiles>  (3) 
C(N(C(=O)C(N1C([C@@]2(C(=O)N(c3c(nc(c4c(c(c(c(c34)[H])[H])[H])[H])[H])[H])C([C@@]2([N+]([H])([H])[H])[H])([H])[H])c2c(c(Cl)c(c(c2C1=O)[H])[H])[H])([H])[H])([H])[H])[H])([H])([H])[H]

>  <h>  (3) 
<NA>

>  <Training>  (3) 
True

>  <Success>  (3) 
True

>  <enamine_searched>  (3) 
False

>  <enamine_id>  (3) 
nan

$$$$

     RDKit          3D

 67 73  0  0  0  0  0  0  0  0999 V2000
    9.7618   -0.4008   26.7240 O   0  0  0  0  0  0  0  0  0  0  0  0
    9.3124   -0.4144   25.5837 C   0  0  0  0  0  0  0  0  0  0  0  0
   10.1953   -0.1580   24.4177 C   0  0  0  0  0  0  0  0  0  0  0  0
   11.5398    0.0323   24.7216 C   0  0  0  0  0  0  0  0  0  0  0  0
   12.4567    0.3051   23.7336 C   0  0  0  0  0  0  0  0  0  0  0  0
   11.9946    0.3563   22.4220 C   0  0  0  0  0  0  0  0  0  0  0  0
   13.1768    0.6863   21.1922 Cl  0  0  0  0  0  0  0  0  0  0  0  0
   10.6610    0.1335   22.0959 C   0  0  0  0  0  0  0  0  0  0  0  0
    9.7184   -0.1394   23.1016 C   0  0  0  0  0  0  0  0  0  0  0  0
    8.2578   -0.4662   22.7933 C   0  0  1  0  0  0  0  0  0  0  0  0
    7.4233   -0.1290   24.0669 C   0  0  0  0  0  0  0  0  0  0  0  0
    8.0084   -0.6796   25.2810 N   0  0  0  0  0  0  0  0  0  0  0  0
    7.1416   -1.1175   26.3663 C   0  0  0  0  0  0  0  0  0  0  0  0
    6.6869    0.0061   27.2720 C   0  0  0  0  0  0  0  0  0  0  0  0
    7.2827    0.2861   28.4771 C   0  0  0  0  0  0  0  0  0  0  0  0
    6.7809    1.3529   29.2180 C   0  0  0  0  0  0  0  0  0  0  0  0
    5.7742    2.1220   28.8164 N   0  0  0  0  0  0  0  0  0  0  0  0
    5.2011    1.8698   27.6469 N   0  0  0  0  0  0  0  0  0  0  0  0
    5.6392    0.8581   26.9037 C   0  0  0  0  0  0  0  0  0  0  0  0
    5.1122    0.7092   25.9613 H   0  0  0  0  0  0  0  0  0  0  0  0
    7.2149    1.5963   30.1849 H   0  0  0  0  0  0  0  0  0  0  0  0
    8.1329   -0.2834   28.8399 H   0  0  0  0  0  0  0  0  0  0  0  0
    6.2761   -1.6162   25.9135 H   0  0  0  0  0  0  0  0  0  0  0  0
    7.6906   -1.8608   26.9486 H   0  0  0  0  0  0  0  0  0  0  0  0
    6.3982   -0.5099   23.9561 H   0  0  0  0  0  0  0  0  0  0  0  0
    7.3563    0.9683   24.1340 H   0  0  0  0  0  0  0  0  0  0  0  0
    7.6283    0.3811   21.6686 C   0  0  0  0  0  0  0  0  0  0  0  0
    7.7352    1.5765   21.5116 O   0  0  0  0  0  0  0  0  0  0  0  0
    6.8309   -0.4442   20.8993 N   0  0  0  0  0  0  0  0  0  0  0  0
    6.0096    0.0171   19.8459 C   0  0  0  0  0  0  0  0  0  0  0  0
    6.4077   -0.1885   18.5513 C   0  0  0  0  0  0  0  0  0  0  0  0
    5.7453    0.2767   17.4668 N   0  0  0  0  0  0  0  0  0  0  0  0
    4.6516    0.9634   17.6833 C   0  0  0  0  0  0  0  0  0  0  0  0
    4.0795    1.1673   18.9698 C   0  0  0  0  0  0  0  0  0  0  0  0
    2.8624    1.8750   19.1326 C   0  0  0  0  0  0  0  0  0  0  0  0
    2.2896    1.9981   20.3697 C   0  0  0  0  0  0  0  0  0  0  0  0
    2.9148    1.4265   21.5071 C   0  0  0  0  0  0  0  0  0  0  0  0
    4.1216    0.7759   21.3770 C   0  0  0  0  0  0  0  0  0  0  0  0
    4.7477    0.6469   20.0993 C   0  0  0  0  0  0  0  0  0  0  0  0
    4.6248    0.3773   22.2542 H   0  0  0  0  0  0  0  0  0  0  0  0
    2.4549    1.5513   22.4847 H   0  0  0  0  0  0  0  0  0  0  0  0
    1.3678    2.5553   20.4827 H   0  0  0  0  0  0  0  0  0  0  0  0
    2.4025    2.2863   18.2399 H   0  0  0  0  0  0  0  0  0  0  0  0
    4.1507    1.3808   16.8099 H   0  0  0  0  0  0  0  0  0  0  0  0
    7.3480   -0.7030   18.3546 H   0  0  0  0  0  0  0  0  0  0  0  0
    6.8473   -1.8337   21.2715 C   0  0  0  0  0  0  0  0  0  0  0  0
    8.0464   -1.9156   22.2271 C   0  0  2  0  0  0  0  0  0  0  0  0
    7.8514   -3.0313   23.2581 C   0  0  0  0  0  0  0  0  0  0  0  0
    7.8504   -4.3350   22.6271 N   0  0  0  0  0  0  0  0  0  0  0  0
    6.7167   -5.0161   22.3138 C   0  0  0  0  0  0  0  0  0  0  0  0
    6.8017   -6.2277   21.5955 C   0  0  0  0  0  0  0  0  0  0  0  0
    5.6228   -6.8921   21.3512 C   0  0  0  0  0  0  0  0  0  0  0  0
    4.4271   -6.4353   21.7582 N   0  0  0  0  0  0  0  0  0  0  0  0
    4.4575   -5.2839   22.4103 C   0  0  0  0  0  0  0  0  0  0  0  0
    5.5261   -4.5384   22.7111 N   0  0  0  0  0  0  0  0  0  0  0  0
    3.4923   -4.8975   22.7469 H   0  0  0  0  0  0  0  0  0  0  0  0
    5.6160   -7.8405   20.8075 H   0  0  0  0  0  0  0  0  0  0  0  0
    7.7638   -6.6076   21.2632 H   0  0  0  0  0  0  0  0  0  0  0  0
    8.7304   -4.6897   22.2738 H   0  0  0  0  0  0  0  0  0  0  0  0
    6.8752   -2.9268   23.7434 H   0  0  0  0  0  0  0  0  0  0  0  0
    8.6334   -2.9841   24.0231 H   0  0  0  0  0  0  0  0  0  0  0  0
    8.9416   -2.1461   21.6248 H   0  0  0  0  0  0  0  0  0  0  0  0
    5.9029   -2.1391   21.7508 H   0  0  0  0  0  0  0  0  0  0  0  0
    6.9528   -2.4555   20.3787 H   0  0  0  0  0  0  0  0  0  0  0  0
   10.3580    0.1821   21.0589 H   0  0  0  0  0  0  0  0  0  0  0  0
   13.5015    0.4826   23.9695 H   0  0  0  0  0  0  0  0  0  0  0  0
   11.8272   -0.0483   25.7612 H   0  0  0  0  0  0  0  0  0  0  0  0
  1  2  2  0
  2  3  1  0
  3  4  2  0
  4  5  1  0
  5  6  2  0
  6  7  1  0
  6  8  1  0
  8  9  2  0
  9 10  1  0
 10 11  1  1
 11 12  1  0
 12 13  1  0
 13 14  1  0
 14 15  2  0
 15 16  1  0
 16 17  2  0
 17 18  1  0
 18 19  2  0
 19 20  1  0
 16 21  1  0
 15 22  1  0
 13 23  1  0
 13 24  1  0
 11 25  1  0
 11 26  1  0
 10 27  1  0
 27 28  2  0
 27 29  1  0
 29 30  1  0
 30 31  2  0
 31 32  1  0
 32 33  2  0
 33 34  1  0
 34 35  2  0
 35 36  1  0
 36 37  2  0
 37 38  1  0
 38 39  2  0
 38 40  1  0
 37 41  1  0
 36 42  1  0
 35 43  1  0
 33 44  1  0
 31 45  1  0
 29 46  1  0
 46 47  1  0
 47 48  1  0
 48 49  1  0
 49 50  1  0
 50 51  2  0
 51 52  1  0
 52 53  2  0
 53 54  1  0
 54 55  2  0
 54 56  1  0
 52 57  1  0
 51 58  1  0
 49 59  1  0
 48 60  1  0
 48 61  1  0
 47 62  1  6
 46 63  1  0
 46 64  1  0
  8 65  1  0
  5 66  1  0
  4 67  1  0
 12  2  1  0
 19 14  1  0
 39 30  1  0
 55 50  1  0
  9  3  1  0
 47 10  1  0
 39 34  1  0
M  END
>  <cnnaffinities>  (4) 
[7.01358, 7.44387, 6.8627, 6.90865, 6.92217, 7.57483]

>  <score>  (4) 
7.01358

>  <index>  (4) 
3

>  <Smiles>  (4) 
O=C1c2c(c(c(Cl)c(c2[C@@]2(C(N1C(c1c(c(nnc1[H])[H])[H])([H])[H])([H])[H])C(=O)N(c1c(nc(c3c(c(c(c(c13)[H])[H])[H])[H])[H])[H])C([C@@]2(C(N(c1c(c(nc(n1)[H])[H])[H])[H])([H])[H])[H])([H])[H])[H])[H])[H]

>  <h>  (4) 
<NA>

>  <Training>  (4) 
True

>  <Success>  (4) 
True

>  <enamine_searched>  (4) 
False

>  <enamine_id>  (4) 
nan

$$$$

     RDKit          3D

 41 44  0  0  0  0  0  0  0  0999 V2000
    9.0429    2.1829   23.9961 C   0  0  0  0  0  0  0  0  0  0  0  0
    9.6938    1.2200   22.9929 C   0  0  1  0  0  0  0  0  0  0  0  0
   10.9349    0.5641   23.5367 C   0  0  0  0  0  0  0  0  0  0  0  0
   12.2790    1.0594   23.4915 C   0  0  0  0  0  0  0  0  0  0  0  0
   13.1639    0.2036   24.0710 C   0  0  0  0  0  0  0  0  0  0  0  0
   12.3779   -1.1852   24.7250 S   0  0  0  0  0  0  0  0  0  0  0  0
   10.8423   -0.6313   24.1698 C   0  0  0  0  0  0  0  0  0  0  0  0
    9.5466   -1.3653   24.2762 C   0  0  0  0  0  0  0  0  0  0  0  0
    8.7729   -1.1890   22.9712 C   0  0  0  0  0  0  0  0  0  0  0  0
    8.7180    0.2105   22.5238 N   0  0  0  0  0  0  0  0  0  0  0  0
    7.9308    0.5652   21.4521 C   0  0  0  0  0  0  0  0  0  0  0  0
    8.0464    1.6386   20.8832 O   0  0  0  0  0  0  0  0  0  0  0  0
    6.9148   -0.4955   20.9891 C   0  0  0  0  0  0  0  0  0  0  0  0
    6.0042   -0.0346   19.8880 C   0  0  0  0  0  0  0  0  0  0  0  0
    6.4195   -0.1533   18.5859 C   0  0  0  0  0  0  0  0  0  0  0  0
    5.7703    0.3245   17.4965 N   0  0  0  0  0  0  0  0  0  0  0  0
    4.6407    0.9494   17.7101 C   0  0  0  0  0  0  0  0  0  0  0  0
    4.0593    1.1244   18.9950 C   0  0  0  0  0  0  0  0  0  0  0  0
    2.8199    1.7903   19.1624 C   0  0  0  0  0  0  0  0  0  0  0  0
    2.2408    1.8802   20.3962 C   0  0  0  0  0  0  0  0  0  0  0  0
    2.8826    1.3056   21.5135 C   0  0  0  0  0  0  0  0  0  0  0  0
    4.1002    0.6800   21.3853 C   0  0  0  0  0  0  0  0  0  0  0  0
    4.7352    0.5870   20.1193 C   0  0  0  0  0  0  0  0  0  0  0  0
    4.5846    0.2562   22.2540 H   0  0  0  0  0  0  0  0  0  0  0  0
    2.4119    1.3709   22.4860 H   0  0  0  0  0  0  0  0  0  0  0  0
    1.2992    2.4056   20.5259 H   0  0  0  0  0  0  0  0  0  0  0  0
    2.3328    2.2075   18.2836 H   0  0  0  0  0  0  0  0  0  0  0  0
    4.1374    1.3759   16.8402 H   0  0  0  0  0  0  0  0  0  0  0  0
    7.3772   -0.6247   18.3674 H   0  0  0  0  0  0  0  0  0  0  0  0
    6.3385   -0.8526   21.8488 H   0  0  0  0  0  0  0  0  0  0  0  0
    7.5043   -1.3473   20.6197 H   0  0  0  0  0  0  0  0  0  0  0  0
    9.2320   -1.8134   22.1883 H   0  0  0  0  0  0  0  0  0  0  0  0
    7.7571   -1.5612   23.1316 H   0  0  0  0  0  0  0  0  0  0  0  0
    9.7075   -2.4278   24.4751 H   0  0  0  0  0  0  0  0  0  0  0  0
    8.9494   -0.9652   25.1086 H   0  0  0  0  0  0  0  0  0  0  0  0
   14.2389    0.2938   24.1116 H   0  0  0  0  0  0  0  0  0  0  0  0
   12.5784    2.0092   23.0585 H   0  0  0  0  0  0  0  0  0  0  0  0
    9.9817    1.8050   22.1112 H   0  0  0  0  0  0  0  0  0  0  0  0
    8.7084    1.6406   24.8882 H   0  0  0  0  0  0  0  0  0  0  0  0
    9.7695    2.9418   24.3049 H   0  0  0  0  0  0  0  0  0  0  0  0
    8.1853    2.6819   23.5341 H   0  0  0  0  0  0  0  0  0  0  0  0
  1  2  1  0
  2  3  1  0
  3  4  1  0
  4  5  2  0
  5  6  1  0
  6  7  1  0
  7  8  1  0
  8  9  1  0
  9 10  1  0
 10 11  1  0
 11 12  2  0
 11 13  1  0
 13 14  1  0
 14 15  2  0
 15 16  1  0
 16 17  2  0
 17 18  1  0
 18 19  2  0
 19 20  1  0
 20 21  2  0
 21 22  1  0
 22 23  2  0
 22 24  1  0
 21 25  1  0
 20 26  1  0
 19 27  1  0
 17 28  1  0
 15 29  1  0
 13 30  1  0
 13 31  1  0
  9 32  1  0
  9 33  1  0
  8 34  1  0
  8 35  1  0
  5 36  1  0
  4 37  1  0
  2 38  1  6
  1 39  1  0
  1 40  1  0
  1 41  1  0
 10  2  1  0
 23 14  1  0
  7  3  2  0
 23 18  1  0
M  END
>  <cnnaffinities>  (5) 
[5.8346]

>  <score>  (5) 
5.8346

>  <index>  (5) 
4

>  <Smiles>  (5) 
C([C@]1(c2c(c(sc2C(C(N1C(=O)C(c1c(nc(c2c(c(c(c(c12)[H])[H])[H])[H])[H])[H])([H])[H])([H])[H])([H])[H])[H])[H])[H])([H])([H])[H]

>  <h>  (5) 
<NA>

>  <Training>  (5) 
True

>  <Success>  (5) 
True

>  <enamine_searched>  (5) 
False

>  <enamine_id>  (5) 
nan

$$$$

     RDKit          3D

 50 54  0  0  0  0  0  0  0  0999 V2000
    7.6002   -2.9475   23.5330 C   0  0  0  0  0  0  0  0  0  0  0  0
    7.8359   -2.0580   22.3185 C   0  0  1  0  0  0  0  0  0  0  0  0
    6.5077   -1.6138   21.6932 C   0  0  0  0  0  0  0  0  0  0  0  0
    6.8280   -0.3834   20.9835 N   0  0  0  0  0  0  0  0  0  0  0  0
    6.0339    0.1019   19.9117 C   0  0  0  0  0  0  0  0  0  0  0  0
    6.5388    0.1363   18.6351 C   0  0  0  0  0  0  0  0  0  0  0  0
    5.8341    0.5388   17.5511 N   0  0  0  0  0  0  0  0  0  0  0  0
    4.6023    0.9438   17.7258 C   0  0  0  0  0  0  0  0  0  0  0  0
    3.9490    0.9623   18.9865 C   0  0  0  0  0  0  0  0  0  0  0  0
    2.6300    1.4659   19.1381 C   0  0  0  0  0  0  0  0  0  0  0  0
    2.0086    1.4388   20.3557 C   0  0  0  0  0  0  0  0  0  0  0  0
    2.7015    0.9398   21.4827 C   0  0  0  0  0  0  0  0  0  0  0  0
    3.9857    0.4603   21.3637 C   0  0  0  0  0  0  0  0  0  0  0  0
    4.6598    0.4822   20.1109 C   0  0  0  0  0  0  0  0  0  0  0  0
    4.5154    0.1132   22.2453 H   0  0  0  0  0  0  0  0  0  0  0  0
    2.2000    0.9080   22.4484 H   0  0  0  0  0  0  0  0  0  0  0  0
    0.9958    1.8216   20.4770 H   0  0  0  0  0  0  0  0  0  0  0  0
    2.1324    1.8728   18.2648 H   0  0  0  0  0  0  0  0  0  0  0  0
    4.0580    1.2674   16.8379 H   0  0  0  0  0  0  0  0  0  0  0  0
    7.5694   -0.1544   18.4367 H   0  0  0  0  0  0  0  0  0  0  0  0
    8.1132    0.0592   21.2546 C   0  0  0  0  0  0  0  0  0  0  0  0
    8.6910    0.9420   20.6470 O   0  0  0  0  0  0  0  0  0  0  0  0
    8.6443   -0.7198   22.4857 C   0  0  1  0  0  0  0  0  0  0  0  0
    8.2809    0.0974   23.7419 C   0  0  0  0  0  0  0  0  0  0  0  0
    8.9241   -0.4229   24.9433 N   0  0  0  0  0  0  0  0  0  0  0  0
    8.2263   -0.3133   26.2043 C   0  0  0  0  0  0  0  0  0  0  0  0
    7.5488   -1.5511   26.6306 C   0  0  0  0  0  0  0  0  0  0  0  0
    7.0414   -2.5084   27.0412 N   0  0  0  0  0  0  0  0  0  0  0  0
    8.9719   -0.0708   26.9627 H   0  0  0  0  0  0  0  0  0  0  0  0
    7.4861    0.4909   26.1587 H   0  0  0  0  0  0  0  0  0  0  0  0
   10.2858   -0.6459   24.9852 C   0  0  0  0  0  0  0  0  0  0  0  0
   10.9334   -0.5716   26.0194 O   0  0  0  0  0  0  0  0  0  0  0  0
   10.8841   -1.0413   23.6733 C   0  0  0  0  0  0  0  0  0  0  0  0
   12.1712   -1.5849   23.6683 C   0  0  0  0  0  0  0  0  0  0  0  0
   12.7491   -2.0065   22.4819 C   0  0  0  0  0  0  0  0  0  0  0  0
   12.0409   -1.7808   21.3059 C   0  0  0  0  0  0  0  0  0  0  0  0
   12.5818   -2.1830   20.1462 F   0  0  0  0  0  0  0  0  0  0  0  0
   10.8016   -1.1722   21.2816 C   0  0  0  0  0  0  0  0  0  0  0  0
   10.1444   -0.9285   22.4863 C   0  0  0  0  0  0  0  0  0  0  0  0
   10.3462   -0.8762   20.3461 H   0  0  0  0  0  0  0  0  0  0  0  0
   13.7167   -2.4970   22.4365 H   0  0  0  0  0  0  0  0  0  0  0  0
   12.6774   -1.6651   24.6259 H   0  0  0  0  0  0  0  0  0  0  0  0
    7.1978    0.0697   23.9043 H   0  0  0  0  0  0  0  0  0  0  0  0
    8.5784    1.1424   23.5594 H   0  0  0  0  0  0  0  0  0  0  0  0
    6.0980   -2.3493   20.9950 H   0  0  0  0  0  0  0  0  0  0  0  0
    5.7695   -1.4478   22.4891 H   0  0  0  0  0  0  0  0  0  0  0  0
    8.3983   -2.6375   21.5733 H   0  0  0  0  0  0  0  0  0  0  0  0
    7.0919   -3.8656   23.2123 H   0  0  0  0  0  0  0  0  0  0  0  0
    8.5408   -3.2342   24.0121 H   0  0  0  0  0  0  0  0  0  0  0  0
    6.9595   -2.4531   24.2728 H   0  0  0  0  0  0  0  0  0  0  0  0
  1  2  1  0
  2  3  1  0
  3  4  1  0
  4  5  1  0
  5  6  2  0
  6  7  1  0
  7  8  2  0
  8  9  1  0
  9 10  2  0
 10 11  1  0
 11 12  2  0
 12 13  1  0
 13 14  2  0
 13 15  1  0
 12 16  1  0
 11 17  1  0
 10 18  1  0
  8 19  1  0
  6 20  1  0
  4 21  1  0
 21 22  2  0
 21 23  1  0
 23 24  1  1
 24 25  1  0
 25 26  1  0
 26 27  1  0
 27 28  3  0
 26 29  1  0
 26 30  1  0
 25 31  1  0
 31 32  2  0
 31 33  1  0
 33 34  2  0
 34 35  1  0
 35 36  2  0
 36 37  1  0
 36 38  1  0
 38 39  2  0
 38 40  1  0
 35 41  1  0
 34 42  1  0
 24 43  1  0
 24 44  1  0
  3 45  1  0
  3 46  1  0
  2 47  1  6
  1 48  1  0
  1 49  1  0
  1 50  1  0
 23  2  1  0
 39 33  1  0
 14  5  1  0
 39 23  1  0
 14  9  1  0
M  END
>  <cnnaffinities>  (6) 
[5.94258]

>  <score>  (6) 
5.94258

>  <index>  (6) 
5

>  <Smiles>  (6) 
C([C@]1(C(N(c2c(nc(c3c(c(c(c(c23)[H])[H])[H])[H])[H])[H])C(=O)[C@]21C(N(C(C#N)([H])[H])C(=O)c1c(c(c(F)c(c21)[H])[H])[H])([H])[H])([H])[H])[H])([H])([H])[H]

>  <h>  (6) 
<NA>

>  <Training>  (6) 
True

>  <Success>  (6) 
True

>  <enamine_searched>  (6) 
False

>  <enamine_id>  (6) 
nan

$$$$

     RDKit          3D

 65 69  0  0  0  0  0  0  0  0999 V2000
   10.3868    4.4783   24.3202 C   0  0  0  0  0  0  0  0  0  0  0  0
   10.7043    3.0951   23.7525 C   0  0  0  0  0  0  0  0  0  0  0  0
    9.4379    2.3566   23.5021 C   0  0  0  0  0  0  0  0  0  0  0  0
    8.6181    2.4852   22.6700 O   0  0  0  0  0  0  0  0  0  0  0  0
    9.2684    0.3035   25.4068 N   0  0  1  0  0  4  0  0  0  0  0  0
    8.0259    0.7949   25.9964 C   0  0  0  0  0  0  0  0  0  0  0  0
    6.8845    0.7553   24.9878 C   0  0  0  0  0  0  0  0  0  0  0  0
    6.6928   -0.6898   24.5382 C   0  0  0  0  0  0  0  0  0  0  0  0
    7.9859   -1.2629   23.9788 C   0  0  0  0  0  0  0  0  0  0  0  0
    8.0427   -2.2542   22.9812 C   0  0  0  0  0  0  0  0  0  0  0  0
    6.8476   -2.7586   22.3798 N   0  0  0  0  0  0  0  0  0  0  0  0
    6.3787   -4.0488   22.8792 C   0  0  0  0  0  0  0  0  0  0  0  0
    5.7544   -3.9115   24.2525 C   0  0  0  0  0  0  0  0  0  0  0  0
    4.4887   -3.3388   24.3874 C   0  0  0  0  0  0  0  0  0  0  0  0
    3.9303   -3.1539   25.6482 C   0  0  0  0  0  0  0  0  0  0  0  0
    4.6344   -3.5144   26.7930 C   0  0  0  0  0  0  0  0  0  0  0  0
    5.9012   -4.0695   26.6537 C   0  0  0  0  0  0  0  0  0  0  0  0
    6.8055   -4.5073   28.0779 Cl  0  0  0  0  0  0  0  0  0  0  0  0
    6.4655   -4.2695   25.3992 C   0  0  0  0  0  0  0  0  0  0  0  0
    7.4746   -4.6700   25.3271 H   0  0  0  0  0  0  0  0  0  0  0  0
    4.2164   -3.3605   27.7823 H   0  0  0  0  0  0  0  0  0  0  0  0
    2.9400   -2.7172   25.7415 H   0  0  0  0  0  0  0  0  0  0  0  0
    3.9507   -3.0187   23.4976 H   0  0  0  0  0  0  0  0  0  0  0  0
    5.6611   -4.4349   22.1497 H   0  0  0  0  0  0  0  0  0  0  0  0
    7.2390   -4.7246   22.9403 H   0  0  0  0  0  0  0  0  0  0  0  0
    6.0910   -2.0908   21.4379 C   0  0  0  0  0  0  0  0  0  0  0  0
    5.0310   -2.5478   21.0467 O   0  0  0  0  0  0  0  0  0  0  0  0
    6.6446   -0.7519   20.9254 C   0  0  0  0  0  0  0  0  0  0  0  0
    5.8391   -0.1401   19.8078 C   0  0  0  0  0  0  0  0  0  0  0  0
    6.3432   -0.0895   18.5342 C   0  0  0  0  0  0  0  0  0  0  0  0
    5.7117    0.4458   17.4577 N   0  0  0  0  0  0  0  0  0  0  0  0
    4.5192    0.9484   17.6575 C   0  0  0  0  0  0  0  0  0  0  0  0
    3.8696    0.9762   18.9201 C   0  0  0  0  0  0  0  0  0  0  0  0
    2.5910    1.5687   19.0839 C   0  0  0  0  0  0  0  0  0  0  0  0
    1.9990    1.6113   20.3168 C   0  0  0  0  0  0  0  0  0  0  0  0
    2.6647    1.0570   21.4337 C   0  0  0  0  0  0  0  0  0  0  0  0
    3.9002    0.4742   21.2963 C   0  0  0  0  0  0  0  0  0  0  0  0
    4.5447    0.4221   20.0321 C   0  0  0  0  0  0  0  0  0  0  0  0
    4.3946    0.0350   22.1558 H   0  0  0  0  0  0  0  0  0  0  0  0
    2.1987    1.1067   22.4116 H   0  0  0  0  0  0  0  0  0  0  0  0
    1.0248    2.0740   20.4458 H   0  0  0  0  0  0  0  0  0  0  0  0
    2.1116    2.0008   18.2081 H   0  0  0  0  0  0  0  0  0  0  0  0
    4.0038    1.3638   16.7898 H   0  0  0  0  0  0  0  0  0  0  0  0
    7.3261   -0.5099   18.3170 H   0  0  0  0  0  0  0  0  0  0  0  0
    7.6798   -0.9219   20.6066 H   0  0  0  0  0  0  0  0  0  0  0  0
    6.7167   -0.0613   21.7751 H   0  0  0  0  0  0  0  0  0  0  0  0
    9.2582   -2.7738   22.5511 C   0  0  0  0  0  0  0  0  0  0  0  0
   10.4521   -2.2636   23.0521 C   0  0  0  0  0  0  0  0  0  0  0  0
   10.4195   -1.2551   24.0028 C   0  0  0  0  0  0  0  0  0  0  0  0
    9.1991   -0.7575   24.4744 C   0  0  0  0  0  0  0  0  0  0  0  0
   11.3369   -0.8162   24.3911 H   0  0  0  0  0  0  0  0  0  0  0  0
   11.4050   -2.6283   22.6725 H   0  0  0  0  0  0  0  0  0  0  0  0
    9.2650   -3.5647   21.8034 H   0  0  0  0  0  0  0  0  0  0  0  0
    6.3805   -1.2798   25.4102 H   0  0  0  0  0  0  0  0  0  0  0  0
    5.8735   -0.7825   23.8170 H   0  0  0  0  0  0  0  0  0  0  0  0
    7.1577    1.3869   24.1304 H   0  0  0  0  0  0  0  0  0  0  0  0
    5.9605    1.1611   25.4156 H   0  0  0  0  0  0  0  0  0  0  0  0
    8.2128    1.8224   26.3357 H   0  0  0  0  0  0  0  0  0  0  0  0
    7.7887    0.2018   26.8884 H   0  0  0  0  0  0  0  0  0  0  0  0
    9.7226    1.0879   24.9206 H   0  0  0  0  0  0  0  0  0  0  0  0
   11.2099    3.1348   22.7869 H   0  0  0  0  0  0  0  0  0  0  0  0
   11.3157    2.4923   24.4261 H   0  0  0  0  0  0  0  0  0  0  0  0
   11.2908    4.9469   24.7139 H   0  0  0  0  0  0  0  0  0  0  0  0
    9.6468    4.3909   25.1212 H   0  0  0  0  0  0  0  0  0  0  0  0
    9.9674    5.1124   23.5364 H   0  0  0  0  0  0  0  0  0  0  0  0
  1  2  1  0
  2  3  1  0
  3  4  2  0
  3  5  1  0
  5  6  1  0
  6  7  1  0
  7  8  1  0
  8  9  1  0
  9 10  2  0
 10 11  1  0
 11 12  1  0
 12 13  1  0
 13 14  2  0
 14 15  1  0
 15 16  2  0
 16 17  1  0
 17 18  1  0
 17 19  2  0
 19 20  1  0
 16 21  1  0
 15 22  1  0
 14 23  1  0
 12 24  1  0
 12 25  1  0
 11 26  1  0
 26 27  2  0
 26 28  1  0
 28 29  1  0
 29 30  2  0
 30 31  1  0
 31 32  2  0
 32 33  1  0
 33 34  2  0
 34 35  1  0
 35 36  2  0
 36 37  1  0
 37 38  2  0
 37 39  1  0
 36 40  1  0
 35 41  1  0
 34 42  1  0
 32 43  1  0
 30 44  1  0
 28 45  1  0
 28 46  1  0
 10 47  1  0
 47 48  2  0
 48 49  1  0
 49 50  2  0
 49 51  1  0
 48 52  1  0
 47 53  1  0
  8 54  1  0
  8 55  1  0
  7 56  1  0
  7 57  1  0
  6 58  1  0
  6 59  1  0
  5 60  1  1
  2 61  1  0
  2 62  1  0
  1 63  1  0
  1 64  1  0
  1 65  1  0
 50  5  1  0
 50  9  1  0
 19 13  1  0
 38 29  1  0
 38 33  1  0
M  CHG  1   5   1
M  END
>  <cnnaffinities>  (7) 
[6.69766]

>  <score>  (7) 
6.69766

>  <index>  (7) 
6

>  <Smiles>  (7) 
C(C(C(=O)[N@+]1(C(C(C(c2c(N(C(c3c(c(c(c(Cl)c3[H])[H])[H])[H])([H])[H])C(=O)C(c3c(nc(c4c(c(c(c(c34)[H])[H])[H])[H])[H])[H])([H])[H])c(c(c(c12)[H])[H])[H])([H])[H])([H])[H])([H])[H])[H])([H])[H])([H])([H])[H]

>  <h>  (7) 
<NA>

>  <Training>  (7) 
True

>  <Success>  (7) 
True

>  <enamine_searched>  (7) 
False

>  <enamine_id>  (7) 
nan

$$$$

     RDKit          3D

 37 39  0  0  0  0  0  0  0  0999 V2000
    8.3507    1.4166   20.5274 O   0  0  0  0  0  0  0  0  0  0  0  0
    7.7096    0.7815   21.3499 C   0  0  0  0  0  0  0  0  0  0  0  0
    6.9167   -0.4627   20.9416 C   0  0  0  0  0  0  0  0  0  0  0  0
    5.9505   -0.1040   19.8373 C   0  0  0  0  0  0  0  0  0  0  0  0
    6.3739   -0.1972   18.5352 C   0  0  0  0  0  0  0  0  0  0  0  0
    5.7099    0.2971   17.4616 N   0  0  0  0  0  0  0  0  0  0  0  0
    4.6151    0.9648   17.6936 C   0  0  0  0  0  0  0  0  0  0  0  0
    4.0162    1.0901   18.9705 C   0  0  0  0  0  0  0  0  0  0  0  0
    2.8074    1.8098   19.1467 C   0  0  0  0  0  0  0  0  0  0  0  0
    2.2481    1.9455   20.3868 C   0  0  0  0  0  0  0  0  0  0  0  0
    2.8796    1.3501   21.5046 C   0  0  0  0  0  0  0  0  0  0  0  0
    4.0790    0.6858   21.3603 C   0  0  0  0  0  0  0  0  0  0  0  0
    4.6861    0.5225   20.0828 C   0  0  0  0  0  0  0  0  0  0  0  0
    4.5685    0.2899   22.2474 H   0  0  0  0  0  0  0  0  0  0  0  0
    2.3972    1.4252   22.4784 H   0  0  0  0  0  0  0  0  0  0  0  0
    1.3179    2.4916   20.5148 H   0  0  0  0  0  0  0  0  0  0  0  0
    2.3613    2.2671   18.2713 H   0  0  0  0  0  0  0  0  0  0  0  0
    4.1223    1.4235   16.8340 H   0  0  0  0  0  0  0  0  0  0  0  0
    7.3345   -0.6596   18.3184 H   0  0  0  0  0  0  0  0  0  0  0  0
    6.4162   -0.8913   21.8114 H   0  0  0  0  0  0  0  0  0  0  0  0
    7.6476   -1.1988   20.5835 H   0  0  0  0  0  0  0  0  0  0  0  0
    7.6107    1.1686   22.6686 N   0  0  0  0  0  0  0  0  0  0  0  0
    7.9388    2.5526   22.9874 C   0  0  0  0  0  0  0  0  0  0  0  0
    6.9611    3.0494   24.0434 C   0  0  0  0  0  0  0  0  0  0  0  0
    7.0302    2.1732   25.2930 C   0  0  0  0  0  0  0  0  0  0  0  0
    6.7695    0.7109   24.9295 C   0  0  0  0  0  0  0  0  0  0  0  0
    7.7129    0.2659   23.8156 C   0  0  0  0  0  0  0  0  0  0  0  0
    8.7476    0.2816   24.1963 H   0  0  0  0  0  0  0  0  0  0  0  0
    7.5162   -0.7632   23.5082 H   0  0  0  0  0  0  0  0  0  0  0  0
    5.7309    0.5947   24.5910 H   0  0  0  0  0  0  0  0  0  0  0  0
    6.8890    0.0607   25.8043 H   0  0  0  0  0  0  0  0  0  0  0  0
    8.0259    2.2667   25.7520 H   0  0  0  0  0  0  0  0  0  0  0  0
    6.3011    2.5171   26.0346 H   0  0  0  0  0  0  0  0  0  0  0  0
    5.9505    2.9929   23.6182 H   0  0  0  0  0  0  0  0  0  0  0  0
    7.1482    4.1042   24.2731 H   0  0  0  0  0  0  0  0  0  0  0  0
    7.8720    3.1371   22.0683 H   0  0  0  0  0  0  0  0  0  0  0  0
    8.9791    2.6215   23.3439 H   0  0  0  0  0  0  0  0  0  0  0  0
  1  2  2  0
  2  3  1  0
  3  4  1  0
  4  5  2  0
  5  6  1  0
  6  7  2  0
  7  8  1  0
  8  9  2  0
  9 10  1  0
 10 11  2  0
 11 12  1  0
 12 13  2  0
 12 14  1  0
 11 15  1  0
 10 16  1  0
  9 17  1  0
  7 18  1  0
  5 19  1  0
  3 20  1  0
  3 21  1  0
  2 22  1  0
 22 23  1  0
 23 24  1  0
 24 25  1  0
 25 26  1  0
 26 27  1  0
 27 28  1  0
 27 29  1  0
 26 30  1  0
 26 31  1  0
 25 32  1  0
 25 33  1  0
 24 34  1  0
 24 35  1  0
 23 36  1  0
 23 37  1  0
 13  4  1  0
 27 22  1  0
 13  8  1  0
M  END
>  <cnnaffinities>  (8) 
[5.10747, 4.93276, 4.93295, 5.34632, 5.34623]

>  <score>  (8) 
5.10747

>  <index>  (8) 
7

>  <Smiles>  (8) 
O=C(C(c1c(nc(c2c(c(c(c(c12)[H])[H])[H])[H])[H])[H])([H])[H])N1C(C(C(C(C1([H])[H])([H])[H])([H])[H])([H])[H])([H])[H]

>  <h>  (8) 
<NA>

>  <Training>  (8) 
True

>  <Success>  (8) 
True

>  <enamine_searched>  (8) 
False

>  <enamine_id>  (8) 
nan

$$$$

     RDKit          3D

 66 71  0  0  0  0  0  0  0  0999 V2000
    7.8277   -2.9075   23.4148 C   0  0  0  0  0  0  0  0  0  0  0  0
    7.9155   -1.9274   22.2479 C   0  0  1  0  0  0  0  0  0  0  0  0
    6.6292   -1.8663   21.4010 C   0  0  0  0  0  0  0  0  0  0  0  0
    6.6506   -0.5230   20.8467 N   0  0  0  0  0  0  0  0  0  0  0  0
    5.8305   -0.0650   19.7825 C   0  0  0  0  0  0  0  0  0  0  0  0
    6.3189   -0.0371   18.5035 C   0  0  0  0  0  0  0  0  0  0  0  0
    5.6355    0.4326   17.4337 N   0  0  0  0  0  0  0  0  0  0  0  0
    4.4342    0.9167   17.6334 C   0  0  0  0  0  0  0  0  0  0  0  0
    3.7843    0.9246   18.9033 C   0  0  0  0  0  0  0  0  0  0  0  0
    2.4875    1.4706   19.0940 C   0  0  0  0  0  0  0  0  0  0  0  0
    1.9068    1.4701   20.3335 C   0  0  0  0  0  0  0  0  0  0  0  0
    2.5984    0.9270   21.4341 C   0  0  0  0  0  0  0  0  0  0  0  0
    3.8533    0.3915   21.2768 C   0  0  0  0  0  0  0  0  0  0  0  0
    4.4888    0.3949   20.0090 C   0  0  0  0  0  0  0  0  0  0  0  0
    4.3907   -0.0080   22.1292 H   0  0  0  0  0  0  0  0  0  0  0  0
    2.1510    0.9710   22.4210 H   0  0  0  0  0  0  0  0  0  0  0  0
    0.9164    1.8903   20.4787 H   0  0  0  0  0  0  0  0  0  0  0  0
    1.9764    1.9067   18.2445 H   0  0  0  0  0  0  0  0  0  0  0  0
    3.9212    1.3011   16.7528 H   0  0  0  0  0  0  0  0  0  0  0  0
    7.3157   -0.4158   18.2869 H   0  0  0  0  0  0  0  0  0  0  0  0
    7.6580    0.2718   21.3538 C   0  0  0  0  0  0  0  0  0  0  0  0
    8.0090    1.3315   20.8924 O   0  0  0  0  0  0  0  0  0  0  0  0
    8.2311   -0.4404   22.6021 C   0  0  1  0  0  0  0  0  0  0  0  0
    7.4522   -0.0075   23.8801 C   0  0  0  0  0  0  0  0  0  0  0  0
    7.7741    1.3521   24.3158 N   0  0  0  0  0  0  0  0  0  0  0  0
    6.7753    2.1252   25.0592 C   0  0  0  0  0  0  0  0  0  0  0  0
    6.4378    3.4904   24.4336 C   0  0  0  0  0  0  0  0  0  0  0  0
    5.4252    3.6767   23.7841 O   0  0  0  0  0  0  0  0  0  0  0  0
    7.3406    4.4780   24.7098 N   0  0  0  0  0  0  0  0  0  0  0  0
    7.3912    5.6526   23.8486 C   0  0  0  0  0  0  0  0  0  0  0  0
    8.1837    6.7468   24.4872 C   0  0  0  0  0  0  0  0  0  0  0  0
    9.4882    7.1433   24.2872 C   0  0  0  0  0  0  0  0  0  0  0  0
    9.6898    8.1794   25.2192 C   0  0  0  0  0  0  0  0  0  0  0  0
    8.5973    8.4125   25.9372 N   0  0  0  0  0  0  0  0  0  0  0  0
    7.6952    7.5238   25.4869 N   0  0  0  0  0  0  0  0  0  0  0  0
    6.3511    7.5156   26.0185 C   0  0  0  0  0  0  0  0  0  0  0  0
    6.3399    8.1341   26.9147 H   0  0  0  0  0  0  0  0  0  0  0  0
    5.6354    7.9188   25.2952 H   0  0  0  0  0  0  0  0  0  0  0  0
    6.0684    6.4890   26.2636 H   0  0  0  0  0  0  0  0  0  0  0  0
   10.5820    8.7680   25.3953 H   0  0  0  0  0  0  0  0  0  0  0  0
   10.1822    6.6984   23.5836 H   0  0  0  0  0  0  0  0  0  0  0  0
    6.3604    5.9596   23.6370 H   0  0  0  0  0  0  0  0  0  0  0  0
    7.8472    5.4031   22.8800 H   0  0  0  0  0  0  0  0  0  0  0  0
    8.2234    4.1681   25.1050 H   0  0  0  0  0  0  0  0  0  0  0  0
    7.1272    2.2904   26.0846 H   0  0  0  0  0  0  0  0  0  0  0  0
    5.8484    1.5499   25.1038 H   0  0  0  0  0  0  0  0  0  0  0  0
    9.0748    1.7306   24.4274 C   0  0  0  0  0  0  0  0  0  0  0  0
    9.4246    2.7133   25.0884 O   0  0  0  0  0  0  0  0  0  0  0  0
   10.0771    0.9196   23.6796 C   0  0  0  0  0  0  0  0  0  0  0  0
   11.4160    1.2481   23.8796 C   0  0  0  0  0  0  0  0  0  0  0  0
   12.4068    0.5634   23.2074 C   0  0  0  0  0  0  0  0  0  0  0  0
   12.0444   -0.4060   22.2718 C   0  0  0  0  0  0  0  0  0  0  0  0
   10.7092   -0.7059   22.0443 C   0  0  0  0  0  0  0  0  0  0  0  0
    9.6947   -0.0955   22.7927 C   0  0  0  0  0  0  0  0  0  0  0  0
   10.4716   -1.4214   21.2618 H   0  0  0  0  0  0  0  0  0  0  0  0
   12.8115   -0.9414   21.7204 H   0  0  0  0  0  0  0  0  0  0  0  0
   13.4535    0.7855   23.3955 H   0  0  0  0  0  0  0  0  0  0  0  0
   11.6322    2.0600   24.5599 H   0  0  0  0  0  0  0  0  0  0  0  0
    6.3725   -0.0532   23.6994 H   0  0  0  0  0  0  0  0  0  0  0  0
    7.6922   -0.7198   24.6812 H   0  0  0  0  0  0  0  0  0  0  0  0
    6.6235   -2.6113   20.5978 H   0  0  0  0  0  0  0  0  0  0  0  0
    5.7416   -2.0407   22.0267 H   0  0  0  0  0  0  0  0  0  0  0  0
    8.7153   -2.2663   21.5839 H   0  0  0  0  0  0  0  0  0  0  0  0
    8.7226   -2.8721   24.0453 H   0  0  0  0  0  0  0  0  0  0  0  0
    6.9651   -2.6854   24.0529 H   0  0  0  0  0  0  0  0  0  0  0  0
    7.7099   -3.9365   23.0578 H   0  0  0  0  0  0  0  0  0  0  0  0
  1  2  1  0
  2  3  1  0
  3  4  1  0
  4  5  1  0
  5  6  2  0
  6  7  1  0
  7  8  2  0
  8  9  1  0
  9 10  2  0
 10 11  1  0
 11 12  2  0
 12 13  1  0
 13 14  2  0
 13 15  1  0
 12 16  1  0
 11 17  1  0
 10 18  1  0
  8 19  1  0
  6 20  1  0
  4 21  1  0
 21 22  2  0
 21 23  1  0
 23 24  1  1
 24 25  1  0
 25 26  1  0
 26 27  1  0
 27 28  2  0
 27 29  1  0
 29 30  1  0
 30 31  1  0
 31 32  2  0
 32 33  1  0
 33 34  2  0
 34 35  1  0
 35 36  1  0
 36 37  1  0
 36 38  1  0
 36 39  1  0
 33 40  1  0
 32 41  1  0
 30 42  1  0
 30 43  1  0
 29 44  1  0
 26 45  1  0
 26 46  1  0
 25 47  1  0
 47 48  2  0
 47 49  1  0
 49 50  2  0
 50 51  1  0
 51 52  2  0
 52 53  1  0
 53 54  2  0
 53 55  1  0
 52 56  1  0
 51 57  1  0
 50 58  1  0
 24 59  1  0
 24 60  1  0
  3 61  1  0
  3 62  1  0
  2 63  1  6
  1 64  1  0
  1 65  1  0
  1 66  1  0
 23  2  1  0
 35 31  1  0
 54 49  1  0
 14  5  1  0
 54 23  1  0
 14  9  1  0
M  END
>  <cnnaffinities>  (9) 
[6.72748, 6.76344, 6.38926]

>  <score>  (9) 
6.72748

>  <index>  (9) 
8

>  <Smiles>  (9) 
C([C@]1(C(N(c2c(nc(c3c(c(c(c(c23)[H])[H])[H])[H])[H])[H])C(=O)[C@]21C(N(C(C(=O)N(C(c1c(c(nn1C([H])([H])[H])[H])[H])([H])[H])[H])([H])[H])C(=O)c1c(c(c(c(c21)[H])[H])[H])[H])([H])[H])([H])[H])[H])([H])([H])[H]

>  <h>  (9) 
<NA>

>  <Training>  (9) 
True

>  <Success>  (9) 
True

>  <enamine_searched>  (9) 
False

>  <enamine_id>  (9) 
nan

$$$$

     RDKit          3D

 58 63  0  0  0  0  0  0  0  0999 V2000
    6.6964    2.4241   29.9975 C   0  0  0  0  0  0  0  0  0  0  0  0
    6.5627    1.5278   28.8088 C   0  0  0  0  0  0  0  0  0  0  0  0
    7.3385    0.3810   28.4803 C   0  0  0  0  0  0  0  0  0  0  0  0
    6.8216   -0.0334   27.3011 C   0  0  0  0  0  0  0  0  0  0  0  0
    7.1975   -1.1353   26.3588 C   0  0  0  0  0  0  0  0  0  0  0  0
    8.0575   -0.7043   25.2656 N   0  0  0  0  0  0  0  0  0  0  0  0
    7.4584   -0.1300   24.0692 C   0  0  0  0  0  0  0  0  0  0  0  0
    8.2550   -0.4838   22.7867 C   0  0  2  0  0  0  0  0  0  0  0  0
    7.6328    0.3763   21.6693 C   0  0  0  0  0  0  0  0  0  0  0  0
    7.7447    1.5774   21.5243 O   0  0  0  0  0  0  0  0  0  0  0  0
    6.8504   -0.4377   20.8795 N   0  0  0  0  0  0  0  0  0  0  0  0
    6.0301    0.0410   19.8313 C   0  0  0  0  0  0  0  0  0  0  0  0
    6.4093   -0.1821   18.5346 C   0  0  0  0  0  0  0  0  0  0  0  0
    5.7347    0.2704   17.4548 N   0  0  0  0  0  0  0  0  0  0  0  0
    4.6565    0.9799   17.6713 C   0  0  0  0  0  0  0  0  0  0  0  0
    4.1022    1.2051   18.9600 C   0  0  0  0  0  0  0  0  0  0  0  0
    2.8798    1.9039   19.1230 C   0  0  0  0  0  0  0  0  0  0  0  0
    2.3231    2.0498   20.3660 C   0  0  0  0  0  0  0  0  0  0  0  0
    2.9581    1.4873   21.5031 C   0  0  0  0  0  0  0  0  0  0  0  0
    4.1569    0.8245   21.3682 C   0  0  0  0  0  0  0  0  0  0  0  0
    4.7733    0.6823   20.0863 C   0  0  0  0  0  0  0  0  0  0  0  0
    4.6666    0.4274   22.2422 H   0  0  0  0  0  0  0  0  0  0  0  0
    2.5087    1.6250   22.4838 H   0  0  0  0  0  0  0  0  0  0  0  0
    1.4031    2.6150   20.4794 H   0  0  0  0  0  0  0  0  0  0  0  0
    2.4144    2.3116   18.2300 H   0  0  0  0  0  0  0  0  0  0  0  0
    4.1493    1.3784   16.7951 H   0  0  0  0  0  0  0  0  0  0  0  0
    7.3421   -0.7108   18.3332 H   0  0  0  0  0  0  0  0  0  0  0  0
    6.8484   -1.8289   21.2580 C   0  0  0  0  0  0  0  0  0  0  0  0
    8.0275   -1.9402   22.2338 C   0  0  2  0  0  0  0  0  0  0  0  0
    7.7938   -3.0425   23.2567 C   0  0  0  0  0  0  0  0  0  0  0  0
    8.6114   -3.0980   23.9784 H   0  0  0  0  0  0  0  0  0  0  0  0
    7.6979   -4.0068   22.7462 H   0  0  0  0  0  0  0  0  0  0  0  0
    6.8631   -2.8549   23.8045 H   0  0  0  0  0  0  0  0  0  0  0  0
    8.9278   -2.1815   21.6504 H   0  0  0  0  0  0  0  0  0  0  0  0
    5.8988   -2.1316   21.7318 H   0  0  0  0  0  0  0  0  0  0  0  0
    6.9616   -2.4512   20.3675 H   0  0  0  0  0  0  0  0  0  0  0  0
    9.7201   -0.1670   23.0631 C   0  0  0  0  0  0  0  0  0  0  0  0
   10.6177    0.1126   22.0253 C   0  0  0  0  0  0  0  0  0  0  0  0
   11.9518    0.3486   22.3128 C   0  0  0  0  0  0  0  0  0  0  0  0
   12.8052    0.6617   21.3278 F   0  0  0  0  0  0  0  0  0  0  0  0
   12.4753    0.2761   23.5957 C   0  0  0  0  0  0  0  0  0  0  0  0
   11.5961   -0.0096   24.6145 C   0  0  0  0  0  0  0  0  0  0  0  0
   10.2387   -0.1995   24.3634 C   0  0  0  0  0  0  0  0  0  0  0  0
    9.3788   -0.4698   25.5457 C   0  0  0  0  0  0  0  0  0  0  0  0
    9.8503   -0.4916   26.6742 O   0  0  0  0  0  0  0  0  0  0  0  0
   11.9424   -0.0950   25.6352 H   0  0  0  0  0  0  0  0  0  0  0  0
   13.5326    0.4497   23.7713 H   0  0  0  0  0  0  0  0  0  0  0  0
   10.2783    0.1525   20.9986 H   0  0  0  0  0  0  0  0  0  0  0  0
    6.4209   -0.4717   23.9830 H   0  0  0  0  0  0  0  0  0  0  0  0
    7.4146    0.9681   24.1392 H   0  0  0  0  0  0  0  0  0  0  0  0
    6.2916   -1.5824   25.9418 H   0  0  0  0  0  0  0  0  0  0  0  0
    7.7250   -1.9072   26.9181 H   0  0  0  0  0  0  0  0  0  0  0  0
    5.8106    0.7677   26.9426 O   0  0  0  0  0  0  0  0  0  0  0  0
    5.6503    1.7577   27.8944 N   0  0  0  0  0  0  0  0  0  0  0  0
    8.1819   -0.0412   29.0077 H   0  0  0  0  0  0  0  0  0  0  0  0
    6.2290    3.3893   29.7867 H   0  0  0  0  0  0  0  0  0  0  0  0
    6.2206    1.9802   30.8790 H   0  0  0  0  0  0  0  0  0  0  0  0
    7.7493    2.5827   30.2436 H   0  0  0  0  0  0  0  0  0  0  0  0
  1  2  1  0
  2  3  1  0
  3  4  2  0
  4  5  1  0
  5  6  1  0
  6  7  1  0
  8  7  1  1
  8  9  1  0
  9 10  2  0
  9 11  1  0
 11 12  1  0
 12 13  2  0
 13 14  1  0
 14 15  2  0
 15 16  1  0
 16 17  2  0
 17 18  1  0
 18 19  2  0
 19 20  1  0
 20 21  2  0
 20 22  1  0
 19 23  1  0
 18 24  1  0
 17 25  1  0
 15 26  1  0
 13 27  1  0
 11 28  1  0
 28 29  1  0
 29 30  1  0
 30 31  1  0
 30 32  1  0
 30 33  1  0
 29 34  1  6
 28 35  1  0
 28 36  1  0
  8 37  1  0
 37 38  2  0
 38 39  1  0
 39 40  1  0
 39 41  2  0
 41 42  1  0
 42 43  2  0
 43 44  1  0
 44 45  2  0
 42 46  1  0
 41 47  1  0
 38 48  1  0
  7 49  1  0
  7 50  1  0
  5 51  1  0
  5 52  1  0
  4 53  1  0
 53 54  1  0
  3 55  1  0
  1 56  1  0
  1 57  1  0
  1 58  1  0
 54  2  2  0
 44  6  1  0
 29  8  1  0
 43 37  1  0
 21 12  1  0
 21 16  1  0
M  END
>  <cnnaffinities>  (10) 
[6.59819]

>  <score>  (10) 
6.59819

>  <index>  (10) 
9

>  <Smiles>  (10) 
C(c1c(c(C(N2C([C@@]3(C(=O)N(c4c(nc(c5c(c(c(c(c45)[H])[H])[H])[H])[H])[H])C([C@@]3(C([H])([H])[H])[H])([H])[H])c3c(c(F)c(c(c3C2=O)[H])[H])[H])([H])[H])([H])[H])on1)[H])([H])([H])[H]

>  <h>  (10) 
<NA>

>  <Training>  (10) 
True

>  <Success>  (10) 
True

>  <enamine_searched>  (10) 
False

>  <enamine_id>  (10) 
nan

$$$$

     RDKit          3D

 72 77  0  0  0  0  0  0  0  0999 V2000
    7.4796    8.3760   24.7148 C   0  0  0  0  0  0  0  0  0  0  0  0
    6.7566    7.3197   23.9042 C   0  0  1  0  0  0  0  0  0  0  0  0
    7.4878    5.9838   23.9087 C   0  0  0  0  0  0  0  0  0  0  0  0
    6.6830    4.9613   23.1499 N   0  0  0  0  0  4  0  0  0  0  0  0
    7.3965    3.6545   22.9836 C   0  0  0  0  0  0  0  0  0  0  0  0
    7.5842    2.8841   24.2915 C   0  0  0  0  0  0  0  0  0  0  0  0
    8.3985    1.7082   24.0589 N   0  0  0  0  0  0  0  0  0  0  0  0
    7.7853    0.4098   23.8754 C   0  0  0  0  0  0  0  0  0  0  0  0
    8.3622   -0.3435   22.6478 C   0  0  2  0  0  0  0  0  0  0  0  0
    7.8850    0.2987   21.3200 C   0  0  0  0  0  0  0  0  0  0  0  0
    8.3456    1.2755   20.7571 O   0  0  0  0  0  0  0  0  0  0  0  0
    6.8145   -0.4347   20.8663 N   0  0  0  0  0  0  0  0  0  0  0  0
    5.9991    0.0148   19.8100 C   0  0  0  0  0  0  0  0  0  0  0  0
    6.4221   -0.1397   18.5171 C   0  0  0  0  0  0  0  0  0  0  0  0
    5.7366    0.3099   17.4423 N   0  0  0  0  0  0  0  0  0  0  0  0
    4.6268    0.9624   17.6687 C   0  0  0  0  0  0  0  0  0  0  0  0
    4.0582    1.1546   18.9578 C   0  0  0  0  0  0  0  0  0  0  0  0
    2.8433    1.8619   19.1379 C   0  0  0  0  0  0  0  0  0  0  0  0
    2.2933    1.9925   20.3837 C   0  0  0  0  0  0  0  0  0  0  0  0
    2.9344    1.4222   21.5092 C   0  0  0  0  0  0  0  0  0  0  0  0
    4.1352    0.7641   21.3662 C   0  0  0  0  0  0  0  0  0  0  0  0
    4.7379    0.6302   20.0757 C   0  0  0  0  0  0  0  0  0  0  0  0
    4.6286    0.3511   22.2405 H   0  0  0  0  0  0  0  0  0  0  0  0
    2.4867    1.5360   22.4935 H   0  0  0  0  0  0  0  0  0  0  0  0
    1.3640    2.5391   20.5131 H   0  0  0  0  0  0  0  0  0  0  0  0
    2.3661    2.2720   18.2531 H   0  0  0  0  0  0  0  0  0  0  0  0
    4.1158    1.3729   16.7997 H   0  0  0  0  0  0  0  0  0  0  0  0
    7.3793   -0.6173   18.3188 H   0  0  0  0  0  0  0  0  0  0  0  0
    6.5213   -1.6244   21.6278 C   0  0  0  0  0  0  0  0  0  0  0  0
    7.7509   -1.7741   22.5273 C   0  0  2  0  0  0  0  0  0  0  0  0
    7.4134   -2.5058   23.8172 C   0  0  0  0  0  0  0  0  0  0  0  0
    6.6151   -1.9843   24.3601 H   0  0  0  0  0  0  0  0  0  0  0  0
    7.0520   -3.5111   23.5766 H   0  0  0  0  0  0  0  0  0  0  0  0
    8.2816   -2.5952   24.4779 H   0  0  0  0  0  0  0  0  0  0  0  0
    8.4642   -2.3827   21.9682 H   0  0  0  0  0  0  0  0  0  0  0  0
    6.3908   -2.4842   20.9630 H   0  0  0  0  0  0  0  0  0  0  0  0
    5.6009   -1.5377   22.2241 H   0  0  0  0  0  0  0  0  0  0  0  0
    9.8682   -0.2868   22.7545 C   0  0  0  0  0  0  0  0  0  0  0  0
   10.6470   -1.2277   22.0823 C   0  0  0  0  0  0  0  0  0  0  0  0
   12.0209   -1.1737   22.1628 C   0  0  0  0  0  0  0  0  0  0  0  0
   12.9164   -2.4120   21.3546 Cl  0  0  0  0  0  0  0  0  0  0  0  0
   12.6870   -0.1737   22.8665 C   0  0  0  0  0  0  0  0  0  0  0  0
   11.9235    0.7897   23.4954 C   0  0  0  0  0  0  0  0  0  0  0  0
   10.5303    0.7429   23.4367 C   0  0  0  0  0  0  0  0  0  0  0  0
    9.7541    1.8588   24.0698 C   0  0  0  0  0  0  0  0  0  0  0  0
   10.3059    2.8441   24.5382 O   0  0  0  0  0  0  0  0  0  0  0  0
   12.3958    1.6014   24.0352 H   0  0  0  0  0  0  0  0  0  0  0  0
   13.7715   -0.1483   22.8910 H   0  0  0  0  0  0  0  0  0  0  0  0
   10.2017   -2.0046   21.4728 H   0  0  0  0  0  0  0  0  0  0  0  0
    7.9653   -0.2055   24.7705 H   0  0  0  0  0  0  0  0  0  0  0  0
    6.7048    0.5456   23.7616 H   0  0  0  0  0  0  0  0  0  0  0  0
    6.6156    2.5781   24.6986 H   0  0  0  0  0  0  0  0  0  0  0  0
    8.0852    3.4988   25.0448 H   0  0  0  0  0  0  0  0  0  0  0  0
    6.8401    3.0421   22.2654 H   0  0  0  0  0  0  0  0  0  0  0  0
    8.3780    3.8635   22.5457 H   0  0  0  0  0  0  0  0  0  0  0  0
    5.2994    4.8518   23.7468 C   0  0  0  0  0  0  0  0  0  0  0  0
    4.6308    6.2253   23.8202 C   0  0  2  0  0  0  0  0  0  0  0  0
    4.1666    6.7188   22.4554 C   0  0  0  0  0  0  0  0  0  0  0  0
    3.4369    6.0164   22.0396 H   0  0  0  0  0  0  0  0  0  0  0  0
    4.9952    6.7937   21.7425 H   0  0  0  0  0  0  0  0  0  0  0  0
    3.6997    7.7032   22.5496 H   0  0  0  0  0  0  0  0  0  0  0  0
    5.4624    7.1743   24.4813 O   0  0  0  0  0  0  0  0  0  0  0  0
    3.7557    6.1296   24.4737 H   0  0  0  0  0  0  0  0  0  0  0  0
    5.3839    4.4387   24.7543 H   0  0  0  0  0  0  0  0  0  0  0  0
    4.7016    4.1691   23.1354 H   0  0  0  0  0  0  0  0  0  0  0  0
    6.5632    5.3216   22.1815 H   0  0  0  0  0  0  0  0  0  0  0  0
    8.4755    6.0758   23.4452 H   0  0  0  0  0  0  0  0  0  0  0  0
    7.6182    5.6492   24.9424 H   0  0  0  0  0  0  0  0  0  0  0  0
    6.6713    7.6505   22.8569 H   0  0  0  0  0  0  0  0  0  0  0  0
    7.5550    8.0483   25.7570 H   0  0  0  0  0  0  0  0  0  0  0  0
    6.9198    9.3139   24.6823 H   0  0  0  0  0  0  0  0  0  0  0  0
    8.4886    8.5556   24.3281 H   0  0  0  0  0  0  0  0  0  0  0  0
  1  2  1  0
  2  3  1  0
  3  4  1  0
  4  5  1  0
  5  6  1  0
  6  7  1  0
  7  8  1  0
  9  8  1  1
  9 10  1  0
 10 11  2  0
 10 12  1  0
 12 13  1  0
 13 14  2  0
 14 15  1  0
 15 16  2  0
 16 17  1  0
 17 18  2  0
 18 19  1  0
 19 20  2  0
 20 21  1  0
 21 22  2  0
 21 23  1  0
 20 24  1  0
 19 25  1  0
 18 26  1  0
 16 27  1  0
 14 28  1  0
 12 29  1  0
 29 30  1  0
 30 31  1  0
 31 32  1  0
 31 33  1  0
 31 34  1  0
 30 35  1  6
 29 36  1  0
 29 37  1  0
  9 38  1  0
 38 39  2  0
 39 40  1  0
 40 41  1  0
 40 42  2  0
 42 43  1  0
 43 44  2  0
 44 45  1  0
 45 46  2  0
 43 47  1  0
 42 48  1  0
 39 49  1  0
  8 50  1  0
  8 51  1  0
  6 52  1  0
  6 53  1  0
  5 54  1  0
  5 55  1  0
  4 56  1  0
 56 57  1  0
 57 58  1  0
 58 59  1  0
 58 60  1  0
 58 61  1  0
 57 62  1  0
 57 63  1  1
 56 64  1  0
 56 65  1  0
  4 66  1  0
  3 67  1  0
  3 68  1  0
  2 69  1  6
  1 70  1  0
  1 71  1  0
  1 72  1  0
 62  2  1  0
 45  7  1  0
 30  9  1  0
 44 38  1  0
 22 13  1  0
 22 17  1  0
M  CHG  1   4   1
M  END
>  <cnnaffinities>  (11) 
[6.67926, 6.60164, 6.59014]

>  <score>  (11) 
6.67926

>  <index>  (11) 
10

>  <Smiles>  (11) 
C([C@]1(C([N+](C(C(N2C([C@@]3(C(=O)N(c4c(nc(c5c(c(c(c(c45)[H])[H])[H])[H])[H])[H])C([C@@]3(C([H])([H])[H])[H])([H])[H])c3c(c(Cl)c(c(c3C2=O)[H])[H])[H])([H])[H])([H])[H])([H])[H])(C([C@](C([H])([H])[H])(O1)[H])([H])[H])[H])([H])[H])[H])([H])([H])[H]

>  <h>  (11) 
<NA>

>  <Training>  (11) 
True

>  <Success>  (11) 
True

>  <enamine_searched>  (11) 
False

>  <enamine_id>  (11) 
nan

$$$$

     RDKit          3D

 54 57  0  0  0  0  0  0  0  0999 V2000
    9.3919    1.9483   24.1990 C   0  0  0  0  0  0  0  0  0  0  0  0
    8.5094    0.8509   24.1222 O   0  0  0  0  0  0  0  0  0  0  0  0
    9.0417   -0.3422   23.7204 C   0  0  0  0  0  0  0  0  0  0  0  0
   10.4054   -0.5261   23.4714 C   0  0  0  0  0  0  0  0  0  0  0  0
   10.8867   -1.7778   23.0975 C   0  0  0  0  0  0  0  0  0  0  0  0
   10.0190   -2.8497   22.9634 C   0  0  0  0  0  0  0  0  0  0  0  0
    8.6581   -2.6564   23.1947 C   0  0  0  0  0  0  0  0  0  0  0  0
    8.1458   -1.4131   23.5607 C   0  0  0  0  0  0  0  0  0  0  0  0
    6.6622   -1.2204   23.8606 C   0  0  2  0  0  0  0  0  0  0  0  0
    6.3729   -1.8418   25.2371 C   0  0  0  0  0  0  0  0  0  0  0  0
    4.8836   -1.9012   25.5684 C   0  0  2  0  0  0  0  0  0  0  0  0
    4.6238   -2.5419   26.9253 C   0  0  0  0  0  0  0  0  0  0  0  0
    5.1311   -2.0051   27.7331 H   0  0  0  0  0  0  0  0  0  0  0  0
    3.5486   -2.5587   27.1349 H   0  0  0  0  0  0  0  0  0  0  0  0
    4.9814   -3.5794   26.9220 H   0  0  0  0  0  0  0  0  0  0  0  0
    4.1838   -2.7070   24.4813 C   0  0  0  0  0  0  0  0  0  0  0  0
    4.3804   -2.0622   23.1344 C   0  0  0  0  0  0  0  0  0  0  0  0
    5.7943   -1.8240   22.8395 N   0  0  0  0  0  0  0  0  0  0  0  0
    6.0485   -1.7581   21.4746 C   0  0  0  0  0  0  0  0  0  0  0  0
    5.5750   -2.5872   20.7181 O   0  0  0  0  0  0  0  0  0  0  0  0
    6.8228   -0.5623   20.9235 C   0  0  0  0  0  0  0  0  0  0  0  0
    6.0252    0.0108   19.7937 C   0  0  0  0  0  0  0  0  0  0  0  0
    6.4148   -0.1607   18.4964 C   0  0  0  0  0  0  0  0  0  0  0  0
    5.7469    0.3140   17.4161 N   0  0  0  0  0  0  0  0  0  0  0  0
    4.6421    0.9752   17.6500 C   0  0  0  0  0  0  0  0  0  0  0  0
    4.0887    1.1847   18.9416 C   0  0  0  0  0  0  0  0  0  0  0  0
    2.8674    1.8781   19.1303 C   0  0  0  0  0  0  0  0  0  0  0  0
    2.3128    1.9981   20.3766 C   0  0  0  0  0  0  0  0  0  0  0  0
    2.9707    1.4332   21.4941 C   0  0  0  0  0  0  0  0  0  0  0  0
    4.1879    0.8042   21.3377 C   0  0  0  0  0  0  0  0  0  0  0  0
    4.7840    0.6624   20.0516 C   0  0  0  0  0  0  0  0  0  0  0  0
    4.7076    0.4163   22.2052 H   0  0  0  0  0  0  0  0  0  0  0  0
    2.5278    1.5543   22.4792 H   0  0  0  0  0  0  0  0  0  0  0  0
    1.3890    2.5538   20.5086 H   0  0  0  0  0  0  0  0  0  0  0  0
    2.3682    2.2758   18.2519 H   0  0  0  0  0  0  0  0  0  0  0  0
    4.1256    1.3930   16.7852 H   0  0  0  0  0  0  0  0  0  0  0  0
    7.3556   -0.6690   18.2799 H   0  0  0  0  0  0  0  0  0  0  0  0
    7.8013   -0.9088   20.5736 H   0  0  0  0  0  0  0  0  0  0  0  0
    6.9761    0.2091   21.6834 H   0  0  0  0  0  0  0  0  0  0  0  0
    3.8068   -1.1240   23.0990 H   0  0  0  0  0  0  0  0  0  0  0  0
    4.0118   -2.6959   22.3277 H   0  0  0  0  0  0  0  0  0  0  0  0
    4.5843   -3.7295   24.4592 H   0  0  0  0  0  0  0  0  0  0  0  0
    3.1093   -2.7735   24.6859 H   0  0  0  0  0  0  0  0  0  0  0  0
    4.4735   -0.8744   25.5738 H   0  0  0  0  0  0  0  0  0  0  0  0
    6.9228   -1.2832   26.0060 H   0  0  0  0  0  0  0  0  0  0  0  0
    6.7843   -2.8630   25.2393 H   0  0  0  0  0  0  0  0  0  0  0  0
    6.4614   -0.1424   23.9180 H   0  0  0  0  0  0  0  0  0  0  0  0
    7.9883   -3.5075   23.0814 H   0  0  0  0  0  0  0  0  0  0  0  0
   10.3970   -3.8287   22.6789 H   0  0  0  0  0  0  0  0  0  0  0  0
   11.9498   -1.9091   22.9081 H   0  0  0  0  0  0  0  0  0  0  0  0
   11.1053    0.2958   23.5574 H   0  0  0  0  0  0  0  0  0  0  0  0
   10.2128    1.7422   24.8963 H   0  0  0  0  0  0  0  0  0  0  0  0
    8.8180    2.8041   24.5602 H   0  0  0  0  0  0  0  0  0  0  0  0
    9.8098    2.1787   23.2100 H   0  0  0  0  0  0  0  0  0  0  0  0
  1  2  1  0
  2  3  1  0
  3  4  2  0
  4  5  1  0
  5  6  2  0
  6  7  1  0
  7  8  2  0
  8  9  1  0
  9 10  1  0
 10 11  1  0
 11 12  1  0
 12 13  1  0
 12 14  1  0
 12 15  1  0
 11 16  1  0
 16 17  1  0
 17 18  1  0
 18 19  1  0
 19 20  2  0
 19 21  1  0
 21 22  1  0
 22 23  2  0
 23 24  1  0
 24 25  2  0
 25 26  1  0
 26 27  2  0
 27 28  1  0
 28 29  2  0
 29 30  1  0
 30 31  2  0
 30 32  1  0
 29 33  1  0
 28 34  1  0
 27 35  1  0
 25 36  1  0
 23 37  1  0
 21 38  1  0
 21 39  1  0
 17 40  1  0
 17 41  1  0
 16 42  1  0
 16 43  1  0
 11 44  1  1
 10 45  1  0
 10 46  1  0
  9 47  1  1
  7 48  1  0
  6 49  1  0
  5 50  1  0
  4 51  1  0
  1 52  1  0
  1 53  1  0
  1 54  1  0
  8  3  1  0
 18  9  1  0
 31 22  1  0
 31 26  1  0
M  END
>  <cnnaffinities>  (12) 
[6.14793, 5.96416, 6.07554, 6.1082]

>  <score>  (12) 
6.14793

>  <index>  (12) 
11

>  <Smiles>  (12) 
C(Oc1c(c(c(c(c1[C@@]1(C([C@](C([H])([H])[H])(C(C(N1C(=O)C(c1c(nc(c2c(c(c(c(c12)[H])[H])[H])[H])[H])[H])([H])[H])([H])[H])([H])[H])[H])([H])[H])[H])[H])[H])[H])[H])([H])([H])[H]

>  <h>  (12) 
<NA>

>  <Training>  (12) 
True

>  <Success>  (12) 
True

>  <enamine_searched>  (12) 
False

>  <enamine_id>  (12) 
nan

$$$$

     RDKit          3D

 47 50  0  0  0  0  0  0  0  0999 V2000
    8.3417    1.3302   20.6837 O   0  0  0  0  0  0  0  0  0  0  0  0
    7.7686    0.5715   21.4544 C   0  0  0  0  0  0  0  0  0  0  0  0
    6.8607   -0.5485   20.9375 C   0  0  0  0  0  0  0  0  0  0  0  0
    5.9482   -0.0608   19.8472 C   0  0  0  0  0  0  0  0  0  0  0  0
    6.3764   -0.1487   18.5473 C   0  0  0  0  0  0  0  0  0  0  0  0
    5.7247    0.3421   17.4653 N   0  0  0  0  0  0  0  0  0  0  0  0
    4.5968    0.9654   17.6920 C   0  0  0  0  0  0  0  0  0  0  0  0
    4.0182    1.1293   18.9788 C   0  0  0  0  0  0  0  0  0  0  0  0
    2.7831    1.8056   19.1477 C   0  0  0  0  0  0  0  0  0  0  0  0
    2.2028    1.8961   20.3811 C   0  0  0  0  0  0  0  0  0  0  0  0
    2.8377    1.3062   21.4948 C   0  0  0  0  0  0  0  0  0  0  0  0
    4.0452    0.6660   21.3636 C   0  0  0  0  0  0  0  0  0  0  0  0
    4.6883    0.5732   20.0976 C   0  0  0  0  0  0  0  0  0  0  0  0
    4.5074    0.2165   22.2374 H   0  0  0  0  0  0  0  0  0  0  0  0
    2.3545    1.3678   22.4648 H   0  0  0  0  0  0  0  0  0  0  0  0
    1.2611    2.4232   20.5078 H   0  0  0  0  0  0  0  0  0  0  0  0
    2.2961    2.2154   18.2676 H   0  0  0  0  0  0  0  0  0  0  0  0
    4.0915    1.3973   16.8275 H   0  0  0  0  0  0  0  0  0  0  0  0
    7.3462   -0.5959   18.3320 H   0  0  0  0  0  0  0  0  0  0  0  0
    6.3098   -1.0293   21.7483 H   0  0  0  0  0  0  0  0  0  0  0  0
    7.5347   -1.3143   20.5252 H   0  0  0  0  0  0  0  0  0  0  0  0
    7.9388    0.6496   22.8005 N   0  0  0  0  0  0  0  0  0  0  0  0
    8.8500    1.6507   23.3320 C   0  0  0  0  0  0  0  0  0  0  0  0
    9.0280    1.2597   24.8020 C   0  0  2  0  0  0  0  0  0  0  0  0
   10.3030    0.4379   24.9874 C   0  0  0  0  0  0  0  0  0  0  0  0
   11.4064    1.2407   24.7326 F   0  0  0  0  0  0  0  0  0  0  0  0
   10.4062    0.0490   26.0053 H   0  0  0  0  0  0  0  0  0  0  0  0
   10.3214   -0.4112   24.2888 H   0  0  0  0  0  0  0  0  0  0  0  0
    7.7602    0.4588   25.1697 C   0  0  0  0  0  0  0  0  0  0  0  0
    6.6366    1.3772   25.6998 C   0  0  0  0  0  0  0  0  0  0  0  0
    5.6468    0.4743   26.4617 C   0  0  0  0  0  0  0  0  0  0  0  0
    6.4364   -0.8093   26.8036 C   0  0  0  0  0  0  0  0  0  0  0  0
    7.8748   -0.5264   26.3471 C   0  0  0  0  0  0  0  0  0  0  0  0
    8.4291   -1.4403   26.1003 H   0  0  0  0  0  0  0  0  0  0  0  0
    8.4070   -0.0217   27.1666 H   0  0  0  0  0  0  0  0  0  0  0  0
    6.0210   -1.6684   26.2635 H   0  0  0  0  0  0  0  0  0  0  0  0
    6.3992   -1.0497   27.8717 H   0  0  0  0  0  0  0  0  0  0  0  0
    4.7685    0.2376   25.8530 H   0  0  0  0  0  0  0  0  0  0  0  0
    5.2915    0.9853   27.3625 H   0  0  0  0  0  0  0  0  0  0  0  0
    6.1689    1.9715   24.9079 H   0  0  0  0  0  0  0  0  0  0  0  0
    7.0931    2.0723   26.4154 H   0  0  0  0  0  0  0  0  0  0  0  0
    7.3757   -0.2167   23.8328 C   0  0  0  0  0  0  0  0  0  0  0  0
    6.2872   -0.2950   23.7264 H   0  0  0  0  0  0  0  0  0  0  0  0
    7.7956   -1.2312   23.7581 H   0  0  0  0  0  0  0  0  0  0  0  0
    9.0960    2.1693   25.4030 H   0  0  0  0  0  0  0  0  0  0  0  0
    8.4245    2.6529   23.2043 H   0  0  0  0  0  0  0  0  0  0  0  0
    9.8051    1.6285   22.7983 H   0  0  0  0  0  0  0  0  0  0  0  0
  1  2  2  0
  2  3  1  0
  3  4  1  0
  4  5  2  0
  5  6  1  0
  6  7  2  0
  7  8  1  0
  8  9  2  0
  9 10  1  0
 10 11  2  0
 11 12  1  0
 12 13  2  0
 12 14  1  0
 11 15  1  0
 10 16  1  0
  9 17  1  0
  7 18  1  0
  5 19  1  0
  3 20  1  0
  3 21  1  0
  2 22  1  0
 22 23  1  0
 23 24  1  0
 24 25  1  0
 25 26  1  0
 25 27  1  0
 25 28  1  0
 24 29  1  0
 29 30  1  0
 30 31  1  0
 31 32  1  0
 32 33  1  0
 33 34  1  0
 33 35  1  0
 32 36  1  0
 32 37  1  0
 31 38  1  0
 31 39  1  0
 30 40  1  0
 30 41  1  0
 29 42  1  0
 42 43  1  0
 42 44  1  0
 24 45  1  1
 23 46  1  0
 23 47  1  0
 13  4  1  0
 42 22  1  0
 13  8  1  0
 33 29  1  0
M  END
>  <cnnaffinities>  (13) 
[5.68976, 5.56191, 5.71145, 5.74911]

>  <score>  (13) 
5.68976

>  <index>  (13) 
12

>  <Smiles>  (13) 
O=C(C(c1c(nc(c2c(c(c(c(c12)[H])[H])[H])[H])[H])[H])([H])[H])N1C([C@](C(F)([H])[H])(C2(C(C(C(C2([H])[H])([H])[H])([H])[H])([H])[H])C1([H])[H])[H])([H])[H]

>  <h>  (13) 
<NA>

>  <Training>  (13) 
True

>  <Success>  (13) 
True

>  <enamine_searched>  (13) 
False

>  <enamine_id>  (13) 
nan

$$$$

     RDKit          3D

 67 72  0  0  0  0  0  0  0  0999 V2000
    8.3680   -7.6351   24.2950 C   0  0  0  0  0  0  0  0  0  0  0  0
    7.7317   -6.4463   23.7606 N   0  0  0  0  0  0  0  0  0  0  0  0
    6.4254   -6.1935   24.0577 C   0  0  0  0  0  0  0  0  0  0  0  0
    5.7721   -6.9449   24.7619 O   0  0  0  0  0  0  0  0  0  0  0  0
    5.7981   -4.9519   23.4134 C   0  0  0  0  0  0  0  0  0  0  0  0
    6.2801   -3.6765   23.9027 N   0  0  0  0  0  0  0  0  0  0  0  0
    7.4363   -3.0524   23.2856 C   0  0  0  0  0  0  0  0  0  0  0  0
    7.1609   -1.5855   22.8888 C   0  0  2  0  0  0  0  0  0  0  0  0
    6.1904   -1.5724   21.6843 C   0  0  0  0  0  0  0  0  0  0  0  0
    5.2384   -2.3085   21.5150 O   0  0  0  0  0  0  0  0  0  0  0  0
    6.5971   -0.5932   20.8056 N   0  0  0  0  0  0  0  0  0  0  0  0
    5.7846   -0.0987   19.7533 C   0  0  0  0  0  0  0  0  0  0  0  0
    6.2686   -0.0817   18.4676 C   0  0  0  0  0  0  0  0  0  0  0  0
    5.5952    0.4052   17.3993 N   0  0  0  0  0  0  0  0  0  0  0  0
    4.4034    0.9022   17.6110 C   0  0  0  0  0  0  0  0  0  0  0  0
    3.7856    0.9660   18.8899 C   0  0  0  0  0  0  0  0  0  0  0  0
    2.5071    1.5590   19.0662 C   0  0  0  0  0  0  0  0  0  0  0  0
    1.9462    1.6384   20.3096 C   0  0  0  0  0  0  0  0  0  0  0  0
    2.6502    1.1524   21.4357 C   0  0  0  0  0  0  0  0  0  0  0  0
    3.8847    0.5728   21.2922 C   0  0  0  0  0  0  0  0  0  0  0  0
    4.4863    0.4563   20.0048 C   0  0  0  0  0  0  0  0  0  0  0  0
    4.4211    0.2191   22.1681 H   0  0  0  0  0  0  0  0  0  0  0  0
    2.2101    1.2431   22.4241 H   0  0  0  0  0  0  0  0  0  0  0  0
    0.9740    2.1034   20.4486 H   0  0  0  0  0  0  0  0  0  0  0  0
    2.0017    1.9637   18.1948 H   0  0  0  0  0  0  0  0  0  0  0  0
    3.8718    1.3017   16.7478 H   0  0  0  0  0  0  0  0  0  0  0  0
    7.2549   -0.4921   18.2556 H   0  0  0  0  0  0  0  0  0  0  0  0
    7.8071    0.0913   21.2294 C   0  0  0  0  0  0  0  0  0  0  0  0
    8.3982   -0.8351   22.3198 C   0  0  2  0  0  0  0  0  0  0  0  0
    9.5333   -1.7125   21.7380 C   0  0  0  0  0  0  0  0  0  0  0  0
   10.7349   -0.9867   21.6673 O   0  0  0  0  0  0  0  0  0  0  0  0
   11.7271   -1.3655   22.5926 C   0  0  0  0  0  0  0  0  0  0  0  0
   12.8274   -0.4187   22.1476 C   0  0  0  0  0  0  0  0  0  0  0  0
   13.5511    0.1604   23.0772 C   0  0  0  0  0  0  0  0  0  0  0  0
   13.0474   -0.6376   22.0139 C   0  0  0  0  0  0  0  0  0  0  0  0
   13.3439   -0.7189   20.6125 H   0  0  0  0  0  0  0  0  0  0  0  0
   13.9341   -1.6987   21.9814 H   0  0  0  0  0  0  0  0  0  0  0  0
   13.0379    1.0711   23.3292 H   0  0  0  0  0  0  0  0  0  0  0  0
   14.3789   -0.3860   23.4019 H   0  0  0  0  0  0  0  0  0  0  0  0
   12.1626    0.1770   21.4693 H   0  0  0  0  0  0  0  0  0  0  0  0
   11.9474   -2.4207   22.5210 H   0  0  0  0  0  0  0  0  0  0  0  0
   11.3554   -1.1350   23.6043 H   0  0  0  0  0  0  0  0  0  0  0  0
    9.2585   -2.0461   20.7269 H   0  0  0  0  0  0  0  0  0  0  0  0
    9.6847   -2.6207   22.3389 H   0  0  0  0  0  0  0  0  0  0  0  0
    8.8640   -0.2589   23.1227 H   0  0  0  0  0  0  0  0  0  0  0  0
    7.5678    1.0935   21.6111 H   0  0  0  0  0  0  0  0  0  0  0  0
    8.4656    0.2358   20.3691 H   0  0  0  0  0  0  0  0  0  0  0  0
    6.5996   -0.8809   24.1319 C   0  0  0  0  0  0  0  0  0  0  0  0
    6.8008    0.4892   24.3736 C   0  0  0  0  0  0  0  0  0  0  0  0
    6.3247    1.0775   25.5334 C   0  0  0  0  0  0  0  0  0  0  0  0
    6.6258    2.7711   25.8112 Cl  0  0  0  0  0  0  0  0  0  0  0  0
    5.6326    0.3478   26.4963 C   0  0  0  0  0  0  0  0  0  0  0  0
    5.4094   -0.9937   26.2572 C   0  0  0  0  0  0  0  0  0  0  0  0
    5.8852   -1.6031   25.0959 C   0  0  0  0  0  0  0  0  0  0  0  0
    5.5825   -3.0576   24.9042 C   0  0  0  0  0  0  0  0  0  0  0  0
    4.7510   -3.6448   25.5817 O   0  0  0  0  0  0  0  0  0  0  0  0
    4.8640   -1.6071   26.9656 H   0  0  0  0  0  0  0  0  0  0  0  0
    5.2835    0.8332   27.4012 H   0  0  0  0  0  0  0  0  0  0  0  0
    7.3431    1.1224   23.6807 H   0  0  0  0  0  0  0  0  0  0  0  0
    8.2895   -3.0733   23.9791 H   0  0  0  0  0  0  0  0  0  0  0  0
    7.6804   -3.6182   22.3856 H   0  0  0  0  0  0  0  0  0  0  0  0
    5.9413   -4.9686   22.3245 H   0  0  0  0  0  0  0  0  0  0  0  0
    4.7292   -5.0038   23.6241 H   0  0  0  0  0  0  0  0  0  0  0  0
    8.2948   -5.7852   23.2470 H   0  0  0  0  0  0  0  0  0  0  0  0
    7.6210   -8.4291   24.3497 H   0  0  0  0  0  0  0  0  0  0  0  0
    8.7672   -7.4709   25.3036 H   0  0  0  0  0  0  0  0  0  0  0  0
    9.1770   -7.9510   23.6317 H   0  0  0  0  0  0  0  0  0  0  0  0
  1  2  1  0
  2  3  1  0
  3  4  2  0
  3  5  1  0
  5  6  1  0
  6  7  1  0
  8  7  1  1
  8  9  1  0
  9 10  2  0
  9 11  1  0
 11 12  1  0
 12 13  2  0
 13 14  1  0
 14 15  2  0
 15 16  1  0
 16 17  2  0
 17 18  1  0
 18 19  2  0
 19 20  1  0
 20 21  2  0
 20 22  1  0
 19 23  1  0
 18 24  1  0
 17 25  1  0
 15 26  1  0
 13 27  1  0
 11 28  1  0
 28 29  1  0
 29 30  1  0
 30 31  1  0
 31 32  1  0
 32 33  1  0
 33 34  1  0
 34 35  1  0
 35 36  1  0
 35 37  1  0
 34 38  1  0
 34 39  1  0
 33 40  1  0
 32 41  1  0
 32 42  1  0
 30 43  1  0
 30 44  1  0
 29 45  1  1
 28 46  1  0
 28 47  1  0
  8 48  1  0
 48 49  2  0
 49 50  1  0
 50 51  1  0
 50 52  2  0
 52 53  1  0
 53 54  2  0
 54 55  1  0
 55 56  2  0
 53 57  1  0
 52 58  1  0
 49 59  1  0
  7 60  1  0
  7 61  1  0
  5 62  1  0
  5 63  1  0
  2 64  1  0
  1 65  1  0
  1 66  1  0
  1 67  1  0
 55  6  1  0
 29  8  1  0
 35 33  1  0
 54 48  1  0
 21 12  1  0
 21 16  1  0
M  END
>  <cnnaffinities>  (14) 
[6.95154]

>  <score>  (14) 
6.95154

>  <index>  (14) 
13

>  <Smiles>  (14) 
C(N(C(=O)C(N1C([C@@]2(C(=O)N(c3c(nc(c4c(c(c(c(c34)[H])[H])[H])[H])[H])[H])C([C@@]2(C(OC(C2(C(C2([H])[H])([H])[H])[H])([H])[H])([H])[H])[H])([H])[H])c2c(c(Cl)c(c(c2C1=O)[H])[H])[H])([H])[H])([H])[H])[H])([H])([H])[H]

>  <h>  (14) 
<NA>

>  <Training>  (14) 
True

>  <Success>  (14) 
True

>  <enamine_searched>  (14) 
False

>  <enamine_id>  (14) 
nan

$$$$

     RDKit          3D

 67 73  0  0  0  0  0  0  0  0999 V2000
    7.4917   -3.1423   23.4068 C   0  0  0  0  0  0  0  0  0  0  0  0
    7.6621   -2.2891   22.1595 C   0  0  1  0  0  0  0  0  0  0  0  0
    6.3133   -1.7521   21.6568 C   0  0  0  0  0  0  0  0  0  0  0  0
    6.6837   -0.5694   20.9002 N   0  0  0  0  0  0  0  0  0  0  0  0
    5.9357   -0.0227   19.8342 C   0  0  0  0  0  0  0  0  0  0  0  0
    6.4216   -0.0634   18.5476 C   0  0  0  0  0  0  0  0  0  0  0  0
    5.7477    0.4161   17.4741 N   0  0  0  0  0  0  0  0  0  0  0  0
    4.5843    0.9805   17.6786 C   0  0  0  0  0  0  0  0  0  0  0  0
    3.9602    1.0763   18.9536 C   0  0  0  0  0  0  0  0  0  0  0  0
    2.6967    1.7032   19.1382 C   0  0  0  0  0  0  0  0  0  0  0  0
    2.1391    1.7688   20.3820 C   0  0  0  0  0  0  0  0  0  0  0  0
    2.7896    1.1841   21.4916 C   0  0  0  0  0  0  0  0  0  0  0  0
    4.0118    0.5761   21.3412 C   0  0  0  0  0  0  0  0  0  0  0  0
    4.6398    0.5348   20.0681 C   0  0  0  0  0  0  0  0  0  0  0  0
    4.4927    0.1271   22.2050 H   0  0  0  0  0  0  0  0  0  0  0  0
    2.3266    1.2192   22.4721 H   0  0  0  0  0  0  0  0  0  0  0  0
    1.1796    2.2596   20.5317 H   0  0  0  0  0  0  0  0  0  0  0  0
    2.2015    2.1491   18.2779 H   0  0  0  0  0  0  0  0  0  0  0  0
    4.0475    1.3606   16.8068 H   0  0  0  0  0  0  0  0  0  0  0  0
    7.3761   -0.5440   18.3390 H   0  0  0  0  0  0  0  0  0  0  0  0
    7.9740   -0.1540   21.1534 C   0  0  0  0  0  0  0  0  0  0  0  0
    8.5087    0.7887   20.6002 O   0  0  0  0  0  0  0  0  0  0  0  0
    8.5792   -1.0315   22.2782 C   0  0  1  0  0  0  0  0  0  0  0  0
    8.3972   -0.3172   23.6510 C   0  0  0  0  0  0  0  0  0  0  0  0
    9.2722    0.8190   23.8489 N   0  0  0  0  0  0  0  0  0  0  0  0
    8.7713    2.1050   24.2671 C   0  0  0  0  0  0  0  0  0  0  0  0
    8.2842    2.9224   23.0813 C   0  0  0  0  0  0  0  0  0  0  0  0
    7.7011    4.1898   23.5763 N   0  0  2  0  0  4  0  0  0  0  0  0
    6.8228    4.9018   22.5585 C   0  0  0  0  0  0  0  0  0  0  0  0
    7.4737    6.2940   22.4628 C   0  0  2  0  0  0  0  0  0  0  0  0
    8.9618    5.9833   22.6190 C   0  0  0  0  0  0  0  0  0  0  0  0
    8.7277    5.2795   23.9497 C   0  0  1  0  0  0  0  0  0  0  0  0
    7.9258    6.3341   24.7038 C   0  0  0  0  0  0  0  0  0  0  0  0
    7.1755    7.0050   23.6740 O   0  0  0  0  0  0  0  0  0  0  0  0
    7.2463    5.8542   25.4220 H   0  0  0  0  0  0  0  0  0  0  0  0
    8.5554    7.0585   25.2311 H   0  0  0  0  0  0  0  0  0  0  0  0
    9.5901    4.8614   24.4604 H   0  0  0  0  0  0  0  0  0  0  0  0
    9.3940    5.3344   21.8553 H   0  0  0  0  0  0  0  0  0  0  0  0
    9.5663    6.8853   22.7196 H   0  0  0  0  0  0  0  0  0  0  0  0
    7.1566    6.8886   21.6075 H   0  0  0  0  0  0  0  0  0  0  0  0
    6.8625    4.3466   21.6183 H   0  0  0  0  0  0  0  0  0  0  0  0
    5.7957    4.9351   22.9229 H   0  0  0  0  0  0  0  0  0  0  0  0
    7.1409    3.9317   24.4065 H   0  0  0  0  0  0  0  0  0  0  0  0
    7.5289    2.3632   22.5201 H   0  0  0  0  0  0  0  0  0  0  0  0
    9.1071    3.1278   22.3897 H   0  0  0  0  0  0  0  0  0  0  0  0
    9.5971    2.6231   24.7586 H   0  0  0  0  0  0  0  0  0  0  0  0
    7.9523    1.9776   24.9835 H   0  0  0  0  0  0  0  0  0  0  0  0
   10.5870    0.7691   23.5146 C   0  0  0  0  0  0  0  0  0  0  0  0
   11.3720    1.6684   23.7911 O   0  0  0  0  0  0  0  0  0  0  0  0
   11.0037   -0.4363   22.7489 C   0  0  0  0  0  0  0  0  0  0  0  0
   12.3712   -0.6355   22.6275 C   0  0  0  0  0  0  0  0  0  0  0  0
   12.8575   -1.5873   21.7630 C   0  0  0  0  0  0  0  0  0  0  0  0
   11.9531   -2.3258   21.0030 C   0  0  0  0  0  0  0  0  0  0  0  0
   12.5859   -3.3436   19.7325 Cl  0  0  0  0  0  0  0  0  0  0  0  0
   10.5860   -2.2161   21.2049 C   0  0  0  0  0  0  0  0  0  0  0  0
   10.0719   -1.2650   22.0998 C   0  0  0  0  0  0  0  0  0  0  0  0
    9.9335   -2.8733   20.6365 H   0  0  0  0  0  0  0  0  0  0  0  0
   13.9229   -1.7367   21.6982 H   0  0  0  0  0  0  0  0  0  0  0  0
   13.0482    0.0100   23.1774 H   0  0  0  0  0  0  0  0  0  0  0  0
    7.3627    0.0155   23.7594 H   0  0  0  0  0  0  0  0  0  0  0  0
    8.6230   -1.0472   24.4352 H   0  0  0  0  0  0  0  0  0  0  0  0
    5.7772   -2.4761   21.0337 H   0  0  0  0  0  0  0  0  0  0  0  0
    5.6691   -1.5053   22.5113 H   0  0  0  0  0  0  0  0  0  0  0  0
    8.0697   -2.9019   21.3515 H   0  0  0  0  0  0  0  0  0  0  0  0
    7.0100   -2.5583   24.1994 H   0  0  0  0  0  0  0  0  0  0  0  0
    6.8425   -4.0003   23.2014 H   0  0  0  0  0  0  0  0  0  0  0  0
    8.4489   -3.5136   23.7857 H   0  0  0  0  0  0  0  0  0  0  0  0
  1  2  1  0
  2  3  1  0
  3  4  1  0
  4  5  1  0
  5  6  2  0
  6  7  1  0
  7  8  2  0
  8  9  1  0
  9 10  2  0
 10 11  1  0
 11 12  2  0
 12 13  1  0
 13 14  2  0
 13 15  1  0
 12 16  1  0
 11 17  1  0
 10 18  1  0
  8 19  1  0
  6 20  1  0
  4 21  1  0
 21 22  2  0
 21 23  1  0
 23 24  1  1
 24 25  1  0
 25 26  1  0
 26 27  1  0
 27 28  1  0
 28 29  1  0
 29 30  1  0
 30 31  1  0
 31 32  1  0
 32 33  1  0
 33 34  1  0
 33 35  1  0
 33 36  1  0
 32 37  1  1
 31 38  1  0
 31 39  1  0
 30 40  1  6
 29 41  1  0
 29 42  1  0
 28 43  1  1
 27 44  1  0
 27 45  1  0
 26 46  1  0
 26 47  1  0
 25 48  1  0
 48 49  2  0
 48 50  1  0
 50 51  2  0
 51 52  1  0
 52 53  2  0
 53 54  1  0
 53 55  1  0
 55 56  2  0
 55 57  1  0
 52 58  1  0
 51 59  1  0
 24 60  1  0
 24 61  1  0
  3 62  1  0
  3 63  1  0
  2 64  1  6
  1 65  1  0
  1 66  1  0
  1 67  1  0
 23  2  1  0
 32 28  1  0
 56 50  1  0
 14  5  1  0
 56 23  1  0
 14  9  1  0
 34 30  1  0
M  CHG  1  28   1
M  END
>  <cnnaffinities>  (15) 
[6.65763, 6.55238]

>  <score>  (15) 
6.65763

>  <index>  (15) 
14

>  <Smiles>  (15) 
C([C@]1(C(N(c2c(nc(c3c(c(c(c(c23)[H])[H])[H])[H])[H])[H])C(=O)[C@]21C(N(C(C([N@@+]1(C([C@@]3(C([C@]1(C(O3)([H])[H])[H])([H])[H])[H])([H])[H])[H])([H])[H])([H])[H])C(=O)c1c(c(c(Cl)c(c21)[H])[H])[H])([H])[H])([H])[H])[H])([H])([H])[H]

>  <h>  (15) 
<NA>

>  <Training>  (15) 
True

>  <Success>  (15) 
True

>  <enamine_searched>  (15) 
False

>  <enamine_id>  (15) 
nan

$$$$

     RDKit          3D

 72 77  0  0  0  0  0  0  0  0999 V2000
    4.6715    6.6366   21.5353 C   0  0  0  0  0  0  0  0  0  0  0  0
    4.5058    5.7012   22.7271 C   0  0  1  0  0  0  0  0  0  0  0  0
    5.5102    4.5523   22.7455 C   0  0  0  0  0  0  0  0  0  0  0  0
    6.8847    5.0143   23.1347 N   0  0  2  0  0  4  0  0  0  0  0  0
    7.8747    3.8899   23.0572 C   0  0  0  0  0  0  0  0  0  0  0  0
    7.8159    2.9471   24.2614 C   0  0  0  0  0  0  0  0  0  0  0  0
    8.5600    1.7329   23.9942 N   0  0  0  0  0  0  0  0  0  0  0  0
    7.8724    0.4661   23.8390 C   0  0  0  0  0  0  0  0  0  0  0  0
    8.3984   -0.3440   22.6295 C   0  0  2  0  0  0  0  0  0  0  0  0
    7.9239    0.2778   21.2894 C   0  0  0  0  0  0  0  0  0  0  0  0
    8.4199    1.2096   20.6876 O   0  0  0  0  0  0  0  0  0  0  0  0
    6.8091   -0.4195   20.8782 N   0  0  0  0  0  0  0  0  0  0  0  0
    5.9954    0.0222   19.8171 C   0  0  0  0  0  0  0  0  0  0  0  0
    6.4196   -0.1391   18.5240 C   0  0  0  0  0  0  0  0  0  0  0  0
    5.7343    0.3099   17.4445 N   0  0  0  0  0  0  0  0  0  0  0  0
    4.6263    0.9671   17.6717 C   0  0  0  0  0  0  0  0  0  0  0  0
    4.0533    1.1581   18.9595 C   0  0  0  0  0  0  0  0  0  0  0  0
    2.8422    1.8723   19.1381 C   0  0  0  0  0  0  0  0  0  0  0  0
    2.2942    2.0058   20.3858 C   0  0  0  0  0  0  0  0  0  0  0  0
    2.9393    1.4421   21.5136 C   0  0  0  0  0  0  0  0  0  0  0  0
    4.1374    0.7838   21.3747 C   0  0  0  0  0  0  0  0  0  0  0  0
    4.7337    0.6382   20.0820 C   0  0  0  0  0  0  0  0  0  0  0  0
    4.6438    0.3932   22.2563 H   0  0  0  0  0  0  0  0  0  0  0  0
    2.4940    1.5626   22.5027 H   0  0  0  0  0  0  0  0  0  0  0  0
    1.3647    2.5559   20.5153 H   0  0  0  0  0  0  0  0  0  0  0  0
    2.3667    2.2784   18.2495 H   0  0  0  0  0  0  0  0  0  0  0  0
    4.1103    1.3809   16.8036 H   0  0  0  0  0  0  0  0  0  0  0  0
    7.3780   -0.6186   18.3312 H   0  0  0  0  0  0  0  0  0  0  0  0
    6.4988   -1.5874   21.6643 C   0  0  0  0  0  0  0  0  0  0  0  0
    7.7305   -1.7537   22.5573 C   0  0  2  0  0  0  0  0  0  0  0  0
    7.3748   -2.4375   23.8674 C   0  0  0  0  0  0  0  0  0  0  0  0
    8.2432   -2.5452   24.5247 H   0  0  0  0  0  0  0  0  0  0  0  0
    6.5981   -1.8748   24.4000 H   0  0  0  0  0  0  0  0  0  0  0  0
    6.9760   -3.4347   23.6534 H   0  0  0  0  0  0  0  0  0  0  0  0
    8.4142   -2.4092   22.0152 H   0  0  0  0  0  0  0  0  0  0  0  0
    6.3447   -2.4551   21.0139 H   0  0  0  0  0  0  0  0  0  0  0  0
    5.5862   -1.4657   22.2655 H   0  0  0  0  0  0  0  0  0  0  0  0
    9.9085   -0.3498   22.7099 C   0  0  0  0  0  0  0  0  0  0  0  0
   10.6258   -1.3078   21.9960 C   0  0  0  0  0  0  0  0  0  0  0  0
   12.0031   -1.3177   22.0378 C   0  0  0  0  0  0  0  0  0  0  0  0
   12.8216   -2.5420   21.1312 Cl  0  0  0  0  0  0  0  0  0  0  0  0
   12.7300   -0.3798   22.7671 C   0  0  0  0  0  0  0  0  0  0  0  0
   12.0280    0.6008   23.4393 C   0  0  0  0  0  0  0  0  0  0  0  0
   10.6327    0.6344   23.3977 C   0  0  0  0  0  0  0  0  0  0  0  0
    9.9236    1.7866   24.0435 C   0  0  0  0  0  0  0  0  0  0  0  0
   10.5317    2.7242   24.5481 O   0  0  0  0  0  0  0  0  0  0  0  0
   12.5523    1.3715   23.9914 H   0  0  0  0  0  0  0  0  0  0  0  0
   13.8149   -0.4114   22.7725 H   0  0  0  0  0  0  0  0  0  0  0  0
   10.1227   -2.0472   21.3848 H   0  0  0  0  0  0  0  0  0  0  0  0
    6.8003    0.6566   23.7234 H   0  0  0  0  0  0  0  0  0  0  0  0
    8.0161   -0.1357   24.7475 H   0  0  0  0  0  0  0  0  0  0  0  0
    8.2103    3.4323   25.1591 H   0  0  0  0  0  0  0  0  0  0  0  0
    6.7740    2.6784   24.4714 H   0  0  0  0  0  0  0  0  0  0  0  0
    8.8820    4.3058   22.9617 H   0  0  0  0  0  0  0  0  0  0  0  0
    7.6754    3.3280   22.1364 H   0  0  0  0  0  0  0  0  0  0  0  0
    6.8622    5.7923   24.4403 C   0  0  1  0  0  0  0  0  0  0  0  0
    8.2395    6.3568   24.7582 C   0  0  0  0  0  0  0  0  0  0  0  0
    8.5920    6.9539   23.9072 H   0  0  0  0  0  0  0  0  0  0  0  0
    8.9786    5.5719   24.9487 H   0  0  0  0  0  0  0  0  0  0  0  0
    8.1985    7.0009   25.6420 H   0  0  0  0  0  0  0  0  0  0  0  0
    5.8186    6.8978   24.3011 C   0  0  0  0  0  0  0  0  0  0  0  0
    4.5351    6.4000   23.9723 O   0  0  0  0  0  0  0  0  0  0  0  0
    5.7105    7.4309   25.2511 H   0  0  0  0  0  0  0  0  0  0  0  0
    6.1687    7.6214   23.5479 H   0  0  0  0  0  0  0  0  0  0  0  0
    6.5357    5.1119   25.2332 H   0  0  0  0  0  0  0  0  0  0  0  0
    7.1857    5.6886   22.4028 H   0  0  0  0  0  0  0  0  0  0  0  0
    5.5765    4.0760   21.7630 H   0  0  0  0  0  0  0  0  0  0  0  0
    5.1701    3.8045   23.4678 H   0  0  0  0  0  0  0  0  0  0  0  0
    3.5063    5.2555   22.6806 H   0  0  0  0  0  0  0  0  0  0  0  0
    5.6889    7.0370   21.4655 H   0  0  0  0  0  0  0  0  0  0  0  0
    4.4576    6.1048   20.6012 H   0  0  0  0  0  0  0  0  0  0  0  0
    3.9734    7.4733   21.6297 H   0  0  0  0  0  0  0  0  0  0  0  0
  1  2  1  0
  2  3  1  0
  3  4  1  0
  4  5  1  0
  5  6  1  0
  6  7  1  0
  7  8  1  0
  9  8  1  1
  9 10  1  0
 10 11  2  0
 10 12  1  0
 12 13  1  0
 13 14  2  0
 14 15  1  0
 15 16  2  0
 16 17  1  0
 17 18  2  0
 18 19  1  0
 19 20  2  0
 20 21  1  0
 21 22  2  0
 21 23  1  0
 20 24  1  0
 19 25  1  0
 18 26  1  0
 16 27  1  0
 14 28  1  0
 12 29  1  0
 29 30  1  0
 30 31  1  0
 31 32  1  0
 31 33  1  0
 31 34  1  0
 30 35  1  6
 29 36  1  0
 29 37  1  0
  9 38  1  0
 38 39  2  0
 39 40  1  0
 40 41  1  0
 40 42  2  0
 42 43  1  0
 43 44  2  0
 44 45  1  0
 45 46  2  0
 43 47  1  0
 42 48  1  0
 39 49  1  0
  8 50  1  0
  8 51  1  0
  6 52  1  0
  6 53  1  0
  5 54  1  0
  5 55  1  0
  4 56  1  0
 56 57  1  0
 57 58  1  0
 57 59  1  0
 57 60  1  0
 56 61  1  0
 61 62  1  0
 61 63  1  0
 61 64  1  0
 56 65  1  1
  4 66  1  6
  3 67  1  0
  3 68  1  0
  2 69  1  6
  1 70  1  0
  1 71  1  0
  1 72  1  0
 62  2  1  0
 45  7  1  0
 30  9  1  0
 44 38  1  0
 22 13  1  0
 22 17  1  0
M  CHG  1   4   1
M  END
>  <cnnaffinities>  (16) 
[6.57381, 6.66895]

>  <score>  (16) 
6.57381

>  <index>  (16) 
15

>  <Smiles>  (16) 
C([C@]1(C([N@+](C(C(N2C([C@@]3(C(=O)N(c4c(nc(c5c(c(c(c(c45)[H])[H])[H])[H])[H])[H])C([C@@]3(C([H])([H])[H])[H])([H])[H])c3c(c(Cl)c(c(c3C2=O)[H])[H])[H])([H])[H])([H])[H])([H])[H])([C@@](C([H])([H])[H])(C(O1)([H])[H])[H])[H])([H])[H])[H])([H])([H])[H]

>  <h>  (16) 
<NA>

>  <Training>  (16) 
True

>  <Success>  (16) 
True

>  <enamine_searched>  (16) 
False

>  <enamine_id>  (16) 
nan

$$$$

     RDKit          3D

 47 50  0  0  0  0  0  0  0  0999 V2000
    8.3555   -0.3425   26.2328 C   0  0  0  0  0  0  0  0  0  0  0  0
    7.8086    0.6079   25.1721 C   0  0  1  0  0  0  0  0  0  0  0  0
    8.7985    1.7236   24.7972 C   0  0  0  0  0  0  0  0  0  0  0  0
    8.5432    2.0690   23.3199 C   0  0  2  0  0  0  0  0  0  0  0  0
    7.7227    3.3298   23.0821 C   0  0  0  0  0  0  0  0  0  0  0  0
    6.3713    3.4018   23.4223 C   0  0  0  0  0  0  0  0  0  0  0  0
    5.6418    4.5660   23.1997 C   0  0  0  0  0  0  0  0  0  0  0  0
    6.2548    5.6788   22.6295 C   0  0  0  0  0  0  0  0  0  0  0  0
    7.5998    5.6182   22.2859 C   0  0  0  0  0  0  0  0  0  0  0  0
    8.3240    4.4503   22.5087 C   0  0  0  0  0  0  0  0  0  0  0  0
    9.3718    4.4081   22.2154 H   0  0  0  0  0  0  0  0  0  0  0  0
    8.0884    6.4773   21.8341 H   0  0  0  0  0  0  0  0  0  0  0  0
    5.6863    6.5878   22.4514 H   0  0  0  0  0  0  0  0  0  0  0  0
    4.5868    4.6003   23.4583 H   0  0  0  0  0  0  0  0  0  0  0  0
    5.8664    2.5365   23.8502 H   0  0  0  0  0  0  0  0  0  0  0  0
    7.8794    0.8759   22.8061 N   0  0  0  0  0  0  0  0  0  0  0  0
    7.7891    0.7102   21.4541 C   0  0  0  0  0  0  0  0  0  0  0  0
    8.3941    1.4218   20.6639 O   0  0  0  0  0  0  0  0  0  0  0  0
    6.9157   -0.4508   20.9664 C   0  0  0  0  0  0  0  0  0  0  0  0
    5.9772   -0.0257   19.8698 C   0  0  0  0  0  0  0  0  0  0  0  0
    6.3908   -0.1469   18.5701 C   0  0  0  0  0  0  0  0  0  0  0  0
    5.7316    0.3228   17.4837 N   0  0  0  0  0  0  0  0  0  0  0  0
    4.6095    0.9613   17.7035 C   0  0  0  0  0  0  0  0  0  0  0  0
    4.0295    1.1279   18.9839 C   0  0  0  0  0  0  0  0  0  0  0  0
    2.8003    1.8151   19.1479 C   0  0  0  0  0  0  0  0  0  0  0  0
    2.2141    1.9231   20.3789 C   0  0  0  0  0  0  0  0  0  0  0  0
    2.8532    1.3462   21.5028 C   0  0  0  0  0  0  0  0  0  0  0  0
    4.0726    0.7165   21.3751 C   0  0  0  0  0  0  0  0  0  0  0  0
    4.7117    0.5981   20.1094 C   0  0  0  0  0  0  0  0  0  0  0  0
    4.5403    0.3027   22.2629 H   0  0  0  0  0  0  0  0  0  0  0  0
    2.3773    1.4241   22.4743 H   0  0  0  0  0  0  0  0  0  0  0  0
    1.2713    2.4484   20.5002 H   0  0  0  0  0  0  0  0  0  0  0  0
    2.3189    2.2260   18.2657 H   0  0  0  0  0  0  0  0  0  0  0  0
    4.1061    1.3812   16.8326 H   0  0  0  0  0  0  0  0  0  0  0  0
    7.3542   -0.6038   18.3548 H   0  0  0  0  0  0  0  0  0  0  0  0
    7.6125   -1.2023   20.5691 H   0  0  0  0  0  0  0  0  0  0  0  0
    6.3852   -0.9212   21.7953 H   0  0  0  0  0  0  0  0  0  0  0  0
    7.4943   -0.0830   23.8368 C   0  0  0  0  0  0  0  0  0  0  0  0
    6.4273   -0.3344   23.7777 H   0  0  0  0  0  0  0  0  0  0  0  0
    8.0643   -1.0165   23.7224 H   0  0  0  0  0  0  0  0  0  0  0  0
    9.4922    2.1842   22.7840 H   0  0  0  0  0  0  0  0  0  0  0  0
    9.8171    1.3294   24.8913 H   0  0  0  0  0  0  0  0  0  0  0  0
    8.7174    2.5967   25.4513 H   0  0  0  0  0  0  0  0  0  0  0  0
    6.8768    1.0572   25.5438 H   0  0  0  0  0  0  0  0  0  0  0  0
    8.5527    0.1861   27.1724 H   0  0  0  0  0  0  0  0  0  0  0  0
    9.3023   -0.7866   25.8976 H   0  0  0  0  0  0  0  0  0  0  0  0
    7.6606   -1.1620   26.4493 H   0  0  0  0  0  0  0  0  0  0  0  0
  1  2  1  0
  2  3  1  0
  3  4  1  0
  4  5  1  0
  5  6  2  0
  6  7  1  0
  7  8  2  0
  8  9  1  0
  9 10  2  0
 10 11  1  0
  9 12  1  0
  8 13  1  0
  7 14  1  0
  6 15  1  0
  4 16  1  0
 16 17  1  0
 17 18  2  0
 17 19  1  0
 19 20  1  0
 20 21  2  0
 21 22  1  0
 22 23  2  0
 23 24  1  0
 24 25  2  0
 25 26  1  0
 26 27  2  0
 27 28  1  0
 28 29  2  0
 28 30  1  0
 27 31  1  0
 26 32  1  0
 25 33  1  0
 23 34  1  0
 21 35  1  0
 19 36  1  0
 19 37  1  0
 16 38  1  0
 38 39  1  0
 38 40  1  0
  4 41  1  6
  3 42  1  0
  3 43  1  0
  2 44  1  1
  1 45  1  0
  1 46  1  0
  1 47  1  0
 38  2  1  0
 10  5  1  0
 29 20  1  0
 29 24  1  0
M  END
>  <cnnaffinities>  (17) 
[5.57021, 5.5859, 5.76055, 5.76193, 5.86273, 5.82154]

>  <score>  (17) 
5.57021

>  <index>  (17) 
16

>  <Smiles>  (17) 
C([C@]1(C([C@](c2c(c(c(c(c2[H])[H])[H])[H])[H])(N(C(=O)C(c2c(nc(c3c(c(c(c(c23)[H])[H])[H])[H])[H])[H])([H])[H])C1([H])[H])[H])([H])[H])[H])([H])([H])[H]

>  <h>  (17) 
<NA>

>  <Training>  (17) 
True

>  <Success>  (17) 
True

>  <enamine_searched>  (17) 
False

>  <enamine_id>  (17) 
nan

$$$$

     RDKit          3D

 58 63  0  0  0  0  0  0  0  0999 V2000
    7.4229   -2.4545   23.8294 C   0  0  0  0  0  0  0  0  0  0  0  0
    7.7847   -1.7372   22.5385 C   0  0  1  0  0  0  0  0  0  0  0  0
    6.5662   -1.6232   21.6207 C   0  0  0  0  0  0  0  0  0  0  0  0
    6.8216   -0.4190   20.8756 N   0  0  0  0  0  0  0  0  0  0  0  0
    5.9839    0.0075   19.8285 C   0  0  0  0  0  0  0  0  0  0  0  0
    6.4065   -0.1368   18.5339 C   0  0  0  0  0  0  0  0  0  0  0  0
    5.7221    0.3152   17.4581 N   0  0  0  0  0  0  0  0  0  0  0  0
    4.6006    0.9472   17.6910 C   0  0  0  0  0  0  0  0  0  0  0  0
    4.0231    1.1119   18.9822 C   0  0  0  0  0  0  0  0  0  0  0  0
    2.8069    1.8113   19.1647 C   0  0  0  0  0  0  0  0  0  0  0  0
    2.2456    1.9218   20.4071 C   0  0  0  0  0  0  0  0  0  0  0  0
    2.8897    1.3477   21.5301 C   0  0  0  0  0  0  0  0  0  0  0  0
    4.0961    0.7154   21.3893 C   0  0  0  0  0  0  0  0  0  0  0  0
    4.7069    0.5914   20.1012 C   0  0  0  0  0  0  0  0  0  0  0  0
    4.5921    0.3007   22.2646 H   0  0  0  0  0  0  0  0  0  0  0  0
    2.4161    1.4297   22.5081 H   0  0  0  0  0  0  0  0  0  0  0  0
    1.3051    2.4483   20.5354 H   0  0  0  0  0  0  0  0  0  0  0  0
    2.3271    2.2206   18.2801 H   0  0  0  0  0  0  0  0  0  0  0  0
    4.0857    1.3735   16.8309 H   0  0  0  0  0  0  0  0  0  0  0  0
    7.3746   -0.5944   18.3394 H   0  0  0  0  0  0  0  0  0  0  0  0
    7.8332    0.3726   21.3736 C   0  0  0  0  0  0  0  0  0  0  0  0
    8.2172    1.4027   20.8601 O   0  0  0  0  0  0  0  0  0  0  0  0
    8.3488   -0.2919   22.6743 C   0  0  1  0  0  0  0  0  0  0  0  0
    7.7480    0.4011   23.9272 C   0  0  0  0  0  0  0  0  0  0  0  0
    8.3003    1.7284   24.1515 N   0  0  0  0  0  0  0  0  0  0  0  0
    7.3980    2.8710   23.9923 C   0  0  0  0  0  0  0  0  0  0  0  0
    6.2763    2.8053   24.9776 C   0  0  0  0  0  0  0  0  0  0  0  0
    5.0166    2.5356   24.7385 N   0  0  0  0  0  0  0  0  0  0  0  0
    4.3570    2.5326   25.9447 N   0  0  0  0  0  0  0  0  0  0  0  0
    5.2434    2.7911   26.8647 C   0  0  0  0  0  0  0  0  0  0  0  0
    6.4768    2.9744   26.3148 N   0  0  0  0  0  0  0  0  0  0  0  0
    7.7317    3.1587   27.0118 C   0  0  0  0  0  0  0  0  0  0  0  0
    7.4765    3.4200   28.0398 H   0  0  0  0  0  0  0  0  0  0  0  0
    8.3054    2.2303   27.0077 H   0  0  0  0  0  0  0  0  0  0  0  0
    8.3336    3.9618   26.5717 H   0  0  0  0  0  0  0  0  0  0  0  0
    5.0485    2.8718   27.9283 H   0  0  0  0  0  0  0  0  0  0  0  0
    7.9748    3.7937   24.1317 H   0  0  0  0  0  0  0  0  0  0  0  0
    7.0102    2.8675   22.9665 H   0  0  0  0  0  0  0  0  0  0  0  0
    9.6557    1.9331   24.1354 C   0  0  0  0  0  0  0  0  0  0  0  0
   10.1706    2.9467   24.5936 O   0  0  0  0  0  0  0  0  0  0  0  0
   10.4720    0.8461   23.4942 C   0  0  0  0  0  0  0  0  0  0  0  0
   11.8637    0.9303   23.5714 C   0  0  0  0  0  0  0  0  0  0  0  0
   12.6700    0.0170   22.9214 C   0  0  0  0  0  0  0  0  0  0  0  0
   12.0494   -0.9763   22.1752 C   0  0  0  0  0  0  0  0  0  0  0  0
   12.8148   -1.8679   21.5251 F   0  0  0  0  0  0  0  0  0  0  0  0
   10.6787   -1.0888   22.0816 C   0  0  0  0  0  0  0  0  0  0  0  0
    9.8574   -0.1905   22.7733 C   0  0  0  0  0  0  0  0  0  0  0  0
   10.2776   -1.8831   21.4617 H   0  0  0  0  0  0  0  0  0  0  0  0
   13.7531    0.0650   22.9604 H   0  0  0  0  0  0  0  0  0  0  0  0
   12.3034    1.7355   24.1453 H   0  0  0  0  0  0  0  0  0  0  0  0
    6.6593    0.4764   23.8415 H   0  0  0  0  0  0  0  0  0  0  0  0
    7.9604   -0.2273   24.8028 H   0  0  0  0  0  0  0  0  0  0  0  0
    6.4700   -2.4802   20.9460 H   0  0  0  0  0  0  0  0  0  0  0  0
    5.6361   -1.5609   22.2058 H   0  0  0  0  0  0  0  0  0  0  0  0
    8.5263   -2.3354   22.0064 H   0  0  0  0  0  0  0  0  0  0  0  0
    8.2717   -2.5222   24.5173 H   0  0  0  0  0  0  0  0  0  0  0  0
    7.0696   -3.4642   23.6006 H   0  0  0  0  0  0  0  0  0  0  0  0
    6.6081   -1.9230   24.3374 H   0  0  0  0  0  0  0  0  0  0  0  0
  1  2  1  0
  2  3  1  0
  3  4  1  0
  4  5  1  0
  5  6  2  0
  6  7  1  0
  7  8  2  0
  8  9  1  0
  9 10  2  0
 10 11  1  0
 11 12  2  0
 12 13  1  0
 13 14  2  0
 13 15  1  0
 12 16  1  0
 11 17  1  0
 10 18  1  0
  8 19  1  0
  6 20  1  0
  4 21  1  0
 21 22  2  0
 21 23  1  0
 23 24  1  1
 24 25  1  0
 25 26  1  0
 26 27  1  0
 27 28  2  0
 28 29  1  0
 29 30  2  0
 30 31  1  0
 31 32  1  0
 32 33  1  0
 32 34  1  0
 32 35  1  0
 30 36  1  0
 26 37  1  0
 26 38  1  0
 25 39  1  0
 39 40  2  0
 39 41  1  0
 41 42  2  0
 42 43  1  0
 43 44  2  0
 44 45  1  0
 44 46  1  0
 46 47  2  0
 46 48  1  0
 43 49  1  0
 42 50  1  0
 24 51  1  0
 24 52  1  0
  3 53  1  0
  3 54  1  0
  2 55  1  6
  1 56  1  0
  1 57  1  0
  1 58  1  0
 23  2  1  0
 31 27  1  0
 47 41  1  0
 14  5  1  0
 47 23  1  0
 14  9  1  0
M  END
>  <cnnaffinities>  (18) 
[6.36429, 6.53781, 6.62423, 6.39357]

>  <score>  (18) 
6.36429

>  <index>  (18) 
17

>  <Smiles>  (18) 
C([C@]1(C(N(c2c(nc(c3c(c(c(c(c23)[H])[H])[H])[H])[H])[H])C(=O)[C@]21C(N(C(c1nnc(n1C([H])([H])[H])[H])([H])[H])C(=O)c1c(c(c(F)c(c21)[H])[H])[H])([H])[H])([H])[H])[H])([H])([H])[H]

>  <h>  (18) 
<NA>

>  <Training>  (18) 
True

>  <Success>  (18) 
True

>  <enamine_searched>  (18) 
False

>  <enamine_id>  (18) 
nan

$$$$

     RDKit          3D

 50 53  0  0  0  0  0  0  0  0999 V2000
    6.1655    0.0218   28.6922 C   0  0  0  0  0  0  0  0  0  0  0  0
    5.8059   -0.5515   27.3145 C   0  0  1  0  0  0  0  0  0  0  0  0
    5.4191    0.5311   26.2900 C   0  0  0  0  0  0  0  0  0  0  0  0
    6.6201    1.3296   25.7695 C   0  0  0  0  0  0  0  0  0  0  0  0
    7.7602    0.4599   25.1919 C   0  0  2  0  0  0  0  0  0  0  0  0
    8.9567    1.3659   24.8208 C   0  0  0  0  0  0  0  0  0  0  0  0
    8.8158    1.7292   23.3417 C   0  0  0  0  0  0  0  0  0  0  0  0
    7.9263    0.7074   22.8120 N   0  0  0  0  0  0  0  0  0  0  0  0
    7.7868    0.5948   21.4641 C   0  0  0  0  0  0  0  0  0  0  0  0
    8.3862    1.3287   20.6885 O   0  0  0  0  0  0  0  0  0  0  0  0
    6.8751   -0.5274   20.9516 C   0  0  0  0  0  0  0  0  0  0  0  0
    5.9610   -0.0487   19.8569 C   0  0  0  0  0  0  0  0  0  0  0  0
    6.3860   -0.1484   18.5567 C   0  0  0  0  0  0  0  0  0  0  0  0
    5.7344    0.3374   17.4723 N   0  0  0  0  0  0  0  0  0  0  0  0
    4.6075    0.9632   17.6952 C   0  0  0  0  0  0  0  0  0  0  0  0
    4.0290    1.1344   18.9811 C   0  0  0  0  0  0  0  0  0  0  0  0
    2.7961    1.8156   19.1480 C   0  0  0  0  0  0  0  0  0  0  0  0
    2.2170    1.9140   20.3817 C   0  0  0  0  0  0  0  0  0  0  0  0
    2.8523    1.3302   21.4981 C   0  0  0  0  0  0  0  0  0  0  0  0
    4.0596    0.6887   21.3689 C   0  0  0  0  0  0  0  0  0  0  0  0
    4.7012    0.5866   20.1032 C   0  0  0  0  0  0  0  0  0  0  0  0
    4.5238    0.2490   22.2469 H   0  0  0  0  0  0  0  0  0  0  0  0
    2.3734    1.4018   22.4695 H   0  0  0  0  0  0  0  0  0  0  0  0
    1.2782    2.4467   20.5071 H   0  0  0  0  0  0  0  0  0  0  0  0
    2.3096    2.2245   18.2672 H   0  0  0  0  0  0  0  0  0  0  0  0
    4.1021    1.3901   16.8278 H   0  0  0  0  0  0  0  0  0  0  0  0
    7.3526   -0.6022   18.3425 H   0  0  0  0  0  0  0  0  0  0  0  0
    6.3190   -1.0023   21.7626 H   0  0  0  0  0  0  0  0  0  0  0  0
    7.5471   -1.2966   20.5426 H   0  0  0  0  0  0  0  0  0  0  0  0
    7.3807   -0.1761   23.8326 C   0  0  0  0  0  0  0  0  0  0  0  0
    6.2927   -0.2624   23.7171 H   0  0  0  0  0  0  0  0  0  0  0  0
    7.8082   -1.1847   23.7270 H   0  0  0  0  0  0  0  0  0  0  0  0
    9.7739    1.6946   22.8156 H   0  0  0  0  0  0  0  0  0  0  0  0
    8.3862    2.7238   23.1745 H   0  0  0  0  0  0  0  0  0  0  0  0
    9.9012    0.8311   24.9775 H   0  0  0  0  0  0  0  0  0  0  0  0
    8.9685    2.2639   25.4425 H   0  0  0  0  0  0  0  0  0  0  0  0
    8.1335   -0.5913   26.2542 C   0  0  0  0  0  0  0  0  0  0  0  0
    6.9358   -1.4236   26.7376 C   0  0  0  0  0  0  0  0  0  0  0  0
    6.5401   -2.0155   25.8986 H   0  0  0  0  0  0  0  0  0  0  0  0
    7.2653   -2.1443   27.4968 H   0  0  0  0  0  0  0  0  0  0  0  0
    8.5747   -0.0654   27.1138 H   0  0  0  0  0  0  0  0  0  0  0  0
    8.9201   -1.2528   25.8673 H   0  0  0  0  0  0  0  0  0  0  0  0
    7.0420    1.9097   26.6039 H   0  0  0  0  0  0  0  0  0  0  0  0
    6.2994    2.0626   25.0180 H   0  0  0  0  0  0  0  0  0  0  0  0
    4.9068    0.0499   25.4443 H   0  0  0  0  0  0  0  0  0  0  0  0
    4.6917    1.2218   26.7362 H   0  0  0  0  0  0  0  0  0  0  0  0
    4.9264   -1.1940   27.4656 H   0  0  0  0  0  0  0  0  0  0  0  0
    7.0342    0.6886   28.6598 H   0  0  0  0  0  0  0  0  0  0  0  0
    5.3284    0.5936   29.1094 H   0  0  0  0  0  0  0  0  0  0  0  0
    6.4017   -0.7882   29.3930 H   0  0  0  0  0  0  0  0  0  0  0  0
  1  2  1  0
  2  3  1  0
  3  4  1  0
  5  4  1  1
  5  6  1  0
  6  7  1  0
  7  8  1  0
  8  9  1  0
  9 10  2  0
  9 11  1  0
 11 12  1  0
 12 13  2  0
 13 14  1  0
 14 15  2  0
 15 16  1  0
 16 17  2  0
 17 18  1  0
 18 19  2  0
 19 20  1  0
 20 21  2  0
 20 22  1  0
 19 23  1  0
 18 24  1  0
 17 25  1  0
 15 26  1  0
 13 27  1  0
 11 28  1  0
 11 29  1  0
  8 30  1  0
 30 31  1  0
 30 32  1  0
  7 33  1  0
  7 34  1  0
  6 35  1  0
  6 36  1  0
  5 37  1  0
 37 38  1  0
 38 39  1  0
 38 40  1  0
 37 41  1  0
 37 42  1  0
  4 43  1  0
  4 44  1  0
  3 45  1  0
  3 46  1  0
  2 47  1  1
  1 48  1  0
  1 49  1  0
  1 50  1  0
 38  2  1  0
 30  5  1  0
 21 12  1  0
 21 16  1  0
M  END
>  <cnnaffinities>  (19) 
[5.73493, 5.67238]

>  <score>  (19) 
5.73493

>  <index>  (19) 
18

>  <Smiles>  (19) 
C([C@]1(C(C([C@@]2(C(C(N(C(=O)C(c3c(nc(c4c(c(c(c(c34)[H])[H])[H])[H])[H])[H])([H])[H])C2([H])[H])([H])[H])([H])[H])C(C1([H])[H])([H])[H])([H])[H])([H])[H])[H])([H])([H])[H]

>  <h>  (19) 
<NA>

>  <Training>  (19) 
True

>  <Success>  (19) 
True

>  <enamine_searched>  (19) 
False

>  <enamine_id>  (19) 
nan

$$$$

     RDKit          3D

 67 71  0  0  0  0  0  0  0  0999 V2000
    4.5774   -5.7048   26.1579 O   0  0  0  0  0  0  0  0  0  0  0  0
    4.5405   -5.3589   24.9876 C   0  0  0  0  0  0  0  0  0  0  0  0
    5.8079   -4.9876   24.1963 C   0  0  0  0  0  0  0  0  0  0  0  0
    6.0236   -3.5287   24.0517 N   0  0  1  0  0  4  0  0  0  0  0  0
    6.0923   -2.8792   25.4069 C   0  0  0  0  0  0  0  0  0  0  0  0
    6.3539   -1.3951   25.3388 C   0  0  0  0  0  0  0  0  0  0  0  0
    6.0364   -0.5677   26.4178 C   0  0  0  0  0  0  0  0  0  0  0  0
    6.2908    0.7964   26.3799 C   0  0  0  0  0  0  0  0  0  0  0  0
    6.8586    1.3368   25.2308 C   0  0  0  0  0  0  0  0  0  0  0  0
    7.1654    3.0501   25.1643 Cl  0  0  0  0  0  0  0  0  0  0  0  0
    7.1765    0.5315   24.1460 C   0  0  0  0  0  0  0  0  0  0  0  0
    6.9618   -0.8514   24.2141 C   0  0  0  0  0  0  0  0  0  0  0  0
    7.3096   -1.7330   23.0306 C   0  0  2  0  0  0  0  0  0  0  0  0
    6.2382   -1.5174   21.9712 C   0  0  0  0  0  0  0  0  0  0  0  0
    5.1301   -2.0333   22.0683 O   0  0  0  0  0  0  0  0  0  0  0  0
    6.6281   -0.6984   20.9538 N   0  0  0  0  0  0  0  0  0  0  0  0
    5.8479   -0.1572   19.9141 C   0  0  0  0  0  0  0  0  0  0  0  0
    6.3530   -0.2003   18.6396 C   0  0  0  0  0  0  0  0  0  0  0  0
    5.7482    0.3259   17.5530 N   0  0  0  0  0  0  0  0  0  0  0  0
    4.5990    0.9249   17.7370 C   0  0  0  0  0  0  0  0  0  0  0  0
    3.9872    1.0768   19.0102 C   0  0  0  0  0  0  0  0  0  0  0  0
    2.7620    1.7794   19.1651 C   0  0  0  0  0  0  0  0  0  0  0  0
    2.1809    1.8957   20.3959 C   0  0  0  0  0  0  0  0  0  0  0  0
    2.8126    1.3438   21.5338 C   0  0  0  0  0  0  0  0  0  0  0  0
    4.0080    0.6864   21.4226 C   0  0  0  0  0  0  0  0  0  0  0  0
    4.6165    0.5190   20.1465 C   0  0  0  0  0  0  0  0  0  0  0  0
    4.4831    0.2724   22.3035 H   0  0  0  0  0  0  0  0  0  0  0  0
    2.3467    1.4409   22.5090 H   0  0  0  0  0  0  0  0  0  0  0  0
    1.2429    2.4353   20.5156 H   0  0  0  0  0  0  0  0  0  0  0  0
    2.2983    2.2140   18.2849 H   0  0  0  0  0  0  0  0  0  0  0  0
    4.1246    1.3745   16.8639 H   0  0  0  0  0  0  0  0  0  0  0  0
    7.3306   -0.6495   18.4627 H   0  0  0  0  0  0  0  0  0  0  0  0
    7.6210   -0.5373   20.8692 H   0  0  0  0  0  0  0  0  0  0  0  0
    7.2948   -3.2320   23.3186 C   0  0  0  0  0  0  0  0  0  0  0  0
    8.1584   -3.5555   23.9098 H   0  0  0  0  0  0  0  0  0  0  0  0
    7.3045   -3.7816   22.3709 H   0  0  0  0  0  0  0  0  0  0  0  0
    8.2752   -1.4286   22.6219 H   0  0  0  0  0  0  0  0  0  0  0  0
    7.5804    0.9877   23.2457 H   0  0  0  0  0  0  0  0  0  0  0  0
    6.0404    1.4381   27.2205 H   0  0  0  0  0  0  0  0  0  0  0  0
    5.5806   -0.9914   27.3089 H   0  0  0  0  0  0  0  0  0  0  0  0
    5.1591   -3.0781   25.9348 H   0  0  0  0  0  0  0  0  0  0  0  0
    6.8929   -3.3720   25.9799 H   0  0  0  0  0  0  0  0  0  0  0  0
    5.2753   -3.0866   23.4673 H   0  0  0  0  0  0  0  0  0  0  0  0
    6.6590   -5.4073   24.7419 H   0  0  0  0  0  0  0  0  0  0  0  0
    5.7864   -5.4529   23.2038 H   0  0  0  0  0  0  0  0  0  0  0  0
    3.3711   -5.2761   24.2968 N   0  0  0  0  0  0  0  0  0  0  0  0
    2.1033   -5.6453   24.9125 C   0  0  0  0  0  0  0  0  0  0  0  0
    1.9178   -7.1693   25.0425 C   0  0  0  0  0  0  0  0  0  0  0  0
    0.6175   -7.5490   25.7112 C   0  0  0  0  0  0  0  0  0  0  0  0
    0.5326   -7.6668   27.1006 C   0  0  0  0  0  0  0  0  0  0  0  0
   -0.6743   -7.9605   27.7234 C   0  0  0  0  0  0  0  0  0  0  0  0
   -1.8280   -8.1491   26.9649 C   0  0  0  0  0  0  0  0  0  0  0  0
   -3.1252   -8.4771   27.6401 C   0  0  0  0  0  0  0  0  0  0  0  0
   -3.4426   -7.5154   28.5555 F   0  0  0  0  0  0  0  0  0  0  0  0
   -3.0146   -9.6467   28.3358 F   0  0  0  0  0  0  0  0  0  0  0  0
   -3.9640   -8.5741   26.9405 H   0  0  0  0  0  0  0  0  0  0  0  0
   -1.7546   -8.0377   25.5798 C   0  0  0  0  0  0  0  0  0  0  0  0
   -0.5444   -7.7415   24.9613 C   0  0  0  0  0  0  0  0  0  0  0  0
   -0.5036   -7.6651   23.8772 H   0  0  0  0  0  0  0  0  0  0  0  0
   -2.6471   -8.1817   24.9720 H   0  0  0  0  0  0  0  0  0  0  0  0
   -0.7250   -8.0454   28.8047 H   0  0  0  0  0  0  0  0  0  0  0  0
    1.4228   -7.5337   27.7114 H   0  0  0  0  0  0  0  0  0  0  0  0
    2.7695   -7.5497   25.6171 H   0  0  0  0  0  0  0  0  0  0  0  0
    1.9665   -7.6197   24.0427 H   0  0  0  0  0  0  0  0  0  0  0  0
    2.0569   -5.1836   25.9039 H   0  0  0  0  0  0  0  0  0  0  0  0
    1.2993   -5.2232   24.3032 H   0  0  0  0  0  0  0  0  0  0  0  0
    3.3748   -4.9294   23.3505 H   0  0  0  0  0  0  0  0  0  0  0  0
  1  2  2  0
  2  3  1  0
  3  4  1  0
  4  5  1  0
  5  6  1  0
  6  7  2  0
  7  8  1  0
  8  9  2  0
  9 10  1  0
  9 11  1  0
 11 12  2  0
 12 13  1  0
 13 14  1  0
 14 15  2  0
 14 16  1  0
 16 17  1  0
 17 18  2  0
 18 19  1  0
 19 20  2  0
 20 21  1  0
 21 22  2  0
 22 23  1  0
 23 24  2  0
 24 25  1  0
 25 26  2  0
 25 27  1  0
 24 28  1  0
 23 29  1  0
 22 30  1  0
 20 31  1  0
 18 32  1  0
 16 33  1  0
 13 34  1  0
 34 35  1  0
 34 36  1  0
 13 37  1  6
 11 38  1  0
  8 39  1  0
  7 40  1  0
  5 41  1  0
  5 42  1  0
  4 43  1  6
  3 44  1  0
  3 45  1  0
  2 46  1  0
 46 47  1  0
 47 48  1  0
 48 49  1  0
 49 50  2  0
 50 51  1  0
 51 52  2  0
 52 53  1  0
 53 54  1  0
 53 55  1  0
 53 56  1  0
 52 57  1  0
 57 58  2  0
 58 59  1  0
 57 60  1  0
 51 61  1  0
 50 62  1  0
 48 63  1  0
 48 64  1  0
 47 65  1  0
 47 66  1  0
 46 67  1  0
 34  4  1  0
 58 49  1  0
 12  6  1  0
 26 17  1  0
 26 21  1  0
M  CHG  1   4   1
M  END
>  <cnnaffinities>  (20) 
[6.59507, 6.87809, 6.65265]

>  <score>  (20) 
6.59507

>  <index>  (20) 
19

>  <Smiles>  (20) 
O=C(C([N@+]1(C(c2c(c(c(Cl)c(c2[C@](C(=O)N(c2c(nc(c3c(c(c(c(c23)[H])[H])[H])[H])[H])[H])[H])(C1([H])[H])[H])[H])[H])[H])([H])[H])[H])([H])[H])N(C(C(c1c(c(c(C(F)(F)[H])c(c1[H])[H])[H])[H])([H])[H])([H])[H])[H]

>  <h>  (20) 
<NA>

>  <Training>  (20) 
True

>  <Success>  (20) 
True

>  <enamine_searched>  (20) 
False

>  <enamine_id>  (20) 
nan

$$$$

     RDKit          3D

 66 70  0  0  0  0  0  0  0  0999 V2000
    4.1599    6.4228   22.4876 C   0  0  0  0  0  0  0  0  0  0  0  0
    5.3511    5.4666   22.4672 C   0  0  0  0  0  0  0  0  0  0  0  0
    6.5941    6.2045   22.0053 C   0  0  0  0  0  0  0  0  0  0  0  0
    6.5411    6.9955   21.0846 O   0  0  0  0  0  0  0  0  0  0  0  0
    7.7583    6.0601   22.7653 N   0  0  0  0  0  0  0  0  0  0  0  0
    8.3980    7.3540   23.0732 C   0  0  0  0  0  0  0  0  0  0  0  0
    9.7872    7.2053   23.6616 C   0  0  0  0  0  0  0  0  0  0  0  0
    9.7385    6.1281   24.7365 C   0  0  0  0  0  0  0  0  0  0  0  0
    9.3149    4.8196   24.1264 C   0  0  0  0  0  0  0  0  0  0  0  0
    9.9414    3.6315   24.4672 C   0  0  0  0  0  0  0  0  0  0  0  0
    9.4918    2.4102   23.9952 C   0  0  0  0  0  0  0  0  0  0  0  0
    8.3994    2.3901   23.1266 C   0  0  0  0  0  0  0  0  0  0  0  0
    7.8619    1.1230   22.7430 N   0  0  0  0  0  0  0  0  0  0  0  0
    7.6721    0.8696   21.3813 C   0  0  0  0  0  0  0  0  0  0  0  0
    8.1347    1.6074   20.5400 O   0  0  0  0  0  0  0  0  0  0  0  0
    6.8725   -0.3806   21.0049 C   0  0  0  0  0  0  0  0  0  0  0  0
    5.9317   -0.0577   19.8928 C   0  0  0  0  0  0  0  0  0  0  0  0
    6.3958   -0.1187   18.6051 C   0  0  0  0  0  0  0  0  0  0  0  0
    5.7535    0.3712   17.5196 N   0  0  0  0  0  0  0  0  0  0  0  0
    4.5728    0.8962   17.7254 C   0  0  0  0  0  0  0  0  0  0  0  0
    3.9545    0.9980   19.0008 C   0  0  0  0  0  0  0  0  0  0  0  0
    2.6957    1.6255   19.1741 C   0  0  0  0  0  0  0  0  0  0  0  0
    2.1128    1.6886   20.4051 C   0  0  0  0  0  0  0  0  0  0  0  0
    2.7694    1.1436   21.5301 C   0  0  0  0  0  0  0  0  0  0  0  0
    4.0097    0.5622   21.4018 C   0  0  0  0  0  0  0  0  0  0  0  0
    4.6369    0.4817   20.1280 C   0  0  0  0  0  0  0  0  0  0  0  0
    4.5142    0.1768   22.2863 H   0  0  0  0  0  0  0  0  0  0  0  0
    2.3012    1.2069   22.5076 H   0  0  0  0  0  0  0  0  0  0  0  0
    1.1466    2.1710   20.5394 H   0  0  0  0  0  0  0  0  0  0  0  0
    2.2208    2.0671   18.3031 H   0  0  0  0  0  0  0  0  0  0  0  0
    4.0474    1.2852   16.8528 H   0  0  0  0  0  0  0  0  0  0  0  0
    7.3619   -0.5799   18.4084 H   0  0  0  0  0  0  0  0  0  0  0  0
    7.5859   -1.1324   20.6398 H   0  0  0  0  0  0  0  0  0  0  0  0
    6.3759   -0.7850   21.8870 H   0  0  0  0  0  0  0  0  0  0  0  0
    7.8862    0.0816   23.6669 N   0  0  0  0  0  0  0  0  0  0  0  0
    8.7678   -1.0494   23.4467 C   0  0  0  0  0  0  0  0  0  0  0  0
    9.5838   -1.0832   24.1857 H   0  0  0  0  0  0  0  0  0  0  0  0
    8.2090   -1.9941   23.5146 H   0  0  0  0  0  0  0  0  0  0  0  0
    9.2048   -0.9730   22.4487 H   0  0  0  0  0  0  0  0  0  0  0  0
    7.0166    0.1142   24.7530 C   0  0  0  0  0  0  0  0  0  0  0  0
    5.9826    1.0623   24.8303 C   0  0  0  0  0  0  0  0  0  0  0  0
    5.1995    1.1484   25.9735 C   0  0  0  0  0  0  0  0  0  0  0  0
    5.3840    0.2778   27.0431 C   0  0  0  0  0  0  0  0  0  0  0  0
    6.3594   -0.6997   26.9250 C   0  0  0  0  0  0  0  0  0  0  0  0
    6.5714   -1.8452   28.2190 Cl  0  0  0  0  0  0  0  0  0  0  0  0
    7.1703   -0.8002   25.8034 C   0  0  0  0  0  0  0  0  0  0  0  0
    7.9155   -1.5859   25.7632 H   0  0  0  0  0  0  0  0  0  0  0  0
    4.7872    0.3436   27.9469 H   0  0  0  0  0  0  0  0  0  0  0  0
    4.4297    1.9121   26.0404 H   0  0  0  0  0  0  0  0  0  0  0  0
    5.8000    1.7232   23.9895 H   0  0  0  0  0  0  0  0  0  0  0  0
    7.8066    3.5772   22.6928 C   0  0  0  0  0  0  0  0  0  0  0  0
    8.2601    4.8097   23.1972 C   0  0  0  0  0  0  0  0  0  0  0  0
    7.0004    3.5333   21.9650 H   0  0  0  0  0  0  0  0  0  0  0  0
    9.9571    1.4714   24.2781 H   0  0  0  0  0  0  0  0  0  0  0  0
   10.7979    3.6767   25.1359 H   0  0  0  0  0  0  0  0  0  0  0  0
    9.0031    6.4220   25.4996 H   0  0  0  0  0  0  0  0  0  0  0  0
   10.7020    6.0090   25.2476 H   0  0  0  0  0  0  0  0  0  0  0  0
   10.5110    6.9346   22.8857 H   0  0  0  0  0  0  0  0  0  0  0  0
   10.0984    8.1675   24.0848 H   0  0  0  0  0  0  0  0  0  0  0  0
    7.7685    7.8935   23.8006 H   0  0  0  0  0  0  0  0  0  0  0  0
    8.3803    7.9341   22.1452 H   0  0  0  0  0  0  0  0  0  0  0  0
    5.5221    5.0055   23.4472 H   0  0  0  0  0  0  0  0  0  0  0  0
    5.1493    4.6584   21.7599 H   0  0  0  0  0  0  0  0  0  0  0  0
    3.2298    5.8740   22.6503 H   0  0  0  0  0  0  0  0  0  0  0  0
    4.0965    6.9366   21.5248 H   0  0  0  0  0  0  0  0  0  0  0  0
    4.2528    7.1825   23.2723 H   0  0  0  0  0  0  0  0  0  0  0  0
  1  2  1  0
  2  3  1  0
  3  4  2  0
  3  5  1  0
  5  6  1  0
  6  7  1  0
  7  8  1  0
  8  9  1  0
  9 10  2  0
 10 11  1  0
 11 12  2  0
 12 13  1  0
 13 14  1  0
 14 15  2  0
 14 16  1  0
 16 17  1  0
 17 18  2  0
 18 19  1  0
 19 20  2  0
 20 21  1  0
 21 22  2  0
 22 23  1  0
 23 24  2  0
 24 25  1  0
 25 26  2  0
 25 27  1  0
 24 28  1  0
 23 29  1  0
 22 30  1  0
 20 31  1  0
 18 32  1  0
 16 33  1  0
 16 34  1  0
 13 35  1  0
 35 36  1  0
 36 37  1  0
 36 38  1  0
 36 39  1  0
 35 40  1  0
 40 41  2  0
 41 42  1  0
 42 43  2  0
 43 44  1  0
 44 45  1  0
 44 46  2  0
 46 47  1  0
 43 48  1  0
 42 49  1  0
 41 50  1  0
 12 51  1  0
 51 52  2  0
 51 53  1  0
 11 54  1  0
 10 55  1  0
  8 56  1  0
  8 57  1  0
  7 58  1  0
  7 59  1  0
  6 60  1  0
  6 61  1  0
  2 62  1  0
  2 63  1  0
  1 64  1  0
  1 65  1  0
  1 66  1  0
 52  5  1  0
 52  9  1  0
 26 17  1  0
 46 40  1  0
 26 21  1  0
M  END
>  <cnnaffinities>  (21) 
[6.97599]

>  <score>  (21) 
6.97599

>  <index>  (21) 
20

>  <Smiles>  (21) 
C(C(C(=O)N1C(C(C(c2c(c(c(N(C(=O)C(c3c(nc(c4c(c(c(c(c34)[H])[H])[H])[H])[H])[H])([H])[H])N(C([H])([H])[H])c3c(c(c(c(Cl)c3[H])[H])[H])[H])c(c12)[H])[H])[H])([H])[H])([H])[H])([H])[H])([H])[H])([H])([H])[H]

>  <h>  (21) 
<NA>

>  <Training>  (21) 
True

>  <Success>  (21) 
True

>  <enamine_searched>  (21) 
False

>  <enamine_id>  (21) 
nan

$$$$

     RDKit          3D

 59 64  0  0  0  0  0  0  0  0999 V2000
    7.7785   -3.0604   23.2556 C   0  0  0  0  0  0  0  0  0  0  0  0
    8.0202   -1.9580   22.2314 C   0  0  1  0  0  0  0  0  0  0  0  0
    6.8270   -1.8430   21.2704 C   0  0  0  0  0  0  0  0  0  0  0  0
    6.8284   -0.4497   20.8998 N   0  0  0  0  0  0  0  0  0  0  0  0
    6.0194    0.0463   19.8509 C   0  0  0  0  0  0  0  0  0  0  0  0
    6.4168   -0.1499   18.5527 C   0  0  0  0  0  0  0  0  0  0  0  0
    5.7528    0.3069   17.4644 N   0  0  0  0  0  0  0  0  0  0  0  0
    4.6326    0.9481   17.6768 C   0  0  0  0  0  0  0  0  0  0  0  0
    4.0704    1.1644   18.9657 C   0  0  0  0  0  0  0  0  0  0  0  0
    2.8286    1.8347   19.1282 C   0  0  0  0  0  0  0  0  0  0  0  0
    2.2518    1.9436   20.3606 C   0  0  0  0  0  0  0  0  0  0  0  0
    2.8930    1.3838   21.4903 C   0  0  0  0  0  0  0  0  0  0  0  0
    4.1112    0.7535   21.3647 C   0  0  0  0  0  0  0  0  0  0  0  0
    4.7519    0.6649   20.0983 C   0  0  0  0  0  0  0  0  0  0  0  0
    4.5871    0.3197   22.2358 H   0  0  0  0  0  0  0  0  0  0  0  0
    2.4337    1.4818   22.4644 H   0  0  0  0  0  0  0  0  0  0  0  0
    1.3114    2.4759   20.4897 H   0  0  0  0  0  0  0  0  0  0  0  0
    2.3394    2.2336   18.2469 H   0  0  0  0  0  0  0  0  0  0  0  0
    4.1204    1.3561   16.8058 H   0  0  0  0  0  0  0  0  0  0  0  0
    7.3391   -0.6844   18.3394 H   0  0  0  0  0  0  0  0  0  0  0  0
    7.6417    0.3567   21.6657 C   0  0  0  0  0  0  0  0  0  0  0  0
    7.7650    1.5518   21.4964 O   0  0  0  0  0  0  0  0  0  0  0  0
    8.2597   -0.5049   22.7869 C   0  0  1  0  0  0  0  0  0  0  0  0
    7.4395   -0.1489   24.0471 C   0  0  0  0  0  0  0  0  0  0  0  0
    8.0264   -0.6817   25.2696 N   0  0  0  0  0  0  0  0  0  0  0  0
    7.1499   -1.0556   26.3810 C   0  0  0  0  0  0  0  0  0  0  0  0
    6.6933    0.0826   27.2603 C   0  0  0  0  0  0  0  0  0  0  0  0
    5.6260    0.9856   27.0667 C   0  0  0  0  0  0  0  0  0  0  0  0
    5.5638    1.8879   28.0348 N   0  0  0  0  0  0  0  0  0  0  0  0
    6.5808    1.5910   28.8500 N   0  0  0  0  0  0  0  0  0  0  0  0
    6.7839    2.3867   30.0374 C   0  0  0  0  0  0  0  0  0  0  0  0
    6.3339    1.9151   30.9131 H   0  0  0  0  0  0  0  0  0  0  0  0
    6.3079    3.3526   29.8699 H   0  0  0  0  0  0  0  0  0  0  0  0
    7.8440    2.5444   30.2265 H   0  0  0  0  0  0  0  0  0  0  0  0
    7.2740    0.5050   28.4336 C   0  0  0  0  0  0  0  0  0  0  0  0
    8.1283    0.0988   28.9652 H   0  0  0  0  0  0  0  0  0  0  0  0
    4.8839    1.0092   26.2759 H   0  0  0  0  0  0  0  0  0  0  0  0
    7.7008   -1.7880   26.9794 H   0  0  0  0  0  0  0  0  0  0  0  0
    6.2865   -1.5776   25.9478 H   0  0  0  0  0  0  0  0  0  0  0  0
    9.3349   -0.3978   25.5676 C   0  0  0  0  0  0  0  0  0  0  0  0
    9.7697   -0.3501   26.7113 O   0  0  0  0  0  0  0  0  0  0  0  0
   10.2233   -0.1876   24.3915 C   0  0  0  0  0  0  0  0  0  0  0  0
   11.5810   -0.0043   24.6609 C   0  0  0  0  0  0  0  0  0  0  0  0
   12.4647    0.2578   23.6352 C   0  0  0  0  0  0  0  0  0  0  0  0
   11.9631    0.3140   22.3398 C   0  0  0  0  0  0  0  0  0  0  0  0
   12.8358    0.6179   21.3644 F   0  0  0  0  0  0  0  0  0  0  0  0
   10.6296    0.0833   22.0399 C   0  0  0  0  0  0  0  0  0  0  0  0
    9.7237   -0.1839   23.0783 C   0  0  0  0  0  0  0  0  0  0  0  0
   10.2973    0.1242   21.0085 H   0  0  0  0  0  0  0  0  0  0  0  0
   13.5229    0.4188   23.8060 H   0  0  0  0  0  0  0  0  0  0  0  0
   11.9195   -0.0726   25.6914 H   0  0  0  0  0  0  0  0  0  0  0  0
    6.4120   -0.5240   23.9435 H   0  0  0  0  0  0  0  0  0  0  0  0
    7.3953    0.9504   24.0825 H   0  0  0  0  0  0  0  0  0  0  0  0
    5.8843   -2.1295   21.7652 H   0  0  0  0  0  0  0  0  0  0  0  0
    6.9085   -2.4798   20.3825 H   0  0  0  0  0  0  0  0  0  0  0  0
    8.9121   -2.1991   21.6360 H   0  0  0  0  0  0  0  0  0  0  0  0
    8.5908   -3.1288   23.9806 H   0  0  0  0  0  0  0  0  0  0  0  0
    6.8489   -2.8737   23.8074 H   0  0  0  0  0  0  0  0  0  0  0  0
    7.6714   -4.0294   22.7560 H   0  0  0  0  0  0  0  0  0  0  0  0
  1  2  1  0
  2  3  1  0
  3  4  1  0
  4  5  1  0
  5  6  2  0
  6  7  1  0
  7  8  2  0
  8  9  1  0
  9 10  2  0
 10 11  1  0
 11 12  2  0
 12 13  1  0
 13 14  2  0
 13 15  1  0
 12 16  1  0
 11 17  1  0
 10 18  1  0
  8 19  1  0
  6 20  1  0
  4 21  1  0
 21 22  2  0
 21 23  1  0
 23 24  1  1
 24 25  1  0
 25 26  1  0
 26 27  1  0
 27 28  1  0
 28 29  2  0
 29 30  1  0
 30 31  1  0
 31 32  1  0
 31 33  1  0
 31 34  1  0
 30 35  1  0
 35 36  1  0
 28 37  1  0
 26 38  1  0
 26 39  1  0
 25 40  1  0
 40 41  2  0
 40 42  1  0
 42 43  2  0
 43 44  1  0
 44 45  2  0
 45 46  1  0
 45 47  1  0
 47 48  2  0
 47 49  1  0
 44 50  1  0
 43 51  1  0
 24 52  1  0
 24 53  1  0
  3 54  1  0
  3 55  1  0
  2 56  1  6
  1 57  1  0
  1 58  1  0
  1 59  1  0
 23  2  1  0
 35 27  2  0
 48 42  1  0
 14  5  1  0
 48 23  1  0
 14  9  1  0
M  END
>  <cnnaffinities>  (22) 
[6.65522, 6.61911, 6.44345]

>  <score>  (22) 
6.65522

>  <index>  (22) 
21

>  <Smiles>  (22) 
C([C@]1(C(N(c2c(nc(c3c(c(c(c(c23)[H])[H])[H])[H])[H])[H])C(=O)[C@]21C(N(C(c1c(nn(C([H])([H])[H])c1[H])[H])([H])[H])C(=O)c1c(c(c(F)c(c21)[H])[H])[H])([H])[H])([H])[H])[H])([H])([H])[H]

>  <h>  (22) 
<NA>

>  <Training>  (22) 
True

>  <Success>  (22) 
True

>  <enamine_searched>  (22) 
False

>  <enamine_id>  (22) 
nan

$$$$

     RDKit          3D

 41 44  0  0  0  0  0  0  0  0999 V2000
    7.9295    1.6812   20.9731 O   0  0  0  0  0  0  0  0  0  0  0  0
    7.9990    0.5237   21.3427 C   0  0  0  0  0  0  0  0  0  0  0  0
    6.9399   -0.5204   20.9518 C   0  0  0  0  0  0  0  0  0  0  0  0
    6.0158   -0.0441   19.8682 C   0  0  0  0  0  0  0  0  0  0  0  0
    6.4165   -0.1744   18.5659 C   0  0  0  0  0  0  0  0  0  0  0  0
    5.7627    0.3071   17.4815 N   0  0  0  0  0  0  0  0  0  0  0  0
    4.6552    0.9658   17.6999 C   0  0  0  0  0  0  0  0  0  0  0  0
    4.0851    1.1489   18.9835 C   0  0  0  0  0  0  0  0  0  0  0  0
    2.8563    1.8337   19.1548 C   0  0  0  0  0  0  0  0  0  0  0  0
    2.2904    1.9443   20.3921 C   0  0  0  0  0  0  0  0  0  0  0  0
    2.9377    1.3741   21.5097 C   0  0  0  0  0  0  0  0  0  0  0  0
    4.1500    0.7441   21.3748 C   0  0  0  0  0  0  0  0  0  0  0  0
    4.7682    0.6149   20.1057 C   0  0  0  0  0  0  0  0  0  0  0  0
    4.6485    0.3376   22.2465 H   0  0  0  0  0  0  0  0  0  0  0  0
    2.4906    1.4836   22.4914 H   0  0  0  0  0  0  0  0  0  0  0  0
    1.3623    2.4946   20.5203 H   0  0  0  0  0  0  0  0  0  0  0  0
    2.3714    2.2432   18.2715 H   0  0  0  0  0  0  0  0  0  0  0  0
    4.1508    1.3782   16.8247 H   0  0  0  0  0  0  0  0  0  0  0  0
    7.3682   -0.6524   18.3415 H   0  0  0  0  0  0  0  0  0  0  0  0
    6.3899   -0.8134   21.8527 H   0  0  0  0  0  0  0  0  0  0  0  0
    7.4785   -1.4110   20.5984 H   0  0  0  0  0  0  0  0  0  0  0  0
    9.0307    0.0716   22.1215 N   0  0  0  0  0  0  0  0  0  0  0  0
    9.1523   -1.3115   22.5748 C   0  0  0  0  0  0  0  0  0  0  0  0
   10.0275   -1.4025   23.8206 C   0  0  0  0  0  0  0  0  0  0  0  0
   11.3724   -0.7974   23.5346 C   0  0  0  0  0  0  0  0  0  0  0  0
   12.5868   -1.3152   23.9741 C   0  0  0  0  0  0  0  0  0  0  0  0
   12.6315   -2.7449   24.9713 Cl  0  0  0  0  0  0  0  0  0  0  0  0
   13.7896   -0.7256   23.6168 C   0  0  0  0  0  0  0  0  0  0  0  0
   13.7932    0.3860   22.7884 C   0  0  0  0  0  0  0  0  0  0  0  0
   12.5881    0.9424   22.3671 C   0  0  0  0  0  0  0  0  0  0  0  0
   11.3849    0.3767   22.7769 C   0  0  0  0  0  0  0  0  0  0  0  0
   10.0499    1.0349   22.5357 C   0  0  0  0  0  0  0  0  0  0  0  0
    9.7184    1.5179   23.4712 H   0  0  0  0  0  0  0  0  0  0  0  0
   10.1359    1.8218   21.7886 H   0  0  0  0  0  0  0  0  0  0  0  0
   12.5877    1.8245   21.7299 H   0  0  0  0  0  0  0  0  0  0  0  0
   14.7296    0.8411   22.4788 H   0  0  0  0  0  0  0  0  0  0  0  0
   14.7004   -1.1604   24.0068 H   0  0  0  0  0  0  0  0  0  0  0  0
   10.1267   -2.4487   24.1095 H   0  0  0  0  0  0  0  0  0  0  0  0
    9.5504   -0.8761   24.6591 H   0  0  0  0  0  0  0  0  0  0  0  0
    9.5943   -1.9364   21.7822 H   0  0  0  0  0  0  0  0  0  0  0  0
    8.1622   -1.7155   22.8088 H   0  0  0  0  0  0  0  0  0  0  0  0
  1  2  2  0
  2  3  1  0
  3  4  1  0
  4  5  2  0
  5  6  1  0
  6  7  2  0
  7  8  1  0
  8  9  2  0
  9 10  1  0
 10 11  2  0
 11 12  1  0
 12 13  2  0
 12 14  1  0
 11 15  1  0
 10 16  1  0
  9 17  1  0
  7 18  1  0
  5 19  1  0
  3 20  1  0
  3 21  1  0
  2 22  1  0
 22 23  1  0
 23 24  1  0
 24 25  1  0
 25 26  2  0
 26 27  1  0
 26 28  1  0
 28 29  2  0
 29 30  1  0
 30 31  2  0
 31 32  1  0
 32 33  1  0
 32 34  1  0
 30 35  1  0
 29 36  1  0
 28 37  1  0
 24 38  1  0
 24 39  1  0
 23 40  1  0
 23 41  1  0
 13  4  1  0
 32 22  1  0
 13  8  1  0
 31 25  1  0
M  END
>  <cnnaffinities>  (23) 
[5.96784, 5.368]

>  <score>  (23) 
5.96784

>  <index>  (23) 
22

>  <Smiles>  (23) 
O=C(C(c1c(nc(c2c(c(c(c(c12)[H])[H])[H])[H])[H])[H])([H])[H])N1C(C(c2c(Cl)c(c(c(c2C1([H])[H])[H])[H])[H])([H])[H])([H])[H]

>  <h>  (23) 
<NA>

>  <Training>  (23) 
True

>  <Success>  (23) 
True

>  <enamine_searched>  (23) 
False

>  <enamine_id>  (23) 
nan

$$$$

     RDKit          3D

 69 74  0  0  0  0  0  0  0  0999 V2000
    8.7867    7.6088   24.3459 C   0  0  0  0  0  0  0  0  0  0  0  0
    8.3109    6.3906   23.5739 C   0  0  1  0  0  0  0  0  0  0  0  0
    7.8369    5.2456   24.4660 C   0  0  0  0  0  0  0  0  0  0  0  0
    7.2643    4.0917   23.6630 N   0  0  1  0  0  4  0  0  0  0  0  0
    6.6805    3.0467   24.5589 C   0  0  0  0  0  0  0  0  0  0  0  0
    7.7492    2.2998   25.3554 C   0  0  0  0  0  0  0  0  0  0  0  0
    8.5719    1.4726   24.4932 N   0  0  0  0  0  0  0  0  0  0  0  0
    8.0827    0.1406   24.1905 C   0  0  0  0  0  0  0  0  0  0  0  0
    8.3851   -0.2786   22.7381 C   0  0  2  0  0  0  0  0  0  0  0  0
    7.5358    0.5526   21.7483 C   0  0  0  0  0  0  0  0  0  0  0  0
    7.4703    1.7695   21.7154 O   0  0  0  0  0  0  0  0  0  0  0  0
    6.8477   -0.3197   20.9353 N   0  0  0  0  0  0  0  0  0  0  0  0
    6.0292    0.0830   19.8621 C   0  0  0  0  0  0  0  0  0  0  0  0
    6.4019   -0.1793   18.5697 C   0  0  0  0  0  0  0  0  0  0  0  0
    5.7295    0.2529   17.4823 N   0  0  0  0  0  0  0  0  0  0  0  0
    4.6485    0.9607   17.6832 C   0  0  0  0  0  0  0  0  0  0  0  0
    4.0922    1.2026   18.9662 C   0  0  0  0  0  0  0  0  0  0  0  0
    2.8723    1.9075   19.1278 C   0  0  0  0  0  0  0  0  0  0  0  0
    2.3048    2.0407   20.3657 C   0  0  0  0  0  0  0  0  0  0  0  0
    2.9333    1.4806   21.5024 C   0  0  0  0  0  0  0  0  0  0  0  0
    4.1329    0.8215   21.3713 C   0  0  0  0  0  0  0  0  0  0  0  0
    4.7674    0.7064   20.1006 C   0  0  0  0  0  0  0  0  0  0  0  0
    4.6127    0.3872   22.2408 H   0  0  0  0  0  0  0  0  0  0  0  0
    2.4715    1.5951   22.4785 H   0  0  0  0  0  0  0  0  0  0  0  0
    1.3786    2.5950   20.4813 H   0  0  0  0  0  0  0  0  0  0  0  0
    2.3908    2.2951   18.2352 H   0  0  0  0  0  0  0  0  0  0  0  0
    4.1485    1.3544   16.8018 H   0  0  0  0  0  0  0  0  0  0  0  0
    7.3280   -0.7092   18.3619 H   0  0  0  0  0  0  0  0  0  0  0  0
    7.3257   -1.6819   21.0230 C   0  0  0  0  0  0  0  0  0  0  0  0
    7.9869   -1.7563   22.4110 C   0  0  2  0  0  0  0  0  0  0  0  0
    7.1130   -2.4653   23.4392 C   0  0  0  0  0  0  0  0  0  0  0  0
    7.6384   -2.5401   24.3955 H   0  0  0  0  0  0  0  0  0  0  0  0
    6.1575   -1.9586   23.6004 H   0  0  0  0  0  0  0  0  0  0  0  0
    6.9140   -3.4861   23.0980 H   0  0  0  0  0  0  0  0  0  0  0  0
    8.8883   -2.3716   22.3588 H   0  0  0  0  0  0  0  0  0  0  0  0
    6.4905   -2.3802   20.9005 H   0  0  0  0  0  0  0  0  0  0  0  0
    8.0534   -1.8893   20.2259 H   0  0  0  0  0  0  0  0  0  0  0  0
    9.8644   -0.0183   22.5186 C   0  0  0  0  0  0  0  0  0  0  0  0
   10.6049   -0.8666   21.6996 C   0  0  0  0  0  0  0  0  0  0  0  0
   11.9680   -0.7049   21.5817 C   0  0  0  0  0  0  0  0  0  0  0  0
   12.8154   -1.9739   20.7565 Cl  0  0  0  0  0  0  0  0  0  0  0  0
   12.6404    0.3906   22.1216 C   0  0  0  0  0  0  0  0  0  0  0  0
   11.8964    1.2790   22.8855 C   0  0  0  0  0  0  0  0  0  0  0  0
   10.5355    1.0467   23.1350 C   0  0  0  0  0  0  0  0  0  0  0  0
    9.8091    1.9110   24.1206 C   0  0  0  0  0  0  0  0  0  0  0  0
   10.3060    2.9409   24.5698 O   0  0  0  0  0  0  0  0  0  0  0  0
   12.3728    2.1459   23.3366 H   0  0  0  0  0  0  0  0  0  0  0  0
   13.7126    0.5206   21.9656 H   0  0  0  0  0  0  0  0  0  0  0  0
   10.1562   -1.7093   21.1851 H   0  0  0  0  0  0  0  0  0  0  0  0
    8.5281   -0.5894   24.8812 H   0  0  0  0  0  0  0  0  0  0  0  0
    7.0063    0.1282   24.3576 H   0  0  0  0  0  0  0  0  0  0  0  0
    7.2623    1.6613   26.1000 H   0  0  0  0  0  0  0  0  0  0  0  0
    8.4078    2.9860   25.8870 H   0  0  0  0  0  0  0  0  0  0  0  0
    5.9535    3.5157   25.2371 H   0  0  0  0  0  0  0  0  0  0  0  0
    6.1346    2.3361   23.9280 H   0  0  0  0  0  0  0  0  0  0  0  0
    6.2428    4.6140   22.6847 C   0  0  0  0  0  0  0  0  0  0  0  0
    6.8186    5.7829   21.9027 C   0  0  0  0  0  0  0  0  0  0  0  0
    7.2428    6.8280   22.7468 O   0  0  0  0  0  0  0  0  0  0  0  0
    6.0693    6.1930   21.2170 H   0  0  0  0  0  0  0  0  0  0  0  0
    7.6804    5.4219   21.3180 H   0  0  0  0  0  0  0  0  0  0  0  0
    5.9728    3.8028   22.0043 H   0  0  0  0  0  0  0  0  0  0  0  0
    5.3514    4.9297   23.2397 H   0  0  0  0  0  0  0  0  0  0  0  0
    7.9934    3.6281   23.0846 H   0  0  0  0  0  0  0  0  0  0  0  0
    7.0496    5.6162   25.1361 H   0  0  0  0  0  0  0  0  0  0  0  0
    8.6690    4.8825   25.0688 H   0  0  0  0  0  0  0  0  0  0  0  0
    9.1292    6.0166   22.9313 H   0  0  0  0  0  0  0  0  0  0  0  0
    9.6119    7.3711   25.0271 H   0  0  0  0  0  0  0  0  0  0  0  0
    9.1317    8.3654   23.6342 H   0  0  0  0  0  0  0  0  0  0  0  0
    7.9558    8.0273   24.9244 H   0  0  0  0  0  0  0  0  0  0  0  0
  1  2  1  0
  2  3  1  0
  3  4  1  0
  4  5  1  0
  5  6  1  0
  6  7  1  0
  7  8  1  0
  9  8  1  1
  9 10  1  0
 10 11  2  0
 10 12  1  0
 12 13  1  0
 13 14  2  0
 14 15  1  0
 15 16  2  0
 16 17  1  0
 17 18  2  0
 18 19  1  0
 19 20  2  0
 20 21  1  0
 21 22  2  0
 21 23  1  0
 20 24  1  0
 19 25  1  0
 18 26  1  0
 16 27  1  0
 14 28  1  0
 12 29  1  0
 29 30  1  0
 30 31  1  0
 31 32  1  0
 31 33  1  0
 31 34  1  0
 30 35  1  6
 29 36  1  0
 29 37  1  0
  9 38  1  0
 38 39  2  0
 39 40  1  0
 40 41  1  0
 40 42  2  0
 42 43  1  0
 43 44  2  0
 44 45  1  0
 45 46  2  0
 43 47  1  0
 42 48  1  0
 39 49  1  0
  8 50  1  0
  8 51  1  0
  6 52  1  0
  6 53  1  0
  5 54  1  0
  5 55  1  0
  4 56  1  0
 56 57  1  0
 57 58  1  0
 57 59  1  0
 57 60  1  0
 56 61  1  0
 56 62  1  0
  4 63  1  6
  3 64  1  0
  3 65  1  0
  2 66  1  6
  1 67  1  0
  1 68  1  0
  1 69  1  0
 58  2  1  0
 45  7  1  0
 30  9  1  0
 44 38  1  0
 22 13  1  0
 22 17  1  0
M  CHG  1   4   1
M  END
>  <cnnaffinities>  (24) 
[6.43259]

>  <score>  (24) 
6.43259

>  <index>  (24) 
23

>  <Smiles>  (24) 
C([C@]1(C([N@@+](C(C(N2C([C@@]3(C(=O)N(c4c(nc(c5c(c(c(c(c45)[H])[H])[H])[H])[H])[H])C([C@@]3(C([H])([H])[H])[H])([H])[H])c3c(c(Cl)c(c(c3C2=O)[H])[H])[H])([H])[H])([H])[H])([H])[H])(C(C(O1)([H])[H])([H])[H])[H])([H])[H])[H])([H])([H])[H]

>  <h>  (24) 
<NA>

>  <Training>  (24) 
True

>  <Success>  (24) 
True

>  <enamine_searched>  (24) 
False

>  <enamine_id>  (24) 
nan

$$$$

     RDKit          3D

 70 75  0  0  0  0  0  0  0  0999 V2000
    7.0549    5.0505   22.6537 C   0  0  0  0  0  0  0  0  0  0  0  0
    7.4248    3.7920   23.3054 N   0  0  0  0  0  4  0  0  0  0  0  0
    6.3109    3.1132   24.0036 C   0  0  0  0  0  0  0  0  0  0  0  0
    6.8314    2.1829   25.1057 C   0  0  0  0  0  0  0  0  0  0  0  0
    7.8892    1.3002   24.6258 N   0  0  0  0  0  0  0  0  0  0  0  0
    7.5562   -0.0443   24.2008 C   0  0  0  0  0  0  0  0  0  0  0  0
    8.1676   -0.4133   22.8200 C   0  0  2  0  0  0  0  0  0  0  0  0
    7.4727    0.4205   21.7214 C   0  0  0  0  0  0  0  0  0  0  0  0
    7.5901    1.6258   21.5726 O   0  0  0  0  0  0  0  0  0  0  0  0
    6.6805   -0.4080   20.9658 N   0  0  0  0  0  0  0  0  0  0  0  0
    5.8706    0.0301   19.8803 C   0  0  0  0  0  0  0  0  0  0  0  0
    6.3725    0.0411   18.6014 C   0  0  0  0  0  0  0  0  0  0  0  0
    5.6856    0.4638   17.5104 N   0  0  0  0  0  0  0  0  0  0  0  0
    4.4657    0.9002   17.6945 C   0  0  0  0  0  0  0  0  0  0  0  0
    3.8039    0.9017   18.9551 C   0  0  0  0  0  0  0  0  0  0  0  0
    2.4881    1.4174   19.0970 C   0  0  0  0  0  0  0  0  0  0  0  0
    1.8770    1.4265   20.3207 C   0  0  0  0  0  0  0  0  0  0  0  0
    2.5561    0.9139   21.4478 C   0  0  0  0  0  0  0  0  0  0  0  0
    3.8287    0.4009   21.3365 C   0  0  0  0  0  0  0  0  0  0  0  0
    4.5055    0.4211   20.0829 C   0  0  0  0  0  0  0  0  0  0  0  0
    4.3174   -0.0274   22.2065 H   0  0  0  0  0  0  0  0  0  0  0  0
    2.0621    0.9131   22.4158 H   0  0  0  0  0  0  0  0  0  0  0  0
    0.8616    1.8008   20.4334 H   0  0  0  0  0  0  0  0  0  0  0  0
    2.0017    1.8252   18.2159 H   0  0  0  0  0  0  0  0  0  0  0  0
    3.9104    1.2624   16.8269 H   0  0  0  0  0  0  0  0  0  0  0  0
    7.3857   -0.3087   18.4161 H   0  0  0  0  0  0  0  0  0  0  0  0
    6.5960   -1.7606   21.4799 C   0  0  0  0  0  0  0  0  0  0  0  0
    7.8184   -1.8679   22.4038 C   0  0  2  0  0  0  0  0  0  0  0  0
    7.6438   -2.8558   23.5540 C   0  0  0  0  0  0  0  0  0  0  0  0
    7.2819   -4.1161   23.0361 O   0  0  0  0  0  0  0  0  0  0  0  0
    6.9510   -5.0483   24.0460 C   0  0  0  0  0  0  0  0  0  0  0  0
    6.5912   -6.3544   23.3683 C   0  0  0  0  0  0  0  0  0  0  0  0
    6.7294   -7.6011   24.2514 C   0  0  0  0  0  0  0  0  0  0  0  0
    7.9385   -7.9936   23.5878 O   0  0  0  0  0  0  0  0  0  0  0  0
    7.7780   -6.9577   22.6092 C   0  0  0  0  0  0  0  0  0  0  0  0
    7.5601   -7.3476   21.6098 H   0  0  0  0  0  0  0  0  0  0  0  0
    8.6465   -6.2982   22.5647 H   0  0  0  0  0  0  0  0  0  0  0  0
    6.8824   -7.4327   25.3254 H   0  0  0  0  0  0  0  0  0  0  0  0
    5.9438   -8.3550   24.1261 H   0  0  0  0  0  0  0  0  0  0  0  0
    5.6679   -6.2494   22.7960 H   0  0  0  0  0  0  0  0  0  0  0  0
    7.8065   -5.2084   24.7222 H   0  0  0  0  0  0  0  0  0  0  0  0
    6.1175   -4.6731   24.6620 H   0  0  0  0  0  0  0  0  0  0  0  0
    8.5824   -2.9254   24.1303 H   0  0  0  0  0  0  0  0  0  0  0  0
    6.8594   -2.5032   24.2426 H   0  0  0  0  0  0  0  0  0  0  0  0
    8.6296   -2.2402   21.7815 H   0  0  0  0  0  0  0  0  0  0  0  0
    5.6572   -1.9323   22.0224 H   0  0  0  0  0  0  0  0  0  0  0  0
    6.6241   -2.4689   20.6488 H   0  0  0  0  0  0  0  0  0  0  0  0
    9.6489   -0.1014   22.8837 C   0  0  0  0  0  0  0  0  0  0  0  0
   10.6020   -0.8185   22.1550 C   0  0  0  0  0  0  0  0  0  0  0  0
   11.9398   -0.5145   22.2888 C   0  0  0  0  0  0  0  0  0  0  0  0
   13.0834   -1.5569   21.5117 Cl  0  0  0  0  0  0  0  0  0  0  0  0
   12.3870    0.5576   23.0548 C   0  0  0  0  0  0  0  0  0  0  0  0
   11.4470    1.3067   23.7352 C   0  0  0  0  0  0  0  0  0  0  0  0
   10.0979    0.9674   23.6721 C   0  0  0  0  0  0  0  0  0  0  0  0
    9.1340    1.8032   24.4469 C   0  0  0  0  0  0  0  0  0  0  0  0
    9.4636    2.9145   24.8764 O   0  0  0  0  0  0  0  0  0  0  0  0
   11.7272    2.1565   24.3462 H   0  0  0  0  0  0  0  0  0  0  0  0
   13.4411    0.8010   23.0915 H   0  0  0  0  0  0  0  0  0  0  0  0
   10.3397   -1.6110   21.4640 H   0  0  0  0  0  0  0  0  0  0  0  0
    6.4658   -0.1053   24.1375 H   0  0  0  0  0  0  0  0  0  0  0  0
    7.9194   -0.7576   24.9539 H   0  0  0  0  0  0  0  0  0  0  0  0
    6.0158    1.5536   25.4751 H   0  0  0  0  0  0  0  0  0  0  0  0
    7.2209    2.7459   25.9592 H   0  0  0  0  0  0  0  0  0  0  0  0
    5.7447    2.5276   23.2708 H   0  0  0  0  0  0  0  0  0  0  0  0
    5.6286    3.8555   24.4320 H   0  0  0  0  0  0  0  0  0  0  0  0
    8.1965    3.9431   23.9708 H   0  0  0  0  0  0  0  0  0  0  0  0
    7.7433    3.1265   22.5847 H   0  0  0  0  0  0  0  0  0  0  0  0
    6.3222    5.5850   23.2639 H   0  0  0  0  0  0  0  0  0  0  0  0
    7.9231    5.6972   22.5112 H   0  0  0  0  0  0  0  0  0  0  0  0
    6.5939    4.8492   21.6853 H   0  0  0  0  0  0  0  0  0  0  0  0
  1  2  1  0
  2  3  1  0
  3  4  1  0
  4  5  1  0
  5  6  1  0
  7  6  1  1
  7  8  1  0
  8  9  2  0
  8 10  1  0
 10 11  1  0
 11 12  2  0
 12 13  1  0
 13 14  2  0
 14 15  1  0
 15 16  2  0
 16 17  1  0
 17 18  2  0
 18 19  1  0
 19 20  2  0
 19 21  1  0
 18 22  1  0
 17 23  1  0
 16 24  1  0
 14 25  1  0
 12 26  1  0
 10 27  1  0
 27 28  1  0
 28 29  1  0
 29 30  1  0
 30 31  1  0
 31 32  1  0
 32 33  1  0
 33 34  1  0
 34 35  1  0
 35 36  1  0
 35 37  1  0
 33 38  1  0
 33 39  1  0
 32 40  1  0
 31 41  1  0
 31 42  1  0
 29 43  1  0
 29 44  1  0
 28 45  1  6
 27 46  1  0
 27 47  1  0
  7 48  1  0
 48 49  2  0
 49 50  1  0
 50 51  1  0
 50 52  2  0
 52 53  1  0
 53 54  2  0
 54 55  1  0
 55 56  2  0
 53 57  1  0
 52 58  1  0
 49 59  1  0
  6 60  1  0
  6 61  1  0
  4 62  1  0
  4 63  1  0
  3 64  1  0
  3 65  1  0
  2 66  1  0
  2 67  1  0
  1 68  1  0
  1 69  1  0
  1 70  1  0
 55  5  1  0
 28  7  1  0
 35 32  1  0
 54 48  1  0
 20 11  1  0
 20 15  1  0
M  CHG  1   2   1
M  END
>  <cnnaffinities>  (25) 
[6.8861, 6.9814]

>  <score>  (25) 
6.8861

>  <index>  (25) 
24

>  <Smiles>  (25) 
C([N+](C(C(N1C([C@@]2(C(=O)N(c3c(nc(c4c(c(c(c(c34)[H])[H])[H])[H])[H])[H])C([C@@]2(C(OC(C2(C(OC2([H])[H])([H])[H])[H])([H])[H])([H])[H])[H])([H])[H])c2c(c(Cl)c(c(c2C1=O)[H])[H])[H])([H])[H])([H])[H])([H])[H])([H])[H])([H])([H])[H]

>  <h>  (25) 
<NA>

>  <Training>  (25) 
True

>  <Success>  (25) 
True

>  <enamine_searched>  (25) 
False

>  <enamine_id>  (25) 
nan

$$$$

     RDKit          3D

 68 73  0  0  0  0  0  0  0  0999 V2000
    7.2290   -4.6910   26.6223 C   0  0  0  0  0  0  0  0  0  0  0  0
    7.5462   -3.2776   26.7449 N   0  0  0  0  0  0  0  0  0  0  0  0
    6.6496   -2.3525   26.3167 C   0  0  0  0  0  0  0  0  0  0  0  0
    5.5698   -2.6606   25.8263 O   0  0  0  0  0  0  0  0  0  0  0  0
    7.1336   -0.9008   26.4124 C   0  0  0  0  0  0  0  0  0  0  0  0
    8.0205   -0.6116   25.2935 N   0  0  0  0  0  0  0  0  0  0  0  0
    7.4475   -0.1653   24.0332 C   0  0  0  0  0  0  0  0  0  0  0  0
    8.3039   -0.4998   22.7779 C   0  0  2  0  0  0  0  0  0  0  0  0
    7.6516    0.3472   21.6604 C   0  0  0  0  0  0  0  0  0  0  0  0
    7.7735    1.5346   21.4592 O   0  0  0  0  0  0  0  0  0  0  0  0
    6.7916   -0.4676   20.9484 N   0  0  0  0  0  0  0  0  0  0  0  0
    5.9913    0.0224   19.8863 C   0  0  0  0  0  0  0  0  0  0  0  0
    6.4232   -0.1283   18.5927 C   0  0  0  0  0  0  0  0  0  0  0  0
    5.7588    0.3224   17.5023 N   0  0  0  0  0  0  0  0  0  0  0  0
    4.6240    0.9473   17.7002 C   0  0  0  0  0  0  0  0  0  0  0  0
    4.0263    1.1186   18.9821 C   0  0  0  0  0  0  0  0  0  0  0  0
    2.7571    1.7416   19.1330 C   0  0  0  0  0  0  0  0  0  0  0  0
    2.1725    1.8288   20.3663 C   0  0  0  0  0  0  0  0  0  0  0  0
    2.8088    1.2617   21.4929 C   0  0  0  0  0  0  0  0  0  0  0  0
    4.0355    0.6536   21.3767 C   0  0  0  0  0  0  0  0  0  0  0  0
    4.6968    0.6003   20.1154 C   0  0  0  0  0  0  0  0  0  0  0  0
    4.4918    0.1838   22.2436 H   0  0  0  0  0  0  0  0  0  0  0  0
    2.3147    1.2965   22.4569 H   0  0  0  0  0  0  0  0  0  0  0  0
    1.2019    2.3052   20.4846 H   0  0  0  0  0  0  0  0  0  0  0  0
    2.2690    2.1511   18.2538 H   0  0  0  0  0  0  0  0  0  0  0  0
    4.0969    1.3301   16.8257 H   0  0  0  0  0  0  0  0  0  0  0  0
    7.3573   -0.6517   18.3908 H   0  0  0  0  0  0  0  0  0  0  0  0
    6.8506   -1.8664   21.2940 C   0  0  0  0  0  0  0  0  0  0  0  0
    8.0920   -1.9449   22.1947 C   0  0  2  0  0  0  0  0  0  0  0  0
    7.9811   -3.0521   23.2418 C   0  0  0  0  0  0  0  0  0  0  0  0
    7.9565   -4.3971   22.7134 N   0  0  0  0  0  0  0  0  0  0  0  0
    6.7552   -5.0215   22.3898 C   0  0  0  0  0  0  0  0  0  0  0  0
    6.6517   -6.2206   21.6462 C   0  0  0  0  0  0  0  0  0  0  0  0
    5.4020   -6.6561   21.5953 N   0  0  0  0  0  0  0  0  0  0  0  0
    4.6837   -5.7649   22.2830 N   0  0  0  0  0  0  0  0  0  0  0  0
    3.2921   -6.0496   22.5544 C   0  0  0  0  0  0  0  0  0  0  0  0
    2.6493   -5.2335   22.2230 H   0  0  0  0  0  0  0  0  0  0  0  0
    3.1223   -6.2255   23.6206 H   0  0  0  0  0  0  0  0  0  0  0  0
    3.0309   -6.9534   22.0042 H   0  0  0  0  0  0  0  0  0  0  0  0
    5.4544   -4.7515   22.7829 C   0  0  0  0  0  0  0  0  0  0  0  0
    5.0390   -3.9423   23.3810 H   0  0  0  0  0  0  0  0  0  0  0  0
    7.4466   -6.7908   21.1776 H   0  0  0  0  0  0  0  0  0  0  0  0
    8.7213   -4.6278   22.0925 H   0  0  0  0  0  0  0  0  0  0  0  0
    8.8247   -2.9482   23.9318 H   0  0  0  0  0  0  0  0  0  0  0  0
    7.0596   -2.9180   23.8079 H   0  0  0  0  0  0  0  0  0  0  0  0
    8.9653   -2.1430   21.5552 H   0  0  0  0  0  0  0  0  0  0  0  0
    5.9412   -2.2002   21.8188 H   0  0  0  0  0  0  0  0  0  0  0  0
    6.9111   -2.4840   20.3940 H   0  0  0  0  0  0  0  0  0  0  0  0
    9.7634   -0.1641   23.0866 C   0  0  0  0  0  0  0  0  0  0  0  0
   10.7028    0.1374   22.0841 C   0  0  0  0  0  0  0  0  0  0  0  0
   12.0381    0.3426   22.4195 C   0  0  0  0  0  0  0  0  0  0  0  0
   13.2521    0.6880   21.2217 Cl  0  0  0  0  0  0  0  0  0  0  0  0
   12.4919    0.2687   23.7337 C   0  0  0  0  0  0  0  0  0  0  0  0
   11.5801   -0.0169   24.7206 C   0  0  0  0  0  0  0  0  0  0  0  0
   10.2380   -0.2113   24.4038 C   0  0  0  0  0  0  0  0  0  0  0  0
    9.3487   -0.4635   25.5670 C   0  0  0  0  0  0  0  0  0  0  0  0
    9.8026   -0.5357   26.6968 O   0  0  0  0  0  0  0  0  0  0  0  0
   11.8778   -0.1015   25.7590 H   0  0  0  0  0  0  0  0  0  0  0  0
   13.5392    0.4352   23.9608 H   0  0  0  0  0  0  0  0  0  0  0  0
   10.3796    0.2152   21.0527 H   0  0  0  0  0  0  0  0  0  0  0  0
    7.3099    0.9237   24.0479 H   0  0  0  0  0  0  0  0  0  0  0  0
    6.4488   -0.6064   23.9334 H   0  0  0  0  0  0  0  0  0  0  0  0
    7.7070   -0.7202   27.3265 H   0  0  0  0  0  0  0  0  0  0  0  0
    6.2681   -0.2332   26.3989 H   0  0  0  0  0  0  0  0  0  0  0  0
    8.4735   -2.9932   27.0312 H   0  0  0  0  0  0  0  0  0  0  0  0
    6.3860   -4.9523   27.2702 H   0  0  0  0  0  0  0  0  0  0  0  0
    8.1004   -5.2852   26.9070 H   0  0  0  0  0  0  0  0  0  0  0  0
    6.9400   -4.9388   25.5915 H   0  0  0  0  0  0  0  0  0  0  0  0
  1  2  1  0
  2  3  1  0
  3  4  2  0
  3  5  1  0
  5  6  1  0
  6  7  1  0
  8  7  1  1
  8  9  1  0
  9 10  2  0
  9 11  1  0
 11 12  1  0
 12 13  2  0
 13 14  1  0
 14 15  2  0
 15 16  1  0
 16 17  2  0
 17 18  1  0
 18 19  2  0
 19 20  1  0
 20 21  2  0
 20 22  1  0
 19 23  1  0
 18 24  1  0
 17 25  1  0
 15 26  1  0
 13 27  1  0
 11 28  1  0
 28 29  1  0
 29 30  1  0
 30 31  1  0
 31 32  1  0
 32 33  1  0
 33 34  2  0
 34 35  1  0
 35 36  1  0
 36 37  1  0
 36 38  1  0
 36 39  1  0
 35 40  1  0
 40 41  1  0
 33 42  1  0
 31 43  1  0
 30 44  1  0
 30 45  1  0
 29 46  1  6
 28 47  1  0
 28 48  1  0
  8 49  1  0
 49 50  2  0
 50 51  1  0
 51 52  1  0
 51 53  2  0
 53 54  1  0
 54 55  2  0
 55 56  1  0
 56 57  2  0
 54 58  1  0
 53 59  1  0
 50 60  1  0
  7 61  1  0
  7 62  1  0
  5 63  1  0
  5 64  1  0
  2 65  1  0
  1 66  1  0
  1 67  1  0
  1 68  1  0
 56  6  1  0
 29  8  1  0
 40 32  2  0
 55 49  1  0
 21 12  1  0
 21 16  1  0
M  END
>  <cnnaffinities>  (26) 
[6.81554, 7.50339]

>  <score>  (26) 
6.81554

>  <index>  (26) 
25

>  <Smiles>  (26) 
C(N(C(=O)C(N1C([C@@]2(C(=O)N(c3c(nc(c4c(c(c(c(c34)[H])[H])[H])[H])[H])[H])C([C@@]2(C(N(c2c(nn(C([H])([H])[H])c2[H])[H])[H])([H])[H])[H])([H])[H])c2c(c(Cl)c(c(c2C1=O)[H])[H])[H])([H])[H])([H])[H])[H])([H])([H])[H]

>  <h>  (26) 
<NA>

>  <Training>  (26) 
True

>  <Success>  (26) 
True

>  <enamine_searched>  (26) 
False

>  <enamine_id>  (26) 
nan

$$$$

     RDKit          3D

 43 47  0  0  0  0  0  0  0  0999 V2000
    8.7048    0.6788   20.6797 O   0  0  0  0  0  0  0  0  0  0  0  0
    8.1061   -0.2916   21.0859 C   0  0  0  0  0  0  0  0  0  0  0  0
    8.5888   -1.3638   21.7844 N   0  0  0  0  0  0  0  0  0  0  0  0
    7.5399   -2.1175   22.4366 C   0  0  1  0  0  0  0  0  0  0  0  0
    7.6096   -3.6524   22.4992 C   0  0  0  0  0  0  0  0  0  0  0  0
    7.6830   -3.5854   24.0531 C   0  0  2  0  0  0  0  0  0  0  0  0
    6.5762   -4.2877   24.7766 C   0  0  0  0  0  0  0  0  0  0  0  0
    5.2368   -4.0484   24.4411 C   0  0  0  0  0  0  0  0  0  0  0  0
    4.1959   -4.6927   25.0940 C   0  0  0  0  0  0  0  0  0  0  0  0
    4.4656   -5.5425   26.1590 C   0  0  0  0  0  0  0  0  0  0  0  0
    5.7801   -5.7233   26.5639 C   0  0  0  0  0  0  0  0  0  0  0  0
    6.8168   -5.1534   25.8367 C   0  0  0  0  0  0  0  0  0  0  0  0
    8.4528   -5.5795   26.2647 Cl  0  0  0  0  0  0  0  0  0  0  0  0
    6.0257   -6.2771   27.4552 H   0  0  0  0  0  0  0  0  0  0  0  0
    3.6473   -6.0610   26.6495 H   0  0  0  0  0  0  0  0  0  0  0  0
    3.1715   -4.5115   24.7825 H   0  0  0  0  0  0  0  0  0  0  0  0
    4.9829   -3.3355   23.6589 H   0  0  0  0  0  0  0  0  0  0  0  0
    7.5004   -2.0412   23.9778 C   0  0  0  0  0  0  0  0  0  0  0  0
    8.2894   -1.4294   24.4229 H   0  0  0  0  0  0  0  0  0  0  0  0
    6.5258   -1.7023   24.3388 H   0  0  0  0  0  0  0  0  0  0  0  0
    8.6718   -3.8628   24.4253 H   0  0  0  0  0  0  0  0  0  0  0  0
    8.4540   -4.1031   21.9771 H   0  0  0  0  0  0  0  0  0  0  0  0
    6.6798   -4.1027   22.1394 H   0  0  0  0  0  0  0  0  0  0  0  0
    6.3051   -1.6022   21.7454 C   0  0  0  0  0  0  0  0  0  0  0  0
    5.1693   -2.0069   21.8804 O   0  0  0  0  0  0  0  0  0  0  0  0
    6.7241   -0.5417   20.9462 N   0  0  0  0  0  0  0  0  0  0  0  0
    5.9705   -0.0315   19.8705 C   0  0  0  0  0  0  0  0  0  0  0  0
    6.4339   -0.1677   18.5845 C   0  0  0  0  0  0  0  0  0  0  0  0
    5.7741    0.3038   17.5034 N   0  0  0  0  0  0  0  0  0  0  0  0
    4.6671    0.9652   17.7168 C   0  0  0  0  0  0  0  0  0  0  0  0
    4.0762    1.1414   18.9956 C   0  0  0  0  0  0  0  0  0  0  0  0
    2.8637    1.8540   19.1528 C   0  0  0  0  0  0  0  0  0  0  0  0
    2.3100    2.0130   20.3911 C   0  0  0  0  0  0  0  0  0  0  0  0
    2.9465    1.4711   21.5331 C   0  0  0  0  0  0  0  0  0  0  0  0
    4.1408    0.8009   21.4070 C   0  0  0  0  0  0  0  0  0  0  0  0
    4.7302    0.6173   20.1219 C   0  0  0  0  0  0  0  0  0  0  0  0
    4.6360    0.4063   22.2846 H   0  0  0  0  0  0  0  0  0  0  0  0
    2.4914    1.5849   22.5137 H   0  0  0  0  0  0  0  0  0  0  0  0
    1.3743    2.5507   20.4994 H   0  0  0  0  0  0  0  0  0  0  0  0
    2.4163    2.2581   18.2508 H   0  0  0  0  0  0  0  0  0  0  0  0
    4.1762    1.3961   16.8460 H   0  0  0  0  0  0  0  0  0  0  0  0
    7.3841   -0.6608   18.3810 H   0  0  0  0  0  0  0  0  0  0  0  0
    9.5404   -1.3534   22.1078 H   0  0  0  0  0  0  0  0  0  0  0  0
  1  2  2  0
  2  3  1  0
  4  3  1  6
  4  5  1  0
  5  6  1  0
  6  7  1  0
  7  8  2  0
  8  9  1  0
  9 10  2  0
 10 11  1  0
 11 12  2  0
 12 13  1  0
 11 14  1  0
 10 15  1  0
  9 16  1  0
  8 17  1  0
  6 18  1  0
 18 19  1  0
 18 20  1  0
  6 21  1  1
  5 22  1  0
  5 23  1  0
  4 24  1  0
 24 25  2  0
 24 26  1  0
 26 27  1  0
 27 28  2  0
 28 29  1  0
 29 30  2  0
 30 31  1  0
 31 32  2  0
 32 33  1  0
 33 34  2  0
 34 35  1  0
 35 36  2  0
 35 37  1  0
 34 38  1  0
 33 39  1  0
 32 40  1  0
 30 41  1  0
 28 42  1  0
  3 43  1  0
 26  2  1  0
 36 27  1  0
 18  4  1  0
 36 31  1  0
 12  7  1  0
M  END
>  <cnnaffinities>  (27) 
[5.99137, 6.10713]

>  <score>  (27) 
5.99137

>  <index>  (27) 
26

>  <Smiles>  (27) 
O=C1N([C@]2(C([C@](c3c(c(c(c(c3Cl)[H])[H])[H])[H])(C2([H])[H])[H])([H])[H])C(=O)N1c1c(nc(c2c(c(c(c(c12)[H])[H])[H])[H])[H])[H])[H]

>  <h>  (27) 
<NA>

>  <Training>  (27) 
True

>  <Success>  (27) 
True

>  <enamine_searched>  (27) 
False

>  <enamine_id>  (27) 
nan

$$$$

     RDKit          3D

 46 48  0  0  0  0  0  0  0  0999 V2000
    9.2978   -0.5407   25.5069 C   0  0  0  0  0  0  0  0  0  0  0  0
    9.1738    0.3427   24.2662 C   0  0  0  0  0  0  0  0  0  0  0  0
    7.7198    0.5500   23.7961 C   0  0  1  0  0  0  0  0  0  0  0  0
    6.7815    1.1976   24.8287 C   0  0  0  0  0  0  0  0  0  0  0  0
    6.8290    2.7317   24.9143 C   0  0  1  0  0  0  0  0  0  0  0  0
    7.9037    3.2740   25.8474 C   0  0  0  0  0  0  0  0  0  0  0  0
    7.9592    2.5839   27.0012 F   0  0  0  0  0  0  0  0  0  0  0  0
    9.1479    3.2570   25.3144 F   0  0  0  0  0  0  0  0  0  0  0  0
    7.6583    4.5632   26.1644 F   0  0  0  0  0  0  0  0  0  0  0  0
    6.9191    3.3927   23.5369 C   0  0  0  0  0  0  0  0  0  0  0  0
    7.9828    2.7349   22.6629 C   0  0  0  0  0  0  0  0  0  0  0  0
    7.6669    1.3143   22.5414 N   0  0  0  0  0  0  0  0  0  0  0  0
    7.7650    0.7662   21.2760 C   0  0  0  0  0  0  0  0  0  0  0  0
    8.4369    1.2814   20.3966 O   0  0  0  0  0  0  0  0  0  0  0  0
    6.9255   -0.4691   20.9531 C   0  0  0  0  0  0  0  0  0  0  0  0
    5.9579   -0.0922   19.8554 C   0  0  0  0  0  0  0  0  0  0  0  0
    6.3684   -0.2003   18.5534 C   0  0  0  0  0  0  0  0  0  0  0  0
    5.7167    0.2968   17.4753 N   0  0  0  0  0  0  0  0  0  0  0  0
    4.6089    0.9532   17.7014 C   0  0  0  0  0  0  0  0  0  0  0  0
    4.0288    1.1050   18.9844 C   0  0  0  0  0  0  0  0  0  0  0  0
    2.8053    1.8023   19.1528 C   0  0  0  0  0  0  0  0  0  0  0  0
    2.2243    1.9048   20.3865 C   0  0  0  0  0  0  0  0  0  0  0  0
    2.8628    1.3168   21.4992 C   0  0  0  0  0  0  0  0  0  0  0  0
    4.0693    0.6751   21.3670 C   0  0  0  0  0  0  0  0  0  0  0  0
    4.7018    0.5513   20.1000 C   0  0  0  0  0  0  0  0  0  0  0  0
    4.5450    0.2592   22.2489 H   0  0  0  0  0  0  0  0  0  0  0  0
    2.3947    1.4035   22.4768 H   0  0  0  0  0  0  0  0  0  0  0  0
    1.2942    2.4508   20.5141 H   0  0  0  0  0  0  0  0  0  0  0  0
    2.3335    2.2330   18.2747 H   0  0  0  0  0  0  0  0  0  0  0  0
    4.1175    1.4052   16.8403 H   0  0  0  0  0  0  0  0  0  0  0  0
    7.3332   -0.6511   18.3310 H   0  0  0  0  0  0  0  0  0  0  0  0
    7.6230   -1.2334   20.5855 H   0  0  0  0  0  0  0  0  0  0  0  0
    6.4206   -0.8596   21.8382 H   0  0  0  0  0  0  0  0  0  0  0  0
    7.9828    3.1693   21.6622 H   0  0  0  0  0  0  0  0  0  0  0  0
    8.9870    2.8769   23.0736 H   0  0  0  0  0  0  0  0  0  0  0  0
    7.1137    4.4653   23.6387 H   0  0  0  0  0  0  0  0  0  0  0  0
    5.9546    3.2885   23.0255 H   0  0  0  0  0  0  0  0  0  0  0  0
    5.8999    3.0588   25.3965 H   0  0  0  0  0  0  0  0  0  0  0  0
    6.9455    0.7621   25.8188 H   0  0  0  0  0  0  0  0  0  0  0  0
    5.7575    0.9170   24.5529 H   0  0  0  0  0  0  0  0  0  0  0  0
    7.3227   -0.4510   23.5939 H   0  0  0  0  0  0  0  0  0  0  0  0
    9.7306   -0.1182   23.4405 H   0  0  0  0  0  0  0  0  0  0  0  0
    9.6440    1.3054   24.4734 H   0  0  0  0  0  0  0  0  0  0  0  0
    8.9095   -0.0389   26.3994 H   0  0  0  0  0  0  0  0  0  0  0  0
   10.3493   -0.7802   25.6920 H   0  0  0  0  0  0  0  0  0  0  0  0
    8.7611   -1.4882   25.3821 H   0  0  0  0  0  0  0  0  0  0  0  0
  1  2  1  0
  2  3  1  0
  3  4  1  0
  4  5  1  0
  5  6  1  0
  6  7  1  0
  6  8  1  0
  6  9  1  0
  5 10  1  0
 10 11  1  0
 11 12  1  0
 12 13  1  0
 13 14  2  0
 13 15  1  0
 15 16  1  0
 16 17  2  0
 17 18  1  0
 18 19  2  0
 19 20  1  0
 20 21  2  0
 21 22  1  0
 22 23  2  0
 23 24  1  0
 24 25  2  0
 24 26  1  0
 23 27  1  0
 22 28  1  0
 21 29  1  0
 19 30  1  0
 17 31  1  0
 15 32  1  0
 15 33  1  0
 11 34  1  0
 11 35  1  0
 10 36  1  0
 10 37  1  0
  5 38  1  1
  4 39  1  0
  4 40  1  0
  3 41  1  6
  2 42  1  0
  2 43  1  0
  1 44  1  0
  1 45  1  0
  1 46  1  0
 12  3  1  0
 25 16  1  0
 25 20  1  0
M  END
>  <cnnaffinities>  (28) 
[5.54775, 5.54779, 5.54803, 5.54783, 5.54778, 5.72279, 5.7897, 5.92695, 5.77314, 5.77275, 5.68771]

>  <score>  (28) 
5.54775

>  <index>  (28) 
27

>  <Smiles>  (28) 
C(C([C@]1(C([C@@](C(F)(F)F)(C(C(N1C(=O)C(c1c(nc(c2c(c(c(c(c12)[H])[H])[H])[H])[H])[H])([H])[H])([H])[H])([H])[H])[H])([H])[H])[H])([H])[H])([H])([H])[H]

>  <h>  (28) 
<NA>

>  <Training>  (28) 
True

>  <Success>  (28) 
True

>  <enamine_searched>  (28) 
False

>  <enamine_id>  (28) 
nan

$$$$

     RDKit          3D

 70 75  0  0  0  0  0  0  0  0999 V2000
    7.8609   -5.7724   25.9572 C   0  0  0  0  0  0  0  0  0  0  0  0
    6.5325   -6.0860   25.3697 N   0  0  0  0  0  4  0  0  0  0  0  0
    6.5610   -6.2252   23.8812 C   0  0  0  0  0  0  0  0  0  0  0  0
    5.8886   -5.0331   23.1759 C   0  0  0  0  0  0  0  0  0  0  0  0
    6.3167   -3.7343   23.6792 N   0  0  0  0  0  0  0  0  0  0  0  0
    7.5046   -3.1053   23.1139 C   0  0  0  0  0  0  0  0  0  0  0  0
    7.2596   -1.6191   22.7829 C   0  0  2  0  0  0  0  0  0  0  0  0
    6.3350   -1.5103   21.5532 C   0  0  0  0  0  0  0  0  0  0  0  0
    5.3870   -2.2188   21.2808 O   0  0  0  0  0  0  0  0  0  0  0  0
    6.7602   -0.4533   20.7804 N   0  0  0  0  0  0  0  0  0  0  0  0
    5.9605    0.0832   19.7463 C   0  0  0  0  0  0  0  0  0  0  0  0
    6.4678    0.2088   18.4760 C   0  0  0  0  0  0  0  0  0  0  0  0
    5.7678    0.6719   17.4141 N   0  0  0  0  0  0  0  0  0  0  0  0
    4.5298    1.0453   17.6210 C   0  0  0  0  0  0  0  0  0  0  0  0
    3.8918    1.0090   18.8921 C   0  0  0  0  0  0  0  0  0  0  0  0
    2.5634    1.4788   19.0659 C   0  0  0  0  0  0  0  0  0  0  0  0
    1.9872    1.4894   20.3036 C   0  0  0  0  0  0  0  0  0  0  0  0
    2.7254    1.0562   21.4279 C   0  0  0  0  0  0  0  0  0  0  0  0
    4.0096    0.5953   21.2892 C   0  0  0  0  0  0  0  0  0  0  0  0
    4.6220    0.5342   20.0018 C   0  0  0  0  0  0  0  0  0  0  0  0
    4.5735    0.2893   22.1686 H   0  0  0  0  0  0  0  0  0  0  0  0
    2.2717    1.1006   22.4144 H   0  0  0  0  0  0  0  0  0  0  0  0
    0.9693    1.8488   20.4369 H   0  0  0  0  0  0  0  0  0  0  0  0
    2.0361    1.8596   18.1960 H   0  0  0  0  0  0  0  0  0  0  0  0
    3.9727    1.4218   16.7621 H   0  0  0  0  0  0  0  0  0  0  0  0
    7.4928   -0.0957   18.2691 H   0  0  0  0  0  0  0  0  0  0  0  0
    8.0094    0.1399   21.2324 C   0  0  0  0  0  0  0  0  0  0  0  0
    8.5448   -0.8614   22.2812 C   0  0  2  0  0  0  0  0  0  0  0  0
    9.6247   -1.7318   21.6100 C   0  0  0  0  0  0  0  0  0  0  0  0
   10.2544   -2.6224   22.4854 O   0  0  0  0  0  0  0  0  0  0  0  0
   11.4278   -2.1619   23.0636 C   0  0  0  0  0  0  0  0  0  0  0  0
   11.6063   -2.3392   24.5486 C   0  0  0  0  0  0  0  0  0  0  0  0
    9.9609   -1.1075   24.7238 F   0  0  0  0  0  0  0  0  0  0  0  0
   12.9423   -1.8041   25.0638 C   0  0  0  0  0  0  0  0  0  0  0  0
   13.6154   -1.4224   23.9926 O   0  0  0  0  0  0  0  0  0  0  0  0
   11.5867   -2.7362   24.6598 C   0  0  0  0  0  0  0  0  0  0  0  0
   11.8373   -3.8016   24.4612 H   0  0  0  0  0  0  0  0  0  0  0  0
   11.2292   -3.5234   25.4403 H   0  0  0  0  0  0  0  0  0  0  0  0
   12.5931   -0.9348   25.6856 H   0  0  0  0  0  0  0  0  0  0  0  0
   13.4793   -2.4622   25.7493 H   0  0  0  0  0  0  0  0  0  0  0  0
   12.3271   -2.5343   22.6317 H   0  0  0  0  0  0  0  0  0  0  0  0
   11.4868   -1.0841   23.0703 H   0  0  0  0  0  0  0  0  0  0  0  0
    9.1660   -2.3302   20.8120 H   0  0  0  0  0  0  0  0  0  0  0  0
   10.3723   -1.0719   21.1344 H   0  0  0  0  0  0  0  0  0  0  0  0
    9.0526   -0.3971   23.1296 H   0  0  0  0  0  0  0  0  0  0  0  0
    8.6976    0.2426   20.3907 H   0  0  0  0  0  0  0  0  0  0  0  0
    7.8438    1.1463   21.6370 H   0  0  0  0  0  0  0  0  0  0  0  0
    6.6305   -0.9756   24.0325 C   0  0  0  0  0  0  0  0  0  0  0  0
    6.7881    0.3895   24.3158 C   0  0  0  0  0  0  0  0  0  0  0  0
    6.2691    0.9390   25.4780 C   0  0  0  0  0  0  0  0  0  0  0  0
    6.5536    2.6230   25.8238 Cl  0  0  0  0  0  0  0  0  0  0  0  0
    5.5543    0.1743   26.3952 C   0  0  0  0  0  0  0  0  0  0  0  0
    5.3561   -1.1626   26.1135 C   0  0  0  0  0  0  0  0  0  0  0  0
    5.8908   -1.7359   24.9575 C   0  0  0  0  0  0  0  0  0  0  0  0
    5.6881   -3.1975   24.7517 C   0  0  0  0  0  0  0  0  0  0  0  0
    4.9972   -3.8869   25.5180 O   0  0  0  0  0  0  0  0  0  0  0  0
    4.7904   -1.7974   26.7872 H   0  0  0  0  0  0  0  0  0  0  0  0
    5.1719    0.6246   27.3058 H   0  0  0  0  0  0  0  0  0  0  0  0
    7.3445    1.0486   23.6598 H   0  0  0  0  0  0  0  0  0  0  0  0
    7.7500   -3.6476   22.2022 H   0  0  0  0  0  0  0  0  0  0  0  0
    8.3391   -3.1558   23.8190 H   0  0  0  0  0  0  0  0  0  0  0  0
    6.0902   -5.0456   22.0988 H   0  0  0  0  0  0  0  0  0  0  0  0
    4.8024   -5.0803   23.3086 H   0  0  0  0  0  0  0  0  0  0  0  0
    6.0448   -7.1465   23.5938 H   0  0  0  0  0  0  0  0  0  0  0  0
    7.6033   -6.3237   23.5581 H   0  0  0  0  0  0  0  0  0  0  0  0
    5.8322   -5.3494   25.6211 H   0  0  0  0  0  0  0  0  0  0  0  0
    6.2131   -6.9760   25.7855 H   0  0  0  0  0  0  0  0  0  0  0  0
    8.5837   -6.5678   25.7395 H   0  0  0  0  0  0  0  0  0  0  0  0
    7.7874   -5.6667   27.0405 H   0  0  0  0  0  0  0  0  0  0  0  0
    8.2663   -4.8417   25.5471 H   0  0  0  0  0  0  0  0  0  0  0  0
  1  2  1  0
  2  3  1  0
  3  4  1  0
  4  5  1  0
  5  6  1  0
  7  6  1  1
  7  8  1  0
  8  9  2  0
  8 10  1  0
 10 11  1  0
 11 12  2  0
 12 13  1  0
 13 14  2  0
 14 15  1  0
 15 16  2  0
 16 17  1  0
 17 18  2  0
 18 19  1  0
 19 20  2  0
 19 21  1  0
 18 22  1  0
 17 23  1  0
 16 24  1  0
 14 25  1  0
 12 26  1  0
 10 27  1  0
 27 28  1  0
 28 29  1  0
 29 30  1  0
 30 31  1  0
 31 32  1  0
 32 33  1  0
 32 34  1  0
 34 35  1  0
 35 36  1  0
 36 37  1  0
 36 38  1  0
 34 39  1  0
 34 40  1  0
 31 41  1  0
 31 42  1  0
 29 43  1  0
 29 44  1  0
 28 45  1  1
 27 46  1  0
 27 47  1  0
  7 48  1  0
 48 49  2  0
 49 50  1  0
 50 51  1  0
 50 52  2  0
 52 53  1  0
 53 54  2  0
 54 55  1  0
 55 56  2  0
 53 57  1  0
 52 58  1  0
 49 59  1  0
  6 60  1  0
  6 61  1  0
  4 62  1  0
  4 63  1  0
  3 64  1  0
  3 65  1  0
  2 66  1  0
  2 67  1  0
  1 68  1  0
  1 69  1  0
  1 70  1  0
 55  5  1  0
 28  7  1  0
 36 32  1  0
 54 48  1  0
 20 11  1  0
 20 15  1  0
M  CHG  1   2   1
M  END
>  <cnnaffinities>  (29) 
[7.06031]

>  <score>  (29) 
7.06031

>  <index>  (29) 
28

>  <Smiles>  (29) 
C([N+](C(C(N1C([C@@]2(C(=O)N(c3c(nc(c4c(c(c(c(c34)[H])[H])[H])[H])[H])[H])C([C@@]2(C(OC(C2(F)C(OC2([H])[H])([H])[H])([H])[H])([H])[H])[H])([H])[H])c2c(c(Cl)c(c(c2C1=O)[H])[H])[H])([H])[H])([H])[H])([H])[H])([H])[H])([H])([H])[H]

>  <h>  (29) 
<NA>

>  <Training>  (29) 
True

>  <Success>  (29) 
True

>  <enamine_searched>  (29) 
False

>  <enamine_id>  (29) 
nan

$$$$

     RDKit          3D

 67 72  0  0  0  0  0  0  0  0999 V2000
   10.1059    4.4231   22.1955 C   0  0  0  0  0  0  0  0  0  0  0  0
    9.0387    3.4294   21.9162 N   0  0  0  0  0  4  0  0  0  0  0  0
    8.0806    3.2380   23.0378 C   0  0  0  0  0  0  0  0  0  0  0  0
    8.7222    2.5101   24.2270 C   0  0  0  0  0  0  0  0  0  0  0  0
    9.3305    1.2513   23.8209 N   0  0  0  0  0  0  0  0  0  0  0  0
    8.4904    0.0732   23.6798 C   0  0  0  0  0  0  0  0  0  0  0  0
    8.7294   -0.6545   22.3221 C   0  0  2  0  0  0  0  0  0  0  0  0
    8.0939    0.1972   21.1907 C   0  0  0  0  0  0  0  0  0  0  0  0
    8.6158    1.1702   20.6603 O   0  0  0  0  0  0  0  0  0  0  0  0
    6.8258   -0.2752   20.9343 N   0  0  0  0  0  0  0  0  0  0  0  0
    5.9950    0.1530   19.8580 C   0  0  0  0  0  0  0  0  0  0  0  0
    6.4653    0.1379   18.5652 C   0  0  0  0  0  0  0  0  0  0  0  0
    5.7346    0.5053   17.4825 N   0  0  0  0  0  0  0  0  0  0  0  0
    4.5164    0.9476   17.6747 C   0  0  0  0  0  0  0  0  0  0  0  0
    3.8786    0.9830   18.9484 C   0  0  0  0  0  0  0  0  0  0  0  0
    2.5621    1.5023   19.1189 C   0  0  0  0  0  0  0  0  0  0  0  0
    1.9670    1.4894   20.3515 C   0  0  0  0  0  0  0  0  0  0  0  0
    2.6605    0.9489   21.4588 C   0  0  0  0  0  0  0  0  0  0  0  0
    3.9427    0.4681   21.3210 C   0  0  0  0  0  0  0  0  0  0  0  0
    4.6108    0.5113   20.0656 C   0  0  0  0  0  0  0  0  0  0  0  0
    4.4667    0.0813   22.1884 H   0  0  0  0  0  0  0  0  0  0  0  0
    2.1811    0.9353   22.4352 H   0  0  0  0  0  0  0  0  0  0  0  0
    0.9679    1.9023   20.4904 H   0  0  0  0  0  0  0  0  0  0  0  0
    2.0628    1.9451   18.2583 H   0  0  0  0  0  0  0  0  0  0  0  0
    3.9604    1.2661   16.7906 H   0  0  0  0  0  0  0  0  0  0  0  0
    7.4672   -0.2308   18.3502 H   0  0  0  0  0  0  0  0  0  0  0  0
    6.5423   -1.5065   21.6639 C   0  0  0  0  0  0  0  0  0  0  0  0
    7.9049   -1.9638   22.1905 C   0  0  2  0  0  0  0  0  0  0  0  0
    7.8365   -2.8165   23.4533 C   0  0  0  0  0  0  0  0  0  0  0  0
    7.1864   -4.0995   23.2568 N   0  0  0  0  0  0  0  0  0  0  0  0
    6.6575   -4.7626   24.3026 C   0  0  0  0  0  0  0  0  0  0  0  0
    6.9398   -4.3078   25.5399 N   0  0  0  0  0  0  0  0  0  0  0  0
    6.4485   -5.0515   26.5215 C   0  0  0  0  0  0  0  0  0  0  0  0
    5.6686   -6.1232   26.3924 N   0  0  0  0  0  0  0  0  0  0  0  0
    5.4412   -6.4542   25.1169 C   0  0  0  0  0  0  0  0  0  0  0  0
    5.8808   -5.8320   24.0373 N   0  0  0  0  0  0  0  0  0  0  0  0
    4.8365   -7.3408   24.9377 H   0  0  0  0  0  0  0  0  0  0  0  0
    6.7050   -4.7653   27.5425 H   0  0  0  0  0  0  0  0  0  0  0  0
    6.9273   -4.4399   22.3432 H   0  0  0  0  0  0  0  0  0  0  0  0
    8.8403   -2.9728   23.8723 H   0  0  0  0  0  0  0  0  0  0  0  0
    7.2696   -2.2959   24.2298 H   0  0  0  0  0  0  0  0  0  0  0  0
    8.3708   -2.5654   21.4081 H   0  0  0  0  0  0  0  0  0  0  0  0
    5.8691   -1.3382   22.5147 H   0  0  0  0  0  0  0  0  0  0  0  0
    6.0845   -2.2207   20.9756 H   0  0  0  0  0  0  0  0  0  0  0  0
   10.2216   -0.8547   22.1608 C   0  0  0  0  0  0  0  0  0  0  0  0
   10.7442   -1.8298   21.3032 C   0  0  0  0  0  0  0  0  0  0  0  0
   12.1117   -1.9662   21.1568 C   0  0  0  0  0  0  0  0  0  0  0  0
   12.6898   -3.0695   19.9413 Cl  0  0  0  0  0  0  0  0  0  0  0  0
   13.0083   -1.2219   21.9229 C   0  0  0  0  0  0  0  0  0  0  0  0
   12.5054   -0.2400   22.7536 C   0  0  0  0  0  0  0  0  0  0  0  0
   11.1313   -0.0178   22.8223 C   0  0  0  0  0  0  0  0  0  0  0  0
   10.6660    1.1976   23.5611 C   0  0  0  0  0  0  0  0  0  0  0  0
   11.4522    2.0895   23.8717 O   0  0  0  0  0  0  0  0  0  0  0  0
   13.1466    0.3988   23.3542 H   0  0  0  0  0  0  0  0  0  0  0  0
   14.0709   -1.4033   21.8432 H   0  0  0  0  0  0  0  0  0  0  0  0
   10.1104   -2.4932   20.7251 H   0  0  0  0  0  0  0  0  0  0  0  0
    8.7141   -0.6247   24.5005 H   0  0  0  0  0  0  0  0  0  0  0  0
    7.4414    0.3828   23.7648 H   0  0  0  0  0  0  0  0  0  0  0  0
    9.5087    3.1125   24.6876 H   0  0  0  0  0  0  0  0  0  0  0  0
    7.9579    2.2897   24.9813 H   0  0  0  0  0  0  0  0  0  0  0  0
    7.2398    2.6522   22.6550 H   0  0  0  0  0  0  0  0  0  0  0  0
    7.6871    4.2079   23.3636 H   0  0  0  0  0  0  0  0  0  0  0  0
    9.4022    2.5001   21.6458 H   0  0  0  0  0  0  0  0  0  0  0  0
    8.5300    3.7391   21.0712 H   0  0  0  0  0  0  0  0  0  0  0  0
   10.8886    3.9950   22.8209 H   0  0  0  0  0  0  0  0  0  0  0  0
   10.5501    4.7660   21.2598 H   0  0  0  0  0  0  0  0  0  0  0  0
    9.6780    5.2895   22.7143 H   0  0  0  0  0  0  0  0  0  0  0  0
  1  2  1  0
  2  3  1  0
  3  4  1  0
  4  5  1  0
  5  6  1  0
  7  6  1  1
  7  8  1  0
  8  9  2  0
  8 10  1  0
 10 11  1  0
 11 12  2  0
 12 13  1  0
 13 14  2  0
 14 15  1  0
 15 16  2  0
 16 17  1  0
 17 18  2  0
 18 19  1  0
 19 20  2  0
 19 21  1  0
 18 22  1  0
 17 23  1  0
 16 24  1  0
 14 25  1  0
 12 26  1  0
 10 27  1  0
 27 28  1  0
 28 29  1  0
 29 30  1  0
 30 31  1  0
 31 32  2  0
 32 33  1  0
 33 34  2  0
 34 35  1  0
 35 36  2  0
 35 37  1  0
 33 38  1  0
 30 39  1  0
 29 40  1  0
 29 41  1  0
 28 42  1  6
 27 43  1  0
 27 44  1  0
  7 45  1  0
 45 46  2  0
 46 47  1  0
 47 48  1  0
 47 49  2  0
 49 50  1  0
 50 51  2  0
 51 52  1  0
 52 53  2  0
 50 54  1  0
 49 55  1  0
 46 56  1  0
  6 57  1  0
  6 58  1  0
  4 59  1  0
  4 60  1  0
  3 61  1  0
  3 62  1  0
  2 63  1  0
  2 64  1  0
  1 65  1  0
  1 66  1  0
  1 67  1  0
 52  5  1  0
 28  7  1  0
 36 31  1  0
 51 45  1  0
 20 11  1  0
 20 15  1  0
M  CHG  1   2   1
M  END
>  <cnnaffinities>  (30) 
[6.61427]

>  <score>  (30) 
6.61427

>  <index>  (30) 
29

>  <Smiles>  (30) 
C([N+](C(C(N1C([C@@]2(C(=O)N(c3c(nc(c4c(c(c(c(c34)[H])[H])[H])[H])[H])[H])C([C@@]2(C(N(c2nc(nc(n2)[H])[H])[H])([H])[H])[H])([H])[H])c2c(c(Cl)c(c(c2C1=O)[H])[H])[H])([H])[H])([H])[H])([H])[H])([H])[H])([H])([H])[H]

>  <h>  (30) 
<NA>

>  <Training>  (30) 
True

>  <Success>  (30) 
True

>  <enamine_searched>  (30) 
False

>  <enamine_id>  (30) 
nan

$$$$

     RDKit          3D

 66 71  0  0  0  0  0  0  0  0999 V2000
    7.7855   -8.4717   23.1702 C   0  0  0  0  0  0  0  0  0  0  0  0
    6.8441   -7.4436   22.7855 N   0  0  0  0  0  0  0  0  0  0  0  0
    7.1395   -6.6413   21.7276 C   0  0  0  0  0  0  0  0  0  0  0  0
    8.0178   -6.8823   20.9182 O   0  0  0  0  0  0  0  0  0  0  0  0
    6.2718   -5.3776   21.6591 C   0  0  0  0  0  0  0  0  0  0  0  0
    6.6798   -4.3835   22.6365 N   0  0  0  0  0  0  0  0  0  0  0  0
    7.7675   -3.4725   22.3328 C   0  0  0  0  0  0  0  0  0  0  0  0
    7.3909   -2.0183   22.7219 C   0  0  2  0  0  0  0  0  0  0  0  0
    6.2975   -1.5820   21.7242 C   0  0  0  0  0  0  0  0  0  0  0  0
    5.2044   -2.0971   21.6071 O   0  0  0  0  0  0  0  0  0  0  0  0
    6.7917   -0.5667   20.9249 N   0  0  0  0  0  0  0  0  0  0  0  0
    6.0183   -0.0077   19.8793 C   0  0  0  0  0  0  0  0  0  0  0  0
    6.4771   -0.0682   18.5855 C   0  0  0  0  0  0  0  0  0  0  0  0
    5.8225    0.4241   17.5090 N   0  0  0  0  0  0  0  0  0  0  0  0
    4.6494    0.9722   17.7097 C   0  0  0  0  0  0  0  0  0  0  0  0
    4.0400    1.0916   18.9857 C   0  0  0  0  0  0  0  0  0  0  0  0
    2.7745    1.7273   19.1277 C   0  0  0  0  0  0  0  0  0  0  0  0
    2.1924    1.8315   20.3592 C   0  0  0  0  0  0  0  0  0  0  0  0
    2.8501    1.3048   21.4935 C   0  0  0  0  0  0  0  0  0  0  0  0
    4.0728    0.6866   21.3813 C   0  0  0  0  0  0  0  0  0  0  0  0
    4.7221    0.5809   20.1135 C   0  0  0  0  0  0  0  0  0  0  0  0
    4.5257    0.2650   22.2706 H   0  0  0  0  0  0  0  0  0  0  0  0
    2.3781    1.3931   22.4680 H   0  0  0  0  0  0  0  0  0  0  0  0
    1.2364    2.3346   20.4817 H   0  0  0  0  0  0  0  0  0  0  0  0
    2.2889    2.1301   18.2409 H   0  0  0  0  0  0  0  0  0  0  0  0
    4.1075    1.3250   16.8340 H   0  0  0  0  0  0  0  0  0  0  0  0
    7.4095   -0.5900   18.3726 H   0  0  0  0  0  0  0  0  0  0  0  0
    8.2603   -0.5053   21.0004 C   0  0  0  0  0  0  0  0  0  0  0  0
    8.5332   -0.9992   22.4367 C   0  0  2  0  0  0  0  0  0  0  0  0
    9.9313   -1.5586   22.7832 C   0  0  0  0  0  0  0  0  0  0  0  0
   11.0945   -0.5960   22.7565 C   0  0  0  0  0  0  0  0  0  0  0  0
   12.0799   -0.6505   21.7715 C   0  0  0  0  0  0  0  0  0  0  0  0
   13.0981    0.2962   21.7158 C   0  0  0  0  0  0  0  0  0  0  0  0
   13.1673    1.3093   22.6617 C   0  0  0  0  0  0  0  0  0  0  0  0
   12.2216    1.3404   23.6792 C   0  0  0  0  0  0  0  0  0  0  0  0
   11.2268    0.3718   23.7534 C   0  0  0  0  0  0  0  0  0  0  0  0
   10.5130    0.3775   24.5732 H   0  0  0  0  0  0  0  0  0  0  0  0
   12.2425    2.1500   24.3922 H   0  0  0  0  0  0  0  0  0  0  0  0
   13.9440    2.0664   22.5782 H   0  0  0  0  0  0  0  0  0  0  0  0
   13.8348    0.2402   20.9214 H   0  0  0  0  0  0  0  0  0  0  0  0
   12.0664   -1.4528   21.0387 H   0  0  0  0  0  0  0  0  0  0  0  0
    9.8589   -1.9644   23.8044 H   0  0  0  0  0  0  0  0  0  0  0  0
   10.1586   -2.4068   22.1292 H   0  0  0  0  0  0  0  0  0  0  0  0
    8.3477   -0.1320   23.0739 H   0  0  0  0  0  0  0  0  0  0  0  0
    8.5736    0.5258   20.8256 H   0  0  0  0  0  0  0  0  0  0  0  0
    8.7407   -1.1503   20.2455 H   0  0  0  0  0  0  0  0  0  0  0  0
    6.8891   -2.0345   24.1553 C   0  0  0  0  0  0  0  0  0  0  0  0
    6.8668   -0.8656   24.9298 C   0  0  0  0  0  0  0  0  0  0  0  0
    6.4247   -0.9127   26.2385 C   0  0  0  0  0  0  0  0  0  0  0  0
    6.4151    0.5497   27.1857 Cl  0  0  0  0  0  0  0  0  0  0  0  0
    5.9715   -2.0953   26.8205 C   0  0  0  0  0  0  0  0  0  0  0  0
    5.9357   -3.2385   26.0470 C   0  0  0  0  0  0  0  0  0  0  0  0
    6.3624   -3.2074   24.7192 C   0  0  0  0  0  0  0  0  0  0  0  0
    6.1609   -4.4351   23.8897 C   0  0  0  0  0  0  0  0  0  0  0  0
    5.5383   -5.4170   24.3062 O   0  0  0  0  0  0  0  0  0  0  0  0
    5.5541   -4.1721   26.4455 H   0  0  0  0  0  0  0  0  0  0  0  0
    5.6347   -2.0958   27.8515 H   0  0  0  0  0  0  0  0  0  0  0  0
    7.1565    0.0943   24.5162 H   0  0  0  0  0  0  0  0  0  0  0  0
    7.9411   -3.5034   21.2615 H   0  0  0  0  0  0  0  0  0  0  0  0
    8.6819   -3.8089   22.8429 H   0  0  0  0  0  0  0  0  0  0  0  0
    6.3617   -4.9464   20.6590 H   0  0  0  0  0  0  0  0  0  0  0  0
    5.2189   -5.6067   21.8576 H   0  0  0  0  0  0  0  0  0  0  0  0
    6.2644   -7.0301   23.5083 H   0  0  0  0  0  0  0  0  0  0  0  0
    8.7102   -8.0476   23.5830 H   0  0  0  0  0  0  0  0  0  0  0  0
    7.3131   -9.1282   23.9040 H   0  0  0  0  0  0  0  0  0  0  0  0
    8.0596   -9.0683   22.3006 H   0  0  0  0  0  0  0  0  0  0  0  0
  1  2  1  0
  2  3  1  0
  3  4  2  0
  3  5  1  0
  5  6  1  0
  6  7  1  0
  8  7  1  6
  8  9  1  0
  9 10  2  0
  9 11  1  0
 11 12  1  0
 12 13  2  0
 13 14  1  0
 14 15  2  0
 15 16  1  0
 16 17  2  0
 17 18  1  0
 18 19  2  0
 19 20  1  0
 20 21  2  0
 20 22  1  0
 19 23  1  0
 18 24  1  0
 17 25  1  0
 15 26  1  0
 13 27  1  0
 11 28  1  0
 28 29  1  0
 29 30  1  0
 30 31  1  0
 31 32  2  0
 32 33  1  0
 33 34  2  0
 34 35  1  0
 35 36  2  0
 36 37  1  0
 35 38  1  0
 34 39  1  0
 33 40  1  0
 32 41  1  0
 30 42  1  0
 30 43  1  0
 29 44  1  1
 28 45  1  0
 28 46  1  0
  8 47  1  0
 47 48  2  0
 48 49  1  0
 49 50  1  0
 49 51  2  0
 51 52  1  0
 52 53  2  0
 53 54  1  0
 54 55  2  0
 52 56  1  0
 51 57  1  0
 48 58  1  0
  7 59  1  0
  7 60  1  0
  5 61  1  0
  5 62  1  0
  2 63  1  0
  1 64  1  0
  1 65  1  0
  1 66  1  0
 54  6  1  0
 29  8  1  0
 36 31  1  0
 53 47  1  0
 21 12  1  0
 21 16  1  0
M  END
>  <cnnaffinities>  (31) 
[7.35703, 7.35652, 6.65251]

>  <score>  (31) 
7.35703

>  <index>  (31) 
30

>  <Smiles>  (31) 
C(N(C(=O)C(N1C([C@@]2(C(=O)N(c3c(nc(c4c(c(c(c(c34)[H])[H])[H])[H])[H])[H])C([C@@]2(C(c2c(c(c(c(c2[H])[H])[H])[H])[H])([H])[H])[H])([H])[H])c2c(c(Cl)c(c(c2C1=O)[H])[H])[H])([H])[H])([H])[H])[H])([H])([H])[H]

>  <h>  (31) 
<NA>

>  <Training>  (31) 
True

>  <Success>  (31) 
True

>  <enamine_searched>  (31) 
False

>  <enamine_id>  (31) 
nan

$$$$

     RDKit          3D

 64 70  0  0  0  0  0  0  0  0999 V2000
    4.8586   -4.8731   24.5851 O   0  0  0  0  0  0  0  0  0  0  0  0
    5.5991   -4.0237   24.1089 C   0  0  0  0  0  0  0  0  0  0  0  0
    5.9939   -2.7876   24.8565 C   0  0  0  0  0  0  0  0  0  0  0  0
    5.7630   -2.7607   26.2296 C   0  0  0  0  0  0  0  0  0  0  0  0
    6.0323   -1.6249   26.9676 C   0  0  0  0  0  0  0  0  0  0  0  0
    6.5041   -0.5013   26.2936 C   0  0  0  0  0  0  0  0  0  0  0  0
    6.8020    0.9632   27.1881 Cl  0  0  0  0  0  0  0  0  0  0  0  0
    6.7562   -0.5138   24.9338 C   0  0  0  0  0  0  0  0  0  0  0  0
    6.5552   -1.6875   24.1893 C   0  0  0  0  0  0  0  0  0  0  0  0
    6.9687   -1.8087   22.7295 C   0  0  1  0  0  0  0  0  0  0  0  0
    7.2698   -3.3095   22.4769 C   0  0  0  0  0  0  0  0  0  0  0  0
    6.1229   -4.1137   22.8499 N   0  0  0  0  0  0  0  0  0  0  0  0
    5.7326   -5.2180   21.9964 C   0  0  0  0  0  0  0  0  0  0  0  0
    6.7119   -6.3427   22.0952 C   0  0  0  0  0  0  0  0  0  0  0  0
    7.7711   -6.5394   21.3879 N   0  0  0  0  0  0  0  0  0  0  0  0
    8.4128   -7.6351   21.9543 N   0  0  0  0  0  0  0  0  0  0  0  0
    7.6801   -8.0105   22.9380 C   0  0  0  0  0  0  0  0  0  0  0  0
    6.5796   -7.2440   23.0982 O   0  0  0  0  0  0  0  0  0  0  0  0
    7.8402   -8.8336   23.6189 H   0  0  0  0  0  0  0  0  0  0  0  0
    5.6936   -4.8597   20.9616 H   0  0  0  0  0  0  0  0  0  0  0  0
    4.7429   -5.5533   22.3099 H   0  0  0  0  0  0  0  0  0  0  0  0
    7.4730   -3.4850   21.4182 H   0  0  0  0  0  0  0  0  0  0  0  0
    8.1520   -3.6234   23.0548 H   0  0  0  0  0  0  0  0  0  0  0  0
    5.8780   -1.4297   21.7009 C   0  0  0  0  0  0  0  0  0  0  0  0
    4.7671   -1.9058   21.6324 O   0  0  0  0  0  0  0  0  0  0  0  0
    6.4262   -0.5364   20.7898 N   0  0  0  0  0  0  0  0  0  0  0  0
    5.7111    0.0458   19.7366 C   0  0  0  0  0  0  0  0  0  0  0  0
    6.2583    0.0897   18.4731 C   0  0  0  0  0  0  0  0  0  0  0  0
    5.6215    0.5623   17.3788 N   0  0  0  0  0  0  0  0  0  0  0  0
    4.4133    1.0360   17.5473 C   0  0  0  0  0  0  0  0  0  0  0  0
    3.7527    1.1039   18.8038 C   0  0  0  0  0  0  0  0  0  0  0  0
    2.4560    1.6670   18.9194 C   0  0  0  0  0  0  0  0  0  0  0  0
    1.8530    1.7852   20.1411 C   0  0  0  0  0  0  0  0  0  0  0  0
    2.5341    1.3589   21.3055 C   0  0  0  0  0  0  0  0  0  0  0  0
    3.7862    0.8049   21.2217 C   0  0  0  0  0  0  0  0  0  0  0  0
    4.4174    0.6311   19.9516 C   0  0  0  0  0  0  0  0  0  0  0  0
    4.2971    0.5157   22.1308 H   0  0  0  0  0  0  0  0  0  0  0  0
    2.0659    1.4828   22.2763 H   0  0  0  0  0  0  0  0  0  0  0  0
    0.8656    2.2294   20.2298 H   0  0  0  0  0  0  0  0  0  0  0  0
    1.9756    2.0217   18.0140 H   0  0  0  0  0  0  0  0  0  0  0  0
    3.9039    1.4123   16.6620 H   0  0  0  0  0  0  0  0  0  0  0  0
    7.2650   -0.2894   18.3027 H   0  0  0  0  0  0  0  0  0  0  0  0
    7.8836   -0.5561   20.8454 C   0  0  0  0  0  0  0  0  0  0  0  0
    8.1306   -0.8705   22.3177 C   0  0  2  0  0  0  0  0  0  0  0  0
    9.5201   -1.4245   22.6055 C   0  0  0  0  0  0  0  0  0  0  0  0
   10.5834   -0.4764   22.2629 N   0  0  0  0  0  0  0  0  0  0  0  0
   11.8370   -0.9020   22.2558 C   0  0  0  0  0  0  0  0  0  0  0  0
   13.1752    0.1002   22.4158 C   0  0  0  0  0  0  0  0  0  0  0  0
   12.9514   -0.1285   22.6489 C   0  0  0  0  0  0  0  0  0  0  0  0
   14.2288   -1.4325   23.0086 N   0  0  0  0  0  0  0  0  0  0  0  0
   13.3575   -2.3627   22.6351 C   0  0  0  0  0  0  0  0  0  0  0  0
   12.1068   -2.1711   22.2731 N   0  0  0  0  0  0  0  0  0  0  0  0
   13.7137   -3.3913   22.7138 H   0  0  0  0  0  0  0  0  0  0  0  0
   14.1193   -0.5253   22.2221 H   0  0  0  0  0  0  0  0  0  0  0  0
   13.8437    0.4029   21.5487 H   0  0  0  0  0  0  0  0  0  0  0  0
   10.5101    0.4555   22.6585 H   0  0  0  0  0  0  0  0  0  0  0  0
    9.5813   -1.7576   23.6569 H   0  0  0  0  0  0  0  0  0  0  0  0
    9.6807   -2.3154   21.9913 H   0  0  0  0  0  0  0  0  0  0  0  0
    7.9896    0.0758   22.8470 H   0  0  0  0  0  0  0  0  0  0  0  0
    8.3070   -1.3400   20.1973 H   0  0  0  0  0  0  0  0  0  0  0  0
    8.2857    0.4061   20.5255 H   0  0  0  0  0  0  0  0  0  0  0  0
    7.1030    0.4029   24.4705 H   0  0  0  0  0  0  0  0  0  0  0  0
    5.8721   -1.5907   28.0397 H   0  0  0  0  0  0  0  0  0  0  0  0
    5.3678   -3.6562   26.6947 H   0  0  0  0  0  0  0  0  0  0  0  0
  1  2  2  0
  2  3  1  0
  3  4  2  0
  4  5  1  0
  5  6  2  0
  6  7  1  0
  6  8  1  0
  8  9  2  0
  9 10  1  0
 10 11  1  6
 11 12  1  0
 12 13  1  0
 13 14  1  0
 14 15  2  0
 15 16  1  0
 16 17  2  0
 17 18  1  0
 17 19  1  0
 13 20  1  0
 13 21  1  0
 11 22  1  0
 11 23  1  0
 10 24  1  0
 24 25  2  0
 24 26  1  0
 26 27  1  0
 27 28  2  0
 28 29  1  0
 29 30  2  0
 30 31  1  0
 31 32  2  0
 32 33  1  0
 33 34  2  0
 34 35  1  0
 35 36  2  0
 35 37  1  0
 34 38  1  0
 33 39  1  0
 32 40  1  0
 30 41  1  0
 28 42  1  0
 26 43  1  0
 43 44  1  0
 44 45  1  0
 45 46  1  0
 46 47  1  0
 47 48  2  0
 48 49  1  0
 49 50  2  0
 50 51  1  0
 51 52  2  0
 51 53  1  0
 49 54  1  0
 48 55  1  0
 46 56  1  0
 45 57  1  0
 45 58  1  0
 44 59  1  1
 43 60  1  0
 43 61  1  0
  8 62  1  0
  5 63  1  0
  4 64  1  0
 12  2  1  0
 18 14  1  0
 36 27  1  0
 52 47  1  0
  9  3  1  0
 44 10  1  0
 36 31  1  0
M  END
>  <cnnaffinities>  (32) 
[7.54819]

>  <score>  (32) 
7.54819

>  <index>  (32) 
31

>  <Smiles>  (32) 
O=C1c2c(c(c(Cl)c(c2[C@@]2(C(N1C(c1nnc(o1)[H])([H])[H])([H])[H])C(=O)N(c1c(nc(c3c(c(c(c(c13)[H])[H])[H])[H])[H])[H])C([C@@]2(C(N(c1c(c(nc(n1)[H])[H])[H])[H])([H])[H])[H])([H])[H])[H])[H])[H]

>  <h>  (32) 
<NA>

>  <Training>  (32) 
True

>  <Success>  (32) 
True

>  <enamine_searched>  (32) 
False

>  <enamine_id>  (32) 
nan

$$$$

     RDKit          3D

 72 77  0  0  0  0  0  0  0  0999 V2000
    7.1524   -2.7784   23.7199 C   0  0  0  0  0  0  0  0  0  0  0  0
    7.5974   -1.9671   22.5174 C   0  0  1  0  0  0  0  0  0  0  0  0
    6.4473   -1.7452   21.5296 C   0  0  0  0  0  0  0  0  0  0  0  0
    6.7865   -0.4914   20.9041 N   0  0  0  0  0  0  0  0  0  0  0  0
    6.0066    0.0189   19.8405 C   0  0  0  0  0  0  0  0  0  0  0  0
    6.4266   -0.1442   18.5490 C   0  0  0  0  0  0  0  0  0  0  0  0
    5.7502    0.3093   17.4663 N   0  0  0  0  0  0  0  0  0  0  0  0
    4.6351    0.9619   17.6821 C   0  0  0  0  0  0  0  0  0  0  0  0
    4.0624    1.1572   18.9705 C   0  0  0  0  0  0  0  0  0  0  0  0
    2.8366    1.8501   19.1443 C   0  0  0  0  0  0  0  0  0  0  0  0
    2.2718    1.9597   20.3882 C   0  0  0  0  0  0  0  0  0  0  0  0
    2.9083    1.3800   21.5134 C   0  0  0  0  0  0  0  0  0  0  0  0
    4.1120    0.7339   21.3751 C   0  0  0  0  0  0  0  0  0  0  0  0
    4.7347    0.6278   20.0929 C   0  0  0  0  0  0  0  0  0  0  0  0
    4.6110    0.3016   22.2406 H   0  0  0  0  0  0  0  0  0  0  0  0
    2.4498    1.4765   22.4949 H   0  0  0  0  0  0  0  0  0  0  0  0
    1.3387    2.5013   20.5107 H   0  0  0  0  0  0  0  0  0  0  0  0
    2.3530    2.2438   18.2544 H   0  0  0  0  0  0  0  0  0  0  0  0
    4.1260    1.3772   16.8134 H   0  0  0  0  0  0  0  0  0  0  0  0
    7.3850   -0.6244   18.3574 H   0  0  0  0  0  0  0  0  0  0  0  0
    7.7905    0.2245   21.5267 C   0  0  0  0  0  0  0  0  0  0  0  0
    8.2294    1.2854   21.1350 O   0  0  0  0  0  0  0  0  0  0  0  0
    8.2141   -0.5431   22.8002 C   0  0  1  0  0  0  0  0  0  0  0  0
    7.6693    0.2326   24.0294 C   0  0  0  0  0  0  0  0  0  0  0  0
    8.2150   -0.2704   25.2887 N   0  0  0  0  0  0  0  0  0  0  0  0
    7.3746   -0.2522   26.4779 C   0  0  0  0  0  0  0  0  0  0  0  0
    7.4018    1.1096   27.1674 C   0  0  0  0  0  0  0  0  0  0  0  0
    6.6425    1.1235   28.4547 N   0  0  1  0  0  4  0  0  0  0  0  0
    6.8990    2.3819   29.2320 C   0  0  0  0  0  0  0  0  0  0  0  0
    6.1560    2.3501   30.5513 C   0  0  0  0  0  0  0  0  0  0  0  0
    4.7646    2.2608   30.3319 O   0  0  0  0  0  0  0  0  0  0  0  0
    4.3711    1.0904   29.5998 C   0  0  0  0  0  0  0  0  0  0  0  0
    2.8973    1.3355   29.3054 C   0  0  0  0  0  0  0  0  0  0  0  0
    2.4516    0.5226   28.7220 H   0  0  0  0  0  0  0  0  0  0  0  0
    2.3526    1.4374   30.2480 H   0  0  0  0  0  0  0  0  0  0  0  0
    2.7929    2.2723   28.7475 H   0  0  0  0  0  0  0  0  0  0  0  0
    4.5764   -0.1588   30.4639 C   0  0  0  0  0  0  0  0  0  0  0  0
    5.6371   -0.3957   30.6098 H   0  0  0  0  0  0  0  0  0  0  0  0
    4.1196   -0.0118   31.4479 H   0  0  0  0  0  0  0  0  0  0  0  0
    4.1123   -1.0327   29.9952 H   0  0  0  0  0  0  0  0  0  0  0  0
    5.1464    0.9804   28.2709 C   0  0  0  0  0  0  0  0  0  0  0  0
    4.9353    0.0157   27.8023 H   0  0  0  0  0  0  0  0  0  0  0  0
    4.8239    1.7730   27.5843 H   0  0  0  0  0  0  0  0  0  0  0  0
    6.3338    3.2757   31.1080 H   0  0  0  0  0  0  0  0  0  0  0  0
    6.5146    1.5143   31.1708 H   0  0  0  0  0  0  0  0  0  0  0  0
    7.9669    2.4917   29.3956 H   0  0  0  0  0  0  0  0  0  0  0  0
    6.5534    3.2316   28.6340 H   0  0  0  0  0  0  0  0  0  0  0  0
    7.0021    0.3229   29.0145 H   0  0  0  0  0  0  0  0  0  0  0  0
    8.4392    1.3735   27.3830 H   0  0  0  0  0  0  0  0  0  0  0  0
    6.9915    1.8802   26.4979 H   0  0  0  0  0  0  0  0  0  0  0  0
    6.3540   -0.5256   26.1847 H   0  0  0  0  0  0  0  0  0  0  0  0
    7.7277   -1.0233   27.1664 H   0  0  0  0  0  0  0  0  0  0  0  0
    9.5698   -0.3997   25.4635 C   0  0  0  0  0  0  0  0  0  0  0  0
   10.1033   -0.4297   26.5657 O   0  0  0  0  0  0  0  0  0  0  0  0
   10.3590   -0.5652   24.2027 C   0  0  0  0  0  0  0  0  0  0  0  0
   11.7375   -0.7659   24.3002 C   0  0  0  0  0  0  0  0  0  0  0  0
   12.5029   -1.0514   23.1821 C   0  0  0  0  0  0  0  0  0  0  0  0
   11.8471   -1.1527   21.9541 C   0  0  0  0  0  0  0  0  0  0  0  0
   12.6709   -1.7351   20.5443 Cl  0  0  0  0  0  0  0  0  0  0  0  0
   10.4977   -0.8763   21.8313 C   0  0  0  0  0  0  0  0  0  0  0  0
    9.7215   -0.6107   22.9584 C   0  0  0  0  0  0  0  0  0  0  0  0
   10.0427   -0.8731   20.8472 H   0  0  0  0  0  0  0  0  0  0  0  0
   13.5775   -1.1944   23.2678 H   0  0  0  0  0  0  0  0  0  0  0  0
   12.1866   -0.7323   25.2860 H   0  0  0  0  0  0  0  0  0  0  0  0
    7.9280    1.2956   23.8848 H   0  0  0  0  0  0  0  0  0  0  0  0
    6.5749    0.1839   24.0646 H   0  0  0  0  0  0  0  0  0  0  0  0
    5.4722   -1.7063   22.0397 H   0  0  0  0  0  0  0  0  0  0  0  0
    6.3730   -2.5313   20.7684 H   0  0  0  0  0  0  0  0  0  0  0  0
    8.3741   -2.5259   21.9739 H   0  0  0  0  0  0  0  0  0  0  0  0
    7.9754   -2.9355   24.4198 H   0  0  0  0  0  0  0  0  0  0  0  0
    6.3438   -2.2538   24.2415 H   0  0  0  0  0  0  0  0  0  0  0  0
    6.7736   -3.7500   23.3855 H   0  0  0  0  0  0  0  0  0  0  0  0
  1  2  1  0
  2  3  1  0
  3  4  1  0
  4  5  1  0
  5  6  2  0
  6  7  1  0
  7  8  2  0
  8  9  1  0
  9 10  2  0
 10 11  1  0
 11 12  2  0
 12 13  1  0
 13 14  2  0
 13 15  1  0
 12 16  1  0
 11 17  1  0
 10 18  1  0
  8 19  1  0
  6 20  1  0
  4 21  1  0
 21 22  2  0
 21 23  1  0
 23 24  1  1
 24 25  1  0
 25 26  1  0
 26 27  1  0
 27 28  1  0
 28 29  1  0
 29 30  1  0
 30 31  1  0
 31 32  1  0
 32 33  1  0
 33 34  1  0
 33 35  1  0
 33 36  1  0
 32 37  1  0
 37 38  1  0
 37 39  1  0
 37 40  1  0
 32 41  1  0
 41 42  1  0
 41 43  1  0
 30 44  1  0
 30 45  1  0
 29 46  1  0
 29 47  1  0
 28 48  1  1
 27 49  1  0
 27 50  1  0
 26 51  1  0
 26 52  1  0
 25 53  1  0
 53 54  2  0
 53 55  1  0
 55 56  2  0
 56 57  1  0
 57 58  2  0
 58 59  1  0
 58 60  1  0
 60 61  2  0
 60 62  1  0
 57 63  1  0
 56 64  1  0
 24 65  1  0
 24 66  1  0
  3 67  1  0
  3 68  1  0
  2 69  1  6
  1 70  1  0
  1 71  1  0
  1 72  1  0
 23  2  1  0
 41 28  1  0
 61 55  1  0
 14  5  1  0
 61 23  1  0
 14  9  1  0
M  CHG  1  28   1
M  END
>  <cnnaffinities>  (33) 
[6.04651, 6.64133]

>  <score>  (33) 
6.04651

>  <index>  (33) 
32

>  <Smiles>  (33) 
C([C@]1(C(N(c2c(nc(c3c(c(c(c(c23)[H])[H])[H])[H])[H])[H])C(=O)[C@]21C(N(C(C([N@+]1(C(C(OC(C([H])([H])[H])(C([H])([H])[H])C1([H])[H])([H])[H])([H])[H])[H])([H])[H])([H])[H])C(=O)c1c(c(c(Cl)c(c21)[H])[H])[H])([H])[H])([H])[H])[H])([H])([H])[H]

>  <h>  (33) 
<NA>

>  <Training>  (33) 
True

>  <Success>  (33) 
True

>  <enamine_searched>  (33) 
False

>  <enamine_id>  (33) 
nan

$$$$

     RDKit          3D

 44 47  0  0  0  0  0  0  0  0999 V2000
    8.3591    1.3827   20.6946 O   0  0  0  0  0  0  0  0  0  0  0  0
    7.7389    0.6711   21.4701 C   0  0  0  0  0  0  0  0  0  0  0  0
    6.8736   -0.4879   20.9668 C   0  0  0  0  0  0  0  0  0  0  0  0
    5.9575   -0.0646   19.8593 C   0  0  0  0  0  0  0  0  0  0  0  0
    6.3864   -0.1576   18.5627 C   0  0  0  0  0  0  0  0  0  0  0  0
    5.7325    0.3295   17.4819 N   0  0  0  0  0  0  0  0  0  0  0  0
    4.6077    0.9582   17.7052 C   0  0  0  0  0  0  0  0  0  0  0  0
    4.0153    1.0974   18.9846 C   0  0  0  0  0  0  0  0  0  0  0  0
    2.7863    1.7846   19.1536 C   0  0  0  0  0  0  0  0  0  0  0  0
    2.2004    1.8752   20.3882 C   0  0  0  0  0  0  0  0  0  0  0  0
    2.8308    1.2754   21.5006 C   0  0  0  0  0  0  0  0  0  0  0  0
    4.0482    0.6569   21.3687 C   0  0  0  0  0  0  0  0  0  0  0  0
    4.6906    0.5532   20.1044 C   0  0  0  0  0  0  0  0  0  0  0  0
    4.5201    0.2260   22.2501 H   0  0  0  0  0  0  0  0  0  0  0  0
    2.3440    1.3433   22.4703 H   0  0  0  0  0  0  0  0  0  0  0  0
    1.2602    2.4053   20.5107 H   0  0  0  0  0  0  0  0  0  0  0  0
    2.3096    2.2064   18.2772 H   0  0  0  0  0  0  0  0  0  0  0  0
    4.1116    1.3961   16.8421 H   0  0  0  0  0  0  0  0  0  0  0  0
    7.3599   -0.5926   18.3513 H   0  0  0  0  0  0  0  0  0  0  0  0
    7.5891   -1.2334   20.5975 H   0  0  0  0  0  0  0  0  0  0  0  0
    6.3074   -0.9536   21.7715 H   0  0  0  0  0  0  0  0  0  0  0  0
    7.8025    0.8521   22.8227 N   0  0  0  0  0  0  0  0  0  0  0  0
    8.5227    2.0007   23.3605 C   0  0  0  0  0  0  0  0  0  0  0  0
    8.1681    1.9559   24.8464 C   0  0  0  0  0  0  0  0  0  0  0  0
    8.0479    0.4641   25.1379 C   0  0  0  0  0  0  0  0  0  0  0  0
    7.4657   -0.1354   23.8499 C   0  0  2  0  0  0  0  0  0  0  0  0
    8.0167   -1.5307   23.5934 C   0  0  0  0  0  0  0  0  0  0  0  0
    7.1708   -2.6260   23.7610 C   0  0  0  0  0  0  0  0  0  0  0  0
    7.6467   -3.9232   23.6036 C   0  0  0  0  0  0  0  0  0  0  0  0
    8.9799   -4.1384   23.2843 C   0  0  0  0  0  0  0  0  0  0  0  0
    9.8104   -3.0415   23.1162 C   0  0  0  0  0  0  0  0  0  0  0  0
   11.1036   -3.2581   22.8169 F   0  0  0  0  0  0  0  0  0  0  0  0
    9.3596   -1.7362   23.2645 C   0  0  0  0  0  0  0  0  0  0  0  0
   10.0702   -0.9202   23.1369 H   0  0  0  0  0  0  0  0  0  0  0  0
    9.3699   -5.1368   23.1812 H   0  0  0  0  0  0  0  0  0  0  0  0
    6.9717   -4.7645   23.7236 H   0  0  0  0  0  0  0  0  0  0  0  0
    6.1267   -2.4705   24.0243 H   0  0  0  0  0  0  0  0  0  0  0  0
    6.3698   -0.2020   23.9325 H   0  0  0  0  0  0  0  0  0  0  0  0
    7.4220    0.2508   26.0082 H   0  0  0  0  0  0  0  0  0  0  0  0
    9.0394    0.0350   25.3257 H   0  0  0  0  0  0  0  0  0  0  0  0
    8.9118    2.4343   25.4852 H   0  0  0  0  0  0  0  0  0  0  0  0
    7.2123    2.4676   25.0135 H   0  0  0  0  0  0  0  0  0  0  0  0
    9.5957    1.8812   23.1583 H   0  0  0  0  0  0  0  0  0  0  0  0
    8.1955    2.9252   22.8798 H   0  0  0  0  0  0  0  0  0  0  0  0
  1  2  2  0
  2  3  1  0
  3  4  1  0
  4  5  2  0
  5  6  1  0
  6  7  2  0
  7  8  1  0
  8  9  2  0
  9 10  1  0
 10 11  2  0
 11 12  1  0
 12 13  2  0
 12 14  1  0
 11 15  1  0
 10 16  1  0
  9 17  1  0
  7 18  1  0
  5 19  1  0
  3 20  1  0
  3 21  1  0
  2 22  1  0
 22 23  1  0
 23 24  1  0
 24 25  1  0
 25 26  1  0
 26 27  1  0
 27 28  2  0
 28 29  1  0
 29 30  2  0
 30 31  1  0
 31 32  1  0
 31 33  2  0
 33 34  1  0
 30 35  1  0
 29 36  1  0
 28 37  1  0
 26 38  1  1
 25 39  1  0
 25 40  1  0
 24 41  1  0
 24 42  1  0
 23 43  1  0
 23 44  1  0
 13  4  1  0
 26 22  1  0
 33 27  1  0
 13  8  1  0
M  END
>  <cnnaffinities>  (34) 
[5.7239, 5.48844, 5.57429, 5.95234, 5.7178, 5.93508]

>  <score>  (34) 
5.7239

>  <index>  (34) 
33

>  <Smiles>  (34) 
O=C(C(c1c(nc(c2c(c(c(c(c12)[H])[H])[H])[H])[H])[H])([H])[H])N1C(C(C([C@@]1(c1c(c(c(c(F)c1[H])[H])[H])[H])[H])([H])[H])([H])[H])([H])[H]

>  <h>  (34) 
<NA>

>  <Training>  (34) 
True

>  <Success>  (34) 
True

>  <enamine_searched>  (34) 
False

>  <enamine_id>  (34) 
nan

$$$$

     RDKit          3D

 58 63  0  0  0  0  0  0  0  0999 V2000
    7.7615   -3.0233   23.2916 C   0  0  0  0  0  0  0  0  0  0  0  0
    8.0098   -1.9413   22.2527 C   0  0  1  0  0  0  0  0  0  0  0  0
    6.8333   -1.8298   21.2751 C   0  0  0  0  0  0  0  0  0  0  0  0
    6.8443   -0.4392   20.8920 N   0  0  0  0  0  0  0  0  0  0  0  0
    6.0328    0.0502   19.8427 C   0  0  0  0  0  0  0  0  0  0  0  0
    6.4118   -0.1697   18.5442 C   0  0  0  0  0  0  0  0  0  0  0  0
    5.7423    0.2820   17.4615 N   0  0  0  0  0  0  0  0  0  0  0  0
    4.6465    0.9624   17.6745 C   0  0  0  0  0  0  0  0  0  0  0  0
    4.0995    1.1998   18.9634 C   0  0  0  0  0  0  0  0  0  0  0  0
    2.8660    1.8831   19.1248 C   0  0  0  0  0  0  0  0  0  0  0  0
    2.2922    2.0069   20.3632 C   0  0  0  0  0  0  0  0  0  0  0  0
    2.9297    1.4454   21.4975 C   0  0  0  0  0  0  0  0  0  0  0  0
    4.1396    0.7973   21.3646 C   0  0  0  0  0  0  0  0  0  0  0  0
    4.7763    0.6897   20.0914 C   0  0  0  0  0  0  0  0  0  0  0  0
    4.6295    0.3718   22.2342 H   0  0  0  0  0  0  0  0  0  0  0  0
    2.4773    1.5689   22.4778 H   0  0  0  0  0  0  0  0  0  0  0  0
    1.3623    2.5601   20.4813 H   0  0  0  0  0  0  0  0  0  0  0  0
    2.3782    2.2699   18.2353 H   0  0  0  0  0  0  0  0  0  0  0  0
    4.1404    1.3644   16.7986 H   0  0  0  0  0  0  0  0  0  0  0  0
    7.3399   -0.6936   18.3379 H   0  0  0  0  0  0  0  0  0  0  0  0
    7.6492    0.3736   21.6608 C   0  0  0  0  0  0  0  0  0  0  0  0
    7.7796    1.5692   21.4905 O   0  0  0  0  0  0  0  0  0  0  0  0
    8.2612   -0.4820   22.7917 C   0  0  1  0  0  0  0  0  0  0  0  0
    7.4446   -0.1109   24.0611 C   0  0  0  0  0  0  0  0  0  0  0  0
    8.0501   -0.5881   25.3027 N   0  0  0  0  0  0  0  0  0  0  0  0
    7.2007   -0.9578   26.4336 C   0  0  0  0  0  0  0  0  0  0  0  0
    6.9992   -2.4408   26.5772 C   0  0  0  0  0  0  0  0  0  0  0  0
    7.9489   -3.4474   26.7877 C   0  0  0  0  0  0  0  0  0  0  0  0
    7.3373   -4.6308   26.8005 N   0  0  0  0  0  0  0  0  0  0  0  0
    6.0718   -4.3233   26.5983 N   0  0  0  0  0  0  0  0  0  0  0  0
    5.0492   -5.3444   26.4673 C   0  0  0  0  0  0  0  0  0  0  0  0
    4.4090   -5.0946   25.6179 H   0  0  0  0  0  0  0  0  0  0  0  0
    5.5666   -6.2871   26.2847 H   0  0  0  0  0  0  0  0  0  0  0  0
    4.4425   -5.4208   27.3744 H   0  0  0  0  0  0  0  0  0  0  0  0
    5.8088   -3.0305   26.4624 N   0  0  0  0  0  0  0  0  0  0  0  0
    9.0167   -3.3752   26.9195 H   0  0  0  0  0  0  0  0  0  0  0  0
    7.6898   -0.5558   27.3281 H   0  0  0  0  0  0  0  0  0  0  0  0
    6.2212   -0.4866   26.3177 H   0  0  0  0  0  0  0  0  0  0  0  0
    9.3888   -0.4322   25.5547 C   0  0  0  0  0  0  0  0  0  0  0  0
    9.8670   -0.4612   26.6800 O   0  0  0  0  0  0  0  0  0  0  0  0
   10.2572   -0.2247   24.3638 C   0  0  0  0  0  0  0  0  0  0  0  0
   11.6232   -0.0859   24.6114 C   0  0  0  0  0  0  0  0  0  0  0  0
   12.5012    0.1819   23.5857 C   0  0  0  0  0  0  0  0  0  0  0  0
   11.9805    0.2823   22.3018 C   0  0  0  0  0  0  0  0  0  0  0  0
   12.8463    0.5864   21.3217 F   0  0  0  0  0  0  0  0  0  0  0  0
   10.6374    0.0797   22.0219 C   0  0  0  0  0  0  0  0  0  0  0  0
    9.7345   -0.1821   23.0645 C   0  0  0  0  0  0  0  0  0  0  0  0
   10.2998    0.1329   20.9946 H   0  0  0  0  0  0  0  0  0  0  0  0
   13.5638    0.3150   23.7575 H   0  0  0  0  0  0  0  0  0  0  0  0
   11.9719   -0.1889   25.6332 H   0  0  0  0  0  0  0  0  0  0  0  0
    6.4319   -0.5282   23.9772 H   0  0  0  0  0  0  0  0  0  0  0  0
    7.3493    0.9867   24.0821 H   0  0  0  0  0  0  0  0  0  0  0  0
    6.9404   -2.4706   20.3955 H   0  0  0  0  0  0  0  0  0  0  0  0
    5.8837   -2.1169   21.7557 H   0  0  0  0  0  0  0  0  0  0  0  0
    8.9076   -2.2019   21.6750 H   0  0  0  0  0  0  0  0  0  0  0  0
    6.8111   -2.8560   23.8102 H   0  0  0  0  0  0  0  0  0  0  0  0
    7.7120   -4.0021   22.8038 H   0  0  0  0  0  0  0  0  0  0  0  0
    8.5565   -3.0385   24.0407 H   0  0  0  0  0  0  0  0  0  0  0  0
  1  2  1  0
  2  3  1  0
  3  4  1  0
  4  5  1  0
  5  6  2  0
  6  7  1  0
  7  8  2  0
  8  9  1  0
  9 10  2  0
 10 11  1  0
 11 12  2  0
 12 13  1  0
 13 14  2  0
 13 15  1  0
 12 16  1  0
 11 17  1  0
 10 18  1  0
  8 19  1  0
  6 20  1  0
  4 21  1  0
 21 22  2  0
 21 23  1  0
 23 24  1  1
 24 25  1  0
 25 26  1  0
 26 27  1  0
 27 28  1  0
 28 29  2  0
 29 30  1  0
 30 31  1  0
 31 32  1  0
 31 33  1  0
 31 34  1  0
 30 35  1  0
 28 36  1  0
 26 37  1  0
 26 38  1  0
 25 39  1  0
 39 40  2  0
 39 41  1  0
 41 42  2  0
 42 43  1  0
 43 44  2  0
 44 45  1  0
 44 46  1  0
 46 47  2  0
 46 48  1  0
 43 49  1  0
 42 50  1  0
 24 51  1  0
 24 52  1  0
  3 53  1  0
  3 54  1  0
  2 55  1  6
  1 56  1  0
  1 57  1  0
  1 58  1  0
 23  2  1  0
 35 27  2  0
 47 41  1  0
 14  5  1  0
 47 23  1  0
 14  9  1  0
M  END
>  <cnnaffinities>  (35) 
[6.48905, 6.69583]

>  <score>  (35) 
6.48905

>  <index>  (35) 
34

>  <Smiles>  (35) 
C([C@]1(C(N(c2c(nc(c3c(c(c(c(c23)[H])[H])[H])[H])[H])[H])C(=O)[C@]21C(N(C(c1c(nn(C([H])([H])[H])n1)[H])([H])[H])C(=O)c1c(c(c(F)c(c21)[H])[H])[H])([H])[H])([H])[H])[H])([H])([H])[H]

>  <h>  (35) 
<NA>

>  <Training>  (35) 
True

>  <Success>  (35) 
True

>  <enamine_searched>  (35) 
False

>  <enamine_id>  (35) 
nan

$$$$

     RDKit          3D

 51 54  0  0  0  0  0  0  0  0999 V2000
   13.3608   -3.1563   25.8817 N   0  0  0  0  0  0  0  0  0  0  0  0
   12.9022   -2.4853   25.0582 C   0  0  0  0  0  0  0  0  0  0  0  0
   12.4070   -1.5794   24.0032 C   0  0  0  0  0  0  0  0  0  0  0  0
   10.9940   -1.8509   23.5222 C   0  0  0  0  0  0  0  0  0  0  0  0
    9.8951   -1.1284   23.9828 C   0  0  0  0  0  0  0  0  0  0  0  0
    8.6153   -1.3940   23.5041 C   0  0  0  0  0  0  0  0  0  0  0  0
    8.4056   -2.3937   22.5525 C   0  0  0  0  0  0  0  0  0  0  0  0
    7.0925   -2.7312   22.0972 N   0  0  0  0  0  0  0  0  0  0  0  0
    6.5420   -4.0365   22.4609 C   0  0  0  0  0  0  0  0  0  0  0  0
    5.9859   -4.0188   23.8697 C   0  0  0  0  0  0  0  0  0  0  0  0
    6.8340   -4.2205   24.9569 C   0  0  0  0  0  0  0  0  0  0  0  0
    6.3361   -4.1600   26.2522 C   0  0  0  0  0  0  0  0  0  0  0  0
    4.9925   -3.8829   26.4757 C   0  0  0  0  0  0  0  0  0  0  0  0
    4.1578   -3.6656   25.3865 C   0  0  0  0  0  0  0  0  0  0  0  0
    2.4693   -3.3426   25.6659 Cl  0  0  0  0  0  0  0  0  0  0  0  0
    4.6406   -3.7174   24.0858 C   0  0  0  0  0  0  0  0  0  0  0  0
    3.9843   -3.5095   23.2448 H   0  0  0  0  0  0  0  0  0  0  0  0
    4.5940   -3.8482   27.4838 H   0  0  0  0  0  0  0  0  0  0  0  0
    6.9994   -4.3365   27.0941 H   0  0  0  0  0  0  0  0  0  0  0  0
    7.8939   -4.4095   24.7895 H   0  0  0  0  0  0  0  0  0  0  0  0
    5.7520   -4.2585   21.7398 H   0  0  0  0  0  0  0  0  0  0  0  0
    7.3270   -4.7941   22.3625 H   0  0  0  0  0  0  0  0  0  0  0  0
    6.2244   -1.8722   21.4652 C   0  0  0  0  0  0  0  0  0  0  0  0
    5.0459   -2.1627   21.3128 O   0  0  0  0  0  0  0  0  0  0  0  0
    6.8023   -0.5751   20.9090 C   0  0  0  0  0  0  0  0  0  0  0  0
    5.9558   -0.0470   19.7999 C   0  0  0  0  0  0  0  0  0  0  0  0
    6.3786   -0.1751   18.5047 C   0  0  0  0  0  0  0  0  0  0  0  0
    5.7255    0.3135   17.4208 N   0  0  0  0  0  0  0  0  0  0  0  0
    4.6173    0.9732   17.6597 C   0  0  0  0  0  0  0  0  0  0  0  0
    4.0362    1.1403   18.9491 C   0  0  0  0  0  0  0  0  0  0  0  0
    2.8208    1.8524   19.1304 C   0  0  0  0  0  0  0  0  0  0  0  0
    2.2604    1.9652   20.3758 C   0  0  0  0  0  0  0  0  0  0  0  0
    2.8927    1.3684   21.4915 C   0  0  0  0  0  0  0  0  0  0  0  0
    4.0922    0.7057   21.3470 C   0  0  0  0  0  0  0  0  0  0  0  0
    4.7025    0.5834   20.0623 C   0  0  0  0  0  0  0  0  0  0  0  0
    4.5693    0.2554   22.2104 H   0  0  0  0  0  0  0  0  0  0  0  0
    2.4417    1.4633   22.4756 H   0  0  0  0  0  0  0  0  0  0  0  0
    1.3323    2.5077   20.5005 H   0  0  0  0  0  0  0  0  0  0  0  0
    2.3571    2.2770   18.2436 H   0  0  0  0  0  0  0  0  0  0  0  0
    4.1140    1.4187   16.8008 H   0  0  0  0  0  0  0  0  0  0  0  0
    7.3358   -0.6571   18.2968 H   0  0  0  0  0  0  0  0  0  0  0  0
    7.8153   -0.7798   20.5487 H   0  0  0  0  0  0  0  0  0  0  0  0
    6.8817    0.1756   21.7062 H   0  0  0  0  0  0  0  0  0  0  0  0
    9.5036   -3.1152   22.0844 C   0  0  0  0  0  0  0  0  0  0  0  0
   10.7776   -2.8321   22.5578 C   0  0  0  0  0  0  0  0  0  0  0  0
   11.6273   -3.3904   22.1754 H   0  0  0  0  0  0  0  0  0  0  0  0
    9.3563   -3.8999   21.3448 H   0  0  0  0  0  0  0  0  0  0  0  0
    7.7586   -0.8467   23.8905 H   0  0  0  0  0  0  0  0  0  0  0  0
   10.0255   -0.3405   24.7222 H   0  0  0  0  0  0  0  0  0  0  0  0
   12.4923   -0.5567   24.3844 H   0  0  0  0  0  0  0  0  0  0  0  0
   13.1004   -1.6755   23.1587 H   0  0  0  0  0  0  0  0  0  0  0  0
  1  2  3  0
  2  3  1  0
  3  4  1  0
  4  5  2  0
  5  6  1  0
  6  7  2  0
  7  8  1  0
  8  9  1  0
  9 10  1  0
 10 11  2  0
 11 12  1  0
 12 13  2  0
 13 14  1  0
 14 15  1  0
 14 16  2  0
 16 17  1  0
 13 18  1  0
 12 19  1  0
 11 20  1  0
  9 21  1  0
  9 22  1  0
  8 23  1  0
 23 24  2  0
 23 25  1  0
 25 26  1  0
 26 27  2  0
 27 28  1  0
 28 29  2  0
 29 30  1  0
 30 31  2  0
 31 32  1  0
 32 33  2  0
 33 34  1  0
 34 35  2  0
 34 36  1  0
 33 37  1  0
 32 38  1  0
 31 39  1  0
 29 40  1  0
 27 41  1  0
 25 42  1  0
 25 43  1  0
  7 44  1  0
 44 45  2  0
 45 46  1  0
 44 47  1  0
  6 48  1  0
  5 49  1  0
  3 50  1  0
  3 51  1  0
 45  4  1  0
 16 10  1  0
 35 26  1  0
 35 30  1  0
M  END
>  <cnnaffinities>  (36) 
[6.69702, 6.82854]

>  <score>  (36) 
6.69702

>  <index>  (36) 
35

>  <Smiles>  (36) 
N#CC(c1c(c(c(N(C(c2c(c(c(c(Cl)c2[H])[H])[H])[H])([H])[H])C(=O)C(c2c(nc(c3c(c(c(c(c23)[H])[H])[H])[H])[H])[H])([H])[H])c(c1[H])[H])[H])[H])([H])[H]

>  <h>  (36) 
<NA>

>  <Training>  (36) 
True

>  <Success>  (36) 
True

>  <enamine_searched>  (36) 
False

>  <enamine_id>  (36) 
nan

$$$$

     RDKit          3D

 59 64  0  0  0  0  0  0  0  0999 V2000
    7.7718   -3.0217   23.2702 C   0  0  0  0  0  0  0  0  0  0  0  0
    8.0232   -1.9360   22.2373 C   0  0  1  0  0  0  0  0  0  0  0  0
    6.8375   -1.8243   21.2702 C   0  0  0  0  0  0  0  0  0  0  0  0
    6.8419   -0.4326   20.8941 N   0  0  0  0  0  0  0  0  0  0  0  0
    6.0321    0.0583   19.8444 C   0  0  0  0  0  0  0  0  0  0  0  0
    6.4145   -0.1564   18.5469 C   0  0  0  0  0  0  0  0  0  0  0  0
    5.7473    0.2920   17.4609 N   0  0  0  0  0  0  0  0  0  0  0  0
    4.6385    0.9554   17.6728 C   0  0  0  0  0  0  0  0  0  0  0  0
    4.0893    1.1913   18.9627 C   0  0  0  0  0  0  0  0  0  0  0  0
    2.8512    1.8670   19.1254 C   0  0  0  0  0  0  0  0  0  0  0  0
    2.2756    1.9845   20.3602 C   0  0  0  0  0  0  0  0  0  0  0  0
    2.9163    1.4232   21.4935 C   0  0  0  0  0  0  0  0  0  0  0  0
    4.1311    0.7844   21.3610 C   0  0  0  0  0  0  0  0  0  0  0  0
    4.7714    0.6891   20.0942 C   0  0  0  0  0  0  0  0  0  0  0  0
    4.6086    0.3455   22.2291 H   0  0  0  0  0  0  0  0  0  0  0  0
    2.4597    1.5327   22.4705 H   0  0  0  0  0  0  0  0  0  0  0  0
    1.3401    2.5224   20.4837 H   0  0  0  0  0  0  0  0  0  0  0  0
    2.3568    2.2489   18.2400 H   0  0  0  0  0  0  0  0  0  0  0  0
    4.1298    1.3577   16.7986 H   0  0  0  0  0  0  0  0  0  0  0  0
    7.3388   -0.6849   18.3363 H   0  0  0  0  0  0  0  0  0  0  0  0
    7.6579    0.3772   21.6554 C   0  0  0  0  0  0  0  0  0  0  0  0
    7.7882    1.5722   21.4804 O   0  0  0  0  0  0  0  0  0  0  0  0
    8.2728   -0.4788   22.7833 C   0  0  1  0  0  0  0  0  0  0  0  0
    7.4540   -0.1107   24.0500 C   0  0  0  0  0  0  0  0  0  0  0  0
    8.0582   -0.5828   25.2904 N   0  0  0  0  0  0  0  0  0  0  0  0
    7.2082   -0.9676   26.4066 C   0  0  0  0  0  0  0  0  0  0  0  0
    7.0164   -2.4510   26.5193 C   0  0  0  0  0  0  0  0  0  0  0  0
    7.9772   -3.4320   26.8288 C   0  0  0  0  0  0  0  0  0  0  0  0
    7.2683   -4.6092   26.8840 C   0  0  0  0  0  0  0  0  0  0  0  0
    5.9858   -4.3100   26.5710 N   0  0  0  0  0  0  0  0  0  0  0  0
    4.9215   -5.2413   26.2506 C   0  0  0  0  0  0  0  0  0  0  0  0
    5.0477   -5.6450   25.2366 H   0  0  0  0  0  0  0  0  0  0  0  0
    4.9353   -6.0630   26.9707 H   0  0  0  0  0  0  0  0  0  0  0  0
    3.9706   -4.7078   26.3082 H   0  0  0  0  0  0  0  0  0  0  0  0
    5.8215   -2.9959   26.3299 N   0  0  0  0  0  0  0  0  0  0  0  0
    7.5710   -5.6165   27.1509 H   0  0  0  0  0  0  0  0  0  0  0  0
    9.0457   -3.3067   26.9579 H   0  0  0  0  0  0  0  0  0  0  0  0
    7.6930   -0.5827   27.3100 H   0  0  0  0  0  0  0  0  0  0  0  0
    6.2248   -0.5029   26.2998 H   0  0  0  0  0  0  0  0  0  0  0  0
    9.3960   -0.4347   25.5460 C   0  0  0  0  0  0  0  0  0  0  0  0
    9.8687   -0.4720   26.6770 O   0  0  0  0  0  0  0  0  0  0  0  0
   10.2670   -0.2260   24.3611 C   0  0  0  0  0  0  0  0  0  0  0  0
   11.6331   -0.0871   24.6134 C   0  0  0  0  0  0  0  0  0  0  0  0
   12.5072    0.1831   23.5847 C   0  0  0  0  0  0  0  0  0  0  0  0
   11.9910    0.2876   22.2994 C   0  0  0  0  0  0  0  0  0  0  0  0
   12.8598    0.5996   21.3229 F   0  0  0  0  0  0  0  0  0  0  0  0
   10.6482    0.0858   22.0166 C   0  0  0  0  0  0  0  0  0  0  0  0
    9.7462   -0.1784   23.0600 C   0  0  0  0  0  0  0  0  0  0  0  0
   10.3078    0.1423   20.9903 H   0  0  0  0  0  0  0  0  0  0  0  0
   13.5691    0.3135   23.7551 H   0  0  0  0  0  0  0  0  0  0  0  0
   11.9811   -0.1937   25.6372 H   0  0  0  0  0  0  0  0  0  0  0  0
    7.3570    0.9860   24.0707 H   0  0  0  0  0  0  0  0  0  0  0  0
    6.4424   -0.5351   23.9725 H   0  0  0  0  0  0  0  0  0  0  0  0
    6.9312   -2.4660   20.3878 H   0  0  0  0  0  0  0  0  0  0  0  0
    5.8935   -2.1112   21.7629 H   0  0  0  0  0  0  0  0  0  0  0  0
    8.9180   -2.1868   21.6507 H   0  0  0  0  0  0  0  0  0  0  0  0
    7.7264   -4.0007   22.7820 H   0  0  0  0  0  0  0  0  0  0  0  0
    6.8116   -2.8504   23.7681 H   0  0  0  0  0  0  0  0  0  0  0  0
    8.5559   -3.0425   24.0309 H   0  0  0  0  0  0  0  0  0  0  0  0
  1  2  1  0
  2  3  1  0
  3  4  1  0
  4  5  1  0
  5  6  2  0
  6  7  1  0
  7  8  2  0
  8  9  1  0
  9 10  2  0
 10 11  1  0
 11 12  2  0
 12 13  1  0
 13 14  2  0
 13 15  1  0
 12 16  1  0
 11 17  1  0
 10 18  1  0
  8 19  1  0
  6 20  1  0
  4 21  1  0
 21 22  2  0
 21 23  1  0
 23 24  1  1
 24 25  1  0
 25 26  1  0
 26 27  1  0
 27 28  1  0
 28 29  2  0
 29 30  1  0
 30 31  1  0
 31 32  1  0
 31 33  1  0
 31 34  1  0
 30 35  1  0
 29 36  1  0
 28 37  1  0
 26 38  1  0
 26 39  1  0
 25 40  1  0
 40 41  2  0
 40 42  1  0
 42 43  2  0
 43 44  1  0
 44 45  2  0
 45 46  1  0
 45 47  1  0
 47 48  2  0
 47 49  1  0
 44 50  1  0
 43 51  1  0
 24 52  1  0
 24 53  1  0
  3 54  1  0
  3 55  1  0
  2 56  1  6
  1 57  1  0
  1 58  1  0
  1 59  1  0
 23  2  1  0
 35 27  2  0
 48 42  1  0
 14  5  1  0
 48 23  1  0
 14  9  1  0
M  END
>  <cnnaffinities>  (37) 
[6.55691, 6.7185, 6.62149]

>  <score>  (37) 
6.55691

>  <index>  (37) 
36

>  <Smiles>  (37) 
C([C@]1(C(N(c2c(nc(c3c(c(c(c(c23)[H])[H])[H])[H])[H])[H])C(=O)[C@]21C(N(C(c1c(c(n(C([H])([H])[H])n1)[H])[H])([H])[H])C(=O)c1c(c(c(F)c(c21)[H])[H])[H])([H])[H])([H])[H])[H])([H])([H])[H]

>  <h>  (37) 
<NA>

>  <Training>  (37) 
True

>  <Success>  (37) 
True

>  <enamine_searched>  (37) 
False

>  <enamine_id>  (37) 
nan

$$$$

     RDKit          3D

 48 51  0  0  0  0  0  0  0  0999 V2000
   13.4091   -1.3606   24.3318 N   0  0  0  0  0  0  0  0  0  0  0  0
   12.3396   -1.5812   23.9403 C   0  0  0  0  0  0  0  0  0  0  0  0
   11.0068   -1.8518   23.4622 C   0  0  0  0  0  0  0  0  0  0  0  0
    9.9116   -1.1409   23.9607 C   0  0  0  0  0  0  0  0  0  0  0  0
    8.6329   -1.4107   23.4911 C   0  0  0  0  0  0  0  0  0  0  0  0
    8.4274   -2.4050   22.5337 C   0  0  0  0  0  0  0  0  0  0  0  0
    7.1094   -2.7309   22.0878 N   0  0  0  0  0  0  0  0  0  0  0  0
    6.5534   -4.0377   22.4427 C   0  0  0  0  0  0  0  0  0  0  0  0
    5.9863   -4.0285   23.8479 C   0  0  0  0  0  0  0  0  0  0  0  0
    6.8289   -4.2287   24.9396 C   0  0  0  0  0  0  0  0  0  0  0  0
    6.3268   -4.1714   26.2342 C   0  0  0  0  0  0  0  0  0  0  0  0
    4.9804   -3.9054   26.4525 C   0  0  0  0  0  0  0  0  0  0  0  0
    4.1480   -3.6995   25.3594 C   0  0  0  0  0  0  0  0  0  0  0  0
    2.4543   -3.3919   25.6341 Cl  0  0  0  0  0  0  0  0  0  0  0  0
    4.6363   -3.7481   24.0598 C   0  0  0  0  0  0  0  0  0  0  0  0
    3.9789   -3.5497   23.2175 H   0  0  0  0  0  0  0  0  0  0  0  0
    4.5756   -3.8726   27.4593 H   0  0  0  0  0  0  0  0  0  0  0  0
    6.9884   -4.3397   27.0797 H   0  0  0  0  0  0  0  0  0  0  0  0
    7.8897   -4.4122   24.7787 H   0  0  0  0  0  0  0  0  0  0  0  0
    7.3428   -4.7923   22.3534 H   0  0  0  0  0  0  0  0  0  0  0  0
    5.7705   -4.2591   21.7122 H   0  0  0  0  0  0  0  0  0  0  0  0
    6.2409   -1.8647   21.4596 C   0  0  0  0  0  0  0  0  0  0  0  0
    5.0617   -2.1438   21.3232 O   0  0  0  0  0  0  0  0  0  0  0  0
    6.8252   -0.5647   20.9042 C   0  0  0  0  0  0  0  0  0  0  0  0
    5.9730   -0.0382   19.7979 C   0  0  0  0  0  0  0  0  0  0  0  0
    6.3855   -0.1778   18.5015 C   0  0  0  0  0  0  0  0  0  0  0  0
    5.7270    0.3032   17.4226 N   0  0  0  0  0  0  0  0  0  0  0  0
    4.6316    0.9825   17.6571 C   0  0  0  0  0  0  0  0  0  0  0  0
    4.0573    1.1565   18.9414 C   0  0  0  0  0  0  0  0  0  0  0  0
    2.8563    1.8840   19.1235 C   0  0  0  0  0  0  0  0  0  0  0  0
    2.3111    2.0307   20.3705 C   0  0  0  0  0  0  0  0  0  0  0  0
    2.9417    1.4328   21.4911 C   0  0  0  0  0  0  0  0  0  0  0  0
    4.1350    0.7627   21.3415 C   0  0  0  0  0  0  0  0  0  0  0  0
    4.7298    0.6096   20.0550 C   0  0  0  0  0  0  0  0  0  0  0  0
    4.6095    0.3197   22.2115 H   0  0  0  0  0  0  0  0  0  0  0  0
    2.5013    1.5588   22.4803 H   0  0  0  0  0  0  0  0  0  0  0  0
    1.3840    2.5829   20.4995 H   0  0  0  0  0  0  0  0  0  0  0  0
    2.3910    2.3140   18.2398 H   0  0  0  0  0  0  0  0  0  0  0  0
    4.1283    1.4142   16.7945 H   0  0  0  0  0  0  0  0  0  0  0  0
    7.3300   -0.6803   18.2909 H   0  0  0  0  0  0  0  0  0  0  0  0
    7.8365   -0.7748   20.5393 H   0  0  0  0  0  0  0  0  0  0  0  0
    6.9188    0.1840   21.7053 H   0  0  0  0  0  0  0  0  0  0  0  0
    9.5182   -3.1242   22.0443 C   0  0  0  0  0  0  0  0  0  0  0  0
   10.7994   -2.8413   22.4979 C   0  0  0  0  0  0  0  0  0  0  0  0
   11.6465   -3.3968   22.1181 H   0  0  0  0  0  0  0  0  0  0  0  0
    9.3567   -3.9085   21.3083 H   0  0  0  0  0  0  0  0  0  0  0  0
    7.7771   -0.8723   23.8908 H   0  0  0  0  0  0  0  0  0  0  0  0
   10.0649   -0.3841   24.7207 H   0  0  0  0  0  0  0  0  0  0  0  0
  1  2  3  0
  2  3  1  0
  3  4  2  0
  4  5  1  0
  5  6  2  0
  6  7  1  0
  7  8  1  0
  8  9  1  0
  9 10  2  0
 10 11  1  0
 11 12  2  0
 12 13  1  0
 13 14  1  0
 13 15  2  0
 15 16  1  0
 12 17  1  0
 11 18  1  0
 10 19  1  0
  8 20  1  0
  8 21  1  0
  7 22  1  0
 22 23  2  0
 22 24  1  0
 24 25  1  0
 25 26  2  0
 26 27  1  0
 27 28  2  0
 28 29  1  0
 29 30  2  0
 30 31  1  0
 31 32  2  0
 32 33  1  0
 33 34  2  0
 33 35  1  0
 32 36  1  0
 31 37  1  0
 30 38  1  0
 28 39  1  0
 26 40  1  0
 24 41  1  0
 24 42  1  0
  6 43  1  0
 43 44  2  0
 44 45  1  0
 43 46  1  0
  5 47  1  0
  4 48  1  0
 44  3  1  0
 15  9  1  0
 34 25  1  0
 34 29  1  0
M  END
>  <cnnaffinities>  (38) 
[6.58065]

>  <score>  (38) 
6.58065

>  <index>  (38) 
37

>  <Smiles>  (38) 
N#Cc1c(c(c(N(C(c2c(c(c(c(Cl)c2[H])[H])[H])[H])([H])[H])C(=O)C(c2c(nc(c3c(c(c(c(c23)[H])[H])[H])[H])[H])[H])([H])[H])c(c1[H])[H])[H])[H]

>  <h>  (38) 
<NA>

>  <Training>  (38) 
True

>  <Success>  (38) 
True

>  <enamine_searched>  (38) 
False

>  <enamine_id>  (38) 
nan

$$$$

     RDKit          3D

 72 77  0  0  0  0  0  0  0  0999 V2000
    8.3431   -8.0231   22.7139 C   0  0  0  0  0  0  0  0  0  0  0  0
    7.1554   -7.1781   22.5485 N   0  0  0  0  0  4  0  0  0  0  0  0
    7.1114   -6.4335   21.2620 C   0  0  0  0  0  0  0  0  0  0  0  0
    6.2901   -5.1659   21.4694 C   0  0  0  0  0  0  0  0  0  0  0  0
    6.8264   -4.3739   22.5686 N   0  0  0  0  0  0  0  0  0  0  0  0
    7.8463   -3.3919   22.3019 C   0  0  0  0  0  0  0  0  0  0  0  0
    7.3567   -1.9722   22.6699 C   0  0  2  0  0  0  0  0  0  0  0  0
    6.2161   -1.6112   21.6826 C   0  0  0  0  0  0  0  0  0  0  0  0
    5.1232   -2.1413   21.6270 O   0  0  0  0  0  0  0  0  0  0  0  0
    6.6562   -0.6215   20.8268 N   0  0  0  0  0  0  0  0  0  0  0  0
    5.8804   -0.0736   19.7834 C   0  0  0  0  0  0  0  0  0  0  0  0
    6.3761   -0.0533   18.5004 C   0  0  0  0  0  0  0  0  0  0  0  0
    5.7218    0.4466   17.4255 N   0  0  0  0  0  0  0  0  0  0  0  0
    4.5468    0.9828   17.6310 C   0  0  0  0  0  0  0  0  0  0  0  0
    3.9271    1.0627   18.9082 C   0  0  0  0  0  0  0  0  0  0  0  0
    2.6676    1.7018   19.0703 C   0  0  0  0  0  0  0  0  0  0  0  0
    2.1094    1.8238   20.3126 C   0  0  0  0  0  0  0  0  0  0  0  0
    2.7840    1.3106   21.4405 C   0  0  0  0  0  0  0  0  0  0  0  0
    3.9953    0.6818   21.3106 C   0  0  0  0  0  0  0  0  0  0  0  0
    4.6019    0.5327   20.0290 C   0  0  0  0  0  0  0  0  0  0  0  0
    4.5015    0.3078   22.1913 H   0  0  0  0  0  0  0  0  0  0  0  0
    2.3437    1.4315   22.4262 H   0  0  0  0  0  0  0  0  0  0  0  0
    1.1585    2.3365   20.4401 H   0  0  0  0  0  0  0  0  0  0  0  0
    2.1790    2.1105   18.1889 H   0  0  0  0  0  0  0  0  0  0  0  0
    4.0282    1.3995   16.7654 H   0  0  0  0  0  0  0  0  0  0  0  0
    7.3572   -0.4729   18.2860 H   0  0  0  0  0  0  0  0  0  0  0  0
    8.0917   -0.3945   20.9324 C   0  0  0  0  0  0  0  0  0  0  0  0
    8.4469   -0.9138   22.3409 C   0  0  2  0  0  0  0  0  0  0  0  0
    9.8893   -1.4229   22.4219 C   0  0  0  0  0  0  0  0  0  0  0  0
   10.8000   -0.3655   22.3905 O   0  0  0  0  0  0  0  0  0  0  0  0
   11.3062   -0.0895   23.6919 C   0  0  0  0  0  0  0  0  0  0  0  0
   11.8654    1.2721   23.8435 C   0  0  0  0  0  0  0  0  0  0  0  0
   12.2147    1.3098   23.6907 C   0  0  0  0  0  0  0  0  0  0  0  0
   10.7657    3.8456   24.0191 S   0  0  0  0  0  0  0  0  0  0  0  0
    9.6514    3.6440   24.9417 O   0  0  0  0  0  0  0  0  0  0  0  0
   12.0038    4.5126   24.4182 O   0  0  0  0  0  0  0  0  0  0  0  0
   11.0532    2.3264   23.1005 C   0  0  0  0  0  0  0  0  0  0  0  0
   11.4420    2.6295   22.1236 H   0  0  0  0  0  0  0  0  0  0  0  0
   10.0190    1.9411   22.9401 H   0  0  0  0  0  0  0  0  0  0  0  0
   13.2768    1.9782   23.6422 H   0  0  0  0  0  0  0  0  0  0  0  0
   12.0698    1.4011   25.0461 H   0  0  0  0  0  0  0  0  0  0  0  0
   12.9892    1.0529   22.8526 H   0  0  0  0  0  0  0  0  0  0  0  0
   11.9489   -0.9390   24.0162 H   0  0  0  0  0  0  0  0  0  0  0  0
   10.4263   -0.1339   24.3747 H   0  0  0  0  0  0  0  0  0  0  0  0
   10.0527   -2.0110   23.3371 H   0  0  0  0  0  0  0  0  0  0  0  0
   10.1065   -2.0780   21.5665 H   0  0  0  0  0  0  0  0  0  0  0  0
    8.3373   -0.0725   23.0308 H   0  0  0  0  0  0  0  0  0  0  0  0
    8.2980    0.6681   20.7901 H   0  0  0  0  0  0  0  0  0  0  0  0
    8.6496   -0.9518   20.1673 H   0  0  0  0  0  0  0  0  0  0  0  0
    6.8658   -2.0321   24.1124 C   0  0  0  0  0  0  0  0  0  0  0  0
    6.8396   -0.8942   24.9297 C   0  0  0  0  0  0  0  0  0  0  0  0
    6.4076   -0.9895   26.2407 C   0  0  0  0  0  0  0  0  0  0  0  0
    6.4165    0.4388   27.2382 Cl  0  0  0  0  0  0  0  0  0  0  0  0
    5.9723   -2.1933   26.7887 C   0  0  0  0  0  0  0  0  0  0  0  0
    5.9532   -3.3131   25.9804 C   0  0  0  0  0  0  0  0  0  0  0  0
    6.3793   -3.2384   24.6542 C   0  0  0  0  0  0  0  0  0  0  0  0
    6.2930   -4.4707   23.8127 C   0  0  0  0  0  0  0  0  0  0  0  0
    5.7861   -5.5247   24.2082 O   0  0  0  0  0  0  0  0  0  0  0  0
    5.6117   -4.2685   26.3594 H   0  0  0  0  0  0  0  0  0  0  0  0
    5.6561   -2.2360   27.8247 H   0  0  0  0  0  0  0  0  0  0  0  0
    7.1400    0.0777   24.5544 H   0  0  0  0  0  0  0  0  0  0  0  0
    8.7516   -3.6277   22.8782 H   0  0  0  0  0  0  0  0  0  0  0  0
    8.1025   -3.4154   21.2448 H   0  0  0  0  0  0  0  0  0  0  0  0
    5.2582   -5.4203   21.7297 H   0  0  0  0  0  0  0  0  0  0  0  0
    6.2696   -4.5395   20.5704 H   0  0  0  0  0  0  0  0  0  0  0  0
    6.6799   -7.0529   20.4700 H   0  0  0  0  0  0  0  0  0  0  0  0
    8.1352   -6.1784   20.9626 H   0  0  0  0  0  0  0  0  0  0  0  0
    7.0690   -6.5042   23.3205 H   0  0  0  0  0  0  0  0  0  0  0  0
    6.3002   -7.7589   22.6124 H   0  0  0  0  0  0  0  0  0  0  0  0
    8.2542   -8.9242   22.1033 H   0  0  0  0  0  0  0  0  0  0  0  0
    9.2352   -7.4877   22.3772 H   0  0  0  0  0  0  0  0  0  0  0  0
    8.4876   -8.3088   23.7563 H   0  0  0  0  0  0  0  0  0  0  0  0
  1  2  1  0
  2  3  1  0
  3  4  1  0
  4  5  1  0
  5  6  1  0
  7  6  1  6
  7  8  1  0
  8  9  2  0
  8 10  1  0
 10 11  1  0
 11 12  2  0
 12 13  1  0
 13 14  2  0
 14 15  1  0
 15 16  2  0
 16 17  1  0
 17 18  2  0
 18 19  1  0
 19 20  2  0
 19 21  1  0
 18 22  1  0
 17 23  1  0
 16 24  1  0
 14 25  1  0
 12 26  1  0
 10 27  1  0
 27 28  1  0
 28 29  1  0
 29 30  1  0
 30 31  1  0
 31 32  1  0
 32 33  1  0
 33 34  1  0
 34 35  2  0
 34 36  2  0
 34 37  1  0
 37 38  1  0
 37 39  1  0
 33 40  1  0
 33 41  1  0
 32 42  1  0
 31 43  1  0
 31 44  1  0
 29 45  1  0
 29 46  1  0
 28 47  1  1
 27 48  1  0
 27 49  1  0
  7 50  1  0
 50 51  2  0
 51 52  1  0
 52 53  1  0
 52 54  2  0
 54 55  1  0
 55 56  2  0
 56 57  1  0
 57 58  2  0
 55 59  1  0
 54 60  1  0
 51 61  1  0
  6 62  1  0
  6 63  1  0
  4 64  1  0
  4 65  1  0
  3 66  1  0
  3 67  1  0
  2 68  1  0
  2 69  1  0
  1 70  1  0
  1 71  1  0
  1 72  1  0
 57  5  1  0
 28  7  1  0
 37 32  1  0
 56 50  1  0
 20 11  1  0
 20 15  1  0
M  CHG  1   2   1
M  END
>  <cnnaffinities>  (39) 
[6.78861]

>  <score>  (39) 
6.78861

>  <index>  (39) 
38

>  <Smiles>  (39) 
C([N+](C(C(N1C([C@@]2(C(=O)N(c3c(nc(c4c(c(c(c(c34)[H])[H])[H])[H])[H])[H])C([C@@]2(C(OC(C2(C(S(=O)(=O)C2([H])[H])([H])[H])[H])([H])[H])([H])[H])[H])([H])[H])c2c(c(Cl)c(c(c2C1=O)[H])[H])[H])([H])[H])([H])[H])([H])[H])([H])[H])([H])([H])[H]

>  <h>  (39) 
<NA>

>  <Training>  (39) 
True

>  <Success>  (39) 
True

>  <enamine_searched>  (39) 
False

>  <enamine_id>  (39) 
nan

$$$$

     RDKit          3D

 60 64  0  0  0  0  0  0  0  0999 V2000
    8.2599   -4.6096   24.7311 C   0  0  0  0  0  0  0  0  0  0  0  0
    8.7575   -3.7515   23.5867 C   0  0  0  0  0  0  0  0  0  0  0  0
    7.6868   -2.9233   23.1827 O   0  0  0  0  0  0  0  0  0  0  0  0
    8.0197   -1.9538   22.2231 C   0  0  1  0  0  0  0  0  0  0  0  0
    6.8202   -1.8251   21.2888 C   0  0  0  0  0  0  0  0  0  0  0  0
    6.8434   -0.4358   20.9122 N   0  0  0  0  0  0  0  0  0  0  0  0
    6.0253    0.0557   19.8646 C   0  0  0  0  0  0  0  0  0  0  0  0
    6.4179   -0.1491   18.5666 C   0  0  0  0  0  0  0  0  0  0  0  0
    5.7531    0.3006   17.4778 N   0  0  0  0  0  0  0  0  0  0  0  0
    4.6350    0.9487   17.6861 C   0  0  0  0  0  0  0  0  0  0  0  0
    4.0711    1.1680   18.9752 C   0  0  0  0  0  0  0  0  0  0  0  0
    2.8276    1.8333   19.1318 C   0  0  0  0  0  0  0  0  0  0  0  0
    2.2402    1.9357   20.3629 C   0  0  0  0  0  0  0  0  0  0  0  0
    2.8771    1.3751   21.4947 C   0  0  0  0  0  0  0  0  0  0  0  0
    4.0940    0.7469   21.3713 C   0  0  0  0  0  0  0  0  0  0  0  0
    4.7481    0.6626   20.1087 C   0  0  0  0  0  0  0  0  0  0  0  0
    4.5718    0.3140   22.2427 H   0  0  0  0  0  0  0  0  0  0  0  0
    2.4043    1.4599   22.4653 H   0  0  0  0  0  0  0  0  0  0  0  0
    1.2974    2.4615   20.4812 H   0  0  0  0  0  0  0  0  0  0  0  0
    2.3416    2.2233   18.2450 H   0  0  0  0  0  0  0  0  0  0  0  0
    4.1266    1.3572   16.8127 H   0  0  0  0  0  0  0  0  0  0  0  0
    7.3469   -0.6744   18.3589 H   0  0  0  0  0  0  0  0  0  0  0  0
    7.6827    0.3577   21.6685 C   0  0  0  0  0  0  0  0  0  0  0  0
    7.8146    1.5539   21.5111 O   0  0  0  0  0  0  0  0  0  0  0  0
    8.3019   -0.5072   22.7838 C   0  0  1  0  0  0  0  0  0  0  0  0
    7.4666   -0.1770   24.0454 C   0  0  0  0  0  0  0  0  0  0  0  0
    8.0638   -0.7247   25.2553 N   0  0  0  0  0  0  0  0  0  0  0  0
    7.2006   -1.2403   26.2954 C   0  0  0  0  0  0  0  0  0  0  0  0
    6.5747   -0.1121   27.1156 C   0  0  0  0  0  0  0  0  0  0  0  0
    5.5142    0.4024   26.7942 O   0  0  0  0  0  0  0  0  0  0  0  0
    7.2816    0.2798   28.2044 N   0  0  0  0  0  0  0  0  0  0  0  0
    6.7714    1.3774   28.9975 C   0  0  0  0  0  0  0  0  0  0  0  0
    5.7675    1.1341   29.3521 H   0  0  0  0  0  0  0  0  0  0  0  0
    6.7006    2.2998   28.4119 H   0  0  0  0  0  0  0  0  0  0  0  0
    7.4180    1.5407   29.8600 H   0  0  0  0  0  0  0  0  0  0  0  0
    8.2662    0.0511   28.2277 H   0  0  0  0  0  0  0  0  0  0  0  0
    6.4113   -1.8285   25.8169 H   0  0  0  0  0  0  0  0  0  0  0  0
    7.7875   -1.9016   26.9377 H   0  0  0  0  0  0  0  0  0  0  0  0
    9.3501   -0.4248   25.5856 C   0  0  0  0  0  0  0  0  0  0  0  0
    9.7467   -0.3468   26.7476 O   0  0  0  0  0  0  0  0  0  0  0  0
   10.2568   -0.2277   24.4252 C   0  0  0  0  0  0  0  0  0  0  0  0
   11.6103   -0.0735   24.7249 C   0  0  0  0  0  0  0  0  0  0  0  0
   12.5184    0.1898   23.7214 C   0  0  0  0  0  0  0  0  0  0  0  0
   12.0503    0.2724   22.4118 C   0  0  0  0  0  0  0  0  0  0  0  0
   13.2436    0.6418   21.1944 Cl  0  0  0  0  0  0  0  0  0  0  0  0
   10.7094    0.0740   22.0922 C   0  0  0  0  0  0  0  0  0  0  0  0
    9.7725   -0.2075   23.1041 C   0  0  0  0  0  0  0  0  0  0  0  0
   10.3901    0.1576   21.0596 H   0  0  0  0  0  0  0  0  0  0  0  0
   13.5732    0.3402   23.9330 H   0  0  0  0  0  0  0  0  0  0  0  0
   11.9247   -0.1709   25.7603 H   0  0  0  0  0  0  0  0  0  0  0  0
    7.3855    0.9181   24.1050 H   0  0  0  0  0  0  0  0  0  0  0  0
    6.4519   -0.5776   23.9519 H   0  0  0  0  0  0  0  0  0  0  0  0
    6.8836   -2.4709   20.4051 H   0  0  0  0  0  0  0  0  0  0  0  0
    5.9087   -2.1081   21.8338 H   0  0  0  0  0  0  0  0  0  0  0  0
    8.8993   -2.2652   21.6372 H   0  0  0  0  0  0  0  0  0  0  0  0
    9.6076   -3.1217   23.8879 H   0  0  0  0  0  0  0  0  0  0  0  0
    9.0838   -4.3771   22.7403 H   0  0  0  0  0  0  0  0  0  0  0  0
    7.3565   -5.1498   24.4309 H   0  0  0  0  0  0  0  0  0  0  0  0
    9.0282   -5.3326   25.0229 H   0  0  0  0  0  0  0  0  0  0  0  0
    8.0159   -3.9830   25.5969 H   0  0  0  0  0  0  0  0  0  0  0  0
  1  2  1  0
  2  3  1  0
  3  4  1  0
  4  5  1  0
  5  6  1  0
  6  7  1  0
  7  8  2  0
  8  9  1  0
  9 10  2  0
 10 11  1  0
 11 12  2  0
 12 13  1  0
 13 14  2  0
 14 15  1  0
 15 16  2  0
 15 17  1  0
 14 18  1  0
 13 19  1  0
 12 20  1  0
 10 21  1  0
  8 22  1  0
  6 23  1  0
 23 24  2  0
 23 25  1  0
 25 26  1  1
 26 27  1  0
 27 28  1  0
 28 29  1  0
 29 30  2  0
 29 31  1  0
 31 32  1  0
 32 33  1  0
 32 34  1  0
 32 35  1  0
 31 36  1  0
 28 37  1  0
 28 38  1  0
 27 39  1  0
 39 40  2  0
 39 41  1  0
 41 42  2  0
 42 43  1  0
 43 44  2  0
 44 45  1  0
 44 46  1  0
 46 47  2  0
 46 48  1  0
 43 49  1  0
 42 50  1  0
 26 51  1  0
 26 52  1  0
  5 53  1  0
  5 54  1  0
  4 55  1  6
  2 56  1  0
  2 57  1  0
  1 58  1  0
  1 59  1  0
  1 60  1  0
 25  4  1  0
 47 41  1  0
 16  7  1  0
 47 25  1  0
 16 11  1  0
M  END
>  <cnnaffinities>  (40) 
[6.50456, 6.72836]

>  <score>  (40) 
6.50456

>  <index>  (40) 
39

>  <Smiles>  (40) 
C(C(O[C@]1(C(N(c2c(nc(c3c(c(c(c(c23)[H])[H])[H])[H])[H])[H])C(=O)[C@]21C(N(C(C(=O)N(C([H])([H])[H])[H])([H])[H])C(=O)c1c(c(c(Cl)c(c21)[H])[H])[H])([H])[H])([H])[H])[H])([H])[H])([H])([H])[H]

>  <h>  (40) 
<NA>

>  <Training>  (40) 
True

>  <Success>  (40) 
True

>  <enamine_searched>  (40) 
False

>  <enamine_id>  (40) 
nan

$$$$

     RDKit          3D

 57 61  0  0  0  0  0  0  0  0999 V2000
    7.7941   -8.5032   23.1342 C   0  0  0  0  0  0  0  0  0  0  0  0
    6.8636   -7.4520   22.7834 N   0  0  0  0  0  0  0  0  0  0  0  0
    7.1541   -6.6239   21.7469 C   0  0  0  0  0  0  0  0  0  0  0  0
    8.0349   -6.8404   20.9300 O   0  0  0  0  0  0  0  0  0  0  0  0
    6.2777   -5.3692   21.7051 C   0  0  0  0  0  0  0  0  0  0  0  0
    6.7244   -4.3867   22.6723 N   0  0  0  0  0  0  0  0  0  0  0  0
    7.7966   -3.4756   22.3319 C   0  0  0  0  0  0  0  0  0  0  0  0
    7.4018   -2.0198   22.6793 C   0  0  2  0  0  0  0  0  0  0  0  0
    6.2753   -1.6183   21.7005 C   0  0  0  0  0  0  0  0  0  0  0  0
    5.1945   -2.1596   21.6026 O   0  0  0  0  0  0  0  0  0  0  0  0
    6.7190   -0.5794   20.9027 N   0  0  0  0  0  0  0  0  0  0  0  0
    5.9489   -0.0267   19.8605 C   0  0  0  0  0  0  0  0  0  0  0  0
    6.4196   -0.0723   18.5703 C   0  0  0  0  0  0  0  0  0  0  0  0
    5.7687    0.4183   17.4908 N   0  0  0  0  0  0  0  0  0  0  0  0
    4.6082    0.9884   17.6960 C   0  0  0  0  0  0  0  0  0  0  0  0
    3.9915    1.0966   18.9746 C   0  0  0  0  0  0  0  0  0  0  0  0
    2.7290    1.7337   19.1266 C   0  0  0  0  0  0  0  0  0  0  0  0
    2.1568    1.8358   20.3646 C   0  0  0  0  0  0  0  0  0  0  0  0
    2.8078    1.2882   21.4904 C   0  0  0  0  0  0  0  0  0  0  0  0
    4.0244    0.6680   21.3696 C   0  0  0  0  0  0  0  0  0  0  0  0
    4.6639    0.5688   20.1007 C   0  0  0  0  0  0  0  0  0  0  0  0
    4.4862    0.2444   22.2502 H   0  0  0  0  0  0  0  0  0  0  0  0
    2.3405    1.3796   22.4646 H   0  0  0  0  0  0  0  0  0  0  0  0
    1.2074    2.3467   20.4882 H   0  0  0  0  0  0  0  0  0  0  0  0
    2.2448    2.1476   18.2432 H   0  0  0  0  0  0  0  0  0  0  0  0
    4.0697    1.3523   16.8197 H   0  0  0  0  0  0  0  0  0  0  0  0
    7.3521   -0.5919   18.3567 H   0  0  0  0  0  0  0  0  0  0  0  0
    8.1676   -0.4496   20.9503 C   0  0  0  0  0  0  0  0  0  0  0  0
    8.5164   -0.9971   22.3393 C   0  0  2  0  0  0  0  0  0  0  0  0
    9.9531   -1.5345   22.4530 C   0  0  0  0  0  0  0  0  0  0  0  0
   10.9622   -0.4778   22.2924 C   0  0  0  0  0  0  0  0  0  0  0  0
   11.7562    0.3569   22.1838 N   0  0  0  0  0  0  0  0  0  0  0  0
   10.1402   -2.2997   21.6906 H   0  0  0  0  0  0  0  0  0  0  0  0
   10.1089   -1.9969   23.4352 H   0  0  0  0  0  0  0  0  0  0  0  0
    8.4223   -0.1674   23.0377 H   0  0  0  0  0  0  0  0  0  0  0  0
    8.6624   -1.0348   20.1603 H   0  0  0  0  0  0  0  0  0  0  0  0
    8.4442    0.5981   20.8243 H   0  0  0  0  0  0  0  0  0  0  0  0
    6.9122   -1.9945   24.1191 C   0  0  0  0  0  0  0  0  0  0  0  0
    6.8793   -0.7969   24.8461 C   0  0  0  0  0  0  0  0  0  0  0  0
    6.4105   -0.7905   26.1458 C   0  0  0  0  0  0  0  0  0  0  0  0
    6.3792    0.7113   27.0265 Cl  0  0  0  0  0  0  0  0  0  0  0  0
    5.9483   -1.9520   26.7644 C   0  0  0  0  0  0  0  0  0  0  0  0
    5.9290   -3.1278   26.0393 C   0  0  0  0  0  0  0  0  0  0  0  0
    6.3837   -3.1491   24.7201 C   0  0  0  0  0  0  0  0  0  0  0  0
    6.2085   -4.4094   23.9287 C   0  0  0  0  0  0  0  0  0  0  0  0
    5.5961   -5.3868   24.3683 O   0  0  0  0  0  0  0  0  0  0  0  0
    5.5467   -4.0493   26.4674 H   0  0  0  0  0  0  0  0  0  0  0  0
    5.5895   -1.9108   27.7866 H   0  0  0  0  0  0  0  0  0  0  0  0
    7.1849    0.1456   24.4037 H   0  0  0  0  0  0  0  0  0  0  0  0
    8.7103   -3.7756   22.8622 H   0  0  0  0  0  0  0  0  0  0  0  0
    7.9759   -3.5487   21.2622 H   0  0  0  0  0  0  0  0  0  0  0  0
    5.2416   -5.6068   21.9649 H   0  0  0  0  0  0  0  0  0  0  0  0
    6.3146   -4.9323   20.7017 H   0  0  0  0  0  0  0  0  0  0  0  0
    6.2527   -7.0810   23.5035 H   0  0  0  0  0  0  0  0  0  0  0  0
    7.3209   -9.1647   23.8633 H   0  0  0  0  0  0  0  0  0  0  0  0
    8.0587   -9.0680   22.2372 H   0  0  0  0  0  0  0  0  0  0  0  0
    8.7169   -8.0990   23.5700 H   0  0  0  0  0  0  0  0  0  0  0  0
  1  2  1  0
  2  3  1  0
  3  4  2  0
  3  5  1  0
  5  6  1  0
  6  7  1  0
  8  7  1  6
  8  9  1  0
  9 10  2  0
  9 11  1  0
 11 12  1  0
 12 13  2  0
 13 14  1  0
 14 15  2  0
 15 16  1  0
 16 17  2  0
 17 18  1  0
 18 19  2  0
 19 20  1  0
 20 21  2  0
 20 22  1  0
 19 23  1  0
 18 24  1  0
 17 25  1  0
 15 26  1  0
 13 27  1  0
 11 28  1  0
 28 29  1  0
 29 30  1  0
 30 31  1  0
 31 32  3  0
 30 33  1  0
 30 34  1  0
 29 35  1  1
 28 36  1  0
 28 37  1  0
  8 38  1  0
 38 39  2  0
 39 40  1  0
 40 41  1  0
 40 42  2  0
 42 43  1  0
 43 44  2  0
 44 45  1  0
 45 46  2  0
 43 47  1  0
 42 48  1  0
 39 49  1  0
  7 50  1  0
  7 51  1  0
  5 52  1  0
  5 53  1  0
  2 54  1  0
  1 55  1  0
  1 56  1  0
  1 57  1  0
 45  6  1  0
 29  8  1  0
 44 38  1  0
 21 12  1  0
 21 16  1  0
M  END
>  <cnnaffinities>  (41) 
[7.1285]

>  <score>  (41) 
7.1285

>  <index>  (41) 
40

>  <Smiles>  (41) 
C(N(C(=O)C(N1C([C@@]2(C(=O)N(c3c(nc(c4c(c(c(c(c34)[H])[H])[H])[H])[H])[H])C([C@@]2(C(C#N)([H])[H])[H])([H])[H])c2c(c(Cl)c(c(c2C1=O)[H])[H])[H])([H])[H])([H])[H])[H])([H])([H])[H]

>  <h>  (41) 
<NA>

>  <Training>  (41) 
True

>  <Success>  (41) 
True

>  <enamine_searched>  (41) 
False

>  <enamine_id>  (41) 
nan

$$$$

     RDKit          3D

 68 73  0  0  0  0  0  0  0  0999 V2000
    7.6092   -2.4646   23.7849 C   0  0  0  0  0  0  0  0  0  0  0  0
    7.8650   -1.6538   22.5254 C   0  0  1  0  0  0  0  0  0  0  0  0
    6.6349   -1.6362   21.6073 C   0  0  0  0  0  0  0  0  0  0  0  0
    6.7931   -0.3936   20.8906 N   0  0  0  0  0  0  0  0  0  0  0  0
    5.9632    0.0333   19.8343 C   0  0  0  0  0  0  0  0  0  0  0  0
    6.4045   -0.0842   18.5432 C   0  0  0  0  0  0  0  0  0  0  0  0
    5.7074    0.3425   17.4654 N   0  0  0  0  0  0  0  0  0  0  0  0
    4.5648    0.9405   17.6869 C   0  0  0  0  0  0  0  0  0  0  0  0
    3.9858    1.1092   18.9763 C   0  0  0  0  0  0  0  0  0  0  0  0
    2.7213    1.7226   19.1549 C   0  0  0  0  0  0  0  0  0  0  0  0
    2.1511    1.7943   20.3937 C   0  0  0  0  0  0  0  0  0  0  0  0
    2.8000    1.2182   21.5054 C   0  0  0  0  0  0  0  0  0  0  0  0
    4.0162    0.6001   21.3610 C   0  0  0  0  0  0  0  0  0  0  0  0
    4.6662    0.5762   20.0927 C   0  0  0  0  0  0  0  0  0  0  0  0
    4.4838    0.1309   22.2222 H   0  0  0  0  0  0  0  0  0  0  0  0
    2.3188    1.2488   22.4784 H   0  0  0  0  0  0  0  0  0  0  0  0
    1.1964    2.2953   20.5301 H   0  0  0  0  0  0  0  0  0  0  0  0
    2.2258    2.1349   18.2848 H   0  0  0  0  0  0  0  0  0  0  0  0
    4.0284    1.3173   16.8170 H   0  0  0  0  0  0  0  0  0  0  0  0
    7.3675   -0.5455   18.3380 H   0  0  0  0  0  0  0  0  0  0  0  0
    7.7958    0.4219   21.3617 C   0  0  0  0  0  0  0  0  0  0  0  0
    8.1906    1.4145   20.7866 O   0  0  0  0  0  0  0  0  0  0  0  0
    8.2810   -0.1604   22.7109 C   0  0  1  0  0  0  0  0  0  0  0  0
    7.5043    0.4932   23.8912 C   0  0  0  0  0  0  0  0  0  0  0  0
    7.8991    1.8672   24.1322 N   0  0  0  0  0  0  0  0  0  0  0  0
    6.9223    2.9149   24.3848 C   0  0  0  0  0  0  0  0  0  0  0  0
    6.8040    3.8228   23.1666 C   0  0  0  0  0  0  0  0  0  0  0  0
    5.7408    4.8560   23.3016 N   0  0  0  0  0  4  0  0  0  0  0  0
    6.0569    5.9449   24.2783 C   0  0  0  0  0  0  0  0  0  0  0  0
    4.7761    6.6298   24.7524 C   0  0  0  0  0  0  0  0  0  0  0  0
    3.5829    6.6933   23.4033 S   0  0  0  0  0  0  0  0  0  0  0  0
    2.8963    5.3960   23.4258 O   0  0  0  0  0  0  0  0  0  0  0  0
    2.8414    7.9468   23.4741 O   0  0  0  0  0  0  0  0  0  0  0  0
    4.5923    6.6712   21.9186 C   0  0  0  0  0  0  0  0  0  0  0  0
    5.4495    5.4011   21.9292 C   0  0  0  0  0  0  0  0  0  0  0  0
    4.9263    4.6092   21.4011 H   0  0  0  0  0  0  0  0  0  0  0  0
    6.4001    5.5949   21.4273 H   0  0  0  0  0  0  0  0  0  0  0  0
    3.8787    6.6260   21.0912 H   0  0  0  0  0  0  0  0  0  0  0  0
    5.1806    7.5882   21.8320 H   0  0  0  0  0  0  0  0  0  0  0  0
    4.2705    6.0351   25.5191 H   0  0  0  0  0  0  0  0  0  0  0  0
    4.9617    7.6309   25.1446 H   0  0  0  0  0  0  0  0  0  0  0  0
    6.5741    5.5216   25.1406 H   0  0  0  0  0  0  0  0  0  0  0  0
    6.7315    6.6628   23.8040 H   0  0  0  0  0  0  0  0  0  0  0  0
    4.8658    4.3804   23.5973 H   0  0  0  0  0  0  0  0  0  0  0  0
    6.5876    3.2056   22.2884 H   0  0  0  0  0  0  0  0  0  0  0  0
    7.7634    4.3173   22.9807 H   0  0  0  0  0  0  0  0  0  0  0  0
    5.9465    2.4682   24.5989 H   0  0  0  0  0  0  0  0  0  0  0  0
    7.2440    3.4805   25.2612 H   0  0  0  0  0  0  0  0  0  0  0  0
    9.2179    2.2063   24.2309 C   0  0  0  0  0  0  0  0  0  0  0  0
    9.5888    3.2487   24.7589 O   0  0  0  0  0  0  0  0  0  0  0  0
   10.1925    1.2353   23.6285 C   0  0  0  0  0  0  0  0  0  0  0  0
   11.5521    1.5135   23.7737 C   0  0  0  0  0  0  0  0  0  0  0  0
   12.5070    0.6582   23.2598 C   0  0  0  0  0  0  0  0  0  0  0  0
   12.0786   -0.4723   22.5688 C   0  0  0  0  0  0  0  0  0  0  0  0
   13.2511   -1.5886   21.9332 Cl  0  0  0  0  0  0  0  0  0  0  0  0
   10.7360   -0.7415   22.3749 C   0  0  0  0  0  0  0  0  0  0  0  0
    9.7598    0.0987   22.9271 C   0  0  0  0  0  0  0  0  0  0  0  0
   10.4747   -1.6095   21.7799 H   0  0  0  0  0  0  0  0  0  0  0  0
   13.5668    0.8596   23.3750 H   0  0  0  0  0  0  0  0  0  0  0  0
   11.8416    2.4219   24.2860 H   0  0  0  0  0  0  0  0  0  0  0  0
    7.7050   -0.0992   24.7939 H   0  0  0  0  0  0  0  0  0  0  0  0
    6.4265    0.4672   23.6951 H   0  0  0  0  0  0  0  0  0  0  0  0
    6.6091   -2.4970   20.9265 H   0  0  0  0  0  0  0  0  0  0  0  0
    5.7012   -1.6682   22.1860 H   0  0  0  0  0  0  0  0  0  0  0  0
    8.6586   -2.1321   21.9460 H   0  0  0  0  0  0  0  0  0  0  0  0
    8.4659   -2.4489   24.4645 H   0  0  0  0  0  0  0  0  0  0  0  0
    7.3872   -3.5043   23.5225 H   0  0  0  0  0  0  0  0  0  0  0  0
    6.7380   -2.0730   24.3237 H   0  0  0  0  0  0  0  0  0  0  0  0
  1  2  1  0
  2  3  1  0
  3  4  1  0
  4  5  1  0
  5  6  2  0
  6  7  1  0
  7  8  2  0
  8  9  1  0
  9 10  2  0
 10 11  1  0
 11 12  2  0
 12 13  1  0
 13 14  2  0
 13 15  1  0
 12 16  1  0
 11 17  1  0
 10 18  1  0
  8 19  1  0
  6 20  1  0
  4 21  1  0
 21 22  2  0
 21 23  1  0
 23 24  1  1
 24 25  1  0
 25 26  1  0
 26 27  1  0
 27 28  1  0
 28 29  1  0
 29 30  1  0
 30 31  1  0
 31 32  2  0
 31 33  2  0
 31 34  1  0
 34 35  1  0
 35 36  1  0
 35 37  1  0
 34 38  1  0
 34 39  1  0
 30 40  1  0
 30 41  1  0
 29 42  1  0
 29 43  1  0
 28 44  1  0
 27 45  1  0
 27 46  1  0
 26 47  1  0
 26 48  1  0
 25 49  1  0
 49 50  2  0
 49 51  1  0
 51 52  2  0
 52 53  1  0
 53 54  2  0
 54 55  1  0
 54 56  1  0
 56 57  2  0
 56 58  1  0
 53 59  1  0
 52 60  1  0
 24 61  1  0
 24 62  1  0
  3 63  1  0
  3 64  1  0
  2 65  1  6
  1 66  1  0
  1 67  1  0
  1 68  1  0
 23  2  1  0
 35 28  1  0
 57 51  1  0
 14  5  1  0
 57 23  1  0
 14  9  1  0
M  CHG  1  28   1
M  END
>  <cnnaffinities>  (42) 
[6.63545, 6.67645, 6.51958]

>  <score>  (42) 
6.63545

>  <index>  (42) 
41

>  <Smiles>  (42) 
C([C@]1(C(N(c2c(nc(c3c(c(c(c(c23)[H])[H])[H])[H])[H])[H])C(=O)[C@]21C(N(C(C([N+]1(C(C(S(=O)(=O)C(C1([H])[H])([H])[H])([H])[H])([H])[H])[H])([H])[H])([H])[H])C(=O)c1c(c(c(Cl)c(c21)[H])[H])[H])([H])[H])([H])[H])[H])([H])([H])[H]

>  <h>  (42) 
<NA>

>  <Training>  (42) 
True

>  <Success>  (42) 
True

>  <enamine_searched>  (42) 
False

>  <enamine_id>  (42) 
nan

$$$$

     RDKit          3D

 60 65  0  0  0  0  0  0  0  0999 V2000
    6.6901    1.5724   29.0666 C   0  0  0  0  0  0  0  0  0  0  0  0
    7.1493    0.4143   28.3219 N   0  0  0  0  0  0  0  0  0  0  0  0
    6.5126    0.1165   27.1556 C   0  0  0  0  0  0  0  0  0  0  0  0
    5.5384    0.7313   26.7508 O   0  0  0  0  0  0  0  0  0  0  0  0
    7.0990   -1.0695   26.3842 C   0  0  0  0  0  0  0  0  0  0  0  0
    7.9739   -0.6437   25.3043 N   0  0  0  0  0  0  0  0  0  0  0  0
    7.3804   -0.1553   24.0594 C   0  0  0  0  0  0  0  0  0  0  0  0
    8.2474   -0.4628   22.8049 C   0  0  2  0  0  0  0  0  0  0  0  0
    7.6422    0.3951   21.6727 C   0  0  0  0  0  0  0  0  0  0  0  0
    7.7586    1.5932   21.5150 O   0  0  0  0  0  0  0  0  0  0  0  0
    6.8559   -0.4267   20.8889 N   0  0  0  0  0  0  0  0  0  0  0  0
    6.0256    0.0373   19.8420 C   0  0  0  0  0  0  0  0  0  0  0  0
    6.4085   -0.1780   18.5453 C   0  0  0  0  0  0  0  0  0  0  0  0
    5.7361    0.2774   17.4656 N   0  0  0  0  0  0  0  0  0  0  0  0
    4.6476    0.9669   17.6846 C   0  0  0  0  0  0  0  0  0  0  0  0
    4.0783    1.1692   18.9685 C   0  0  0  0  0  0  0  0  0  0  0  0
    2.8538    1.8658   19.1321 C   0  0  0  0  0  0  0  0  0  0  0  0
    2.2806    1.9892   20.3690 C   0  0  0  0  0  0  0  0  0  0  0  0
    2.9124    1.4208   21.5022 C   0  0  0  0  0  0  0  0  0  0  0  0
    4.1249    0.7812   21.3704 C   0  0  0  0  0  0  0  0  0  0  0  0
    4.7572    0.6565   20.0949 C   0  0  0  0  0  0  0  0  0  0  0  0
    4.6264    0.3797   22.2476 H   0  0  0  0  0  0  0  0  0  0  0  0
    2.4502    1.5418   22.4813 H   0  0  0  0  0  0  0  0  0  0  0  0
    1.3533    2.5445   20.4835 H   0  0  0  0  0  0  0  0  0  0  0  0
    2.3903    2.2759   18.2386 H   0  0  0  0  0  0  0  0  0  0  0  0
    4.1484    1.3738   16.8091 H   0  0  0  0  0  0  0  0  0  0  0  0
    7.3415   -0.7001   18.3419 H   0  0  0  0  0  0  0  0  0  0  0  0
    6.8622   -1.8148   21.2746 C   0  0  0  0  0  0  0  0  0  0  0  0
    8.0552   -1.9165   22.2243 C   0  0  2  0  0  0  0  0  0  0  0  0
    7.8238   -3.0710   23.2003 C   0  0  0  0  0  0  0  0  0  0  0  0
    9.0245   -3.4426   24.0189 C   0  0  0  0  0  0  0  0  0  0  0  0
   10.2884   -3.3620   23.6201 N   0  0  0  0  0  0  0  0  0  0  0  0
   11.0115   -3.7855   24.6560 N   0  0  0  0  0  0  0  0  0  0  0  0
   10.2124   -4.1139   25.6327 N   0  0  0  0  0  2  0  0  0  0  0  0
    8.9540   -3.9099   25.2557 N   0  0  0  0  0  0  0  0  0  0  0  0
    7.0182   -2.8206   23.8937 H   0  0  0  0  0  0  0  0  0  0  0  0
    7.4958   -3.9501   22.6316 H   0  0  0  0  0  0  0  0  0  0  0  0
    8.9594   -2.1314   21.6400 H   0  0  0  0  0  0  0  0  0  0  0  0
    6.9557   -2.4478   20.3886 H   0  0  0  0  0  0  0  0  0  0  0  0
    5.9257   -2.1104   21.7788 H   0  0  0  0  0  0  0  0  0  0  0  0
    9.6966   -0.1154   23.1575 C   0  0  0  0  0  0  0  0  0  0  0  0
   10.6559    0.0968   22.1548 C   0  0  0  0  0  0  0  0  0  0  0  0
   11.9828    0.3384   22.4807 C   0  0  0  0  0  0  0  0  0  0  0  0
   13.1753    0.6144   21.2484 Cl  0  0  0  0  0  0  0  0  0  0  0  0
   12.4259    0.3597   23.7986 C   0  0  0  0  0  0  0  0  0  0  0  0
   11.4978    0.1326   24.7884 C   0  0  0  0  0  0  0  0  0  0  0  0
   10.1592   -0.0771   24.4825 C   0  0  0  0  0  0  0  0  0  0  0  0
    9.2533   -0.3139   25.6399 C   0  0  0  0  0  0  0  0  0  0  0  0
    9.6416   -0.2487   26.8052 O   0  0  0  0  0  0  0  0  0  0  0  0
   11.7814    0.1043   25.8309 H   0  0  0  0  0  0  0  0  0  0  0  0
   13.4675    0.5512   24.0311 H   0  0  0  0  0  0  0  0  0  0  0  0
   10.3672    0.0801   21.1125 H   0  0  0  0  0  0  0  0  0  0  0  0
    6.3836   -0.5999   23.9545 H   0  0  0  0  0  0  0  0  0  0  0  0
    7.2335    0.9354   24.0942 H   0  0  0  0  0  0  0  0  0  0  0  0
    7.6723   -1.7257   27.0425 H   0  0  0  0  0  0  0  0  0  0  0  0
    6.2842   -1.6513   25.9457 H   0  0  0  0  0  0  0  0  0  0  0  0
    8.1205    0.1349   28.3898 H   0  0  0  0  0  0  0  0  0  0  0  0
    7.3057    1.6887   29.9612 H   0  0  0  0  0  0  0  0  0  0  0  0
    5.6486    1.4184   29.3712 H   0  0  0  0  0  0  0  0  0  0  0  0
    6.7455    2.4877   28.4609 H   0  0  0  0  0  0  0  0  0  0  0  0
  1  2  1  0
  2  3  1  0
  3  4  2  0
  3  5  1  0
  5  6  1  0
  6  7  1  0
  8  7  1  1
  8  9  1  0
  9 10  2  0
  9 11  1  0
 11 12  1  0
 12 13  2  0
 13 14  1  0
 14 15  2  0
 15 16  1  0
 16 17  2  0
 17 18  1  0
 18 19  2  0
 19 20  1  0
 20 21  2  0
 20 22  1  0
 19 23  1  0
 18 24  1  0
 17 25  1  0
 15 26  1  0
 13 27  1  0
 11 28  1  0
 28 29  1  0
 29 30  1  0
 30 31  1  0
 31 32  1  0
 32 33  2  0
 33 34  1  0
 34 35  1  0
 30 36  1  0
 30 37  1  0
 29 38  1  6
 28 39  1  0
 28 40  1  0
  8 41  1  0
 41 42  2  0
 42 43  1  0
 43 44  1  0
 43 45  2  0
 45 46  1  0
 46 47  2  0
 47 48  1  0
 48 49  2  0
 46 50  1  0
 45 51  1  0
 42 52  1  0
  7 53  1  0
  7 54  1  0
  5 55  1  0
  5 56  1  0
  2 57  1  0
  1 58  1  0
  1 59  1  0
  1 60  1  0
 48  6  1  0
 29  8  1  0
 35 31  2  0
 47 41  1  0
 21 12  1  0
 21 16  1  0
M  CHG  1  34  -1
M  END
>  <cnnaffinities>  (43) 
[6.54194, 6.83982, 6.83316, 7.38093, 6.75103, 6.91982]

>  <score>  (43) 
6.54194

>  <index>  (43) 
42

>  <Smiles>  (43) 
C(N(C(=O)C(N1C([C@@]2(C(=O)N(c3c(nc(c4c(c(c(c(c34)[H])[H])[H])[H])[H])[H])C([C@@]2(C(c2nn[n-]n2)([H])[H])[H])([H])[H])c2c(c(Cl)c(c(c2C1=O)[H])[H])[H])([H])[H])([H])[H])[H])([H])([H])[H]

>  <h>  (43) 
<NA>

>  <Training>  (43) 
True

>  <Success>  (43) 
True

>  <enamine_searched>  (43) 
False

>  <enamine_id>  (43) 
nan

$$$$

     RDKit          3D

 62 67  0  0  0  0  0  0  0  0999 V2000
   10.7552    5.4412   24.8634 C   0  0  0  0  0  0  0  0  0  0  0  0
    9.2635    5.3019   25.1722 C   0  0  0  0  0  0  0  0  0  0  0  0
    8.4563    4.7322   24.0948 N   0  0  0  0  0  0  0  0  0  0  0  0
    7.8360    5.5808   23.2612 N   0  0  0  0  0  0  0  0  0  0  0  0
    7.2941    4.8158   22.3271 C   0  0  0  0  0  0  0  0  0  0  0  0
    7.5698    3.4546   22.5379 C   0  0  0  0  0  0  0  0  0  0  0  0
    8.3057    3.4322   23.7048 C   0  0  0  0  0  0  0  0  0  0  0  0
    8.7900    2.2847   24.5391 C   0  0  0  0  0  0  0  0  0  0  0  0
    9.2297    1.1614   23.7347 N   0  0  0  0  0  0  0  0  0  0  0  0
    8.4229   -0.0460   23.6290 C   0  0  0  0  0  0  0  0  0  0  0  0
    8.6674   -0.8099   22.2964 C   0  0  2  0  0  0  0  0  0  0  0  0
    8.0639   -0.0178   21.1089 C   0  0  0  0  0  0  0  0  0  0  0  0
    8.5845    0.8898   20.4910 O   0  0  0  0  0  0  0  0  0  0  0  0
    6.7923   -0.4983   20.8749 N   0  0  0  0  0  0  0  0  0  0  0  0
    5.9962   -0.0124   19.8185 C   0  0  0  0  0  0  0  0  0  0  0  0
    6.4210   -0.1440   18.5188 C   0  0  0  0  0  0  0  0  0  0  0  0
    5.7402    0.3189   17.4467 N   0  0  0  0  0  0  0  0  0  0  0  0
    4.6186    0.9533   17.6730 C   0  0  0  0  0  0  0  0  0  0  0  0
    4.0509    1.1345   18.9628 C   0  0  0  0  0  0  0  0  0  0  0  0
    2.8309    1.8329   19.1476 C   0  0  0  0  0  0  0  0  0  0  0  0
    2.2773    1.9514   20.3929 C   0  0  0  0  0  0  0  0  0  0  0  0
    2.9259    1.3811   21.5106 C   0  0  0  0  0  0  0  0  0  0  0  0
    4.1333    0.7408   21.3632 C   0  0  0  0  0  0  0  0  0  0  0  0
    4.7372    0.6147   20.0807 C   0  0  0  0  0  0  0  0  0  0  0  0
    4.6292    0.3248   22.2313 H   0  0  0  0  0  0  0  0  0  0  0  0
    2.4777    1.4703   22.4929 H   0  0  0  0  0  0  0  0  0  0  0  0
    1.3437    2.4887   20.5252 H   0  0  0  0  0  0  0  0  0  0  0  0
    2.3374    2.2270   18.2655 H   0  0  0  0  0  0  0  0  0  0  0  0
    4.1061    1.3734   16.8101 H   0  0  0  0  0  0  0  0  0  0  0  0
    7.3744   -0.6156   18.3000 H   0  0  0  0  0  0  0  0  0  0  0  0
    6.4454   -1.6555   21.6721 C   0  0  0  0  0  0  0  0  0  0  0  0
    7.8007   -2.1066   22.2341 C   0  0  2  0  0  0  0  0  0  0  0  0
    7.6193   -2.8847   23.5285 C   0  0  0  0  0  0  0  0  0  0  0  0
    7.0647   -2.2808   24.2583 H   0  0  0  0  0  0  0  0  0  0  0  0
    7.0338   -3.7919   23.3411 H   0  0  0  0  0  0  0  0  0  0  0  0
    8.5752   -3.1699   23.9784 H   0  0  0  0  0  0  0  0  0  0  0  0
    8.2401   -2.7575   21.4724 H   0  0  0  0  0  0  0  0  0  0  0  0
    5.9639   -2.4244   21.0577 H   0  0  0  0  0  0  0  0  0  0  0  0
    5.7521   -1.4140   22.4911 H   0  0  0  0  0  0  0  0  0  0  0  0
   10.1700   -0.9802   22.1348 C   0  0  0  0  0  0  0  0  0  0  0  0
   10.7377   -2.0267   21.4007 C   0  0  0  0  0  0  0  0  0  0  0  0
   12.1020   -2.0585   21.1834 C   0  0  0  0  0  0  0  0  0  0  0  0
   12.6002   -3.0201   20.3905 F   0  0  0  0  0  0  0  0  0  0  0  0
   12.9749   -1.1341   21.7429 C   0  0  0  0  0  0  0  0  0  0  0  0
   12.4276   -0.1031   22.4703 C   0  0  0  0  0  0  0  0  0  0  0  0
   11.0485   -0.0095   22.6406 C   0  0  0  0  0  0  0  0  0  0  0  0
   10.5514    1.1684   23.3977 C   0  0  0  0  0  0  0  0  0  0  0  0
   11.3043    2.0804   23.7303 O   0  0  0  0  0  0  0  0  0  0  0  0
   13.0515    0.6595   22.9215 H   0  0  0  0  0  0  0  0  0  0  0  0
   14.0441   -1.2294   21.6228 H   0  0  0  0  0  0  0  0  0  0  0  0
   10.1482   -2.8320   20.9815 H   0  0  0  0  0  0  0  0  0  0  0  0
    8.6647   -0.7220   24.4628 H   0  0  0  0  0  0  0  0  0  0  0  0
    7.3685    0.2376   23.7130 H   0  0  0  0  0  0  0  0  0  0  0  0
    9.6490    2.6184   25.1301 H   0  0  0  0  0  0  0  0  0  0  0  0
    8.0067    1.9558   25.2344 H   0  0  0  0  0  0  0  0  0  0  0  0
    7.3093    2.6331   21.8807 H   0  0  0  0  0  0  0  0  0  0  0  0
    6.6992    5.2739   21.5506 H   0  0  0  0  0  0  0  0  0  0  0  0
    8.8360    6.2940   25.3341 H   0  0  0  0  0  0  0  0  0  0  0  0
    9.1060    4.7124   26.0822 H   0  0  0  0  0  0  0  0  0  0  0  0
   11.2410    4.4742   24.6862 H   0  0  0  0  0  0  0  0  0  0  0  0
   10.9046    6.0854   23.9910 H   0  0  0  0  0  0  0  0  0  0  0  0
   11.2454    5.9212   25.7178 H   0  0  0  0  0  0  0  0  0  0  0  0
  1  2  1  0
  2  3  1  0
  3  4  1  0
  4  5  2  0
  5  6  1  0
  6  7  2  0
  7  8  1  0
  8  9  1  0
  9 10  1  0
 11 10  1  1
 11 12  1  0
 12 13  2  0
 12 14  1  0
 14 15  1  0
 15 16  2  0
 16 17  1  0
 17 18  2  0
 18 19  1  0
 19 20  2  0
 20 21  1  0
 21 22  2  0
 22 23  1  0
 23 24  2  0
 23 25  1  0
 22 26  1  0
 21 27  1  0
 20 28  1  0
 18 29  1  0
 16 30  1  0
 14 31  1  0
 31 32  1  0
 32 33  1  0
 33 34  1  0
 33 35  1  0
 33 36  1  0
 32 37  1  6
 31 38  1  0
 31 39  1  0
 11 40  1  0
 40 41  2  0
 41 42  1  0
 42 43  1  0
 42 44  2  0
 44 45  1  0
 45 46  2  0
 46 47  1  0
 47 48  2  0
 45 49  1  0
 44 50  1  0
 41 51  1  0
 10 52  1  0
 10 53  1  0
  8 54  1  0
  8 55  1  0
  6 56  1  0
  5 57  1  0
  2 58  1  0
  2 59  1  0
  1 60  1  0
  1 61  1  0
  1 62  1  0
  7  3  1  0
 47  9  1  0
 32 11  1  0
 46 40  1  0
 24 15  1  0
 24 19  1  0
M  END
>  <cnnaffinities>  (44) 
[6.91216]

>  <score>  (44) 
6.91216

>  <index>  (44) 
43

>  <Smiles>  (44) 
C(C(n1nc(c(c1C(N1C([C@@]2(C(=O)N(c3c(nc(c4c(c(c(c(c34)[H])[H])[H])[H])[H])[H])C([C@@]2(C([H])([H])[H])[H])([H])[H])c2c(c(F)c(c(c2C1=O)[H])[H])[H])([H])[H])([H])[H])[H])[H])([H])[H])([H])([H])[H]

>  <h>  (44) 
<NA>

>  <Training>  (44) 
True

>  <Success>  (44) 
True

>  <enamine_searched>  (44) 
False

>  <enamine_id>  (44) 
nan

$$$$

     RDKit          3D

 56 60  0  0  0  0  0  0  0  0999 V2000
    7.8079   -8.4490   23.1631 C   0  0  0  0  0  0  0  0  0  0  0  0
    6.8503   -7.4496   22.7417 N   0  0  0  0  0  0  0  0  0  0  0  0
    7.1648   -6.6129   21.7196 C   0  0  0  0  0  0  0  0  0  0  0  0
    8.0789   -6.8237   20.9468 O   0  0  0  0  0  0  0  0  0  0  0  0
    6.2865   -5.3594   21.6469 C   0  0  0  0  0  0  0  0  0  0  0  0
    6.7212   -4.3722   22.6186 N   0  0  0  0  0  0  0  0  0  0  0  0
    7.8004   -3.4524   22.3050 C   0  0  0  0  0  0  0  0  0  0  0  0
    7.4027   -2.0050   22.6814 C   0  0  2  0  0  0  0  0  0  0  0  0
    6.2751   -1.5877   21.7150 C   0  0  0  0  0  0  0  0  0  0  0  0
    5.1778   -2.0985   21.6351 O   0  0  0  0  0  0  0  0  0  0  0  0
    6.7327   -0.5631   20.9098 N   0  0  0  0  0  0  0  0  0  0  0  0
    5.9554   -0.0316   19.8696 C   0  0  0  0  0  0  0  0  0  0  0  0
    6.4084   -0.1083   18.5730 C   0  0  0  0  0  0  0  0  0  0  0  0
    5.7480    0.3682   17.4974 N   0  0  0  0  0  0  0  0  0  0  0  0
    4.6110    0.9740   17.7118 C   0  0  0  0  0  0  0  0  0  0  0  0
    4.0312    1.1372   18.9980 C   0  0  0  0  0  0  0  0  0  0  0  0
    2.7663    1.7659   19.1447 C   0  0  0  0  0  0  0  0  0  0  0  0
    2.1833    1.8613   20.3781 C   0  0  0  0  0  0  0  0  0  0  0  0
    2.8237    1.3012   21.5067 C   0  0  0  0  0  0  0  0  0  0  0  0
    4.0420    0.6832   21.3896 C   0  0  0  0  0  0  0  0  0  0  0  0
    4.6891    0.5891   20.1195 C   0  0  0  0  0  0  0  0  0  0  0  0
    4.4906    0.2386   22.2687 H   0  0  0  0  0  0  0  0  0  0  0  0
    2.3456    1.3725   22.4807 H   0  0  0  0  0  0  0  0  0  0  0  0
    1.2269    2.3638   20.4947 H   0  0  0  0  0  0  0  0  0  0  0  0
    2.2813    2.1632   18.2575 H   0  0  0  0  0  0  0  0  0  0  0  0
    4.0946    1.3831   16.8444 H   0  0  0  0  0  0  0  0  0  0  0  0
    7.3515   -0.5987   18.3555 H   0  0  0  0  0  0  0  0  0  0  0  0
    8.1813   -0.4425   20.9594 C   0  0  0  0  0  0  0  0  0  0  0  0
    8.5201   -0.9732   22.3578 C   0  0  2  0  0  0  0  0  0  0  0  0
    9.9630   -1.4561   22.4149 C   0  0  0  0  0  0  0  0  0  0  0  0
   10.4463   -1.9739   24.0631 Cl  0  0  0  0  0  0  0  0  0  0  0  0
   10.1132   -2.3123   21.7508 H   0  0  0  0  0  0  0  0  0  0  0  0
   10.6550   -0.6643   22.1158 H   0  0  0  0  0  0  0  0  0  0  0  0
    8.4260   -0.1373   23.0492 H   0  0  0  0  0  0  0  0  0  0  0  0
    8.4765    0.5989   20.8299 H   0  0  0  0  0  0  0  0  0  0  0  0
    8.6711   -1.0429   20.1783 H   0  0  0  0  0  0  0  0  0  0  0  0
    6.9107   -2.0072   24.1178 C   0  0  0  0  0  0  0  0  0  0  0  0
    6.8675   -0.8263   24.8724 C   0  0  0  0  0  0  0  0  0  0  0  0
    6.4088   -0.8500   26.1769 C   0  0  0  0  0  0  0  0  0  0  0  0
    6.3971    0.6315   27.0925 Cl  0  0  0  0  0  0  0  0  0  0  0  0
    5.9676   -2.0316   26.7722 C   0  0  0  0  0  0  0  0  0  0  0  0
    5.9467   -3.1862   26.0143 C   0  0  0  0  0  0  0  0  0  0  0  0
    6.3823   -3.1752   24.6896 C   0  0  0  0  0  0  0  0  0  0  0  0
    6.1981   -4.4179   23.8721 C   0  0  0  0  0  0  0  0  0  0  0  0
    5.5803   -5.3965   24.2893 O   0  0  0  0  0  0  0  0  0  0  0  0
    5.5824   -4.1209   26.4247 H   0  0  0  0  0  0  0  0  0  0  0  0
    5.6259   -2.0310   27.8017 H   0  0  0  0  0  0  0  0  0  0  0  0
    7.1751    0.1264   24.4548 H   0  0  0  0  0  0  0  0  0  0  0  0
    8.7185   -3.7397   22.8357 H   0  0  0  0  0  0  0  0  0  0  0  0
    7.9921   -3.4970   21.2361 H   0  0  0  0  0  0  0  0  0  0  0  0
    5.2473   -5.6156   21.8684 H   0  0  0  0  0  0  0  0  0  0  0  0
    6.3233   -4.9169   20.6464 H   0  0  0  0  0  0  0  0  0  0  0  0
    6.1846   -7.0975   23.4151 H   0  0  0  0  0  0  0  0  0  0  0  0
    8.7082   -8.0019   23.6009 H   0  0  0  0  0  0  0  0  0  0  0  0
    7.3336   -9.0740   23.9198 H   0  0  0  0  0  0  0  0  0  0  0  0
    8.1138   -9.0558   22.3095 H   0  0  0  0  0  0  0  0  0  0  0  0
  1  2  1  0
  2  3  1  0
  3  4  2  0
  3  5  1  0
  5  6  1  0
  6  7  1  0
  8  7  1  6
  8  9  1  0
  9 10  2  0
  9 11  1  0
 11 12  1  0
 12 13  2  0
 13 14  1  0
 14 15  2  0
 15 16  1  0
 16 17  2  0
 17 18  1  0
 18 19  2  0
 19 20  1  0
 20 21  2  0
 20 22  1  0
 19 23  1  0
 18 24  1  0
 17 25  1  0
 15 26  1  0
 13 27  1  0
 11 28  1  0
 28 29  1  0
 29 30  1  0
 30 31  1  0
 30 32  1  0
 30 33  1  0
 29 34  1  1
 28 35  1  0
 28 36  1  0
  8 37  1  0
 37 38  2  0
 38 39  1  0
 39 40  1  0
 39 41  2  0
 41 42  1  0
 42 43  2  0
 43 44  1  0
 44 45  2  0
 42 46  1  0
 41 47  1  0
 38 48  1  0
  7 49  1  0
  7 50  1  0
  5 51  1  0
  5 52  1  0
  2 53  1  0
  1 54  1  0
  1 55  1  0
  1 56  1  0
 44  6  1  0
 29  8  1  0
 43 37  1  0
 21 12  1  0
 21 16  1  0
M  END
>  <cnnaffinities>  (45) 
[6.86431, 6.50534]

>  <score>  (45) 
6.86431

>  <index>  (45) 
44

>  <Smiles>  (45) 
C(N(C(=O)C(N1C([C@@]2(C(=O)N(c3c(nc(c4c(c(c(c(c34)[H])[H])[H])[H])[H])[H])C([C@@]2(C(Cl)([H])[H])[H])([H])[H])c2c(c(Cl)c(c(c2C1=O)[H])[H])[H])([H])[H])([H])[H])[H])([H])([H])[H]

>  <h>  (45) 
<NA>

>  <Training>  (45) 
True

>  <Success>  (45) 
True

>  <enamine_searched>  (45) 
False

>  <enamine_id>  (45) 
nan

$$$$

     RDKit          3D

 60 64  0  0  0  0  0  0  0  0999 V2000
    7.8215   -8.4534   23.1704 C   0  0  0  0  0  0  0  0  0  0  0  0
    6.8596   -7.4513   22.7545 N   0  0  0  0  0  0  0  0  0  0  0  0
    7.1659   -6.6248   21.7190 C   0  0  0  0  0  0  0  0  0  0  0  0
    8.0752   -6.8397   20.9393 O   0  0  0  0  0  0  0  0  0  0  0  0
    6.2912   -5.3685   21.6511 C   0  0  0  0  0  0  0  0  0  0  0  0
    6.7328   -4.3865   22.6260 N   0  0  0  0  0  0  0  0  0  0  0  0
    7.8131   -3.4679   22.3079 C   0  0  0  0  0  0  0  0  0  0  0  0
    7.4180   -2.0178   22.6771 C   0  0  2  0  0  0  0  0  0  0  0  0
    6.2881   -1.6030   21.7156 C   0  0  0  0  0  0  0  0  0  0  0  0
    5.1925   -2.1248   21.6322 O   0  0  0  0  0  0  0  0  0  0  0  0
    6.7281   -0.5661   20.9181 N   0  0  0  0  0  0  0  0  0  0  0  0
    5.9520   -0.0320   19.8737 C   0  0  0  0  0  0  0  0  0  0  0  0
    6.4118   -0.1047   18.5782 C   0  0  0  0  0  0  0  0  0  0  0  0
    5.7575    0.3786   17.5000 N   0  0  0  0  0  0  0  0  0  0  0  0
    4.6105    0.9699   17.7101 C   0  0  0  0  0  0  0  0  0  0  0  0
    4.0257    1.1312   18.9956 C   0  0  0  0  0  0  0  0  0  0  0  0
    2.7641    1.7684   19.1425 C   0  0  0  0  0  0  0  0  0  0  0  0
    2.1748    1.8556   20.3722 C   0  0  0  0  0  0  0  0  0  0  0  0
    2.8242    1.3165   21.5064 C   0  0  0  0  0  0  0  0  0  0  0  0
    4.0376    0.6798   21.3924 C   0  0  0  0  0  0  0  0  0  0  0  0
    4.6858    0.5935   20.1219 C   0  0  0  0  0  0  0  0  0  0  0  0
    4.4831    0.2258   22.2717 H   0  0  0  0  0  0  0  0  0  0  0  0
    2.3388    1.3632   22.4750 H   0  0  0  0  0  0  0  0  0  0  0  0
    1.2176    2.3563   20.4951 H   0  0  0  0  0  0  0  0  0  0  0  0
    2.2743    2.1604   18.2555 H   0  0  0  0  0  0  0  0  0  0  0  0
    4.0953    1.3781   16.8413 H   0  0  0  0  0  0  0  0  0  0  0  0
    7.3564   -0.5988   18.3617 H   0  0  0  0  0  0  0  0  0  0  0  0
    8.1754   -0.4247   20.9670 C   0  0  0  0  0  0  0  0  0  0  0  0
    8.5348   -0.9888   22.3441 C   0  0  2  0  0  0  0  0  0  0  0  0
    9.9654   -1.4986   22.3971 C   0  0  0  0  0  0  0  0  0  0  0  0
   10.2221   -1.9796   23.6939 O   0  0  0  0  0  0  0  0  0  0  0  0
   11.4882   -2.5846   23.7947 C   0  0  0  0  0  0  0  0  0  0  0  0
   12.2921   -1.8725   23.5453 H   0  0  0  0  0  0  0  0  0  0  0  0
   11.6093   -2.9164   24.8298 H   0  0  0  0  0  0  0  0  0  0  0  0
   11.5797   -3.4570   23.1241 H   0  0  0  0  0  0  0  0  0  0  0  0
   10.6721   -0.6901   22.1383 H   0  0  0  0  0  0  0  0  0  0  0  0
   10.1040   -2.2993   21.6506 H   0  0  0  0  0  0  0  0  0  0  0  0
    8.4588   -0.1759   23.0637 H   0  0  0  0  0  0  0  0  0  0  0  0
    8.6651   -0.9954   20.1628 H   0  0  0  0  0  0  0  0  0  0  0  0
    8.4500    0.6257   20.8538 H   0  0  0  0  0  0  0  0  0  0  0  0
    6.9337   -2.0200   24.1182 C   0  0  0  0  0  0  0  0  0  0  0  0
    6.8916   -0.8374   24.8704 C   0  0  0  0  0  0  0  0  0  0  0  0
    6.4184   -0.8547   26.1699 C   0  0  0  0  0  0  0  0  0  0  0  0
    6.3886    0.6326   27.0797 Cl  0  0  0  0  0  0  0  0  0  0  0  0
    5.9682   -2.0344   26.7650 C   0  0  0  0  0  0  0  0  0  0  0  0
    5.9509   -3.1924   26.0121 C   0  0  0  0  0  0  0  0  0  0  0  0
    6.3985   -3.1854   24.6926 C   0  0  0  0  0  0  0  0  0  0  0  0
    6.2137   -4.4262   23.8794 C   0  0  0  0  0  0  0  0  0  0  0  0
    5.5883   -5.4077   24.2991 O   0  0  0  0  0  0  0  0  0  0  0  0
    5.5802   -4.1248   26.4245 H   0  0  0  0  0  0  0  0  0  0  0  0
    5.6149   -2.0259   27.7897 H   0  0  0  0  0  0  0  0  0  0  0  0
    7.2008    0.1138   24.4488 H   0  0  0  0  0  0  0  0  0  0  0  0
    8.7278   -3.7564   22.8419 H   0  0  0  0  0  0  0  0  0  0  0  0
    8.0091   -3.5177   21.2403 H   0  0  0  0  0  0  0  0  0  0  0  0
    5.2512   -5.6183   21.8780 H   0  0  0  0  0  0  0  0  0  0  0  0
    6.3309   -4.9262   20.6507 H   0  0  0  0  0  0  0  0  0  0  0  0
    6.2088   -7.0857   23.4397 H   0  0  0  0  0  0  0  0  0  0  0  0
    8.1095   -9.0666   22.3147 H   0  0  0  0  0  0  0  0  0  0  0  0
    7.3562   -9.0724   23.9388 H   0  0  0  0  0  0  0  0  0  0  0  0
    8.7277   -7.9988   23.5866 H   0  0  0  0  0  0  0  0  0  0  0  0
  1  2  1  0
  2  3  1  0
  3  4  2  0
  3  5  1  0
  5  6  1  0
  6  7  1  0
  8  7  1  6
  8  9  1  0
  9 10  2  0
  9 11  1  0
 11 12  1  0
 12 13  2  0
 13 14  1  0
 14 15  2  0
 15 16  1  0
 16 17  2  0
 17 18  1  0
 18 19  2  0
 19 20  1  0
 20 21  2  0
 20 22  1  0
 19 23  1  0
 18 24  1  0
 17 25  1  0
 15 26  1  0
 13 27  1  0
 11 28  1  0
 28 29  1  0
 29 30  1  0
 30 31  1  0
 31 32  1  0
 32 33  1  0
 32 34  1  0
 32 35  1  0
 30 36  1  0
 30 37  1  0
 29 38  1  1
 28 39  1  0
 28 40  1  0
  8 41  1  0
 41 42  2  0
 42 43  1  0
 43 44  1  0
 43 45  2  0
 45 46  1  0
 46 47  2  0
 47 48  1  0
 48 49  2  0
 46 50  1  0
 45 51  1  0
 42 52  1  0
  7 53  1  0
  7 54  1  0
  5 55  1  0
  5 56  1  0
  2 57  1  0
  1 58  1  0
  1 59  1  0
  1 60  1  0
 48  6  1  0
 29  8  1  0
 47 41  1  0
 21 12  1  0
 21 16  1  0
M  END
>  <cnnaffinities>  (46) 
[6.81289, 6.87066]

>  <score>  (46) 
6.81289

>  <index>  (46) 
45

>  <Smiles>  (46) 
C(N(C(=O)C(N1C([C@@]2(C(=O)N(c3c(nc(c4c(c(c(c(c34)[H])[H])[H])[H])[H])[H])C([C@@]2(C(OC([H])([H])[H])([H])[H])[H])([H])[H])c2c(c(Cl)c(c(c2C1=O)[H])[H])[H])([H])[H])([H])[H])[H])([H])([H])[H]

>  <h>  (46) 
<NA>

>  <Training>  (46) 
True

>  <Success>  (46) 
True

>  <enamine_searched>  (46) 
False

>  <enamine_id>  (46) 
nan

$$$$

     RDKit          3D

 64 68  0  0  0  0  0  0  0  0999 V2000
   11.4548    0.7191   23.9519 C   0  0  0  0  0  0  0  0  0  0  0  0
   11.9752   -0.7122   23.9698 C   0  0  0  0  0  0  0  0  0  0  0  0
   10.6544   -1.9292   23.8598 S   0  0  0  0  0  0  0  0  0  0  0  0
   11.2433   -3.2455   23.6383 O   0  0  0  0  0  0  0  0  0  0  0  0
    9.7897   -1.7060   25.0048 O   0  0  0  0  0  0  0  0  0  0  0  0
    9.8995   -1.5132   22.4112 N   0  0  0  0  0  0  0  0  0  0  0  0
    8.5579   -0.9300   22.3922 C   0  0  1  0  0  0  0  0  0  0  0  0
    8.2336   -0.3620   21.0042 C   0  0  0  0  0  0  0  0  0  0  0  0
    6.7884   -0.5111   20.9027 N   0  0  0  0  0  0  0  0  0  0  0  0
    6.0011   -0.0171   19.8500 C   0  0  0  0  0  0  0  0  0  0  0  0
    6.4305   -0.1484   18.5513 C   0  0  0  0  0  0  0  0  0  0  0  0
    5.7671    0.3269   17.4749 N   0  0  0  0  0  0  0  0  0  0  0  0
    4.6482    0.9669   17.6999 C   0  0  0  0  0  0  0  0  0  0  0  0
    4.0731    1.1374   18.9885 C   0  0  0  0  0  0  0  0  0  0  0  0
    2.8503    1.8423   19.1517 C   0  0  0  0  0  0  0  0  0  0  0  0
    2.2856    1.9858   20.3885 C   0  0  0  0  0  0  0  0  0  0  0  0
    2.9253    1.4335   21.5225 C   0  0  0  0  0  0  0  0  0  0  0  0
    4.1326    0.7889   21.3963 C   0  0  0  0  0  0  0  0  0  0  0  0
    4.7475    0.6262   20.1144 C   0  0  0  0  0  0  0  0  0  0  0  0
    4.6067    0.3861   22.2823 H   0  0  0  0  0  0  0  0  0  0  0  0
    2.4681    1.5497   22.5016 H   0  0  0  0  0  0  0  0  0  0  0  0
    1.3544    2.5364   20.5035 H   0  0  0  0  0  0  0  0  0  0  0  0
    2.3777    2.2391   18.2576 H   0  0  0  0  0  0  0  0  0  0  0  0
    4.1358    1.3954   16.8405 H   0  0  0  0  0  0  0  0  0  0  0  0
    7.3745   -0.6465   18.3447 H   0  0  0  0  0  0  0  0  0  0  0  0
    6.3064   -1.5161   21.7078 C   0  0  0  0  0  0  0  0  0  0  0  0
    5.2229   -2.0521   21.5744 O   0  0  0  0  0  0  0  0  0  0  0  0
    7.3630   -1.8533   22.7682 C   0  0  1  0  0  0  0  0  0  0  0  0
    7.6813   -3.3583   22.6429 C   0  0  0  0  0  0  0  0  0  0  0  0
    6.5637   -4.1420   23.1404 N   0  0  0  0  0  0  0  0  0  0  0  0
    6.0493   -5.2269   22.3298 C   0  0  0  0  0  0  0  0  0  0  0  0
    6.9674   -6.4442   22.4239 C   0  0  0  0  0  0  0  0  0  0  0  0
    7.9031   -6.6426   21.6672 O   0  0  0  0  0  0  0  0  0  0  0  0
    6.6375   -7.2767   23.4459 N   0  0  0  0  0  0  0  0  0  0  0  0
    7.4164   -8.4750   23.6658 C   0  0  0  0  0  0  0  0  0  0  0  0
    8.3784   -8.2606   24.1503 H   0  0  0  0  0  0  0  0  0  0  0  0
    6.8377   -9.1697   24.2767 H   0  0  0  0  0  0  0  0  0  0  0  0
    7.6133   -8.9479   22.7006 H   0  0  0  0  0  0  0  0  0  0  0  0
    6.0681   -6.8918   24.1885 H   0  0  0  0  0  0  0  0  0  0  0  0
    5.0480   -5.4866   22.6871 H   0  0  0  0  0  0  0  0  0  0  0  0
    5.9635   -4.8764   21.2961 H   0  0  0  0  0  0  0  0  0  0  0  0
    6.0691   -3.9541   24.3978 C   0  0  0  0  0  0  0  0  0  0  0  0
    5.4654   -4.8387   25.0027 O   0  0  0  0  0  0  0  0  0  0  0  0
    6.2578   -2.5715   24.9487 C   0  0  0  0  0  0  0  0  0  0  0  0
    5.8002   -2.2894   26.2346 C   0  0  0  0  0  0  0  0  0  0  0  0
    5.8182   -0.9975   26.7239 C   0  0  0  0  0  0  0  0  0  0  0  0
    6.2771    0.0202   25.8897 C   0  0  0  0  0  0  0  0  0  0  0  0
    6.2794    1.6616   26.4677 Cl  0  0  0  0  0  0  0  0  0  0  0  0
    6.7498   -0.2437   24.6189 C   0  0  0  0  0  0  0  0  0  0  0  0
    6.8046   -1.5642   24.1486 C   0  0  0  0  0  0  0  0  0  0  0  0
    7.0567    0.5906   23.9973 H   0  0  0  0  0  0  0  0  0  0  0  0
    5.4704   -0.7684   27.7258 H   0  0  0  0  0  0  0  0  0  0  0  0
    5.4197   -3.1107   26.8281 H   0  0  0  0  0  0  0  0  0  0  0  0
    8.6072   -3.6038   23.1879 H   0  0  0  0  0  0  0  0  0  0  0  0
    7.8332   -3.6197   21.5925 H   0  0  0  0  0  0  0  0  0  0  0  0
    8.7610   -0.9410   20.2326 H   0  0  0  0  0  0  0  0  0  0  0  0
    8.5313    0.6861   20.9219 H   0  0  0  0  0  0  0  0  0  0  0  0
    8.5888   -0.1120   23.1086 H   0  0  0  0  0  0  0  0  0  0  0  0
   10.0238   -2.2623   21.7325 H   0  0  0  0  0  0  0  0  0  0  0  0
   12.6626   -0.9191   23.1431 H   0  0  0  0  0  0  0  0  0  0  0  0
   12.4765   -0.9460   24.9160 H   0  0  0  0  0  0  0  0  0  0  0  0
   11.0101    0.9654   22.9803 H   0  0  0  0  0  0  0  0  0  0  0  0
   12.2841    1.4116   24.1258 H   0  0  0  0  0  0  0  0  0  0  0  0
   10.7115    0.8737   24.7411 H   0  0  0  0  0  0  0  0  0  0  0  0
  1  2  1  0
  2  3  1  0
  3  4  2  0
  3  5  2  0
  3  6  1  0
  6  7  1  0
  7  8  1  0
  8  9  1  0
  9 10  1  0
 10 11  2  0
 11 12  1  0
 12 13  2  0
 13 14  1  0
 14 15  2  0
 15 16  1  0
 16 17  2  0
 17 18  1  0
 18 19  2  0
 18 20  1  0
 17 21  1  0
 16 22  1  0
 15 23  1  0
 13 24  1  0
 11 25  1  0
  9 26  1  0
 26 27  2  0
 26 28  1  0
 28 29  1  1
 29 30  1  0
 30 31  1  0
 31 32  1  0
 32 33  2  0
 32 34  1  0
 34 35  1  0
 35 36  1  0
 35 37  1  0
 35 38  1  0
 34 39  1  0
 31 40  1  0
 31 41  1  0
 30 42  1  0
 42 43  2  0
 42 44  1  0
 44 45  2  0
 45 46  1  0
 46 47  2  0
 47 48  1  0
 47 49  1  0
 49 50  2  0
 49 51  1  0
 46 52  1  0
 45 53  1  0
 29 54  1  0
 29 55  1  0
  8 56  1  0
  8 57  1  0
  7 58  1  1
  6 59  1  0
  2 60  1  0
  2 61  1  0
  1 62  1  0
  1 63  1  0
  1 64  1  0
 28  7  1  0
 50 44  1  0
 19 10  1  0
 50 28  1  0
 19 14  1  0
M  END
>  <cnnaffinities>  (47) 
[7.03966]

>  <score>  (47) 
7.03966

>  <index>  (47) 
46

>  <Smiles>  (47) 
C(C(S(=O)(=O)N([C@]1(C(N(c2c(nc(c3c(c(c(c(c23)[H])[H])[H])[H])[H])[H])C(=O)[C@]21C(N(C(C(=O)N(C([H])([H])[H])[H])([H])[H])C(=O)c1c(c(c(Cl)c(c21)[H])[H])[H])([H])[H])([H])[H])[H])[H])([H])[H])([H])([H])[H]

>  <h>  (47) 
<NA>

>  <Training>  (47) 
True

>  <Success>  (47) 
True

>  <enamine_searched>  (47) 
False

>  <enamine_id>  (47) 
nan

$$$$

     RDKit          3D

 56 60  0  0  0  0  0  0  0  0999 V2000
    7.7730   -8.5623   23.0525 C   0  0  0  0  0  0  0  0  0  0  0  0
    6.8470   -7.4933   22.7382 N   0  0  0  0  0  0  0  0  0  0  0  0
    7.1410   -6.5966   21.7590 C   0  0  0  0  0  0  0  0  0  0  0  0
    8.0384   -6.7571   20.9492 O   0  0  0  0  0  0  0  0  0  0  0  0
    6.2377   -5.3591   21.7876 C   0  0  0  0  0  0  0  0  0  0  0  0
    6.7264   -4.3716   22.7373 N   0  0  0  0  0  0  0  0  0  0  0  0
    7.7807   -3.4488   22.3503 C   0  0  0  0  0  0  0  0  0  0  0  0
    7.3936   -1.9844   22.6798 C   0  0  2  0  0  0  0  0  0  0  0  0
    6.2741   -1.5810   21.7057 C   0  0  0  0  0  0  0  0  0  0  0  0
    5.1781   -2.1000   21.6162 O   0  0  0  0  0  0  0  0  0  0  0  0
    6.7310   -0.5558   20.9059 N   0  0  0  0  0  0  0  0  0  0  0  0
    5.9471   -0.0470   19.8590 C   0  0  0  0  0  0  0  0  0  0  0  0
    6.3996   -0.1398   18.5654 C   0  0  0  0  0  0  0  0  0  0  0  0
    5.7490    0.3457   17.4854 N   0  0  0  0  0  0  0  0  0  0  0  0
    4.6157    0.9618   17.7077 C   0  0  0  0  0  0  0  0  0  0  0  0
    4.0258    1.1131   18.9941 C   0  0  0  0  0  0  0  0  0  0  0  0
    2.7869    1.7886   19.1501 C   0  0  0  0  0  0  0  0  0  0  0  0
    2.1972    1.8930   20.3794 C   0  0  0  0  0  0  0  0  0  0  0  0
    2.8304    1.3302   21.5123 C   0  0  0  0  0  0  0  0  0  0  0  0
    4.0474    0.7053   21.3945 C   0  0  0  0  0  0  0  0  0  0  0  0
    4.6880    0.5861   20.1216 C   0  0  0  0  0  0  0  0  0  0  0  0
    4.4932    0.2587   22.2755 H   0  0  0  0  0  0  0  0  0  0  0  0
    2.3430    1.3948   22.4806 H   0  0  0  0  0  0  0  0  0  0  0  0
    1.2453    2.4041   20.4903 H   0  0  0  0  0  0  0  0  0  0  0  0
    2.3046    2.1679   18.2555 H   0  0  0  0  0  0  0  0  0  0  0  0
    4.1121    1.4009   16.8481 H   0  0  0  0  0  0  0  0  0  0  0  0
    7.3613   -0.6046   18.3594 H   0  0  0  0  0  0  0  0  0  0  0  0
    8.1824   -0.4261   20.9532 C   0  0  0  0  0  0  0  0  0  0  0  0
    8.5354   -0.9825   22.3372 C   0  0  2  0  0  0  0  0  0  0  0  0
    9.9526   -1.5365   22.4163 C   0  0  0  0  0  0  0  0  0  0  0  0
   10.1065   -2.3276   21.6724 H   0  0  0  0  0  0  0  0  0  0  0  0
   10.1519   -1.9599   23.4073 H   0  0  0  0  0  0  0  0  0  0  0  0
   10.6896   -0.7490   22.2282 H   0  0  0  0  0  0  0  0  0  0  0  0
    8.4732   -0.1438   23.0329 H   0  0  0  0  0  0  0  0  0  0  0  0
    8.6706   -1.0112   20.1589 H   0  0  0  0  0  0  0  0  0  0  0  0
    8.4856    0.6188   20.8450 H   0  0  0  0  0  0  0  0  0  0  0  0
    6.8921   -1.9196   24.1096 C   0  0  0  0  0  0  0  0  0  0  0  0
    6.8581   -0.7043   24.8070 C   0  0  0  0  0  0  0  0  0  0  0  0
    6.3818   -0.6731   26.1008 C   0  0  0  0  0  0  0  0  0  0  0  0
    6.3733    0.4982   26.7606 F   0  0  0  0  0  0  0  0  0  0  0  0
    5.9219   -1.8099   26.7552 C   0  0  0  0  0  0  0  0  0  0  0  0
    5.9141   -2.9987   26.0544 C   0  0  0  0  0  0  0  0  0  0  0  0
    6.3642   -3.0570   24.7367 C   0  0  0  0  0  0  0  0  0  0  0  0
    6.1976   -4.3476   23.9917 C   0  0  0  0  0  0  0  0  0  0  0  0
    5.5839   -5.3081   24.4580 O   0  0  0  0  0  0  0  0  0  0  0  0
    5.5485   -3.9126   26.5054 H   0  0  0  0  0  0  0  0  0  0  0  0
    5.5778   -1.7433   27.7814 H   0  0  0  0  0  0  0  0  0  0  0  0
    7.1963    0.2268   24.3655 H   0  0  0  0  0  0  0  0  0  0  0  0
    8.7284   -3.6969   22.8490 H   0  0  0  0  0  0  0  0  0  0  0  0
    7.9324   -3.5506   21.2784 H   0  0  0  0  0  0  0  0  0  0  0  0
    5.2290   -5.6604   22.0879 H   0  0  0  0  0  0  0  0  0  0  0  0
    6.1708   -4.8969   20.7975 H   0  0  0  0  0  0  0  0  0  0  0  0
    6.2064   -7.1858   23.4592 H   0  0  0  0  0  0  0  0  0  0  0  0
    8.7294   -8.1706   23.4230 H   0  0  0  0  0  0  0  0  0  0  0  0
    7.3168   -9.1974   23.8138 H   0  0  0  0  0  0  0  0  0  0  0  0
    7.9730   -9.1731   22.1698 H   0  0  0  0  0  0  0  0  0  0  0  0
  1  2  1  0
  2  3  1  0
  3  4  2  0
  3  5  1  0
  5  6  1  0
  6  7  1  0
  8  7  1  6
  8  9  1  0
  9 10  2  0
  9 11  1  0
 11 12  1  0
 12 13  2  0
 13 14  1  0
 14 15  2  0
 15 16  1  0
 16 17  2  0
 17 18  1  0
 18 19  2  0
 19 20  1  0
 20 21  2  0
 20 22  1  0
 19 23  1  0
 18 24  1  0
 17 25  1  0
 15 26  1  0
 13 27  1  0
 11 28  1  0
 28 29  1  0
 29 30  1  0
 30 31  1  0
 30 32  1  0
 30 33  1  0
 29 34  1  1
 28 35  1  0
 28 36  1  0
  8 37  1  0
 37 38  2  0
 38 39  1  0
 39 40  1  0
 39 41  2  0
 41 42  1  0
 42 43  2  0
 43 44  1  0
 44 45  2  0
 42 46  1  0
 41 47  1  0
 38 48  1  0
  7 49  1  0
  7 50  1  0
  5 51  1  0
  5 52  1  0
  2 53  1  0
  1 54  1  0
  1 55  1  0
  1 56  1  0
 44  6  1  0
 29  8  1  0
 43 37  1  0
 21 12  1  0
 21 16  1  0
M  END
>  <cnnaffinities>  (48) 
[6.63217]

>  <score>  (48) 
6.63217

>  <index>  (48) 
47

>  <Smiles>  (48) 
C(N(C(=O)C(N1C([C@@]2(C(=O)N(c3c(nc(c4c(c(c(c(c34)[H])[H])[H])[H])[H])[H])C([C@@]2(C([H])([H])[H])[H])([H])[H])c2c(c(F)c(c(c2C1=O)[H])[H])[H])([H])[H])([H])[H])[H])([H])([H])[H]

>  <h>  (48) 
<NA>

>  <Training>  (48) 
True

>  <Success>  (48) 
True

>  <enamine_searched>  (48) 
False

>  <enamine_id>  (48) 
nan

$$$$

     RDKit          3D

 41 43  0  0  0  0  0  0  0  0999 V2000
   12.3457   -1.3761   22.0926 C   0  0  0  0  0  0  0  0  0  0  0  0
   11.0292   -0.6378   22.2833 C   0  0  1  0  0  0  0  0  0  0  0  0
    9.8900   -1.6015   22.6469 C   0  0  0  0  0  0  0  0  0  0  0  0
    8.6420   -0.9344   23.2635 C   0  0  0  0  0  0  0  0  0  0  0  0
    8.3297    0.4042   22.7619 N   0  0  0  0  0  0  0  0  0  0  0  0
    7.8436    0.6196   21.4862 C   0  0  0  0  0  0  0  0  0  0  0  0
    8.1360    1.6039   20.8304 O   0  0  0  0  0  0  0  0  0  0  0  0
    6.9067   -0.4813   20.9665 C   0  0  0  0  0  0  0  0  0  0  0  0
    5.9858   -0.0427   19.8627 C   0  0  0  0  0  0  0  0  0  0  0  0
    6.4017   -0.1531   18.5614 C   0  0  0  0  0  0  0  0  0  0  0  0
    5.7465    0.3274   17.4747 N   0  0  0  0  0  0  0  0  0  0  0  0
    4.6206    0.9554   17.6937 C   0  0  0  0  0  0  0  0  0  0  0  0
    4.0351    1.1137   18.9774 C   0  0  0  0  0  0  0  0  0  0  0  0
    2.8066    1.8045   19.1519 C   0  0  0  0  0  0  0  0  0  0  0  0
    2.2297    1.8963   20.3883 C   0  0  0  0  0  0  0  0  0  0  0  0
    2.8666    1.3052   21.5023 C   0  0  0  0  0  0  0  0  0  0  0  0
    4.0774    0.6679   21.3666 C   0  0  0  0  0  0  0  0  0  0  0  0
    4.7133    0.5715   20.0985 C   0  0  0  0  0  0  0  0  0  0  0  0
    4.5646    0.2397   22.2363 H   0  0  0  0  0  0  0  0  0  0  0  0
    2.3944    1.3787   22.4784 H   0  0  0  0  0  0  0  0  0  0  0  0
    1.2931    2.4347   20.5197 H   0  0  0  0  0  0  0  0  0  0  0  0
    2.3251    2.2274   18.2739 H   0  0  0  0  0  0  0  0  0  0  0  0
    4.1206    1.3934   16.8278 H   0  0  0  0  0  0  0  0  0  0  0  0
    7.3650   -0.6086   18.3410 H   0  0  0  0  0  0  0  0  0  0  0  0
    6.3498   -0.8878   21.8161 H   0  0  0  0  0  0  0  0  0  0  0  0
    7.5625   -1.2848   20.5981 H   0  0  0  0  0  0  0  0  0  0  0  0
    9.0448    1.4908   23.4220 C   0  0  0  0  0  0  0  0  0  0  0  0
   10.5433    1.5578   23.1113 C   0  0  0  0  0  0  0  0  0  0  0  0
   11.2320    0.3389   23.3036 O   0  0  0  0  0  0  0  0  0  0  0  0
   11.0112    2.2801   23.7930 H   0  0  0  0  0  0  0  0  0  0  0  0
   10.6850    1.9264   22.0835 H   0  0  0  0  0  0  0  0  0  0  0  0
    8.9112    1.3463   24.5025 H   0  0  0  0  0  0  0  0  0  0  0  0
    8.5804    2.4448   23.1499 H   0  0  0  0  0  0  0  0  0  0  0  0
    8.7959   -0.8297   24.3404 H   0  0  0  0  0  0  0  0  0  0  0  0
    7.7738   -1.5894   23.1349 H   0  0  0  0  0  0  0  0  0  0  0  0
   10.2654   -2.3383   23.3681 H   0  0  0  0  0  0  0  0  0  0  0  0
    9.6180   -2.1672   21.7456 H   0  0  0  0  0  0  0  0  0  0  0  0
   10.7713   -0.1216   21.3475 H   0  0  0  0  0  0  0  0  0  0  0  0
   13.1363   -0.6718   21.8154 H   0  0  0  0  0  0  0  0  0  0  0  0
   12.2628   -2.1301   21.3006 H   0  0  0  0  0  0  0  0  0  0  0  0
   12.6314   -1.8716   23.0264 H   0  0  0  0  0  0  0  0  0  0  0  0
  1  2  1  0
  2  3  1  0
  3  4  1  0
  4  5  1  0
  5  6  1  0
  6  7  2  0
  6  8  1  0
  8  9  1  0
  9 10  2  0
 10 11  1  0
 11 12  2  0
 12 13  1  0
 13 14  2  0
 14 15  1  0
 15 16  2  0
 16 17  1  0
 17 18  2  0
 17 19  1  0
 16 20  1  0
 15 21  1  0
 14 22  1  0
 12 23  1  0
 10 24  1  0
  8 25  1  0
  8 26  1  0
  5 27  1  0
 27 28  1  0
 28 29  1  0
 28 30  1  0
 28 31  1  0
 27 32  1  0
 27 33  1  0
  4 34  1  0
  4 35  1  0
  3 36  1  0
  3 37  1  0
  2 38  1  6
  1 39  1  0
  1 40  1  0
  1 41  1  0
 29  2  1  0
 18  9  1  0
 18 13  1  0
M  END
>  <cnnaffinities>  (49) 
[5.42518, 5.47144]

>  <score>  (49) 
5.42518

>  <index>  (49) 
48

>  <Smiles>  (49) 
C([C@]1(C(C(N(C(=O)C(c2c(nc(c3c(c(c(c(c23)[H])[H])[H])[H])[H])[H])([H])[H])C(C(O1)([H])[H])([H])[H])([H])[H])([H])[H])[H])([H])([H])[H]

>  <h>  (49) 
<NA>

>  <Training>  (49) 
True

>  <Success>  (49) 
True

>  <enamine_searched>  (49) 
False

>  <enamine_id>  (49) 
nan

$$$$

     RDKit          3D

 42 45  0  0  0  0  0  0  0  0999 V2000
   10.4494   -3.7881   23.4815 C   0  0  0  0  0  0  0  0  0  0  0  0
    9.5408   -2.6640   23.4702 N   0  0  0  0  0  0  0  0  0  0  0  0
    8.8449   -2.2441   22.2674 C   0  0  0  0  0  0  0  0  0  0  0  0
    8.8341   -0.7092   22.2224 C   0  0  1  0  0  0  0  0  0  0  0  0
    8.0420   -0.1365   21.0599 C   0  0  0  0  0  0  0  0  0  0  0  0
    8.4865    0.7539   20.3574 O   0  0  0  0  0  0  0  0  0  0  0  0
    6.7653   -0.6226   20.8881 N   0  0  0  0  0  0  0  0  0  0  0  0
    5.9517   -0.1099   19.8531 C   0  0  0  0  0  0  0  0  0  0  0  0
    6.4081   -0.1746   18.5632 C   0  0  0  0  0  0  0  0  0  0  0  0
    5.7531    0.3161   17.4899 N   0  0  0  0  0  0  0  0  0  0  0  0
    4.6256    0.9421   17.7098 C   0  0  0  0  0  0  0  0  0  0  0  0
    4.0411    1.1017   18.9935 C   0  0  0  0  0  0  0  0  0  0  0  0
    2.8162    1.7916   19.1710 C   0  0  0  0  0  0  0  0  0  0  0  0
    2.2519    1.8954   20.4121 C   0  0  0  0  0  0  0  0  0  0  0  0
    2.9042    1.3341   21.5330 C   0  0  0  0  0  0  0  0  0  0  0  0
    4.0930    0.6621   21.3872 C   0  0  0  0  0  0  0  0  0  0  0  0
    4.7011    0.5408   20.1102 C   0  0  0  0  0  0  0  0  0  0  0  0
    4.5851    0.2337   22.2546 H   0  0  0  0  0  0  0  0  0  0  0  0
    2.4479    1.4217   22.5130 H   0  0  0  0  0  0  0  0  0  0  0  0
    1.3169    2.4322   20.5428 H   0  0  0  0  0  0  0  0  0  0  0  0
    2.3255    2.1821   18.2865 H   0  0  0  0  0  0  0  0  0  0  0  0
    4.1437    1.3822   16.8407 H   0  0  0  0  0  0  0  0  0  0  0  0
    7.3874   -0.5894   18.3485 H   0  0  0  0  0  0  0  0  0  0  0  0
    6.3341   -1.1149   21.6561 H   0  0  0  0  0  0  0  0  0  0  0  0
    8.3364   -0.1411   23.5434 C   0  0  0  0  0  0  0  0  0  0  0  0
    7.7907    1.1425   23.6256 C   0  0  0  0  0  0  0  0  0  0  0  0
    7.3033    1.6117   24.8365 C   0  0  0  0  0  0  0  0  0  0  0  0
    6.5897    3.1992   24.8936 Cl  0  0  0  0  0  0  0  0  0  0  0  0
    7.3572    0.8374   25.9950 C   0  0  0  0  0  0  0  0  0  0  0  0
    7.9270   -0.4212   25.9155 C   0  0  0  0  0  0  0  0  0  0  0  0
    8.4336   -0.8994   24.7071 C   0  0  0  0  0  0  0  0  0  0  0  0
    9.1527   -2.2078   24.7001 C   0  0  0  0  0  0  0  0  0  0  0  0
    9.4170   -2.8184   25.7219 O   0  0  0  0  0  0  0  0  0  0  0  0
    7.9919   -1.0555   26.7918 H   0  0  0  0  0  0  0  0  0  0  0  0
    6.9873    1.2255   26.9403 H   0  0  0  0  0  0  0  0  0  0  0  0
    7.7300    1.7731   22.7440 H   0  0  0  0  0  0  0  0  0  0  0  0
    9.8579   -0.3625   22.0449 H   0  0  0  0  0  0  0  0  0  0  0  0
    7.8143   -2.6312   22.2390 H   0  0  0  0  0  0  0  0  0  0  0  0
    9.3601   -2.6407   21.3850 H   0  0  0  0  0  0  0  0  0  0  0  0
   11.3333   -3.5404   24.0731 H   0  0  0  0  0  0  0  0  0  0  0  0
    9.9903   -4.6712   23.9381 H   0  0  0  0  0  0  0  0  0  0  0  0
   10.7592   -3.9916   22.4585 H   0  0  0  0  0  0  0  0  0  0  0  0
  1  2  1  0
  2  3  1  0
  3  4  1  0
  4  5  1  0
  5  6  2  0
  5  7  1  0
  7  8  1  0
  8  9  2  0
  9 10  1  0
 10 11  2  0
 11 12  1  0
 12 13  2  0
 13 14  1  0
 14 15  2  0
 15 16  1  0
 16 17  2  0
 16 18  1  0
 15 19  1  0
 14 20  1  0
 13 21  1  0
 11 22  1  0
  9 23  1  0
  7 24  1  0
  4 25  1  0
 25 26  2  0
 26 27  1  0
 27 28  1  0
 27 29  2  0
 29 30  1  0
 30 31  2  0
 31 32  1  0
 32 33  2  0
 30 34  1  0
 29 35  1  0
 26 36  1  0
  4 37  1  6
  3 38  1  0
  3 39  1  0
  1 40  1  0
  1 41  1  0
  1 42  1  0
 32  2  1  0
 17  8  1  0
 31 25  1  0
 17 12  1  0
M  END
>  <cnnaffinities>  (50) 
[5.84787, 6.03401]

>  <score>  (50) 
5.84787

>  <index>  (50) 
49

>  <Smiles>  (50) 
C(N1C([C@@](C(=O)N(c2c(nc(c3c(c(c(c(c23)[H])[H])[H])[H])[H])[H])[H])(c2c(c(Cl)c(c(c2C1=O)[H])[H])[H])[H])([H])[H])([H])([H])[H]

>  <h>  (50) 
<NA>

>  <Training>  (50) 
True

>  <Success>  (50) 
True

>  <enamine_searched>  (50) 
False

>  <enamine_id>  (50) 
nan

$$$$

     RDKit          3D

 38 41  0  0  0  0  0  0  0  0999 V2000
    5.1288   -2.2404   21.1808 O   0  0  0  0  0  0  0  0  0  0  0  0
    6.2170   -1.8151   21.5401 C   0  0  0  0  0  0  0  0  0  0  0  0
    6.8292   -0.5622   20.9264 C   0  0  0  0  0  0  0  0  0  0  0  0
    5.9761   -0.0404   19.8218 C   0  0  0  0  0  0  0  0  0  0  0  0
    6.3910   -0.1952   18.5274 C   0  0  0  0  0  0  0  0  0  0  0  0
    5.7366    0.2838   17.4447 N   0  0  0  0  0  0  0  0  0  0  0  0
    4.6411    0.9643   17.6767 C   0  0  0  0  0  0  0  0  0  0  0  0
    4.0629    1.1432   18.9582 C   0  0  0  0  0  0  0  0  0  0  0  0
    2.8542    1.8660   19.1314 C   0  0  0  0  0  0  0  0  0  0  0  0
    2.2998    2.0092   20.3709 C   0  0  0  0  0  0  0  0  0  0  0  0
    2.9313    1.4287   21.5007 C   0  0  0  0  0  0  0  0  0  0  0  0
    4.1323    0.7596   21.3615 C   0  0  0  0  0  0  0  0  0  0  0  0
    4.7312    0.6047   20.0773 C   0  0  0  0  0  0  0  0  0  0  0  0
    4.6106    0.3368   22.2408 H   0  0  0  0  0  0  0  0  0  0  0  0
    2.4798    1.5476   22.4804 H   0  0  0  0  0  0  0  0  0  0  0  0
    1.3704    2.5636   20.4953 H   0  0  0  0  0  0  0  0  0  0  0  0
    2.3906    2.2892   18.2447 H   0  0  0  0  0  0  0  0  0  0  0  0
    4.1452    1.3955   16.8114 H   0  0  0  0  0  0  0  0  0  0  0  0
    7.3355   -0.7015   18.3291 H   0  0  0  0  0  0  0  0  0  0  0  0
    7.8281   -0.8152   20.5429 H   0  0  0  0  0  0  0  0  0  0  0  0
    6.9514    0.2129   21.6949 H   0  0  0  0  0  0  0  0  0  0  0  0
    6.9305   -2.4465   22.5261 N   0  0  0  0  0  0  0  0  0  0  0  0
    8.0822   -1.9010   23.2500 C   0  0  0  0  0  0  0  0  0  0  0  0
    9.1222   -2.9996   23.4663 C   0  0  0  0  0  0  0  0  0  0  0  0
    8.4374   -4.2019   24.0437 C   0  0  0  0  0  0  0  0  0  0  0  0
    9.2245   -5.4441   24.9468 S   0  0  0  0  0  0  0  0  0  0  0  0
    7.7732   -6.3671   25.0275 C   0  0  0  0  0  0  0  0  0  0  0  0
    6.7308   -5.7322   24.4321 C   0  0  0  0  0  0  0  0  0  0  0  0
    7.1180   -4.4819   23.8681 C   0  0  0  0  0  0  0  0  0  0  0  0
    6.2074   -3.5441   23.1514 C   0  0  0  0  0  0  0  0  0  0  0  0
    5.4349   -3.1445   23.8261 H   0  0  0  0  0  0  0  0  0  0  0  0
    5.6530   -4.0668   22.3678 H   0  0  0  0  0  0  0  0  0  0  0  0
    5.7245   -6.1357   24.3900 H   0  0  0  0  0  0  0  0  0  0  0  0
    7.7849   -7.3415   25.4884 H   0  0  0  0  0  0  0  0  0  0  0  0
    9.9306   -2.6527   24.1170 H   0  0  0  0  0  0  0  0  0  0  0  0
    9.5779   -3.2635   22.5014 H   0  0  0  0  0  0  0  0  0  0  0  0
    8.5333   -1.0710   22.6983 H   0  0  0  0  0  0  0  0  0  0  0  0
    7.7626   -1.5057   24.2271 H   0  0  0  0  0  0  0  0  0  0  0  0
  1  2  2  0
  2  3  1  0
  3  4  1  0
  4  5  2  0
  5  6  1  0
  6  7  2  0
  7  8  1  0
  8  9  2  0
  9 10  1  0
 10 11  2  0
 11 12  1  0
 12 13  2  0
 12 14  1  0
 11 15  1  0
 10 16  1  0
  9 17  1  0
  7 18  1  0
  5 19  1  0
  3 20  1  0
  3 21  1  0
  2 22  1  0
 22 23  1  0
 23 24  1  0
 24 25  1  0
 25 26  1  0
 26 27  1  0
 27 28  2  0
 28 29  1  0
 29 30  1  0
 30 31  1  0
 30 32  1  0
 28 33  1  0
 27 34  1  0
 24 35  1  0
 24 36  1  0
 23 37  1  0
 23 38  1  0
 13  4  1  0
 30 22  1  0
 13  8  1  0
 29 25  2  0
M  END
>  <cnnaffinities>  (51) 
[5.4508, 5.49811, 5.67417, 5.44718, 5.36811, 5.46606]

>  <score>  (51) 
5.4508

>  <index>  (51) 
50

>  <Smiles>  (51) 
O=C(C(c1c(nc(c2c(c(c(c(c12)[H])[H])[H])[H])[H])[H])([H])[H])N1C(C(c2sc(c(c2C1([H])[H])[H])[H])([H])[H])([H])[H]

>  <h>  (51) 
<NA>

>  <Training>  (51) 
True

>  <Success>  (51) 
True

>  <enamine_searched>  (51) 
False

>  <enamine_id>  (51) 
nan

$$$$

     RDKit          3D

 67 73  0  0  0  0  0  0  0  0999 V2000
    8.9076   -5.4376   26.7742 C   0  0  0  0  0  0  0  0  0  0  0  0
    7.8512   -4.4098   26.5881 C   0  0  0  0  0  0  0  0  0  0  0  0
    6.6061   -4.5351   26.2653 N   0  0  0  0  0  0  0  0  0  0  0  0
    6.0861   -3.2411   26.1765 N   0  0  0  0  0  0  0  0  0  0  0  0
    7.0651   -2.4427   26.4604 C   0  0  0  0  0  0  0  0  0  0  0  0
    7.1429   -0.9522   26.4027 C   0  0  0  0  0  0  0  0  0  0  0  0
    8.0102   -0.5154   25.3106 N   0  0  0  0  0  0  0  0  0  0  0  0
    7.4392   -0.1459   24.0206 C   0  0  0  0  0  0  0  0  0  0  0  0
    8.3381   -0.4615   22.7863 C   0  0  2  0  0  0  0  0  0  0  0  0
    7.7184    0.3854   21.6411 C   0  0  0  0  0  0  0  0  0  0  0  0
    7.9061    1.5589   21.4069 O   0  0  0  0  0  0  0  0  0  0  0  0
    6.8096   -0.4185   20.9669 N   0  0  0  0  0  0  0  0  0  0  0  0
    5.9976    0.0530   19.8954 C   0  0  0  0  0  0  0  0  0  0  0  0
    6.4360   -0.0784   18.6030 C   0  0  0  0  0  0  0  0  0  0  0  0
    5.7800    0.3961   17.5137 N   0  0  0  0  0  0  0  0  0  0  0  0
    4.6041    0.9438   17.7029 C   0  0  0  0  0  0  0  0  0  0  0  0
    3.9838    1.0750   18.9771 C   0  0  0  0  0  0  0  0  0  0  0  0
    2.7096    1.6848   19.1332 C   0  0  0  0  0  0  0  0  0  0  0  0
    2.1118    1.7210   20.3615 C   0  0  0  0  0  0  0  0  0  0  0  0
    2.7628    1.1630   21.4844 C   0  0  0  0  0  0  0  0  0  0  0  0
    4.0078    0.5952   21.3603 C   0  0  0  0  0  0  0  0  0  0  0  0
    4.6756    0.5775   20.1096 C   0  0  0  0  0  0  0  0  0  0  0  0
    4.4893    0.1392   22.2169 H   0  0  0  0  0  0  0  0  0  0  0  0
    2.2831    1.1973   22.4548 H   0  0  0  0  0  0  0  0  0  0  0  0
    1.1405    2.1885   20.4873 H   0  0  0  0  0  0  0  0  0  0  0  0
    2.2134    2.0988   18.2567 H   0  0  0  0  0  0  0  0  0  0  0  0
    4.0665    1.2967   16.8222 H   0  0  0  0  0  0  0  0  0  0  0  0
    7.3772   -0.5909   18.4067 H   0  0  0  0  0  0  0  0  0  0  0  0
    6.8759   -1.8208   21.3266 C   0  0  0  0  0  0  0  0  0  0  0  0
    8.1508   -1.8950   22.1816 C   0  0  2  0  0  0  0  0  0  0  0  0
    8.1312   -3.0495   23.1891 C   0  0  0  0  0  0  0  0  0  0  0  0
    8.1595   -4.3658   22.5695 N   0  0  0  0  0  0  0  0  0  0  0  0
    7.0658   -5.0484   22.1270 C   0  0  0  0  0  0  0  0  0  0  0  0
    5.7693   -4.8578   22.6526 C   0  0  0  0  0  0  0  0  0  0  0  0
    4.7614   -5.6216   22.0873 C   0  0  0  0  0  0  0  0  0  0  0  0
    4.9801   -6.5021   21.1032 N   0  0  0  0  0  0  0  0  0  0  0  0
    6.2382   -6.6017   20.6978 C   0  0  0  0  0  0  0  0  0  0  0  0
    7.2983   -5.9535   21.1616 N   0  0  0  0  0  0  0  0  0  0  0  0
    6.4180   -7.2976   19.8791 H   0  0  0  0  0  0  0  0  0  0  0  0
    3.7260   -5.5231   22.4266 H   0  0  0  0  0  0  0  0  0  0  0  0
    5.5821   -4.1731   23.4789 H   0  0  0  0  0  0  0  0  0  0  0  0
    8.9972   -4.6138   22.0498 H   0  0  0  0  0  0  0  0  0  0  0  0
    7.2413   -2.9763   23.8257 H   0  0  0  0  0  0  0  0  0  0  0  0
    9.0194   -2.9497   23.8220 H   0  0  0  0  0  0  0  0  0  0  0  0
    9.0150   -2.0424   21.5101 H   0  0  0  0  0  0  0  0  0  0  0  0
    6.9226   -2.4442   20.4283 H   0  0  0  0  0  0  0  0  0  0  0  0
    5.9845   -2.1443   21.8971 H   0  0  0  0  0  0  0  0  0  0  0  0
    9.7898   -0.1374   23.1203 C   0  0  0  0  0  0  0  0  0  0  0  0
   10.7373    0.0920   22.1041 C   0  0  0  0  0  0  0  0  0  0  0  0
   12.0711    0.3179   22.4258 C   0  0  0  0  0  0  0  0  0  0  0  0
   13.2956    0.6382   21.2267 Cl  0  0  0  0  0  0  0  0  0  0  0  0
   12.5166    0.2935   23.7432 C   0  0  0  0  0  0  0  0  0  0  0  0
   11.5973    0.0749   24.7449 C   0  0  0  0  0  0  0  0  0  0  0  0
   10.2461   -0.1157   24.4459 C   0  0  0  0  0  0  0  0  0  0  0  0
    9.3329   -0.3092   25.6113 C   0  0  0  0  0  0  0  0  0  0  0  0
    9.7559   -0.2949   26.7576 O   0  0  0  0  0  0  0  0  0  0  0  0
   11.9092    0.0458   25.7811 H   0  0  0  0  0  0  0  0  0  0  0  0
   13.5700    0.4538   23.9514 H   0  0  0  0  0  0  0  0  0  0  0  0
   10.4170    0.1095   21.0688 H   0  0  0  0  0  0  0  0  0  0  0  0
    7.2341    0.9347   23.9977 H   0  0  0  0  0  0  0  0  0  0  0  0
    6.4783   -0.6690   23.9154 H   0  0  0  0  0  0  0  0  0  0  0  0
    7.5865   -0.5835   27.3324 H   0  0  0  0  0  0  0  0  0  0  0  0
    6.1338   -0.5477   26.2892 H   0  0  0  0  0  0  0  0  0  0  0  0
    8.2050   -3.1093   26.7570 O   0  0  0  0  0  0  0  0  0  0  0  0
    8.9803   -5.7002   27.8350 H   0  0  0  0  0  0  0  0  0  0  0  0
    8.6624   -6.3311   26.2007 H   0  0  0  0  0  0  0  0  0  0  0  0
    9.8709   -5.0488   26.4354 H   0  0  0  0  0  0  0  0  0  0  0  0
  1  2  1  0
  2  3  2  0
  3  4  1  0
  4  5  2  0
  5  6  1  0
  6  7  1  0
  7  8  1  0
  9  8  1  1
  9 10  1  0
 10 11  2  0
 10 12  1  0
 12 13  1  0
 13 14  2  0
 14 15  1  0
 15 16  2  0
 16 17  1  0
 17 18  2  0
 18 19  1  0
 19 20  2  0
 20 21  1  0
 21 22  2  0
 21 23  1  0
 20 24  1  0
 19 25  1  0
 18 26  1  0
 16 27  1  0
 14 28  1  0
 12 29  1  0
 29 30  1  0
 30 31  1  0
 31 32  1  0
 32 33  1  0
 33 34  2  0
 34 35  1  0
 35 36  2  0
 36 37  1  0
 37 38  2  0
 37 39  1  0
 35 40  1  0
 34 41  1  0
 32 42  1  0
 31 43  1  0
 31 44  1  0
 30 45  1  6
 29 46  1  0
 29 47  1  0
  9 48  1  0
 48 49  2  0
 49 50  1  0
 50 51  1  0
 50 52  2  0
 52 53  1  0
 53 54  2  0
 54 55  1  0
 55 56  2  0
 53 57  1  0
 52 58  1  0
 49 59  1  0
  8 60  1  0
  8 61  1  0
  6 62  1  0
  6 63  1  0
  5 64  1  0
  1 65  1  0
  1 66  1  0
  1 67  1  0
 64  2  1  0
 55  7  1  0
 30  9  1  0
 38 33  1  0
 54 48  1  0
 22 13  1  0
 22 17  1  0
M  END
>  <cnnaffinities>  (52) 
[6.90489]

>  <score>  (52) 
6.90489

>  <index>  (52) 
51

>  <Smiles>  (52) 
C(c1nnc(C(N2C([C@@]3(C(=O)N(c4c(nc(c5c(c(c(c(c45)[H])[H])[H])[H])[H])[H])C([C@@]3(C(N(c3c(c(nc(n3)[H])[H])[H])[H])([H])[H])[H])([H])[H])c3c(c(Cl)c(c(c3C2=O)[H])[H])[H])([H])[H])([H])[H])o1)([H])([H])[H]

>  <h>  (52) 
<NA>

>  <Training>  (52) 
True

>  <Success>  (52) 
True

>  <enamine_searched>  (52) 
False

>  <enamine_id>  (52) 
nan

$$$$

     RDKit          3D

 66 71  0  0  0  0  0  0  0  0999 V2000
    7.8583   -8.5156   23.0587 C   0  0  0  0  0  0  0  0  0  0  0  0
    6.9184   -7.4488   22.7900 N   0  0  0  0  0  0  0  0  0  0  0  0
    7.1565   -6.5954   21.7588 C   0  0  0  0  0  0  0  0  0  0  0  0
    8.0215   -6.7779   20.9208 O   0  0  0  0  0  0  0  0  0  0  0  0
    6.2433   -5.3640   21.7711 C   0  0  0  0  0  0  0  0  0  0  0  0
    6.7174   -4.3751   22.7207 N   0  0  0  0  0  0  0  0  0  0  0  0
    7.7891   -3.4797   22.3405 C   0  0  0  0  0  0  0  0  0  0  0  0
    7.4284   -2.0180   22.6971 C   0  0  2  0  0  0  0  0  0  0  0  0
    6.2984   -1.6004   21.7286 C   0  0  0  0  0  0  0  0  0  0  0  0
    5.2092   -2.1275   21.6427 O   0  0  0  0  0  0  0  0  0  0  0  0
    6.7433   -0.5623   20.9321 N   0  0  0  0  0  0  0  0  0  0  0  0
    5.9762   -0.0234   19.8818 C   0  0  0  0  0  0  0  0  0  0  0  0
    6.4428   -0.0950   18.5906 C   0  0  0  0  0  0  0  0  0  0  0  0
    5.7805    0.3684   17.5095 N   0  0  0  0  0  0  0  0  0  0  0  0
    4.6375    0.9704   17.7140 C   0  0  0  0  0  0  0  0  0  0  0  0
    4.0466    1.1294   18.9937 C   0  0  0  0  0  0  0  0  0  0  0  0
    2.7803    1.7524   19.1350 C   0  0  0  0  0  0  0  0  0  0  0  0
    2.1973    1.8601   20.3681 C   0  0  0  0  0  0  0  0  0  0  0  0
    2.8440    1.3188   21.5052 C   0  0  0  0  0  0  0  0  0  0  0  0
    4.0565    0.6868   21.3932 C   0  0  0  0  0  0  0  0  0  0  0  0
    4.7047    0.5939   20.1217 C   0  0  0  0  0  0  0  0  0  0  0  0
    4.5160    0.2529   22.2787 H   0  0  0  0  0  0  0  0  0  0  0  0
    2.3642    1.3918   22.4804 H   0  0  0  0  0  0  0  0  0  0  0  0
    1.2444    2.3692   20.4862 H   0  0  0  0  0  0  0  0  0  0  0  0
    2.2944    2.1464   18.2484 H   0  0  0  0  0  0  0  0  0  0  0  0
    4.1105    1.3480   16.8399 H   0  0  0  0  0  0  0  0  0  0  0  0
    7.3775   -0.6124   18.3800 H   0  0  0  0  0  0  0  0  0  0  0  0
    8.1941   -0.4449   20.9699 C   0  0  0  0  0  0  0  0  0  0  0  0
    8.5637   -1.0209   22.3409 C   0  0  2  0  0  0  0  0  0  0  0  0
    9.9855   -1.5699   22.3535 C   0  0  0  0  0  0  0  0  0  0  0  0
   10.3307   -2.0830   23.6553 N   0  0  0  0  0  0  0  0  0  0  0  0
   11.5742   -2.5012   23.9894 C   0  0  0  0  0  0  0  0  0  0  0  0
   12.6555   -2.4083   23.0911 C   0  0  0  0  0  0  0  0  0  0  0  0
   13.8986   -2.6854   23.6083 C   0  0  0  0  0  0  0  0  0  0  0  0
   14.1062   -3.1025   24.8636 N   0  0  0  0  0  0  0  0  0  0  0  0
   13.0028   -3.2353   25.5893 C   0  0  0  0  0  0  0  0  0  0  0  0
   11.7507   -2.9738   25.2300 N   0  0  0  0  0  0  0  0  0  0  0  0
   13.1480   -3.6062   26.6019 H   0  0  0  0  0  0  0  0  0  0  0  0
   14.7876   -2.5615   22.9936 H   0  0  0  0  0  0  0  0  0  0  0  0
   12.5300   -2.1271   22.0497 H   0  0  0  0  0  0  0  0  0  0  0  0
    9.6230   -2.1581   24.3720 H   0  0  0  0  0  0  0  0  0  0  0  0
   10.6868   -0.7753   22.0698 H   0  0  0  0  0  0  0  0  0  0  0  0
   10.0789   -2.3460   21.5795 H   0  0  0  0  0  0  0  0  0  0  0  0
    8.5149   -0.2001   23.0561 H   0  0  0  0  0  0  0  0  0  0  0  0
    8.4795    0.6035   20.8528 H   0  0  0  0  0  0  0  0  0  0  0  0
    8.6686   -1.0245   20.1628 H   0  0  0  0  0  0  0  0  0  0  0  0
    6.9485   -1.9629   24.1420 C   0  0  0  0  0  0  0  0  0  0  0  0
    6.9051   -0.7462   24.8428 C   0  0  0  0  0  0  0  0  0  0  0  0
    6.4193   -0.7062   26.1377 C   0  0  0  0  0  0  0  0  0  0  0  0
    6.3803    0.8191   26.9817 Cl  0  0  0  0  0  0  0  0  0  0  0  0
    5.9547   -1.8564   26.7749 C   0  0  0  0  0  0  0  0  0  0  0  0
    5.9404   -3.0482   26.0733 C   0  0  0  0  0  0  0  0  0  0  0  0
    6.4064   -3.1045   24.7586 C   0  0  0  0  0  0  0  0  0  0  0  0
    6.2250   -4.3824   23.9895 C   0  0  0  0  0  0  0  0  0  0  0  0
    5.6300   -5.3589   24.4441 O   0  0  0  0  0  0  0  0  0  0  0  0
    5.5506   -3.9544   26.5251 H   0  0  0  0  0  0  0  0  0  0  0  0
    5.5873   -1.7975   27.7932 H   0  0  0  0  0  0  0  0  0  0  0  0
    7.2058    0.1894   24.3816 H   0  0  0  0  0  0  0  0  0  0  0  0
    7.9258   -3.5536   21.2645 H   0  0  0  0  0  0  0  0  0  0  0  0
    8.7282   -3.7762   22.8222 H   0  0  0  0  0  0  0  0  0  0  0  0
    6.2065   -4.9146   20.7729 H   0  0  0  0  0  0  0  0  0  0  0  0
    5.2260   -5.6383   22.0678 H   0  0  0  0  0  0  0  0  0  0  0  0
    6.3130   -7.1233   23.5356 H   0  0  0  0  0  0  0  0  0  0  0  0
    8.0214   -9.1137   22.1614 H   0  0  0  0  0  0  0  0  0  0  0  0
    8.8335   -8.1293   23.3759 H   0  0  0  0  0  0  0  0  0  0  0  0
    7.4514   -9.1539   23.8440 H   0  0  0  0  0  0  0  0  0  0  0  0
  1  2  1  0
  2  3  1  0
  3  4  2  0
  3  5  1  0
  5  6  1  0
  6  7  1  0
  8  7  1  6
  8  9  1  0
  9 10  2  0
  9 11  1  0
 11 12  1  0
 12 13  2  0
 13 14  1  0
 14 15  2  0
 15 16  1  0
 16 17  2  0
 17 18  1  0
 18 19  2  0
 19 20  1  0
 20 21  2  0
 20 22  1  0
 19 23  1  0
 18 24  1  0
 17 25  1  0
 15 26  1  0
 13 27  1  0
 11 28  1  0
 28 29  1  0
 29 30  1  0
 30 31  1  0
 31 32  1  0
 32 33  2  0
 33 34  1  0
 34 35  2  0
 35 36  1  0
 36 37  2  0
 36 38  1  0
 34 39  1  0
 33 40  1  0
 31 41  1  0
 30 42  1  0
 30 43  1  0
 29 44  1  1
 28 45  1  0
 28 46  1  0
  8 47  1  0
 47 48  2  0
 48 49  1  0
 49 50  1  0
 49 51  2  0
 51 52  1  0
 52 53  2  0
 53 54  1  0
 54 55  2  0
 52 56  1  0
 51 57  1  0
 48 58  1  0
  7 59  1  0
  7 60  1  0
  5 61  1  0
  5 62  1  0
  2 63  1  0
  1 64  1  0
  1 65  1  0
  1 66  1  0
 54  6  1  0
 29  8  1  0
 37 32  1  0
 53 47  1  0
 21 12  1  0
 21 16  1  0
M  END
>  <cnnaffinities>  (53) 
[7.37967, 7.21412]

>  <score>  (53) 
7.37967

>  <index>  (53) 
52

>  <Smiles>  (53) 
C(N(C(=O)C(N1C([C@@]2(C(=O)N(c3c(nc(c4c(c(c(c(c34)[H])[H])[H])[H])[H])[H])C([C@@]2(C(N(c2c(c(nc(n2)[H])[H])[H])[H])([H])[H])[H])([H])[H])c2c(c(Cl)c(c(c2C1=O)[H])[H])[H])([H])[H])([H])[H])[H])([H])([H])[H]

>  <h>  (53) 
<NA>

>  <Training>  (53) 
True

>  <Success>  (53) 
True

>  <enamine_searched>  (53) 
False

>  <enamine_id>  (53) 
nan

$$$$

     RDKit          3D

 77 84  0  0  0  0  0  0  0  0999 V2000
    9.5994    2.9879   25.0720 O   0  0  0  0  0  0  0  0  0  0  0  0
    9.4283    1.9035   24.5221 C   0  0  0  0  0  0  0  0  0  0  0  0
   10.4853    1.3153   23.6458 C   0  0  0  0  0  0  0  0  0  0  0  0
   11.7510    1.8882   23.7229 C   0  0  0  0  0  0  0  0  0  0  0  0
   12.7879    1.4133   22.9526 C   0  0  0  0  0  0  0  0  0  0  0  0
   12.4980    0.3976   22.0449 C   0  0  0  0  0  0  0  0  0  0  0  0
   13.7313   -0.0382   20.9109 Cl  0  0  0  0  0  0  0  0  0  0  0  0
   11.2457   -0.1901   21.9513 C   0  0  0  0  0  0  0  0  0  0  0  0
   10.1900    0.2800   22.7452 C   0  0  0  0  0  0  0  0  0  0  0  0
    8.7427   -0.1770   22.6212 C   0  0  1  0  0  0  0  0  0  0  0  0
    8.1389   -0.1144   24.0565 C   0  0  0  0  0  0  0  0  0  0  0  0
    8.2727    1.2032   24.6421 N   0  0  0  0  0  0  0  0  0  0  0  0
    7.1306    1.8274   25.2949 C   0  0  0  0  0  0  0  0  0  0  0  0
    6.2723    2.6624   24.3485 C   0  0  0  0  0  0  0  0  0  0  0  0
    7.0940    3.7010   23.6763 N   0  0  0  0  0  4  0  0  0  0  0  0
    7.5701    4.8591   24.5636 C   0  0  0  0  0  0  0  0  0  0  0  0
    6.7199    5.8672   23.7761 C   0  0  0  0  0  0  0  0  0  0  0  0
    5.6593    6.7286   24.4519 C   0  0  0  0  0  0  0  0  0  0  0  0
    6.2672    7.9318   23.9691 O   0  0  0  0  0  0  0  0  0  0  0  0
    7.3052    7.1970   23.3105 C   0  0  0  0  0  0  0  0  0  0  0  0
    8.2949    7.4325   23.7271 H   0  0  0  0  0  0  0  0  0  0  0  0
    7.3131    7.3638   22.2256 H   0  0  0  0  0  0  0  0  0  0  0  0
    4.6375    6.6027   24.0711 H   0  0  0  0  0  0  0  0  0  0  0  0
    5.6499    6.6841   25.5497 H   0  0  0  0  0  0  0  0  0  0  0  0
    6.3586    4.7052   22.8342 C   0  0  0  0  0  0  0  0  0  0  0  0
    5.3015    4.4589   22.7326 H   0  0  0  0  0  0  0  0  0  0  0  0
    6.8369    4.7491   21.8558 H   0  0  0  0  0  0  0  0  0  0  0  0
    8.6433    5.0051   24.4942 H   0  0  0  0  0  0  0  0  0  0  0  0
    7.2725    4.7178   25.6032 H   0  0  0  0  0  0  0  0  0  0  0  0
    7.7777    3.2095   23.0717 H   0  0  0  0  0  0  0  0  0  0  0  0
    5.8476    2.0374   23.5597 H   0  0  0  0  0  0  0  0  0  0  0  0
    5.4441    3.1323   24.8961 H   0  0  0  0  0  0  0  0  0  0  0  0
    7.5097    2.4498   26.1083 H   0  0  0  0  0  0  0  0  0  0  0  0
    6.5259    1.0289   25.7362 H   0  0  0  0  0  0  0  0  0  0  0  0
    7.0748   -0.3833   24.0408 H   0  0  0  0  0  0  0  0  0  0  0  0
    8.6702   -0.8363   24.6912 H   0  0  0  0  0  0  0  0  0  0  0  0
    7.8711    0.7528   21.7261 C   0  0  0  0  0  0  0  0  0  0  0  0
    7.9001    1.9766   21.7526 O   0  0  0  0  0  0  0  0  0  0  0  0
    7.0164   -0.0380   20.9874 N   0  0  0  0  0  0  0  0  0  0  0  0
    6.1470    0.3412   19.9174 C   0  0  0  0  0  0  0  0  0  0  0  0
    6.5674    0.1656   18.6197 C   0  0  0  0  0  0  0  0  0  0  0  0
    5.8211    0.4467   17.5269 N   0  0  0  0  0  0  0  0  0  0  0  0
    4.6082    0.9058   17.7130 C   0  0  0  0  0  0  0  0  0  0  0  0
    3.9984    1.0398   18.9916 C   0  0  0  0  0  0  0  0  0  0  0  0
    2.6694    1.5177   19.1528 C   0  0  0  0  0  0  0  0  0  0  0  0
    2.0866    1.5192   20.3906 C   0  0  0  0  0  0  0  0  0  0  0  0
    2.7961    1.0322   21.5107 C   0  0  0  0  0  0  0  0  0  0  0  0
    4.0970    0.6034   21.3839 C   0  0  0  0  0  0  0  0  0  0  0  0
    4.7582    0.6570   20.1276 C   0  0  0  0  0  0  0  0  0  0  0  0
    4.6410    0.2390   22.2500 H   0  0  0  0  0  0  0  0  0  0  0  0
    2.3108    1.0156   22.4820 H   0  0  0  0  0  0  0  0  0  0  0  0
    1.0815    1.9098   20.5153 H   0  0  0  0  0  0  0  0  0  0  0  0
    2.1481    1.9019   18.2794 H   0  0  0  0  0  0  0  0  0  0  0  0
    4.0477    1.1579   16.8125 H   0  0  0  0  0  0  0  0  0  0  0  0
    7.5675   -0.2268   18.4230 H   0  0  0  0  0  0  0  0  0  0  0  0
    7.1345   -1.4508   21.3051 C   0  0  0  0  0  0  0  0  0  0  0  0
    8.5149   -1.5616   21.9549 C   0  0  2  0  0  0  0  0  0  0  0  0
    8.6431   -2.7475   22.9118 C   0  0  0  0  0  0  0  0  0  0  0  0
    8.2518   -4.0244   22.3274 N   0  0  0  0  0  0  0  0  0  0  0  0
    8.1353   -5.1055   23.1634 C   0  0  0  0  0  0  0  0  0  0  0  0
    7.9887   -6.3105   22.5779 N   0  0  0  0  0  0  0  0  0  0  0  0
    7.9553   -7.3514   23.3981 C   0  0  0  0  0  0  0  0  0  0  0  0
    8.0595   -7.2286   24.7804 C   0  0  0  0  0  0  0  0  0  0  0  0
    8.1327   -5.9385   25.2751 C   0  0  0  0  0  0  0  0  0  0  0  0
    8.1531   -4.8686   24.4848 N   0  0  0  0  0  0  0  0  0  0  0  0
    8.1796   -5.7523   26.3502 H   0  0  0  0  0  0  0  0  0  0  0  0
    8.1084   -8.0838   25.4364 H   0  0  0  0  0  0  0  0  0  0  0  0
    7.8492   -8.3347   22.9354 H   0  0  0  0  0  0  0  0  0  0  0  0
    8.6537   -4.2867   21.4361 H   0  0  0  0  0  0  0  0  0  0  0  0
    7.9766   -2.6097   23.7659 H   0  0  0  0  0  0  0  0  0  0  0  0
    9.6673   -2.7760   23.3140 H   0  0  0  0  0  0  0  0  0  0  0  0
    9.2433   -1.6639   21.1410 H   0  0  0  0  0  0  0  0  0  0  0  0
    7.0499   -2.0391   20.3890 H   0  0  0  0  0  0  0  0  0  0  0  0
    6.3404   -1.7859   21.9948 H   0  0  0  0  0  0  0  0  0  0  0  0
   11.1122   -0.9889   21.2295 H   0  0  0  0  0  0  0  0  0  0  0  0
   13.7933    1.8193   23.0252 H   0  0  0  0  0  0  0  0  0  0  0  0
   11.8666    2.7420   24.3745 H   0  0  0  0  0  0  0  0  0  0  0  0
  1  2  2  0
  2  3  1  0
  3  4  2  0
  4  5  1  0
  5  6  2  0
  6  7  1  0
  6  8  1  0
  8  9  2  0
  9 10  1  0
 10 11  1  1
 11 12  1  0
 12 13  1  0
 13 14  1  0
 14 15  1  0
 15 16  1  0
 16 17  1  0
 17 18  1  0
 18 19  1  0
 19 20  1  0
 20 21  1  0
 20 22  1  0
 18 23  1  0
 18 24  1  0
 17 25  1  0
 25 26  1  0
 25 27  1  0
 16 28  1  0
 16 29  1  0
 15 30  1  0
 14 31  1  0
 14 32  1  0
 13 33  1  0
 13 34  1  0
 11 35  1  0
 11 36  1  0
 10 37  1  0
 37 38  2  0
 37 39  1  0
 39 40  1  0
 40 41  2  0
 41 42  1  0
 42 43  2  0
 43 44  1  0
 44 45  2  0
 45 46  1  0
 46 47  2  0
 47 48  1  0
 48 49  2  0
 48 50  1  0
 47 51  1  0
 46 52  1  0
 45 53  1  0
 43 54  1  0
 41 55  1  0
 39 56  1  0
 56 57  1  0
 57 58  1  0
 58 59  1  0
 59 60  1  0
 60 61  2  0
 61 62  1  0
 62 63  2  0
 63 64  1  0
 64 65  2  0
 64 66  1  0
 63 67  1  0
 62 68  1  0
 59 69  1  0
 58 70  1  0
 58 71  1  0
 57 72  1  6
 56 73  1  0
 56 74  1  0
  8 75  1  0
  5 76  1  0
  4 77  1  0
 12  2  1  0
 25 15  1  0
 49 40  1  0
 65 60  1  0
  9  3  1  0
 57 10  1  0
 20 17  1  0
 49 44  1  0
M  CHG  1  15   1
M  END
>  <cnnaffinities>  (54) 
[7.30788]

>  <score>  (54) 
7.30788

>  <index>  (54) 
53

>  <Smiles>  (54) 
O=C1c2c(c(c(Cl)c(c2[C@@]2(C(N1C(C([N+]1(C(C3(C(OC3([H])[H])([H])[H])C1([H])[H])([H])[H])[H])([H])[H])([H])[H])([H])[H])C(=O)N(c1c(nc(c3c(c(c(c(c13)[H])[H])[H])[H])[H])[H])C([C@@]2(C(N(c1nc(c(c(n1)[H])[H])[H])[H])([H])[H])[H])([H])[H])[H])[H])[H]

>  <h>  (54) 
<NA>

>  <Training>  (54) 
True

>  <Success>  (54) 
True

>  <enamine_searched>  (54) 
False

>  <enamine_id>  (54) 
nan

$$$$

     RDKit          3D

 66 71  0  0  0  0  0  0  0  0999 V2000
    8.0390   -8.4344   23.0634 C   0  0  0  0  0  0  0  0  0  0  0  0
    7.1634   -7.2959   22.9107 N   0  0  0  0  0  0  0  0  0  0  0  0
    7.2413   -6.5570   21.7808 C   0  0  0  0  0  0  0  0  0  0  0  0
    7.9653   -6.8445   20.8417 O   0  0  0  0  0  0  0  0  0  0  0  0
    6.3476   -5.3173   21.7859 C   0  0  0  0  0  0  0  0  0  0  0  0
    6.8173   -4.3257   22.7334 N   0  0  0  0  0  0  0  0  0  0  0  0
    7.8720   -3.4042   22.3568 C   0  0  0  0  0  0  0  0  0  0  0  0
    7.4711   -1.9507   22.7060 C   0  0  2  0  0  0  0  0  0  0  0  0
    6.3330   -1.5676   21.7368 C   0  0  0  0  0  0  0  0  0  0  0  0
    5.2534   -2.1207   21.6506 O   0  0  0  0  0  0  0  0  0  0  0  0
    6.7514   -0.5261   20.9344 N   0  0  0  0  0  0  0  0  0  0  0  0
    5.9719   -0.0176   19.8831 C   0  0  0  0  0  0  0  0  0  0  0  0
    6.4391   -0.0945   18.5950 C   0  0  0  0  0  0  0  0  0  0  0  0
    5.7787    0.3666   17.5119 N   0  0  0  0  0  0  0  0  0  0  0  0
    4.6340    0.9651   17.7183 C   0  0  0  0  0  0  0  0  0  0  0  0
    4.0333    1.1089   18.9959 C   0  0  0  0  0  0  0  0  0  0  0  0
    2.7694    1.7344   19.1371 C   0  0  0  0  0  0  0  0  0  0  0  0
    2.1833    1.8378   20.3697 C   0  0  0  0  0  0  0  0  0  0  0  0
    2.8251    1.2900   21.5054 C   0  0  0  0  0  0  0  0  0  0  0  0
    4.0421    0.6666   21.3936 C   0  0  0  0  0  0  0  0  0  0  0  0
    4.6920    0.5762   20.1237 C   0  0  0  0  0  0  0  0  0  0  0  0
    4.5011    0.2368   22.2787 H   0  0  0  0  0  0  0  0  0  0  0  0
    2.3449    1.3644   22.4777 H   0  0  0  0  0  0  0  0  0  0  0  0
    1.2339    2.3509   20.4860 H   0  0  0  0  0  0  0  0  0  0  0  0
    2.2931    2.1404   18.2517 H   0  0  0  0  0  0  0  0  0  0  0  0
    4.1091    1.3464   16.8437 H   0  0  0  0  0  0  0  0  0  0  0  0
    7.3778   -0.6049   18.3875 H   0  0  0  0  0  0  0  0  0  0  0  0
    8.1950   -0.3715   20.9645 C   0  0  0  0  0  0  0  0  0  0  0  0
    8.5744   -0.9167   22.3377 C   0  0  2  0  0  0  0  0  0  0  0  0
   10.0144   -1.4070   22.3523 C   0  0  0  0  0  0  0  0  0  0  0  0
   10.3718   -1.7875   23.6930 N   0  0  0  0  0  0  0  0  0  0  0  0
   11.5706   -2.3655   23.9966 C   0  0  0  0  0  0  0  0  0  0  0  0
   12.6605   -2.3669   23.0924 C   0  0  0  0  0  0  0  0  0  0  0  0
   13.8484   -2.8295   23.4479 N   0  0  0  0  0  0  0  0  0  0  0  0
   13.9554   -3.3195   24.6855 C   0  0  0  0  0  0  0  0  0  0  0  0
   12.8774   -3.3690   25.5481 C   0  0  0  0  0  0  0  0  0  0  0  0
   11.6792   -2.9013   25.2115 N   0  0  0  0  0  0  0  0  0  0  0  0
   12.9856   -3.8193   26.5332 H   0  0  0  0  0  0  0  0  0  0  0  0
   14.9035   -3.7296   24.9916 H   0  0  0  0  0  0  0  0  0  0  0  0
   12.5568   -1.9810   22.0775 H   0  0  0  0  0  0  0  0  0  0  0  0
    9.6281   -2.0024   24.3466 H   0  0  0  0  0  0  0  0  0  0  0  0
   10.6855   -0.6108   22.0024 H   0  0  0  0  0  0  0  0  0  0  0  0
   10.1332   -2.2374   21.6355 H   0  0  0  0  0  0  0  0  0  0  0  0
    8.5035   -0.0971   23.0534 H   0  0  0  0  0  0  0  0  0  0  0  0
    8.6873   -0.9533   20.1692 H   0  0  0  0  0  0  0  0  0  0  0  0
    8.4625    0.6797   20.8373 H   0  0  0  0  0  0  0  0  0  0  0  0
    6.9860   -1.9108   24.1495 C   0  0  0  0  0  0  0  0  0  0  0  0
    6.9013   -0.7013   24.8555 C   0  0  0  0  0  0  0  0  0  0  0  0
    6.3967   -0.6818   26.1444 C   0  0  0  0  0  0  0  0  0  0  0  0
    6.2970    0.8364   26.9931 Cl  0  0  0  0  0  0  0  0  0  0  0  0
    5.9541   -1.8444   26.7747 C   0  0  0  0  0  0  0  0  0  0  0  0
    5.9847   -3.0319   26.0709 C   0  0  0  0  0  0  0  0  0  0  0  0
    6.4699   -3.0654   24.7635 C   0  0  0  0  0  0  0  0  0  0  0  0
    6.3257   -4.3413   23.9995 C   0  0  0  0  0  0  0  0  0  0  0  0
    5.7559   -5.3311   24.4639 O   0  0  0  0  0  0  0  0  0  0  0  0
    5.6156   -3.9537   26.5080 H   0  0  0  0  0  0  0  0  0  0  0  0
    5.5685   -1.8023   27.7868 H   0  0  0  0  0  0  0  0  0  0  0  0
    7.1857    0.2416   24.4013 H   0  0  0  0  0  0  0  0  0  0  0  0
    8.0201   -3.4742   21.2817 H   0  0  0  0  0  0  0  0  0  0  0  0
    8.8140   -3.6782   22.8500 H   0  0  0  0  0  0  0  0  0  0  0  0
    5.3244   -5.5814   22.0767 H   0  0  0  0  0  0  0  0  0  0  0  0
    6.3306   -4.8844   20.7814 H   0  0  0  0  0  0  0  0  0  0  0  0
    6.6417   -6.9188   23.6956 H   0  0  0  0  0  0  0  0  0  0  0  0
    7.8045   -9.2175   22.3364 H   0  0  0  0  0  0  0  0  0  0  0  0
    7.9261   -8.8321   24.0713 H   0  0  0  0  0  0  0  0  0  0  0  0
    9.0810   -8.1446   22.9004 H   0  0  0  0  0  0  0  0  0  0  0  0
  1  2  1  0
  2  3  1  0
  3  4  2  0
  3  5  1  0
  5  6  1  0
  6  7  1  0
  8  7  1  6
  8  9  1  0
  9 10  2  0
  9 11  1  0
 11 12  1  0
 12 13  2  0
 13 14  1  0
 14 15  2  0
 15 16  1  0
 16 17  2  0
 17 18  1  0
 18 19  2  0
 19 20  1  0
 20 21  2  0
 20 22  1  0
 19 23  1  0
 18 24  1  0
 17 25  1  0
 15 26  1  0
 13 27  1  0
 11 28  1  0
 28 29  1  0
 29 30  1  0
 30 31  1  0
 31 32  1  0
 32 33  2  0
 33 34  1  0
 34 35  2  0
 35 36  1  0
 36 37  2  0
 36 38  1  0
 35 39  1  0
 33 40  1  0
 31 41  1  0
 30 42  1  0
 30 43  1  0
 29 44  1  1
 28 45  1  0
 28 46  1  0
  8 47  1  0
 47 48  2  0
 48 49  1  0
 49 50  1  0
 49 51  2  0
 51 52  1  0
 52 53  2  0
 53 54  1  0
 54 55  2  0
 52 56  1  0
 51 57  1  0
 48 58  1  0
  7 59  1  0
  7 60  1  0
  5 61  1  0
  5 62  1  0
  2 63  1  0
  1 64  1  0
  1 65  1  0
  1 66  1  0
 54  6  1  0
 29  8  1  0
 37 32  1  0
 53 47  1  0
 21 12  1  0
 21 16  1  0
M  END
>  <cnnaffinities>  (55) 
[7.49356, 7.34821, 6.90064]

>  <score>  (55) 
7.49356

>  <index>  (55) 
54

>  <Smiles>  (55) 
C(N(C(=O)C(N1C([C@@]2(C(=O)N(c3c(nc(c4c(c(c(c(c34)[H])[H])[H])[H])[H])[H])C([C@@]2(C(N(c2c(nc(c(n2)[H])[H])[H])[H])([H])[H])[H])([H])[H])c2c(c(Cl)c(c(c2C1=O)[H])[H])[H])([H])[H])([H])[H])[H])([H])([H])[H]

>  <h>  (55) 
<NA>

>  <Training>  (55) 
True

>  <Success>  (55) 
True

>  <enamine_searched>  (55) 
False

>  <enamine_id>  (55) 
nan

$$$$

     RDKit          3D

 56 61  0  0  0  0  0  0  0  0999 V2000
   12.6172    2.2059   22.4164 C   0  0  0  0  0  0  0  0  0  0  0  0
   12.6442    0.8059   22.7850 N   0  0  0  0  0  0  0  0  0  0  0  0
   13.0315    0.2615   23.9571 C   0  0  0  0  0  0  0  0  0  0  0  0
   12.8687   -1.0954   23.8558 C   0  0  0  0  0  0  0  0  0  0  0  0
   12.3605   -1.2826   22.5536 C   0  0  0  0  0  0  0  0  0  0  0  0
   11.9116   -2.5636   21.9307 C   0  0  0  0  0  0  0  0  0  0  0  0
   10.5286   -2.8789   22.2781 N   0  0  0  0  0  0  0  0  0  0  0  0
    9.4274   -2.5871   21.3814 C   0  0  0  0  0  0  0  0  0  0  0  0
    8.2307   -1.9449   22.1232 C   0  0  1  0  0  0  0  0  0  0  0  0
    8.5010   -0.4690   22.5351 C   0  0  0  0  0  0  0  0  0  0  0  0
    7.8264    0.4025   21.4701 C   0  0  0  0  0  0  0  0  0  0  0  0
    6.8048   -0.4800   20.9280 N   0  0  0  0  0  0  0  0  0  0  0  0
    5.9786   -0.0581   19.8545 C   0  0  0  0  0  0  0  0  0  0  0  0
    6.3936   -0.2175   18.5573 C   0  0  0  0  0  0  0  0  0  0  0  0
    5.7505    0.2891   17.4769 N   0  0  0  0  0  0  0  0  0  0  0  0
    4.6442    0.9528   17.6960 C   0  0  0  0  0  0  0  0  0  0  0  0
    4.0683    1.1490   18.9840 C   0  0  0  0  0  0  0  0  0  0  0  0
    2.8260    1.8132   19.1503 C   0  0  0  0  0  0  0  0  0  0  0  0
    2.2480    1.9059   20.3893 C   0  0  0  0  0  0  0  0  0  0  0  0
    2.8930    1.3358   21.5153 C   0  0  0  0  0  0  0  0  0  0  0  0
    4.1020    0.6962   21.3793 C   0  0  0  0  0  0  0  0  0  0  0  0
    4.7369    0.6088   20.1086 C   0  0  0  0  0  0  0  0  0  0  0  0
    4.5845    0.2413   22.2385 H   0  0  0  0  0  0  0  0  0  0  0  0
    2.4259    1.4170   22.4922 H   0  0  0  0  0  0  0  0  0  0  0  0
    1.3050    2.4286   20.5211 H   0  0  0  0  0  0  0  0  0  0  0  0
    2.3245    2.1981   18.2683 H   0  0  0  0  0  0  0  0  0  0  0  0
    4.1466    1.3890   16.8278 H   0  0  0  0  0  0  0  0  0  0  0  0
    7.3186   -0.7421   18.3303 H   0  0  0  0  0  0  0  0  0  0  0  0
    7.0532   -1.8175   21.1510 C   0  0  0  0  0  0  0  0  0  0  0  0
    6.4048   -2.7270   20.6756 O   0  0  0  0  0  0  0  0  0  0  0  0
    8.5300    0.7223   20.6839 H   0  0  0  0  0  0  0  0  0  0  0  0
    7.3655    1.3028   21.8935 H   0  0  0  0  0  0  0  0  0  0  0  0
    9.5684   -0.2542   22.6047 H   0  0  0  0  0  0  0  0  0  0  0  0
    8.0508   -0.2862   23.5155 H   0  0  0  0  0  0  0  0  0  0  0  0
    7.8872   -2.8528   23.2846 C   0  0  0  0  0  0  0  0  0  0  0  0
    6.5845   -2.9306   23.7861 C   0  0  0  0  0  0  0  0  0  0  0  0
    6.3103   -3.7234   24.8880 C   0  0  0  0  0  0  0  0  0  0  0  0
    4.6900   -3.7634   25.5310 Cl  0  0  0  0  0  0  0  0  0  0  0  0
    7.3064   -4.4920   25.4910 C   0  0  0  0  0  0  0  0  0  0  0  0
    8.5975   -4.4142   24.9998 C   0  0  0  0  0  0  0  0  0  0  0  0
    8.8938   -3.5824   23.9224 C   0  0  0  0  0  0  0  0  0  0  0  0
   10.3200   -3.4595   23.4994 C   0  0  0  0  0  0  0  0  0  0  0  0
   11.2397   -3.8363   24.2156 O   0  0  0  0  0  0  0  0  0  0  0  0
    9.4091   -4.9882   25.4377 H   0  0  0  0  0  0  0  0  0  0  0  0
    7.0734   -5.1262   26.3398 H   0  0  0  0  0  0  0  0  0  0  0  0
    5.7716   -2.4065   23.3001 H   0  0  0  0  0  0  0  0  0  0  0  0
    9.7744   -1.8958   20.6117 H   0  0  0  0  0  0  0  0  0  0  0  0
    9.0822   -3.5230   20.9353 H   0  0  0  0  0  0  0  0  0  0  0  0
   12.0172   -2.5116   20.8434 H   0  0  0  0  0  0  0  0  0  0  0  0
   12.5189   -3.3840   22.3162 H   0  0  0  0  0  0  0  0  0  0  0  0
   12.2202   -0.1265   21.9159 N   0  0  0  0  0  0  0  0  0  0  0  0
   13.0553   -1.8498   24.6078 H   0  0  0  0  0  0  0  0  0  0  0  0
   13.3468    0.8662   24.7895 H   0  0  0  0  0  0  0  0  0  0  0  0
   13.6002    2.5487   22.0791 H   0  0  0  0  0  0  0  0  0  0  0  0
   11.8927    2.3231   21.6092 H   0  0  0  0  0  0  0  0  0  0  0  0
   12.3035    2.8147   23.2684 H   0  0  0  0  0  0  0  0  0  0  0  0
  1  2  1  0
  2  3  1  0
  3  4  2  0
  4  5  1  0
  5  6  1  0
  6  7  1  0
  7  8  1  0
  9  8  1  6
  9 10  1  0
 10 11  1  0
 11 12  1  0
 12 13  1  0
 13 14  2  0
 14 15  1  0
 15 16  2  0
 16 17  1  0
 17 18  2  0
 18 19  1  0
 19 20  2  0
 20 21  1  0
 21 22  2  0
 21 23  1  0
 20 24  1  0
 19 25  1  0
 18 26  1  0
 16 27  1  0
 14 28  1  0
 12 29  1  0
 29 30  2  0
 11 31  1  0
 11 32  1  0
 10 33  1  0
 10 34  1  0
  9 35  1  0
 35 36  2  0
 36 37  1  0
 37 38  1  0
 37 39  2  0
 39 40  1  0
 40 41  2  0
 41 42  1  0
 42 43  2  0
 40 44  1  0
 39 45  1  0
 36 46  1  0
  8 47  1  0
  8 48  1  0
  6 49  1  0
  6 50  1  0
  5 51  2  0
  4 52  1  0
  3 53  1  0
  1 54  1  0
  1 55  1  0
  1 56  1  0
 51  2  1  0
 42  7  1  0
 29  9  1  0
 41 35  1  0
 22 13  1  0
 22 17  1  0
M  END
>  <cnnaffinities>  (56) 
[6.9961]

>  <score>  (56) 
6.9961

>  <index>  (56) 
55

>  <Smiles>  (56) 
C(n1c(c(c(C(N2C([C@]3(C(C(N(c4c(nc(c5c(c(c(c(c45)[H])[H])[H])[H])[H])[H])C3=O)([H])[H])([H])[H])c3c(c(Cl)c(c(c3C2=O)[H])[H])[H])([H])[H])([H])[H])n1)[H])[H])([H])([H])[H]

>  <h>  (56) 
<NA>

>  <Training>  (56) 
True

>  <Success>  (56) 
True

>  <enamine_searched>  (56) 
False

>  <enamine_id>  (56) 
nan

$$$$

     RDKit          3D

 41 43  0  0  0  0  0  0  0  0999 V2000
    8.1559    1.5740   20.8581 O   0  0  0  0  0  0  0  0  0  0  0  0
    7.8878    0.5849   21.5154 C   0  0  0  0  0  0  0  0  0  0  0  0
    6.9048   -0.4858   21.0080 C   0  0  0  0  0  0  0  0  0  0  0  0
    6.0033   -0.0279   19.8999 C   0  0  0  0  0  0  0  0  0  0  0  0
    6.4231   -0.1563   18.6027 C   0  0  0  0  0  0  0  0  0  0  0  0
    5.7757    0.3179   17.5098 N   0  0  0  0  0  0  0  0  0  0  0  0
    4.6504    0.9499   17.7195 C   0  0  0  0  0  0  0  0  0  0  0  0
    4.0613    1.1224   18.9999 C   0  0  0  0  0  0  0  0  0  0  0  0
    2.8315    1.8117   19.1656 C   0  0  0  0  0  0  0  0  0  0  0  0
    2.2522    1.9151   20.4001 C   0  0  0  0  0  0  0  0  0  0  0  0
    2.8849    1.3337   21.5201 C   0  0  0  0  0  0  0  0  0  0  0  0
    4.0941    0.6934   21.3937 C   0  0  0  0  0  0  0  0  0  0  0  0
    4.7344    0.5902   20.1278 C   0  0  0  0  0  0  0  0  0  0  0  0
    4.5718    0.2697   22.2722 H   0  0  0  0  0  0  0  0  0  0  0  0
    2.4153    1.4233   22.4957 H   0  0  0  0  0  0  0  0  0  0  0  0
    1.3194    2.4611   20.5247 H   0  0  0  0  0  0  0  0  0  0  0  0
    2.3506    2.2274   18.2849 H   0  0  0  0  0  0  0  0  0  0  0  0
    4.1523    1.3761   16.8473 H   0  0  0  0  0  0  0  0  0  0  0  0
    7.3825   -0.6249   18.3952 H   0  0  0  0  0  0  0  0  0  0  0  0
    6.3191   -0.8727   21.8424 H   0  0  0  0  0  0  0  0  0  0  0  0
    7.5354   -1.3051   20.6299 H   0  0  0  0  0  0  0  0  0  0  0  0
    8.4765    0.3478   22.7445 N   0  0  0  0  0  0  0  0  0  0  0  0
    9.3342    1.4041   23.3008 C   0  0  0  0  0  0  0  0  0  0  0  0
   10.7371    1.4155   22.6968 C   0  0  0  0  0  0  0  0  0  0  0  0
   11.7077    0.3145   23.1149 C   0  0  0  0  0  0  0  0  0  0  0  0
   11.1618   -1.3805   22.7681 S   0  0  0  0  0  0  0  0  0  0  0  0
    9.7851   -1.4617   23.9357 C   0  0  0  0  0  0  0  0  0  0  0  0
    8.4413   -0.9511   23.3893 C   0  0  1  0  0  0  0  0  0  0  0  0
    7.4259   -0.9007   24.5259 C   0  0  0  0  0  0  0  0  0  0  0  0
    7.8399   -0.0534   25.4916 F   0  0  0  0  0  0  0  0  0  0  0  0
    6.2287   -0.4664   24.1035 F   0  0  0  0  0  0  0  0  0  0  0  0
    7.2566   -2.1063   25.0936 F   0  0  0  0  0  0  0  0  0  0  0  0
    8.0978   -1.6992   22.6678 H   0  0  0  0  0  0  0  0  0  0  0  0
   10.0653   -0.9156   24.8384 H   0  0  0  0  0  0  0  0  0  0  0  0
    9.6628   -2.5102   24.2189 H   0  0  0  0  0  0  0  0  0  0  0  0
   11.9840    0.3863   24.1763 H   0  0  0  0  0  0  0  0  0  0  0  0
   12.6292    0.4388   22.5345 H   0  0  0  0  0  0  0  0  0  0  0  0
   10.5893    1.3494   21.6217 H   0  0  0  0  0  0  0  0  0  0  0  0
   11.2091    2.3816   22.9188 H   0  0  0  0  0  0  0  0  0  0  0  0
    8.8539    2.3603   23.0656 H   0  0  0  0  0  0  0  0  0  0  0  0
    9.3491    1.3043   24.3890 H   0  0  0  0  0  0  0  0  0  0  0  0
  1  2  2  0
  2  3  1  0
  3  4  1  0
  4  5  2  0
  5  6  1  0
  6  7  2  0
  7  8  1  0
  8  9  2  0
  9 10  1  0
 10 11  2  0
 11 12  1  0
 12 13  2  0
 12 14  1  0
 11 15  1  0
 10 16  1  0
  9 17  1  0
  7 18  1  0
  5 19  1  0
  3 20  1  0
  3 21  1  0
  2 22  1  0
 22 23  1  0
 23 24  1  0
 24 25  1  0
 25 26  1  0
 26 27  1  0
 27 28  1  0
 28 29  1  0
 29 30  1  0
 29 31  1  0
 29 32  1  0
 28 33  1  6
 27 34  1  0
 27 35  1  0
 25 36  1  0
 25 37  1  0
 24 38  1  0
 24 39  1  0
 23 40  1  0
 23 41  1  0
 13  4  1  0
 28 22  1  0
 13  8  1  0
M  END
>  <cnnaffinities>  (57) 
[5.89612, 5.8961, 5.89609]

>  <score>  (57) 
5.89612

>  <index>  (57) 
56

>  <Smiles>  (57) 
O=C(C(c1c(nc(c2c(c(c(c(c12)[H])[H])[H])[H])[H])[H])([H])[H])N1C(C(C(SC([C@]1(C(F)(F)F)[H])([H])[H])([H])[H])([H])[H])([H])[H]

>  <h>  (57) 
<NA>

>  <Training>  (57) 
True

>  <Success>  (57) 
True

>  <enamine_searched>  (57) 
False

>  <enamine_id>  (57) 
nan

$$$$

     RDKit          3D

 67 72  0  0  0  0  0  0  0  0999 V2000
    7.9446   -8.4671   23.0942 C   0  0  0  0  0  0  0  0  0  0  0  0
    7.0658   -7.3356   22.9359 N   0  0  0  0  0  0  0  0  0  0  0  0
    7.1492   -6.5649   21.8291 C   0  0  0  0  0  0  0  0  0  0  0  0
    7.8714   -6.8221   20.8839 O   0  0  0  0  0  0  0  0  0  0  0  0
    6.2606   -5.3243   21.8715 C   0  0  0  0  0  0  0  0  0  0  0  0
    6.7634   -4.3380   22.8022 N   0  0  0  0  0  0  0  0  0  0  0  0
    7.8282   -3.4474   22.3876 C   0  0  0  0  0  0  0  0  0  0  0  0
    7.4402   -1.9789   22.6746 C   0  0  2  0  0  0  0  0  0  0  0  0
    6.2833   -1.6215   21.7075 C   0  0  0  0  0  0  0  0  0  0  0  0
    5.2186   -2.2010   21.6319 O   0  0  0  0  0  0  0  0  0  0  0  0
    6.6806   -0.5717   20.8984 N   0  0  0  0  0  0  0  0  0  0  0  0
    5.9022   -0.0488   19.8489 C   0  0  0  0  0  0  0  0  0  0  0  0
    6.4031   -0.0563   18.5683 C   0  0  0  0  0  0  0  0  0  0  0  0
    5.7721    0.4613   17.4902 N   0  0  0  0  0  0  0  0  0  0  0  0
    4.5829    0.9748   17.6876 C   0  0  0  0  0  0  0  0  0  0  0  0
    3.9421    1.0539   18.9568 C   0  0  0  0  0  0  0  0  0  0  0  0
    2.6795    1.6938   19.1103 C   0  0  0  0  0  0  0  0  0  0  0  0
    2.1016    1.7752   20.3464 C   0  0  0  0  0  0  0  0  0  0  0  0
    2.7611    1.2497   21.4815 C   0  0  0  0  0  0  0  0  0  0  0  0
    3.9730    0.6176   21.3577 C   0  0  0  0  0  0  0  0  0  0  0  0
    4.6087    0.5248   20.0846 C   0  0  0  0  0  0  0  0  0  0  0  0
    4.4474    0.2054   22.2426 H   0  0  0  0  0  0  0  0  0  0  0  0
    2.2855    1.3221   22.4550 H   0  0  0  0  0  0  0  0  0  0  0  0
    1.1489    2.2815   20.4744 H   0  0  0  0  0  0  0  0  0  0  0  0
    2.2028    2.1207   18.2297 H   0  0  0  0  0  0  0  0  0  0  0  0
    4.0531    1.3440   16.8117 H   0  0  0  0  0  0  0  0  0  0  0  0
    7.3569   -0.5463   18.3749 H   0  0  0  0  0  0  0  0  0  0  0  0
    8.1261   -0.4101   20.9029 C   0  0  0  0  0  0  0  0  0  0  0  0
    8.5488   -0.9607   22.2590 C   0  0  2  0  0  0  0  0  0  0  0  0
   10.0025   -1.4464   22.2341 C   0  0  0  0  0  0  0  0  0  0  0  0
   10.3557   -1.8401   23.5682 N   0  0  0  0  0  0  0  0  0  0  0  0
   11.5336   -2.4298   23.9560 C   0  0  0  0  0  0  0  0  0  0  0  0
   12.8166   -2.2622   23.5262 C   0  0  0  0  0  0  0  0  0  0  0  0
   13.7968   -2.8747   24.2857 N   0  0  0  0  0  0  0  0  0  0  0  0
   13.2729   -3.5130   25.2853 C   0  0  0  0  0  0  0  0  0  0  0  0
   14.0060   -4.3532   26.2872 C   0  0  0  0  0  0  0  0  0  0  0  0
   14.2794   -3.7854   27.1879 H   0  0  0  0  0  0  0  0  0  0  0  0
   13.3647   -5.1887   26.5765 H   0  0  0  0  0  0  0  0  0  0  0  0
   14.9175   -4.7435   25.8288 H   0  0  0  0  0  0  0  0  0  0  0  0
   11.5210   -3.5259   25.3044 S   0  0  0  0  0  0  0  0  0  0  0  0
   13.1061   -1.6971   22.6484 H   0  0  0  0  0  0  0  0  0  0  0  0
    9.5956   -1.8881   24.2364 H   0  0  0  0  0  0  0  0  0  0  0  0
   10.6601   -0.6419   21.8796 H   0  0  0  0  0  0  0  0  0  0  0  0
   10.1237   -2.2679   21.5102 H   0  0  0  0  0  0  0  0  0  0  0  0
    8.5035   -0.1484   22.9857 H   0  0  0  0  0  0  0  0  0  0  0  0
    8.5989   -0.9879   20.0933 H   0  0  0  0  0  0  0  0  0  0  0  0
    8.3793    0.6446   20.7721 H   0  0  0  0  0  0  0  0  0  0  0  0
    6.9767   -1.9002   24.1296 C   0  0  0  0  0  0  0  0  0  0  0  0
    6.9228   -0.6764   24.8116 C   0  0  0  0  0  0  0  0  0  0  0  0
    6.4294   -0.6147   26.1052 C   0  0  0  0  0  0  0  0  0  0  0  0
    6.3613    0.9236   26.9215 Cl  0  0  0  0  0  0  0  0  0  0  0  0
    5.9616   -1.7445   26.7748 C   0  0  0  0  0  0  0  0  0  0  0  0
    5.9732   -2.9502   26.1014 C   0  0  0  0  0  0  0  0  0  0  0  0
    6.4538   -3.0274   24.7924 C   0  0  0  0  0  0  0  0  0  0  0  0
    6.2966   -4.3283   24.0779 C   0  0  0  0  0  0  0  0  0  0  0  0
    5.7443   -5.3068   24.5828 O   0  0  0  0  0  0  0  0  0  0  0  0
    5.5826   -3.8510   26.5636 H   0  0  0  0  0  0  0  0  0  0  0  0
    5.5752   -1.6554   27.7865 H   0  0  0  0  0  0  0  0  0  0  0  0
    7.2111    0.2515   24.3316 H   0  0  0  0  0  0  0  0  0  0  0  0
    7.9605   -3.5686   21.3166 H   0  0  0  0  0  0  0  0  0  0  0  0
    8.7662   -3.7316   22.8861 H   0  0  0  0  0  0  0  0  0  0  0  0
    5.2521   -5.5861   22.2055 H   0  0  0  0  0  0  0  0  0  0  0  0
    6.2184   -4.8926   20.8667 H   0  0  0  0  0  0  0  0  0  0  0  0
    6.5957   -6.9376   23.7363 H   0  0  0  0  0  0  0  0  0  0  0  0
    7.9120   -9.0821   22.1951 H   0  0  0  0  0  0  0  0  0  0  0  0
    7.5962   -9.0605   23.9379 H   0  0  0  0  0  0  0  0  0  0  0  0
    8.9792   -8.1518   23.2652 H   0  0  0  0  0  0  0  0  0  0  0  0
  1  2  1  0
  2  3  1  0
  3  4  2  0
  3  5  1  0
  5  6  1  0
  6  7  1  0
  8  7  1  6
  8  9  1  0
  9 10  2  0
  9 11  1  0
 11 12  1  0
 12 13  2  0
 13 14  1  0
 14 15  2  0
 15 16  1  0
 16 17  2  0
 17 18  1  0
 18 19  2  0
 19 20  1  0
 20 21  2  0
 20 22  1  0
 19 23  1  0
 18 24  1  0
 17 25  1  0
 15 26  1  0
 13 27  1  0
 11 28  1  0
 28 29  1  0
 29 30  1  0
 30 31  1  0
 31 32  1  0
 32 33  2  0
 33 34  1  0
 34 35  2  0
 35 36  1  0
 36 37  1  0
 36 38  1  0
 36 39  1  0
 35 40  1  0
 33 41  1  0
 31 42  1  0
 30 43  1  0
 30 44  1  0
 29 45  1  1
 28 46  1  0
 28 47  1  0
  8 48  1  0
 48 49  2  0
 49 50  1  0
 50 51  1  0
 50 52  2  0
 52 53  1  0
 53 54  2  0
 54 55  1  0
 55 56  2  0
 53 57  1  0
 52 58  1  0
 49 59  1  0
  7 60  1  0
  7 61  1  0
  5 62  1  0
  5 63  1  0
  2 64  1  0
  1 65  1  0
  1 66  1  0
  1 67  1  0
 55  6  1  0
 29  8  1  0
 40 32  1  0
 54 48  1  0
 21 12  1  0
 21 16  1  0
M  END
>  <cnnaffinities>  (58) 
[7.5595, 7.06569, 7.33578]

>  <score>  (58) 
7.5595

>  <index>  (58) 
57

>  <Smiles>  (58) 
C(N(C(=O)C(N1C([C@@]2(C(=O)N(c3c(nc(c4c(c(c(c(c34)[H])[H])[H])[H])[H])[H])C([C@@]2(C(N(c2c(nc(C([H])([H])[H])s2)[H])[H])([H])[H])[H])([H])[H])c2c(c(Cl)c(c(c2C1=O)[H])[H])[H])([H])[H])([H])[H])[H])([H])([H])[H]

>  <h>  (58) 
<NA>

>  <Training>  (58) 
True

>  <Success>  (58) 
True

>  <enamine_searched>  (58) 
False

>  <enamine_id>  (58) 
nan

$$$$

     RDKit          3D

 57 62  0  0  0  0  0  0  0  0999 V2000
    7.7847   -3.0135   23.2540 C   0  0  0  0  0  0  0  0  0  0  0  0
    8.0291   -1.9307   22.2201 C   0  0  1  0  0  0  0  0  0  0  0  0
    6.8411   -1.8178   21.2590 C   0  0  0  0  0  0  0  0  0  0  0  0
    6.8401   -0.4280   20.8878 N   0  0  0  0  0  0  0  0  0  0  0  0
    6.0137    0.0377   19.8430 C   0  0  0  0  0  0  0  0  0  0  0  0
    6.4058   -0.1697   18.5466 C   0  0  0  0  0  0  0  0  0  0  0  0
    5.7420    0.2896   17.4638 N   0  0  0  0  0  0  0  0  0  0  0  0
    4.6373    0.9564   17.6821 C   0  0  0  0  0  0  0  0  0  0  0  0
    4.0678    1.1574   18.9688 C   0  0  0  0  0  0  0  0  0  0  0  0
    2.8446    1.8572   19.1325 C   0  0  0  0  0  0  0  0  0  0  0  0
    2.2700    1.9725   20.3679 C   0  0  0  0  0  0  0  0  0  0  0  0
    2.8985    1.4019   21.5006 C   0  0  0  0  0  0  0  0  0  0  0  0
    4.1112    0.7646   21.3725 C   0  0  0  0  0  0  0  0  0  0  0  0
    4.7449    0.6499   20.0984 C   0  0  0  0  0  0  0  0  0  0  0  0
    4.5968    0.3463   22.2478 H   0  0  0  0  0  0  0  0  0  0  0  0
    2.4246    1.4986   22.4739 H   0  0  0  0  0  0  0  0  0  0  0  0
    1.3317    2.5082   20.4850 H   0  0  0  0  0  0  0  0  0  0  0  0
    2.3748    2.2629   18.2423 H   0  0  0  0  0  0  0  0  0  0  0  0
    4.1380    1.3794   16.8119 H   0  0  0  0  0  0  0  0  0  0  0  0
    7.3423   -0.6871   18.3478 H   0  0  0  0  0  0  0  0  0  0  0  0
    7.6357    0.3869   21.6672 C   0  0  0  0  0  0  0  0  0  0  0  0
    7.7516    1.5875   21.5170 O   0  0  0  0  0  0  0  0  0  0  0  0
    8.2601   -0.4787   22.7837 C   0  0  1  0  0  0  0  0  0  0  0  0
    7.4439   -0.1433   24.0601 C   0  0  0  0  0  0  0  0  0  0  0  0
    8.0677   -0.6065   25.2974 N   0  0  0  0  0  0  0  0  0  0  0  0
    7.2045   -0.8816   26.4311 C   0  0  0  0  0  0  0  0  0  0  0  0
    6.7696   -2.3253   26.4448 C   0  0  0  0  0  0  0  0  0  0  0  0
    7.6232   -3.3682   26.8087 C   0  0  0  0  0  0  0  0  0  0  0  0
    7.0348   -4.6096   27.0002 C   0  0  0  0  0  0  0  0  0  0  0  0
    5.7420   -4.8367   26.7512 N   0  0  0  0  0  0  0  0  0  0  0  0
    5.0587   -3.7951   26.2724 C   0  0  0  0  0  0  0  0  0  0  0  0
    5.4987   -2.5582   26.0865 N   0  0  0  0  0  0  0  0  0  0  0  0
    4.0121   -3.9751   26.0218 H   0  0  0  0  0  0  0  0  0  0  0  0
    7.6178   -5.4531   27.3801 H   0  0  0  0  0  0  0  0  0  0  0  0
    8.6951   -3.2238   26.9524 H   0  0  0  0  0  0  0  0  0  0  0  0
    7.7666   -0.6130   27.3333 H   0  0  0  0  0  0  0  0  0  0  0  0
    6.3094   -0.2540   26.3602 H   0  0  0  0  0  0  0  0  0  0  0  0
    9.4018   -0.4594   25.5456 C   0  0  0  0  0  0  0  0  0  0  0  0
    9.8833   -0.4975   26.6749 O   0  0  0  0  0  0  0  0  0  0  0  0
   10.2595   -0.2450   24.3582 C   0  0  0  0  0  0  0  0  0  0  0  0
   11.6219   -0.1129   24.6123 C   0  0  0  0  0  0  0  0  0  0  0  0
   12.4987    0.1700   23.5917 C   0  0  0  0  0  0  0  0  0  0  0  0
   11.9723    0.2935   22.3125 C   0  0  0  0  0  0  0  0  0  0  0  0
   12.8292    0.6132   21.3310 F   0  0  0  0  0  0  0  0  0  0  0  0
   10.6299    0.0972   22.0272 C   0  0  0  0  0  0  0  0  0  0  0  0
    9.7290   -0.1770   23.0643 C   0  0  0  0  0  0  0  0  0  0  0  0
   10.2904    0.1567   21.0021 H   0  0  0  0  0  0  0  0  0  0  0  0
   13.5597    0.2973   23.7689 H   0  0  0  0  0  0  0  0  0  0  0  0
   11.9500   -0.2363   25.6388 H   0  0  0  0  0  0  0  0  0  0  0  0
    6.4436   -0.5965   23.9992 H   0  0  0  0  0  0  0  0  0  0  0  0
    7.3136    0.9495   24.0974 H   0  0  0  0  0  0  0  0  0  0  0  0
    5.8963   -2.1084   21.7511 H   0  0  0  0  0  0  0  0  0  0  0  0
    6.9346   -2.4432   20.3661 H   0  0  0  0  0  0  0  0  0  0  0  0
    8.9257   -2.1719   21.6305 H   0  0  0  0  0  0  0  0  0  0  0  0
    6.8290   -2.8261   23.7542 H   0  0  0  0  0  0  0  0  0  0  0  0
    8.5745   -3.0231   24.0101 H   0  0  0  0  0  0  0  0  0  0  0  0
    7.7281   -3.9942   22.7709 H   0  0  0  0  0  0  0  0  0  0  0  0
  1  2  1  0
  2  3  1  0
  3  4  1  0
  4  5  1  0
  5  6  2  0
  6  7  1  0
  7  8  2  0
  8  9  1  0
  9 10  2  0
 10 11  1  0
 11 12  2  0
 12 13  1  0
 13 14  2  0
 13 15  1  0
 12 16  1  0
 11 17  1  0
 10 18  1  0
  8 19  1  0
  6 20  1  0
  4 21  1  0
 21 22  2  0
 21 23  1  0
 23 24  1  1
 24 25  1  0
 25 26  1  0
 26 27  1  0
 27 28  2  0
 28 29  1  0
 29 30  2  0
 30 31  1  0
 31 32  2  0
 31 33  1  0
 29 34  1  0
 28 35  1  0
 26 36  1  0
 26 37  1  0
 25 38  1  0
 38 39  2  0
 38 40  1  0
 40 41  2  0
 41 42  1  0
 42 43  2  0
 43 44  1  0
 43 45  1  0
 45 46  2  0
 45 47  1  0
 42 48  1  0
 41 49  1  0
 24 50  1  0
 24 51  1  0
  3 52  1  0
  3 53  1  0
  2 54  1  6
  1 55  1  0
  1 56  1  0
  1 57  1  0
 23  2  1  0
 32 27  1  0
 46 40  1  0
 14  5  1  0
 46 23  1  0
 14  9  1  0
M  END
>  <cnnaffinities>  (59) 
[6.59384, 6.61378, 6.63782]

>  <score>  (59) 
6.59384

>  <index>  (59) 
58

>  <Smiles>  (59) 
C([C@]1(C(N(c2c(nc(c3c(c(c(c(c23)[H])[H])[H])[H])[H])[H])C(=O)[C@]21C(N(C(c1c(c(nc(n1)[H])[H])[H])([H])[H])C(=O)c1c(c(c(F)c(c21)[H])[H])[H])([H])[H])([H])[H])[H])([H])([H])[H]

>  <h>  (59) 
<NA>

>  <Training>  (59) 
True

>  <Success>  (59) 
True

>  <enamine_searched>  (59) 
False

>  <enamine_id>  (59) 
nan

$$$$

     RDKit          3D

 60 65  0  0  0  0  0  0  0  0999 V2000
    7.5115   -5.2882   23.5619 C   0  0  0  0  0  0  0  0  0  0  0  0
    7.7667   -4.2318   22.6757 O   0  0  0  0  0  0  0  0  0  0  0  0
    7.7928   -2.9826   23.3256 C   0  0  0  0  0  0  0  0  0  0  0  0
    8.0305   -1.9289   22.2581 C   0  0  1  0  0  0  0  0  0  0  0  0
    6.8442   -1.8380   21.2876 C   0  0  0  0  0  0  0  0  0  0  0  0
    6.8533   -0.4498   20.8903 N   0  0  0  0  0  0  0  0  0  0  0  0
    6.0326    0.0348   19.8440 C   0  0  0  0  0  0  0  0  0  0  0  0
    6.4140   -0.1809   18.5463 C   0  0  0  0  0  0  0  0  0  0  0  0
    5.7424    0.2743   17.4666 N   0  0  0  0  0  0  0  0  0  0  0  0
    4.6577    0.9732   17.6817 C   0  0  0  0  0  0  0  0  0  0  0  0
    4.0977    1.1909   18.9682 C   0  0  0  0  0  0  0  0  0  0  0  0
    2.8701    1.8838   19.1294 C   0  0  0  0  0  0  0  0  0  0  0  0
    2.3002    2.0113   20.3655 C   0  0  0  0  0  0  0  0  0  0  0  0
    2.9321    1.4463   21.4980 C   0  0  0  0  0  0  0  0  0  0  0  0
    4.1393    0.7981   21.3682 C   0  0  0  0  0  0  0  0  0  0  0  0
    4.7721    0.6732   20.0956 C   0  0  0  0  0  0  0  0  0  0  0  0
    4.6421    0.3995   22.2441 H   0  0  0  0  0  0  0  0  0  0  0  0
    2.4875    1.5889   22.4810 H   0  0  0  0  0  0  0  0  0  0  0  0
    1.3839    2.5848   20.4802 H   0  0  0  0  0  0  0  0  0  0  0  0
    2.4060    2.2911   18.2360 H   0  0  0  0  0  0  0  0  0  0  0  0
    4.1541    1.3695   16.8030 H   0  0  0  0  0  0  0  0  0  0  0  0
    7.3451   -0.7035   18.3377 H   0  0  0  0  0  0  0  0  0  0  0  0
    7.6694    0.3747   21.6429 C   0  0  0  0  0  0  0  0  0  0  0  0
    7.7820    1.5679   21.4672 O   0  0  0  0  0  0  0  0  0  0  0  0
    8.2912   -0.4714   22.7736 C   0  0  1  0  0  0  0  0  0  0  0  0
    7.4587   -0.1044   24.0391 C   0  0  0  0  0  0  0  0  0  0  0  0
    8.0434   -0.5823   25.2836 N   0  0  0  0  0  0  0  0  0  0  0  0
    7.1846   -0.8694   26.4161 C   0  0  0  0  0  0  0  0  0  0  0  0
    6.8801   -2.3306   26.5332 C   0  0  0  0  0  0  0  0  0  0  0  0
    5.7192   -2.8972   26.2895 N   0  0  0  0  0  0  0  0  0  0  0  0
    5.8770   -4.2159   26.6476 C   0  0  0  0  0  0  0  0  0  0  0  0
    7.1567   -4.4536   27.0754 C   0  0  0  0  0  0  0  0  0  0  0  0
    7.8032   -3.2382   26.9669 N   0  0  0  0  0  0  0  0  0  0  0  0
    8.7372   -3.0215   27.2888 H   0  0  0  0  0  0  0  0  0  0  0  0
    7.6344   -5.3563   27.4287 H   0  0  0  0  0  0  0  0  0  0  0  0
    5.0468   -4.9118   26.5901 H   0  0  0  0  0  0  0  0  0  0  0  0
    7.7108   -0.5368   27.3163 H   0  0  0  0  0  0  0  0  0  0  0  0
    6.2490   -0.3175   26.3129 H   0  0  0  0  0  0  0  0  0  0  0  0
    9.3829   -0.5236   25.5256 C   0  0  0  0  0  0  0  0  0  0  0  0
    9.8643   -0.6897   26.6389 O   0  0  0  0  0  0  0  0  0  0  0  0
   10.2593   -0.2538   24.3638 C   0  0  0  0  0  0  0  0  0  0  0  0
   11.6112   -0.0975   24.6606 C   0  0  0  0  0  0  0  0  0  0  0  0
   12.5200    0.1861   23.6716 C   0  0  0  0  0  0  0  0  0  0  0  0
   12.0448    0.2867   22.3690 C   0  0  0  0  0  0  0  0  0  0  0  0
   13.2450    0.6420   21.1614 Cl  0  0  0  0  0  0  0  0  0  0  0  0
   10.7036    0.0966   22.0518 C   0  0  0  0  0  0  0  0  0  0  0  0
    9.7645   -0.1817   23.0594 C   0  0  0  0  0  0  0  0  0  0  0  0
   10.3848    0.1663   21.0215 H   0  0  0  0  0  0  0  0  0  0  0  0
   13.5755    0.3285   23.8827 H   0  0  0  0  0  0  0  0  0  0  0  0
   11.9188   -0.2063   25.6915 H   0  0  0  0  0  0  0  0  0  0  0  0
    6.4465   -0.5250   23.9449 H   0  0  0  0  0  0  0  0  0  0  0  0
    7.3552    0.9890   24.0699 H   0  0  0  0  0  0  0  0  0  0  0  0
    6.9600   -2.4822   20.4139 H   0  0  0  0  0  0  0  0  0  0  0  0
    5.8910   -2.1299   21.7605 H   0  0  0  0  0  0  0  0  0  0  0  0
    8.9165   -2.2419   21.6923 H   0  0  0  0  0  0  0  0  0  0  0  0
    6.8455   -2.8032   23.8559 H   0  0  0  0  0  0  0  0  0  0  0  0
    8.5980   -2.9503   24.0697 H   0  0  0  0  0  0  0  0  0  0  0  0
    8.2262   -5.2936   24.3970 H   0  0  0  0  0  0  0  0  0  0  0  0
    6.5001   -5.2216   23.9848 H   0  0  0  0  0  0  0  0  0  0  0  0
    7.6073   -6.2204   22.9978 H   0  0  0  0  0  0  0  0  0  0  0  0
  1  2  1  0
  2  3  1  0
  3  4  1  0
  4  5  1  0
  5  6  1  0
  6  7  1  0
  7  8  2  0
  8  9  1  0
  9 10  2  0
 10 11  1  0
 11 12  2  0
 12 13  1  0
 13 14  2  0
 14 15  1  0
 15 16  2  0
 15 17  1  0
 14 18  1  0
 13 19  1  0
 12 20  1  0
 10 21  1  0
  8 22  1  0
  6 23  1  0
 23 24  2  0
 23 25  1  0
 25 26  1  1
 26 27  1  0
 27 28  1  0
 28 29  1  0
 29 30  2  0
 30 31  1  0
 31 32  2  0
 32 33  1  0
 33 34  1  0
 32 35  1  0
 31 36  1  0
 28 37  1  0
 28 38  1  0
 27 39  1  0
 39 40  2  0
 39 41  1  0
 41 42  2  0
 42 43  1  0
 43 44  2  0
 44 45  1  0
 44 46  1  0
 46 47  2  0
 46 48  1  0
 43 49  1  0
 42 50  1  0
 26 51  1  0
 26 52  1  0
  5 53  1  0
  5 54  1  0
  4 55  1  6
  3 56  1  0
  3 57  1  0
  1 58  1  0
  1 59  1  0
  1 60  1  0
 25  4  1  0
 33 29  1  0
 47 41  1  0
 16  7  1  0
 47 25  1  0
 16 11  1  0
M  END
>  <cnnaffinities>  (60) 
[6.66926, 6.62047, 6.64872, 6.75635, 6.78271, 6.63521]

>  <score>  (60) 
6.66926

>  <index>  (60) 
59

>  <Smiles>  (60) 
C(OC([C@]1(C(N(c2c(nc(c3c(c(c(c(c23)[H])[H])[H])[H])[H])[H])C(=O)[C@]21C(N(C(c1nc(c(n1[H])[H])[H])([H])[H])C(=O)c1c(c(c(Cl)c(c21)[H])[H])[H])([H])[H])([H])[H])[H])([H])[H])([H])([H])[H]

>  <h>  (60) 
<NA>

>  <Training>  (60) 
True

>  <Success>  (60) 
True

>  <enamine_searched>  (60) 
False

>  <enamine_id>  (60) 
nan

$$$$

     RDKit          3D

 38 41  0  0  0  0  0  0  0  0999 V2000
    5.1289   -2.2404   21.1808 O   0  0  0  0  0  0  0  0  0  0  0  0
    6.2170   -1.8151   21.5400 C   0  0  0  0  0  0  0  0  0  0  0  0
    6.8292   -0.5622   20.9264 C   0  0  0  0  0  0  0  0  0  0  0  0
    5.9762   -0.0404   19.8218 C   0  0  0  0  0  0  0  0  0  0  0  0
    6.3910   -0.1952   18.5274 C   0  0  0  0  0  0  0  0  0  0  0  0
    5.7366    0.2838   17.4447 N   0  0  0  0  0  0  0  0  0  0  0  0
    4.6411    0.9643   17.6767 C   0  0  0  0  0  0  0  0  0  0  0  0
    4.0630    1.1433   18.9582 C   0  0  0  0  0  0  0  0  0  0  0  0
    2.8542    1.8660   19.1314 C   0  0  0  0  0  0  0  0  0  0  0  0
    2.2998    2.0091   20.3710 C   0  0  0  0  0  0  0  0  0  0  0  0
    2.9313    1.4286   21.5007 C   0  0  0  0  0  0  0  0  0  0  0  0
    4.1323    0.7596   21.3615 C   0  0  0  0  0  0  0  0  0  0  0  0
    4.7313    0.6048   20.0773 C   0  0  0  0  0  0  0  0  0  0  0  0
    4.6106    0.3368   22.2407 H   0  0  0  0  0  0  0  0  0  0  0  0
    2.4798    1.5476   22.4804 H   0  0  0  0  0  0  0  0  0  0  0  0
    1.3703    2.5636   20.4953 H   0  0  0  0  0  0  0  0  0  0  0  0
    2.3906    2.2892   18.2447 H   0  0  0  0  0  0  0  0  0  0  0  0
    4.1451    1.3955   16.8114 H   0  0  0  0  0  0  0  0  0  0  0  0
    7.3355   -0.7014   18.3290 H   0  0  0  0  0  0  0  0  0  0  0  0
    7.8281   -0.8152   20.5429 H   0  0  0  0  0  0  0  0  0  0  0  0
    6.9514    0.2129   21.6949 H   0  0  0  0  0  0  0  0  0  0  0  0
    6.9305   -2.4465   22.5261 N   0  0  0  0  0  0  0  0  0  0  0  0
    8.0821   -1.9010   23.2500 C   0  0  0  0  0  0  0  0  0  0  0  0
    9.1222   -2.9996   23.4663 C   0  0  0  0  0  0  0  0  0  0  0  0
    8.4373   -4.2019   24.0437 C   0  0  0  0  0  0  0  0  0  0  0  0
    9.2246   -5.4441   24.9467 S   0  0  0  0  0  0  0  0  0  0  0  0
    7.7732   -6.3671   25.0275 C   0  0  0  0  0  0  0  0  0  0  0  0
    6.7308   -5.7322   24.4321 C   0  0  0  0  0  0  0  0  0  0  0  0
    7.1181   -4.4819   23.8681 C   0  0  0  0  0  0  0  0  0  0  0  0
    6.2074   -3.5441   23.1514 C   0  0  0  0  0  0  0  0  0  0  0  0
    5.4349   -3.1445   23.8262 H   0  0  0  0  0  0  0  0  0  0  0  0
    5.6530   -4.0669   22.3678 H   0  0  0  0  0  0  0  0  0  0  0  0
    5.7245   -6.1357   24.3900 H   0  0  0  0  0  0  0  0  0  0  0  0
    7.7849   -7.3415   25.4884 H   0  0  0  0  0  0  0  0  0  0  0  0
    9.9306   -2.6527   24.1170 H   0  0  0  0  0  0  0  0  0  0  0  0
    9.5778   -3.2635   22.5013 H   0  0  0  0  0  0  0  0  0  0  0  0
    8.5333   -1.0710   22.6983 H   0  0  0  0  0  0  0  0  0  0  0  0
    7.7626   -1.5057   24.2271 H   0  0  0  0  0  0  0  0  0  0  0  0
  1  2  2  0
  2  3  1  0
  3  4  1  0
  4  5  2  0
  5  6  1  0
  6  7  2  0
  7  8  1  0
  8  9  2  0
  9 10  1  0
 10 11  2  0
 11 12  1  0
 12 13  2  0
 12 14  1  0
 11 15  1  0
 10 16  1  0
  9 17  1  0
  7 18  1  0
  5 19  1  0
  3 20  1  0
  3 21  1  0
  2 22  1  0
 22 23  1  0
 23 24  1  0
 24 25  1  0
 25 26  1  0
 26 27  1  0
 27 28  2  0
 28 29  1  0
 29 30  1  0
 30 31  1  0
 30 32  1  0
 28 33  1  0
 27 34  1  0
 24 35  1  0
 24 36  1  0
 23 37  1  0
 23 38  1  0
 13  4  1  0
 30 22  1  0
 13  8  1  0
 29 25  2  0
M  END
>  <cnnaffinities>  (61) 
[5.45079, 5.49812, 5.67415, 5.44718, 5.36811, 5.46595]

>  <score>  (61) 
5.45079

>  <index>  (61) 
60

>  <Smiles>  (61) 
O=C(C(c1c(nc(c2c(c(c(c(c12)[H])[H])[H])[H])[H])[H])([H])[H])N1C(C(c2sc(c(c2C1([H])[H])[H])[H])([H])[H])([H])[H]

>  <h>  (61) 
<NA>

>  <Training>  (61) 
True

>  <Success>  (61) 
True

>  <enamine_searched>  (61) 
False

>  <enamine_id>  (61) 
nan

$$$$

     RDKit          3D

 64 70  0  0  0  0  0  0  0  0999 V2000
   11.4318   -3.6873   24.2015 O   0  0  0  0  0  0  0  0  0  0  0  0
   10.5060   -3.3371   23.4792 C   0  0  0  0  0  0  0  0  0  0  0  0
    9.0807   -3.5536   23.8745 C   0  0  0  0  0  0  0  0  0  0  0  0
    8.8246   -4.5127   24.8508 C   0  0  0  0  0  0  0  0  0  0  0  0
    7.5339   -4.7416   25.2894 C   0  0  0  0  0  0  0  0  0  0  0  0
    6.5062   -3.9546   24.7741 C   0  0  0  0  0  0  0  0  0  0  0  0
    4.8956   -4.1773   25.3920 Cl  0  0  0  0  0  0  0  0  0  0  0  0
    6.7435   -3.0080   23.7926 C   0  0  0  0  0  0  0  0  0  0  0  0
    8.0395   -2.8169   23.2986 C   0  0  0  0  0  0  0  0  0  0  0  0
    8.3146   -1.8288   22.1817 C   0  0  1  0  0  0  0  0  0  0  0  0
    9.5763   -2.3410   21.4228 C   0  0  0  0  0  0  0  0  0  0  0  0
   10.7043   -2.7005   22.2849 N   0  0  0  0  0  0  0  0  0  0  0  0
   12.0781   -2.6250   21.7769 C   0  0  0  0  0  0  0  0  0  0  0  0
   12.7977   -1.3195   22.0157 C   0  0  0  0  0  0  0  0  0  0  0  0
   13.1506   -0.8993   23.2720 C   0  0  0  0  0  0  0  0  0  0  0  0
   13.8586    0.2907   23.3657 C   0  0  0  0  0  0  0  0  0  0  0  0
   14.2103    1.0505   22.3324 N   0  0  0  0  0  0  0  0  0  0  0  0
   13.8922    0.6373   21.1147 N   0  0  0  0  0  0  0  0  0  0  0  0
   13.2451   -0.5139   20.9683 C   0  0  0  0  0  0  0  0  0  0  0  0
   13.0993   -0.8394   19.9356 H   0  0  0  0  0  0  0  0  0  0  0  0
   14.1498    0.6373   24.3443 H   0  0  0  0  0  0  0  0  0  0  0  0
   12.9108   -1.4849   24.1609 H   0  0  0  0  0  0  0  0  0  0  0  0
   12.1256   -2.8390   20.7049 H   0  0  0  0  0  0  0  0  0  0  0  0
   12.6484   -3.3943   22.3008 H   0  0  0  0  0  0  0  0  0  0  0  0
    9.9256   -1.5694   20.7326 H   0  0  0  0  0  0  0  0  0  0  0  0
    9.2632   -3.2227   20.8541 H   0  0  0  0  0  0  0  0  0  0  0  0
    7.1321   -1.7432   21.1877 C   0  0  0  0  0  0  0  0  0  0  0  0
    6.5164   -2.6725   20.7091 O   0  0  0  0  0  0  0  0  0  0  0  0
    6.8488   -0.4147   20.9371 N   0  0  0  0  0  0  0  0  0  0  0  0
    5.9928   -0.0380   19.8647 C   0  0  0  0  0  0  0  0  0  0  0  0
    6.4245   -0.1686   18.5695 C   0  0  0  0  0  0  0  0  0  0  0  0
    5.7713    0.3416   17.4967 N   0  0  0  0  0  0  0  0  0  0  0  0
    4.6190    0.9282   17.7037 C   0  0  0  0  0  0  0  0  0  0  0  0
    4.0082    1.0548   18.9830 C   0  0  0  0  0  0  0  0  0  0  0  0
    2.7410    1.6764   19.1505 C   0  0  0  0  0  0  0  0  0  0  0  0
    2.1553    1.7195   20.3869 C   0  0  0  0  0  0  0  0  0  0  0  0
    2.8127    1.1564   21.5048 C   0  0  0  0  0  0  0  0  0  0  0  0
    4.0434    0.5578   21.3673 C   0  0  0  0  0  0  0  0  0  0  0  0
    4.6912    0.5230   20.1028 C   0  0  0  0  0  0  0  0  0  0  0  0
    4.5411    0.1179   22.2248 H   0  0  0  0  0  0  0  0  0  0  0  0
    2.3318    1.1867   22.4798 H   0  0  0  0  0  0  0  0  0  0  0  0
    1.1927    2.2079   20.5258 H   0  0  0  0  0  0  0  0  0  0  0  0
    2.2550    2.1128   18.2811 H   0  0  0  0  0  0  0  0  0  0  0  0
    4.0983    1.3287   16.8323 H   0  0  0  0  0  0  0  0  0  0  0  0
    7.3440   -0.7097   18.3502 H   0  0  0  0  0  0  0  0  0  0  0  0
    7.8096    0.4987   21.5383 C   0  0  0  0  0  0  0  0  0  0  0  0
    8.4014   -0.3478   22.6772 C   0  0  2  0  0  0  0  0  0  0  0  0
    9.7945    0.0842   23.1442 C   0  0  0  0  0  0  0  0  0  0  0  0
    9.7996    1.3505   23.8507 N   0  0  0  0  0  0  0  0  0  0  0  0
   10.2024    2.4700   23.2107 C   0  0  0  0  0  0  0  0  0  0  0  0
   10.4714    2.4850   21.9287 N   0  0  0  0  0  0  0  0  0  0  0  0
   10.8756    3.7081   21.4822 N   0  0  0  0  0  0  0  0  0  0  0  0
   10.8974    4.6010   22.4112 C   0  0  0  0  0  0  0  0  0  0  0  0
   10.4321    4.0197   23.9850 S   0  0  0  0  0  0  0  0  0  0  0  0
   11.1719    5.6341   22.2340 H   0  0  0  0  0  0  0  0  0  0  0  0
    9.5459    1.3647   24.8242 H   0  0  0  0  0  0  0  0  0  0  0  0
   10.4427    0.1953   22.2772 H   0  0  0  0  0  0  0  0  0  0  0  0
   10.2124   -0.6942   23.7905 H   0  0  0  0  0  0  0  0  0  0  0  0
    7.7179   -0.2729   23.5350 H   0  0  0  0  0  0  0  0  0  0  0  0
    8.5680    0.8187   20.8067 H   0  0  0  0  0  0  0  0  0  0  0  0
    7.3098    1.4021   21.8990 H   0  0  0  0  0  0  0  0  0  0  0  0
    5.9053   -2.4540   23.3887 H   0  0  0  0  0  0  0  0  0  0  0  0
    7.3242   -5.5102   26.0252 H   0  0  0  0  0  0  0  0  0  0  0  0
    9.6718   -5.0679   25.2416 H   0  0  0  0  0  0  0  0  0  0  0  0
  1  2  2  0
  2  3  1  0
  3  4  2  0
  4  5  1  0
  5  6  2  0
  6  7  1  0
  6  8  1  0
  8  9  2  0
  9 10  1  0
 10 11  1  6
 11 12  1  0
 12 13  1  0
 13 14  1  0
 14 15  2  0
 15 16  1  0
 16 17  2  0
 17 18  1  0
 18 19  2  0
 19 20  1  0
 16 21  1  0
 15 22  1  0
 13 23  1  0
 13 24  1  0
 11 25  1  0
 11 26  1  0
 10 27  1  0
 27 28  2  0
 27 29  1  0
 29 30  1  0
 30 31  2  0
 31 32  1  0
 32 33  2  0
 33 34  1  0
 34 35  2  0
 35 36  1  0
 36 37  2  0
 37 38  1  0
 38 39  2  0
 38 40  1  0
 37 41  1  0
 36 42  1  0
 35 43  1  0
 33 44  1  0
 31 45  1  0
 29 46  1  0
 46 47  1  0
 47 48  1  0
 48 49  1  0
 49 50  1  0
 50 51  2  0
 51 52  1  0
 52 53  2  0
 53 54  1  0
 53 55  1  0
 49 56  1  0
 48 57  1  0
 48 58  1  0
 47 59  1  1
 46 60  1  0
 46 61  1  0
  8 62  1  0
  5 63  1  0
  4 64  1  0
 12  2  1  0
 19 14  1  0
 39 30  1  0
 54 50  1  0
  9  3  1  0
 47 10  1  0
 39 34  1  0
M  END
>  <cnnaffinities>  (62) 
[7.39795]

>  <score>  (62) 
7.39795

>  <index>  (62) 
61

>  <Smiles>  (62) 
O=C1c2c(c(c(Cl)c(c2[C@@]2(C(N1C(c1c(c(nnc1[H])[H])[H])([H])[H])([H])[H])C(=O)N(c1c(nc(c3c(c(c(c(c13)[H])[H])[H])[H])[H])[H])C([C@@]2(C(N(c1nnc(s1)[H])[H])([H])[H])[H])([H])[H])[H])[H])[H]

>  <h>  (62) 
<NA>

>  <Training>  (62) 
True

>  <Success>  (62) 
True

>  <enamine_searched>  (62) 
False

>  <enamine_id>  (62) 
nan

$$$$

     RDKit          3D

 70 76  0  0  0  0  0  0  0  0999 V2000
    7.3938   -2.9757   23.5328 C   0  0  0  0  0  0  0  0  0  0  0  0
    7.6826   -2.1861   22.2666 C   0  0  1  0  0  0  0  0  0  0  0  0
    6.3737   -1.7591   21.5884 C   0  0  0  0  0  0  0  0  0  0  0  0
    6.7491   -0.5619   20.8700 N   0  0  0  0  0  0  0  0  0  0  0  0
    5.9855   -0.0231   19.8160 C   0  0  0  0  0  0  0  0  0  0  0  0
    6.4217   -0.1354   18.5195 C   0  0  0  0  0  0  0  0  0  0  0  0
    5.7494    0.3442   17.4494 N   0  0  0  0  0  0  0  0  0  0  0  0
    4.6180    0.9649   17.6771 C   0  0  0  0  0  0  0  0  0  0  0  0
    4.0506    1.1423   18.9696 C   0  0  0  0  0  0  0  0  0  0  0  0
    2.8231    1.8272   19.1531 C   0  0  0  0  0  0  0  0  0  0  0  0
    2.2624    1.9331   20.3979 C   0  0  0  0  0  0  0  0  0  0  0  0
    2.9159    1.3660   21.5185 C   0  0  0  0  0  0  0  0  0  0  0  0
    4.1188    0.7193   21.3698 C   0  0  0  0  0  0  0  0  0  0  0  0
    4.7296    0.6075   20.0854 C   0  0  0  0  0  0  0  0  0  0  0  0
    4.6095    0.2848   22.2358 H   0  0  0  0  0  0  0  0  0  0  0  0
    2.4541    1.4359   22.4993 H   0  0  0  0  0  0  0  0  0  0  0  0
    1.3261    2.4654   20.5352 H   0  0  0  0  0  0  0  0  0  0  0  0
    2.3215    2.2122   18.2716 H   0  0  0  0  0  0  0  0  0  0  0  0
    4.1084    1.3950   16.8176 H   0  0  0  0  0  0  0  0  0  0  0  0
    7.3798   -0.6025   18.3006 H   0  0  0  0  0  0  0  0  0  0  0  0
    7.9945   -0.0761   21.1956 C   0  0  0  0  0  0  0  0  0  0  0  0
    8.5539    0.8381   20.6170 O   0  0  0  0  0  0  0  0  0  0  0  0
    8.5170   -0.8752   22.4143 C   0  0  1  0  0  0  0  0  0  0  0  0
    8.1696   -0.1503   23.7449 C   0  0  0  0  0  0  0  0  0  0  0  0
    8.9736    1.0363   23.9645 N   0  0  0  0  0  0  0  0  0  0  0  0
    8.3400    2.2939   24.3068 C   0  0  0  0  0  0  0  0  0  0  0  0
    7.8333    2.9841   23.0489 C   0  0  0  0  0  0  0  0  0  0  0  0
    7.1120    4.2393   23.3629 N   0  0  2  0  0  4  0  0  0  0  0  0
    6.4250    4.8123   22.1658 C   0  0  0  0  0  0  0  0  0  0  0  0
    6.2175    6.2788   22.4968 C   0  0  0  0  0  0  0  0  0  0  0  0
    7.4516    6.6765   23.3175 C   0  0  0  0  0  0  0  0  0  0  0  0
    8.5081    7.5440   22.6062 C   0  0  0  0  0  0  0  0  0  0  0  0
    8.3234    8.6350   23.5157 O   0  0  0  0  0  0  0  0  0  0  0  0
    7.3229    7.9035   24.2354 C   0  0  0  0  0  0  0  0  0  0  0  0
    7.6117    7.7427   25.2813 H   0  0  0  0  0  0  0  0  0  0  0  0
    6.3474    8.4056   24.1930 H   0  0  0  0  0  0  0  0  0  0  0  0
    9.5347    7.1575   22.6345 H   0  0  0  0  0  0  0  0  0  0  0  0
    8.2389    7.8146   21.5797 H   0  0  0  0  0  0  0  0  0  0  0  0
    7.9702    5.3633   23.9236 C   0  0  0  0  0  0  0  0  0  0  0  0
    9.0051    5.1606   23.6318 H   0  0  0  0  0  0  0  0  0  0  0  0
    7.9125    5.3371   25.0148 H   0  0  0  0  0  0  0  0  0  0  0  0
    5.3050    6.3905   23.0962 H   0  0  0  0  0  0  0  0  0  0  0  0
    6.1032    6.8729   21.5847 H   0  0  0  0  0  0  0  0  0  0  0  0
    7.1148    4.6924   21.3278 H   0  0  0  0  0  0  0  0  0  0  0  0
    5.5015    4.2664   21.9555 H   0  0  0  0  0  0  0  0  0  0  0  0
    6.3772    3.9952   24.0580 H   0  0  0  0  0  0  0  0  0  0  0  0
    8.6708    3.2052   22.3740 H   0  0  0  0  0  0  0  0  0  0  0  0
    7.1584    2.3163   22.4989 H   0  0  0  0  0  0  0  0  0  0  0  0
    7.5019    2.1184   24.9955 H   0  0  0  0  0  0  0  0  0  0  0  0
    9.0842    2.9031   24.8255 H   0  0  0  0  0  0  0  0  0  0  0  0
   10.3329    1.0045   23.8308 C   0  0  0  0  0  0  0  0  0  0  0  0
   11.0674    1.8659   24.2987 O   0  0  0  0  0  0  0  0  0  0  0  0
   10.8752   -0.1485   23.0406 C   0  0  0  0  0  0  0  0  0  0  0  0
   12.2619   -0.2754   22.9540 C   0  0  0  0  0  0  0  0  0  0  0  0
   12.8289   -1.1604   22.0588 C   0  0  0  0  0  0  0  0  0  0  0  0
   11.9809   -1.9589   21.2917 C   0  0  0  0  0  0  0  0  0  0  0  0
   12.6564   -2.9918   20.0653 Cl  0  0  0  0  0  0  0  0  0  0  0  0
   10.6087   -1.9335   21.4616 C   0  0  0  0  0  0  0  0  0  0  0  0
   10.0233   -1.0158   22.3406 C   0  0  0  0  0  0  0  0  0  0  0  0
   10.0098   -2.6372   20.8953 H   0  0  0  0  0  0  0  0  0  0  0  0
   13.9035   -1.2270   21.9272 H   0  0  0  0  0  0  0  0  0  0  0  0
   12.8780    0.3492   23.5916 H   0  0  0  0  0  0  0  0  0  0  0  0
    8.3459   -0.8547   24.5696 H   0  0  0  0  0  0  0  0  0  0  0  0
    7.1089    0.1247   23.7635 H   0  0  0  0  0  0  0  0  0  0  0  0
    5.5910   -1.5709   22.3377 H   0  0  0  0  0  0  0  0  0  0  0  0
    5.9846   -2.5253   20.9072 H   0  0  0  0  0  0  0  0  0  0  0  0
    8.2050   -2.8296   21.5536 H   0  0  0  0  0  0  0  0  0  0  0  0
    6.7687   -2.3839   24.2133 H   0  0  0  0  0  0  0  0  0  0  0  0
    8.3088   -3.2562   24.0624 H   0  0  0  0  0  0  0  0  0  0  0  0
    6.8368   -3.8852   23.2834 H   0  0  0  0  0  0  0  0  0  0  0  0
  1  2  1  0
  2  3  1  0
  3  4  1  0
  4  5  1  0
  5  6  2  0
  6  7  1  0
  7  8  2  0
  8  9  1  0
  9 10  2  0
 10 11  1  0
 11 12  2  0
 12 13  1  0
 13 14  2  0
 13 15  1  0
 12 16  1  0
 11 17  1  0
 10 18  1  0
  8 19  1  0
  6 20  1  0
  4 21  1  0
 21 22  2  0
 21 23  1  0
 23 24  1  1
 24 25  1  0
 25 26  1  0
 26 27  1  0
 27 28  1  0
 28 29  1  0
 29 30  1  0
 30 31  1  0
 31 32  1  0
 32 33  1  0
 33 34  1  0
 34 35  1  0
 34 36  1  0
 32 37  1  0
 32 38  1  0
 31 39  1  0
 39 40  1  0
 39 41  1  0
 30 42  1  0
 30 43  1  0
 29 44  1  0
 29 45  1  0
 28 46  1  1
 27 47  1  0
 27 48  1  0
 26 49  1  0
 26 50  1  0
 25 51  1  0
 51 52  2  0
 51 53  1  0
 53 54  2  0
 54 55  1  0
 55 56  2  0
 56 57  1  0
 56 58  1  0
 58 59  2  0
 58 60  1  0
 55 61  1  0
 54 62  1  0
 24 63  1  0
 24 64  1  0
  3 65  1  0
  3 66  1  0
  2 67  1  6
  1 68  1  0
  1 69  1  0
  1 70  1  0
 23  2  1  0
 39 28  1  0
 59 53  1  0
 14  5  1  0
 59 23  1  0
 14  9  1  0
 34 31  1  0
M  CHG  1  28   1
M  END
>  <cnnaffinities>  (63) 
[6.64696]

>  <score>  (63) 
6.64696

>  <index>  (63) 
62

>  <Smiles>  (63) 
C([C@]1(C(N(c2c(nc(c3c(c(c(c(c23)[H])[H])[H])[H])[H])[H])C(=O)[C@]21C(N(C(C([N@@+]1(C(C(C3(C(OC3([H])[H])([H])[H])C1([H])[H])([H])[H])([H])[H])[H])([H])[H])([H])[H])C(=O)c1c(c(c(Cl)c(c21)[H])[H])[H])([H])[H])([H])[H])[H])([H])([H])[H]

>  <h>  (63) 
<NA>

>  <Training>  (63) 
True

>  <Success>  (63) 
True

>  <enamine_searched>  (63) 
False

>  <enamine_id>  (63) 
nan

$$$$

     RDKit          3D

 56 61  0  0  0  0  0  0  0  0999 V2000
   12.6172    2.2058   22.4163 C   0  0  0  0  0  0  0  0  0  0  0  0
   12.6442    0.8059   22.7850 N   0  0  0  0  0  0  0  0  0  0  0  0
   13.0315    0.2614   23.9571 C   0  0  0  0  0  0  0  0  0  0  0  0
   12.8686   -1.0954   23.8558 C   0  0  0  0  0  0  0  0  0  0  0  0
   12.3604   -1.2826   22.5536 C   0  0  0  0  0  0  0  0  0  0  0  0
   11.9115   -2.5636   21.9307 C   0  0  0  0  0  0  0  0  0  0  0  0
   10.5286   -2.8789   22.2780 N   0  0  0  0  0  0  0  0  0  0  0  0
    9.4274   -2.5871   21.3814 C   0  0  0  0  0  0  0  0  0  0  0  0
    8.2307   -1.9449   22.1232 C   0  0  1  0  0  0  0  0  0  0  0  0
    8.5010   -0.4691   22.5351 C   0  0  0  0  0  0  0  0  0  0  0  0
    7.8264    0.4025   21.4701 C   0  0  0  0  0  0  0  0  0  0  0  0
    6.8048   -0.4799   20.9280 N   0  0  0  0  0  0  0  0  0  0  0  0
    5.9786   -0.0581   19.8545 C   0  0  0  0  0  0  0  0  0  0  0  0
    6.3936   -0.2175   18.5573 C   0  0  0  0  0  0  0  0  0  0  0  0
    5.7505    0.2890   17.4768 N   0  0  0  0  0  0  0  0  0  0  0  0
    4.6442    0.9528   17.6960 C   0  0  0  0  0  0  0  0  0  0  0  0
    4.0683    1.1491   18.9840 C   0  0  0  0  0  0  0  0  0  0  0  0
    2.8260    1.8133   19.1502 C   0  0  0  0  0  0  0  0  0  0  0  0
    2.2481    1.9060   20.3893 C   0  0  0  0  0  0  0  0  0  0  0  0
    2.8930    1.3359   21.5153 C   0  0  0  0  0  0  0  0  0  0  0  0
    4.1020    0.6962   21.3794 C   0  0  0  0  0  0  0  0  0  0  0  0
    4.7369    0.6088   20.1087 C   0  0  0  0  0  0  0  0  0  0  0  0
    4.5845    0.2414   22.2386 H   0  0  0  0  0  0  0  0  0  0  0  0
    2.4259    1.4171   22.4922 H   0  0  0  0  0  0  0  0  0  0  0  0
    1.3051    2.4287   20.5211 H   0  0  0  0  0  0  0  0  0  0  0  0
    2.3246    2.1982   18.2682 H   0  0  0  0  0  0  0  0  0  0  0  0
    4.1466    1.3891   16.8279 H   0  0  0  0  0  0  0  0  0  0  0  0
    7.3187   -0.7421   18.3303 H   0  0  0  0  0  0  0  0  0  0  0  0
    7.0532   -1.8175   21.1509 C   0  0  0  0  0  0  0  0  0  0  0  0
    6.4048   -2.7270   20.6756 O   0  0  0  0  0  0  0  0  0  0  0  0
    8.5300    0.7223   20.6839 H   0  0  0  0  0  0  0  0  0  0  0  0
    7.3656    1.3028   21.8936 H   0  0  0  0  0  0  0  0  0  0  0  0
    9.5684   -0.2543   22.6047 H   0  0  0  0  0  0  0  0  0  0  0  0
    8.0509   -0.2862   23.5155 H   0  0  0  0  0  0  0  0  0  0  0  0
    7.8872   -2.8527   23.2846 C   0  0  0  0  0  0  0  0  0  0  0  0
    6.5846   -2.9306   23.7860 C   0  0  0  0  0  0  0  0  0  0  0  0
    6.3103   -3.7235   24.8879 C   0  0  0  0  0  0  0  0  0  0  0  0
    4.6901   -3.7633   25.5310 Cl  0  0  0  0  0  0  0  0  0  0  0  0
    7.3064   -4.4920   25.4910 C   0  0  0  0  0  0  0  0  0  0  0  0
    8.5976   -4.4142   24.9998 C   0  0  0  0  0  0  0  0  0  0  0  0
    8.8938   -3.5824   23.9223 C   0  0  0  0  0  0  0  0  0  0  0  0
   10.3200   -3.4595   23.4994 C   0  0  0  0  0  0  0  0  0  0  0  0
   11.2396   -3.8363   24.2155 O   0  0  0  0  0  0  0  0  0  0  0  0
    9.4091   -4.9882   25.4376 H   0  0  0  0  0  0  0  0  0  0  0  0
    7.0734   -5.1262   26.3398 H   0  0  0  0  0  0  0  0  0  0  0  0
    5.7716   -2.4064   23.3000 H   0  0  0  0  0  0  0  0  0  0  0  0
    9.7744   -1.8959   20.6116 H   0  0  0  0  0  0  0  0  0  0  0  0
    9.0823   -3.5229   20.9352 H   0  0  0  0  0  0  0  0  0  0  0  0
   12.0171   -2.5116   20.8434 H   0  0  0  0  0  0  0  0  0  0  0  0
   12.5188   -3.3841   22.3162 H   0  0  0  0  0  0  0  0  0  0  0  0
   12.2202   -0.1266   21.9159 N   0  0  0  0  0  0  0  0  0  0  0  0
   13.0553   -1.8498   24.6078 H   0  0  0  0  0  0  0  0  0  0  0  0
   13.3468    0.8662   24.7895 H   0  0  0  0  0  0  0  0  0  0  0  0
   13.6002    2.5487   22.0791 H   0  0  0  0  0  0  0  0  0  0  0  0
   11.8927    2.3231   21.6091 H   0  0  0  0  0  0  0  0  0  0  0  0
   12.3035    2.8147   23.2683 H   0  0  0  0  0  0  0  0  0  0  0  0
  1  2  1  0
  2  3  1  0
  3  4  2  0
  4  5  1  0
  5  6  1  0
  6  7  1  0
  7  8  1  0
  9  8  1  6
  9 10  1  0
 10 11  1  0
 11 12  1  0
 12 13  1  0
 13 14  2  0
 14 15  1  0
 15 16  2  0
 16 17  1  0
 17 18  2  0
 18 19  1  0
 19 20  2  0
 20 21  1  0
 21 22  2  0
 21 23  1  0
 20 24  1  0
 19 25  1  0
 18 26  1  0
 16 27  1  0
 14 28  1  0
 12 29  1  0
 29 30  2  0
 11 31  1  0
 11 32  1  0
 10 33  1  0
 10 34  1  0
  9 35  1  0
 35 36  2  0
 36 37  1  0
 37 38  1  0
 37 39  2  0
 39 40  1  0
 40 41  2  0
 41 42  1  0
 42 43  2  0
 40 44  1  0
 39 45  1  0
 36 46  1  0
  8 47  1  0
  8 48  1  0
  6 49  1  0
  6 50  1  0
  5 51  2  0
  4 52  1  0
  3 53  1  0
  1 54  1  0
  1 55  1  0
  1 56  1  0
 51  2  1  0
 42  7  1  0
 29  9  1  0
 41 35  1  0
 22 13  1  0
 22 17  1  0
M  END
>  <cnnaffinities>  (64) 
[6.99605]

>  <score>  (64) 
6.99605

>  <index>  (64) 
63

>  <Smiles>  (64) 
C(n1c(c(c(C(N2C([C@]3(C(C(N(c4c(nc(c5c(c(c(c(c45)[H])[H])[H])[H])[H])[H])C3=O)([H])[H])([H])[H])c3c(c(Cl)c(c(c3C2=O)[H])[H])[H])([H])[H])([H])[H])n1)[H])[H])([H])([H])[H]

>  <h>  (64) 
<NA>

>  <Training>  (64) 
True

>  <Success>  (64) 
True

>  <enamine_searched>  (64) 
False

>  <enamine_id>  (64) 
nan

$$$$

     RDKit          3D

 66 71  0  0  0  0  0  0  0  0999 V2000
    7.6366   -2.5686   23.7030 C   0  0  0  0  0  0  0  0  0  0  0  0
    7.8877   -1.6991   22.4772 C   0  0  1  0  0  0  0  0  0  0  0  0
    6.6878   -1.6558   21.5193 C   0  0  0  0  0  0  0  0  0  0  0  0
    6.8086   -0.3567   20.9054 N   0  0  0  0  0  0  0  0  0  0  0  0
    5.9888    0.0773   19.8361 C   0  0  0  0  0  0  0  0  0  0  0  0
    6.4116   -0.0825   18.5447 C   0  0  0  0  0  0  0  0  0  0  0  0
    5.7183    0.3435   17.4610 N   0  0  0  0  0  0  0  0  0  0  0  0
    4.5799    0.9560   17.6738 C   0  0  0  0  0  0  0  0  0  0  0  0
    3.9985    1.1312   18.9613 C   0  0  0  0  0  0  0  0  0  0  0  0
    2.7362    1.7545   19.1426 C   0  0  0  0  0  0  0  0  0  0  0  0
    2.1750    1.8334   20.3889 C   0  0  0  0  0  0  0  0  0  0  0  0
    2.8332    1.2634   21.5023 C   0  0  0  0  0  0  0  0  0  0  0  0
    4.0629    0.6737   21.3576 C   0  0  0  0  0  0  0  0  0  0  0  0
    4.6954    0.6295   20.0828 C   0  0  0  0  0  0  0  0  0  0  0  0
    4.5464    0.2284   22.2198 H   0  0  0  0  0  0  0  0  0  0  0  0
    2.3630    1.3002   22.4795 H   0  0  0  0  0  0  0  0  0  0  0  0
    1.2162    2.3225   20.5325 H   0  0  0  0  0  0  0  0  0  0  0  0
    2.2360    2.1766   18.2795 H   0  0  0  0  0  0  0  0  0  0  0  0
    4.0295    1.3118   16.8024 H   0  0  0  0  0  0  0  0  0  0  0  0
    7.3455   -0.6054   18.3389 H   0  0  0  0  0  0  0  0  0  0  0  0
    7.6640    0.5112   21.5366 C   0  0  0  0  0  0  0  0  0  0  0  0
    7.8527    1.6601   21.1955 O   0  0  0  0  0  0  0  0  0  0  0  0
    8.3309   -0.2172   22.7211 C   0  0  1  0  0  0  0  0  0  0  0  0
    7.8080    0.3459   24.0672 C   0  0  0  0  0  0  0  0  0  0  0  0
    8.3605    1.6455   24.4172 N   0  0  0  0  0  0  0  0  0  0  0  0
    7.4863    2.5822   25.1189 C   0  0  0  0  0  0  0  0  0  0  0  0
    6.5796    3.3052   24.1270 C   0  0  0  0  0  0  0  0  0  0  0  0
    7.3963    4.1773   23.2192 N   0  0  0  0  0  4  0  0  0  0  0  0
    6.7089    4.5019   21.9300 C   0  0  0  0  0  0  0  0  0  0  0  0
    5.6580    5.5969   22.0609 C   0  0  0  0  0  0  0  0  0  0  0  0
    6.1911    6.7739   22.6315 O   0  0  0  0  0  0  0  0  0  0  0  0
    6.7378    6.5114   23.9083 C   0  0  0  0  0  0  0  0  0  0  0  0
    7.8648    5.4816   23.8343 C   0  0  0  0  0  0  0  0  0  0  0  0
    8.6528    5.8796   23.1906 H   0  0  0  0  0  0  0  0  0  0  0  0
    8.2895    5.2725   24.8177 H   0  0  0  0  0  0  0  0  0  0  0  0
    7.1332    7.4617   24.2720 H   0  0  0  0  0  0  0  0  0  0  0  0
    5.9434    6.1703   24.5888 H   0  0  0  0  0  0  0  0  0  0  0  0
    5.2848    5.8745   21.0719 H   0  0  0  0  0  0  0  0  0  0  0  0
    4.8090    5.2199   22.6547 H   0  0  0  0  0  0  0  0  0  0  0  0
    6.2595    3.5792   21.5627 H   0  0  0  0  0  0  0  0  0  0  0  0
    7.4974    4.8176   21.2415 H   0  0  0  0  0  0  0  0  0  0  0  0
    8.2240    3.6192   22.9437 H   0  0  0  0  0  0  0  0  0  0  0  0
    5.8043    3.8911   24.6278 H   0  0  0  0  0  0  0  0  0  0  0  0
    6.0832    2.5658   23.4854 H   0  0  0  0  0  0  0  0  0  0  0  0
    8.1279    3.2849   25.6528 H   0  0  0  0  0  0  0  0  0  0  0  0
    6.8710    2.0436   25.8490 H   0  0  0  0  0  0  0  0  0  0  0  0
    9.6888    1.9329   24.2701 C   0  0  0  0  0  0  0  0  0  0  0  0
   10.2026    2.9364   24.7576 O   0  0  0  0  0  0  0  0  0  0  0  0
   10.4773    0.9779   23.4109 C   0  0  0  0  0  0  0  0  0  0  0  0
   11.8652    1.1225   23.3372 C   0  0  0  0  0  0  0  0  0  0  0  0
   12.6277    0.2928   22.5275 C   0  0  0  0  0  0  0  0  0  0  0  0
   11.9672   -0.6654   21.7589 C   0  0  0  0  0  0  0  0  0  0  0  0
   12.8014   -1.8244   20.7732 Cl  0  0  0  0  0  0  0  0  0  0  0  0
   10.5958   -0.7720   21.7683 C   0  0  0  0  0  0  0  0  0  0  0  0
    9.8307   -0.0107   22.6566 C   0  0  0  0  0  0  0  0  0  0  0  0
   10.1593   -1.4638   21.0558 H   0  0  0  0  0  0  0  0  0  0  0  0
   13.7062    0.3876   22.4699 H   0  0  0  0  0  0  0  0  0  0  0  0
   12.3240    1.9014   23.9365 H   0  0  0  0  0  0  0  0  0  0  0  0
    6.7184    0.4328   24.0144 H   0  0  0  0  0  0  0  0  0  0  0  0
    8.0448   -0.3742   24.8598 H   0  0  0  0  0  0  0  0  0  0  0  0
    6.7237   -2.4528   20.7648 H   0  0  0  0  0  0  0  0  0  0  0  0
    5.7320   -1.7652   22.0521 H   0  0  0  0  0  0  0  0  0  0  0  0
    8.7014   -2.1564   21.9165 H   0  0  0  0  0  0  0  0  0  0  0  0
    7.3971   -3.5932   23.3978 H   0  0  0  0  0  0  0  0  0  0  0  0
    6.7925   -2.1981   24.2964 H   0  0  0  0  0  0  0  0  0  0  0  0
    8.5195   -2.6055   24.3497 H   0  0  0  0  0  0  0  0  0  0  0  0
  1  2  1  0
  2  3  1  0
  3  4  1  0
  4  5  1  0
  5  6  2  0
  6  7  1  0
  7  8  2  0
  8  9  1  0
  9 10  2  0
 10 11  1  0
 11 12  2  0
 12 13  1  0
 13 14  2  0
 13 15  1  0
 12 16  1  0
 11 17  1  0
 10 18  1  0
  8 19  1  0
  6 20  1  0
  4 21  1  0
 21 22  2  0
 21 23  1  0
 23 24  1  1
 24 25  1  0
 25 26  1  0
 26 27  1  0
 27 28  1  0
 28 29  1  0
 29 30  1  0
 30 31  1  0
 31 32  1  0
 32 33  1  0
 33 34  1  0
 33 35  1  0
 32 36  1  0
 32 37  1  0
 30 38  1  0
 30 39  1  0
 29 40  1  0
 29 41  1  0
 28 42  1  0
 27 43  1  0
 27 44  1  0
 26 45  1  0
 26 46  1  0
 25 47  1  0
 47 48  2  0
 47 49  1  0
 49 50  2  0
 50 51  1  0
 51 52  2  0
 52 53  1  0
 52 54  1  0
 54 55  2  0
 54 56  1  0
 51 57  1  0
 50 58  1  0
 24 59  1  0
 24 60  1  0
  3 61  1  0
  3 62  1  0
  2 63  1  6
  1 64  1  0
  1 65  1  0
  1 66  1  0
 23  2  1  0
 33 28  1  0
 55 49  1  0
 14  5  1  0
 55 23  1  0
 14  9  1  0
M  CHG  1  28   1
M  END
>  <cnnaffinities>  (65) 
[6.33904, 6.29765]

>  <score>  (65) 
6.33904

>  <index>  (65) 
64

>  <Smiles>  (65) 
C([C@]1(C(N(c2c(nc(c3c(c(c(c(c23)[H])[H])[H])[H])[H])[H])C(=O)[C@]21C(N(C(C([N+]1(C(C(OC(C1([H])[H])([H])[H])([H])[H])([H])[H])[H])([H])[H])([H])[H])C(=O)c1c(c(c(Cl)c(c21)[H])[H])[H])([H])[H])([H])[H])[H])([H])([H])[H]

>  <h>  (65) 
<NA>

>  <Training>  (65) 
True

>  <Success>  (65) 
True

>  <enamine_searched>  (65) 
False

>  <enamine_id>  (65) 
nan

$$$$

     RDKit          3D

 54 59  0  0  0  0  0  0  0  0999 V2000
    9.7668    3.0813   23.6561 C   0  0  0  0  0  0  0  0  0  0  0  0
    8.9882    2.2691   24.5674 N   0  0  0  0  0  0  0  0  0  0  0  0
    7.6576    2.1416   24.3553 C   0  0  0  0  0  0  0  0  0  0  0  0
    7.0943    2.6362   23.3873 O   0  0  0  0  0  0  0  0  0  0  0  0
    6.9141    1.3364   25.4270 C   0  0  0  0  0  0  0  0  0  0  0  0
    7.0892   -0.0914   25.2426 N   0  0  0  0  0  0  0  0  0  0  0  0
    8.1865   -0.7603   25.7456 C   0  0  0  0  0  0  0  0  0  0  0  0
    9.1039   -0.2327   26.3575 O   0  0  0  0  0  0  0  0  0  0  0  0
    8.0180   -2.1860   25.3309 C   0  0  0  0  0  0  0  0  0  0  0  0
    8.5736   -3.2895   25.9163 C   0  0  0  0  0  0  0  0  0  0  0  0
    8.1057   -4.5718   25.5406 C   0  0  0  0  0  0  0  0  0  0  0  0
    7.0614   -4.6930   24.6684 C   0  0  0  0  0  0  0  0  0  0  0  0
    6.4714   -6.2639   24.2410 Cl  0  0  0  0  0  0  0  0  0  0  0  0
    6.2762   -3.5619   24.1159 C   0  0  0  0  0  0  0  0  0  0  0  0
    7.0225   -2.2482   24.2699 C   0  0  1  0  0  0  0  0  0  0  0  0
    6.4023   -0.8776   24.2598 C   0  0  2  0  0  0  0  0  0  0  0  0
    7.1735   -1.3551   23.0369 C   0  0  2  0  0  0  0  0  0  0  0  0
    6.2919   -1.4662   21.8171 C   0  0  0  0  0  0  0  0  0  0  0  0
    5.2814   -2.1239   21.6632 O   0  0  0  0  0  0  0  0  0  0  0  0
    6.7878   -0.5699   20.8882 N   0  0  0  0  0  0  0  0  0  0  0  0
    5.9743   -0.0804   19.8423 C   0  0  0  0  0  0  0  0  0  0  0  0
    6.4132   -0.1854   18.5490 C   0  0  0  0  0  0  0  0  0  0  0  0
    5.7609    0.3120   17.4775 N   0  0  0  0  0  0  0  0  0  0  0  0
    4.6426    0.9552   17.7032 C   0  0  0  0  0  0  0  0  0  0  0  0
    4.0564    1.1087   18.9869 C   0  0  0  0  0  0  0  0  0  0  0  0
    2.8484    1.8329   19.1541 C   0  0  0  0  0  0  0  0  0  0  0  0
    2.2897    1.9812   20.3967 C   0  0  0  0  0  0  0  0  0  0  0  0
    2.9414    1.4296   21.5282 C   0  0  0  0  0  0  0  0  0  0  0  0
    4.1470    0.7836   21.3973 C   0  0  0  0  0  0  0  0  0  0  0  0
    4.7338    0.5894   20.1070 C   0  0  0  0  0  0  0  0  0  0  0  0
    4.6668    0.4176   22.2796 H   0  0  0  0  0  0  0  0  0  0  0  0
    2.5000    1.5771   22.5125 H   0  0  0  0  0  0  0  0  0  0  0  0
    1.3726    2.5505   20.5181 H   0  0  0  0  0  0  0  0  0  0  0  0
    2.3814    2.2517   18.2683 H   0  0  0  0  0  0  0  0  0  0  0  0
    4.1441    1.3993   16.8448 H   0  0  0  0  0  0  0  0  0  0  0  0
    7.3651   -0.6723   18.3519 H   0  0  0  0  0  0  0  0  0  0  0  0
    8.0548    0.0519   21.2833 C   0  0  0  0  0  0  0  0  0  0  0  0
    8.4024   -0.6920   22.5506 C   0  0  0  0  0  0  0  0  0  0  0  0
    9.6253   -0.7296   23.0776 C   0  0  0  0  0  0  0  0  0  0  0  0
   10.6076    0.0431   22.5760 F   0  0  0  0  0  0  0  0  0  0  0  0
    9.9511   -1.3640   23.8960 H   0  0  0  0  0  0  0  0  0  0  0  0
    7.9105    1.1231   21.4850 H   0  0  0  0  0  0  0  0  0  0  0  0
    8.8307   -0.0728   20.5235 H   0  0  0  0  0  0  0  0  0  0  0  0
    5.3408   -0.7028   24.1305 H   0  0  0  0  0  0  0  0  0  0  0  0
    6.0385   -3.7509   23.0622 H   0  0  0  0  0  0  0  0  0  0  0  0
    5.2935   -3.5218   24.6207 H   0  0  0  0  0  0  0  0  0  0  0  0
    8.5444   -5.4620   25.9869 H   0  0  0  0  0  0  0  0  0  0  0  0
    9.3451   -3.1722   26.6661 H   0  0  0  0  0  0  0  0  0  0  0  0
    7.2776    1.6023   26.4237 H   0  0  0  0  0  0  0  0  0  0  0  0
    5.8496    1.5828   25.3908 H   0  0  0  0  0  0  0  0  0  0  0  0
    9.4305    1.7146   25.2858 H   0  0  0  0  0  0  0  0  0  0  0  0
   10.8195    3.0377   23.9398 H   0  0  0  0  0  0  0  0  0  0  0  0
    9.6486    2.7155   22.6285 H   0  0  0  0  0  0  0  0  0  0  0  0
    9.4166    4.1183   23.7019 H   0  0  0  0  0  0  0  0  0  0  0  0
  1  2  1  0
  2  3  1  0
  3  4  2  0
  3  5  1  0
  5  6  1  0
  6  7  1  0
  7  8  2  0
  7  9  1  0
  9 10  2  0
 10 11  1  0
 11 12  2  0
 12 13  1  0
 12 14  1  0
 15 14  1  6
 15 16  1  0
 16 17  1  0
 17 18  1  6
 18 19  2  0
 18 20  1  0
 20 21  1  0
 21 22  2  0
 22 23  1  0
 23 24  2  0
 24 25  1  0
 25 26  2  0
 26 27  1  0
 27 28  2  0
 28 29  1  0
 29 30  2  0
 29 31  1  0
 28 32  1  0
 27 33  1  0
 26 34  1  0
 24 35  1  0
 22 36  1  0
 20 37  1  0
 37 38  1  0
 38 39  2  0
 39 40  1  0
 39 41  1  0
 37 42  1  0
 37 43  1  0
 16 44  1  6
 14 45  1  0
 14 46  1  0
 11 47  1  0
 10 48  1  0
  5 49  1  0
  5 50  1  0
  2 51  1  0
  1 52  1  0
  1 53  1  0
  1 54  1  0
 16  6  1  0
 38 17  1  0
 15  9  1  0
 30 21  1  0
 17 15  1  0
 30 25  1  0
M  END
>  <cnnaffinities>  (66) 
[6.40035]

>  <score>  (66) 
6.40035

>  <index>  (66) 
65

>  <Smiles>  (66) 
C(N(C(=O)C(N1C(=O)C2=C(C(=C(Cl)C([C@]32[C@@]1([C@@]13C(=O)N(c2c(nc(c3c(c(c(c(c23)[H])[H])[H])[H])[H])[H])C(/C/1=C(\F)/[H])([H])[H])[H])([H])[H])[H])[H])([H])[H])[H])([H])([H])[H]

>  <h>  (66) 
<NA>

>  <Training>  (66) 
True

>  <Success>  (66) 
True

>  <enamine_searched>  (66) 
False

>  <enamine_id>  (66) 
nan

$$$$

     RDKit          3D

 47 50  0  0  0  0  0  0  0  0999 V2000
    7.9500    1.6261   20.8690 O   0  0  0  0  0  0  0  0  0  0  0  0
    7.9926    0.5063   21.3509 C   0  0  0  0  0  0  0  0  0  0  0  0
    6.9168   -0.5399   20.9998 C   0  0  0  0  0  0  0  0  0  0  0  0
    5.9899   -0.0699   19.9024 C   0  0  0  0  0  0  0  0  0  0  0  0
    6.4042   -0.1739   18.5968 C   0  0  0  0  0  0  0  0  0  0  0  0
    5.7542    0.3148   17.5092 N   0  0  0  0  0  0  0  0  0  0  0  0
    4.6310    0.9478   17.7225 C   0  0  0  0  0  0  0  0  0  0  0  0
    4.0457    1.1064   19.0045 C   0  0  0  0  0  0  0  0  0  0  0  0
    2.7993    1.7664   19.1709 C   0  0  0  0  0  0  0  0  0  0  0  0
    2.2142    1.8444   20.4018 C   0  0  0  0  0  0  0  0  0  0  0  0
    2.8555    1.2593   21.5158 C   0  0  0  0  0  0  0  0  0  0  0  0
    4.0809    0.6497   21.3864 C   0  0  0  0  0  0  0  0  0  0  0  0
    4.7235    0.5594   20.1263 C   0  0  0  0  0  0  0  0  0  0  0  0
    4.5616    0.2212   22.2561 H   0  0  0  0  0  0  0  0  0  0  0  0
    2.3746    1.3037   22.4847 H   0  0  0  0  0  0  0  0  0  0  0  0
    1.2612    2.3553   20.5320 H   0  0  0  0  0  0  0  0  0  0  0  0
    2.3133    2.1847   18.2922 H   0  0  0  0  0  0  0  0  0  0  0  0
    4.1338    1.3832   16.8525 H   0  0  0  0  0  0  0  0  0  0  0  0
    7.3659   -0.6297   18.3691 H   0  0  0  0  0  0  0  0  0  0  0  0
    6.3760   -0.8477   21.9026 H   0  0  0  0  0  0  0  0  0  0  0  0
    7.4618   -1.4268   20.6453 H   0  0  0  0  0  0  0  0  0  0  0  0
    9.0254    0.1286   22.1998 N   0  0  0  0  0  0  0  0  0  0  0  0
    9.2675   -1.2583   22.6077 C   0  0  0  0  0  0  0  0  0  0  0  0
   10.0845   -1.2912   23.9002 C   0  0  0  0  0  0  0  0  0  0  0  0
   11.4329   -0.5763   23.7519 C   0  0  1  0  0  0  0  0  0  0  0  0
   12.4409   -1.3534   22.8913 C   0  0  0  0  0  0  0  0  0  0  0  0
   13.7795   -0.6184   22.8118 C   0  0  0  0  0  0  0  0  0  0  0  0
   13.5958    0.7667   22.2184 C   0  0  0  0  0  0  0  0  0  0  0  0
   14.7782    1.4579   22.2778 F   0  0  0  0  0  0  0  0  0  0  0  0
   13.3244    0.6267   20.8798 F   0  0  0  0  0  0  0  0  0  0  0  0
   12.5066    1.6012   22.8860 C   0  0  0  0  0  0  0  0  0  0  0  0
   11.1965    0.8470   23.2058 C   0  0  1  0  0  0  0  0  0  0  0  0
   10.2899    0.8258   21.9774 C   0  0  0  0  0  0  0  0  0  0  0  0
   10.8170    0.3183   21.1596 H   0  0  0  0  0  0  0  0  0  0  0  0
   10.0603    1.8473   21.6633 H   0  0  0  0  0  0  0  0  0  0  0  0
   10.6746    1.4122   23.9860 H   0  0  0  0  0  0  0  0  0  0  0  0
   12.2833    2.4540   22.2333 H   0  0  0  0  0  0  0  0  0  0  0  0
   12.9453    2.0068   23.8025 H   0  0  0  0  0  0  0  0  0  0  0  0
   14.4859   -1.1720   22.1898 H   0  0  0  0  0  0  0  0  0  0  0  0
   14.2166   -0.5036   23.8098 H   0  0  0  0  0  0  0  0  0  0  0  0
   12.0529   -1.4922   21.8756 H   0  0  0  0  0  0  0  0  0  0  0  0
   12.5917   -2.3567   23.3061 H   0  0  0  0  0  0  0  0  0  0  0  0
   11.8756   -0.4874   24.7528 H   0  0  0  0  0  0  0  0  0  0  0  0
    9.5015   -0.8150   24.6981 H   0  0  0  0  0  0  0  0  0  0  0  0
   10.2420   -2.3286   24.2193 H   0  0  0  0  0  0  0  0  0  0  0  0
    8.3255   -1.7849   22.7693 H   0  0  0  0  0  0  0  0  0  0  0  0
    9.8122   -1.7976   21.8105 H   0  0  0  0  0  0  0  0  0  0  0  0
  1  2  2  0
  2  3  1  0
  3  4  1  0
  4  5  2  0
  5  6  1  0
  6  7  2  0
  7  8  1  0
  8  9  2  0
  9 10  1  0
 10 11  2  0
 11 12  1  0
 12 13  2  0
 12 14  1  0
 11 15  1  0
 10 16  1  0
  9 17  1  0
  7 18  1  0
  5 19  1  0
  3 20  1  0
  3 21  1  0
  2 22  1  0
 22 23  1  0
 23 24  1  0
 24 25  1  0
 25 26  1  0
 26 27  1  0
 27 28  1  0
 28 29  1  0
 28 30  1  0
 28 31  1  0
 31 32  1  0
 32 33  1  0
 33 34  1  0
 33 35  1  0
 32 36  1  1
 31 37  1  0
 31 38  1  0
 27 39  1  0
 27 40  1  0
 26 41  1  0
 26 42  1  0
 25 43  1  1
 24 44  1  0
 24 45  1  0
 23 46  1  0
 23 47  1  0
 13  4  1  0
 33 22  1  0
 13  8  1  0
 32 25  1  0
M  END
>  <cnnaffinities>  (67) 
[6.03918, 5.7905, 5.79055]

>  <score>  (67) 
6.03918

>  <index>  (67) 
66

>  <Smiles>  (67) 
O=C(C(c1c(nc(c2c(c(c(c(c12)[H])[H])[H])[H])[H])[H])([H])[H])N1C(C([C@]2(C(C(C(F)(F)C([C@]2(C1([H])[H])[H])([H])[H])([H])[H])([H])[H])[H])([H])[H])([H])[H]

>  <h>  (67) 
<NA>

>  <Training>  (67) 
True

>  <Success>  (67) 
True

>  <enamine_searched>  (67) 
False

>  <enamine_id>  (67) 
nan

$$$$

     RDKit          3D

 69 74  0  0  0  0  0  0  0  0999 V2000
   10.0448    4.4347   22.2272 C   0  0  0  0  0  0  0  0  0  0  0  0
    8.9778    3.4455   21.9320 N   0  0  0  0  0  4  0  0  0  0  0  0
    8.0322    3.2288   23.0620 C   0  0  0  0  0  0  0  0  0  0  0  0
    8.6978    2.5082   24.2417 C   0  0  0  0  0  0  0  0  0  0  0  0
    9.2944    1.2510   23.8248 N   0  0  0  0  0  0  0  0  0  0  0  0
    8.4534    0.0776   23.6944 C   0  0  0  0  0  0  0  0  0  0  0  0
    8.6877   -0.6535   22.3428 C   0  0  2  0  0  0  0  0  0  0  0  0
    8.0610    0.1764   21.1886 C   0  0  0  0  0  0  0  0  0  0  0  0
    8.5724    1.1518   20.6526 O   0  0  0  0  0  0  0  0  0  0  0  0
    6.7988   -0.3067   20.9224 N   0  0  0  0  0  0  0  0  0  0  0  0
    5.9725    0.1365   19.8511 C   0  0  0  0  0  0  0  0  0  0  0  0
    6.4442    0.1481   18.5604 C   0  0  0  0  0  0  0  0  0  0  0  0
    5.7208    0.5274   17.4789 N   0  0  0  0  0  0  0  0  0  0  0  0
    4.5005    0.9675   17.6804 C   0  0  0  0  0  0  0  0  0  0  0  0
    3.8617    0.9749   18.9524 C   0  0  0  0  0  0  0  0  0  0  0  0
    2.5436    1.4842   19.1193 C   0  0  0  0  0  0  0  0  0  0  0  0
    1.9434    1.4513   20.3461 C   0  0  0  0  0  0  0  0  0  0  0  0
    2.6349    0.9123   21.4546 C   0  0  0  0  0  0  0  0  0  0  0  0
    3.9204    0.4382   21.3183 C   0  0  0  0  0  0  0  0  0  0  0  0
    4.5890    0.4890   20.0649 C   0  0  0  0  0  0  0  0  0  0  0  0
    4.4369    0.0520   22.1871 H   0  0  0  0  0  0  0  0  0  0  0  0
    2.1406    0.8734   22.4202 H   0  0  0  0  0  0  0  0  0  0  0  0
    0.9350    1.8381   20.4733 H   0  0  0  0  0  0  0  0  0  0  0  0
    2.0506    1.9282   18.2542 H   0  0  0  0  0  0  0  0  0  0  0  0
    3.9480    1.3021   16.8030 H   0  0  0  0  0  0  0  0  0  0  0  0
    7.4620   -0.1802   18.3482 H   0  0  0  0  0  0  0  0  0  0  0  0
    6.5026   -1.5283   21.6598 C   0  0  0  0  0  0  0  0  0  0  0  0
    7.8539   -1.9548   22.2487 C   0  0  2  0  0  0  0  0  0  0  0  0
    7.7061   -2.7488   23.5455 C   0  0  0  0  0  0  0  0  0  0  0  0
    7.0071   -3.9543   23.3179 O   0  0  0  0  0  0  0  0  0  0  0  0
    7.8263   -5.0958   23.3012 C   0  0  0  0  0  0  0  0  0  0  0  0
    6.9987   -6.2780   22.9004 C   0  0  0  0  0  0  0  0  0  0  0  0
    6.0080   -6.5616   23.8080 F   0  0  0  0  0  0  0  0  0  0  0  0
    7.6227   -7.4451   22.2347 C   0  0  0  0  0  0  0  0  0  0  0  0
    6.6919   -6.5264   21.4671 C   0  0  0  0  0  0  0  0  0  0  0  0
    7.1236   -5.8462   20.7387 H   0  0  0  0  0  0  0  0  0  0  0  0
    5.7001   -6.9022   21.2370 H   0  0  0  0  0  0  0  0  0  0  0  0
    7.2207   -8.4119   22.5169 H   0  0  0  0  0  0  0  0  0  0  0  0
    8.6875   -7.4145   22.0183 H   0  0  0  0  0  0  0  0  0  0  0  0
    8.2701   -5.2801   24.2921 H   0  0  0  0  0  0  0  0  0  0  0  0
    8.6528   -4.9651   22.5807 H   0  0  0  0  0  0  0  0  0  0  0  0
    7.1076   -2.1742   24.2668 H   0  0  0  0  0  0  0  0  0  0  0  0
    8.6906   -2.9422   24.0050 H   0  0  0  0  0  0  0  0  0  0  0  0
    8.3304   -2.6090   21.5164 H   0  0  0  0  0  0  0  0  0  0  0  0
    5.7872   -1.3541   22.4701 H   0  0  0  0  0  0  0  0  0  0  0  0
    6.0821   -2.2685   20.9762 H   0  0  0  0  0  0  0  0  0  0  0  0
   10.1814   -0.8555   22.1885 C   0  0  0  0  0  0  0  0  0  0  0  0
   10.7027   -1.8347   21.3322 C   0  0  0  0  0  0  0  0  0  0  0  0
   12.0703   -1.9663   21.1729 C   0  0  0  0  0  0  0  0  0  0  0  0
   12.6539   -3.0716   19.9566 Cl  0  0  0  0  0  0  0  0  0  0  0  0
   12.9760   -1.2131   21.9201 C   0  0  0  0  0  0  0  0  0  0  0  0
   12.4737   -0.2283   22.7494 C   0  0  0  0  0  0  0  0  0  0  0  0
   11.0986   -0.0222   22.8483 C   0  0  0  0  0  0  0  0  0  0  0  0
   10.6381    1.1726   23.6220 C   0  0  0  0  0  0  0  0  0  0  0  0
   11.4258    2.0374   23.9990 O   0  0  0  0  0  0  0  0  0  0  0  0
   13.1219    0.4265   23.3242 H   0  0  0  0  0  0  0  0  0  0  0  0
   14.0402   -1.3959   21.8303 H   0  0  0  0  0  0  0  0  0  0  0  0
   10.0671   -2.5022   20.7596 H   0  0  0  0  0  0  0  0  0  0  0  0
    8.6854   -0.6116   24.5197 H   0  0  0  0  0  0  0  0  0  0  0  0
    7.4031    0.3782   23.7870 H   0  0  0  0  0  0  0  0  0  0  0  0
    7.9501    2.2951   25.0141 H   0  0  0  0  0  0  0  0  0  0  0  0
    9.4959    3.1117   24.6797 H   0  0  0  0  0  0  0  0  0  0  0  0
    7.2039    2.6290   22.6766 H   0  0  0  0  0  0  0  0  0  0  0  0
    7.6211    4.1886   23.3957 H   0  0  0  0  0  0  0  0  0  0  0  0
    8.4599    3.7757   21.0973 H   0  0  0  0  0  0  0  0  0  0  0  0
    9.3598    2.5295   21.6412 H   0  0  0  0  0  0  0  0  0  0  0  0
   10.8166    3.9988   22.8600 H   0  0  0  0  0  0  0  0  0  0  0  0
    9.6153    5.2995   22.7464 H   0  0  0  0  0  0  0  0  0  0  0  0
   10.5011    4.7796   21.2989 H   0  0  0  0  0  0  0  0  0  0  0  0
  1  2  1  0
  2  3  1  0
  3  4  1  0
  4  5  1  0
  5  6  1  0
  7  6  1  1
  7  8  1  0
  8  9  2  0
  8 10  1  0
 10 11  1  0
 11 12  2  0
 12 13  1  0
 13 14  2  0
 14 15  1  0
 15 16  2  0
 16 17  1  0
 17 18  2  0
 18 19  1  0
 19 20  2  0
 19 21  1  0
 18 22  1  0
 17 23  1  0
 16 24  1  0
 14 25  1  0
 12 26  1  0
 10 27  1  0
 27 28  1  0
 28 29  1  0
 29 30  1  0
 30 31  1  0
 31 32  1  0
 32 33  1  0
 32 34  1  0
 34 35  1  0
 35 36  1  0
 35 37  1  0
 34 38  1  0
 34 39  1  0
 31 40  1  0
 31 41  1  0
 29 42  1  0
 29 43  1  0
 28 44  1  6
 27 45  1  0
 27 46  1  0
  7 47  1  0
 47 48  2  0
 48 49  1  0
 49 50  1  0
 49 51  2  0
 51 52  1  0
 52 53  2  0
 53 54  1  0
 54 55  2  0
 52 56  1  0
 51 57  1  0
 48 58  1  0
  6 59  1  0
  6 60  1  0
  4 61  1  0
  4 62  1  0
  3 63  1  0
  3 64  1  0
  2 65  1  0
  2 66  1  0
  1 67  1  0
  1 68  1  0
  1 69  1  0
 54  5  1  0
 28  7  1  0
 35 32  1  0
 53 47  1  0
 20 11  1  0
 20 15  1  0
M  CHG  1   2   1
M  END
>  <cnnaffinities>  (68) 
[6.80528]

>  <score>  (68) 
6.80528

>  <index>  (68) 
67

>  <Smiles>  (68) 
C([N+](C(C(N1C([C@@]2(C(=O)N(c3c(nc(c4c(c(c(c(c34)[H])[H])[H])[H])[H])[H])C([C@@]2(C(OC(C2(F)C(C2([H])[H])([H])[H])([H])[H])([H])[H])[H])([H])[H])c2c(c(Cl)c(c(c2C1=O)[H])[H])[H])([H])[H])([H])[H])([H])[H])([H])[H])([H])([H])[H]

>  <h>  (68) 
<NA>

>  <Training>  (68) 
True

>  <Success>  (68) 
True

>  <enamine_searched>  (68) 
False

>  <enamine_id>  (68) 
nan

$$$$

     RDKit          3D

 57 62  0  0  0  0  0  0  0  0999 V2000
    5.5536   -5.6598   26.5426 C   0  0  0  0  0  0  0  0  0  0  0  0
    6.3586   -4.4047   26.5901 C   0  0  0  0  0  0  0  0  0  0  0  0
    5.9829   -3.1637   26.4864 N   0  0  0  0  0  0  0  0  0  0  0  0
    7.1807   -2.4939   26.5095 C   0  0  0  0  0  0  0  0  0  0  0  0
    7.2941   -0.9973   26.4200 C   0  0  0  0  0  0  0  0  0  0  0  0
    8.1156   -0.5685   25.3024 N   0  0  0  0  0  0  0  0  0  0  0  0
    7.4907   -0.1141   24.0636 C   0  0  0  0  0  0  0  0  0  0  0  0
    8.2969   -0.4755   22.7867 C   0  0  2  0  0  0  0  0  0  0  0  0
    7.6636    0.3806   21.6631 C   0  0  0  0  0  0  0  0  0  0  0  0
    7.7857    1.5768   21.4949 O   0  0  0  0  0  0  0  0  0  0  0  0
    6.8466   -0.4324   20.9054 N   0  0  0  0  0  0  0  0  0  0  0  0
    6.0213    0.0393   19.8556 C   0  0  0  0  0  0  0  0  0  0  0  0
    6.4133   -0.1674   18.5578 C   0  0  0  0  0  0  0  0  0  0  0  0
    5.7487    0.2896   17.4716 N   0  0  0  0  0  0  0  0  0  0  0  0
    4.6409    0.9511   17.6871 C   0  0  0  0  0  0  0  0  0  0  0  0
    4.0738    1.1634   18.9746 C   0  0  0  0  0  0  0  0  0  0  0  0
    2.8444    1.8525   19.1341 C   0  0  0  0  0  0  0  0  0  0  0  0
    2.2646    1.9629   20.3681 C   0  0  0  0  0  0  0  0  0  0  0  0
    2.8956    1.3917   21.4989 C   0  0  0  0  0  0  0  0  0  0  0  0
    4.1101    0.7601   21.3740 C   0  0  0  0  0  0  0  0  0  0  0  0
    4.7519    0.6558   20.1063 C   0  0  0  0  0  0  0  0  0  0  0  0
    4.5936    0.3339   22.2465 H   0  0  0  0  0  0  0  0  0  0  0  0
    2.4281    1.4947   22.4733 H   0  0  0  0  0  0  0  0  0  0  0  0
    1.3286    2.4997   20.4849 H   0  0  0  0  0  0  0  0  0  0  0  0
    2.3689    2.2505   18.2440 H   0  0  0  0  0  0  0  0  0  0  0  0
    4.1384    1.3690   16.8148 H   0  0  0  0  0  0  0  0  0  0  0  0
    7.3464   -0.6865   18.3519 H   0  0  0  0  0  0  0  0  0  0  0  0
    6.8533   -1.8234   21.2788 C   0  0  0  0  0  0  0  0  0  0  0  0
    8.0448   -1.9318   22.2403 C   0  0  2  0  0  0  0  0  0  0  0  0
    7.7987   -3.0192   23.2729 C   0  0  0  0  0  0  0  0  0  0  0  0
    8.5904   -3.0371   24.0244 H   0  0  0  0  0  0  0  0  0  0  0  0
    6.8448   -2.8566   23.7894 H   0  0  0  0  0  0  0  0  0  0  0  0
    7.7462   -3.9978   22.7820 H   0  0  0  0  0  0  0  0  0  0  0  0
    8.9371   -2.1878   21.6521 H   0  0  0  0  0  0  0  0  0  0  0  0
    6.9501   -2.4563   20.3912 H   0  0  0  0  0  0  0  0  0  0  0  0
    5.9098   -2.1164   21.7695 H   0  0  0  0  0  0  0  0  0  0  0  0
    9.7701   -0.1612   23.0573 C   0  0  0  0  0  0  0  0  0  0  0  0
   10.6674    0.1084   22.0128 C   0  0  0  0  0  0  0  0  0  0  0  0
   12.0075    0.3313   22.2877 C   0  0  0  0  0  0  0  0  0  0  0  0
   12.8601    0.6582   21.3027 F   0  0  0  0  0  0  0  0  0  0  0  0
   12.5383    0.2337   23.5685 C   0  0  0  0  0  0  0  0  0  0  0  0
   11.6662   -0.0386   24.5999 C   0  0  0  0  0  0  0  0  0  0  0  0
   10.3019   -0.1827   24.3563 C   0  0  0  0  0  0  0  0  0  0  0  0
    9.4458   -0.3675   25.5549 C   0  0  0  0  0  0  0  0  0  0  0  0
    9.9137   -0.3516   26.6877 O   0  0  0  0  0  0  0  0  0  0  0  0
   12.0128   -0.1413   25.6233 H   0  0  0  0  0  0  0  0  0  0  0  0
   13.5985    0.3767   23.7357 H   0  0  0  0  0  0  0  0  0  0  0  0
   10.3229    0.1512   20.9870 H   0  0  0  0  0  0  0  0  0  0  0  0
    7.3831    0.9810   24.0752 H   0  0  0  0  0  0  0  0  0  0  0  0
    6.4841   -0.5495   23.9994 H   0  0  0  0  0  0  0  0  0  0  0  0
    6.2944   -0.5678   26.3317 H   0  0  0  0  0  0  0  0  0  0  0  0
    7.7764   -0.6141   27.3250 H   0  0  0  0  0  0  0  0  0  0  0  0
    8.2297   -3.2647   26.6289 N   0  0  0  0  0  0  0  0  0  0  0  0
    7.6806   -4.5401   26.7130 O   0  0  0  0  0  0  0  0  0  0  0  0
    5.0443   -5.8400   27.4929 H   0  0  0  0  0  0  0  0  0  0  0  0
    6.2188   -6.4924   26.3201 H   0  0  0  0  0  0  0  0  0  0  0  0
    4.7937   -5.5919   25.7623 H   0  0  0  0  0  0  0  0  0  0  0  0
  1  2  1  0
  2  3  2  0
  3  4  1  0
  4  5  1  0
  5  6  1  0
  6  7  1  0
  8  7  1  1
  8  9  1  0
  9 10  2  0
  9 11  1  0
 11 12  1  0
 12 13  2  0
 13 14  1  0
 14 15  2  0
 15 16  1  0
 16 17  2  0
 17 18  1  0
 18 19  2  0
 19 20  1  0
 20 21  2  0
 20 22  1  0
 19 23  1  0
 18 24  1  0
 17 25  1  0
 15 26  1  0
 13 27  1  0
 11 28  1  0
 28 29  1  0
 29 30  1  0
 30 31  1  0
 30 32  1  0
 30 33  1  0
 29 34  1  6
 28 35  1  0
 28 36  1  0
  8 37  1  0
 37 38  2  0
 38 39  1  0
 39 40  1  0
 39 41  2  0
 41 42  1  0
 42 43  2  0
 43 44  1  0
 44 45  2  0
 42 46  1  0
 41 47  1  0
 38 48  1  0
  7 49  1  0
  7 50  1  0
  5 51  1  0
  5 52  1  0
  4 53  2  0
 53 54  1  0
  1 55  1  0
  1 56  1  0
  1 57  1  0
 54  2  1  0
 44  6  1  0
 29  8  1  0
 43 37  1  0
 21 12  1  0
 21 16  1  0
M  END
>  <cnnaffinities>  (69) 
[6.48613]

>  <score>  (69) 
6.48613

>  <index>  (69) 
68

>  <Smiles>  (69) 
C(c1nc(C(N2C([C@@]3(C(=O)N(c4c(nc(c5c(c(c(c(c45)[H])[H])[H])[H])[H])[H])C([C@@]3(C([H])([H])[H])[H])([H])[H])c3c(c(F)c(c(c3C2=O)[H])[H])[H])([H])[H])([H])[H])no1)([H])([H])[H]

>  <h>  (69) 
<NA>

>  <Training>  (69) 
True

>  <Success>  (69) 
True

>  <enamine_searched>  (69) 
False

>  <enamine_id>  (69) 
nan

$$$$

     RDKit          3D

 64 68  0  0  0  0  0  0  0  0999 V2000
    8.0072    2.3214   23.8073 C   0  0  0  0  0  0  0  0  0  0  0  0
    8.7603    2.0636   25.1147 C   0  0  0  0  0  0  0  0  0  0  0  0
    8.9205    0.5727   25.2624 C   0  0  0  0  0  0  0  0  0  0  0  0
    8.0377   -0.1031   25.7460 O   0  0  0  0  0  0  0  0  0  0  0  0
   10.0760   -0.0012   24.7178 N   0  0  0  0  0  0  0  0  0  0  0  0
   11.4114    0.5896   24.7969 C   0  0  0  0  0  0  0  0  0  0  0  0
   12.4019   -0.5327   25.0759 C   0  0  0  0  0  0  0  0  0  0  0  0
   12.4264   -1.4386   23.8484 C   0  0  0  0  0  0  0  0  0  0  0  0
   11.0234   -1.8121   23.4007 C   0  0  0  0  0  0  0  0  0  0  0  0
   10.8080   -2.8393   22.4838 C   0  0  0  0  0  0  0  0  0  0  0  0
    9.5403   -3.1627   22.0145 C   0  0  0  0  0  0  0  0  0  0  0  0
    8.4363   -2.4439   22.4699 C   0  0  0  0  0  0  0  0  0  0  0  0
    7.1227   -2.7965   22.0149 N   0  0  0  0  0  0  0  0  0  0  0  0
    6.5560   -4.0686   22.4695 C   0  0  0  0  0  0  0  0  0  0  0  0
    5.9505   -3.9592   23.8572 C   0  0  0  0  0  0  0  0  0  0  0  0
    4.5816   -3.7461   24.0278 C   0  0  0  0  0  0  0  0  0  0  0  0
    4.0433   -3.6425   25.3064 C   0  0  0  0  0  0  0  0  0  0  0  0
    4.8648   -3.7463   26.4254 C   0  0  0  0  0  0  0  0  0  0  0  0
    6.2305   -3.9388   26.2439 C   0  0  0  0  0  0  0  0  0  0  0  0
    7.2629   -4.1200   27.6349 Cl  0  0  0  0  0  0  0  0  0  0  0  0
    6.7833   -4.0166   24.9734 C   0  0  0  0  0  0  0  0  0  0  0  0
    7.8628   -4.1002   24.8515 H   0  0  0  0  0  0  0  0  0  0  0  0
    4.4623   -3.6627   27.4301 H   0  0  0  0  0  0  0  0  0  0  0  0
    2.9740   -3.4877   25.4366 H   0  0  0  0  0  0  0  0  0  0  0  0
    3.9498   -3.6457   23.1489 H   0  0  0  0  0  0  0  0  0  0  0  0
    5.7914   -4.3598   21.7434 H   0  0  0  0  0  0  0  0  0  0  0  0
    7.3658   -4.8074   22.4623 H   0  0  0  0  0  0  0  0  0  0  0  0
    6.2378   -1.9221   21.4159 C   0  0  0  0  0  0  0  0  0  0  0  0
    5.0623   -2.2082   21.2730 O   0  0  0  0  0  0  0  0  0  0  0  0
    6.8019   -0.5882   20.9051 C   0  0  0  0  0  0  0  0  0  0  0  0
    5.9628   -0.0075   19.8088 C   0  0  0  0  0  0  0  0  0  0  0  0
    6.3769   -0.1191   18.5045 C   0  0  0  0  0  0  0  0  0  0  0  0
    5.7146    0.3576   17.4245 N   0  0  0  0  0  0  0  0  0  0  0  0
    4.5835    0.9859   17.6475 C   0  0  0  0  0  0  0  0  0  0  0  0
    4.0329    1.1640   18.9492 C   0  0  0  0  0  0  0  0  0  0  0  0
    2.7934    1.8100   19.1655 C   0  0  0  0  0  0  0  0  0  0  0  0
    2.1640    2.3172   18.0903 F   0  0  0  0  0  0  0  0  0  0  0  0
    2.2135    1.9018   20.3949 C   0  0  0  0  0  0  0  0  0  0  0  0
    2.8694    1.3176   21.4934 C   0  0  0  0  0  0  0  0  0  0  0  0
    4.0743    0.6785   21.3435 C   0  0  0  0  0  0  0  0  0  0  0  0
    4.7069    0.6217   20.0683 C   0  0  0  0  0  0  0  0  0  0  0  0
    4.5208    0.1824   22.1945 H   0  0  0  0  0  0  0  0  0  0  0  0
    2.4252    1.4015   22.4788 H   0  0  0  0  0  0  0  0  0  0  0  0
    1.2760    2.4317   20.5090 H   0  0  0  0  0  0  0  0  0  0  0  0
    4.0510    1.3945   16.7907 H   0  0  0  0  0  0  0  0  0  0  0  0
    7.3120   -0.6252   18.2632 H   0  0  0  0  0  0  0  0  0  0  0  0
    6.8592    0.1303   21.7358 H   0  0  0  0  0  0  0  0  0  0  0  0
    7.8290   -0.7548   20.5608 H   0  0  0  0  0  0  0  0  0  0  0  0
    8.6127   -1.4392   23.4074 C   0  0  0  0  0  0  0  0  0  0  0  0
    9.8994   -1.1042   23.8587 C   0  0  0  0  0  0  0  0  0  0  0  0
    7.7450   -0.9133   23.7887 H   0  0  0  0  0  0  0  0  0  0  0  0
    9.3790   -3.9646   21.3009 H   0  0  0  0  0  0  0  0  0  0  0  0
   11.6530   -3.4095   22.1156 H   0  0  0  0  0  0  0  0  0  0  0  0
   13.0327   -2.3346   24.0333 H   0  0  0  0  0  0  0  0  0  0  0  0
   12.9416   -0.9056   23.0334 H   0  0  0  0  0  0  0  0  0  0  0  0
   13.4060   -0.1626   25.3143 H   0  0  0  0  0  0  0  0  0  0  0  0
   12.0420   -1.0856   25.9482 H   0  0  0  0  0  0  0  0  0  0  0  0
   11.6606    1.0838   23.8461 H   0  0  0  0  0  0  0  0  0  0  0  0
   11.4302    1.3481   25.5765 H   0  0  0  0  0  0  0  0  0  0  0  0
    9.7330    2.5575   25.0884 H   0  0  0  0  0  0  0  0  0  0  0  0
    8.1864    2.4156   25.9760 H   0  0  0  0  0  0  0  0  0  0  0  0
    7.8577    3.3925   23.6557 H   0  0  0  0  0  0  0  0  0  0  0  0
    7.0265    1.8338   23.8300 H   0  0  0  0  0  0  0  0  0  0  0  0
    8.5739    1.9293   22.9551 H   0  0  0  0  0  0  0  0  0  0  0  0
  1  2  1  0
  2  3  1  0
  3  4  2  0
  3  5  1  0
  5  6  1  0
  6  7  1  0
  7  8  1  0
  8  9  1  0
  9 10  2  0
 10 11  1  0
 11 12  2  0
 12 13  1  0
 13 14  1  0
 14 15  1  0
 15 16  2  0
 16 17  1  0
 17 18  2  0
 18 19  1  0
 19 20  1  0
 19 21  2  0
 21 22  1  0
 18 23  1  0
 17 24  1  0
 16 25  1  0
 14 26  1  0
 14 27  1  0
 13 28  1  0
 28 29  2  0
 28 30  1  0
 30 31  1  0
 31 32  2  0
 32 33  1  0
 33 34  2  0
 34 35  1  0
 35 36  2  0
 36 37  1  0
 36 38  1  0
 38 39  2  0
 39 40  1  0
 40 41  2  0
 40 42  1  0
 39 43  1  0
 38 44  1  0
 34 45  1  0
 32 46  1  0
 30 47  1  0
 30 48  1  0
 12 49  1  0
 49 50  2  0
 49 51  1  0
 11 52  1  0
 10 53  1  0
  8 54  1  0
  8 55  1  0
  7 56  1  0
  7 57  1  0
  6 58  1  0
  6 59  1  0
  2 60  1  0
  2 61  1  0
  1 62  1  0
  1 63  1  0
  1 64  1  0
 50  5  1  0
 50  9  1  0
 21 15  1  0
 41 31  1  0
 41 35  1  0
M  END
>  <cnnaffinities>  (70) 
[7.19231, 7.10046]

>  <score>  (70) 
7.19231

>  <index>  (70) 
69

>  <Smiles>  (70) 
C(C(C(=O)N1C(C(C(c2c(c(c(N(C(c3c(c(c(c(Cl)c3[H])[H])[H])[H])([H])[H])C(=O)C(c3c(nc(c4c(F)c(c(c(c34)[H])[H])[H])[H])[H])([H])[H])c(c12)[H])[H])[H])([H])[H])([H])[H])([H])[H])([H])[H])([H])([H])[H]

>  <h>  (70) 
<NA>

>  <Training>  (70) 
True

>  <Success>  (70) 
True

>  <enamine_searched>  (70) 
False

>  <enamine_id>  (70) 
nan

$$$$

     RDKit          3D

 57 62  0  0  0  0  0  0  0  0999 V2000
    7.2318   -2.9812   23.5053 C   0  0  0  0  0  0  0  0  0  0  0  0
    7.2910   -2.2990   22.1555 C   0  0  1  0  0  0  0  0  0  0  0  0
    6.0275   -1.5074   21.7928 C   0  0  0  0  0  0  0  0  0  0  0  0
    6.5004   -0.4675   20.8891 N   0  0  0  0  0  0  0  0  0  0  0  0
    5.7530    0.0644   19.8145 C   0  0  0  0  0  0  0  0  0  0  0  0
    6.2599    0.0464   18.5343 C   0  0  0  0  0  0  0  0  0  0  0  0
    5.6063    0.5105   17.4447 N   0  0  0  0  0  0  0  0  0  0  0  0
    4.4230    1.0367   17.6270 C   0  0  0  0  0  0  0  0  0  0  0  0
    3.7850    1.1341   18.8919 C   0  0  0  0  0  0  0  0  0  0  0  0
    2.5313    1.7807   19.0380 C   0  0  0  0  0  0  0  0  0  0  0  0
    1.9533    1.9022   20.2698 C   0  0  0  0  0  0  0  0  0  0  0  0
    2.6025    1.3777   21.4091 C   0  0  0  0  0  0  0  0  0  0  0  0
    3.8200    0.7533   21.2945 C   0  0  0  0  0  0  0  0  0  0  0  0
    4.4492    0.6211   20.0264 C   0  0  0  0  0  0  0  0  0  0  0  0
    4.3280    0.4108   22.1885 H   0  0  0  0  0  0  0  0  0  0  0  0
    2.1546    1.5009   22.3897 H   0  0  0  0  0  0  0  0  0  0  0  0
    1.0094    2.4266   20.3850 H   0  0  0  0  0  0  0  0  0  0  0  0
    2.0709    2.2053   18.1508 H   0  0  0  0  0  0  0  0  0  0  0  0
    3.9121    1.4315   16.7494 H   0  0  0  0  0  0  0  0  0  0  0  0
    7.2468   -0.3591   18.3330 H   0  0  0  0  0  0  0  0  0  0  0  0
    7.8611   -0.2449   21.0060 C   0  0  0  0  0  0  0  0  0  0  0  0
    8.4719    0.6497   20.4554 O   0  0  0  0  0  0  0  0  0  0  0  0
    8.4832   -1.3205   21.9149 C   0  0  1  0  0  0  0  0  0  0  0  0
    9.0827   -0.5989   23.1483 C   0  0  0  0  0  0  0  0  0  0  0  0
    9.9368   -1.3155   24.1174 N   0  0  0  0  0  0  0  0  0  0  0  0
    9.6514   -1.1174   25.5295 C   0  0  0  0  0  0  0  0  0  0  0  0
    8.8121   -2.2276   26.0891 C   0  0  0  0  0  0  0  0  0  0  0  0
    9.2212   -3.5177   26.0842 N   0  0  0  0  0  0  0  0  0  0  0  0
    8.3181   -4.1880   26.7519 N   0  0  0  0  0  0  0  0  0  0  0  0
    7.4077   -3.3183   27.1189 N   0  0  0  0  0  0  0  0  0  0  0  0
    6.3025   -3.6546   27.9883 C   0  0  0  0  0  0  0  0  0  0  0  0
    6.2174   -4.7411   28.0113 H   0  0  0  0  0  0  0  0  0  0  0  0
    5.3934   -3.2088   27.5829 H   0  0  0  0  0  0  0  0  0  0  0  0
    6.4955   -3.2698   28.9938 H   0  0  0  0  0  0  0  0  0  0  0  0
    7.6635   -2.0734   26.7347 N   0  0  0  0  0  0  0  0  0  0  0  0
    9.1514   -0.1572   25.6842 H   0  0  0  0  0  0  0  0  0  0  0  0
   10.6212   -1.0994   26.0361 H   0  0  0  0  0  0  0  0  0  0  0  0
   11.1993   -1.8466   23.8074 C   0  0  0  0  0  0  0  0  0  0  0  0
   12.1789   -1.7210   24.5212 O   0  0  0  0  0  0  0  0  0  0  0  0
   11.2559   -2.5823   22.5390 C   0  0  0  0  0  0  0  0  0  0  0  0
   12.5426   -2.4718   21.7474 C   0  0  0  0  0  0  0  0  0  0  0  0
   12.4836   -2.4991   20.3885 C   0  0  0  0  0  0  0  0  0  0  0  0
   12.5328   -2.6210   20.3055 C   0  0  0  0  0  0  0  0  0  0  0  0
   12.5612   -3.6534   19.3949 F   0  0  0  0  0  0  0  0  0  0  0  0
   10.2183   -2.8808   21.7445 C   0  0  0  0  0  0  0  0  0  0  0  0
    9.5321   -2.0727   21.0140 C   0  0  0  0  0  0  0  0  0  0  0  0
    9.1996   -2.0451   19.9707 H   0  0  0  0  0  0  0  0  0  0  0  0
   13.1046   -1.7709   19.4912 H   0  0  0  0  0  0  0  0  0  0  0  0
   13.2134   -1.7536   21.6209 H   0  0  0  0  0  0  0  0  0  0  0  0
    8.2305   -0.2158   23.7203 H   0  0  0  0  0  0  0  0  0  0  0  0
    9.6060    0.2846   22.7544 H   0  0  0  0  0  0  0  0  0  0  0  0
    5.5770   -1.0697   22.6931 H   0  0  0  0  0  0  0  0  0  0  0  0
    5.2679   -2.1221   21.2988 H   0  0  0  0  0  0  0  0  0  0  0  0
    7.3981   -3.0792   21.3948 H   0  0  0  0  0  0  0  0  0  0  0  0
    6.4875   -3.7873   23.4997 H   0  0  0  0  0  0  0  0  0  0  0  0
    6.9515   -2.2840   24.3039 H   0  0  0  0  0  0  0  0  0  0  0  0
    8.2091   -3.4104   23.7485 H   0  0  0  0  0  0  0  0  0  0  0  0
  1  2  1  0
  2  3  1  0
  3  4  1  0
  4  5  1  0
  5  6  2  0
  6  7  1  0
  7  8  2  0
  8  9  1  0
  9 10  2  0
 10 11  1  0
 11 12  2  0
 12 13  1  0
 13 14  2  0
 13 15  1  0
 12 16  1  0
 11 17  1  0
 10 18  1  0
  8 19  1  0
  6 20  1  0
  4 21  1  0
 21 22  2  0
 21 23  1  0
 23 24  1  1
 24 25  1  0
 25 26  1  0
 26 27  1  0
 27 28  1  0
 28 29  2  0
 29 30  1  0
 30 31  1  0
 31 32  1  0
 31 33  1  0
 31 34  1  0
 30 35  1  0
 26 36  1  0
 26 37  1  0
 25 38  1  0
 38 39  2  0
 38 40  1  0
 40 41  2  0
 41 42  1  0
 42 43  2  0
 43 44  1  0
 43 45  1  0
 45 46  2  0
 45 47  1  0
 42 48  1  0
 41 49  1  0
 24 50  1  0
 24 51  1  0
  3 52  1  0
  3 53  1  0
  2 54  1  6
  1 55  1  0
  1 56  1  0
  1 57  1  0
 23  2  1  0
 35 27  2  0
 46 40  1  0
 14  5  1  0
 46 23  1  0
 14  9  1  0
M  END
>  <cnnaffinities>  (71) 
[6.00721]

>  <score>  (71) 
6.00721

>  <index>  (71) 
70

>  <Smiles>  (71) 
C([C@]1(C(N(c2c(nc(c3c(c(c(c(c23)[H])[H])[H])[H])[H])[H])C(=O)[C@]21C(N(C(c1nnn(C([H])([H])[H])n1)([H])[H])C(=O)c1c(c(c(F)c(c21)[H])[H])[H])([H])[H])([H])[H])[H])([H])([H])[H]

>  <h>  (71) 
<NA>

>  <Training>  (71) 
True

>  <Success>  (71) 
True

>  <enamine_searched>  (71) 
False

>  <enamine_id>  (71) 
nan

$$$$

     RDKit          3D

 59 64  0  0  0  0  0  0  0  0999 V2000
    7.5663   -2.9662   23.5197 C   0  0  0  0  0  0  0  0  0  0  0  0
    7.7844   -2.0662   22.3242 C   0  0  1  0  0  0  0  0  0  0  0  0
    6.4784   -1.5563   21.7222 C   0  0  0  0  0  0  0  0  0  0  0  0
    6.8625   -0.3453   21.0191 N   0  0  0  0  0  0  0  0  0  0  0  0
    6.0876    0.1209   19.9242 C   0  0  0  0  0  0  0  0  0  0  0  0
    6.5771    0.0956   18.6408 C   0  0  0  0  0  0  0  0  0  0  0  0
    5.8715    0.4796   17.5466 N   0  0  0  0  0  0  0  0  0  0  0  0
    4.6576    0.9379   17.7229 C   0  0  0  0  0  0  0  0  0  0  0  0
    4.0111    1.0020   18.9883 C   0  0  0  0  0  0  0  0  0  0  0  0
    2.7044    1.5414   19.1325 C   0  0  0  0  0  0  0  0  0  0  0  0
    2.0982    1.5745   20.3597 C   0  0  0  0  0  0  0  0  0  0  0  0
    2.7817    1.0681   21.4899 C   0  0  0  0  0  0  0  0  0  0  0  0
    4.0600    0.5765   21.3776 C   0  0  0  0  0  0  0  0  0  0  0  0
    4.7219    0.5374   20.1200 C   0  0  0  0  0  0  0  0  0  0  0  0
    4.6045    0.2740   22.2643 H   0  0  0  0  0  0  0  0  0  0  0  0
    2.2984    1.0952   22.4624 H   0  0  0  0  0  0  0  0  0  0  0  0
    1.1080    2.0064   20.4745 H   0  0  0  0  0  0  0  0  0  0  0  0
    2.2323    1.9656   18.2504 H   0  0  0  0  0  0  0  0  0  0  0  0
    4.1140    1.2644   16.8337 H   0  0  0  0  0  0  0  0  0  0  0  0
    7.5827   -0.2680   18.4417 H   0  0  0  0  0  0  0  0  0  0  0  0
    8.1837    0.0141   21.2666 C   0  0  0  0  0  0  0  0  0  0  0  0
    8.7977    0.8449   20.6303 O   0  0  0  0  0  0  0  0  0  0  0  0
    8.6750   -0.7902   22.5116 C   0  0  1  0  0  0  0  0  0  0  0  0
    8.4157    0.0756   23.7626 C   0  0  0  0  0  0  0  0  0  0  0  0
    9.1047   -0.4099   24.9612 N   0  0  0  0  0  0  0  0  0  0  0  0
    8.5221   -0.1196   26.2624 C   0  0  0  0  0  0  0  0  0  0  0  0
    7.3881   -1.0164   26.6762 C   0  0  0  0  0  0  0  0  0  0  0  0
    6.2293   -0.5019   27.0257 N   0  0  0  0  0  0  0  0  0  0  0  0
    5.4108   -1.5668   27.2920 C   0  0  0  0  0  0  0  0  0  0  0  0
    6.0948   -2.7328   27.1135 C   0  0  0  0  0  0  0  0  0  0  0  0
    7.3776   -2.3858   26.7348 N   0  0  0  0  0  0  0  0  0  0  0  0
    8.4404   -3.3587   26.5061 C   0  0  0  0  0  0  0  0  0  0  0  0
    8.0596   -4.1605   25.8628 H   0  0  0  0  0  0  0  0  0  0  0  0
    9.3111   -2.8927   26.0358 H   0  0  0  0  0  0  0  0  0  0  0  0
    8.7518   -3.8330   27.4391 H   0  0  0  0  0  0  0  0  0  0  0  0
    5.7852   -3.7619   27.2077 H   0  0  0  0  0  0  0  0  0  0  0  0
    4.3728   -1.4159   27.5724 H   0  0  0  0  0  0  0  0  0  0  0  0
    8.0854    0.8859   26.2656 H   0  0  0  0  0  0  0  0  0  0  0  0
    9.3465   -0.1450   26.9853 H   0  0  0  0  0  0  0  0  0  0  0  0
   10.4605   -0.6428   24.9204 C   0  0  0  0  0  0  0  0  0  0  0  0
   11.1937   -0.5160   25.8917 O   0  0  0  0  0  0  0  0  0  0  0  0
   10.9638   -1.1465   23.6174 C   0  0  0  0  0  0  0  0  0  0  0  0
   12.2440   -1.7002   23.5697 C   0  0  0  0  0  0  0  0  0  0  0  0
   12.7297   -2.2418   22.3957 C   0  0  0  0  0  0  0  0  0  0  0  0
   11.9288   -2.1853   21.2617 C   0  0  0  0  0  0  0  0  0  0  0  0
   12.4221   -2.7056   20.1261 F   0  0  0  0  0  0  0  0  0  0  0  0
   10.6556   -1.6534   21.3009 C   0  0  0  0  0  0  0  0  0  0  0  0
   10.1414   -1.1504   22.4907 C   0  0  0  0  0  0  0  0  0  0  0  0
    9.9870   -1.6132   20.4585 H   0  0  0  0  0  0  0  0  0  0  0  0
   13.7002   -2.7177   22.3184 H   0  0  0  0  0  0  0  0  0  0  0  0
   12.8360   -1.7052   24.4785 H   0  0  0  0  0  0  0  0  0  0  0  0
    7.3498    0.1225   23.9865 H   0  0  0  0  0  0  0  0  0  0  0  0
    8.7421    1.0949   23.5114 H   0  0  0  0  0  0  0  0  0  0  0  0
    5.7504   -1.3622   22.5187 H   0  0  0  0  0  0  0  0  0  0  0  0
    6.0325   -2.2616   21.0143 H   0  0  0  0  0  0  0  0  0  0  0  0
    8.3027   -2.6438   21.5467 H   0  0  0  0  0  0  0  0  0  0  0  0
    8.5222   -3.3567   23.8794 H   0  0  0  0  0  0  0  0  0  0  0  0
    7.0654   -2.4280   24.3295 H   0  0  0  0  0  0  0  0  0  0  0  0
    6.9384   -3.8228   23.2468 H   0  0  0  0  0  0  0  0  0  0  0  0
  1  2  1  0
  2  3  1  0
  3  4  1  0
  4  5  1  0
  5  6  2  0
  6  7  1  0
  7  8  2  0
  8  9  1  0
  9 10  2  0
 10 11  1  0
 11 12  2  0
 12 13  1  0
 13 14  2  0
 13 15  1  0
 12 16  1  0
 11 17  1  0
 10 18  1  0
  8 19  1  0
  6 20  1  0
  4 21  1  0
 21 22  2  0
 21 23  1  0
 23 24  1  1
 24 25  1  0
 25 26  1  0
 26 27  1  0
 27 28  2  0
 28 29  1  0
 29 30  2  0
 30 31  1  0
 31 32  1  0
 32 33  1  0
 32 34  1  0
 32 35  1  0
 30 36  1  0
 29 37  1  0
 26 38  1  0
 26 39  1  0
 25 40  1  0
 40 41  2  0
 40 42  1  0
 42 43  2  0
 43 44  1  0
 44 45  2  0
 45 46  1  0
 45 47  1  0
 47 48  2  0
 47 49  1  0
 44 50  1  0
 43 51  1  0
 24 52  1  0
 24 53  1  0
  3 54  1  0
  3 55  1  0
  2 56  1  6
  1 57  1  0
  1 58  1  0
  1 59  1  0
 23  2  1  0
 31 27  1  0
 48 42  1  0
 14  5  1  0
 48 23  1  0
 14  9  1  0
M  END
>  <cnnaffinities>  (72) 
[6.31014, 6.3644]

>  <score>  (72) 
6.31014

>  <index>  (72) 
71

>  <Smiles>  (72) 
C([C@]1(C(N(c2c(nc(c3c(c(c(c(c23)[H])[H])[H])[H])[H])[H])C(=O)[C@]21C(N(C(c1nc(c(n1C([H])([H])[H])[H])[H])([H])[H])C(=O)c1c(c(c(F)c(c21)[H])[H])[H])([H])[H])([H])[H])[H])([H])([H])[H]

>  <h>  (72) 
<NA>

>  <Training>  (72) 
True

>  <Success>  (72) 
True

>  <enamine_searched>  (72) 
False

>  <enamine_id>  (72) 
nan

$$$$

     RDKit          3D

 60 64  0  0  0  0  0  0  0  0999 V2000
    7.8767   -8.5329   23.0343 C   0  0  0  0  0  0  0  0  0  0  0  0
    6.9285   -7.4742   22.7552 N   0  0  0  0  0  0  0  0  0  0  0  0
    7.1627   -6.6064   21.7358 C   0  0  0  0  0  0  0  0  0  0  0  0
    8.0318   -6.7827   20.8978 O   0  0  0  0  0  0  0  0  0  0  0  0
    6.2418   -5.3804   21.7576 C   0  0  0  0  0  0  0  0  0  0  0  0
    6.7123   -4.3868   22.7095 N   0  0  0  0  0  0  0  0  0  0  0  0
    7.7853   -3.4738   22.3384 C   0  0  0  0  0  0  0  0  0  0  0  0
    7.4054   -2.0119   22.6833 C   0  0  2  0  0  0  0  0  0  0  0  0
    6.3018   -1.5666   21.7179 C   0  0  0  0  0  0  0  0  0  0  0  0
    5.1974   -2.0636   21.6174 O   0  0  0  0  0  0  0  0  0  0  0  0
    6.7746   -0.5279   20.9423 N   0  0  0  0  0  0  0  0  0  0  0  0
    5.9909   -0.0223   19.8874 C   0  0  0  0  0  0  0  0  0  0  0  0
    6.4350   -0.1385   18.5893 C   0  0  0  0  0  0  0  0  0  0  0  0
    5.7800    0.3345   17.5038 N   0  0  0  0  0  0  0  0  0  0  0  0
    4.6425    0.9453   17.7205 C   0  0  0  0  0  0  0  0  0  0  0  0
    4.0616    1.1206   19.0084 C   0  0  0  0  0  0  0  0  0  0  0  0
    2.8132    1.7823   19.1538 C   0  0  0  0  0  0  0  0  0  0  0  0
    2.2219    1.8930   20.3799 C   0  0  0  0  0  0  0  0  0  0  0  0
    2.8560    1.3474   21.5173 C   0  0  0  0  0  0  0  0  0  0  0  0
    4.0705    0.7158   21.4092 C   0  0  0  0  0  0  0  0  0  0  0  0
    4.7201    0.5980   20.1411 C   0  0  0  0  0  0  0  0  0  0  0  0
    4.5210    0.2830   22.2920 H   0  0  0  0  0  0  0  0  0  0  0  0
    2.3701    1.4166   22.4850 H   0  0  0  0  0  0  0  0  0  0  0  0
    1.2718    2.4127   20.4866 H   0  0  0  0  0  0  0  0  0  0  0  0
    2.3365    2.1612   18.2537 H   0  0  0  0  0  0  0  0  0  0  0  0
    4.1358    1.3797   16.8580 H   0  0  0  0  0  0  0  0  0  0  0  0
    7.3891   -0.6210   18.3811 H   0  0  0  0  0  0  0  0  0  0  0  0
    8.2301   -0.4364   20.9930 C   0  0  0  0  0  0  0  0  0  0  0  0
    8.5546   -1.0093   22.3750 C   0  0  2  0  0  0  0  0  0  0  0  0
    9.8978   -1.5252   22.4501 N   0  0  0  0  0  0  0  0  0  0  0  0
   10.5433   -1.7279   23.6434 C   0  0  0  0  0  0  0  0  0  0  0  0
   10.0923   -1.3331   24.7022 O   0  0  0  0  0  0  0  0  0  0  0  0
   11.8483   -2.4865   23.5176 C   0  0  0  0  0  0  0  0  0  0  0  0
   11.6683   -3.4823   23.0988 H   0  0  0  0  0  0  0  0  0  0  0  0
   12.3017   -2.5958   24.5024 H   0  0  0  0  0  0  0  0  0  0  0  0
   12.5455   -1.9644   22.8553 H   0  0  0  0  0  0  0  0  0  0  0  0
   10.3177   -1.8560   21.5959 H   0  0  0  0  0  0  0  0  0  0  0  0
    8.5045   -0.2017   23.0992 H   0  0  0  0  0  0  0  0  0  0  0  0
    8.5635    0.5981   20.8905 H   0  0  0  0  0  0  0  0  0  0  0  0
    8.7036   -1.0441   20.2061 H   0  0  0  0  0  0  0  0  0  0  0  0
    6.8923   -1.9653   24.1075 C   0  0  0  0  0  0  0  0  0  0  0  0
    6.8345   -0.7487   24.8000 C   0  0  0  0  0  0  0  0  0  0  0  0
    6.3727   -0.7109   26.1014 C   0  0  0  0  0  0  0  0  0  0  0  0
    6.3555    0.8129   26.9463 Cl  0  0  0  0  0  0  0  0  0  0  0  0
    5.9359   -1.8649   26.7530 C   0  0  0  0  0  0  0  0  0  0  0  0
    5.9300   -3.0553   26.0511 C   0  0  0  0  0  0  0  0  0  0  0  0
    6.3741   -3.1080   24.7308 C   0  0  0  0  0  0  0  0  0  0  0  0
    6.2076   -4.3930   23.9753 C   0  0  0  0  0  0  0  0  0  0  0  0
    5.6210   -5.3666   24.4411 O   0  0  0  0  0  0  0  0  0  0  0  0
    5.5708   -3.9713   26.5040 H   0  0  0  0  0  0  0  0  0  0  0  0
    5.5991   -1.8157   27.7837 H   0  0  0  0  0  0  0  0  0  0  0  0
    7.1521    0.1811   24.3414 H   0  0  0  0  0  0  0  0  0  0  0  0
    7.9428   -3.5684   21.2679 H   0  0  0  0  0  0  0  0  0  0  0  0
    8.7250   -3.7356   22.8385 H   0  0  0  0  0  0  0  0  0  0  0  0
    6.1803   -4.9182   20.7670 H   0  0  0  0  0  0  0  0  0  0  0  0
    5.2328   -5.6902   22.0489 H   0  0  0  0  0  0  0  0  0  0  0  0
    6.3077   -7.1647   23.4935 H   0  0  0  0  0  0  0  0  0  0  0  0
    8.8419   -8.1365   23.3766 H   0  0  0  0  0  0  0  0  0  0  0  0
    8.0566   -9.1279   22.1373 H   0  0  0  0  0  0  0  0  0  0  0  0
    7.4547   -9.1830   23.8029 H   0  0  0  0  0  0  0  0  0  0  0  0
  1  2  1  0
  2  3  1  0
  3  4  2  0
  3  5  1  0
  5  6  1  0
  6  7  1  0
  8  7  1  6
  8  9  1  0
  9 10  2  0
  9 11  1  0
 11 12  1  0
 12 13  2  0
 13 14  1  0
 14 15  2  0
 15 16  1  0
 16 17  2  0
 17 18  1  0
 18 19  2  0
 19 20  1  0
 20 21  2  0
 20 22  1  0
 19 23  1  0
 18 24  1  0
 17 25  1  0
 15 26  1  0
 13 27  1  0
 11 28  1  0
 28 29  1  0
 29 30  1  0
 30 31  1  0
 31 32  2  0
 31 33  1  0
 33 34  1  0
 33 35  1  0
 33 36  1  0
 30 37  1  0
 29 38  1  1
 28 39  1  0
 28 40  1  0
  8 41  1  0
 41 42  2  0
 42 43  1  0
 43 44  1  0
 43 45  2  0
 45 46  1  0
 46 47  2  0
 47 48  1  0
 48 49  2  0
 46 50  1  0
 45 51  1  0
 42 52  1  0
  7 53  1  0
  7 54  1  0
  5 55  1  0
  5 56  1  0
  2 57  1  0
  1 58  1  0
  1 59  1  0
  1 60  1  0
 48  6  1  0
 29  8  1  0
 47 41  1  0
 21 12  1  0
 21 16  1  0
M  END
>  <cnnaffinities>  (73) 
[6.92047]

>  <score>  (73) 
6.92047

>  <index>  (73) 
72

>  <Smiles>  (73) 
C(N(C(=O)C(N1C([C@@]2(C(=O)N(c3c(nc(c4c(c(c(c(c34)[H])[H])[H])[H])[H])[H])C([C@@]2(N(C(=O)C([H])([H])[H])[H])[H])([H])[H])c2c(c(Cl)c(c(c2C1=O)[H])[H])[H])([H])[H])([H])[H])[H])([H])([H])[H]

>  <h>  (73) 
<NA>

>  <Training>  (73) 
True

>  <Success>  (73) 
True

>  <enamine_searched>  (73) 
False

>  <enamine_id>  (73) 
nan

$$$$

     RDKit          3D

 56 61  0  0  0  0  0  0  0  0999 V2000
    7.5857   -2.9187   23.6493 C   0  0  0  0  0  0  0  0  0  0  0  0
    7.7142   -2.1604   22.3358 C   0  0  1  0  0  0  0  0  0  0  0  0
    6.3595   -1.6383   21.8459 C   0  0  0  0  0  0  0  0  0  0  0  0
    6.7175   -0.5523   20.9460 N   0  0  0  0  0  0  0  0  0  0  0  0
    5.9112   -0.0549   19.8988 C   0  0  0  0  0  0  0  0  0  0  0  0
    6.4381    0.0417   18.6280 C   0  0  0  0  0  0  0  0  0  0  0  0
    5.7645    0.4948   17.5478 N   0  0  0  0  0  0  0  0  0  0  0  0
    4.5365    0.9071   17.7291 C   0  0  0  0  0  0  0  0  0  0  0  0
    3.8711    0.8981   18.9850 C   0  0  0  0  0  0  0  0  0  0  0  0
    2.5588    1.4247   19.1153 C   0  0  0  0  0  0  0  0  0  0  0  0
    1.9303    1.4215   20.3276 C   0  0  0  0  0  0  0  0  0  0  0  0
    2.6066    0.9316   21.4655 C   0  0  0  0  0  0  0  0  0  0  0  0
    3.8864    0.4378   21.3669 C   0  0  0  0  0  0  0  0  0  0  0  0
    4.5630    0.4040   20.1151 C   0  0  0  0  0  0  0  0  0  0  0  0
    4.3973    0.1143   22.2648 H   0  0  0  0  0  0  0  0  0  0  0  0
    2.1192    0.9649   22.4356 H   0  0  0  0  0  0  0  0  0  0  0  0
    0.9292    1.8300   20.4341 H   0  0  0  0  0  0  0  0  0  0  0  0
    2.0884    1.8604   18.2352 H   0  0  0  0  0  0  0  0  0  0  0  0
    4.0229    1.3387   16.8709 H   0  0  0  0  0  0  0  0  0  0  0  0
    7.4674   -0.2484   18.4427 H   0  0  0  0  0  0  0  0  0  0  0  0
    8.0351   -0.1456   21.1074 C   0  0  0  0  0  0  0  0  0  0  0  0
    8.5713    0.7315   20.4576 O   0  0  0  0  0  0  0  0  0  0  0  0
    8.6559   -0.9200   22.2952 C   0  0  1  0  0  0  0  0  0  0  0  0
    8.5193   -0.0059   23.5485 C   0  0  0  0  0  0  0  0  0  0  0  0
    9.5151    1.0638   23.5621 N   0  0  0  0  0  0  0  0  0  0  0  0
    9.1054    2.4691   23.6662 C   0  0  0  0  0  0  0  0  0  0  0  0
    9.7450    3.4354   22.6348 C   0  0  0  0  0  0  0  0  0  0  0  0
   10.8018    3.8007   23.6474 N   0  0  0  0  0  4  0  0  0  0  0  0
    9.8741    3.2927   24.7213 C   0  0  0  0  0  0  0  0  0  0  0  0
    9.2846    4.0933   25.1757 H   0  0  0  0  0  0  0  0  0  0  0  0
   10.4077    2.7143   25.4592 H   0  0  0  0  0  0  0  0  0  0  0  0
   11.5644    3.0866   23.5900 H   0  0  0  0  0  0  0  0  0  0  0  0
   11.2339    4.7297   23.6923 H   0  0  0  0  0  0  0  0  0  0  0  0
    9.0972    4.2831   22.4121 H   0  0  0  0  0  0  0  0  0  0  0  0
   10.1319    3.0239   21.7079 H   0  0  0  0  0  0  0  0  0  0  0  0
    8.0158    2.4780   23.7337 H   0  0  0  0  0  0  0  0  0  0  0  0
   10.8332    0.7127   23.5185 C   0  0  0  0  0  0  0  0  0  0  0  0
   11.7660    1.4137   23.9371 O   0  0  0  0  0  0  0  0  0  0  0  0
   11.1168   -0.5670   22.8339 C   0  0  0  0  0  0  0  0  0  0  0  0
   12.4507   -0.9713   22.8063 C   0  0  0  0  0  0  0  0  0  0  0  0
   12.8557   -1.9697   21.9589 C   0  0  0  0  0  0  0  0  0  0  0  0
   11.9246   -2.4967   21.0672 C   0  0  0  0  0  0  0  0  0  0  0  0
   12.5245   -3.3715   19.6835 Cl  0  0  0  0  0  0  0  0  0  0  0  0
   10.5711   -2.2160   21.1983 C   0  0  0  0  0  0  0  0  0  0  0  0
   10.1284   -1.2568   22.1189 C   0  0  0  0  0  0  0  0  0  0  0  0
    9.8630   -2.6858   20.5266 H   0  0  0  0  0  0  0  0  0  0  0  0
   13.8928   -2.2707   21.9312 H   0  0  0  0  0  0  0  0  0  0  0  0
   13.1775   -0.4391   23.4100 H   0  0  0  0  0  0  0  0  0  0  0  0
    8.6488   -0.6277   24.4449 H   0  0  0  0  0  0  0  0  0  0  0  0
    7.5325    0.4593   23.5727 H   0  0  0  0  0  0  0  0  0  0  0  0
    5.7748   -2.4091   21.3361 H   0  0  0  0  0  0  0  0  0  0  0  0
    5.7715   -1.2933   22.7075 H   0  0  0  0  0  0  0  0  0  0  0  0
    8.0986   -2.8469   21.5744 H   0  0  0  0  0  0  0  0  0  0  0  0
    6.9111   -3.7721   23.5207 H   0  0  0  0  0  0  0  0  0  0  0  0
    7.1610   -2.2874   24.4388 H   0  0  0  0  0  0  0  0  0  0  0  0
    8.5476   -3.3053   23.9974 H   0  0  0  0  0  0  0  0  0  0  0  0
  1  2  1  0
  2  3  1  0
  3  4  1  0
  4  5  1  0
  5  6  2  0
  6  7  1  0
  7  8  2  0
  8  9  1  0
  9 10  2  0
 10 11  1  0
 11 12  2  0
 12 13  1  0
 13 14  2  0
 13 15  1  0
 12 16  1  0
 11 17  1  0
 10 18  1  0
  8 19  1  0
  6 20  1  0
  4 21  1  0
 21 22  2  0
 21 23  1  0
 23 24  1  1
 24 25  1  0
 25 26  1  0
 26 27  1  0
 27 28  1  0
 28 29  1  0
 29 30  1  0
 29 31  1  0
 28 32  1  0
 28 33  1  0
 27 34  1  0
 27 35  1  0
 26 36  1  0
 25 37  1  0
 37 38  2  0
 37 39  1  0
 39 40  2  0
 40 41  1  0
 41 42  2  0
 42 43  1  0
 42 44  1  0
 44 45  2  0
 44 46  1  0
 41 47  1  0
 40 48  1  0
 24 49  1  0
 24 50  1  0
  3 51  1  0
  3 52  1  0
  2 53  1  6
  1 54  1  0
  1 55  1  0
  1 56  1  0
 23  2  1  0
 29 26  1  0
 45 39  1  0
 14  5  1  0
 45 23  1  0
 14  9  1  0
M  CHG  1  28   1
M  END
>  <cnnaffinities>  (74) 
[6.2532, 6.35651, 6.35479, 6.26898, 6.26897]

>  <score>  (74) 
6.2532

>  <index>  (74) 
73

>  <Smiles>  (74) 
C([C@]1(C(N(c2c(nc(c3c(c(c(c(c23)[H])[H])[H])[H])[H])[H])C(=O)[C@]21C(N(C1(C([N+](C1([H])[H])([H])[H])([H])[H])[H])C(=O)c1c(c(c(Cl)c(c21)[H])[H])[H])([H])[H])([H])[H])[H])([H])([H])[H]

>  <h>  (74) 
<NA>

>  <Training>  (74) 
True

>  <Success>  (74) 
True

>  <enamine_searched>  (74) 
False

>  <enamine_id>  (74) 
nan

$$$$

     RDKit          3D

 55 60  0  0  0  0  0  0  0  0999 V2000
    7.7347   -3.0209   23.2864 C   0  0  0  0  0  0  0  0  0  0  0  0
    8.0063   -1.9439   22.2469 C   0  0  1  0  0  0  0  0  0  0  0  0
    6.8319   -1.8231   21.2673 C   0  0  0  0  0  0  0  0  0  0  0  0
    6.8538   -0.4357   20.8778 N   0  0  0  0  0  0  0  0  0  0  0  0
    6.0305    0.0460   19.8339 C   0  0  0  0  0  0  0  0  0  0  0  0
    6.4109   -0.1774   18.5372 C   0  0  0  0  0  0  0  0  0  0  0  0
    5.7342    0.2725   17.4583 N   0  0  0  0  0  0  0  0  0  0  0  0
    4.6543    0.9783   17.6747 C   0  0  0  0  0  0  0  0  0  0  0  0
    4.0967    1.1986   18.9620 C   0  0  0  0  0  0  0  0  0  0  0  0
    2.8693    1.8907   19.1243 C   0  0  0  0  0  0  0  0  0  0  0  0
    2.3111    2.0332   20.3659 C   0  0  0  0  0  0  0  0  0  0  0  0
    2.9459    1.4716   21.5001 C   0  0  0  0  0  0  0  0  0  0  0  0
    4.1460    0.8124   21.3666 C   0  0  0  0  0  0  0  0  0  0  0  0
    4.7691    0.6781   20.0882 C   0  0  0  0  0  0  0  0  0  0  0  0
    4.6486    0.4065   22.2403 H   0  0  0  0  0  0  0  0  0  0  0  0
    2.4905    1.5997   22.4806 H   0  0  0  0  0  0  0  0  0  0  0  0
    1.3860    2.5938   20.4794 H   0  0  0  0  0  0  0  0  0  0  0  0
    2.4041    2.2990   18.2311 H   0  0  0  0  0  0  0  0  0  0  0  0
    4.1497    1.3750   16.7970 H   0  0  0  0  0  0  0  0  0  0  0  0
    7.3429   -0.7046   18.3351 H   0  0  0  0  0  0  0  0  0  0  0  0
    7.6491    0.3749   21.6586 C   0  0  0  0  0  0  0  0  0  0  0  0
    7.7737    1.5738   21.4997 O   0  0  0  0  0  0  0  0  0  0  0  0
    8.2612   -0.4865   22.7854 C   0  0  1  0  0  0  0  0  0  0  0  0
    7.4532   -0.1195   24.0576 C   0  0  0  0  0  0  0  0  0  0  0  0
    8.0618   -0.5933   25.2937 N   0  0  0  0  0  0  0  0  0  0  0  0
    7.2128   -0.9297   26.4166 C   0  0  0  0  0  0  0  0  0  0  0  0
    6.9912   -2.4056   26.5558 C   0  0  0  0  0  0  0  0  0  0  0  0
    7.9276   -3.4490   26.8047 C   0  0  0  0  0  0  0  0  0  0  0  0
    7.1378   -4.5371   26.9516 C   0  0  0  0  0  0  0  0  0  0  0  0
    5.8508   -4.2136   26.7768 O   0  0  0  0  0  0  0  0  0  0  0  0
    5.7655   -2.8594   26.5217 N   0  0  0  0  0  0  0  0  0  0  0  0
    7.3218   -5.5691   27.2102 H   0  0  0  0  0  0  0  0  0  0  0  0
    9.0047   -3.3988   26.8869 H   0  0  0  0  0  0  0  0  0  0  0  0
    6.2377   -0.4538   26.2961 H   0  0  0  0  0  0  0  0  0  0  0  0
    7.7019   -0.5467   27.3171 H   0  0  0  0  0  0  0  0  0  0  0  0
    9.3991   -0.4549   25.5415 C   0  0  0  0  0  0  0  0  0  0  0  0
    9.8803   -0.5066   26.6680 O   0  0  0  0  0  0  0  0  0  0  0  0
   10.2585   -0.2465   24.3521 C   0  0  0  0  0  0  0  0  0  0  0  0
   11.6234   -0.1152   24.6004 C   0  0  0  0  0  0  0  0  0  0  0  0
   12.5072    0.1482   23.5821 C   0  0  0  0  0  0  0  0  0  0  0  0
   11.9786    0.2552   22.3040 C   0  0  0  0  0  0  0  0  0  0  0  0
   12.8411    0.5521   21.3222 F   0  0  0  0  0  0  0  0  0  0  0  0
   10.6356    0.0632   22.0183 C   0  0  0  0  0  0  0  0  0  0  0  0
    9.7326   -0.1970   23.0565 C   0  0  0  0  0  0  0  0  0  0  0  0
   10.2948    0.1149   20.9929 H   0  0  0  0  0  0  0  0  0  0  0  0
   13.5723    0.2763   23.7510 H   0  0  0  0  0  0  0  0  0  0  0  0
   11.9671   -0.2216   25.6200 H   0  0  0  0  0  0  0  0  0  0  0  0
    7.3429    0.9746   24.0823 H   0  0  0  0  0  0  0  0  0  0  0  0
    6.4446   -0.5446   23.9839 H   0  0  0  0  0  0  0  0  0  0  0  0
    5.8798   -2.1111   21.7460 H   0  0  0  0  0  0  0  0  0  0  0  0
    6.9356   -2.4577   20.3843 H   0  0  0  0  0  0  0  0  0  0  0  0
    8.9054   -2.2128   21.6744 H   0  0  0  0  0  0  0  0  0  0  0  0
    7.6872   -4.0016   22.8007 H   0  0  0  0  0  0  0  0  0  0  0  0
    8.5082   -3.0362   24.0583 H   0  0  0  0  0  0  0  0  0  0  0  0
    6.7722   -2.8349   23.7726 H   0  0  0  0  0  0  0  0  0  0  0  0
  1  2  1  0
  2  3  1  0
  3  4  1  0
  4  5  1  0
  5  6  2  0
  6  7  1  0
  7  8  2  0
  8  9  1  0
  9 10  2  0
 10 11  1  0
 11 12  2  0
 12 13  1  0
 13 14  2  0
 13 15  1  0
 12 16  1  0
 11 17  1  0
 10 18  1  0
  8 19  1  0
  6 20  1  0
  4 21  1  0
 21 22  2  0
 21 23  1  0
 23 24  1  1
 24 25  1  0
 25 26  1  0
 26 27  1  0
 27 28  1  0
 28 29  2  0
 29 30  1  0
 30 31  1  0
 29 32  1  0
 28 33  1  0
 26 34  1  0
 26 35  1  0
 25 36  1  0
 36 37  2  0
 36 38  1  0
 38 39  2  0
 39 40  1  0
 40 41  2  0
 41 42  1  0
 41 43  1  0
 43 44  2  0
 43 45  1  0
 40 46  1  0
 39 47  1  0
 24 48  1  0
 24 49  1  0
  3 50  1  0
  3 51  1  0
  2 52  1  6
  1 53  1  0
  1 54  1  0
  1 55  1  0
 23  2  1  0
 31 27  2  0
 44 38  1  0
 14  5  1  0
 44 23  1  0
 14  9  1  0
M  END
>  <cnnaffinities>  (75) 
[6.4378, 6.31565, 6.46755]

>  <score>  (75) 
6.4378

>  <index>  (75) 
74

>  <Smiles>  (75) 
C([C@]1(C(N(c2c(nc(c3c(c(c(c(c23)[H])[H])[H])[H])[H])[H])C(=O)[C@]21C(N(C(c1c(c(on1)[H])[H])([H])[H])C(=O)c1c(c(c(F)c(c21)[H])[H])[H])([H])[H])([H])[H])[H])([H])([H])[H]

>  <h>  (75) 
<NA>

>  <Training>  (75) 
True

>  <Success>  (75) 
True

>  <enamine_searched>  (75) 
False

>  <enamine_id>  (75) 
nan

$$$$

     RDKit          3D

 70 75  0  0  0  0  0  0  0  0999 V2000
    7.1985    1.0251   32.9811 C   0  0  0  0  0  0  0  0  0  0  0  0
    5.8591    0.6012   32.8437 O   0  0  0  0  0  0  0  0  0  0  0  0
    5.2892    0.6915   31.6113 C   0  0  0  0  0  0  0  0  0  0  0  0
    3.9751    0.2258   31.4898 C   0  0  0  0  0  0  0  0  0  0  0  0
    3.3366    0.2879   30.2611 C   0  0  0  0  0  0  0  0  0  0  0  0
    3.9870    0.8174   29.1529 C   0  0  0  0  0  0  0  0  0  0  0  0
    5.2840    1.2966   29.2739 C   0  0  0  0  0  0  0  0  0  0  0  0
    5.9849    1.8477   28.0491 C   0  0  0  0  0  0  0  0  0  0  0  0
    6.2337    0.8158   27.0551 N   0  0  0  0  0  0  0  0  0  0  0  0
    7.1853   -0.1167   27.3294 C   0  0  0  0  0  0  0  0  0  0  0  0
    7.7802   -0.1020   28.3919 O   0  0  0  0  0  0  0  0  0  0  0  0
    7.4616   -1.1414   26.2268 C   0  0  0  0  0  0  0  0  0  0  0  0
    8.2960   -0.6175   25.1566 N   0  0  0  0  0  0  0  0  0  0  0  0
    7.7266   -0.0597   23.9441 C   0  0  0  0  0  0  0  0  0  0  0  0
    8.5501   -0.4087   22.6783 C   0  0  2  0  0  0  0  0  0  0  0  0
    7.9251    0.4439   21.5354 C   0  0  0  0  0  0  0  0  0  0  0  0
    8.1763    1.5919   21.2360 O   0  0  0  0  0  0  0  0  0  0  0  0
    6.9231   -0.3254   20.9556 N   0  0  0  0  0  0  0  0  0  0  0  0
    6.0814    0.1266   19.8967 C   0  0  0  0  0  0  0  0  0  0  0  0
    6.4826   -0.0587   18.5975 C   0  0  0  0  0  0  0  0  0  0  0  0
    5.7880    0.3548   17.5080 N   0  0  0  0  0  0  0  0  0  0  0  0
    4.6323    0.9377   17.7096 C   0  0  0  0  0  0  0  0  0  0  0  0
    4.0354    1.0981   18.9891 C   0  0  0  0  0  0  0  0  0  0  0  0
    2.7516    1.6881   19.1432 C   0  0  0  0  0  0  0  0  0  0  0  0
    2.1651    1.7430   20.3735 C   0  0  0  0  0  0  0  0  0  0  0  0
    2.8228    1.1905   21.4932 C   0  0  0  0  0  0  0  0  0  0  0  0
    4.0721    0.6308   21.3729 C   0  0  0  0  0  0  0  0  0  0  0  0
    4.7457    0.6217   20.1233 C   0  0  0  0  0  0  0  0  0  0  0  0
    4.5440    0.1747   22.2389 H   0  0  0  0  0  0  0  0  0  0  0  0
    2.3397    1.2273   22.4639 H   0  0  0  0  0  0  0  0  0  0  0  0
    1.1891    2.2067   20.4992 H   0  0  0  0  0  0  0  0  0  0  0  0
    2.2507    2.0880   18.2622 H   0  0  0  0  0  0  0  0  0  0  0  0
    4.0635    1.2567   16.8327 H   0  0  0  0  0  0  0  0  0  0  0  0
    7.4084   -0.5967   18.3888 H   0  0  0  0  0  0  0  0  0  0  0  0
    6.9954   -1.7299   21.3155 C   0  0  0  0  0  0  0  0  0  0  0  0
    8.2970   -1.8445   22.1167 C   0  0  2  0  0  0  0  0  0  0  0  0
    8.2464   -2.9876   23.1212 C   0  0  0  0  0  0  0  0  0  0  0  0
    9.1512   -3.0454   23.7319 H   0  0  0  0  0  0  0  0  0  0  0  0
    8.1175   -3.9404   22.6006 H   0  0  0  0  0  0  0  0  0  0  0  0
    7.3902   -2.8603   23.7927 H   0  0  0  0  0  0  0  0  0  0  0  0
    9.1238   -2.0104   21.4115 H   0  0  0  0  0  0  0  0  0  0  0  0
    6.9994   -2.3713   20.4275 H   0  0  0  0  0  0  0  0  0  0  0  0
    6.1387   -2.0378   21.9348 H   0  0  0  0  0  0  0  0  0  0  0  0
   10.0181   -0.1461   22.9845 C   0  0  0  0  0  0  0  0  0  0  0  0
   10.9712   -0.0601   21.9597 C   0  0  0  0  0  0  0  0  0  0  0  0
   12.3066    0.1957   22.2487 C   0  0  0  0  0  0  0  0  0  0  0  0
   13.5009    0.3271   20.9869 Cl  0  0  0  0  0  0  0  0  0  0  0  0
   12.7499    0.3464   23.5601 C   0  0  0  0  0  0  0  0  0  0  0  0
   11.8292    0.2190   24.5778 C   0  0  0  0  0  0  0  0  0  0  0  0
   10.4910   -0.0679   24.2968 C   0  0  0  0  0  0  0  0  0  0  0  0
    9.6148   -0.4125   25.4510 C   0  0  0  0  0  0  0  0  0  0  0  0
   10.0715   -0.5440   26.5764 O   0  0  0  0  0  0  0  0  0  0  0  0
   12.1217    0.3199   25.6178 H   0  0  0  0  0  0  0  0  0  0  0  0
   13.8029    0.5043   23.7823 H   0  0  0  0  0  0  0  0  0  0  0  0
   10.6724   -0.2165   20.9352 H   0  0  0  0  0  0  0  0  0  0  0  0
    6.6970   -0.4084   23.8188 H   0  0  0  0  0  0  0  0  0  0  0  0
    7.6931    1.0353   24.0024 H   0  0  0  0  0  0  0  0  0  0  0  0
    6.5171   -1.4953   25.7944 H   0  0  0  0  0  0  0  0  0  0  0  0
    7.9918   -1.9826   26.6754 H   0  0  0  0  0  0  0  0  0  0  0  0
    5.7382    0.8288   26.1748 H   0  0  0  0  0  0  0  0  0  0  0  0
    6.9408    2.2818   28.3548 H   0  0  0  0  0  0  0  0  0  0  0  0
    5.3901    2.6321   27.5721 H   0  0  0  0  0  0  0  0  0  0  0  0
    5.9515    1.2040   30.4980 C   0  0  0  0  0  0  0  0  0  0  0  0
    7.0009    1.4825   30.5487 H   0  0  0  0  0  0  0  0  0  0  0  0
    3.4928    0.8471   28.1847 H   0  0  0  0  0  0  0  0  0  0  0  0
    2.3201   -0.0809   30.1558 H   0  0  0  0  0  0  0  0  0  0  0  0
    3.4700   -0.1866   32.3585 H   0  0  0  0  0  0  0  0  0  0  0  0
    7.3170    2.0968   32.7706 H   0  0  0  0  0  0  0  0  0  0  0  0
    7.4602    0.8310   34.0212 H   0  0  0  0  0  0  0  0  0  0  0  0
    7.8796    0.4634   32.3273 H   0  0  0  0  0  0  0  0  0  0  0  0
  1  2  1  0
  2  3  1  0
  3  4  2  0
  4  5  1  0
  5  6  2  0
  6  7  1  0
  7  8  1  0
  8  9  1  0
  9 10  1  0
 10 11  2  0
 10 12  1  0
 12 13  1  0
 13 14  1  0
 15 14  1  1
 15 16  1  0
 16 17  2  0
 16 18  1  0
 18 19  1  0
 19 20  2  0
 20 21  1  0
 21 22  2  0
 22 23  1  0
 23 24  2  0
 24 25  1  0
 25 26  2  0
 26 27  1  0
 27 28  2  0
 27 29  1  0
 26 30  1  0
 25 31  1  0
 24 32  1  0
 22 33  1  0
 20 34  1  0
 18 35  1  0
 35 36  1  0
 36 37  1  0
 37 38  1  0
 37 39  1  0
 37 40  1  0
 36 41  1  6
 35 42  1  0
 35 43  1  0
 15 44  1  0
 44 45  2  0
 45 46  1  0
 46 47  1  0
 46 48  2  0
 48 49  1  0
 49 50  2  0
 50 51  1  0
 51 52  2  0
 49 53  1  0
 48 54  1  0
 45 55  1  0
 14 56  1  0
 14 57  1  0
 12 58  1  0
 12 59  1  0
  9 60  1  0
  8 61  1  0
  8 62  1  0
  7 63  2  0
 63 64  1  0
  6 65  1  0
  5 66  1  0
  4 67  1  0
  1 68  1  0
  1 69  1  0
  1 70  1  0
 63  3  1  0
 51 13  1  0
 36 15  1  0
 50 44  1  0
 28 19  1  0
 28 23  1  0
M  END
>  <cnnaffinities>  (76) 
[6.6172]

>  <score>  (76) 
6.6172

>  <index>  (76) 
75

>  <Smiles>  (76) 
C(Oc1c(c(c(c(C(N(C(=O)C(N2C([C@@]3(C(=O)N(c4c(nc(c5c(c(c(c(c45)[H])[H])[H])[H])[H])[H])C([C@@]3(C([H])([H])[H])[H])([H])[H])c3c(c(Cl)c(c(c3C2=O)[H])[H])[H])([H])[H])([H])[H])[H])([H])[H])c1[H])[H])[H])[H])([H])([H])[H]

>  <h>  (76) 
<NA>

>  <Training>  (76) 
True

>  <Success>  (76) 
True

>  <enamine_searched>  (76) 
False

>  <enamine_id>  (76) 
nan

$$$$

     RDKit          3D

 61 65  0  0  0  0  0  0  0  0999 V2000
    7.6150   -2.8772   23.6326 C   0  0  0  0  0  0  0  0  0  0  0  0
    7.7934   -2.0910   22.3332 C   0  0  1  0  0  0  0  0  0  0  0  0
    6.4469   -1.6163   21.7621 C   0  0  0  0  0  0  0  0  0  0  0  0
    6.7733   -0.4393   20.9692 N   0  0  0  0  0  0  0  0  0  0  0  0
    5.9715    0.0604   19.9055 C   0  0  0  0  0  0  0  0  0  0  0  0
    6.4702    0.0846   18.6238 C   0  0  0  0  0  0  0  0  0  0  0  0
    5.7718    0.4840   17.5349 N   0  0  0  0  0  0  0  0  0  0  0  0
    4.5559    0.9346   17.7108 C   0  0  0  0  0  0  0  0  0  0  0  0
    3.8975    0.9652   18.9691 C   0  0  0  0  0  0  0  0  0  0  0  0
    2.5887    1.5015   19.1139 C   0  0  0  0  0  0  0  0  0  0  0  0
    1.9759    1.5118   20.3329 C   0  0  0  0  0  0  0  0  0  0  0  0
    2.6522    1.0021   21.4635 C   0  0  0  0  0  0  0  0  0  0  0  0
    3.9266    0.4956   21.3479 C   0  0  0  0  0  0  0  0  0  0  0  0
    4.6059    0.4871   20.1009 C   0  0  0  0  0  0  0  0  0  0  0  0
    4.4346    0.1303   22.2312 H   0  0  0  0  0  0  0  0  0  0  0  0
    2.1569    1.0175   22.4305 H   0  0  0  0  0  0  0  0  0  0  0  0
    0.9748    1.9239   20.4420 H   0  0  0  0  0  0  0  0  0  0  0  0
    2.0960    1.9042   18.2282 H   0  0  0  0  0  0  0  0  0  0  0  0
    4.0183    1.2601   16.8200 H   0  0  0  0  0  0  0  0  0  0  0  0
    7.4912   -0.2333   18.4276 H   0  0  0  0  0  0  0  0  0  0  0  0
    8.0510    0.0222   21.2165 C   0  0  0  0  0  0  0  0  0  0  0  0
    8.5552    0.9721   20.6425 O   0  0  0  0  0  0  0  0  0  0  0  0
    8.6708   -0.7989   22.3918 C   0  0  1  0  0  0  0  0  0  0  0  0
    8.4146   -0.0152   23.7102 C   0  0  0  0  0  0  0  0  0  0  0  0
    9.3596    1.0694   23.9246 N   0  0  0  0  0  0  0  0  0  0  0  0
    8.9002    2.3792   24.3493 C   0  0  0  0  0  0  0  0  0  0  0  0
    8.8468    3.3849   23.1937 C   0  0  0  0  0  0  0  0  0  0  0  0
   10.2159    3.8362   22.7507 N   0  0  0  0  0  4  0  0  0  0  0  0
   10.3233    5.3166   22.7423 C   0  0  0  0  0  0  0  0  0  0  0  0
    9.6096    5.7337   22.0195 H   0  0  0  0  0  0  0  0  0  0  0  0
   10.1082    5.7175   23.7363 H   0  0  0  0  0  0  0  0  0  0  0  0
   11.3351    5.6061   22.4440 H   0  0  0  0  0  0  0  0  0  0  0  0
   10.5962    3.3152   21.4107 C   0  0  0  0  0  0  0  0  0  0  0  0
   11.4160    3.9106   20.9967 H   0  0  0  0  0  0  0  0  0  0  0  0
   10.9355    2.2804   21.5102 H   0  0  0  0  0  0  0  0  0  0  0  0
    9.7441    3.3662   20.7264 H   0  0  0  0  0  0  0  0  0  0  0  0
   10.8995    3.4500   23.4154 H   0  0  0  0  0  0  0  0  0  0  0  0
    8.2872    4.2670   23.5186 H   0  0  0  0  0  0  0  0  0  0  0  0
    8.3316    2.9468   22.3327 H   0  0  0  0  0  0  0  0  0  0  0  0
    9.5913    2.7443   25.1155 H   0  0  0  0  0  0  0  0  0  0  0  0
    7.9105    2.2602   24.7963 H   0  0  0  0  0  0  0  0  0  0  0  0
   10.6932    0.9003   23.7707 C   0  0  0  0  0  0  0  0  0  0  0  0
   11.5079    1.7515   24.1495 O   0  0  0  0  0  0  0  0  0  0  0  0
   11.1067   -0.3176   23.0172 C   0  0  0  0  0  0  0  0  0  0  0  0
   12.4674   -0.6199   22.9790 C   0  0  0  0  0  0  0  0  0  0  0  0
   12.9538   -1.5276   22.0560 C   0  0  0  0  0  0  0  0  0  0  0  0
   12.0417   -2.1441   21.1965 C   0  0  0  0  0  0  0  0  0  0  0  0
   12.6403   -3.1347   19.8914 Cl  0  0  0  0  0  0  0  0  0  0  0  0
   10.6760   -1.9603   21.3294 C   0  0  0  0  0  0  0  0  0  0  0  0
   10.1681   -1.0394   22.2576 C   0  0  0  0  0  0  0  0  0  0  0  0
   10.0169   -2.5262   20.6780 H   0  0  0  0  0  0  0  0  0  0  0  0
   14.0138   -1.7213   21.9649 H   0  0  0  0  0  0  0  0  0  0  0  0
   13.1341   -0.1045   23.6647 H   0  0  0  0  0  0  0  0  0  0  0  0
    7.4118    0.4205   23.6842 H   0  0  0  0  0  0  0  0  0  0  0  0
    8.4752   -0.7032   24.5620 H   0  0  0  0  0  0  0  0  0  0  0  0
    5.9602   -2.3718   21.1366 H   0  0  0  0  0  0  0  0  0  0  0  0
    5.7845   -1.3674   22.6008 H   0  0  0  0  0  0  0  0  0  0  0  0
    8.2489   -2.7596   21.5990 H   0  0  0  0  0  0  0  0  0  0  0  0
    7.0491   -2.2963   24.3708 H   0  0  0  0  0  0  0  0  0  0  0  0
    8.5735   -3.1538   24.0864 H   0  0  0  0  0  0  0  0  0  0  0  0
    7.0483   -3.7973   23.4489 H   0  0  0  0  0  0  0  0  0  0  0  0
  1  2  1  0
  2  3  1  0
  3  4  1  0
  4  5  1  0
  5  6  2  0
  6  7  1  0
  7  8  2  0
  8  9  1  0
  9 10  2  0
 10 11  1  0
 11 12  2  0
 12 13  1  0
 13 14  2  0
 13 15  1  0
 12 16  1  0
 11 17  1  0
 10 18  1  0
  8 19  1  0
  6 20  1  0
  4 21  1  0
 21 22  2  0
 21 23  1  0
 23 24  1  1
 24 25  1  0
 25 26  1  0
 26 27  1  0
 27 28  1  0
 28 29  1  0
 29 30  1  0
 29 31  1  0
 29 32  1  0
 28 33  1  0
 33 34  1  0
 33 35  1  0
 33 36  1  0
 28 37  1  0
 27 38  1  0
 27 39  1  0
 26 40  1  0
 26 41  1  0
 25 42  1  0
 42 43  2  0
 42 44  1  0
 44 45  2  0
 45 46  1  0
 46 47  2  0
 47 48  1  0
 47 49  1  0
 49 50  2  0
 49 51  1  0
 46 52  1  0
 45 53  1  0
 24 54  1  0
 24 55  1  0
  3 56  1  0
  3 57  1  0
  2 58  1  6
  1 59  1  0
  1 60  1  0
  1 61  1  0
 23  2  1  0
 50 44  1  0
 14  5  1  0
 50 23  1  0
 14  9  1  0
M  CHG  1  28   1
M  END
>  <cnnaffinities>  (77) 
[6.40671]

>  <score>  (77) 
6.40671

>  <index>  (77) 
76

>  <Smiles>  (77) 
C([C@]1(C(N(c2c(nc(c3c(c(c(c(c23)[H])[H])[H])[H])[H])[H])C(=O)[C@]21C(N(C(C([N+](C([H])([H])[H])(C([H])([H])[H])[H])([H])[H])([H])[H])C(=O)c1c(c(c(Cl)c(c21)[H])[H])[H])([H])[H])([H])[H])[H])([H])([H])[H]

>  <h>  (77) 
<NA>

>  <Training>  (77) 
True

>  <Success>  (77) 
True

>  <enamine_searched>  (77) 
False

>  <enamine_id>  (77) 
nan

$$$$

     RDKit          3D

 57 60  0  0  0  0  0  0  0  0999 V2000
    2.2139   -6.2822   25.0766 C   0  0  0  0  0  0  0  0  0  0  0  0
    3.7282   -6.4216   25.3638 C   0  0  0  0  0  0  0  0  0  0  0  0
    4.2053   -7.8083   24.9040 C   0  0  0  0  0  0  0  0  0  0  0  0
    3.6866   -8.5839   25.4737 H   0  0  0  0  0  0  0  0  0  0  0  0
    5.2844   -7.9277   25.0437 H   0  0  0  0  0  0  0  0  0  0  0  0
    3.9681   -7.9498   23.8447 H   0  0  0  0  0  0  0  0  0  0  0  0
    3.8574   -6.3351   26.8400 C   0  0  0  0  0  0  0  0  0  0  0  0
    3.8640   -6.2529   27.9923 N   0  0  0  0  0  0  0  0  0  0  0  0
    4.5187   -5.2714   24.7344 C   0  0  0  0  0  0  0  0  0  0  0  0
    5.3075   -5.4336   23.5946 C   0  0  0  0  0  0  0  0  0  0  0  0
    5.9261   -4.3481   22.9952 C   0  0  0  0  0  0  0  0  0  0  0  0
    5.7890   -3.0803   23.5501 C   0  0  0  0  0  0  0  0  0  0  0  0
    6.4299   -1.9672   22.9464 N   0  0  0  0  0  0  0  0  0  0  0  0
    7.4247   -1.2190   23.7161 C   0  0  0  0  0  0  0  0  0  0  0  0
    8.8522   -1.4542   23.2537 C   0  0  0  0  0  0  0  0  0  0  0  0
    9.3378   -2.7611   23.2121 C   0  0  0  0  0  0  0  0  0  0  0  0
   10.6382   -3.0104   22.7950 C   0  0  0  0  0  0  0  0  0  0  0  0
   11.4777   -1.9762   22.4007 C   0  0  0  0  0  0  0  0  0  0  0  0
   10.9998   -0.6762   22.4753 C   0  0  0  0  0  0  0  0  0  0  0  0
   12.0613    0.6407   22.0544 Cl  0  0  0  0  0  0  0  0  0  0  0  0
    9.7000   -0.4051   22.8971 C   0  0  0  0  0  0  0  0  0  0  0  0
    9.3738    0.6314   22.9468 H   0  0  0  0  0  0  0  0  0  0  0  0
   12.4845   -2.1769   22.0467 H   0  0  0  0  0  0  0  0  0  0  0  0
   11.0070   -4.0250   22.7845 H   0  0  0  0  0  0  0  0  0  0  0  0
    8.6934   -3.5891   23.5091 H   0  0  0  0  0  0  0  0  0  0  0  0
    7.3472   -1.5617   24.7532 H   0  0  0  0  0  0  0  0  0  0  0  0
    7.1829   -0.1496   23.7218 H   0  0  0  0  0  0  0  0  0  0  0  0
    6.1210   -1.7457   21.6181 C   0  0  0  0  0  0  0  0  0  0  0  0
    5.3259   -2.4461   21.0159 O   0  0  0  0  0  0  0  0  0  0  0  0
    6.7884   -0.5607   20.9409 C   0  0  0  0  0  0  0  0  0  0  0  0
    5.9546   -0.0395   19.8230 C   0  0  0  0  0  0  0  0  0  0  0  0
    6.3750   -0.1833   18.5305 C   0  0  0  0  0  0  0  0  0  0  0  0
    5.7318    0.3071   17.4421 N   0  0  0  0  0  0  0  0  0  0  0  0
    4.6232    0.9697   17.6717 C   0  0  0  0  0  0  0  0  0  0  0  0
    4.0425    1.1492   18.9597 C   0  0  0  0  0  0  0  0  0  0  0  0
    2.8247    1.8558   19.1293 C   0  0  0  0  0  0  0  0  0  0  0  0
    2.2531    1.9761   20.3713 C   0  0  0  0  0  0  0  0  0  0  0  0
    2.8854    1.3936   21.4943 C   0  0  0  0  0  0  0  0  0  0  0  0
    4.0825    0.7316   21.3592 C   0  0  0  0  0  0  0  0  0  0  0  0
    4.7043    0.6003   20.0781 C   0  0  0  0  0  0  0  0  0  0  0  0
    4.5713    0.3190   22.2365 H   0  0  0  0  0  0  0  0  0  0  0  0
    2.4353    1.5129   22.4747 H   0  0  0  0  0  0  0  0  0  0  0  0
    1.3362    2.5423   20.4920 H   0  0  0  0  0  0  0  0  0  0  0  0
    2.3640    2.2864   18.2444 H   0  0  0  0  0  0  0  0  0  0  0  0
    4.1270    1.4094   16.8065 H   0  0  0  0  0  0  0  0  0  0  0  0
    7.3258   -0.6819   18.3318 H   0  0  0  0  0  0  0  0  0  0  0  0
    6.9631    0.2426   21.6595 H   0  0  0  0  0  0  0  0  0  0  0  0
    7.7617   -0.8970   20.5630 H   0  0  0  0  0  0  0  0  0  0  0  0
    5.0337   -2.9060   24.7045 C   0  0  0  0  0  0  0  0  0  0  0  0
    4.3950   -3.9922   25.2820 C   0  0  0  0  0  0  0  0  0  0  0  0
    3.8166   -3.8407   26.1900 H   0  0  0  0  0  0  0  0  0  0  0  0
    4.9376   -1.9101   25.1288 H   0  0  0  0  0  0  0  0  0  0  0  0
    6.5041   -4.4768   22.0847 H   0  0  0  0  0  0  0  0  0  0  0  0
    5.4509   -6.4124   23.1464 H   0  0  0  0  0  0  0  0  0  0  0  0
    2.0207   -6.3368   24.0014 H   0  0  0  0  0  0  0  0  0  0  0  0
    1.6803   -7.0973   25.5745 H   0  0  0  0  0  0  0  0  0  0  0  0
    1.8275   -5.3275   25.4490 H   0  0  0  0  0  0  0  0  0  0  0  0
  1  2  1  0
  2  3  1  0
  3  4  1  0
  3  5  1  0
  3  6  1  0
  2  7  1  0
  7  8  3  0
  2  9  1  0
  9 10  2  0
 10 11  1  0
 11 12  2  0
 12 13  1  0
 13 14  1  0
 14 15  1  0
 15 16  2  0
 16 17  1  0
 17 18  2  0
 18 19  1  0
 19 20  1  0
 19 21  2  0
 21 22  1  0
 18 23  1  0
 17 24  1  0
 16 25  1  0
 14 26  1  0
 14 27  1  0
 13 28  1  0
 28 29  2  0
 28 30  1  0
 30 31  1  0
 31 32  2  0
 32 33  1  0
 33 34  2  0
 34 35  1  0
 35 36  2  0
 36 37  1  0
 37 38  2  0
 38 39  1  0
 39 40  2  0
 39 41  1  0
 38 42  1  0
 37 43  1  0
 36 44  1  0
 34 45  1  0
 32 46  1  0
 30 47  1  0
 30 48  1  0
 12 49  1  0
 49 50  2  0
 50 51  1  0
 49 52  1  0
 11 53  1  0
 10 54  1  0
  1 55  1  0
  1 56  1  0
  1 57  1  0
 50  9  1  0
 21 15  1  0
 40 31  1  0
 40 35  1  0
M  END
>  <cnnaffinities>  (78) 
[6.79377, 6.38449, 6.79144, 6.87879, 6.77874, 6.86645, 6.4088, 6.40619, 6.3531]

>  <score>  (78) 
6.79377

>  <index>  (78) 
77

>  <Smiles>  (78) 
C(C(C([H])([H])[H])(C#N)c1c(c(c(N(C(c2c(c(c(c(Cl)c2[H])[H])[H])[H])([H])[H])C(=O)C(c2c(nc(c3c(c(c(c(c23)[H])[H])[H])[H])[H])[H])([H])[H])c(c1[H])[H])[H])[H])([H])([H])[H]

>  <h>  (78) 
<NA>

>  <Training>  (78) 
True

>  <Success>  (78) 
True

>  <enamine_searched>  (78) 
False

>  <enamine_id>  (78) 
nan

$$$$

     RDKit          3D

 40 42  0  0  0  0  0  0  0  0999 V2000
    8.7303   -5.4149   25.0588 C   0  0  0  0  0  0  0  0  0  0  0  0
    8.4367   -4.6705   23.7626 C   0  0  0  0  0  0  0  0  0  0  0  0
    6.9853   -4.8737   23.3341 C   0  0  0  0  0  0  0  0  0  0  0  0
    6.7123   -4.1616   22.0280 C   0  0  0  0  0  0  0  0  0  0  0  0
    7.0630   -2.7482   22.1197 N   0  0  0  0  0  0  0  0  0  0  0  0
    6.2337   -1.9033   21.4307 C   0  0  0  0  0  0  0  0  0  0  0  0
    5.0725   -2.2117   21.1956 O   0  0  0  0  0  0  0  0  0  0  0  0
    6.8112   -0.5776   20.9317 C   0  0  0  0  0  0  0  0  0  0  0  0
    5.9756   -0.0206   19.8267 C   0  0  0  0  0  0  0  0  0  0  0  0
    6.3860   -0.1728   18.5295 C   0  0  0  0  0  0  0  0  0  0  0  0
    5.7317    0.3064   17.4437 N   0  0  0  0  0  0  0  0  0  0  0  0
    4.6293    0.9700   17.6698 C   0  0  0  0  0  0  0  0  0  0  0  0
    4.0587    1.1634   18.9561 C   0  0  0  0  0  0  0  0  0  0  0  0
    2.8377    1.8645   19.1328 C   0  0  0  0  0  0  0  0  0  0  0  0
    2.2777    1.9799   20.3727 C   0  0  0  0  0  0  0  0  0  0  0  0
    2.9141    1.3924   21.4927 C   0  0  0  0  0  0  0  0  0  0  0  0
    4.1072    0.7345   21.3524 C   0  0  0  0  0  0  0  0  0  0  0  0
    4.7279    0.6197   20.0741 C   0  0  0  0  0  0  0  0  0  0  0  0
    4.5747    0.2721   22.2158 H   0  0  0  0  0  0  0  0  0  0  0  0
    2.4618    1.4985   22.4751 H   0  0  0  0  0  0  0  0  0  0  0  0
    1.3498    2.5303   20.5013 H   0  0  0  0  0  0  0  0  0  0  0  0
    2.3573    2.2738   18.2479 H   0  0  0  0  0  0  0  0  0  0  0  0
    4.1280    1.3946   16.7996 H   0  0  0  0  0  0  0  0  0  0  0  0
    7.3330   -0.6679   18.3188 H   0  0  0  0  0  0  0  0  0  0  0  0
    6.8749    0.1441   21.7544 H   0  0  0  0  0  0  0  0  0  0  0  0
    7.8291   -0.7537   20.5564 H   0  0  0  0  0  0  0  0  0  0  0  0
    8.4354   -2.4596   22.5441 C   0  0  0  0  0  0  0  0  0  0  0  0
    8.7265   -3.1707   23.8689 C   0  0  0  0  0  0  0  0  0  0  0  0
    9.7709   -3.0034   24.1656 H   0  0  0  0  0  0  0  0  0  0  0  0
    8.1026   -2.7267   24.6585 H   0  0  0  0  0  0  0  0  0  0  0  0
    9.1562   -2.8059   21.7810 H   0  0  0  0  0  0  0  0  0  0  0  0
    8.5875   -1.3831   22.6700 H   0  0  0  0  0  0  0  0  0  0  0  0
    5.6575   -4.2175   21.7639 H   0  0  0  0  0  0  0  0  0  0  0  0
    7.2852   -4.6265   21.2084 H   0  0  0  0  0  0  0  0  0  0  0  0
    6.7561   -5.9402   23.2134 H   0  0  0  0  0  0  0  0  0  0  0  0
    6.3090   -4.4826   24.1081 H   0  0  0  0  0  0  0  0  0  0  0  0
    9.0767   -5.0793   22.9647 H   0  0  0  0  0  0  0  0  0  0  0  0
    8.5337   -6.4860   24.9368 H   0  0  0  0  0  0  0  0  0  0  0  0
    8.0867   -5.0409   25.8653 H   0  0  0  0  0  0  0  0  0  0  0  0
    9.7744   -5.2847   25.3622 H   0  0  0  0  0  0  0  0  0  0  0  0
  1  2  1  0
  2  3  1  0
  3  4  1  0
  4  5  1  0
  5  6  1  0
  6  7  2  0
  6  8  1  0
  8  9  1  0
  9 10  2  0
 10 11  1  0
 11 12  2  0
 12 13  1  0
 13 14  2  0
 14 15  1  0
 15 16  2  0
 16 17  1  0
 17 18  2  0
 17 19  1  0
 16 20  1  0
 15 21  1  0
 14 22  1  0
 12 23  1  0
 10 24  1  0
  8 25  1  0
  8 26  1  0
  5 27  1  0
 27 28  1  0
 28 29  1  0
 28 30  1  0
 27 31  1  0
 27 32  1  0
  4 33  1  0
  4 34  1  0
  3 35  1  0
  3 36  1  0
  2 37  1  0
  1 38  1  0
  1 39  1  0
  1 40  1  0
 28  2  1  0
 18  9  1  0
 18 13  1  0
M  END
>  <cnnaffinities>  (79) 
[5.27617, 5.27538]

>  <score>  (79) 
5.27617

>  <index>  (79) 
79

>  <Smiles>  (79) 
C(C1(C(C(N(C(=O)C(c2c(nc(c3c(c(c(c(c23)[H])[H])[H])[H])[H])[H])([H])[H])C(C1([H])[H])([H])[H])([H])[H])([H])[H])[H])([H])([H])[H]

>  <h>  (79) 
<NA>

>  <Training>  (79) 
True

>  <Success>  (79) 
True

>  <enamine_searched>  (79) 
False

>  <enamine_id>  (79) 
nan

$$$$

     RDKit          3D

 59 64  0  0  0  0  0  0  0  0999 V2000
    9.6653    0.3040   23.0998 C   0  0  0  0  0  0  0  0  0  0  0  0
    8.3053   -0.2671   22.7084 C   0  0  1  0  0  0  0  0  0  0  0  0
    7.7204    0.4765   21.4993 C   0  0  0  0  0  0  0  0  0  0  0  0
    6.7474   -0.4625   20.9705 N   0  0  0  0  0  0  0  0  0  0  0  0
    5.9028   -0.1311   19.8722 C   0  0  0  0  0  0  0  0  0  0  0  0
    6.3771   -0.1731   18.5854 C   0  0  0  0  0  0  0  0  0  0  0  0
    5.7266    0.3443   17.5118 N   0  0  0  0  0  0  0  0  0  0  0  0
    4.5529    0.8873   17.7069 C   0  0  0  0  0  0  0  0  0  0  0  0
    3.8937    0.9078   18.9672 C   0  0  0  0  0  0  0  0  0  0  0  0
    2.6194    1.5090   19.1347 C   0  0  0  0  0  0  0  0  0  0  0  0
    2.0135    1.5110   20.3630 C   0  0  0  0  0  0  0  0  0  0  0  0
    2.6724    0.9524   21.4774 C   0  0  0  0  0  0  0  0  0  0  0  0
    3.9257    0.4071   21.3476 C   0  0  0  0  0  0  0  0  0  0  0  0
    4.5769    0.3745   20.0866 C   0  0  0  0  0  0  0  0  0  0  0  0
    4.4627    0.0463   22.2159 H   0  0  0  0  0  0  0  0  0  0  0  0
    2.1971    0.9992   22.4557 H   0  0  0  0  0  0  0  0  0  0  0  0
    1.0467    1.9882   20.4972 H   0  0  0  0  0  0  0  0  0  0  0  0
    2.1626    2.0044   18.2838 H   0  0  0  0  0  0  0  0  0  0  0  0
    4.0625    1.3359   16.8391 H   0  0  0  0  0  0  0  0  0  0  0  0
    7.3419   -0.6265   18.3688 H   0  0  0  0  0  0  0  0  0  0  0  0
    7.0535   -1.7710   21.2854 C   0  0  0  0  0  0  0  0  0  0  0  0
    6.4672   -2.7347   20.8358 O   0  0  0  0  0  0  0  0  0  0  0  0
    8.2173   -1.7903   22.3151 C   0  0  1  0  0  0  0  0  0  0  0  0
    9.4806   -2.3337   21.6018 C   0  0  0  0  0  0  0  0  0  0  0  0
   10.5841   -2.6312   22.5315 N   0  0  0  0  0  0  0  0  0  0  0  0
   11.9332   -2.7340   21.9749 C   0  0  0  0  0  0  0  0  0  0  0  0
   12.7706   -1.4953   21.9234 C   0  0  0  0  0  0  0  0  0  0  0  0
   13.0847   -0.7944   20.7930 C   0  0  0  0  0  0  0  0  0  0  0  0
   13.8821    0.2797   21.2157 C   0  0  0  0  0  0  0  0  0  0  0  0
   14.1186    0.2046   22.5165 N   0  0  0  0  0  0  0  0  0  0  0  0
   13.4408   -0.8815   22.9416 N   0  0  0  0  0  0  0  0  0  0  0  0
   13.7553   -1.4054   24.2609 C   0  0  0  0  0  0  0  0  0  0  0  0
   14.3229   -0.6245   24.7715 H   0  0  0  0  0  0  0  0  0  0  0  0
   12.8354   -1.6445   24.8017 H   0  0  0  0  0  0  0  0  0  0  0  0
   14.3914   -2.2987   24.2020 H   0  0  0  0  0  0  0  0  0  0  0  0
   14.3625    1.0508   20.6266 H   0  0  0  0  0  0  0  0  0  0  0  0
   12.8532   -1.1251   19.7887 H   0  0  0  0  0  0  0  0  0  0  0  0
   12.4704   -3.4872   22.5535 H   0  0  0  0  0  0  0  0  0  0  0  0
   11.8364   -3.0795   20.9396 H   0  0  0  0  0  0  0  0  0  0  0  0
   10.3488   -3.3724   23.6677 C   0  0  0  0  0  0  0  0  0  0  0  0
   11.2523   -3.8605   24.3381 O   0  0  0  0  0  0  0  0  0  0  0  0
    8.9195   -3.5290   24.0539 C   0  0  0  0  0  0  0  0  0  0  0  0
    8.6225   -4.4742   25.0336 C   0  0  0  0  0  0  0  0  0  0  0  0
    7.3167   -4.7112   25.4149 C   0  0  0  0  0  0  0  0  0  0  0  0
    6.3241   -3.9399   24.8264 C   0  0  0  0  0  0  0  0  0  0  0  0
    5.0488   -4.1591   25.1859 F   0  0  0  0  0  0  0  0  0  0  0  0
    6.5982   -2.9622   23.8908 C   0  0  0  0  0  0  0  0  0  0  0  0
    7.9118   -2.7635   23.4494 C   0  0  0  0  0  0  0  0  0  0  0  0
    5.7775   -2.3846   23.4860 H   0  0  0  0  0  0  0  0  0  0  0  0
    7.0619   -5.4687   26.1469 H   0  0  0  0  0  0  0  0  0  0  0  0
    9.4510   -5.0158   25.4772 H   0  0  0  0  0  0  0  0  0  0  0  0
    9.1698   -3.2407   21.0641 H   0  0  0  0  0  0  0  0  0  0  0  0
    9.8296   -1.6206   20.8480 H   0  0  0  0  0  0  0  0  0  0  0  0
    7.2469    1.4243   21.7763 H   0  0  0  0  0  0  0  0  0  0  0  0
    8.5034    0.7203   20.7622 H   0  0  0  0  0  0  0  0  0  0  0  0
    7.6037   -0.1359   23.5429 H   0  0  0  0  0  0  0  0  0  0  0  0
   10.3829    0.1988   22.2791 H   0  0  0  0  0  0  0  0  0  0  0  0
    9.5697    1.3740   23.3190 H   0  0  0  0  0  0  0  0  0  0  0  0
   10.0778   -0.1867   23.9845 H   0  0  0  0  0  0  0  0  0  0  0  0
  1  2  1  0
  2  3  1  0
  3  4  1  0
  4  5  1  0
  5  6  2  0
  6  7  1  0
  7  8  2  0
  8  9  1  0
  9 10  2  0
 10 11  1  0
 11 12  2  0
 12 13  1  0
 13 14  2  0
 13 15  1  0
 12 16  1  0
 11 17  1  0
 10 18  1  0
  8 19  1  0
  6 20  1  0
  4 21  1  0
 21 22  2  0
 21 23  1  0
 23 24  1  6
 24 25  1  0
 25 26  1  0
 26 27  1  0
 27 28  2  0
 28 29  1  0
 29 30  2  0
 30 31  1  0
 31 32  1  0
 32 33  1  0
 32 34  1  0
 32 35  1  0
 29 36  1  0
 28 37  1  0
 26 38  1  0
 26 39  1  0
 25 40  1  0
 40 41  2  0
 40 42  1  0
 42 43  2  0
 43 44  1  0
 44 45  2  0
 45 46  1  0
 45 47  1  0
 47 48  2  0
 47 49  1  0
 44 50  1  0
 43 51  1  0
 24 52  1  0
 24 53  1  0
  3 54  1  0
  3 55  1  0
  2 56  1  1
  1 57  1  0
  1 58  1  0
  1 59  1  0
 23  2  1  0
 31 27  1  0
 48 42  1  0
 14  5  1  0
 48 23  1  0
 14  9  1  0
M  END
>  <cnnaffinities>  (80) 
[6.98104, 6.72924, 6.52325, 6.43876]

>  <score>  (80) 
6.98104

>  <index>  (80) 
80

>  <Smiles>  (80) 
C([C@]1(C(N(c2c(nc(c3c(c(c(c(c23)[H])[H])[H])[H])[H])[H])C(=O)[C@]21C(N(C(c1c(c(nn1C([H])([H])[H])[H])[H])([H])[H])C(=O)c1c(c(c(F)c(c21)[H])[H])[H])([H])[H])([H])[H])[H])([H])([H])[H]

>  <h>  (80) 
<NA>

>  <Training>  (80) 
True

>  <Success>  (80) 
True

>  <enamine_searched>  (80) 
False

>  <enamine_id>  (80) 
nan

$$$$

     RDKit          3D

 58 63  0  0  0  0  0  0  0  0999 V2000
    5.0671   -5.4136   26.4538 C   0  0  0  0  0  0  0  0  0  0  0  0
    5.9996   -4.2445   26.5555 C   0  0  0  0  0  0  0  0  0  0  0  0
    5.7824   -2.9736   26.4401 N   0  0  0  0  0  0  0  0  0  0  0  0
    7.0359   -2.3848   26.5528 C   0  0  0  0  0  0  0  0  0  0  0  0
    7.2397   -0.9071   26.4371 C   0  0  0  0  0  0  0  0  0  0  0  0
    8.0784   -0.5391   25.3067 N   0  0  0  0  0  0  0  0  0  0  0  0
    7.4651   -0.0902   24.0608 C   0  0  0  0  0  0  0  0  0  0  0  0
    8.2734   -0.4704   22.7890 C   0  0  2  0  0  0  0  0  0  0  0  0
    7.6554    0.3828   21.6576 C   0  0  0  0  0  0  0  0  0  0  0  0
    7.7834    1.5774   21.4911 O   0  0  0  0  0  0  0  0  0  0  0  0
    6.8509   -0.4346   20.8891 N   0  0  0  0  0  0  0  0  0  0  0  0
    6.0237    0.0340   19.8402 C   0  0  0  0  0  0  0  0  0  0  0  0
    6.4110   -0.1811   18.5429 C   0  0  0  0  0  0  0  0  0  0  0  0
    5.7410    0.2748   17.4611 N   0  0  0  0  0  0  0  0  0  0  0  0
    4.6516    0.9678   17.6791 C   0  0  0  0  0  0  0  0  0  0  0  0
    4.0881    1.1820   18.9667 C   0  0  0  0  0  0  0  0  0  0  0  0
    2.8661    1.8851   19.1283 C   0  0  0  0  0  0  0  0  0  0  0  0
    2.2999    2.0156   20.3691 C   0  0  0  0  0  0  0  0  0  0  0  0
    2.9271    1.4423   21.5039 C   0  0  0  0  0  0  0  0  0  0  0  0
    4.1358    0.7956   21.3748 C   0  0  0  0  0  0  0  0  0  0  0  0
    4.7608    0.6645   20.0958 C   0  0  0  0  0  0  0  0  0  0  0  0
    4.6338    0.3843   22.2488 H   0  0  0  0  0  0  0  0  0  0  0  0
    2.4676    1.5635   22.4818 H   0  0  0  0  0  0  0  0  0  0  0  0
    1.3721    2.5670   20.4809 H   0  0  0  0  0  0  0  0  0  0  0  0
    2.4010    2.2896   18.2340 H   0  0  0  0  0  0  0  0  0  0  0  0
    4.1468    1.3777   16.8069 H   0  0  0  0  0  0  0  0  0  0  0  0
    7.3468   -0.7022   18.3454 H   0  0  0  0  0  0  0  0  0  0  0  0
    6.8420   -1.8212   21.2801 C   0  0  0  0  0  0  0  0  0  0  0  0
    8.0193   -1.9312   22.2579 C   0  0  2  0  0  0  0  0  0  0  0  0
    7.7666   -3.0071   23.3021 C   0  0  0  0  0  0  0  0  0  0  0  0
    6.8188   -2.8315   23.8230 H   0  0  0  0  0  0  0  0  0  0  0  0
    8.5618   -3.0274   24.0512 H   0  0  0  0  0  0  0  0  0  0  0  0
    7.7092   -3.9879   22.8183 H   0  0  0  0  0  0  0  0  0  0  0  0
    8.9160   -2.2023   21.6816 H   0  0  0  0  0  0  0  0  0  0  0  0
    6.9541   -2.4571   20.3978 H   0  0  0  0  0  0  0  0  0  0  0  0
    5.8881   -2.1057   21.7567 H   0  0  0  0  0  0  0  0  0  0  0  0
    9.7471   -0.1745   23.0534 C   0  0  0  0  0  0  0  0  0  0  0  0
   10.6482    0.0915   22.0134 C   0  0  0  0  0  0  0  0  0  0  0  0
   11.9913    0.2953   22.2938 C   0  0  0  0  0  0  0  0  0  0  0  0
   12.8437    0.6031   21.3049 F   0  0  0  0  0  0  0  0  0  0  0  0
   12.5226    0.1886   23.5726 C   0  0  0  0  0  0  0  0  0  0  0  0
   11.6421   -0.0877   24.5929 C   0  0  0  0  0  0  0  0  0  0  0  0
   10.2768   -0.2255   24.3481 C   0  0  0  0  0  0  0  0  0  0  0  0
    9.4219   -0.4422   25.5402 C   0  0  0  0  0  0  0  0  0  0  0  0
    9.9123   -0.5285   26.6609 O   0  0  0  0  0  0  0  0  0  0  0  0
   11.9832   -0.1966   25.6145 H   0  0  0  0  0  0  0  0  0  0  0  0
   13.5859    0.3246   23.7463 H   0  0  0  0  0  0  0  0  0  0  0  0
   10.3076    0.1369   20.9872 H   0  0  0  0  0  0  0  0  0  0  0  0
    6.4564   -0.5177   23.9884 H   0  0  0  0  0  0  0  0  0  0  0  0
    7.3520    1.0040   24.0663 H   0  0  0  0  0  0  0  0  0  0  0  0
    7.7353   -0.5199   27.3351 H   0  0  0  0  0  0  0  0  0  0  0  0
    6.2630   -0.4304   26.3295 H   0  0  0  0  0  0  0  0  0  0  0  0
    7.9575   -3.3570   26.7395 C   0  0  0  0  0  0  0  0  0  0  0  0
    7.3046   -4.5582   26.7421 O   0  0  0  0  0  0  0  0  0  0  0  0
    9.0234   -3.3792   26.9107 H   0  0  0  0  0  0  0  0  0  0  0  0
    5.6671   -6.3223   26.4948 H   0  0  0  0  0  0  0  0  0  0  0  0
    4.3256   -5.4299   27.2566 H   0  0  0  0  0  0  0  0  0  0  0  0
    4.5255   -5.3774   25.5056 H   0  0  0  0  0  0  0  0  0  0  0  0
  1  2  1  0
  2  3  2  0
  3  4  1  0
  4  5  1  0
  5  6  1  0
  6  7  1  0
  8  7  1  1
  8  9  1  0
  9 10  2  0
  9 11  1  0
 11 12  1  0
 12 13  2  0
 13 14  1  0
 14 15  2  0
 15 16  1  0
 16 17  2  0
 17 18  1  0
 18 19  2  0
 19 20  1  0
 20 21  2  0
 20 22  1  0
 19 23  1  0
 18 24  1  0
 17 25  1  0
 15 26  1  0
 13 27  1  0
 11 28  1  0
 28 29  1  0
 29 30  1  0
 30 31  1  0
 30 32  1  0
 30 33  1  0
 29 34  1  6
 28 35  1  0
 28 36  1  0
  8 37  1  0
 37 38  2  0
 38 39  1  0
 39 40  1  0
 39 41  2  0
 41 42  1  0
 42 43  2  0
 43 44  1  0
 44 45  2  0
 42 46  1  0
 41 47  1  0
 38 48  1  0
  7 49  1  0
  7 50  1  0
  5 51  1  0
  5 52  1  0
  4 53  2  0
 53 54  1  0
 53 55  1  0
  1 56  1  0
  1 57  1  0
  1 58  1  0
 54  2  1  0
 44  6  1  0
 29  8  1  0
 43 37  1  0
 21 12  1  0
 21 16  1  0
M  END
>  <cnnaffinities>  (81) 
[6.47572, 6.76401]

>  <score>  (81) 
6.47572

>  <index>  (81) 
81

>  <Smiles>  (81) 
C(c1nc(C(N2C([C@@]3(C(=O)N(c4c(nc(c5c(c(c(c(c45)[H])[H])[H])[H])[H])[H])C([C@@]3(C([H])([H])[H])[H])([H])[H])c3c(c(F)c(c(c3C2=O)[H])[H])[H])([H])[H])([H])[H])c(o1)[H])([H])([H])[H]

>  <h>  (81) 
<NA>

>  <Training>  (81) 
True

>  <Success>  (81) 
True

>  <enamine_searched>  (81) 
False

>  <enamine_id>  (81) 
nan

$$$$

     RDKit          3D

 55 60  0  0  0  0  0  0  0  0999 V2000
    7.7890   -3.0360   23.2715 C   0  0  0  0  0  0  0  0  0  0  0  0
    8.0277   -1.9448   22.2401 C   0  0  1  0  0  0  0  0  0  0  0  0
    6.8442   -1.8236   21.2709 C   0  0  0  0  0  0  0  0  0  0  0  0
    6.8550   -0.4328   20.8911 N   0  0  0  0  0  0  0  0  0  0  0  0
    6.0331    0.0458   19.8432 C   0  0  0  0  0  0  0  0  0  0  0  0
    6.4137   -0.1780   18.5465 C   0  0  0  0  0  0  0  0  0  0  0  0
    5.7393    0.2722   17.4656 N   0  0  0  0  0  0  0  0  0  0  0  0
    4.6564    0.9752   17.6791 C   0  0  0  0  0  0  0  0  0  0  0  0
    4.0964    1.1936   18.9665 C   0  0  0  0  0  0  0  0  0  0  0  0
    2.8711    1.8881   19.1248 C   0  0  0  0  0  0  0  0  0  0  0  0
    2.3057    2.0278   20.3651 C   0  0  0  0  0  0  0  0  0  0  0  0
    2.9389    1.4630   21.5023 C   0  0  0  0  0  0  0  0  0  0  0  0
    4.1440    0.8073   21.3689 C   0  0  0  0  0  0  0  0  0  0  0  0
    4.7689    0.6751   20.0932 C   0  0  0  0  0  0  0  0  0  0  0  0
    4.6474    0.4094   22.2454 H   0  0  0  0  0  0  0  0  0  0  0  0
    2.4844    1.5939   22.4819 H   0  0  0  0  0  0  0  0  0  0  0  0
    1.3846    2.5923   20.4796 H   0  0  0  0  0  0  0  0  0  0  0  0
    2.4084    2.3000   18.2328 H   0  0  0  0  0  0  0  0  0  0  0  0
    4.1535    1.3730   16.8013 H   0  0  0  0  0  0  0  0  0  0  0  0
    7.3456   -0.7057   18.3423 H   0  0  0  0  0  0  0  0  0  0  0  0
    7.6491    0.3767   21.6760 C   0  0  0  0  0  0  0  0  0  0  0  0
    7.7662    1.5772   21.5297 O   0  0  0  0  0  0  0  0  0  0  0  0
    8.2750   -0.4919   22.7915 C   0  0  1  0  0  0  0  0  0  0  0  0
    7.4760   -0.1451   24.0733 C   0  0  0  0  0  0  0  0  0  0  0  0
    8.0925   -0.6523   25.2909 N   0  0  0  0  0  0  0  0  0  0  0  0
    7.2626   -1.0346   26.4111 C   0  0  0  0  0  0  0  0  0  0  0  0
    7.1495   -2.5203   26.5418 C   0  0  0  0  0  0  0  0  0  0  0  0
    6.0826   -3.2427   26.4591 N   0  0  0  0  0  0  0  0  0  0  0  0
    6.5215   -4.5241   26.7736 C   0  0  0  0  0  0  0  0  0  0  0  0
    7.8479   -4.4979   27.0111 C   0  0  0  0  0  0  0  0  0  0  0  0
    8.2741   -3.2077   26.8424 O   0  0  0  0  0  0  0  0  0  0  0  0
    8.5714   -5.2318   27.3254 H   0  0  0  0  0  0  0  0  0  0  0  0
    5.8452   -5.3639   26.8325 H   0  0  0  0  0  0  0  0  0  0  0  0
    7.7164   -0.6314   27.3209 H   0  0  0  0  0  0  0  0  0  0  0  0
    6.2640   -0.6177   26.2892 H   0  0  0  0  0  0  0  0  0  0  0  0
    9.4210   -0.4503   25.5526 C   0  0  0  0  0  0  0  0  0  0  0  0
    9.8889   -0.4447   26.6782 O   0  0  0  0  0  0  0  0  0  0  0  0
   10.2746   -0.2307   24.3570 C   0  0  0  0  0  0  0  0  0  0  0  0
   11.6374   -0.0684   24.5996 C   0  0  0  0  0  0  0  0  0  0  0  0
   12.5118    0.2147   23.5768 C   0  0  0  0  0  0  0  0  0  0  0  0
   11.9779    0.3116   22.3003 C   0  0  0  0  0  0  0  0  0  0  0  0
   12.8300    0.6335   21.3169 F   0  0  0  0  0  0  0  0  0  0  0  0
   10.6387    0.0905   22.0202 C   0  0  0  0  0  0  0  0  0  0  0  0
    9.7448   -0.1893   23.0615 C   0  0  0  0  0  0  0  0  0  0  0  0
   10.2920    0.1402   20.9966 H   0  0  0  0  0  0  0  0  0  0  0  0
   13.5741    0.3689   23.7403 H   0  0  0  0  0  0  0  0  0  0  0  0
   11.9876   -0.1650   25.6180 H   0  0  0  0  0  0  0  0  0  0  0  0
    7.3856    0.9500   24.1257 H   0  0  0  0  0  0  0  0  0  0  0  0
    6.4624   -0.5559   23.9936 H   0  0  0  0  0  0  0  0  0  0  0  0
    6.9481   -2.4495   20.3819 H   0  0  0  0  0  0  0  0  0  0  0  0
    5.8937   -2.1181   21.7482 H   0  0  0  0  0  0  0  0  0  0  0  0
    8.9226   -2.1966   21.6528 H   0  0  0  0  0  0  0  0  0  0  0  0
    8.6010   -3.0732   23.9993 H   0  0  0  0  0  0  0  0  0  0  0  0
    6.8562   -2.8582   23.8159 H   0  0  0  0  0  0  0  0  0  0  0  0
    7.7099   -4.0075   22.7721 H   0  0  0  0  0  0  0  0  0  0  0  0
  1  2  1  0
  2  3  1  0
  3  4  1  0
  4  5  1  0
  5  6  2  0
  6  7  1  0
  7  8  2  0
  8  9  1  0
  9 10  2  0
 10 11  1  0
 11 12  2  0
 12 13  1  0
 13 14  2  0
 13 15  1  0
 12 16  1  0
 11 17  1  0
 10 18  1  0
  8 19  1  0
  6 20  1  0
  4 21  1  0
 21 22  2  0
 21 23  1  0
 23 24  1  1
 24 25  1  0
 25 26  1  0
 26 27  1  0
 27 28  2  0
 28 29  1  0
 29 30  2  0
 30 31  1  0
 30 32  1  0
 29 33  1  0
 26 34  1  0
 26 35  1  0
 25 36  1  0
 36 37  2  0
 36 38  1  0
 38 39  2  0
 39 40  1  0
 40 41  2  0
 41 42  1  0
 41 43  1  0
 43 44  2  0
 43 45  1  0
 40 46  1  0
 39 47  1  0
 24 48  1  0
 24 49  1  0
  3 50  1  0
  3 51  1  0
  2 52  1  6
  1 53  1  0
  1 54  1  0
  1 55  1  0
 23  2  1  0
 31 27  1  0
 44 38  1  0
 14  5  1  0
 44 23  1  0
 14  9  1  0
M  END
>  <cnnaffinities>  (82) 
[6.43992, 6.44601]

>  <score>  (82) 
6.43992

>  <index>  (82) 
82

>  <Smiles>  (82) 
C([C@]1(C(N(c2c(nc(c3c(c(c(c(c23)[H])[H])[H])[H])[H])[H])C(=O)[C@]21C(N(C(c1nc(c(o1)[H])[H])([H])[H])C(=O)c1c(c(c(F)c(c21)[H])[H])[H])([H])[H])([H])[H])[H])([H])([H])[H]

>  <h>  (82) 
<NA>

>  <Training>  (82) 
True

>  <Success>  (82) 
True

>  <enamine_searched>  (82) 
False

>  <enamine_id>  (82) 
nan

$$$$

     RDKit          3D

 72 77  0  0  0  0  0  0  0  0999 V2000
    9.6002    5.8403   23.8226 C   0  0  0  0  0  0  0  0  0  0  0  0
    8.4815    5.9551   22.7892 C   0  0  2  0  0  0  0  0  0  0  0  0
    7.8013    7.3127   22.8683 C   0  0  0  0  0  0  0  0  0  0  0  0
    7.1072    7.4645   24.0897 O   0  0  0  0  0  0  0  0  0  0  0  0
    6.0178    6.5668   24.1400 C   0  0  0  0  0  0  0  0  0  0  0  0
    6.4408    5.1002   24.1048 C   0  0  1  0  0  0  0  0  0  0  0  0
    5.2203    4.2044   23.9415 C   0  0  0  0  0  0  0  0  0  0  0  0
    4.7224    4.4450   22.9923 H   0  0  0  0  0  0  0  0  0  0  0  0
    4.5053    4.3576   24.7554 H   0  0  0  0  0  0  0  0  0  0  0  0
    5.4741    3.1418   23.9186 H   0  0  0  0  0  0  0  0  0  0  0  0
    7.3940    4.8976   22.9328 N   0  0  0  0  0  4  0  0  0  0  0  0
    7.9227    3.5107   22.7572 C   0  0  0  0  0  0  0  0  0  0  0  0
    8.3471    2.8295   24.0598 C   0  0  0  0  0  0  0  0  0  0  0  0
    9.0077    1.5738   23.7728 N   0  0  0  0  0  0  0  0  0  0  0  0
    8.2337    0.3498   23.7018 C   0  0  0  0  0  0  0  0  0  0  0  0
    8.5804   -0.4919   22.4472 C   0  0  2  0  0  0  0  0  0  0  0  0
    8.0130    0.1774   21.1734 C   0  0  0  0  0  0  0  0  0  0  0  0
    8.5089    1.0901   20.5321 O   0  0  0  0  0  0  0  0  0  0  0  0
    6.8138   -0.4254   20.8758 N   0  0  0  0  0  0  0  0  0  0  0  0
    5.9987    0.0147   19.8175 C   0  0  0  0  0  0  0  0  0  0  0  0
    6.4181   -0.1335   18.5189 C   0  0  0  0  0  0  0  0  0  0  0  0
    5.7330    0.3209   17.4452 N   0  0  0  0  0  0  0  0  0  0  0  0
    4.6082    0.9507   17.6750 C   0  0  0  0  0  0  0  0  0  0  0  0
    4.0446    1.1354   18.9673 C   0  0  0  0  0  0  0  0  0  0  0  0
    2.8317    1.8454   19.1530 C   0  0  0  0  0  0  0  0  0  0  0  0
    2.2811    1.9682   20.3994 C   0  0  0  0  0  0  0  0  0  0  0  0
    2.9345    1.4094   21.5211 C   0  0  0  0  0  0  0  0  0  0  0  0
    4.1367    0.7575   21.3719 C   0  0  0  0  0  0  0  0  0  0  0  0
    4.7342    0.6253   20.0853 C   0  0  0  0  0  0  0  0  0  0  0  0
    4.6399    0.3557   22.2440 H   0  0  0  0  0  0  0  0  0  0  0  0
    2.4945    1.5141   22.5063 H   0  0  0  0  0  0  0  0  0  0  0  0
    1.3545    2.5152   20.5358 H   0  0  0  0  0  0  0  0  0  0  0  0
    2.3408    2.2411   18.2705 H   0  0  0  0  0  0  0  0  0  0  0  0
    4.0920    1.3732   16.8140 H   0  0  0  0  0  0  0  0  0  0  0  0
    7.3728   -0.6051   18.3047 H   0  0  0  0  0  0  0  0  0  0  0  0
    6.5018   -1.5780   21.6886 C   0  0  0  0  0  0  0  0  0  0  0  0
    7.8083   -1.8467   22.4403 C   0  0  2  0  0  0  0  0  0  0  0  0
    7.5470   -2.5086   23.7837 C   0  0  0  0  0  0  0  0  0  0  0  0
    6.8838   -1.8867   24.3984 H   0  0  0  0  0  0  0  0  0  0  0  0
    7.0482   -3.4703   23.6238 H   0  0  0  0  0  0  0  0  0  0  0  0
    8.4732   -2.6832   24.3400 H   0  0  0  0  0  0  0  0  0  0  0  0
    8.3784   -2.5421   21.8217 H   0  0  0  0  0  0  0  0  0  0  0  0
    5.6790   -1.3885   22.3912 H   0  0  0  0  0  0  0  0  0  0  0  0
    6.2038   -2.4275   21.0630 H   0  0  0  0  0  0  0  0  0  0  0  0
   10.0873   -0.6033   22.3650 C   0  0  0  0  0  0  0  0  0  0  0  0
   10.6693   -1.5943   21.5710 C   0  0  0  0  0  0  0  0  0  0  0  0
   12.0381   -1.6386   21.4035 C   0  0  0  0  0  0  0  0  0  0  0  0
   12.6869   -2.7792   20.2653 Cl  0  0  0  0  0  0  0  0  0  0  0  0
   12.8877   -0.7670   22.0828 C   0  0  0  0  0  0  0  0  0  0  0  0
   12.3206    0.2264   22.8578 C   0  0  0  0  0  0  0  0  0  0  0  0
   10.9333    0.3454   22.9580 C   0  0  0  0  0  0  0  0  0  0  0  0
   10.3637    1.5599   23.6310 C   0  0  0  0  0  0  0  0  0  0  0  0
   11.0804    2.4889   23.9996 O   0  0  0  0  0  0  0  0  0  0  0  0
   12.9416    0.9514   23.3715 H   0  0  0  0  0  0  0  0  0  0  0  0
   13.9625   -0.8591   21.9712 H   0  0  0  0  0  0  0  0  0  0  0  0
   10.0686   -2.3371   21.0596 H   0  0  0  0  0  0  0  0  0  0  0  0
    8.4431   -0.2566   24.5940 H   0  0  0  0  0  0  0  0  0  0  0  0
    7.1665    0.6015   23.7043 H   0  0  0  0  0  0  0  0  0  0  0  0
    9.0391    3.4475   24.6345 H   0  0  0  0  0  0  0  0  0  0  0  0
    7.4795    2.6457   24.7016 H   0  0  0  0  0  0  0  0  0  0  0  0
    7.1705    2.8922   22.2499 H   0  0  0  0  0  0  0  0  0  0  0  0
    8.7831    3.5569   22.0790 H   0  0  0  0  0  0  0  0  0  0  0  0
    6.7815    5.0461   22.1038 H   0  0  0  0  0  0  0  0  0  0  0  0
    6.9725    4.8642   25.0315 H   0  0  0  0  0  0  0  0  0  0  0  0
    5.4666    6.7765   25.0627 H   0  0  0  0  0  0  0  0  0  0  0  0
    5.3456    6.7553   23.2847 H   0  0  0  0  0  0  0  0  0  0  0  0
    7.1035    7.4220   22.0221 H   0  0  0  0  0  0  0  0  0  0  0  0
    8.5437    8.1146   22.8081 H   0  0  0  0  0  0  0  0  0  0  0  0
    8.9052    5.8269   21.7846 H   0  0  0  0  0  0  0  0  0  0  0  0
   10.2610    6.7091   23.7393 H   0  0  0  0  0  0  0  0  0  0  0  0
    9.1944    5.8328   24.8396 H   0  0  0  0  0  0  0  0  0  0  0  0
   10.2127    4.9451   23.6704 H   0  0  0  0  0  0  0  0  0  0  0  0
  1  2  1  0
  2  3  1  0
  3  4  1  0
  4  5  1  0
  5  6  1  0
  6  7  1  0
  7  8  1  0
  7  9  1  0
  7 10  1  0
  6 11  1  0
 11 12  1  0
 12 13  1  0
 13 14  1  0
 14 15  1  0
 16 15  1  1
 16 17  1  0
 17 18  2  0
 17 19  1  0
 19 20  1  0
 20 21  2  0
 21 22  1  0
 22 23  2  0
 23 24  1  0
 24 25  2  0
 25 26  1  0
 26 27  2  0
 27 28  1  0
 28 29  2  0
 28 30  1  0
 27 31  1  0
 26 32  1  0
 25 33  1  0
 23 34  1  0
 21 35  1  0
 19 36  1  0
 36 37  1  0
 37 38  1  0
 38 39  1  0
 38 40  1  0
 38 41  1  0
 37 42  1  6
 36 43  1  0
 36 44  1  0
 16 45  1  0
 45 46  2  0
 46 47  1  0
 47 48  1  0
 47 49  2  0
 49 50  1  0
 50 51  2  0
 51 52  1  0
 52 53  2  0
 50 54  1  0
 49 55  1  0
 46 56  1  0
 15 57  1  0
 15 58  1  0
 13 59  1  0
 13 60  1  0
 12 61  1  0
 12 62  1  0
 11 63  1  0
  6 64  1  1
  5 65  1  0
  5 66  1  0
  3 67  1  0
  3 68  1  0
  2 69  1  6
  1 70  1  0
  1 71  1  0
  1 72  1  0
 11  2  1  0
 52 14  1  0
 37 16  1  0
 51 45  1  0
 29 20  1  0
 29 24  1  0
M  CHG  1  11   1
M  END
>  <cnnaffinities>  (83) 
[6.80801]

>  <score>  (83) 
6.80801

>  <index>  (83) 
83

>  <Smiles>  (83) 
C([C@@]1(C(OC([C@@](C([H])([H])[H])([N+]1(C(C(N1C([C@@]2(C(=O)N(c3c(nc(c4c(c(c(c(c34)[H])[H])[H])[H])[H])[H])C([C@@]2(C([H])([H])[H])[H])([H])[H])c2c(c(Cl)c(c(c2C1=O)[H])[H])[H])([H])[H])([H])[H])([H])[H])[H])[H])([H])[H])([H])[H])[H])([H])([H])[H]

>  <h>  (83) 
<NA>

>  <Training>  (83) 
True

>  <Success>  (83) 
True

>  <enamine_searched>  (83) 
False

>  <enamine_id>  (83) 
nan

$$$$

     RDKit          3D

 60 65  0  0  0  0  0  0  0  0999 V2000
    7.6866   -8.6314   22.9727 C   0  0  0  0  0  0  0  0  0  0  0  0
    6.8017   -7.5589   22.5743 N   0  0  0  0  0  0  0  0  0  0  0  0
    7.2212   -6.6896   21.6156 C   0  0  0  0  0  0  0  0  0  0  0  0
    8.1621   -6.9291   20.8721 O   0  0  0  0  0  0  0  0  0  0  0  0
    6.3971   -5.4165   21.5568 C   0  0  0  0  0  0  0  0  0  0  0  0
    6.7542   -4.4256   22.5291 N   0  0  0  0  0  0  0  0  0  0  0  0
    7.8286   -3.4965   22.2537 C   0  0  0  0  0  0  0  0  0  0  0  0
    7.4110   -2.0611   22.6439 C   0  0  2  0  0  0  0  0  0  0  0  0
    6.2874   -1.6089   21.6777 C   0  0  0  0  0  0  0  0  0  0  0  0
    5.1782   -2.1047   21.5857 O   0  0  0  0  0  0  0  0  0  0  0  0
    6.7444   -0.5776   20.8842 N   0  0  0  0  0  0  0  0  0  0  0  0
    5.9858   -0.0137   19.8340 C   0  0  0  0  0  0  0  0  0  0  0  0
    6.4426   -0.1019   18.5403 C   0  0  0  0  0  0  0  0  0  0  0  0
    5.7868    0.3806   17.4593 N   0  0  0  0  0  0  0  0  0  0  0  0
    4.6500    0.9971   17.6690 C   0  0  0  0  0  0  0  0  0  0  0  0
    4.0577    1.1663   18.9529 C   0  0  0  0  0  0  0  0  0  0  0  0
    2.8160    1.8443   19.1156 C   0  0  0  0  0  0  0  0  0  0  0  0
    2.2727    1.9994   20.3633 C   0  0  0  0  0  0  0  0  0  0  0  0
    2.9279    1.4580   21.4959 C   0  0  0  0  0  0  0  0  0  0  0  0
    4.1233    0.7924   21.3649 C   0  0  0  0  0  0  0  0  0  0  0  0
    4.7269    0.6340   20.0797 C   0  0  0  0  0  0  0  0  0  0  0  0
    4.6050    0.3750   22.2428 H   0  0  0  0  0  0  0  0  0  0  0  0
    2.5007    1.6125   22.4820 H   0  0  0  0  0  0  0  0  0  0  0  0
    1.3386    2.5390   20.4941 H   0  0  0  0  0  0  0  0  0  0  0  0
    2.3273    2.2468   18.2315 H   0  0  0  0  0  0  0  0  0  0  0  0
    4.1141    1.3559   16.7902 H   0  0  0  0  0  0  0  0  0  0  0  0
    7.3668   -0.6407   18.3291 H   0  0  0  0  0  0  0  0  0  0  0  0
    8.1887   -0.4306   20.9657 C   0  0  0  0  0  0  0  0  0  0  0  0
    8.5286   -1.0152   22.3469 C   0  0  2  0  0  0  0  0  0  0  0  0
    9.9708   -1.5126   22.4366 C   0  0  0  0  0  0  0  0  0  0  0  0
   10.6834   -0.6925   22.2910 H   0  0  0  0  0  0  0  0  0  0  0  0
   10.1798   -1.9718   23.4098 H   0  0  0  0  0  0  0  0  0  0  0  0
   10.1774   -2.2619   21.6623 H   0  0  0  0  0  0  0  0  0  0  0  0
    8.3942   -0.2057   23.0644 H   0  0  0  0  0  0  0  0  0  0  0  0
    8.6990   -0.9882   20.1657 H   0  0  0  0  0  0  0  0  0  0  0  0
    8.4537    0.6258   20.8710 H   0  0  0  0  0  0  0  0  0  0  0  0
    6.9113   -2.1107   24.0802 C   0  0  0  0  0  0  0  0  0  0  0  0
    6.8674   -0.9544   24.8690 C   0  0  0  0  0  0  0  0  0  0  0  0
    6.3961   -1.0181   26.1672 C   0  0  0  0  0  0  0  0  0  0  0  0
    6.3655    0.4382   27.1233 Cl  0  0  0  0  0  0  0  0  0  0  0  0
    5.9339   -2.2110   26.7252 C   0  0  0  0  0  0  0  0  0  0  0  0
    5.9287   -3.3476   25.9412 C   0  0  0  0  0  0  0  0  0  0  0  0
    6.3940   -3.2982   24.6262 C   0  0  0  0  0  0  0  0  0  0  0  0
    6.2422   -4.5227   23.7918 C   0  0  0  0  0  0  0  0  0  0  0  0
    5.6487   -5.5257   24.1839 O   0  0  0  0  0  0  0  0  0  0  0  0
    5.5478   -4.2923   26.3174 H   0  0  0  0  0  0  0  0  0  0  0  0
    5.5659   -2.2204   27.7460 H   0  0  0  0  0  0  0  0  0  0  0  0
    7.1700    0.0089   24.4724 H   0  0  0  0  0  0  0  0  0  0  0  0
    8.0403   -3.5235   21.1954 H   0  0  0  0  0  0  0  0  0  0  0  0
    8.7314   -3.7973   22.8048 H   0  0  0  0  0  0  0  0  0  0  0  0
    4.9485   -5.5851   21.2301 C   0  0  0  0  0  0  0  0  0  0  0  0
    5.8632   -4.9684   20.2210 C   0  0  0  0  0  0  0  0  0  0  0  0
    6.1309   -5.5646   19.3538 H   0  0  0  0  0  0  0  0  0  0  0  0
    5.7673   -3.8920   20.0827 H   0  0  0  0  0  0  0  0  0  0  0  0
    4.6377   -6.6163   21.0855 H   0  0  0  0  0  0  0  0  0  0  0  0
    4.2665   -4.9427   21.7732 H   0  0  0  0  0  0  0  0  0  0  0  0
    6.1573   -7.2100   23.2742 H   0  0  0  0  0  0  0  0  0  0  0  0
    8.0157   -9.1969   22.1009 H   0  0  0  0  0  0  0  0  0  0  0  0
    8.5937   -8.2705   23.4790 H   0  0  0  0  0  0  0  0  0  0  0  0
    7.1173   -9.2792   23.6406 H   0  0  0  0  0  0  0  0  0  0  0  0
  1  2  1  0
  2  3  1  0
  3  4  2  0
  3  5  1  0
  5  6  1  0
  6  7  1  0
  8  7  1  6
  8  9  1  0
  9 10  2  0
  9 11  1  0
 11 12  1  0
 12 13  2  0
 13 14  1  0
 14 15  2  0
 15 16  1  0
 16 17  2  0
 17 18  1  0
 18 19  2  0
 19 20  1  0
 20 21  2  0
 20 22  1  0
 19 23  1  0
 18 24  1  0
 17 25  1  0
 15 26  1  0
 13 27  1  0
 11 28  1  0
 28 29  1  0
 29 30  1  0
 30 31  1  0
 30 32  1  0
 30 33  1  0
 29 34  1  1
 28 35  1  0
 28 36  1  0
  8 37  1  0
 37 38  2  0
 38 39  1  0
 39 40  1  0
 39 41  2  0
 41 42  1  0
 42 43  2  0
 43 44  1  0
 44 45  2  0
 42 46  1  0
 41 47  1  0
 38 48  1  0
  7 49  1  0
  7 50  1  0
  5 51  1  0
 51 52  1  0
 52 53  1  0
 52 54  1  0
 51 55  1  0
 51 56  1  0
  2 57  1  0
  1 58  1  0
  1 59  1  0
  1 60  1  0
 52  5  1  0
 44  6  1  0
 29  8  1  0
 43 37  1  0
 21 12  1  0
 21 16  1  0
M  END
>  <cnnaffinities>  (84) 
[6.66201]

>  <score>  (84) 
6.66201

>  <index>  (84) 
84

>  <Smiles>  (84) 
C(N(C(=O)C1(N2C([C@@]3(C(=O)N(c4c(nc(c5c(c(c(c(c45)[H])[H])[H])[H])[H])[H])C([C@@]3(C([H])([H])[H])[H])([H])[H])c3c(c(Cl)c(c(c3C2=O)[H])[H])[H])([H])[H])C(C1([H])[H])([H])[H])[H])([H])([H])[H]

>  <h>  (84) 
<NA>

>  <Training>  (84) 
True

>  <Success>  (84) 
True

>  <enamine_searched>  (84) 
False

>  <enamine_id>  (84) 
nan

$$$$

     RDKit          3D

 55 60  0  0  0  0  0  0  0  0999 V2000
    7.7683   -3.0139   23.3115 C   0  0  0  0  0  0  0  0  0  0  0  0
    8.0104   -1.9380   22.2622 C   0  0  1  0  0  0  0  0  0  0  0  0
    6.8353   -1.8267   21.2819 C   0  0  0  0  0  0  0  0  0  0  0  0
    6.8437   -0.4405   20.8910 N   0  0  0  0  0  0  0  0  0  0  0  0
    6.0159    0.0240   19.8419 C   0  0  0  0  0  0  0  0  0  0  0  0
    6.4108   -0.1816   18.5454 C   0  0  0  0  0  0  0  0  0  0  0  0
    5.7465    0.2810   17.4636 N   0  0  0  0  0  0  0  0  0  0  0  0
    4.6495    0.9633   17.6808 C   0  0  0  0  0  0  0  0  0  0  0  0
    4.0780    1.1633   18.9674 C   0  0  0  0  0  0  0  0  0  0  0  0
    2.8610    1.8744   19.1282 C   0  0  0  0  0  0  0  0  0  0  0  0
    2.2954    2.0096   20.3689 C   0  0  0  0  0  0  0  0  0  0  0  0
    2.9213    1.4372   21.5052 C   0  0  0  0  0  0  0  0  0  0  0  0
    4.1303    0.7911   21.3765 C   0  0  0  0  0  0  0  0  0  0  0  0
    4.7500    0.6475   20.0974 C   0  0  0  0  0  0  0  0  0  0  0  0
    4.6289    0.3929   22.2565 H   0  0  0  0  0  0  0  0  0  0  0  0
    2.4575    1.5554   22.4809 H   0  0  0  0  0  0  0  0  0  0  0  0
    1.3676    2.5598   20.4824 H   0  0  0  0  0  0  0  0  0  0  0  0
    2.4048    2.2930   18.2372 H   0  0  0  0  0  0  0  0  0  0  0  0
    4.1501    1.3842   16.8123 H   0  0  0  0  0  0  0  0  0  0  0  0
    7.3467   -0.7045   18.3499 H   0  0  0  0  0  0  0  0  0  0  0  0
    7.6454    0.3777   21.6619 C   0  0  0  0  0  0  0  0  0  0  0  0
    7.7699    1.5745   21.4995 O   0  0  0  0  0  0  0  0  0  0  0  0
    8.2637   -0.4761   22.7905 C   0  0  1  0  0  0  0  0  0  0  0  0
    7.4547   -0.1006   24.0607 C   0  0  0  0  0  0  0  0  0  0  0  0
    8.0678   -0.5542   25.3024 N   0  0  0  0  0  0  0  0  0  0  0  0
    7.2276   -0.9212   26.4255 C   0  0  0  0  0  0  0  0  0  0  0  0
    7.0296   -2.3983   26.5316 C   0  0  0  0  0  0  0  0  0  0  0  0
    7.9440   -3.3779   26.7319 C   0  0  0  0  0  0  0  0  0  0  0  0
    7.2762   -4.5737   26.7759 O   0  0  0  0  0  0  0  0  0  0  0  0
    5.9881   -4.2349   26.5886 C   0  0  0  0  0  0  0  0  0  0  0  0
    5.7745   -2.9740   26.4356 N   0  0  0  0  0  0  0  0  0  0  0  0
    5.2461   -5.0269   26.6105 H   0  0  0  0  0  0  0  0  0  0  0  0
    9.0116   -3.4077   26.9075 H   0  0  0  0  0  0  0  0  0  0  0  0
    7.7154   -0.5405   27.3290 H   0  0  0  0  0  0  0  0  0  0  0  0
    6.2527   -0.4408   26.3121 H   0  0  0  0  0  0  0  0  0  0  0  0
    9.4091   -0.4541   25.5424 C   0  0  0  0  0  0  0  0  0  0  0  0
    9.8955   -0.5394   26.6642 O   0  0  0  0  0  0  0  0  0  0  0  0
   10.2638   -0.2355   24.3527 C   0  0  0  0  0  0  0  0  0  0  0  0
   11.6265   -0.0941   24.6038 C   0  0  0  0  0  0  0  0  0  0  0  0
   12.5062    0.1872   23.5842 C   0  0  0  0  0  0  0  0  0  0  0  0
   11.9776    0.2962   22.3038 C   0  0  0  0  0  0  0  0  0  0  0  0
   12.8302    0.6082   21.3162 F   0  0  0  0  0  0  0  0  0  0  0  0
   10.6360    0.0913   22.0190 C   0  0  0  0  0  0  0  0  0  0  0  0
    9.7356   -0.1792   23.0575 C   0  0  0  0  0  0  0  0  0  0  0  0
   10.2961    0.1385   20.9923 H   0  0  0  0  0  0  0  0  0  0  0  0
   13.5684    0.3252   23.7593 H   0  0  0  0  0  0  0  0  0  0  0  0
   11.9557   -0.2052   25.6298 H   0  0  0  0  0  0  0  0  0  0  0  0
    7.3415    0.9937   24.0710 H   0  0  0  0  0  0  0  0  0  0  0  0
    6.4478   -0.5334   23.9884 H   0  0  0  0  0  0  0  0  0  0  0  0
    5.8777   -2.1058   21.7530 H   0  0  0  0  0  0  0  0  0  0  0  0
    6.9504   -2.4585   20.3966 H   0  0  0  0  0  0  0  0  0  0  0  0
    8.9082   -2.2078   21.6864 H   0  0  0  0  0  0  0  0  0  0  0  0
    8.5840   -3.0367   24.0384 H   0  0  0  0  0  0  0  0  0  0  0  0
    6.8338   -2.8419   23.8591 H   0  0  0  0  0  0  0  0  0  0  0  0
    7.6989   -3.9946   22.8288 H   0  0  0  0  0  0  0  0  0  0  0  0
  1  2  1  0
  2  3  1  0
  3  4  1  0
  4  5  1  0
  5  6  2  0
  6  7  1  0
  7  8  2  0
  8  9  1  0
  9 10  2  0
 10 11  1  0
 11 12  2  0
 12 13  1  0
 13 14  2  0
 13 15  1  0
 12 16  1  0
 11 17  1  0
 10 18  1  0
  8 19  1  0
  6 20  1  0
  4 21  1  0
 21 22  2  0
 21 23  1  0
 23 24  1  1
 24 25  1  0
 25 26  1  0
 26 27  1  0
 27 28  2  0
 28 29  1  0
 29 30  1  0
 30 31  2  0
 30 32  1  0
 28 33  1  0
 26 34  1  0
 26 35  1  0
 25 36  1  0
 36 37  2  0
 36 38  1  0
 38 39  2  0
 39 40  1  0
 40 41  2  0
 41 42  1  0
 41 43  1  0
 43 44  2  0
 43 45  1  0
 40 46  1  0
 39 47  1  0
 24 48  1  0
 24 49  1  0
  3 50  1  0
  3 51  1  0
  2 52  1  6
  1 53  1  0
  1 54  1  0
  1 55  1  0
 23  2  1  0
 31 27  1  0
 44 38  1  0
 14  5  1  0
 44 23  1  0
 14  9  1  0
M  END
>  <cnnaffinities>  (85) 
[6.36735, 6.23109]

>  <score>  (85) 
6.36735

>  <index>  (85) 
85

>  <Smiles>  (85) 
C([C@]1(C(N(c2c(nc(c3c(c(c(c(c23)[H])[H])[H])[H])[H])[H])C(=O)[C@]21C(N(C(c1c(oc(n1)[H])[H])([H])[H])C(=O)c1c(c(c(F)c(c21)[H])[H])[H])([H])[H])([H])[H])[H])([H])([H])[H]

>  <h>  (85) 
<NA>

>  <Training>  (85) 
True

>  <Success>  (85) 
True

>  <enamine_searched>  (85) 
False

>  <enamine_id>  (85) 
nan

$$$$

     RDKit          3D

 65 70  0  0  0  0  0  0  0  0999 V2000
    6.6488    2.3084   28.8813 C   0  0  0  0  0  0  0  0  0  0  0  0
    7.1837    1.1921   28.1281 N   0  0  0  0  0  0  0  0  0  0  0  0
    6.6372    0.8535   26.9331 C   0  0  0  0  0  0  0  0  0  0  0  0
    5.7966    1.5362   26.3674 O   0  0  0  0  0  0  0  0  0  0  0  0
    7.1100   -0.4843   26.3627 C   0  0  0  0  0  0  0  0  0  0  0  0
    8.0383   -0.3390   25.2599 N   0  0  0  0  0  0  0  0  0  0  0  0
    7.5644    0.1633   23.9813 C   0  0  0  0  0  0  0  0  0  0  0  0
    8.3358   -0.4570   22.7918 C   0  0  2  0  0  0  0  0  0  0  0  0
    7.8619    0.3080   21.5272 C   0  0  0  0  0  0  0  0  0  0  0  0
    8.2557    1.3783   21.1104 O   0  0  0  0  0  0  0  0  0  0  0  0
    6.8310   -0.4200   20.9588 N   0  0  0  0  0  0  0  0  0  0  0  0
    6.0312    0.0659   19.8883 C   0  0  0  0  0  0  0  0  0  0  0  0
    6.4714   -0.0723   18.5970 C   0  0  0  0  0  0  0  0  0  0  0  0
    5.7937    0.3736   17.5090 N   0  0  0  0  0  0  0  0  0  0  0  0
    4.6285    0.9387   17.7015 C   0  0  0  0  0  0  0  0  0  0  0  0
    4.0143    1.0830   18.9772 C   0  0  0  0  0  0  0  0  0  0  0  0
    2.7483    1.7094   19.1394 C   0  0  0  0  0  0  0  0  0  0  0  0
    2.1734    1.7903   20.3773 C   0  0  0  0  0  0  0  0  0  0  0  0
    2.8222    1.2299   21.5009 C   0  0  0  0  0  0  0  0  0  0  0  0
    4.0563    0.6381   21.3725 C   0  0  0  0  0  0  0  0  0  0  0  0
    4.7111    0.5919   20.1091 C   0  0  0  0  0  0  0  0  0  0  0  0
    4.5252    0.1851   22.2415 H   0  0  0  0  0  0  0  0  0  0  0  0
    2.3505    1.2884   22.4774 H   0  0  0  0  0  0  0  0  0  0  0  0
    1.2133    2.2817   20.5126 H   0  0  0  0  0  0  0  0  0  0  0  0
    2.2508    2.1219   18.2656 H   0  0  0  0  0  0  0  0  0  0  0  0
    4.0831    1.2721   16.8163 H   0  0  0  0  0  0  0  0  0  0  0  0
    7.4155   -0.5826   18.4038 H   0  0  0  0  0  0  0  0  0  0  0  0
    6.6756   -1.7558   21.4985 C   0  0  0  0  0  0  0  0  0  0  0  0
    7.8978   -1.9143   22.4132 C   0  0  2  0  0  0  0  0  0  0  0  0
    7.6092   -2.8913   23.5622 C   0  0  0  0  0  0  0  0  0  0  0  0
    7.3575   -4.2513   23.0950 N   0  0  0  0  0  0  0  0  0  0  0  0
    6.1361   -4.8169   22.9951 C   0  0  0  0  0  0  0  0  0  0  0  0
    5.0768   -4.2252   23.5907 N   0  0  0  0  0  0  0  0  0  0  0  0
    3.9443   -4.9076   23.4866 C   0  0  0  0  0  0  0  0  0  0  0  0
    3.7517   -6.0437   22.8190 N   0  0  0  0  0  0  0  0  0  0  0  0
    4.8666   -6.5112   22.2444 C   0  0  0  0  0  0  0  0  0  0  0  0
    6.0693   -5.9708   22.2891 N   0  0  0  0  0  0  0  0  0  0  0  0
    4.7618   -7.4359   21.6758 H   0  0  0  0  0  0  0  0  0  0  0  0
    3.0954   -4.5002   24.0373 H   0  0  0  0  0  0  0  0  0  0  0  0
    8.0789   -4.7153   22.5564 H   0  0  0  0  0  0  0  0  0  0  0  0
    8.4601   -2.8951   24.2488 H   0  0  0  0  0  0  0  0  0  0  0  0
    6.7192   -2.5777   24.1165 H   0  0  0  0  0  0  0  0  0  0  0  0
    8.7400   -2.3192   21.8270 H   0  0  0  0  0  0  0  0  0  0  0  0
    6.6532   -2.5001   20.6952 H   0  0  0  0  0  0  0  0  0  0  0  0
    5.7343   -1.8666   22.0645 H   0  0  0  0  0  0  0  0  0  0  0  0
    9.8227   -0.3391   23.1022 C   0  0  0  0  0  0  0  0  0  0  0  0
   10.7736   -0.3728   22.0716 C   0  0  0  0  0  0  0  0  0  0  0  0
   12.1244   -0.3001   22.3766 C   0  0  0  0  0  0  0  0  0  0  0  0
   13.3269   -0.2929   21.1262 Cl  0  0  0  0  0  0  0  0  0  0  0  0
   12.5869   -0.2283   23.6870 C   0  0  0  0  0  0  0  0  0  0  0  0
   11.6596   -0.1981   24.7058 C   0  0  0  0  0  0  0  0  0  0  0  0
   10.2959   -0.2443   24.4222 C   0  0  0  0  0  0  0  0  0  0  0  0
    9.3628   -0.2640   25.5850 C   0  0  0  0  0  0  0  0  0  0  0  0
    9.7533   -0.2520   26.7499 O   0  0  0  0  0  0  0  0  0  0  0  0
   11.9705   -0.1467   25.7423 H   0  0  0  0  0  0  0  0  0  0  0  0
   13.6544   -0.2013   23.8805 H   0  0  0  0  0  0  0  0  0  0  0  0
   10.4621   -0.4474   21.0350 H   0  0  0  0  0  0  0  0  0  0  0  0
    7.6932    1.2531   23.9315 H   0  0  0  0  0  0  0  0  0  0  0  0
    6.4898   -0.0390   23.9008 H   0  0  0  0  0  0  0  0  0  0  0  0
    7.6216   -1.0765   27.1228 H   0  0  0  0  0  0  0  0  0  0  0  0
    6.2219   -1.0275   26.0224 H   0  0  0  0  0  0  0  0  0  0  0  0
    8.0360    0.7339   28.4173 H   0  0  0  0  0  0  0  0  0  0  0  0
    7.1434    2.3579   29.8530 H   0  0  0  0  0  0  0  0  0  0  0  0
    5.5748    2.1599   29.0386 H   0  0  0  0  0  0  0  0  0  0  0  0
    6.7833    3.2657   28.3637 H   0  0  0  0  0  0  0  0  0  0  0  0
  1  2  1  0
  2  3  1  0
  3  4  2  0
  3  5  1  0
  5  6  1  0
  6  7  1  0
  8  7  1  1
  8  9  1  0
  9 10  2  0
  9 11  1  0
 11 12  1  0
 12 13  2  0
 13 14  1  0
 14 15  2  0
 15 16  1  0
 16 17  2  0
 17 18  1  0
 18 19  2  0
 19 20  1  0
 20 21  2  0
 20 22  1  0
 19 23  1  0
 18 24  1  0
 17 25  1  0
 15 26  1  0
 13 27  1  0
 11 28  1  0
 28 29  1  0
 29 30  1  0
 30 31  1  0
 31 32  1  0
 32 33  2  0
 33 34  1  0
 34 35  2  0
 35 36  1  0
 36 37  2  0
 36 38  1  0
 34 39  1  0
 31 40  1  0
 30 41  1  0
 30 42  1  0
 29 43  1  6
 28 44  1  0
 28 45  1  0
  8 46  1  0
 46 47  2  0
 47 48  1  0
 48 49  1  0
 48 50  2  0
 50 51  1  0
 51 52  2  0
 52 53  1  0
 53 54  2  0
 51 55  1  0
 50 56  1  0
 47 57  1  0
  7 58  1  0
  7 59  1  0
  5 60  1  0
  5 61  1  0
  2 62  1  0
  1 63  1  0
  1 64  1  0
  1 65  1  0
 53  6  1  0
 29  8  1  0
 37 32  1  0
 52 46  1  0
 21 12  1  0
 21 16  1  0
M  END
>  <cnnaffinities>  (86) 
[6.70132, 7.49219, 6.73936]

>  <score>  (86) 
6.70132

>  <index>  (86) 
86

>  <Smiles>  (86) 
C(N(C(=O)C(N1C([C@@]2(C(=O)N(c3c(nc(c4c(c(c(c(c34)[H])[H])[H])[H])[H])[H])C([C@@]2(C(N(c2nc(nc(n2)[H])[H])[H])([H])[H])[H])([H])[H])c2c(c(Cl)c(c(c2C1=O)[H])[H])[H])([H])[H])([H])[H])[H])([H])([H])[H]

>  <h>  (86) 
<NA>

>  <Training>  (86) 
True

>  <Success>  (86) 
True

>  <enamine_searched>  (86) 
False

>  <enamine_id>  (86) 
nan

$$$$

     RDKit          3D

 63 68  0  0  0  0  0  0  0  0999 V2000
    4.9596   -3.0893   18.8344 C   0  0  0  0  0  0  0  0  0  0  0  0
    5.5473   -3.7694   19.9695 N   0  0  0  0  0  0  0  0  0  0  0  0
    5.9522   -5.0562   20.0706 C   0  0  0  0  0  0  0  0  0  0  0  0
    5.6992   -5.9410   19.2684 O   0  0  0  0  0  0  0  0  0  0  0  0
    6.8341   -5.3673   21.3003 C   0  0  0  0  0  0  0  0  0  0  0  0
    6.8629   -4.3595   22.3423 N   0  0  0  0  0  0  0  0  0  0  0  0
    7.7616   -3.2203   22.2195 C   0  0  0  0  0  0  0  0  0  0  0  0
    7.1717   -1.9256   22.8348 C   0  0  2  0  0  0  0  0  0  0  0  0
    6.0759   -1.3537   21.9112 C   0  0  0  0  0  0  0  0  0  0  0  0
    4.9422   -1.7934   21.7921 O   0  0  0  0  0  0  0  0  0  0  0  0
    6.5849   -0.3290   21.1461 N   0  0  0  0  0  0  0  0  0  0  0  0
    5.8983    0.2331   20.0587 C   0  0  0  0  0  0  0  0  0  0  0  0
    6.5409    0.4014   18.8522 C   0  0  0  0  0  0  0  0  0  0  0  0
    5.9279    0.7606   17.7059 N   0  0  0  0  0  0  0  0  0  0  0  0
    4.6538    1.0629   17.7730 C   0  0  0  0  0  0  0  0  0  0  0  0
    3.8891    1.0283   18.9713 C   0  0  0  0  0  0  0  0  0  0  0  0
    2.5437    1.4765   18.9982 C   0  0  0  0  0  0  0  0  0  0  0  0
    1.8470    1.5326   20.1753 C   0  0  0  0  0  0  0  0  0  0  0  0
    2.4816    1.1606   21.3798 C   0  0  0  0  0  0  0  0  0  0  0  0
    3.7852    0.7345   21.3831 C   0  0  0  0  0  0  0  0  0  0  0  0
    4.5201    0.6275   20.1682 C   0  0  0  0  0  0  0  0  0  0  0  0
    4.2569    0.5040   22.3298 H   0  0  0  0  0  0  0  0  0  0  0  0
    1.9402    1.2277   22.3158 H   0  0  0  0  0  0  0  0  0  0  0  0
    0.8295    1.9081   20.1947 H   0  0  0  0  0  0  0  0  0  0  0  0
    2.1077    1.8232   18.0660 H   0  0  0  0  0  0  0  0  0  0  0  0
    4.1671    1.3906   16.8546 H   0  0  0  0  0  0  0  0  0  0  0  0
    7.6118    0.2371   18.7745 H   0  0  0  0  0  0  0  0  0  0  0  0
    8.0231   -0.2101   21.3403 C   0  0  0  0  0  0  0  0  0  0  0  0
    8.1703   -0.7404   22.7619 C   0  0  2  0  0  0  0  0  0  0  0  0
    9.6244   -0.9567   23.1561 C   0  0  0  0  0  0  0  0  0  0  0  0
   10.2896    0.3234   23.3441 N   0  0  0  0  0  0  0  0  0  0  0  0
   10.1773    1.1258   24.4251 C   0  0  0  0  0  0  0  0  0  0  0  0
   10.7982    2.3158   24.1122 C   0  0  0  0  0  0  0  0  0  0  0  0
   11.2507    2.1243   22.7872 C   0  0  0  0  0  0  0  0  0  0  0  0
   10.9210    0.9215   22.3268 N   0  0  0  0  0  0  0  0  0  0  0  0
   11.8023    2.8044   22.1468 H   0  0  0  0  0  0  0  0  0  0  0  0
   10.8952    3.2001   24.7315 H   0  0  0  0  0  0  0  0  0  0  0  0
    9.6533    0.7712   25.3043 H   0  0  0  0  0  0  0  0  0  0  0  0
    9.7072   -1.5285   24.0854 H   0  0  0  0  0  0  0  0  0  0  0  0
   10.1687   -1.4867   22.3715 H   0  0  0  0  0  0  0  0  0  0  0  0
    7.7500    0.0305   23.4066 H   0  0  0  0  0  0  0  0  0  0  0  0
    8.5808   -0.8467   20.6373 H   0  0  0  0  0  0  0  0  0  0  0  0
    8.3680    0.8136   21.2107 H   0  0  0  0  0  0  0  0  0  0  0  0
    6.6005   -2.2447   24.1953 C   0  0  0  0  0  0  0  0  0  0  0  0
    6.3027   -1.2128   25.0949 C   0  0  0  0  0  0  0  0  0  0  0  0
    5.6372   -1.4880   26.2730 C   0  0  0  0  0  0  0  0  0  0  0  0
    5.2127   -0.1592   27.3151 Cl  0  0  0  0  0  0  0  0  0  0  0  0
    5.3023   -2.7907   26.6365 C   0  0  0  0  0  0  0  0  0  0  0  0
    5.6089   -3.8153   25.7626 C   0  0  0  0  0  0  0  0  0  0  0  0
    6.2154   -3.5505   24.5341 C   0  0  0  0  0  0  0  0  0  0  0  0
    6.3829   -4.7043   23.5842 C   0  0  0  0  0  0  0  0  0  0  0  0
    6.0730   -5.8456   23.8857 O   0  0  0  0  0  0  0  0  0  0  0  0
    5.3604   -4.8431   26.0019 H   0  0  0  0  0  0  0  0  0  0  0  0
    4.7905   -2.9773   27.5745 H   0  0  0  0  0  0  0  0  0  0  0  0
    6.5640   -0.1832   24.8814 H   0  0  0  0  0  0  0  0  0  0  0  0
    7.9658   -3.0575   21.1634 H   0  0  0  0  0  0  0  0  0  0  0  0
    8.7126   -3.4640   22.7120 H   0  0  0  0  0  0  0  0  0  0  0  0
    6.4575   -6.2862   21.7509 H   0  0  0  0  0  0  0  0  0  0  0  0
    7.8520   -5.5991   20.9595 H   0  0  0  0  0  0  0  0  0  0  0  0
    5.5599   -3.2407   20.8316 H   0  0  0  0  0  0  0  0  0  0  0  0
    4.9426   -3.7507   17.9789 H   0  0  0  0  0  0  0  0  0  0  0  0
    3.9516   -2.7259   19.0602 H   0  0  0  0  0  0  0  0  0  0  0  0
    5.5376   -2.2055   18.5325 H   0  0  0  0  0  0  0  0  0  0  0  0
  1  2  1  0
  2  3  1  0
  3  4  2  0
  3  5  1  0
  5  6  1  0
  6  7  1  0
  8  7  1  6
  8  9  1  0
  9 10  2  0
  9 11  1  0
 11 12  1  0
 12 13  2  0
 13 14  1  0
 14 15  2  0
 15 16  1  0
 16 17  2  0
 17 18  1  0
 18 19  2  0
 19 20  1  0
 20 21  2  0
 20 22  1  0
 19 23  1  0
 18 24  1  0
 17 25  1  0
 15 26  1  0
 13 27  1  0
 11 28  1  0
 28 29  1  0
 29 30  1  0
 30 31  1  0
 31 32  1  0
 32 33  2  0
 33 34  1  0
 34 35  2  0
 34 36  1  0
 33 37  1  0
 32 38  1  0
 30 39  1  0
 30 40  1  0
 29 41  1  1
 28 42  1  0
 28 43  1  0
  8 44  1  0
 44 45  2  0
 45 46  1  0
 46 47  1  0
 46 48  2  0
 48 49  1  0
 49 50  2  0
 50 51  1  0
 51 52  2  0
 49 53  1  0
 48 54  1  0
 45 55  1  0
  7 56  1  0
  7 57  1  0
  5 58  1  0
  5 59  1  0
  2 60  1  0
  1 61  1  0
  1 62  1  0
  1 63  1  0
 51  6  1  0
 29  8  1  0
 35 31  1  0
 50 44  1  0
 21 12  1  0
 21 16  1  0
M  END
>  <cnnaffinities>  (87) 
[6.89325]

>  <score>  (87) 
6.89325

>  <index>  (87) 
87

>  <Smiles>  (87) 
C(N(C(=O)C(N1C([C@@]2(C(=O)N(c3c(nc(c4c(c(c(c(c34)[H])[H])[H])[H])[H])[H])C([C@@]2(C(n2c(c(c(n2)[H])[H])[H])([H])[H])[H])([H])[H])c2c(c(Cl)c(c(c2C1=O)[H])[H])[H])([H])[H])([H])[H])[H])([H])([H])[H]

>  <h>  (87) 
<NA>

>  <Training>  (87) 
True

>  <Success>  (87) 
True

>  <enamine_searched>  (87) 
False

>  <enamine_id>  (87) 
nan

$$$$

     RDKit          3D

 64 68  0  0  0  0  0  0  0  0999 V2000
    5.8732    5.3241   26.0506 C   0  0  0  0  0  0  0  0  0  0  0  0
    6.8817    4.9154   27.1413 C   0  0  0  0  0  0  0  0  0  0  0  0
    7.8892    3.9044   26.5936 C   0  0  0  0  0  0  0  0  0  0  0  0
    7.6121    2.7105   26.6867 O   0  0  0  0  0  0  0  0  0  0  0  0
    8.9583    4.3246   25.8081 N   0  0  0  0  0  0  0  0  0  0  0  0
    9.5257    5.6673   25.9342 C   0  0  0  0  0  0  0  0  0  0  0  0
   11.0600    5.5853   25.9125 C   0  0  0  0  0  0  0  0  0  0  0  0
   11.5723    4.8801   24.6468 C   0  0  0  0  0  0  0  0  0  0  0  0
   10.7272    3.6981   24.2351 C   0  0  0  0  0  0  0  0  0  0  0  0
   11.1815    2.8546   23.2065 C   0  0  0  0  0  0  0  0  0  0  0  0
   10.3236    1.8928   22.6514 C   0  0  0  0  0  0  0  0  0  0  0  0
    9.0238    1.7634   23.1361 C   0  0  0  0  0  0  0  0  0  0  0  0
    8.1284    0.8289   22.6223 N   0  0  0  0  0  0  0  0  0  0  0  0
    7.4361   -0.0182   23.5825 C   0  0  0  0  0  0  0  0  0  0  0  0
    8.0660   -1.3863   23.6019 C   0  0  0  0  0  0  0  0  0  0  0  0
    7.2614   -2.5258   23.4888 C   0  0  0  0  0  0  0  0  0  0  0  0
    7.8266   -3.8032   23.5276 C   0  0  0  0  0  0  0  0  0  0  0  0
    9.2061   -3.9439   23.7324 C   0  0  0  0  0  0  0  0  0  0  0  0
   10.0237   -2.8136   23.8415 C   0  0  0  0  0  0  0  0  0  0  0  0
   11.9069   -3.0108   24.1138 Br  0  0  0  0  0  0  0  0  0  0  0  0
    9.4557   -1.5405   23.7467 C   0  0  0  0  0  0  0  0  0  0  0  0
   10.1088   -0.6737   23.7981 H   0  0  0  0  0  0  0  0  0  0  0  0
    9.6539   -4.9273   23.8006 H   0  0  0  0  0  0  0  0  0  0  0  0
    7.1897   -4.6747   23.4067 H   0  0  0  0  0  0  0  0  0  0  0  0
    6.1875   -2.4027   23.3963 H   0  0  0  0  0  0  0  0  0  0  0  0
    6.3748   -0.0728   23.3308 H   0  0  0  0  0  0  0  0  0  0  0  0
    7.4887    0.4115   24.5863 H   0  0  0  0  0  0  0  0  0  0  0  0
    7.9292    0.6219   21.2627 C   0  0  0  0  0  0  0  0  0  0  0  0
    8.5540    1.2575   20.4205 O   0  0  0  0  0  0  0  0  0  0  0  0
    6.8967   -0.4363   20.8312 C   0  0  0  0  0  0  0  0  0  0  0  0
    5.9588   -0.0010   19.7146 C   0  0  0  0  0  0  0  0  0  0  0  0
    6.4081   -0.0114   18.3847 C   0  0  0  0  0  0  0  0  0  0  0  0
    5.6708    0.4163   17.3499 N   0  0  0  0  0  0  0  0  0  0  0  0
    4.4503    0.9062   17.6139 C   0  0  0  0  0  0  0  0  0  0  0  0
    3.8875    0.9268   18.8929 C   0  0  0  0  0  0  0  0  0  0  0  0
    2.6061    1.4649   19.1097 C   0  0  0  0  0  0  0  0  0  0  0  0
    2.0638    1.4823   20.3979 C   0  0  0  0  0  0  0  0  0  0  0  0
    2.7990    0.9700   21.4712 C   0  0  0  0  0  0  0  0  0  0  0  0
    4.0843    0.4503   21.2567 C   0  0  0  0  0  0  0  0  0  0  0  0
    4.6466    0.4364   19.9708 C   0  0  0  0  0  0  0  0  0  0  0  0
    4.6627    0.1113   22.1073 H   0  0  0  0  0  0  0  0  0  0  0  0
    2.3758    0.9863   22.4727 H   0  0  0  0  0  0  0  0  0  0  0  0
    1.0859    1.9245   20.5718 H   0  0  0  0  0  0  0  0  0  0  0  0
    2.0585    1.9220   18.2894 H   0  0  0  0  0  0  0  0  0  0  0  0
    3.8958    1.3221   16.7816 H   0  0  0  0  0  0  0  0  0  0  0  0
    7.4219   -0.3536   18.2059 H   0  0  0  0  0  0  0  0  0  0  0  0
    6.2889   -0.6939   21.6988 H   0  0  0  0  0  0  0  0  0  0  0  0
    7.4452   -1.3359   20.5487 H   0  0  0  0  0  0  0  0  0  0  0  0
    8.6077    2.5477   24.2080 C   0  0  0  0  0  0  0  0  0  0  0  0
    9.4447    3.5083   24.7755 C   0  0  0  0  0  0  0  0  0  0  0  0
    7.5946    2.4399   24.5752 H   0  0  0  0  0  0  0  0  0  0  0  0
   10.6528    1.2481   21.8437 H   0  0  0  0  0  0  0  0  0  0  0  0
   12.1913    2.9707   22.8217 H   0  0  0  0  0  0  0  0  0  0  0  0
   12.6148    4.5768   24.7839 H   0  0  0  0  0  0  0  0  0  0  0  0
   11.5425    5.5936   23.8193 H   0  0  0  0  0  0  0  0  0  0  0  0
   11.4821    6.5939   25.9541 H   0  0  0  0  0  0  0  0  0  0  0  0
   11.4126    5.0515   26.7983 H   0  0  0  0  0  0  0  0  0  0  0  0
    9.2144    6.1427   26.8717 H   0  0  0  0  0  0  0  0  0  0  0  0
    9.1750    6.2901   25.1047 H   0  0  0  0  0  0  0  0  0  0  0  0
    6.3519    4.4569   27.9814 H   0  0  0  0  0  0  0  0  0  0  0  0
    7.4070    5.8000   27.5125 H   0  0  0  0  0  0  0  0  0  0  0  0
    5.1672    6.0605   26.4446 H   0  0  0  0  0  0  0  0  0  0  0  0
    5.3028    4.4533   25.7039 H   0  0  0  0  0  0  0  0  0  0  0  0
    6.3849    5.7708   25.1893 H   0  0  0  0  0  0  0  0  0  0  0  0
  1  2  1  0
  2  3  1  0
  3  4  2  0
  3  5  1  0
  5  6  1  0
  6  7  1  0
  7  8  1  0
  8  9  1  0
  9 10  2  0
 10 11  1  0
 11 12  2  0
 12 13  1  0
 13 14  1  0
 14 15  1  0
 15 16  2  0
 16 17  1  0
 17 18  2  0
 18 19  1  0
 19 20  1  0
 19 21  2  0
 21 22  1  0
 18 23  1  0
 17 24  1  0
 16 25  1  0
 14 26  1  0
 14 27  1  0
 13 28  1  0
 28 29  2  0
 28 30  1  0
 30 31  1  0
 31 32  2  0
 32 33  1  0
 33 34  2  0
 34 35  1  0
 35 36  2  0
 36 37  1  0
 37 38  2  0
 38 39  1  0
 39 40  2  0
 39 41  1  0
 38 42  1  0
 37 43  1  0
 36 44  1  0
 34 45  1  0
 32 46  1  0
 30 47  1  0
 30 48  1  0
 12 49  1  0
 49 50  2  0
 49 51  1  0
 11 52  1  0
 10 53  1  0
  8 54  1  0
  8 55  1  0
  7 56  1  0
  7 57  1  0
  6 58  1  0
  6 59  1  0
  2 60  1  0
  2 61  1  0
  1 62  1  0
  1 63  1  0
  1 64  1  0
 50  5  1  0
 50  9  1  0
 21 15  1  0
 40 31  1  0
 40 35  1  0
M  END
>  <cnnaffinities>  (88) 
[6.88976]

>  <score>  (88) 
6.88976

>  <index>  (88) 
88

>  <Smiles>  (88) 
C(C(C(=O)N1C(C(C(c2c(c(c(N(C(c3c(c(c(c(Br)c3[H])[H])[H])[H])([H])[H])C(=O)C(c3c(nc(c4c(c(c(c(c34)[H])[H])[H])[H])[H])[H])([H])[H])c(c12)[H])[H])[H])([H])[H])([H])[H])([H])[H])([H])[H])([H])([H])[H]

>  <h>  (88) 
<NA>

>  <Training>  (88) 
True

>  <Success>  (88) 
True

>  <enamine_searched>  (88) 
False

>  <enamine_id>  (88) 
nan

$$$$

     RDKit          3D

 38 40  0  0  0  0  0  0  0  0999 V2000
    7.9912    1.6471   20.8685 O   0  0  0  0  0  0  0  0  0  0  0  0
    7.8481    0.5887   21.4567 C   0  0  0  0  0  0  0  0  0  0  0  0
    6.8900   -0.5037   20.9610 C   0  0  0  0  0  0  0  0  0  0  0  0
    5.9751   -0.0535   19.8630 C   0  0  0  0  0  0  0  0  0  0  0  0
    6.3964   -0.1616   18.5623 C   0  0  0  0  0  0  0  0  0  0  0  0
    5.7459    0.3237   17.4770 N   0  0  0  0  0  0  0  0  0  0  0  0
    4.6270    0.9636   17.6937 C   0  0  0  0  0  0  0  0  0  0  0  0
    4.0392    1.1206   18.9758 C   0  0  0  0  0  0  0  0  0  0  0  0
    2.8153    1.8150   19.1501 C   0  0  0  0  0  0  0  0  0  0  0  0
    2.2441    1.9174   20.3865 C   0  0  0  0  0  0  0  0  0  0  0  0
    2.8808    1.3294   21.5041 C   0  0  0  0  0  0  0  0  0  0  0  0
    4.0914    0.6889   21.3654 C   0  0  0  0  0  0  0  0  0  0  0  0
    4.7138    0.5769   20.0952 C   0  0  0  0  0  0  0  0  0  0  0  0
    4.5907    0.2815   22.2369 H   0  0  0  0  0  0  0  0  0  0  0  0
    2.4191    1.4217   22.4831 H   0  0  0  0  0  0  0  0  0  0  0  0
    1.3136    2.4670   20.5192 H   0  0  0  0  0  0  0  0  0  0  0  0
    2.3394    2.2454   18.2741 H   0  0  0  0  0  0  0  0  0  0  0  0
    4.1312    1.3993   16.8261 H   0  0  0  0  0  0  0  0  0  0  0  0
    7.3574   -0.6233   18.3489 H   0  0  0  0  0  0  0  0  0  0  0  0
    7.5274   -1.3189   20.5883 H   0  0  0  0  0  0  0  0  0  0  0  0
    6.3331   -0.8946   21.8187 H   0  0  0  0  0  0  0  0  0  0  0  0
    8.5383    0.2959   22.6159 N   0  0  0  0  0  0  0  0  0  0  0  0
    9.3983    1.3453   23.1684 C   0  0  0  0  0  0  0  0  0  0  0  0
   10.7640    1.4490   22.5197 C   0  0  0  0  0  0  0  0  0  0  0  0
   11.6364    0.4443   22.4663 C   0  0  0  0  0  0  0  0  0  0  0  0
   11.4011   -0.9253   23.0665 C   0  0  0  0  0  0  0  0  0  0  0  0
   10.1310   -1.6565   22.5895 C   0  0  0  0  0  0  0  0  0  0  0  0
    8.8092   -1.0598   23.0845 C   0  0  0  0  0  0  0  0  0  0  0  0
    8.8242   -1.0240   24.1823 H   0  0  0  0  0  0  0  0  0  0  0  0
    7.9832   -1.7196   22.8024 H   0  0  0  0  0  0  0  0  0  0  0  0
   10.1255   -1.6966   21.4918 H   0  0  0  0  0  0  0  0  0  0  0  0
   10.1801   -2.6973   22.9391 H   0  0  0  0  0  0  0  0  0  0  0  0
   12.2633   -1.5649   22.8412 H   0  0  0  0  0  0  0  0  0  0  0  0
   11.3647   -0.8295   24.1641 H   0  0  0  0  0  0  0  0  0  0  0  0
   12.5902    0.6195   21.9663 H   0  0  0  0  0  0  0  0  0  0  0  0
   11.0219    2.4104   22.0760 H   0  0  0  0  0  0  0  0  0  0  0  0
    9.5212    1.1179   24.2369 H   0  0  0  0  0  0  0  0  0  0  0  0
    8.8754    2.3037   23.0975 H   0  0  0  0  0  0  0  0  0  0  0  0
  1  2  2  0
  2  3  1  0
  3  4  1  0
  4  5  2  0
  5  6  1  0
  6  7  2  0
  7  8  1  0
  8  9  2  0
  9 10  1  0
 10 11  2  0
 11 12  1  0
 12 13  2  0
 12 14  1  0
 11 15  1  0
 10 16  1  0
  9 17  1  0
  7 18  1  0
  5 19  1  0
  3 20  1  0
  3 21  1  0
  2 22  1  0
 22 23  1  0
 23 24  1  0
 24 25  2  0
 25 26  1  0
 26 27  1  0
 27 28  1  0
 28 29  1  0
 28 30  1  0
 27 31  1  0
 27 32  1  0
 26 33  1  0
 26 34  1  0
 25 35  1  0
 24 36  1  0
 23 37  1  0
 23 38  1  0
 13  4  1  0
 28 22  1  0
 13  8  1  0
M  END
>  <cnnaffinities>  (89) 
[5.43742, 5.32019, 5.54769, 5.49964]

>  <score>  (89) 
5.43742

>  <index>  (89) 
89

>  <Smiles>  (89) 
O=C(C(c1c(nc(c2c(c(c(c(c12)[H])[H])[H])[H])[H])[H])([H])[H])N1C(C(=C(C(C(C1([H])[H])([H])[H])([H])[H])[H])[H])([H])[H]

>  <h>  (89) 
<NA>

>  <Training>  (89) 
True

>  <Success>  (89) 
True

>  <enamine_searched>  (89) 
False

>  <enamine_id>  (89) 
nan

$$$$

     RDKit          3D

 62 67  0  0  0  0  0  0  0  0999 V2000
    8.0796   -2.9826   23.1797 C   0  0  0  0  0  0  0  0  0  0  0  0
    8.0784   -1.8310   22.1779 C   0  0  1  0  0  0  0  0  0  0  0  0
    6.8255   -1.8259   21.2871 C   0  0  0  0  0  0  0  0  0  0  0  0
    6.7023   -0.4396   20.8946 N   0  0  0  0  0  0  0  0  0  0  0  0
    5.8656   -0.0062   19.8335 C   0  0  0  0  0  0  0  0  0  0  0  0
    6.3226   -0.0546   18.5379 C   0  0  0  0  0  0  0  0  0  0  0  0
    5.6507    0.4387   17.4714 N   0  0  0  0  0  0  0  0  0  0  0  0
    4.4622    0.9468   17.6805 C   0  0  0  0  0  0  0  0  0  0  0  0
    3.8290    0.9835   18.9575 C   0  0  0  0  0  0  0  0  0  0  0  0
    2.5238    1.5136   19.1383 C   0  0  0  0  0  0  0  0  0  0  0  0
    1.9227    1.4694   20.3659 C   0  0  0  0  0  0  0  0  0  0  0  0
    2.6002    0.9031   21.4657 C   0  0  0  0  0  0  0  0  0  0  0  0
    3.8652    0.3864   21.3172 C   0  0  0  0  0  0  0  0  0  0  0  0
    4.5275    0.4517   20.0622 C   0  0  0  0  0  0  0  0  0  0  0  0
    4.3905   -0.0530   22.1600 H   0  0  0  0  0  0  0  0  0  0  0  0
    2.1278    0.8769   22.4429 H   0  0  0  0  0  0  0  0  0  0  0  0
    0.9312    1.8899   20.5125 H   0  0  0  0  0  0  0  0  0  0  0  0
    2.0297    1.9733   18.2871 H   0  0  0  0  0  0  0  0  0  0  0  0
    3.9182    1.3198   16.8126 H   0  0  0  0  0  0  0  0  0  0  0  0
    7.2839   -0.5188   18.3284 H   0  0  0  0  0  0  0  0  0  0  0  0
    7.4043    0.4287   21.6968 C   0  0  0  0  0  0  0  0  0  0  0  0
    7.3884    1.6377   21.5973 O   0  0  0  0  0  0  0  0  0  0  0  0
    8.1585   -0.3893   22.7737 C   0  0  1  0  0  0  0  0  0  0  0  0
    7.3624   -0.2681   24.1056 C   0  0  0  0  0  0  0  0  0  0  0  0
    7.4746    1.0345   24.7353 N   0  0  0  0  0  0  0  0  0  0  0  0
    6.2989    1.7865   25.1412 C   0  0  0  0  0  0  0  0  0  0  0  0
    5.9661    2.9058   24.1550 C   0  0  0  0  0  0  0  0  0  0  0  0
    6.8510    4.0910   24.3439 N   0  0  0  0  0  4  0  0  0  0  0  0
    7.9477    4.4187   23.3158 C   0  0  0  0  0  0  0  0  0  0  0  0
    7.3128    5.7962   22.9956 C   0  0  0  0  0  0  0  0  0  0  0  0
    6.2185    5.4287   24.0366 C   0  0  0  0  0  0  0  0  0  0  0  0
    5.2270    5.2648   23.6121 H   0  0  0  0  0  0  0  0  0  0  0  0
    6.1394    6.0551   24.9216 H   0  0  0  0  0  0  0  0  0  0  0  0
    6.9587    5.9047   21.9667 H   0  0  0  0  0  0  0  0  0  0  0  0
    7.9316    6.6608   23.2549 H   0  0  0  0  0  0  0  0  0  0  0  0
    7.9831    3.6614   22.5332 H   0  0  0  0  0  0  0  0  0  0  0  0
    8.8923    4.4920   23.8531 H   0  0  0  0  0  0  0  0  0  0  0  0
    7.3250    4.0072   25.2538 H   0  0  0  0  0  0  0  0  0  0  0  0
    6.0837    2.5489   23.1294 H   0  0  0  0  0  0  0  0  0  0  0  0
    4.9444    3.2559   24.3147 H   0  0  0  0  0  0  0  0  0  0  0  0
    5.4668    1.0878   25.2375 H   0  0  0  0  0  0  0  0  0  0  0  0
    6.4804    2.2091   26.1326 H   0  0  0  0  0  0  0  0  0  0  0  0
    8.6641    1.6705   24.8287 C   0  0  0  0  0  0  0  0  0  0  0  0
    8.7844    2.7049   25.4963 O   0  0  0  0  0  0  0  0  0  0  0  0
    9.7862    1.0747   24.0361 C   0  0  0  0  0  0  0  0  0  0  0  0
   11.0666    1.5435   24.2968 C   0  0  0  0  0  0  0  0  0  0  0  0
   12.1644    1.0926   23.5882 C   0  0  0  0  0  0  0  0  0  0  0  0
   11.9412    0.1888   22.5547 C   0  0  0  0  0  0  0  0  0  0  0  0
   13.3053   -0.3871   21.6326 Cl  0  0  0  0  0  0  0  0  0  0  0  0
   10.6675   -0.2578   22.2455 C   0  0  0  0  0  0  0  0  0  0  0  0
    9.5613    0.1328   23.0200 C   0  0  0  0  0  0  0  0  0  0  0  0
   10.5654   -0.9306   21.4020 H   0  0  0  0  0  0  0  0  0  0  0  0
   13.1764    1.4032   23.8262 H   0  0  0  0  0  0  0  0  0  0  0  0
   11.1590    2.2905   25.0661 H   0  0  0  0  0  0  0  0  0  0  0  0
    7.7237   -1.0328   24.8016 H   0  0  0  0  0  0  0  0  0  0  0  0
    6.3062   -0.4489   23.8913 H   0  0  0  0  0  0  0  0  0  0  0  0
    6.9128   -2.4539   20.3966 H   0  0  0  0  0  0  0  0  0  0  0  0
    5.9481   -2.1781   21.8550 H   0  0  0  0  0  0  0  0  0  0  0  0
    8.9322   -1.9375   21.5047 H   0  0  0  0  0  0  0  0  0  0  0  0
    7.1591   -2.9549   23.7745 H   0  0  0  0  0  0  0  0  0  0  0  0
    8.1141   -3.9551   22.6747 H   0  0  0  0  0  0  0  0  0  0  0  0
    8.9275   -2.9289   23.8714 H   0  0  0  0  0  0  0  0  0  0  0  0
  1  2  1  0
  2  3  1  0
  3  4  1  0
  4  5  1  0
  5  6  2  0
  6  7  1  0
  7  8  2  0
  8  9  1  0
  9 10  2  0
 10 11  1  0
 11 12  2  0
 12 13  1  0
 13 14  2  0
 13 15  1  0
 12 16  1  0
 11 17  1  0
 10 18  1  0
  8 19  1  0
  6 20  1  0
  4 21  1  0
 21 22  2  0
 21 23  1  0
 23 24  1  1
 24 25  1  0
 25 26  1  0
 26 27  1  0
 27 28  1  0
 28 29  1  0
 29 30  1  0
 30 31  1  0
 31 32  1  0
 31 33  1  0
 30 34  1  0
 30 35  1  0
 29 36  1  0
 29 37  1  0
 28 38  1  0
 27 39  1  0
 27 40  1  0
 26 41  1  0
 26 42  1  0
 25 43  1  0
 43 44  2  0
 43 45  1  0
 45 46  2  0
 46 47  1  0
 47 48  2  0
 48 49  1  0
 48 50  1  0
 50 51  2  0
 50 52  1  0
 47 53  1  0
 46 54  1  0
 24 55  1  0
 24 56  1  0
  3 57  1  0
  3 58  1  0
  2 59  1  6
  1 60  1  0
  1 61  1  0
  1 62  1  0
 23  2  1  0
 31 28  1  0
 51 45  1  0
 14  5  1  0
 51 23  1  0
 14  9  1  0
M  CHG  1  28   1
M  END
>  <cnnaffinities>  (90) 
[6.61336, 6.548]

>  <score>  (90) 
6.61336

>  <index>  (90) 
90

>  <Smiles>  (90) 
C([C@]1(C(N(c2c(nc(c3c(c(c(c(c23)[H])[H])[H])[H])[H])[H])C(=O)[C@]21C(N(C(C([N+]1(C(C(C1([H])[H])([H])[H])([H])[H])[H])([H])[H])([H])[H])C(=O)c1c(c(c(Cl)c(c21)[H])[H])[H])([H])[H])([H])[H])[H])([H])([H])[H]

>  <h>  (90) 
<NA>

>  <Training>  (90) 
True

>  <Success>  (90) 
True

>  <enamine_searched>  (90) 
False

>  <enamine_id>  (90) 
nan

$$$$

     RDKit          3D

 56 61  0  0  0  0  0  0  0  0999 V2000
    7.7889   -3.0135   23.2923 C   0  0  0  0  0  0  0  0  0  0  0  0
    8.0297   -1.9320   22.2500 C   0  0  1  0  0  0  0  0  0  0  0  0
    6.8410   -1.8240   21.2854 C   0  0  0  0  0  0  0  0  0  0  0  0
    6.8470   -0.4351   20.8985 N   0  0  0  0  0  0  0  0  0  0  0  0
    6.0309    0.0480   19.8481 C   0  0  0  0  0  0  0  0  0  0  0  0
    6.4150   -0.1629   18.5515 C   0  0  0  0  0  0  0  0  0  0  0  0
    5.7485    0.2879   17.4654 N   0  0  0  0  0  0  0  0  0  0  0  0
    4.6407    0.9524   17.6783 C   0  0  0  0  0  0  0  0  0  0  0  0
    4.0874    1.1804   18.9678 C   0  0  0  0  0  0  0  0  0  0  0  0
    2.8527    1.8597   19.1277 C   0  0  0  0  0  0  0  0  0  0  0  0
    2.2754    1.9791   20.3650 C   0  0  0  0  0  0  0  0  0  0  0  0
    2.9162    1.4167   21.4960 C   0  0  0  0  0  0  0  0  0  0  0  0
    4.1255    0.7750   21.3662 C   0  0  0  0  0  0  0  0  0  0  0  0
    4.7672    0.6736   20.0981 C   0  0  0  0  0  0  0  0  0  0  0  0
    4.6046    0.3384   22.2367 H   0  0  0  0  0  0  0  0  0  0  0  0
    2.4504    1.5196   22.4731 H   0  0  0  0  0  0  0  0  0  0  0  0
    1.3386    2.5153   20.4856 H   0  0  0  0  0  0  0  0  0  0  0  0
    2.3636    2.2485   18.2421 H   0  0  0  0  0  0  0  0  0  0  0  0
    4.1344    1.3598   16.8050 H   0  0  0  0  0  0  0  0  0  0  0  0
    7.3436   -0.6880   18.3412 H   0  0  0  0  0  0  0  0  0  0  0  0
    7.6661    0.3796   21.6513 C   0  0  0  0  0  0  0  0  0  0  0  0
    7.7961    1.5727   21.4707 O   0  0  0  0  0  0  0  0  0  0  0  0
    8.2847   -0.4711   22.7823 C   0  0  1  0  0  0  0  0  0  0  0  0
    7.4726   -0.0936   24.0492 C   0  0  0  0  0  0  0  0  0  0  0  0
    8.0813   -0.5525   25.2902 N   0  0  0  0  0  0  0  0  0  0  0  0
    7.2260   -0.9148   26.4114 C   0  0  0  0  0  0  0  0  0  0  0  0
    6.9715   -2.3946   26.5409 C   0  0  0  0  0  0  0  0  0  0  0  0
    5.7464   -3.0916   26.5124 C   0  0  0  0  0  0  0  0  0  0  0  0
    5.8890   -4.3888   26.7689 N   0  0  0  0  0  0  0  0  0  0  0  0
    7.2122   -4.5304   26.9409 N   0  0  0  0  0  0  0  0  0  0  0  0
    7.9061   -3.3694   26.8072 C   0  0  0  0  0  0  0  0  0  0  0  0
    8.9835   -3.3245   26.9251 H   0  0  0  0  0  0  0  0  0  0  0  0
    7.5815   -5.4166   27.2329 H   0  0  0  0  0  0  0  0  0  0  0  0
    4.7632   -2.6866   26.3037 H   0  0  0  0  0  0  0  0  0  0  0  0
    6.2751   -0.3788   26.3139 H   0  0  0  0  0  0  0  0  0  0  0  0
    7.7352   -0.5635   27.3145 H   0  0  0  0  0  0  0  0  0  0  0  0
    9.4219   -0.4454   25.5368 C   0  0  0  0  0  0  0  0  0  0  0  0
    9.9036   -0.5189   26.6619 O   0  0  0  0  0  0  0  0  0  0  0  0
   10.2858   -0.2273   24.3498 C   0  0  0  0  0  0  0  0  0  0  0  0
   11.6518   -0.0895   24.6005 C   0  0  0  0  0  0  0  0  0  0  0  0
   12.5247    0.1872   23.5737 C   0  0  0  0  0  0  0  0  0  0  0  0
   12.0038    0.2957   22.2907 C   0  0  0  0  0  0  0  0  0  0  0  0
   12.8686    0.6094   21.3118 F   0  0  0  0  0  0  0  0  0  0  0  0
   10.6605    0.0930   22.0095 C   0  0  0  0  0  0  0  0  0  0  0  0
    9.7595   -0.1728   23.0519 C   0  0  0  0  0  0  0  0  0  0  0  0
   10.3199    0.1476   20.9833 H   0  0  0  0  0  0  0  0  0  0  0  0
   13.5873    0.3194   23.7430 H   0  0  0  0  0  0  0  0  0  0  0  0
   11.9983   -0.2026   25.6234 H   0  0  0  0  0  0  0  0  0  0  0  0
    7.3684    1.0026   24.0597 H   0  0  0  0  0  0  0  0  0  0  0  0
    6.4637   -0.5223   23.9807 H   0  0  0  0  0  0  0  0  0  0  0  0
    5.8963   -2.1056   21.7787 H   0  0  0  0  0  0  0  0  0  0  0  0
    6.9339   -2.4686   20.4056 H   0  0  0  0  0  0  0  0  0  0  0  0
    8.9212   -2.1884   21.6611 H   0  0  0  0  0  0  0  0  0  0  0  0
    7.7250   -3.9918   22.8047 H   0  0  0  0  0  0  0  0  0  0  0  0
    6.8446   -2.8370   23.8168 H   0  0  0  0  0  0  0  0  0  0  0  0
    8.5881   -3.0395   24.0366 H   0  0  0  0  0  0  0  0  0  0  0  0
  1  2  1  0
  2  3  1  0
  3  4  1  0
  4  5  1  0
  5  6  2  0
  6  7  1  0
  7  8  2  0
  8  9  1  0
  9 10  2  0
 10 11  1  0
 11 12  2  0
 12 13  1  0
 13 14  2  0
 13 15  1  0
 12 16  1  0
 11 17  1  0
 10 18  1  0
  8 19  1  0
  6 20  1  0
  4 21  1  0
 21 22  2  0
 21 23  1  0
 23 24  1  1
 24 25  1  0
 25 26  1  0
 26 27  1  0
 27 28  1  0
 28 29  2  0
 29 30  1  0
 30 31  1  0
 31 32  1  0
 30 33  1  0
 28 34  1  0
 26 35  1  0
 26 36  1  0
 25 37  1  0
 37 38  2  0
 37 39  1  0
 39 40  2  0
 40 41  1  0
 41 42  2  0
 42 43  1  0
 42 44  1  0
 44 45  2  0
 44 46  1  0
 41 47  1  0
 40 48  1  0
 24 49  1  0
 24 50  1  0
  3 51  1  0
  3 52  1  0
  2 53  1  6
  1 54  1  0
  1 55  1  0
  1 56  1  0
 23  2  1  0
 31 27  2  0
 45 39  1  0
 14  5  1  0
 45 23  1  0
 14  9  1  0
M  END
>  <cnnaffinities>  (91) 
[6.49981, 6.63124]

>  <score>  (91) 
6.49981

>  <index>  (91) 
91

>  <Smiles>  (91) 
C([C@]1(C(N(c2c(nc(c3c(c(c(c(c23)[H])[H])[H])[H])[H])[H])C(=O)[C@]21C(N(C(c1c(nn(c1[H])[H])[H])([H])[H])C(=O)c1c(c(c(F)c(c21)[H])[H])[H])([H])[H])([H])[H])[H])([H])([H])[H]

>  <h>  (91) 
<NA>

>  <Training>  (91) 
True

>  <Success>  (91) 
True

>  <enamine_searched>  (91) 
False

>  <enamine_id>  (91) 
nan

$$$$

     RDKit          3D

 47 50  0  0  0  0  0  0  0  0999 V2000
    8.1881    1.4333   20.6957 O   0  0  0  0  0  0  0  0  0  0  0  0
    7.7670    0.5439   21.4111 C   0  0  0  0  0  0  0  0  0  0  0  0
    6.8431   -0.5624   20.8960 C   0  0  0  0  0  0  0  0  0  0  0  0
    5.9419   -0.0785   19.7999 C   0  0  0  0  0  0  0  0  0  0  0  0
    6.3611   -0.1691   18.4984 C   0  0  0  0  0  0  0  0  0  0  0  0
    5.7056    0.3330   17.4205 N   0  0  0  0  0  0  0  0  0  0  0  0
    4.5828    0.9613   17.6609 C   0  0  0  0  0  0  0  0  0  0  0  0
    4.0190    1.1315   18.9549 C   0  0  0  0  0  0  0  0  0  0  0  0
    2.7937    1.8233   19.1390 C   0  0  0  0  0  0  0  0  0  0  0  0
    2.2225    1.9097   20.3770 C   0  0  0  0  0  0  0  0  0  0  0  0
    2.8716    1.3299   21.4920 C   0  0  0  0  0  0  0  0  0  0  0  0
    4.0711    0.6772   21.3481 C   0  0  0  0  0  0  0  0  0  0  0  0
    4.6941    0.5724   20.0702 C   0  0  0  0  0  0  0  0  0  0  0  0
    4.5521    0.2408   22.2216 H   0  0  0  0  0  0  0  0  0  0  0  0
    2.3897    1.3788   22.4622 H   0  0  0  0  0  0  0  0  0  0  0  0
    1.2806    2.4330   20.5105 H   0  0  0  0  0  0  0  0  0  0  0  0
    2.2940    2.2190   18.2588 H   0  0  0  0  0  0  0  0  0  0  0  0
    4.0806    1.4189   16.8053 H   0  0  0  0  0  0  0  0  0  0  0  0
    7.3319   -0.6113   18.2755 H   0  0  0  0  0  0  0  0  0  0  0  0
    6.2639   -0.9885   21.7163 H   0  0  0  0  0  0  0  0  0  0  0  0
    7.5044   -1.3542   20.5126 H   0  0  0  0  0  0  0  0  0  0  0  0
    8.1104    0.4528   22.7468 N   0  0  0  0  0  0  0  0  0  0  0  0
    7.7606   -0.6575   23.5430 C   0  0  0  0  0  0  0  0  0  0  0  0
    6.7303   -0.6729   24.4044 C   0  0  0  0  0  0  0  0  0  0  0  0
    6.0027    0.4776   24.9273 C   0  0  0  0  0  0  0  0  0  0  0  0
    6.5452    1.6030   25.4272 C   0  0  0  0  0  0  0  0  0  0  0  0
    7.9806    1.8221   25.6523 C   0  0  0  0  0  0  0  0  0  0  0  0
    8.9648    1.6039   24.7808 C   0  0  0  0  0  0  0  0  0  0  0  0
    8.8754    1.5981   23.2767 C   0  0  1  0  0  0  0  0  0  0  0  0
   10.3046    1.6249   22.7579 C   0  0  0  0  0  0  0  0  0  0  0  0
   11.0833    0.4703   22.8146 C   0  0  0  0  0  0  0  0  0  0  0  0
   12.4360    0.5178   22.4914 C   0  0  0  0  0  0  0  0  0  0  0  0
   13.0277    1.7467   22.2050 C   0  0  0  0  0  0  0  0  0  0  0  0
   12.2599    2.9088   22.1991 C   0  0  0  0  0  0  0  0  0  0  0  0
   10.8909    2.8450   22.4391 C   0  0  0  0  0  0  0  0  0  0  0  0
   10.2645    3.7370   22.4177 H   0  0  0  0  0  0  0  0  0  0  0  0
   12.7511    3.8584   22.0036 H   0  0  0  0  0  0  0  0  0  0  0  0
   14.0914    1.8207   21.9900 H   0  0  0  0  0  0  0  0  0  0  0  0
   13.0268   -0.3946   22.4795 H   0  0  0  0  0  0  0  0  0  0  0  0
   10.6326   -0.4561   23.1707 H   0  0  0  0  0  0  0  0  0  0  0  0
    8.3572    2.5077   22.9483 H   0  0  0  0  0  0  0  0  0  0  0  0
    9.9932    1.5196   25.1212 H   0  0  0  0  0  0  0  0  0  0  0  0
    8.2305    2.2037   26.6437 H   0  0  0  0  0  0  0  0  0  0  0  0
    5.8855    2.3661   25.8378 H   0  0  0  0  0  0  0  0  0  0  0  0
    4.9209    0.3474   25.0151 H   0  0  0  0  0  0  0  0  0  0  0  0
    6.3942   -1.6429   24.7665 H   0  0  0  0  0  0  0  0  0  0  0  0
    8.3085   -1.5807   23.3439 H   0  0  0  0  0  0  0  0  0  0  0  0
  1  2  2  0
  2  3  1  0
  3  4  1  0
  4  5  2  0
  5  6  1  0
  6  7  2  0
  7  8  1  0
  8  9  2  0
  9 10  1  0
 10 11  2  0
 11 12  1  0
 12 13  2  0
 12 14  1  0
 11 15  1  0
 10 16  1  0
  9 17  1  0
  7 18  1  0
  5 19  1  0
  3 20  1  0
  3 21  1  0
  2 22  1  0
 22 23  1  0
 23 24  2  3
 24 25  1  0
 25 26  2  3
 26 27  1  0
 27 28  2  3
 28 29  1  0
 29 30  1  0
 30 31  2  0
 31 32  1  0
 32 33  2  0
 33 34  1  0
 34 35  2  0
 35 36  1  0
 34 37  1  0
 33 38  1  0
 32 39  1  0
 31 40  1  0
 29 41  1  6
 28 42  1  0
 27 43  1  0
 26 44  1  0
 25 45  1  0
 24 46  1  0
 23 47  1  0
 13  4  1  0
 29 22  1  0
 35 30  1  0
 13  8  1  0
M  END
>  <cnnaffinities>  (92) 
[5.97534, 5.97525, 6.10585, 6.10579, 6.08258, 6.36317, 6.36312, 6.08145]

>  <score>  (92) 
5.97534

>  <index>  (92) 
92

>  <Smiles>  (92) 
O=C(C(c1c(nc(c2c(c(c(c(c12)[H])[H])[H])[H])[H])[H])([H])[H])N1C(=C(C(=C(C(=C([C@]1(c1c(c(c(c(c1[H])[H])[H])[H])[H])[H])[H])[H])[H])[H])[H])[H]

>  <h>  (92) 
<NA>

>  <Training>  (92) 
True

>  <Success>  (92) 
True

>  <enamine_searched>  (92) 
False

>  <enamine_id>  (92) 
nan

$$$$

     RDKit          3D

 58 62  0  0  0  0  0  0  0  0999 V2000
    8.2263    5.4011   24.0162 C   0  0  0  0  0  0  0  0  0  0  0  0
    7.9128    4.1826   23.2312 N   0  0  0  0  0  4  0  0  0  0  0  0
    6.8049    3.3701   23.8111 C   0  0  0  0  0  0  0  0  0  0  0  0
    7.3032    2.4587   24.9399 C   0  0  0  0  0  0  0  0  0  0  0  0
    8.2369    1.4502   24.4311 N   0  0  0  0  0  0  0  0  0  0  0  0
    7.7245    0.1511   24.0260 C   0  0  0  0  0  0  0  0  0  0  0  0
    8.3286   -0.3902   22.6920 C   0  0  2  0  0  0  0  0  0  0  0  0
    7.7117    0.3784   21.5034 C   0  0  0  0  0  0  0  0  0  0  0  0
    7.9560    1.5212   21.1715 O   0  0  0  0  0  0  0  0  0  0  0  0
    6.8057   -0.4335   20.8710 N   0  0  0  0  0  0  0  0  0  0  0  0
    5.9980    0.0542   19.8147 C   0  0  0  0  0  0  0  0  0  0  0  0
    6.4241   -0.0817   18.5223 C   0  0  0  0  0  0  0  0  0  0  0  0
    5.7318    0.3591   17.4456 N   0  0  0  0  0  0  0  0  0  0  0  0
    4.5899    0.9685   17.6607 C   0  0  0  0  0  0  0  0  0  0  0  0
    4.0074    1.1299   18.9505 C   0  0  0  0  0  0  0  0  0  0  0  0
    2.7406    1.7495   19.1317 C   0  0  0  0  0  0  0  0  0  0  0  0
    2.1848    1.8309   20.3818 C   0  0  0  0  0  0  0  0  0  0  0  0
    2.8482    1.2653   21.4948 C   0  0  0  0  0  0  0  0  0  0  0  0
    4.0692    0.6567   21.3479 C   0  0  0  0  0  0  0  0  0  0  0  0
    4.7029    0.6125   20.0666 C   0  0  0  0  0  0  0  0  0  0  0  0
    4.5523    0.2086   22.2137 H   0  0  0  0  0  0  0  0  0  0  0  0
    2.3918    1.3261   22.4777 H   0  0  0  0  0  0  0  0  0  0  0  0
    1.2354    2.3380   20.5290 H   0  0  0  0  0  0  0  0  0  0  0  0
    2.2419    2.1810   18.2683 H   0  0  0  0  0  0  0  0  0  0  0  0
    4.0280    1.3107   16.7909 H   0  0  0  0  0  0  0  0  0  0  0  0
    7.3544   -0.6142   18.3156 H   0  0  0  0  0  0  0  0  0  0  0  0
    6.6604   -1.7460   21.4524 C   0  0  0  0  0  0  0  0  0  0  0  0
    7.8612   -1.8530   22.4104 C   0  0  2  0  0  0  0  0  0  0  0  0
    7.5313   -2.7185   23.6245 C   0  0  0  0  0  0  0  0  0  0  0  0
    6.6662   -2.3146   24.1639 H   0  0  0  0  0  0  0  0  0  0  0  0
    7.2679   -3.7354   23.3177 H   0  0  0  0  0  0  0  0  0  0  0  0
    8.3679   -2.7831   24.3277 H   0  0  0  0  0  0  0  0  0  0  0  0
    8.6769   -2.3228   21.8578 H   0  0  0  0  0  0  0  0  0  0  0  0
    5.7076   -1.8400   21.9938 H   0  0  0  0  0  0  0  0  0  0  0  0
    6.6667   -2.5218   20.6783 H   0  0  0  0  0  0  0  0  0  0  0  0
    9.8371   -0.2013   22.7179 C   0  0  0  0  0  0  0  0  0  0  0  0
   10.6981   -0.9267   21.8827 C   0  0  0  0  0  0  0  0  0  0  0  0
   12.0620   -0.7401   21.9969 C   0  0  0  0  0  0  0  0  0  0  0  0
   12.8718   -1.4723   21.2170 F   0  0  0  0  0  0  0  0  0  0  0  0
   12.6310    0.1711   22.8802 C   0  0  0  0  0  0  0  0  0  0  0  0
   11.7820    0.9656   23.6201 C   0  0  0  0  0  0  0  0  0  0  0  0
   10.3988    0.7983   23.5228 C   0  0  0  0  0  0  0  0  0  0  0  0
    9.5213    1.7996   24.1926 C   0  0  0  0  0  0  0  0  0  0  0  0
    9.9451    2.9331   24.4374 O   0  0  0  0  0  0  0  0  0  0  0  0
   12.1646    1.7414   24.2755 H   0  0  0  0  0  0  0  0  0  0  0  0
   13.7102    0.2540   22.9492 H   0  0  0  0  0  0  0  0  0  0  0  0
   10.3450   -1.6286   21.1335 H   0  0  0  0  0  0  0  0  0  0  0  0
    7.9408   -0.5739   24.8175 H   0  0  0  0  0  0  0  0  0  0  0  0
    6.6377    0.2295   23.9156 H   0  0  0  0  0  0  0  0  0  0  0  0
    6.4568    1.9414   25.4002 H   0  0  0  0  0  0  0  0  0  0  0  0
    7.8106    3.0306   25.7275 H   0  0  0  0  0  0  0  0  0  0  0  0
    6.0137    4.0417   24.1615 H   0  0  0  0  0  0  0  0  0  0  0  0
    6.3964    2.7573   23.0054 H   0  0  0  0  0  0  0  0  0  0  0  0
    8.7732    3.6225   23.2549 H   0  0  0  0  0  0  0  0  0  0  0  0
    7.7251    4.3811   22.2290 H   0  0  0  0  0  0  0  0  0  0  0  0
    8.7936    5.1131   24.9028 H   0  0  0  0  0  0  0  0  0  0  0  0
    8.8387    6.0885   23.4317 H   0  0  0  0  0  0  0  0  0  0  0  0
    7.3152    5.9162   24.3299 H   0  0  0  0  0  0  0  0  0  0  0  0
  1  2  1  0
  2  3  1  0
  3  4  1  0
  4  5  1  0
  5  6  1  0
  7  6  1  1
  7  8  1  0
  8  9  2  0
  8 10  1  0
 10 11  1  0
 11 12  2  0
 12 13  1  0
 13 14  2  0
 14 15  1  0
 15 16  2  0
 16 17  1  0
 17 18  2  0
 18 19  1  0
 19 20  2  0
 19 21  1  0
 18 22  1  0
 17 23  1  0
 16 24  1  0
 14 25  1  0
 12 26  1  0
 10 27  1  0
 27 28  1  0
 28 29  1  0
 29 30  1  0
 29 31  1  0
 29 32  1  0
 28 33  1  6
 27 34  1  0
 27 35  1  0
  7 36  1  0
 36 37  2  0
 37 38  1  0
 38 39  1  0
 38 40  2  0
 40 41  1  0
 41 42  2  0
 42 43  1  0
 43 44  2  0
 41 45  1  0
 40 46  1  0
 37 47  1  0
  6 48  1  0
  6 49  1  0
  4 50  1  0
  4 51  1  0
  3 52  1  0
  3 53  1  0
  2 54  1  0
  2 55  1  0
  1 56  1  0
  1 57  1  0
  1 58  1  0
 43  5  1  0
 28  7  1  0
 42 36  1  0
 20 11  1  0
 20 15  1  0
M  CHG  1   2   1
M  END
>  <cnnaffinities>  (93) 
[6.47087]

>  <score>  (93) 
6.47087

>  <index>  (93) 
93

>  <Smiles>  (93) 
C([N+](C(C(N1C([C@@]2(C(=O)N(c3c(nc(c4c(c(c(c(c34)[H])[H])[H])[H])[H])[H])C([C@@]2(C([H])([H])[H])[H])([H])[H])c2c(c(F)c(c(c2C1=O)[H])[H])[H])([H])[H])([H])[H])([H])[H])([H])[H])([H])([H])[H]

>  <h>  (93) 
<NA>

>  <Training>  (93) 
True

>  <Success>  (93) 
True

>  <enamine_searched>  (93) 
False

>  <enamine_id>  (93) 
nan

$$$$

     RDKit          3D

 65 69  0  0  0  0  0  0  0  0999 V2000
   13.7774    0.5773   22.9619 C   0  0  0  0  0  0  0  0  0  0  0  0
   12.6910    0.8158   24.0083 C   0  0  0  0  0  0  0  0  0  0  0  0
   11.4194    0.1994   23.4778 C   0  0  0  0  0  0  0  0  0  0  0  0
   10.9626    0.4644   22.3938 O   0  0  0  0  0  0  0  0  0  0  0  0
   10.7586   -0.8288   24.3252 N   0  0  2  0  0  4  0  0  0  0  0  0
   11.1673   -2.3102   23.9873 C   0  0  0  0  0  0  0  0  0  0  0  0
   10.4057   -2.7510   22.7519 C   0  0  0  0  0  0  0  0  0  0  0  0
    8.9115   -2.8139   23.0776 C   0  0  0  0  0  0  0  0  0  0  0  0
    8.3823   -1.5331   23.7056 C   0  0  0  0  0  0  0  0  0  0  0  0
    7.0099   -1.2075   23.7451 C   0  0  0  0  0  0  0  0  0  0  0  0
    6.0527   -1.9067   22.9505 N   0  0  0  0  0  0  0  0  0  0  0  0
    5.1009   -2.7511   23.6665 C   0  0  0  0  0  0  0  0  0  0  0  0
    5.8085   -3.9858   24.1598 C   0  0  0  0  0  0  0  0  0  0  0  0
    6.3278   -4.0528   25.4512 C   0  0  0  0  0  0  0  0  0  0  0  0
    7.0464   -5.1711   25.8564 C   0  0  0  0  0  0  0  0  0  0  0  0
    7.2617   -6.2243   24.9729 C   0  0  0  0  0  0  0  0  0  0  0  0
    6.7726   -6.1288   23.6749 C   0  0  0  0  0  0  0  0  0  0  0  0
    7.0706   -7.4231   22.5507 Cl  0  0  0  0  0  0  0  0  0  0  0  0
    6.0780   -5.0056   23.2499 C   0  0  0  0  0  0  0  0  0  0  0  0
    5.7880   -4.8918   22.2081 H   0  0  0  0  0  0  0  0  0  0  0  0
    7.8280   -7.0994   25.2709 H   0  0  0  0  0  0  0  0  0  0  0  0
    7.4671   -5.2146   26.8579 H   0  0  0  0  0  0  0  0  0  0  0  0
    6.2087   -3.2006   26.1189 H   0  0  0  0  0  0  0  0  0  0  0  0
    4.6824   -2.1865   24.5095 H   0  0  0  0  0  0  0  0  0  0  0  0
    4.3018   -2.9979   22.9616 H   0  0  0  0  0  0  0  0  0  0  0  0
    5.9700   -1.8316   21.5726 C   0  0  0  0  0  0  0  0  0  0  0  0
    5.3162   -2.6344   20.9320 O   0  0  0  0  0  0  0  0  0  0  0  0
    6.7180   -0.6707   20.9002 C   0  0  0  0  0  0  0  0  0  0  0  0
    5.9335   -0.0664   19.7675 C   0  0  0  0  0  0  0  0  0  0  0  0
    6.3737   -0.1359   18.4728 C   0  0  0  0  0  0  0  0  0  0  0  0
    5.7156    0.3792   17.4019 N   0  0  0  0  0  0  0  0  0  0  0  0
    4.5807    0.9909   17.6339 C   0  0  0  0  0  0  0  0  0  0  0  0
    3.9937    1.1253   18.9200 C   0  0  0  0  0  0  0  0  0  0  0  0
    2.7420    1.7722   19.1023 C   0  0  0  0  0  0  0  0  0  0  0  0
    2.1983    1.8696   20.3542 C   0  0  0  0  0  0  0  0  0  0  0  0
    2.8630    1.2992   21.4657 C   0  0  0  0  0  0  0  0  0  0  0  0
    4.0585    0.6440   21.3097 C   0  0  0  0  0  0  0  0  0  0  0  0
    4.6744    0.5582   20.0242 C   0  0  0  0  0  0  0  0  0  0  0  0
    4.5154    0.1785   22.1805 H   0  0  0  0  0  0  0  0  0  0  0  0
    2.4004    1.3567   22.4480 H   0  0  0  0  0  0  0  0  0  0  0  0
    1.2446    2.3660   20.4976 H   0  0  0  0  0  0  0  0  0  0  0  0
    2.2401    2.1944   18.2326 H   0  0  0  0  0  0  0  0  0  0  0  0
    4.0457    1.3835   16.7678 H   0  0  0  0  0  0  0  0  0  0  0  0
    7.3056   -0.6589   18.2424 H   0  0  0  0  0  0  0  0  0  0  0  0
    6.9510    0.0781   21.6652 H   0  0  0  0  0  0  0  0  0  0  0  0
    7.6747   -1.0661   20.5350 H   0  0  0  0  0  0  0  0  0  0  0  0
    6.5433   -0.1563   24.5284 C   0  0  0  0  0  0  0  0  0  0  0  0
    7.4338    0.7654   25.0674 C   0  0  0  0  0  0  0  0  0  0  0  0
    8.7942    0.5468   24.9015 C   0  0  0  0  0  0  0  0  0  0  0  0
    9.2470   -0.6398   24.3339 C   0  0  0  0  0  0  0  0  0  0  0  0
    9.5299    1.2965   25.1606 H   0  0  0  0  0  0  0  0  0  0  0  0
    7.0732    1.6421   25.5957 H   0  0  0  0  0  0  0  0  0  0  0  0
    5.4667   -0.0439   24.6375 H   0  0  0  0  0  0  0  0  0  0  0  0
    8.3409   -3.0634   22.1786 H   0  0  0  0  0  0  0  0  0  0  0  0
    8.7483   -3.6283   23.7960 H   0  0  0  0  0  0  0  0  0  0  0  0
   10.5931   -2.0539   21.9242 H   0  0  0  0  0  0  0  0  0  0  0  0
   10.7743   -3.7348   22.4540 H   0  0  0  0  0  0  0  0  0  0  0  0
   10.8669   -2.9011   24.8576 H   0  0  0  0  0  0  0  0  0  0  0  0
   12.2568   -2.3811   23.8816 H   0  0  0  0  0  0  0  0  0  0  0  0
   11.0973   -0.6924   25.2943 H   0  0  0  0  0  0  0  0  0  0  0  0
   12.9594    0.4039   24.9860 H   0  0  0  0  0  0  0  0  0  0  0  0
   12.4744    1.8807   24.1439 H   0  0  0  0  0  0  0  0  0  0  0  0
   13.2942    0.5021   21.9863 H   0  0  0  0  0  0  0  0  0  0  0  0
   14.4968    1.3950   22.9327 H   0  0  0  0  0  0  0  0  0  0  0  0
   14.2804   -0.3737   23.1569 H   0  0  0  0  0  0  0  0  0  0  0  0
  1  2  1  0
  2  3  1  0
  3  4  2  0
  3  5  1  0
  5  6  1  0
  6  7  1  0
  7  8  1  0
  8  9  1  0
  9 10  2  0
 10 11  1  0
 11 12  1  0
 12 13  1  0
 13 14  2  0
 14 15  1  0
 15 16  2  0
 16 17  1  0
 17 18  1  0
 17 19  2  0
 19 20  1  0
 16 21  1  0
 15 22  1  0
 14 23  1  0
 12 24  1  0
 12 25  1  0
 11 26  1  0
 26 27  2  0
 26 28  1  0
 28 29  1  0
 29 30  2  0
 30 31  1  0
 31 32  2  0
 32 33  1  0
 33 34  2  0
 34 35  1  0
 35 36  2  0
 36 37  1  0
 37 38  2  0
 37 39  1  0
 36 40  1  0
 35 41  1  0
 34 42  1  0
 32 43  1  0
 30 44  1  0
 28 45  1  0
 28 46  1  0
 10 47  1  0
 47 48  2  0
 48 49  1  0
 49 50  2  0
 49 51  1  0
 48 52  1  0
 47 53  1  0
  8 54  1  0
  8 55  1  0
  7 56  1  0
  7 57  1  0
  6 58  1  0
  6 59  1  0
  5 60  1  1
  2 61  1  0
  2 62  1  0
  1 63  1  0
  1 64  1  0
  1 65  1  0
 50  5  1  0
 50  9  1  0
 19 13  1  0
 38 29  1  0
 38 33  1  0
M  CHG  1   5   1
M  END
>  <cnnaffinities>  (94) 
[7.12958, 6.66389, 6.87778, 6.92633]

>  <score>  (94) 
7.12958

>  <index>  (94) 
94

>  <Smiles>  (94) 
C(C(C(=O)[N@@+]1(C(C(C(c2c(N(C(c3c(c(c(c(Cl)c3[H])[H])[H])[H])([H])[H])C(=O)C(c3c(nc(c4c(c(c(c(c34)[H])[H])[H])[H])[H])[H])([H])[H])c(c(c(c12)[H])[H])[H])([H])[H])([H])[H])([H])[H])[H])([H])[H])([H])([H])[H]

>  <h>  (94) 
<NA>

>  <Training>  (94) 
True

>  <Success>  (94) 
True

>  <enamine_searched>  (94) 
False

>  <enamine_id>  (94) 
nan

$$$$

     RDKit          3D

 67 71  0  0  0  0  0  0  0  0999 V2000
    5.0044   -3.1428   18.7733 C   0  0  0  0  0  0  0  0  0  0  0  0
    5.4937   -3.7683   19.9876 N   0  0  0  0  0  0  0  0  0  0  0  0
    5.9578   -5.0364   20.0808 C   0  0  0  0  0  0  0  0  0  0  0  0
    5.7454   -5.9107   19.2560 O   0  0  0  0  0  0  0  0  0  0  0  0
    6.8590   -5.3476   21.2959 C   0  0  0  0  0  0  0  0  0  0  0  0
    6.9618   -4.3386   22.3366 N   0  0  0  0  0  0  0  0  0  0  0  0
    7.8694   -3.2105   22.1574 C   0  0  0  0  0  0  0  0  0  0  0  0
    7.3316   -1.9322   22.8432 C   0  0  2  0  0  0  0  0  0  0  0  0
    6.1632   -1.3856   21.9952 C   0  0  0  0  0  0  0  0  0  0  0  0
    5.0326   -1.8462   21.9956 O   0  0  0  0  0  0  0  0  0  0  0  0
    6.6199   -0.3803   21.1640 N   0  0  0  0  0  0  0  0  0  0  0  0
    5.9143    0.1730   20.0771 C   0  0  0  0  0  0  0  0  0  0  0  0
    6.5450    0.3264   18.8599 C   0  0  0  0  0  0  0  0  0  0  0  0
    5.9287    0.7218   17.7261 N   0  0  0  0  0  0  0  0  0  0  0  0
    4.6579    1.0322   17.8011 C   0  0  0  0  0  0  0  0  0  0  0  0
    3.9168    1.0174   19.0124 C   0  0  0  0  0  0  0  0  0  0  0  0
    2.5708    1.4632   19.0433 C   0  0  0  0  0  0  0  0  0  0  0  0
    1.8776    1.5065   20.2202 C   0  0  0  0  0  0  0  0  0  0  0  0
    2.5112    1.1184   21.4212 C   0  0  0  0  0  0  0  0  0  0  0  0
    3.8177    0.6918   21.4240 C   0  0  0  0  0  0  0  0  0  0  0  0
    4.5480    0.5996   20.2022 C   0  0  0  0  0  0  0  0  0  0  0  0
    4.2769    0.3973   22.3610 H   0  0  0  0  0  0  0  0  0  0  0  0
    1.9568    1.1290   22.3543 H   0  0  0  0  0  0  0  0  0  0  0  0
    0.8433    1.8397   20.2431 H   0  0  0  0  0  0  0  0  0  0  0  0
    2.1291    1.7887   18.1070 H   0  0  0  0  0  0  0  0  0  0  0  0
    4.1558    1.3391   16.8829 H   0  0  0  0  0  0  0  0  0  0  0  0
    7.6055    0.0985   18.7493 H   0  0  0  0  0  0  0  0  0  0  0  0
    8.0696   -0.2440   21.2712 C   0  0  0  0  0  0  0  0  0  0  0  0
    8.3196   -0.7383   22.7007 C   0  0  2  0  0  0  0  0  0  0  0  0
    9.7963   -0.9536   23.0306 C   0  0  0  0  0  0  0  0  0  0  0  0
   10.5300    0.6527   23.3897 S   0  0  0  0  0  0  0  0  0  0  0  0
   10.0879    1.0405   24.7237 O   0  0  0  0  0  0  0  0  0  0  0  0
   10.2628    1.5359   22.2616 O   0  0  0  0  0  0  0  0  0  0  0  0
   12.1854    0.3604   23.3937 N   0  0  0  0  0  0  0  0  0  0  0  0
   12.6834   -0.2281   24.6326 C   0  0  0  0  0  0  0  0  0  0  0  0
   12.3810   -1.2780   24.6977 H   0  0  0  0  0  0  0  0  0  0  0  0
   12.3340    0.3200   25.5155 H   0  0  0  0  0  0  0  0  0  0  0  0
   13.7753   -0.2076   24.6004 H   0  0  0  0  0  0  0  0  0  0  0  0
   12.9690    1.4999   22.8929 C   0  0  0  0  0  0  0  0  0  0  0  0
   12.8828    2.3900   23.5314 H   0  0  0  0  0  0  0  0  0  0  0  0
   14.0200    1.2030   22.8483 H   0  0  0  0  0  0  0  0  0  0  0  0
   12.6195    1.7328   21.8866 H   0  0  0  0  0  0  0  0  0  0  0  0
   10.3417   -1.3954   22.1882 H   0  0  0  0  0  0  0  0  0  0  0  0
    9.9261   -1.5920   23.9126 H   0  0  0  0  0  0  0  0  0  0  0  0
    7.9571    0.0492   23.3620 H   0  0  0  0  0  0  0  0  0  0  0  0
    8.3808    0.7824   21.0971 H   0  0  0  0  0  0  0  0  0  0  0  0
    8.5942   -0.8943   20.5485 H   0  0  0  0  0  0  0  0  0  0  0  0
    6.8715   -2.2735   24.2423 C   0  0  0  0  0  0  0  0  0  0  0  0
    6.5890   -1.2534   25.1604 C   0  0  0  0  0  0  0  0  0  0  0  0
    6.1090   -1.5760   26.4127 C   0  0  0  0  0  0  0  0  0  0  0  0
    5.8339   -0.5847   27.2766 F   0  0  0  0  0  0  0  0  0  0  0  0
    5.8902   -2.8867   26.8182 C   0  0  0  0  0  0  0  0  0  0  0  0
    6.1320   -3.8911   25.9026 C   0  0  0  0  0  0  0  0  0  0  0  0
    6.5806   -3.5934   24.6142 C   0  0  0  0  0  0  0  0  0  0  0  0
    6.6452   -4.7168   23.6234 C   0  0  0  0  0  0  0  0  0  0  0  0
    6.3792   -5.8674   23.9390 O   0  0  0  0  0  0  0  0  0  0  0  0
    5.9509   -4.9309   26.1477 H   0  0  0  0  0  0  0  0  0  0  0  0
    5.5121   -3.0847   27.8158 H   0  0  0  0  0  0  0  0  0  0  0  0
    6.7077   -0.2079   24.9036 H   0  0  0  0  0  0  0  0  0  0  0  0
    8.8663   -3.4518   22.5542 H   0  0  0  0  0  0  0  0  0  0  0  0
    7.9743   -3.0111   21.0953 H   0  0  0  0  0  0  0  0  0  0  0  0
    7.8585   -5.6256   20.9276 H   0  0  0  0  0  0  0  0  0  0  0  0
    6.4537   -6.2455   21.7619 H   0  0  0  0  0  0  0  0  0  0  0  0
    5.3502   -3.2592   20.8512 H   0  0  0  0  0  0  0  0  0  0  0  0
    5.3916   -3.6420   17.8852 H   0  0  0  0  0  0  0  0  0  0  0  0
    3.9156   -3.1427   18.7159 H   0  0  0  0  0  0  0  0  0  0  0  0
    5.3299   -2.0988   18.7433 H   0  0  0  0  0  0  0  0  0  0  0  0
  1  2  1  0
  2  3  1  0
  3  4  2  0
  3  5  1  0
  5  6  1  0
  6  7  1  0
  8  7  1  6
  8  9  1  0
  9 10  2  0
  9 11  1  0
 11 12  1  0
 12 13  2  0
 13 14  1  0
 14 15  2  0
 15 16  1  0
 16 17  2  0
 17 18  1  0
 18 19  2  0
 19 20  1  0
 20 21  2  0
 20 22  1  0
 19 23  1  0
 18 24  1  0
 17 25  1  0
 15 26  1  0
 13 27  1  0
 11 28  1  0
 28 29  1  0
 29 30  1  0
 30 31  1  0
 31 32  2  0
 31 33  2  0
 31 34  1  0
 34 35  1  0
 35 36  1  0
 35 37  1  0
 35 38  1  0
 34 39  1  0
 39 40  1  0
 39 41  1  0
 39 42  1  0
 30 43  1  0
 30 44  1  0
 29 45  1  1
 28 46  1  0
 28 47  1  0
  8 48  1  0
 48 49  2  0
 49 50  1  0
 50 51  1  0
 50 52  2  0
 52 53  1  0
 53 54  2  0
 54 55  1  0
 55 56  2  0
 53 57  1  0
 52 58  1  0
 49 59  1  0
  7 60  1  0
  7 61  1  0
  5 62  1  0
  5 63  1  0
  2 64  1  0
  1 65  1  0
  1 66  1  0
  1 67  1  0
 55  6  1  0
 29  8  1  0
 54 48  1  0
 21 12  1  0
 21 16  1  0
M  END
>  <cnnaffinities>  (95) 
[6.97596, 7.11243]

>  <score>  (95) 
6.97596

>  <index>  (95) 
95

>  <Smiles>  (95) 
C(N(C(=O)C(N1C([C@@]2(C(=O)N(c3c(nc(c4c(c(c(c(c34)[H])[H])[H])[H])[H])[H])C([C@@]2(C(S(=O)(=O)N(C([H])([H])[H])C([H])([H])[H])([H])[H])[H])([H])[H])c2c(c(F)c(c(c2C1=O)[H])[H])[H])([H])[H])([H])[H])[H])([H])([H])[H]

>  <h>  (95) 
<NA>

>  <Training>  (95) 
True

>  <Success>  (95) 
True

>  <enamine_searched>  (95) 
False

>  <enamine_id>  (95) 
nan

$$$$

     RDKit          3D

 37 39  0  0  0  0  0  0  0  0999 V2000
    8.5489    1.2778   20.5535 O   0  0  0  0  0  0  0  0  0  0  0  0
    7.8412    0.6884   21.3493 C   0  0  0  0  0  0  0  0  0  0  0  0
    6.9058   -0.4567   20.9350 C   0  0  0  0  0  0  0  0  0  0  0  0
    5.9590   -0.0486   19.8397 C   0  0  0  0  0  0  0  0  0  0  0  0
    6.3683   -0.1700   18.5375 C   0  0  0  0  0  0  0  0  0  0  0  0
    5.7108    0.3121   17.4574 N   0  0  0  0  0  0  0  0  0  0  0  0
    4.6022    0.9733   17.6808 C   0  0  0  0  0  0  0  0  0  0  0  0
    4.0174    1.1224   18.9625 C   0  0  0  0  0  0  0  0  0  0  0  0
    2.8036    1.8317   19.1387 C   0  0  0  0  0  0  0  0  0  0  0  0
    2.2372    1.9510   20.3783 C   0  0  0  0  0  0  0  0  0  0  0  0
    2.8746    1.3609   21.4945 C   0  0  0  0  0  0  0  0  0  0  0  0
    4.0843    0.7123   21.3511 C   0  0  0  0  0  0  0  0  0  0  0  0
    4.6981    0.5797   20.0796 C   0  0  0  0  0  0  0  0  0  0  0  0
    4.5689    0.3071   22.2337 H   0  0  0  0  0  0  0  0  0  0  0  0
    2.4054    1.4451   22.4718 H   0  0  0  0  0  0  0  0  0  0  0  0
    1.3098    2.5007   20.5120 H   0  0  0  0  0  0  0  0  0  0  0  0
    2.3343    2.2725   18.2668 H   0  0  0  0  0  0  0  0  0  0  0  0
    4.1081    1.4134   16.8150 H   0  0  0  0  0  0  0  0  0  0  0  0
    7.3261   -0.6386   18.3194 H   0  0  0  0  0  0  0  0  0  0  0  0
    7.5587   -1.2529   20.5554 H   0  0  0  0  0  0  0  0  0  0  0  0
    6.3920   -0.8664   21.8096 H   0  0  0  0  0  0  0  0  0  0  0  0
    7.8354    0.9613   22.6874 N   0  0  0  0  0  0  0  0  0  0  0  0
    8.7285    1.9552   23.2636 C   0  0  0  0  0  0  0  0  0  0  0  0
   10.1580    1.4627   23.4321 C   0  0  0  0  0  0  0  0  0  0  0  0
   11.1577    1.9476   22.5897 C   0  0  0  0  0  0  0  0  0  0  0  0
   12.4641    1.4822   22.6892 C   0  0  0  0  0  0  0  0  0  0  0  0
   12.7973    0.5236   23.6340 C   0  0  0  0  0  0  0  0  0  0  0  0
   11.8041    0.0553   24.4854 C   0  0  0  0  0  0  0  0  0  0  0  0
   12.2428   -1.1190   25.6912 Cl  0  0  0  0  0  0  0  0  0  0  0  0
   10.4906    0.5051   24.3933 C   0  0  0  0  0  0  0  0  0  0  0  0
    9.7362    0.0982   25.0635 H   0  0  0  0  0  0  0  0  0  0  0  0
   13.8111    0.1414   23.7096 H   0  0  0  0  0  0  0  0  0  0  0  0
   13.2298    1.8712   22.0251 H   0  0  0  0  0  0  0  0  0  0  0  0
   10.9049    2.6861   21.8335 H   0  0  0  0  0  0  0  0  0  0  0  0
    8.7215    2.8399   22.6210 H   0  0  0  0  0  0  0  0  0  0  0  0
    8.3187    2.2557   24.2333 H   0  0  0  0  0  0  0  0  0  0  0  0
    7.1770    0.4906   23.2825 H   0  0  0  0  0  0  0  0  0  0  0  0
  1  2  2  0
  2  3  1  0
  3  4  1  0
  4  5  2  0
  5  6  1  0
  6  7  2  0
  7  8  1  0
  8  9  2  0
  9 10  1  0
 10 11  2  0
 11 12  1  0
 12 13  2  0
 12 14  1  0
 11 15  1  0
 10 16  1  0
  9 17  1  0
  7 18  1  0
  5 19  1  0
  3 20  1  0
  3 21  1  0
  2 22  1  0
 22 23  1  0
 23 24  1  0
 24 25  2  0
 25 26  1  0
 26 27  2  0
 27 28  1  0
 28 29  1  0
 28 30  2  0
 30 31  1  0
 27 32  1  0
 26 33  1  0
 25 34  1  0
 23 35  1  0
 23 36  1  0
 22 37  1  0
 13  4  1  0
 30 24  1  0
 13  8  1  0
M  END
>  <cnnaffinities>  (96) 
[5.44328, 5.15781, 5.06593]

>  <score>  (96) 
5.44328

>  <index>  (96) 
96

>  <Smiles>  (96) 
O=C(C(c1c(nc(c2c(c(c(c(c12)[H])[H])[H])[H])[H])[H])([H])[H])N(C(c1c(c(c(c(Cl)c1[H])[H])[H])[H])([H])[H])[H]

>  <h>  (96) 
<NA>

>  <Training>  (96) 
True

>  <Success>  (96) 
True

>  <enamine_searched>  (96) 
False

>  <enamine_id>  (96) 
nan

$$$$
