
     RDKit          3D

 63 69  0  0  0  0  0  0  0  0999 V2000
    4.8693   -4.6452   24.5709 O   0  0  0  0  0  0  0  0  0  0  0  0
    5.7368   -3.9018   24.1358 C   0  0  0  0  0  0  0  0  0  0  0  0
    6.2165   -2.6982   24.8764 C   0  0  0  0  0  0  0  0  0  0  0  0
    5.9245   -2.6043   26.2359 C   0  0  0  0  0  0  0  0  0  0  0  0
    6.1148   -1.4143   26.9137 C   0  0  0  0  0  0  0  0  0  0  0  0
    6.5726   -0.3135   26.1895 C   0  0  0  0  0  0  0  0  0  0  0  0
    6.6572    1.2384   26.9775 Cl  0  0  0  0  0  0  0  0  0  0  0  0
    6.9703   -0.4223   24.8683 C   0  0  0  0  0  0  0  0  0  0  0  0
    6.8443   -1.6487   24.1974 C   0  0  0  0  0  0  0  0  0  0  0  0
    7.3095   -1.8359   22.7640 C   0  0  1  0  0  0  0  0  0  0  0  0
    7.4896   -3.3611   22.5081 C   0  0  0  0  0  0  0  0  0  0  0  0
    6.2902   -4.0785   22.8984 N   0  0  0  0  0  0  0  0  0  0  0  0
    5.7139   -5.1155   22.0670 C   0  0  0  0  0  0  0  0  0  0  0  0
    6.2448   -6.4711   22.4094 C   0  0  0  0  0  0  0  0  0  0  0  0
    7.1522   -7.1383   21.7885 N   0  0  0  0  0  0  0  0  0  0  0  0
    7.4012   -8.2687   22.5631 N   0  0  0  0  0  0  0  0  0  0  0  0
    6.6016   -8.1941   23.5664 C   0  0  0  0  0  0  0  0  0  0  0  0
    5.8378   -7.0788   23.5495 O   0  0  0  0  0  0  0  0  0  0  0  0
    6.4819   -8.9081   24.3714 H   0  0  0  0  0  0  0  0  0  0  0  0
    5.9325   -4.9106   21.0155 H   0  0  0  0  0  0  0  0  0  0  0  0
    4.6310   -5.0972   22.2147 H   0  0  0  0  0  0  0  0  0  0  0  0
    7.6470   -3.5255   21.4420 H   0  0  0  0  0  0  0  0  0  0  0  0
    8.3634   -3.7549   23.0487 H   0  0  0  0  0  0  0  0  0  0  0  0
    6.2560   -1.3404   21.7454 C   0  0  0  0  0  0  0  0  0  0  0  0
    5.1076   -1.7271   21.6498 O   0  0  0  0  0  0  0  0  0  0  0  0
    6.8534   -0.4420   20.8818 N   0  0  0  0  0  0  0  0  0  0  0  0
    6.1550    0.1020   19.7829 C   0  0  0  0  0  0  0  0  0  0  0  0
    6.5426   -0.1792   18.4972 C   0  0  0  0  0  0  0  0  0  0  0  0
    5.8917    0.2470   17.3867 N   0  0  0  0  0  0  0  0  0  0  0  0
    4.8349    1.0047   17.5641 C   0  0  0  0  0  0  0  0  0  0  0  0
    4.3488    1.4102   18.8402 C   0  0  0  0  0  0  0  0  0  0  0  0
    3.2215    2.2634   18.9813 C   0  0  0  0  0  0  0  0  0  0  0  0
    2.8033    2.6590   20.2223 C   0  0  0  0  0  0  0  0  0  0  0  0
    3.4927    2.2306   21.3786 C   0  0  0  0  0  0  0  0  0  0  0  0
    4.5856    1.4102   21.2692 C   0  0  0  0  0  0  0  0  0  0  0  0
    5.0301    0.9640   19.9924 C   0  0  0  0  0  0  0  0  0  0  0  0
    5.1159    1.0853   22.1590 H   0  0  0  0  0  0  0  0  0  0  0  0
    3.1550    2.5546   22.3585 H   0  0  0  0  0  0  0  0  0  0  0  0
    1.9463    3.3173   20.3291 H   0  0  0  0  0  0  0  0  0  0  0  0
    2.7125    2.6069   18.0846 H   0  0  0  0  0  0  0  0  0  0  0  0
    4.3100    1.3374   16.6684 H   0  0  0  0  0  0  0  0  0  0  0  0
    7.4123   -0.8112   18.3206 H   0  0  0  0  0  0  0  0  0  0  0  0
    8.3052   -0.4717   20.9737 C   0  0  0  0  0  0  0  0  0  0  0  0
    8.5554   -0.9840   22.3966 C   0  0  2  0  0  0  0  0  0  0  0  0
    9.9231   -1.6343   22.5439 C   0  0  0  0  0  0  0  0  0  0  0  0
   10.1353   -2.1243   23.8970 N   0  0  0  0  0  0  0  0  0  0  0  0
   11.3621   -2.5593   24.2577 C   0  0  0  0  0  0  0  0  0  0  0  0
   11.4314   -3.4023   25.3036 N   0  0  0  0  0  0  0  0  0  0  0  0
   12.6667   -3.7119   25.6546 C   0  0  0  0  0  0  0  0  0  0  0  0
   13.8045   -3.2806   25.0942 N   0  0  0  0  0  0  0  0  0  0  0  0
   13.5979   -2.5061   24.0295 C   0  0  0  0  0  0  0  0  0  0  0  0
   12.4246   -2.1123   23.5604 N   0  0  0  0  0  0  0  0  0  0  0  0
   14.4839   -2.1565   23.4944 H   0  0  0  0  0  0  0  0  0  0  0  0
   12.7828   -4.4376   26.4559 H   0  0  0  0  0  0  0  0  0  0  0  0
    9.3711   -2.5508   24.4042 H   0  0  0  0  0  0  0  0  0  0  0  0
   10.7157   -0.9040   22.3594 H   0  0  0  0  0  0  0  0  0  0  0  0
   10.0612   -2.4398   21.8040 H   0  0  0  0  0  0  0  0  0  0  0  0
    8.5538   -0.1157   23.0565 H   0  0  0  0  0  0  0  0  0  0  0  0
    8.7172    0.5297   20.8105 H   0  0  0  0  0  0  0  0  0  0  0  0
    8.7455   -1.1535   20.2301 H   0  0  0  0  0  0  0  0  0  0  0  0
    7.3712    0.4559   24.3738 H   0  0  0  0  0  0  0  0  0  0  0  0
    5.8933   -1.3209   27.9718 H   0  0  0  0  0  0  0  0  0  0  0  0
    5.5279   -3.4841   26.7275 H   0  0  0  0  0  0  0  0  0  0  0  0
  1  2  2  0
  2  3  1  0
  3  4  2  0
  4  5  1  0
  5  6  2  0
  6  7  1  0
  6  8  1  0
  8  9  2  0
  9 10  1  0
 10 11  1  6
 11 12  1  0
 12 13  1  0
 13 14  1  0
 14 15  2  0
 15 16  1  0
 16 17  2  0
 17 18  1  0
 17 19  1  0
 13 20  1  0
 13 21  1  0
 11 22  1  0
 11 23  1  0
 10 24  1  0
 24 25  2  0
 24 26  1  0
 26 27  1  0
 27 28  2  0
 28 29  1  0
 29 30  2  0
 30 31  1  0
 31 32  2  0
 32 33  1  0
 33 34  2  0
 34 35  1  0
 35 36  2  0
 35 37  1  0
 34 38  1  0
 33 39  1  0
 32 40  1  0
 30 41  1  0
 28 42  1  0
 26 43  1  0
 43 44  1  0
 44 45  1  0
 45 46  1  0
 46 47  1  0
 47 48  2  0
 48 49  1  0
 49 50  2  0
 50 51  1  0
 51 52  2  0
 51 53  1  0
 49 54  1  0
 46 55  1  0
 45 56  1  0
 45 57  1  0
 44 58  1  1
 43 59  1  0
 43 60  1  0
  8 61  1  0
  5 62  1  0
  4 63  1  0
 12  2  1  0
 18 14  1  0
 36 27  1  0
 52 47  1  0
  9  3  1  0
 44 10  1  0
 36 31  1  0
M  END
>  <cnnaffinities>  (1) 
[7.46259]

>  <score>  (1) 
7.46259

>  <index>  (1) 
0

>  <Smiles>  (1) 
O=C1c2c(c(c(Cl)c(c2[C@@]2(C(N1C(c1nnc(o1)[H])([H])[H])([H])[H])C(=O)N(c1c(nc(c3c(c(c(c(c13)[H])[H])[H])[H])[H])[H])C([C@@]2(C(N(c1nc(nc(n1)[H])[H])[H])([H])[H])[H])([H])[H])[H])[H])[H]

>  <h>  (1) 
<NA>

>  <Training>  (1) 
True

>  <Success>  (1) 
True

>  <enamine_searched>  (1) 
False

>  <enamine_id>  (1) 
nan

$$$$

     RDKit          3D

 51 54  0  0  0  0  0  0  0  0999 V2000
   12.7534   -0.3768   24.3368 C   0  0  0  0  0  0  0  0  0  0  0  0
   12.2748   -1.6637   23.9883 O   0  0  0  0  0  0  0  0  0  0  0  0
   10.9998   -1.8171   23.5008 C   0  0  0  0  0  0  0  0  0  0  0  0
   10.8170   -2.8208   22.5461 C   0  0  0  0  0  0  0  0  0  0  0  0
    9.5430   -3.1073   22.0755 C   0  0  0  0  0  0  0  0  0  0  0  0
    8.4361   -2.4013   22.5410 C   0  0  0  0  0  0  0  0  0  0  0  0
    7.1294   -2.7163   22.0494 N   0  0  0  0  0  0  0  0  0  0  0  0
    6.5461   -4.0104   22.4290 C   0  0  0  0  0  0  0  0  0  0  0  0
    5.9789   -4.0115   23.8395 C   0  0  0  0  0  0  0  0  0  0  0  0
    6.8194   -4.2074   24.9353 C   0  0  0  0  0  0  0  0  0  0  0  0
    6.3158   -4.1400   26.2286 C   0  0  0  0  0  0  0  0  0  0  0  0
    4.9661   -3.8903   26.4479 C   0  0  0  0  0  0  0  0  0  0  0  0
    4.1322   -3.7024   25.3530 C   0  0  0  0  0  0  0  0  0  0  0  0
    2.4408   -3.3710   25.6139 Cl  0  0  0  0  0  0  0  0  0  0  0  0
    4.6220   -3.7599   24.0540 C   0  0  0  0  0  0  0  0  0  0  0  0
    3.9496   -3.5919   23.2172 H   0  0  0  0  0  0  0  0  0  0  0  0
    4.5646   -3.8292   27.4550 H   0  0  0  0  0  0  0  0  0  0  0  0
    6.9830   -4.2832   27.0763 H   0  0  0  0  0  0  0  0  0  0  0  0
    7.8802   -4.4028   24.7739 H   0  0  0  0  0  0  0  0  0  0  0  0
    5.7637   -4.2408   21.7026 H   0  0  0  0  0  0  0  0  0  0  0  0
    7.3283   -4.7746   22.3421 H   0  0  0  0  0  0  0  0  0  0  0  0
    6.2865   -1.7863   21.4696 C   0  0  0  0  0  0  0  0  0  0  0  0
    5.0881   -1.9829   21.3706 O   0  0  0  0  0  0  0  0  0  0  0  0
    6.9280   -0.5142   20.8848 C   0  0  0  0  0  0  0  0  0  0  0  0
    6.1172    0.0807   19.7613 C   0  0  0  0  0  0  0  0  0  0  0  0
    6.4291   -0.2160   18.4620 C   0  0  0  0  0  0  0  0  0  0  0  0
    5.7641    0.2361   17.3627 N   0  0  0  0  0  0  0  0  0  0  0  0
    4.7403    1.0250   17.5776 C   0  0  0  0  0  0  0  0  0  0  0  0
    4.2912    1.4146   18.8660 C   0  0  0  0  0  0  0  0  0  0  0  0
    3.1711    2.2699   19.0407 C   0  0  0  0  0  0  0  0  0  0  0  0
    2.7554    2.6203   20.2964 C   0  0  0  0  0  0  0  0  0  0  0  0
    3.4414    2.1313   21.4290 C   0  0  0  0  0  0  0  0  0  0  0  0
    4.5265    1.3018   21.2873 C   0  0  0  0  0  0  0  0  0  0  0  0
    4.9896    0.9250   19.9972 C   0  0  0  0  0  0  0  0  0  0  0  0
    5.0274    0.9152   22.1695 H   0  0  0  0  0  0  0  0  0  0  0  0
    3.1003    2.4143   22.4223 H   0  0  0  0  0  0  0  0  0  0  0  0
    1.8974    3.2750   20.4288 H   0  0  0  0  0  0  0  0  0  0  0  0
    2.6599    2.6417   18.1565 H   0  0  0  0  0  0  0  0  0  0  0  0
    4.2030    1.3969   16.7012 H   0  0  0  0  0  0  0  0  0  0  0  0
    7.2755   -0.8677   18.2403 H   0  0  0  0  0  0  0  0  0  0  0  0
    7.0675    0.2126   21.6960 H   0  0  0  0  0  0  0  0  0  0  0  0
    7.9335   -0.7774   20.5396 H   0  0  0  0  0  0  0  0  0  0  0  0
    8.6203   -1.4161   23.5125 C   0  0  0  0  0  0  0  0  0  0  0  0
    9.8963   -1.1275   23.9869 C   0  0  0  0  0  0  0  0  0  0  0  0
   10.0415   -0.3691   24.7490 H   0  0  0  0  0  0  0  0  0  0  0  0
    7.7657   -0.8766   23.9129 H   0  0  0  0  0  0  0  0  0  0  0  0
    9.3760   -3.8657   21.3183 H   0  0  0  0  0  0  0  0  0  0  0  0
   11.7002   -3.3450   22.1949 H   0  0  0  0  0  0  0  0  0  0  0  0
   12.0633    0.1962   24.9725 H   0  0  0  0  0  0  0  0  0  0  0  0
   13.6912   -0.5265   24.8872 H   0  0  0  0  0  0  0  0  0  0  0  0
   12.9823    0.2026   23.4424 H   0  0  0  0  0  0  0  0  0  0  0  0
  1  2  1  0
  2  3  1  0
  3  4  2  0
  4  5  1  0
  5  6  2  0
  6  7  1  0
  7  8  1  0
  8  9  1  0
  9 10  2  0
 10 11  1  0
 11 12  2  0
 12 13  1  0
 13 14  1  0
 13 15  2  0
 15 16  1  0
 12 17  1  0
 11 18  1  0
 10 19  1  0
  8 20  1  0
  8 21  1  0
  7 22  1  0
 22 23  2  0
 22 24  1  0
 24 25  1  0
 25 26  2  0
 26 27  1  0
 27 28  2  0
 28 29  1  0
 29 30  2  0
 30 31  1  0
 31 32  2  0
 32 33  1  0
 33 34  2  0
 33 35  1  0
 32 36  1  0
 31 37  1  0
 30 38  1  0
 28 39  1  0
 26 40  1  0
 24 41  1  0
 24 42  1  0
  6 43  1  0
 43 44  2  0
 44 45  1  0
 43 46  1  0
  5 47  1  0
  4 48  1  0
  1 49  1  0
  1 50  1  0
  1 51  1  0
 44  3  1  0
 15  9  1  0
 34 25  1  0
 34 29  1  0
M  END
>  <cnnaffinities>  (2) 
[6.13047]

>  <score>  (2) 
6.13047

>  <index>  (2) 
1

>  <Smiles>  (2) 
C(Oc1c(c(c(N(C(c2c(c(c(c(Cl)c2[H])[H])[H])[H])([H])[H])C(=O)C(c2c(nc(c3c(c(c(c(c23)[H])[H])[H])[H])[H])[H])([H])[H])c(c1[H])[H])[H])[H])([H])([H])[H]

>  <h>  (2) 
<NA>

>  <Training>  (2) 
True

>  <Success>  (2) 
True

>  <enamine_searched>  (2) 
False

>  <enamine_id>  (2) 
nan

$$$$

     RDKit          3D

 56 60  0  0  0  0  0  0  0  0999 V2000
   13.7809   -0.0367   23.9397 C   0  0  0  0  0  0  0  0  0  0  0  0
   13.0809   -1.2669   23.6506 N   0  0  0  0  0  0  0  0  0  0  0  0
   12.2896   -1.3455   22.5593 C   0  0  0  0  0  0  0  0  0  0  0  0
   11.8415   -0.3505   21.9997 O   0  0  0  0  0  0  0  0  0  0  0  0
   11.8741   -2.7166   22.0660 C   0  0  0  0  0  0  0  0  0  0  0  0
   10.4754   -2.9172   22.4187 N   0  0  0  0  0  0  0  0  0  0  0  0
    9.4177   -2.4833   21.5144 C   0  0  0  0  0  0  0  0  0  0  0  0
    8.1988   -1.8287   22.1976 C   0  0  2  0  0  0  0  0  0  0  0  0
    7.0943   -1.7196   21.1162 C   0  0  0  0  0  0  0  0  0  0  0  0
    6.4659   -2.6293   20.6107 O   0  0  0  0  0  0  0  0  0  0  0  0
    6.8911   -0.3907   20.8109 N   0  0  0  0  0  0  0  0  0  0  0  0
    6.0994    0.0407   19.7201 C   0  0  0  0  0  0  0  0  0  0  0  0
    6.4083   -0.3047   18.4274 C   0  0  0  0  0  0  0  0  0  0  0  0
    5.7700    0.1899   17.3330 N   0  0  0  0  0  0  0  0  0  0  0  0
    4.7827    1.0302   17.5386 C   0  0  0  0  0  0  0  0  0  0  0  0
    4.3305    1.4395   18.8278 C   0  0  0  0  0  0  0  0  0  0  0  0
    3.2260    2.3140   19.0086 C   0  0  0  0  0  0  0  0  0  0  0  0
    2.8131    2.6560   20.2674 C   0  0  0  0  0  0  0  0  0  0  0  0
    3.4842    2.1516   21.4026 C   0  0  0  0  0  0  0  0  0  0  0  0
    4.5578    1.3098   21.2533 C   0  0  0  0  0  0  0  0  0  0  0  0
    5.0074    0.9363   19.9585 C   0  0  0  0  0  0  0  0  0  0  0  0
    5.0587    0.9077   22.1267 H   0  0  0  0  0  0  0  0  0  0  0  0
    3.1445    2.4229   22.3970 H   0  0  0  0  0  0  0  0  0  0  0  0
    1.9608    3.3143   20.4030 H   0  0  0  0  0  0  0  0  0  0  0  0
    2.7210    2.6981   18.1268 H   0  0  0  0  0  0  0  0  0  0  0  0
    4.2747    1.4220   16.6574 H   0  0  0  0  0  0  0  0  0  0  0  0
    7.2164   -1.0046   18.2243 H   0  0  0  0  0  0  0  0  0  0  0  0
    7.8268    0.5039   21.4588 C   0  0  0  0  0  0  0  0  0  0  0  0
    8.2866   -0.3261   22.6571 C   0  0  2  0  0  0  0  0  0  0  0  0
    9.5838    0.1588   23.2098 N   0  0  0  0  0  4  0  0  0  0  0  0
    9.9304   -0.5146   23.9166 H   0  0  0  0  0  0  0  0  0  0  0  0
   10.3185    0.2196   22.4633 H   0  0  0  0  0  0  0  0  0  0  0  0
    9.4771    1.0934   23.6676 H   0  0  0  0  0  0  0  0  0  0  0  0
    7.5476   -0.2264   23.4512 H   0  0  0  0  0  0  0  0  0  0  0  0
    8.6833    0.7333   20.8047 H   0  0  0  0  0  0  0  0  0  0  0  0
    7.3290    1.4457   21.7186 H   0  0  0  0  0  0  0  0  0  0  0  0
    7.8223   -2.7548   23.3376 C   0  0  0  0  0  0  0  0  0  0  0  0
    6.4923   -2.8463   23.7543 C   0  0  0  0  0  0  0  0  0  0  0  0
    6.1930   -3.4653   24.9564 C   0  0  0  0  0  0  0  0  0  0  0  0
    4.5403   -3.4866   25.5164 Cl  0  0  0  0  0  0  0  0  0  0  0  0
    7.1833   -4.0374   25.7534 C   0  0  0  0  0  0  0  0  0  0  0  0
    8.4895   -4.0328   25.2969 C   0  0  0  0  0  0  0  0  0  0  0  0
    8.8046   -3.4184   24.0872 C   0  0  0  0  0  0  0  0  0  0  0  0
   10.2337   -3.4297   23.6607 C   0  0  0  0  0  0  0  0  0  0  0  0
   11.1408   -3.8309   24.3872 O   0  0  0  0  0  0  0  0  0  0  0  0
    9.2871   -4.4919   25.8717 H   0  0  0  0  0  0  0  0  0  0  0  0
    6.9134   -4.4429   26.7217 H   0  0  0  0  0  0  0  0  0  0  0  0
    5.7103   -2.4106   23.1414 H   0  0  0  0  0  0  0  0  0  0  0  0
    9.8501   -1.8236   20.7588 H   0  0  0  0  0  0  0  0  0  0  0  0
    8.9974   -3.3610   21.0220 H   0  0  0  0  0  0  0  0  0  0  0  0
   12.4932   -3.5085   22.4893 H   0  0  0  0  0  0  0  0  0  0  0  0
   11.9936   -2.7096   20.9798 H   0  0  0  0  0  0  0  0  0  0  0  0
   13.2152   -2.0702   24.2396 H   0  0  0  0  0  0  0  0  0  0  0  0
   13.1010    0.8165   23.9488 H   0  0  0  0  0  0  0  0  0  0  0  0
   14.5322    0.1598   23.1719 H   0  0  0  0  0  0  0  0  0  0  0  0
   14.2538   -0.1331   24.9140 H   0  0  0  0  0  0  0  0  0  0  0  0
  1  2  1  0
  2  3  1  0
  3  4  2  0
  3  5  1  0
  5  6  1  0
  6  7  1  0
  8  7  1  6
  8  9  1  0
  9 10  2  0
  9 11  1  0
 11 12  1  0
 12 13  2  0
 13 14  1  0
 14 15  2  0
 15 16  1  0
 16 17  2  0
 17 18  1  0
 18 19  2  0
 19 20  1  0
 20 21  2  0
 20 22  1  0
 19 23  1  0
 18 24  1  0
 17 25  1  0
 15 26  1  0
 13 27  1  0
 11 28  1  0
 28 29  1  0
 29 30  1  0
 30 31  1  0
 30 32  1  0
 30 33  1  0
 29 34  1  1
 28 35  1  0
 28 36  1  0
  8 37  1  0
 37 38  2  0
 38 39  1  0
 39 40  1  0
 39 41  2  0
 41 42  1  0
 42 43  2  0
 43 44  1  0
 44 45  2  0
 42 46  1  0
 41 47  1  0
 38 48  1  0
  7 49  1  0
  7 50  1  0
  5 51  1  0
  5 52  1  0
  2 53  1  0
  1 54  1  0
  1 55  1  0
  1 56  1  0
 44  6  1  0
 29  8  1  0
 43 37  1  0
 21 12  1  0
 21 16  1  0
M  CHG  1  30   1
M  END
>  <cnnaffinities>  (3) 
[6.55822]

>  <score>  (3) 
6.55822

>  <index>  (3) 
2

>  <Smiles>  (3) 
C(N(C(=O)C(N1C([C@@]2(C(=O)N(c3c(nc(c4c(c(c(c(c34)[H])[H])[H])[H])[H])[H])C([C@@]2([N+]([H])([H])[H])[H])([H])[H])c2c(c(Cl)c(c(c2C1=O)[H])[H])[H])([H])[H])([H])[H])[H])([H])([H])[H]

>  <h>  (3) 
<NA>

>  <Training>  (3) 
True

>  <Success>  (3) 
True

>  <enamine_searched>  (3) 
False

>  <enamine_id>  (3) 
nan

$$$$

     RDKit          3D

 41 44  0  0  0  0  0  0  0  0999 V2000
    7.3413   -0.3133   24.4621 C   0  0  0  0  0  0  0  0  0  0  0  0
    7.7772   -1.4941   23.5888 C   0  0  1  0  0  0  0  0  0  0  0  0
    8.5019   -2.5204   24.4150 C   0  0  0  0  0  0  0  0  0  0  0  0
    9.8782   -2.4818   24.7851 C   0  0  0  0  0  0  0  0  0  0  0  0
   10.2024   -3.4832   25.6448 C   0  0  0  0  0  0  0  0  0  0  0  0
    8.8493   -4.4767   26.0410 S   0  0  0  0  0  0  0  0  0  0  0  0
    7.8227   -3.5218   25.0277 C   0  0  0  0  0  0  0  0  0  0  0  0
    6.3473   -3.6566   24.8563 C   0  0  0  0  0  0  0  0  0  0  0  0
    5.9155   -3.2473   23.4413 C   0  0  0  0  0  0  0  0  0  0  0  0
    6.6444   -2.0935   22.8723 N   0  0  0  0  0  0  0  0  0  0  0  0
    6.2029   -1.6616   21.6366 C   0  0  0  0  0  0  0  0  0  0  0  0
    5.2550   -2.2069   21.0974 O   0  0  0  0  0  0  0  0  0  0  0  0
    6.9218   -0.4896   20.9168 C   0  0  0  0  0  0  0  0  0  0  0  0
    6.1151    0.0830   19.7721 C   0  0  0  0  0  0  0  0  0  0  0  0
    6.4216   -0.2153   18.4679 C   0  0  0  0  0  0  0  0  0  0  0  0
    5.7609    0.2378   17.3656 N   0  0  0  0  0  0  0  0  0  0  0  0
    4.7362    1.0298   17.5754 C   0  0  0  0  0  0  0  0  0  0  0  0
    4.2875    1.4204   18.8680 C   0  0  0  0  0  0  0  0  0  0  0  0
    3.1659    2.2738   19.0439 C   0  0  0  0  0  0  0  0  0  0  0  0
    2.7503    2.6279   20.2999 C   0  0  0  0  0  0  0  0  0  0  0  0
    3.4418    2.1428   21.4313 C   0  0  0  0  0  0  0  0  0  0  0  0
    4.5300    1.3163   21.2863 C   0  0  0  0  0  0  0  0  0  0  0  0
    4.9887    0.9333   19.9978 C   0  0  0  0  0  0  0  0  0  0  0  0
    5.0414    0.9468   22.1690 H   0  0  0  0  0  0  0  0  0  0  0  0
    3.1030    2.4221   22.4233 H   0  0  0  0  0  0  0  0  0  0  0  0
    1.8929    3.2812   20.4366 H   0  0  0  0  0  0  0  0  0  0  0  0
    2.6451    2.6459   18.1644 H   0  0  0  0  0  0  0  0  0  0  0  0
    4.1994    1.3992   16.6993 H   0  0  0  0  0  0  0  0  0  0  0  0
    7.2650   -0.8670   18.2478 H   0  0  0  0  0  0  0  0  0  0  0  0
    7.8684   -0.8778   20.5152 H   0  0  0  0  0  0  0  0  0  0  0  0
    7.1950    0.3135   21.6145 H   0  0  0  0  0  0  0  0  0  0  0  0
    4.8434   -3.0251   23.4469 H   0  0  0  0  0  0  0  0  0  0  0  0
    6.0423   -4.1041   22.7723 H   0  0  0  0  0  0  0  0  0  0  0  0
    5.8453   -3.0309   25.6083 H   0  0  0  0  0  0  0  0  0  0  0  0
    6.0198   -4.6775   25.0708 H   0  0  0  0  0  0  0  0  0  0  0  0
   11.1833   -3.6924   26.0296 H   0  0  0  0  0  0  0  0  0  0  0  0
   10.5942   -1.7384   24.4438 H   0  0  0  0  0  0  0  0  0  0  0  0
    8.4987   -1.1358   22.8453 H   0  0  0  0  0  0  0  0  0  0  0  0
    6.8213    0.4519   23.8812 H   0  0  0  0  0  0  0  0  0  0  0  0
    8.2107    0.1432   24.9453 H   0  0  0  0  0  0  0  0  0  0  0  0
    6.6697   -0.6651   25.2483 H   0  0  0  0  0  0  0  0  0  0  0  0
  1  2  1  0
  2  3  1  0
  3  4  1  0
  4  5  2  0
  5  6  1  0
  6  7  1  0
  7  8  1  0
  8  9  1  0
  9 10  1  0
 10 11  1  0
 11 12  2  0
 11 13  1  0
 13 14  1  0
 14 15  2  0
 15 16  1  0
 16 17  2  0
 17 18  1  0
 18 19  2  0
 19 20  1  0
 20 21  2  0
 21 22  1  0
 22 23  2  0
 22 24  1  0
 21 25  1  0
 20 26  1  0
 19 27  1  0
 17 28  1  0
 15 29  1  0
 13 30  1  0
 13 31  1  0
  9 32  1  0
  9 33  1  0
  8 34  1  0
  8 35  1  0
  5 36  1  0
  4 37  1  0
  2 38  1  6
  1 39  1  0
  1 40  1  0
  1 41  1  0
 10  2  1  0
 23 14  1  0
  7  3  2  0
 23 18  1  0
M  END
>  <cnnaffinities>  (4) 
[5.33487, 5.36106, 5.38383]

>  <score>  (4) 
5.33487

>  <index>  (4) 
4

>  <Smiles>  (4) 
C([C@]1(c2c(c(sc2C(C(N1C(=O)C(c1c(nc(c2c(c(c(c(c12)[H])[H])[H])[H])[H])[H])([H])[H])([H])[H])([H])[H])[H])[H])[H])([H])([H])[H]

>  <h>  (4) 
<NA>

>  <Training>  (4) 
True

>  <Success>  (4) 
True

>  <enamine_searched>  (4) 
False

>  <enamine_id>  (4) 
nan

$$$$

     RDKit          3D

 50 54  0  0  0  0  0  0  0  0999 V2000
    9.7437   -1.9720   21.8261 C   0  0  0  0  0  0  0  0  0  0  0  0
    8.6630   -0.9844   22.3185 C   0  0  1  0  0  0  0  0  0  0  0  0
    8.2137   -0.0735   21.1505 C   0  0  0  0  0  0  0  0  0  0  0  0
    6.8638   -0.4964   20.8424 N   0  0  0  0  0  0  0  0  0  0  0  0
    6.1007    0.0531   19.7746 C   0  0  0  0  0  0  0  0  0  0  0  0
    6.4399   -0.2225   18.4748 C   0  0  0  0  0  0  0  0  0  0  0  0
    5.7789    0.2449   17.3868 N   0  0  0  0  0  0  0  0  0  0  0  0
    4.7456    1.0239   17.5942 C   0  0  0  0  0  0  0  0  0  0  0  0
    4.2952    1.4175   18.8837 C   0  0  0  0  0  0  0  0  0  0  0  0
    3.1782    2.2791   19.0559 C   0  0  0  0  0  0  0  0  0  0  0  0
    2.7812    2.6577   20.3070 C   0  0  0  0  0  0  0  0  0  0  0  0
    3.4915    2.2015   21.4428 C   0  0  0  0  0  0  0  0  0  0  0  0
    4.5741    1.3715   21.3057 C   0  0  0  0  0  0  0  0  0  0  0  0
    4.9940    0.9349   20.0162 C   0  0  0  0  0  0  0  0  0  0  0  0
    5.1073    1.0205   22.1903 H   0  0  0  0  0  0  0  0  0  0  0  0
    3.1665    2.5060   22.4351 H   0  0  0  0  0  0  0  0  0  0  0  0
    1.9258    3.3201   20.4400 H   0  0  0  0  0  0  0  0  0  0  0  0
    2.6590    2.6400   18.1706 H   0  0  0  0  0  0  0  0  0  0  0  0
    4.2155    1.3851   16.7127 H   0  0  0  0  0  0  0  0  0  0  0  0
    7.2876   -0.8731   18.2582 H   0  0  0  0  0  0  0  0  0  0  0  0
    6.3247   -1.3727   21.7557 C   0  0  0  0  0  0  0  0  0  0  0  0
    5.2071   -1.8373   21.6756 O   0  0  0  0  0  0  0  0  0  0  0  0
    7.3516   -1.6200   22.8843 C   0  0  1  0  0  0  0  0  0  0  0  0
    7.4845   -3.1303   23.1743 C   0  0  0  0  0  0  0  0  0  0  0  0
    6.2899   -3.6749   23.7887 N   0  0  0  0  0  0  0  0  0  0  0  0
    5.7559   -4.9597   23.3662 C   0  0  0  0  0  0  0  0  0  0  0  0
    4.4382   -4.8361   22.7143 C   0  0  0  0  0  0  0  0  0  0  0  0
    3.3990   -4.7473   22.2179 N   0  0  0  0  0  0  0  0  0  0  0  0
    6.4497   -5.4270   22.6603 H   0  0  0  0  0  0  0  0  0  0  0  0
    5.6535   -5.6353   24.2217 H   0  0  0  0  0  0  0  0  0  0  0  0
    5.7133   -3.0746   24.8757 C   0  0  0  0  0  0  0  0  0  0  0  0
    4.9222   -3.6804   25.5849 O   0  0  0  0  0  0  0  0  0  0  0  0
    6.0826   -1.6338   25.0887 C   0  0  0  0  0  0  0  0  0  0  0  0
    5.5812   -0.9887   26.2194 C   0  0  0  0  0  0  0  0  0  0  0  0
    5.8009    0.3563   26.4316 C   0  0  0  0  0  0  0  0  0  0  0  0
    6.5198    1.0491   25.4675 C   0  0  0  0  0  0  0  0  0  0  0  0
    6.7212    2.3664   25.6495 F   0  0  0  0  0  0  0  0  0  0  0  0
    7.0327    0.4430   24.3370 C   0  0  0  0  0  0  0  0  0  0  0  0
    6.8514   -0.9344   24.1492 C   0  0  0  0  0  0  0  0  0  0  0  0
    7.5591    1.0713   23.6234 H   0  0  0  0  0  0  0  0  0  0  0  0
    5.4263    0.8893   27.2999 H   0  0  0  0  0  0  0  0  0  0  0  0
    4.9987   -1.5633   26.9267 H   0  0  0  0  0  0  0  0  0  0  0  0
    8.3602   -3.2987   23.8212 H   0  0  0  0  0  0  0  0  0  0  0  0
    7.6349   -3.6613   22.2369 H   0  0  0  0  0  0  0  0  0  0  0  0
    8.2601    0.9964   21.4074 H   0  0  0  0  0  0  0  0  0  0  0  0
    8.8578   -0.2175   20.2824 H   0  0  0  0  0  0  0  0  0  0  0  0
    9.1450   -0.3848   23.1013 H   0  0  0  0  0  0  0  0  0  0  0  0
   10.6104   -1.4255   21.4241 H   0  0  0  0  0  0  0  0  0  0  0  0
    9.3716   -2.6251   21.0257 H   0  0  0  0  0  0  0  0  0  0  0  0
   10.1162   -2.6110   22.6347 H   0  0  0  0  0  0  0  0  0  0  0  0
  1  2  1  0
  2  3  1  0
  3  4  1  0
  4  5  1  0
  5  6  2  0
  6  7  1  0
  7  8  2  0
  8  9  1  0
  9 10  2  0
 10 11  1  0
 11 12  2  0
 12 13  1  0
 13 14  2  0
 13 15  1  0
 12 16  1  0
 11 17  1  0
 10 18  1  0
  8 19  1  0
  6 20  1  0
  4 21  1  0
 21 22  2  0
 21 23  1  0
 23 24  1  1
 24 25  1  0
 25 26  1  0
 26 27  1  0
 27 28  3  0
 26 29  1  0
 26 30  1  0
 25 31  1  0
 31 32  2  0
 31 33  1  0
 33 34  2  0
 34 35  1  0
 35 36  2  0
 36 37  1  0
 36 38  1  0
 38 39  2  0
 38 40  1  0
 35 41  1  0
 34 42  1  0
 24 43  1  0
 24 44  1  0
  3 45  1  0
  3 46  1  0
  2 47  1  1
  1 48  1  0
  1 49  1  0
  1 50  1  0
 23  2  1  0
 39 33  1  0
 14  5  1  0
 39 23  1  0
 14  9  1  0
M  END
>  <cnnaffinities>  (5) 
[6.04327, 6.19109]

>  <score>  (5) 
6.04327

>  <index>  (5) 
5

>  <Smiles>  (5) 
C([C@]1(C(N(c2c(nc(c3c(c(c(c(c23)[H])[H])[H])[H])[H])[H])C(=O)[C@]21C(N(C(C#N)([H])[H])C(=O)c1c(c(c(F)c(c21)[H])[H])[H])([H])[H])([H])[H])[H])([H])([H])[H]

>  <h>  (5) 
<NA>

>  <Training>  (5) 
True

>  <Success>  (5) 
True

>  <enamine_searched>  (5) 
False

>  <enamine_id>  (5) 
nan

$$$$

     RDKit          3D

 65 69  0  0  0  0  0  0  0  0999 V2000
    9.6021   -7.1483   24.9358 C   0  0  0  0  0  0  0  0  0  0  0  0
    8.6397   -6.0318   25.3260 C   0  0  0  0  0  0  0  0  0  0  0  0
    8.7874   -4.7913   24.4484 C   0  0  0  0  0  0  0  0  0  0  0  0
    8.4542   -4.7199   23.2997 O   0  0  0  0  0  0  0  0  0  0  0  0
    9.3133   -3.4772   25.1384 N   0  0  1  0  0  4  0  0  0  0  0  0
   10.7849   -3.0978   24.7905 C   0  0  0  0  0  0  0  0  0  0  0  0
   10.8480   -2.4490   23.4197 C   0  0  0  0  0  0  0  0  0  0  0  0
   10.0397   -1.1497   23.3759 C   0  0  0  0  0  0  0  0  0  0  0  0
    8.6622   -1.2654   24.0131 C   0  0  0  0  0  0  0  0  0  0  0  0
    7.6518   -0.3123   23.7718 C   0  0  0  0  0  0  0  0  0  0  0  0
    7.8824    0.7545   22.8458 N   0  0  0  0  0  0  0  0  0  0  0  0
    8.2375    2.0498   23.4170 C   0  0  0  0  0  0  0  0  0  0  0  0
    7.1064    3.0525   23.3603 C   0  0  0  0  0  0  0  0  0  0  0  0
    6.2571    3.2055   24.4557 C   0  0  0  0  0  0  0  0  0  0  0  0
    5.1646    4.0628   24.3901 C   0  0  0  0  0  0  0  0  0  0  0  0
    4.9182    4.7873   23.2308 C   0  0  0  0  0  0  0  0  0  0  0  0
    5.7908    4.6440   22.1558 C   0  0  0  0  0  0  0  0  0  0  0  0
    5.5032    5.5415   20.7005 Cl  0  0  0  0  0  0  0  0  0  0  0  0
    6.8797    3.7894   22.2026 C   0  0  0  0  0  0  0  0  0  0  0  0
    7.5318    3.6847   21.3378 H   0  0  0  0  0  0  0  0  0  0  0  0
    4.0518    5.4351   23.1382 H   0  0  0  0  0  0  0  0  0  0  0  0
    4.4967    4.1527   25.2426 H   0  0  0  0  0  0  0  0  0  0  0  0
    6.4582    2.6411   25.3642 H   0  0  0  0  0  0  0  0  0  0  0  0
    9.1141    2.4309   22.8773 H   0  0  0  0  0  0  0  0  0  0  0  0
    8.4802    1.8459   24.4619 H   0  0  0  0  0  0  0  0  0  0  0  0
    7.8406    0.6466   21.4720 C   0  0  0  0  0  0  0  0  0  0  0  0
    8.4835    1.3839   20.7409 O   0  0  0  0  0  0  0  0  0  0  0  0
    6.9423   -0.4447   20.8911 C   0  0  0  0  0  0  0  0  0  0  0  0
    6.1047    0.0777   19.7557 C   0  0  0  0  0  0  0  0  0  0  0  0
    6.4307   -0.2066   18.4577 C   0  0  0  0  0  0  0  0  0  0  0  0
    5.7691    0.2474   17.3585 N   0  0  0  0  0  0  0  0  0  0  0  0
    4.7415    1.0312   17.5743 C   0  0  0  0  0  0  0  0  0  0  0  0
    4.2908    1.4241   18.8646 C   0  0  0  0  0  0  0  0  0  0  0  0
    3.1746    2.2804   19.0419 C   0  0  0  0  0  0  0  0  0  0  0  0
    2.7649    2.6391   20.2952 C   0  0  0  0  0  0  0  0  0  0  0  0
    3.4572    2.1551   21.4308 C   0  0  0  0  0  0  0  0  0  0  0  0
    4.5443    1.3306   21.2841 C   0  0  0  0  0  0  0  0  0  0  0  0
    4.9930    0.9423   19.9939 C   0  0  0  0  0  0  0  0  0  0  0  0
    5.0676    0.9734   22.1677 H   0  0  0  0  0  0  0  0  0  0  0  0
    3.1107    2.4267   22.4256 H   0  0  0  0  0  0  0  0  0  0  0  0
    1.9105    3.2995   20.4208 H   0  0  0  0  0  0  0  0  0  0  0  0
    2.6597    2.6465   18.1567 H   0  0  0  0  0  0  0  0  0  0  0  0
    4.2052    1.3962   16.6976 H   0  0  0  0  0  0  0  0  0  0  0  0
    7.2800   -0.8553   18.2425 H   0  0  0  0  0  0  0  0  0  0  0  0
    7.6093   -1.2367   20.5301 H   0  0  0  0  0  0  0  0  0  0  0  0
    6.3336   -0.8708   21.6930 H   0  0  0  0  0  0  0  0  0  0  0  0
    6.4604   -0.3210   24.4877 C   0  0  0  0  0  0  0  0  0  0  0  0
    6.1887   -1.3468   25.3886 C   0  0  0  0  0  0  0  0  0  0  0  0
    7.1444   -2.3350   25.5893 C   0  0  0  0  0  0  0  0  0  0  0  0
    8.3638   -2.2914   24.9118 C   0  0  0  0  0  0  0  0  0  0  0  0
    6.9537   -3.1691   26.2580 H   0  0  0  0  0  0  0  0  0  0  0  0
    5.2361   -1.3864   25.9111 H   0  0  0  0  0  0  0  0  0  0  0  0
    5.7427    0.4766   24.3060 H   0  0  0  0  0  0  0  0  0  0  0  0
   10.5960   -0.3558   23.8943 H   0  0  0  0  0  0  0  0  0  0  0  0
    9.9402   -0.8178   22.3390 H   0  0  0  0  0  0  0  0  0  0  0  0
   11.8936   -2.2408   23.1731 H   0  0  0  0  0  0  0  0  0  0  0  0
   10.4662   -3.1581   22.6800 H   0  0  0  0  0  0  0  0  0  0  0  0
   11.4067   -3.9950   24.8457 H   0  0  0  0  0  0  0  0  0  0  0  0
   11.1232   -2.3987   25.5567 H   0  0  0  0  0  0  0  0  0  0  0  0
    9.2802   -3.6819   26.1539 H   0  0  0  0  0  0  0  0  0  0  0  0
    8.8233   -5.7178   26.3564 H   0  0  0  0  0  0  0  0  0  0  0  0
    7.5919   -6.3234   25.2309 H   0  0  0  0  0  0  0  0  0  0  0  0
    9.4569   -7.5011   23.9118 H   0  0  0  0  0  0  0  0  0  0  0  0
   10.5930   -6.7262   25.0516 H   0  0  0  0  0  0  0  0  0  0  0  0
    9.6007   -8.0266   25.5710 H   0  0  0  0  0  0  0  0  0  0  0  0
  1  2  1  0
  2  3  1  0
  3  4  2  0
  3  5  1  0
  5  6  1  0
  6  7  1  0
  7  8  1  0
  8  9  1  0
  9 10  2  0
 10 11  1  0
 11 12  1  0
 12 13  1  0
 13 14  2  0
 14 15  1  0
 15 16  2  0
 16 17  1  0
 17 18  1  0
 17 19  2  0
 19 20  1  0
 16 21  1  0
 15 22  1  0
 14 23  1  0
 12 24  1  0
 12 25  1  0
 11 26  1  0
 26 27  2  0
 26 28  1  0
 28 29  1  0
 29 30  2  0
 30 31  1  0
 31 32  2  0
 32 33  1  0
 33 34  2  0
 34 35  1  0
 35 36  2  0
 36 37  1  0
 37 38  2  0
 37 39  1  0
 36 40  1  0
 35 41  1  0
 34 42  1  0
 32 43  1  0
 30 44  1  0
 28 45  1  0
 28 46  1  0
 10 47  1  0
 47 48  2  0
 48 49  1  0
 49 50  2  0
 49 51  1  0
 48 52  1  0
 47 53  1  0
  8 54  1  0
  8 55  1  0
  7 56  1  0
  7 57  1  0
  6 58  1  0
  6 59  1  0
  5 60  1  1
  2 61  1  0
  2 62  1  0
  1 63  1  0
  1 64  1  0
  1 65  1  0
 50  5  1  0
 50  9  1  0
 19 13  1  0
 38 29  1  0
 38 33  1  0
M  CHG  1   5   1
M  END
>  <cnnaffinities>  (6) 
[6.49305]

>  <score>  (6) 
6.49305

>  <index>  (6) 
6

>  <Smiles>  (6) 
C(C(C(=O)[N@+]1(C(C(C(c2c(N(C(c3c(c(c(c(Cl)c3[H])[H])[H])[H])([H])[H])C(=O)C(c3c(nc(c4c(c(c(c(c34)[H])[H])[H])[H])[H])[H])([H])[H])c(c(c(c12)[H])[H])[H])([H])[H])([H])[H])([H])[H])[H])([H])[H])([H])([H])[H]

>  <h>  (6) 
<NA>

>  <Training>  (6) 
True

>  <Success>  (6) 
True

>  <enamine_searched>  (6) 
False

>  <enamine_id>  (6) 
nan

$$$$

     RDKit          3D

 37 39  0  0  0  0  0  0  0  0999 V2000
    8.6816    1.2092   20.6537 O   0  0  0  0  0  0  0  0  0  0  0  0
    7.8835    0.6884   21.4022 C   0  0  0  0  0  0  0  0  0  0  0  0
    6.9597   -0.4381   20.9077 C   0  0  0  0  0  0  0  0  0  0  0  0
    6.1071    0.0785   19.7651 C   0  0  0  0  0  0  0  0  0  0  0  0
    6.4272   -0.2094   18.4640 C   0  0  0  0  0  0  0  0  0  0  0  0
    5.7634    0.2445   17.3653 N   0  0  0  0  0  0  0  0  0  0  0  0
    4.7349    1.0288   17.5777 C   0  0  0  0  0  0  0  0  0  0  0  0
    4.2886    1.4218   18.8669 C   0  0  0  0  0  0  0  0  0  0  0  0
    3.1753    2.2819   19.0450 C   0  0  0  0  0  0  0  0  0  0  0  0
    2.7698    2.6534   20.2980 C   0  0  0  0  0  0  0  0  0  0  0  0
    3.4682    2.1757   21.4304 C   0  0  0  0  0  0  0  0  0  0  0  0
    4.5476    1.3388   21.2849 C   0  0  0  0  0  0  0  0  0  0  0  0
    4.9930    0.9401   19.9973 C   0  0  0  0  0  0  0  0  0  0  0  0
    5.0615    0.9748   22.1676 H   0  0  0  0  0  0  0  0  0  0  0  0
    3.1377    2.4690   22.4230 H   0  0  0  0  0  0  0  0  0  0  0  0
    1.9182    3.3169   20.4311 H   0  0  0  0  0  0  0  0  0  0  0  0
    2.6575    2.6505   18.1627 H   0  0  0  0  0  0  0  0  0  0  0  0
    4.2015    1.3962   16.6984 H   0  0  0  0  0  0  0  0  0  0  0  0
    7.2734   -0.8568   18.2385 H   0  0  0  0  0  0  0  0  0  0  0  0
    6.3365   -0.8285   21.7232 H   0  0  0  0  0  0  0  0  0  0  0  0
    7.5898   -1.2535   20.5334 H   0  0  0  0  0  0  0  0  0  0  0  0
    7.6649    1.1403   22.7080 N   0  0  0  0  0  0  0  0  0  0  0  0
    7.8913    2.5545   22.9774 C   0  0  0  0  0  0  0  0  0  0  0  0
    6.9280    3.0405   24.0562 C   0  0  0  0  0  0  0  0  0  0  0  0
    7.0129    2.1794   25.3111 C   0  0  0  0  0  0  0  0  0  0  0  0
    6.8028    0.7104   24.9631 C   0  0  0  0  0  0  0  0  0  0  0  0
    7.7687    0.2670   23.8732 C   0  0  0  0  0  0  0  0  0  0  0  0
    8.7917    0.2632   24.2885 H   0  0  0  0  0  0  0  0  0  0  0  0
    7.5647   -0.7534   23.5552 H   0  0  0  0  0  0  0  0  0  0  0  0
    5.7798    0.5591   24.6041 H   0  0  0  0  0  0  0  0  0  0  0  0
    6.9225    0.0817   25.8513 H   0  0  0  0  0  0  0  0  0  0  0  0
    7.9960    2.3095   25.7793 H   0  0  0  0  0  0  0  0  0  0  0  0
    6.2786    2.5062   26.0562 H   0  0  0  0  0  0  0  0  0  0  0  0
    5.9082    3.0077   23.6537 H   0  0  0  0  0  0  0  0  0  0  0  0
    7.1285    4.0887   24.2946 H   0  0  0  0  0  0  0  0  0  0  0  0
    7.7373    3.0922   22.0435 H   0  0  0  0  0  0  0  0  0  0  0  0
    8.9280    2.7643   23.2659 H   0  0  0  0  0  0  0  0  0  0  0  0
  1  2  2  0
  2  3  1  0
  3  4  1  0
  4  5  2  0
  5  6  1  0
  6  7  2  0
  7  8  1  0
  8  9  2  0
  9 10  1  0
 10 11  2  0
 11 12  1  0
 12 13  2  0
 12 14  1  0
 11 15  1  0
 10 16  1  0
  9 17  1  0
  7 18  1  0
  5 19  1  0
  3 20  1  0
  3 21  1  0
  2 22  1  0
 22 23  1  0
 23 24  1  0
 24 25  1  0
 25 26  1  0
 26 27  1  0
 27 28  1  0
 27 29  1  0
 26 30  1  0
 26 31  1  0
 25 32  1  0
 25 33  1  0
 24 34  1  0
 24 35  1  0
 23 36  1  0
 23 37  1  0
 13  4  1  0
 27 22  1  0
 13  8  1  0
M  END
>  <cnnaffinities>  (7) 
[4.41103, 4.95556, 4.88366, 4.63568, 4.63605]

>  <score>  (7) 
4.41103

>  <index>  (7) 
7

>  <Smiles>  (7) 
O=C(C(c1c(nc(c2c(c(c(c(c12)[H])[H])[H])[H])[H])[H])([H])[H])N1C(C(C(C(C1([H])[H])([H])[H])([H])[H])([H])[H])([H])[H]

>  <h>  (7) 
<NA>

>  <Training>  (7) 
True

>  <Success>  (7) 
True

>  <enamine_searched>  (7) 
False

>  <enamine_id>  (7) 
nan

$$$$

     RDKit          3D

 54 57  0  0  0  0  0  0  0  0999 V2000
    1.9584   -5.0113   24.3408 C   0  0  0  0  0  0  0  0  0  0  0  0
    3.1335   -4.2594   24.1061 O   0  0  0  0  0  0  0  0  0  0  0  0
    3.1537   -2.9102   24.3430 C   0  0  0  0  0  0  0  0  0  0  0  0
    2.0451   -2.1980   24.8064 C   0  0  0  0  0  0  0  0  0  0  0  0
    2.1428   -0.8240   25.0253 C   0  0  0  0  0  0  0  0  0  0  0  0
    3.3307   -0.1538   24.7774 C   0  0  0  0  0  0  0  0  0  0  0  0
    4.4207   -0.8741   24.3006 C   0  0  0  0  0  0  0  0  0  0  0  0
    4.3716   -2.2429   24.0681 C   0  0  0  0  0  0  0  0  0  0  0  0
    5.5917   -3.0252   23.5534 C   0  0  2  0  0  0  0  0  0  0  0  0
    6.2436   -3.8930   24.6497 C   0  0  0  0  0  0  0  0  0  0  0  0
    7.3828   -3.2536   25.4450 C   0  0  2  0  0  0  0  0  0  0  0  0
    6.9243   -2.2275   26.4809 C   0  0  0  0  0  0  0  0  0  0  0  0
    7.7692   -1.8745   27.0842 H   0  0  0  0  0  0  0  0  0  0  0  0
    6.1835   -2.6601   27.1620 H   0  0  0  0  0  0  0  0  0  0  0  0
    6.4576   -1.3532   26.0208 H   0  0  0  0  0  0  0  0  0  0  0  0
    8.3892   -2.6923   24.4489 C   0  0  0  0  0  0  0  0  0  0  0  0
    7.7748   -1.6860   23.4846 C   0  0  0  0  0  0  0  0  0  0  0  0
    6.5767   -2.1985   22.8231 N   0  0  0  0  0  0  0  0  0  0  0  0
    6.1808   -1.7504   21.5712 C   0  0  0  0  0  0  0  0  0  0  0  0
    5.2726   -2.2982   20.9725 O   0  0  0  0  0  0  0  0  0  0  0  0
    6.8999   -0.5284   20.9187 C   0  0  0  0  0  0  0  0  0  0  0  0
    6.1103    0.0763   19.7742 C   0  0  0  0  0  0  0  0  0  0  0  0
    6.4214   -0.2161   18.4715 C   0  0  0  0  0  0  0  0  0  0  0  0
    5.7626    0.2409   17.3690 N   0  0  0  0  0  0  0  0  0  0  0  0
    4.7370    1.0295   17.5783 C   0  0  0  0  0  0  0  0  0  0  0  0
    4.2860    1.4187   18.8678 C   0  0  0  0  0  0  0  0  0  0  0  0
    3.1623    2.2657   19.0454 C   0  0  0  0  0  0  0  0  0  0  0  0
    2.7439    2.6193   20.2994 C   0  0  0  0  0  0  0  0  0  0  0  0
    3.4437    2.1383   21.4288 C   0  0  0  0  0  0  0  0  0  0  0  0
    4.5364    1.3198   21.2900 C   0  0  0  0  0  0  0  0  0  0  0  0
    4.9916    0.9341   20.0017 C   0  0  0  0  0  0  0  0  0  0  0  0
    5.0558    0.9582   22.1742 H   0  0  0  0  0  0  0  0  0  0  0  0
    3.1030    2.4258   22.4196 H   0  0  0  0  0  0  0  0  0  0  0  0
    1.8813    3.2689   20.4362 H   0  0  0  0  0  0  0  0  0  0  0  0
    2.6429    2.6364   18.1633 H   0  0  0  0  0  0  0  0  0  0  0  0
    4.2013    1.3976   16.6984 H   0  0  0  0  0  0  0  0  0  0  0  0
    7.2629   -0.8698   18.2448 H   0  0  0  0  0  0  0  0  0  0  0  0
    7.1421    0.2432   21.6649 H   0  0  0  0  0  0  0  0  0  0  0  0
    7.8635   -0.8791   20.5184 H   0  0  0  0  0  0  0  0  0  0  0  0
    8.5140   -1.4503   22.7140 H   0  0  0  0  0  0  0  0  0  0  0  0
    7.5818   -0.7418   24.0173 H   0  0  0  0  0  0  0  0  0  0  0  0
    8.8225   -3.5158   23.8739 H   0  0  0  0  0  0  0  0  0  0  0  0
    9.2187   -2.2168   24.9815 H   0  0  0  0  0  0  0  0  0  0  0  0
    7.8776   -4.0616   26.0064 H   0  0  0  0  0  0  0  0  0  0  0  0
    6.6308   -4.8031   24.1755 H   0  0  0  0  0  0  0  0  0  0  0  0
    5.4633   -4.2279   25.3368 H   0  0  0  0  0  0  0  0  0  0  0  0
    5.1888   -3.7193   22.8130 H   0  0  0  0  0  0  0  0  0  0  0  0
    5.3500   -0.3456   24.1246 H   0  0  0  0  0  0  0  0  0  0  0  0
    3.4110    0.9218   24.9280 H   0  0  0  0  0  0  0  0  0  0  0  0
    1.2752   -0.2713   25.3702 H   0  0  0  0  0  0  0  0  0  0  0  0
    1.0981   -2.6981   24.9994 H   0  0  0  0  0  0  0  0  0  0  0  0
    1.6329   -5.0007   25.3881 H   0  0  0  0  0  0  0  0  0  0  0  0
    2.2100   -6.0389   24.0856 H   0  0  0  0  0  0  0  0  0  0  0  0
    1.1119   -4.7118   23.7109 H   0  0  0  0  0  0  0  0  0  0  0  0
  1  2  1  0
  2  3  1  0
  3  4  2  0
  4  5  1  0
  5  6  2  0
  6  7  1  0
  7  8  2  0
  8  9  1  0
  9 10  1  0
 10 11  1  0
 11 12  1  0
 12 13  1  0
 12 14  1  0
 12 15  1  0
 11 16  1  0
 16 17  1  0
 17 18  1  0
 18 19  1  0
 19 20  2  0
 19 21  1  0
 21 22  1  0
 22 23  2  0
 23 24  1  0
 24 25  2  0
 25 26  1  0
 26 27  2  0
 27 28  1  0
 28 29  2  0
 29 30  1  0
 30 31  2  0
 30 32  1  0
 29 33  1  0
 28 34  1  0
 27 35  1  0
 25 36  1  0
 23 37  1  0
 21 38  1  0
 21 39  1  0
 17 40  1  0
 17 41  1  0
 16 42  1  0
 16 43  1  0
 11 44  1  1
 10 45  1  0
 10 46  1  0
  9 47  1  6
  7 48  1  0
  6 49  1  0
  5 50  1  0
  4 51  1  0
  1 52  1  0
  1 53  1  0
  1 54  1  0
  8  3  1  0
 18  9  1  0
 31 22  1  0
 31 26  1  0
M  END
>  <cnnaffinities>  (8) 
[5.60408]

>  <score>  (8) 
5.60408

>  <index>  (8) 
11

>  <Smiles>  (8) 
C(Oc1c(c(c(c(c1[C@@]1(C([C@](C([H])([H])[H])(C(C(N1C(=O)C(c1c(nc(c2c(c(c(c(c12)[H])[H])[H])[H])[H])[H])([H])[H])([H])[H])([H])[H])[H])([H])[H])[H])[H])[H])[H])[H])([H])([H])[H]

>  <h>  (8) 
<NA>

>  <Training>  (8) 
True

>  <Success>  (8) 
True

>  <enamine_searched>  (8) 
False

>  <enamine_id>  (8) 
nan

$$$$

     RDKit          3D

 47 50  0  0  0  0  0  0  0  0999 V2000
    5.5831   -2.4858   20.9638 O   0  0  0  0  0  0  0  0  0  0  0  0
    6.1366   -1.6233   21.6270 C   0  0  0  0  0  0  0  0  0  0  0  0
    6.9074   -0.4869   20.9187 C   0  0  0  0  0  0  0  0  0  0  0  0
    6.1151    0.0906   19.7661 C   0  0  0  0  0  0  0  0  0  0  0  0
    6.4216   -0.2146   18.4631 C   0  0  0  0  0  0  0  0  0  0  0  0
    5.7596    0.2388   17.3624 N   0  0  0  0  0  0  0  0  0  0  0  0
    4.7353    1.0304   17.5743 C   0  0  0  0  0  0  0  0  0  0  0  0
    4.2868    1.4234   18.8676 C   0  0  0  0  0  0  0  0  0  0  0  0
    3.1629    2.2736   19.0427 C   0  0  0  0  0  0  0  0  0  0  0  0
    2.7483    2.6265   20.2993 C   0  0  0  0  0  0  0  0  0  0  0  0
    3.4422    2.1445   21.4307 C   0  0  0  0  0  0  0  0  0  0  0  0
    4.5330    1.3211   21.2873 C   0  0  0  0  0  0  0  0  0  0  0  0
    4.9897    0.9410   19.9955 C   0  0  0  0  0  0  0  0  0  0  0  0
    5.0480    0.9584   22.1723 H   0  0  0  0  0  0  0  0  0  0  0  0
    3.1037    2.4262   22.4222 H   0  0  0  0  0  0  0  0  0  0  0  0
    1.8898    3.2776   20.4363 H   0  0  0  0  0  0  0  0  0  0  0  0
    2.6413    2.6439   18.1638 H   0  0  0  0  0  0  0  0  0  0  0  0
    4.1982    1.3994   16.6994 H   0  0  0  0  0  0  0  0  0  0  0  0
    7.2663   -0.8678   18.2478 H   0  0  0  0  0  0  0  0  0  0  0  0
    7.2144    0.3094   21.6073 H   0  0  0  0  0  0  0  0  0  0  0  0
    7.8303   -0.9242   20.5176 H   0  0  0  0  0  0  0  0  0  0  0  0
    6.0654   -1.6151   22.9911 N   0  0  0  0  0  0  0  0  0  0  0  0
    6.9011   -0.8567   23.9159 C   0  0  0  0  0  0  0  0  0  0  0  0
    6.6182   -1.4539   25.3067 C   0  0  2  0  0  0  0  0  0  0  0  0
    7.6574   -2.4967   25.7094 C   0  0  0  0  0  0  0  0  0  0  0  0
    8.9148   -1.9115   25.7569 F   0  0  0  0  0  0  0  0  0  0  0  0
    7.6950   -3.3152   24.9836 H   0  0  0  0  0  0  0  0  0  0  0  0
    7.4635   -2.9228   26.6999 H   0  0  0  0  0  0  0  0  0  0  0  0
    5.1947   -2.0374   25.1775 C   0  0  0  0  0  0  0  0  0  0  0  0
    4.0997   -0.9797   25.4622 C   0  0  0  0  0  0  0  0  0  0  0  0
    2.8227   -1.7522   25.8425 C   0  0  0  0  0  0  0  0  0  0  0  0
    3.2771   -3.1713   26.2313 C   0  0  0  0  0  0  0  0  0  0  0  0
    4.8109   -3.1500   26.1712 C   0  0  0  0  0  0  0  0  0  0  0  0
    5.2222   -4.1235   25.8858 H   0  0  0  0  0  0  0  0  0  0  0  0
    5.2103   -2.9197   27.1668 H   0  0  0  0  0  0  0  0  0  0  0  0
    2.8770   -3.9062   25.5262 H   0  0  0  0  0  0  0  0  0  0  0  0
    2.9231   -3.4582   27.2261 H   0  0  0  0  0  0  0  0  0  0  0  0
    2.1251   -1.7879   25.0024 H   0  0  0  0  0  0  0  0  0  0  0  0
    2.3028   -1.2531   26.6646 H   0  0  0  0  0  0  0  0  0  0  0  0
    3.9446   -0.3160   24.6059 H   0  0  0  0  0  0  0  0  0  0  0  0
    4.4121   -0.3451   26.2992 H   0  0  0  0  0  0  0  0  0  0  0  0
    5.1438   -2.4992   23.6998 C   0  0  0  0  0  0  0  0  0  0  0  0
    5.4371   -3.5509   23.5952 H   0  0  0  0  0  0  0  0  0  0  0  0
    4.1351   -2.4174   23.2874 H   0  0  0  0  0  0  0  0  0  0  0  0
    6.6550   -0.6760   26.0738 H   0  0  0  0  0  0  0  0  0  0  0  0
    6.6314    0.2060   23.9013 H   0  0  0  0  0  0  0  0  0  0  0  0
    7.9612   -0.9489   23.6691 H   0  0  0  0  0  0  0  0  0  0  0  0
  1  2  2  0
  2  3  1  0
  3  4  1  0
  4  5  2  0
  5  6  1  0
  6  7  2  0
  7  8  1  0
  8  9  2  0
  9 10  1  0
 10 11  2  0
 11 12  1  0
 12 13  2  0
 12 14  1  0
 11 15  1  0
 10 16  1  0
  9 17  1  0
  7 18  1  0
  5 19  1  0
  3 20  1  0
  3 21  1  0
  2 22  1  0
 22 23  1  0
 23 24  1  0
 24 25  1  0
 25 26  1  0
 25 27  1  0
 25 28  1  0
 24 29  1  0
 29 30  1  0
 30 31  1  0
 31 32  1  0
 32 33  1  0
 33 34  1  0
 33 35  1  0
 32 36  1  0
 32 37  1  0
 31 38  1  0
 31 39  1  0
 30 40  1  0
 30 41  1  0
 29 42  1  0
 42 43  1  0
 42 44  1  0
 24 45  1  1
 23 46  1  0
 23 47  1  0
 13  4  1  0
 42 22  1  0
 13  8  1  0
 33 29  1  0
M  END
>  <cnnaffinities>  (9) 
[5.62024, 5.61894, 5.62004, 5.58809, 5.58756, 5.58105, 5.58113, 5.56797, 5.56284, 5.5686, 5.56711, 5.48634]

>  <score>  (9) 
5.62024

>  <index>  (9) 
12

>  <Smiles>  (9) 
O=C(C(c1c(nc(c2c(c(c(c(c12)[H])[H])[H])[H])[H])[H])([H])[H])N1C([C@](C(F)([H])[H])(C2(C(C(C(C2([H])[H])([H])[H])([H])[H])([H])[H])C1([H])[H])[H])([H])[H]

>  <h>  (9) 
<NA>

>  <Training>  (9) 
True

>  <Success>  (9) 
True

>  <enamine_searched>  (9) 
False

>  <enamine_id>  (9) 
nan

$$$$

     RDKit          3D

 67 72  0  0  0  0  0  0  0  0999 V2000
    7.5554   -8.3990   23.0365 C   0  0  0  0  0  0  0  0  0  0  0  0
    6.6422   -7.3540   22.6373 N   0  0  0  0  0  0  0  0  0  0  0  0
    6.9450   -6.5211   21.6126 C   0  0  0  0  0  0  0  0  0  0  0  0
    7.8258   -6.7521   20.8041 O   0  0  0  0  0  0  0  0  0  0  0  0
    6.1487   -5.2150   21.5858 C   0  0  0  0  0  0  0  0  0  0  0  0
    6.6710   -4.2950   22.5783 N   0  0  0  0  0  0  0  0  0  0  0  0
    7.7644   -3.3919   22.2633 C   0  0  0  0  0  0  0  0  0  0  0  0
    7.4120   -1.9356   22.6441 C   0  0  2  0  0  0  0  0  0  0  0  0
    6.3095   -1.4345   21.6789 C   0  0  0  0  0  0  0  0  0  0  0  0
    5.1707   -1.8404   21.6016 O   0  0  0  0  0  0  0  0  0  0  0  0
    6.8500   -0.4670   20.8558 N   0  0  0  0  0  0  0  0  0  0  0  0
    6.1164    0.0771   19.7819 C   0  0  0  0  0  0  0  0  0  0  0  0
    6.4662   -0.2164   18.4880 C   0  0  0  0  0  0  0  0  0  0  0  0
    5.8080    0.2306   17.3918 N   0  0  0  0  0  0  0  0  0  0  0  0
    4.7711    1.0099   17.5998 C   0  0  0  0  0  0  0  0  0  0  0  0
    4.3142    1.4060   18.8895 C   0  0  0  0  0  0  0  0  0  0  0  0
    3.1975    2.2663   19.0457 C   0  0  0  0  0  0  0  0  0  0  0  0
    2.7899    2.6535   20.2937 C   0  0  0  0  0  0  0  0  0  0  0  0
    3.4846    2.2072   21.4396 C   0  0  0  0  0  0  0  0  0  0  0  0
    4.5678    1.3741   21.3154 C   0  0  0  0  0  0  0  0  0  0  0  0
    5.0021    0.9399   20.0283 C   0  0  0  0  0  0  0  0  0  0  0  0
    5.0916    1.0377   22.2049 H   0  0  0  0  0  0  0  0  0  0  0  0
    3.1554    2.5320   22.4226 H   0  0  0  0  0  0  0  0  0  0  0  0
    1.9389    3.3166   20.4087 H   0  0  0  0  0  0  0  0  0  0  0  0
    2.6891    2.6176   18.1528 H   0  0  0  0  0  0  0  0  0  0  0  0
    4.2350    1.3741   16.7246 H   0  0  0  0  0  0  0  0  0  0  0  0
    7.3123   -0.8763   18.2979 H   0  0  0  0  0  0  0  0  0  0  0  0
    8.2910   -0.3658   20.9642 C   0  0  0  0  0  0  0  0  0  0  0  0
    8.5777   -0.9412   22.3537 C   0  0  2  0  0  0  0  0  0  0  0  0
   10.0014   -1.4699   22.4378 C   0  0  0  0  0  0  0  0  0  0  0  0
   10.2221   -1.9905   23.7311 O   0  0  0  0  0  0  0  0  0  0  0  0
   11.5490   -2.4360   23.9420 C   0  0  0  0  0  0  0  0  0  0  0  0
   12.5014   -1.3285   24.3351 C   0  0  0  0  0  0  0  0  0  0  0  0
   13.3171   -0.6269   23.2971 C   0  0  0  0  0  0  0  0  0  0  0  0
   13.9657   -1.6373   24.2001 C   0  0  0  0  0  0  0  0  0  0  0  0
   14.6478   -1.2645   24.9590 H   0  0  0  0  0  0  0  0  0  0  0  0
   14.2218   -2.6078   23.7720 H   0  0  0  0  0  0  0  0  0  0  0  0
   13.1236   -0.8965   22.2647 H   0  0  0  0  0  0  0  0  0  0  0  0
   13.5565    0.4168   23.4811 H   0  0  0  0  0  0  0  0  0  0  0  0
   12.1971   -0.6830   25.1504 H   0  0  0  0  0  0  0  0  0  0  0  0
   11.4967   -3.1940   24.7386 H   0  0  0  0  0  0  0  0  0  0  0  0
   11.9565   -2.9357   23.0397 H   0  0  0  0  0  0  0  0  0  0  0  0
   10.1584   -2.2538   21.6763 H   0  0  0  0  0  0  0  0  0  0  0  0
   10.7160   -0.6596   22.2159 H   0  0  0  0  0  0  0  0  0  0  0  0
    8.4943   -0.1362   23.0832 H   0  0  0  0  0  0  0  0  0  0  0  0
    8.6069    0.6771   20.8680 H   0  0  0  0  0  0  0  0  0  0  0  0
    8.8115   -0.9536   20.1909 H   0  0  0  0  0  0  0  0  0  0  0  0
    6.9221   -1.9702   24.0807 C   0  0  0  0  0  0  0  0  0  0  0  0
    6.8791   -0.8058   24.8489 C   0  0  0  0  0  0  0  0  0  0  0  0
    6.4131   -0.8513   26.1486 C   0  0  0  0  0  0  0  0  0  0  0  0
    6.3556    0.6221   27.0618 Cl  0  0  0  0  0  0  0  0  0  0  0  0
    5.9871   -2.0359   26.7480 C   0  0  0  0  0  0  0  0  0  0  0  0
    5.9916   -3.1820   25.9843 C   0  0  0  0  0  0  0  0  0  0  0  0
    6.4167   -3.1434   24.6610 C   0  0  0  0  0  0  0  0  0  0  0  0
    6.1964   -4.3689   23.8492 C   0  0  0  0  0  0  0  0  0  0  0  0
    5.5741   -5.3413   24.2784 O   0  0  0  0  0  0  0  0  0  0  0  0
    5.6452   -4.1333   26.3684 H   0  0  0  0  0  0  0  0  0  0  0  0
    5.6431   -2.0453   27.7761 H   0  0  0  0  0  0  0  0  0  0  0  0
    7.1986    0.1464   24.4414 H   0  0  0  0  0  0  0  0  0  0  0  0
    8.6807   -3.6849   22.7935 H   0  0  0  0  0  0  0  0  0  0  0  0
    7.9606   -3.4510   21.2000 H   0  0  0  0  0  0  0  0  0  0  0  0
    5.1005   -5.3970   21.8328 H   0  0  0  0  0  0  0  0  0  0  0  0
    6.2004   -4.7304   20.6013 H   0  0  0  0  0  0  0  0  0  0  0  0
    5.9634   -7.0351   23.3152 H   0  0  0  0  0  0  0  0  0  0  0  0
    7.0582   -8.9765   23.8212 H   0  0  0  0  0  0  0  0  0  0  0  0
    8.5178   -8.0079   23.4008 H   0  0  0  0  0  0  0  0  0  0  0  0
    7.7492   -9.0645   22.1967 H   0  0  0  0  0  0  0  0  0  0  0  0
  1  2  1  0
  2  3  1  0
  3  4  2  0
  3  5  1  0
  5  6  1  0
  6  7  1  0
  8  7  1  6
  8  9  1  0
  9 10  2  0
  9 11  1  0
 11 12  1  0
 12 13  2  0
 13 14  1  0
 14 15  2  0
 15 16  1  0
 16 17  2  0
 17 18  1  0
 18 19  2  0
 19 20  1  0
 20 21  2  0
 20 22  1  0
 19 23  1  0
 18 24  1  0
 17 25  1  0
 15 26  1  0
 13 27  1  0
 11 28  1  0
 28 29  1  0
 29 30  1  0
 30 31  1  0
 31 32  1  0
 32 33  1  0
 33 34  1  0
 34 35  1  0
 35 36  1  0
 35 37  1  0
 34 38  1  0
 34 39  1  0
 33 40  1  0
 32 41  1  0
 32 42  1  0
 30 43  1  0
 30 44  1  0
 29 45  1  1
 28 46  1  0
 28 47  1  0
  8 48  1  0
 48 49  2  0
 49 50  1  0
 50 51  1  0
 50 52  2  0
 52 53  1  0
 53 54  2  0
 54 55  1  0
 55 56  2  0
 53 57  1  0
 52 58  1  0
 49 59  1  0
  7 60  1  0
  7 61  1  0
  5 62  1  0
  5 63  1  0
  2 64  1  0
  1 65  1  0
  1 66  1  0
  1 67  1  0
 55  6  1  0
 29  8  1  0
 35 33  1  0
 54 48  1  0
 21 12  1  0
 21 16  1  0
M  END
>  <cnnaffinities>  (10) 
[7.08872]

>  <score>  (10) 
7.08872

>  <index>  (10) 
13

>  <Smiles>  (10) 
C(N(C(=O)C(N1C([C@@]2(C(=O)N(c3c(nc(c4c(c(c(c(c34)[H])[H])[H])[H])[H])[H])C([C@@]2(C(OC(C2(C(C2([H])[H])([H])[H])[H])([H])[H])([H])[H])[H])([H])[H])c2c(c(Cl)c(c(c2C1=O)[H])[H])[H])([H])[H])([H])[H])[H])([H])([H])[H]

>  <h>  (10) 
<NA>

>  <Training>  (10) 
True

>  <Success>  (10) 
True

>  <enamine_searched>  (10) 
False

>  <enamine_id>  (10) 
nan

$$$$

     RDKit          3D

 72 77  0  0  0  0  0  0  0  0999 V2000
    6.7111    7.9183   21.5810 C   0  0  0  0  0  0  0  0  0  0  0  0
    5.6653    6.8323   21.3908 C   0  0  1  0  0  0  0  0  0  0  0  0
    6.2397    5.4344   21.0987 C   0  0  0  0  0  0  0  0  0  0  0  0
    6.6176    4.7223   22.3566 N   0  0  2  0  0  4  0  0  0  0  0  0
    7.2477    3.3837   22.1138 C   0  0  0  0  0  0  0  0  0  0  0  0
    7.8505    2.8195   23.4015 C   0  0  0  0  0  0  0  0  0  0  0  0
    8.5254    1.5550   23.2197 N   0  0  0  0  0  0  0  0  0  0  0  0
    7.8062    0.3088   23.3975 C   0  0  0  0  0  0  0  0  0  0  0  0
    8.1529   -0.6719   22.2489 C   0  0  2  0  0  0  0  0  0  0  0  0
    7.6648   -0.0851   20.9183 C   0  0  0  0  0  0  0  0  0  0  0  0
    8.1766    0.8115   20.2789 O   0  0  0  0  0  0  0  0  0  0  0  0
    6.5043   -0.7357   20.5495 N   0  0  0  0  0  0  0  0  0  0  0  0
    5.7619   -0.1228   19.5087 C   0  0  0  0  0  0  0  0  0  0  0  0
    6.1633   -0.2838   18.2070 C   0  0  0  0  0  0  0  0  0  0  0  0
    5.5591    0.3040   17.1447 N   0  0  0  0  0  0  0  0  0  0  0  0
    4.5669    1.1278   17.3945 C   0  0  0  0  0  0  0  0  0  0  0  0
    4.1009    1.4433   18.7051 C   0  0  0  0  0  0  0  0  0  0  0  0
    3.0652    2.3869   18.9391 C   0  0  0  0  0  0  0  0  0  0  0  0
    2.7097    2.7289   20.2159 C   0  0  0  0  0  0  0  0  0  0  0  0
    3.3611    2.1389   21.3190 C   0  0  0  0  0  0  0  0  0  0  0  0
    4.3434    1.2004   21.1198 C   0  0  0  0  0  0  0  0  0  0  0  0
    4.7310    0.8202   19.8045 C   0  0  0  0  0  0  0  0  0  0  0  0
    4.8595    0.7802   21.9739 H   0  0  0  0  0  0  0  0  0  0  0  0
    3.0798    2.4147   22.3304 H   0  0  0  0  0  0  0  0  0  0  0  0
    1.9344    3.4699   20.3899 H   0  0  0  0  0  0  0  0  0  0  0  0
    2.5850    2.8459   18.0810 H   0  0  0  0  0  0  0  0  0  0  0  0
    4.0972    1.6163   16.5394 H   0  0  0  0  0  0  0  0  0  0  0  0
    7.0278   -0.9035   17.9778 H   0  0  0  0  0  0  0  0  0  0  0  0
    6.0427   -1.6612   21.5874 C   0  0  0  0  0  0  0  0  0  0  0  0
    7.3639   -2.0032   22.2945 C   0  0  2  0  0  0  0  0  0  0  0  0
    7.2740   -2.6731   23.6579 C   0  0  0  0  0  0  0  0  0  0  0  0
    6.7931   -3.6538   23.5935 H   0  0  0  0  0  0  0  0  0  0  0  0
    8.2810   -2.8205   24.0649 H   0  0  0  0  0  0  0  0  0  0  0  0
    6.7106   -2.0681   24.3749 H   0  0  0  0  0  0  0  0  0  0  0  0
    7.8977   -2.6825   21.6251 H   0  0  0  0  0  0  0  0  0  0  0  0
    5.3472   -1.1896   22.2992 H   0  0  0  0  0  0  0  0  0  0  0  0
    5.5432   -2.5322   21.1585 H   0  0  0  0  0  0  0  0  0  0  0  0
    9.6471   -0.7995   22.2216 C   0  0  0  0  0  0  0  0  0  0  0  0
   10.2711   -1.7895   21.4742 C   0  0  0  0  0  0  0  0  0  0  0  0
   11.6488   -1.9013   21.5368 C   0  0  0  0  0  0  0  0  0  0  0  0
   12.4095   -2.8758   20.3112 Cl  0  0  0  0  0  0  0  0  0  0  0  0
   12.3767   -1.1667   22.4872 C   0  0  0  0  0  0  0  0  0  0  0  0
   11.7768   -0.0735   23.0784 C   0  0  0  0  0  0  0  0  0  0  0  0
   10.4382    0.1865   22.8046 C   0  0  0  0  0  0  0  0  0  0  0  0
    9.8452    1.5595   22.8813 C   0  0  0  0  0  0  0  0  0  0  0  0
   10.4740    2.5719   22.6011 O   0  0  0  0  0  0  0  0  0  0  0  0
   12.3443    0.6200   23.6920 H   0  0  0  0  0  0  0  0  0  0  0  0
   13.3990   -1.3965   22.7627 H   0  0  0  0  0  0  0  0  0  0  0  0
    9.7054   -2.4285   20.8100 H   0  0  0  0  0  0  0  0  0  0  0  0
    8.0864   -0.1370   24.3627 H   0  0  0  0  0  0  0  0  0  0  0  0
    6.7382    0.5477   23.4153 H   0  0  0  0  0  0  0  0  0  0  0  0
    8.5715    3.5459   23.7893 H   0  0  0  0  0  0  0  0  0  0  0  0
    7.0590    2.6702   24.1453 H   0  0  0  0  0  0  0  0  0  0  0  0
    8.0367    3.4914   21.3621 H   0  0  0  0  0  0  0  0  0  0  0  0
    6.4882    2.7084   21.7018 H   0  0  0  0  0  0  0  0  0  0  0  0
    5.4695    4.6733   23.3711 C   0  0  1  0  0  0  0  0  0  0  0  0
    5.9849    5.0969   24.7454 C   0  0  0  0  0  0  0  0  0  0  0  0
    5.1983    5.0150   25.4987 H   0  0  0  0  0  0  0  0  0  0  0  0
    6.3126    6.1377   24.6892 H   0  0  0  0  0  0  0  0  0  0  0  0
    6.8356    4.4924   25.0679 H   0  0  0  0  0  0  0  0  0  0  0  0
    4.3413    5.5881   22.9026 C   0  0  0  0  0  0  0  0  0  0  0  0
    4.8726    6.8489   22.5756 O   0  0  0  0  0  0  0  0  0  0  0  0
    3.6287    5.7489   23.7187 H   0  0  0  0  0  0  0  0  0  0  0  0
    3.7954    5.1442   22.0533 H   0  0  0  0  0  0  0  0  0  0  0  0
    5.1062    3.6426   23.3910 H   0  0  0  0  0  0  0  0  0  0  0  0
    7.3620    5.3046   22.7818 H   0  0  0  0  0  0  0  0  0  0  0  0
    7.1180    5.5156   20.4500 H   0  0  0  0  0  0  0  0  0  0  0  0
    5.5020    4.8278   20.5596 H   0  0  0  0  0  0  0  0  0  0  0  0
    5.0241    7.1022   20.5352 H   0  0  0  0  0  0  0  0  0  0  0  0
    6.2127    8.8736   21.7674 H   0  0  0  0  0  0  0  0  0  0  0  0
    7.3539    7.6928   22.4407 H   0  0  0  0  0  0  0  0  0  0  0  0
    7.3305    8.0135   20.6871 H   0  0  0  0  0  0  0  0  0  0  0  0
  1  2  1  0
  2  3  1  0
  3  4  1  0
  4  5  1  0
  5  6  1  0
  6  7  1  0
  7  8  1  0
  9  8  1  1
  9 10  1  0
 10 11  2  0
 10 12  1  0
 12 13  1  0
 13 14  2  0
 14 15  1  0
 15 16  2  0
 16 17  1  0
 17 18  2  0
 18 19  1  0
 19 20  2  0
 20 21  1  0
 21 22  2  0
 21 23  1  0
 20 24  1  0
 19 25  1  0
 18 26  1  0
 16 27  1  0
 14 28  1  0
 12 29  1  0
 29 30  1  0
 30 31  1  0
 31 32  1  0
 31 33  1  0
 31 34  1  0
 30 35  1  6
 29 36  1  0
 29 37  1  0
  9 38  1  0
 38 39  2  0
 39 40  1  0
 40 41  1  0
 40 42  2  0
 42 43  1  0
 43 44  2  0
 44 45  1  0
 45 46  2  0
 43 47  1  0
 42 48  1  0
 39 49  1  0
  8 50  1  0
  8 51  1  0
  6 52  1  0
  6 53  1  0
  5 54  1  0
  5 55  1  0
  4 56  1  0
 56 57  1  0
 57 58  1  0
 57 59  1  0
 57 60  1  0
 56 61  1  0
 61 62  1  0
 61 63  1  0
 61 64  1  0
 56 65  1  1
  4 66  1  1
  3 67  1  0
  3 68  1  0
  2 69  1  6
  1 70  1  0
  1 71  1  0
  1 72  1  0
 62  2  1  0
 45  7  1  0
 30  9  1  0
 44 38  1  0
 22 13  1  0
 22 17  1  0
M  CHG  1   4   1
M  END
>  <cnnaffinities>  (11) 
[6.33044]

>  <score>  (11) 
6.33044

>  <index>  (11) 
15

>  <Smiles>  (11) 
C([C@]1(C([N@+](C(C(N2C([C@@]3(C(=O)N(c4c(nc(c5c(c(c(c(c45)[H])[H])[H])[H])[H])[H])C([C@@]3(C([H])([H])[H])[H])([H])[H])c3c(c(Cl)c(c(c3C2=O)[H])[H])[H])([H])[H])([H])[H])([H])[H])([C@@](C([H])([H])[H])(C(O1)([H])[H])[H])[H])([H])[H])[H])([H])([H])[H]

>  <h>  (11) 
<NA>

>  <Training>  (11) 
True

>  <Success>  (11) 
True

>  <enamine_searched>  (11) 
False

>  <enamine_id>  (11) 
nan

$$$$

     RDKit          3D

 47 50  0  0  0  0  0  0  0  0999 V2000
    8.6373   -4.5029   23.9946 C   0  0  0  0  0  0  0  0  0  0  0  0
    7.3752   -3.7609   24.4118 C   0  0  1  0  0  0  0  0  0  0  0  0
    7.6864   -2.3575   24.9374 C   0  0  0  0  0  0  0  0  0  0  0  0
    7.4154   -1.3752   23.7815 C   0  0  2  0  0  0  0  0  0  0  0  0
    6.6546   -0.1516   24.2632 C   0  0  0  0  0  0  0  0  0  0  0  0
    5.3234   -0.2555   24.6718 C   0  0  0  0  0  0  0  0  0  0  0  0
    4.6286    0.8579   25.1246 C   0  0  0  0  0  0  0  0  0  0  0  0
    5.2620    2.0963   25.1905 C   0  0  0  0  0  0  0  0  0  0  0  0
    6.5985    2.2049   24.8153 C   0  0  0  0  0  0  0  0  0  0  0  0
    7.2895    1.0853   24.3616 C   0  0  0  0  0  0  0  0  0  0  0  0
    8.3358    1.1747   24.0729 H   0  0  0  0  0  0  0  0  0  0  0  0
    7.1029    3.1642   24.8549 H   0  0  0  0  0  0  0  0  0  0  0  0
    4.7167    2.9702   25.5297 H   0  0  0  0  0  0  0  0  0  0  0  0
    3.5897    0.7599   25.4274 H   0  0  0  0  0  0  0  0  0  0  0  0
    4.8202   -1.2176   24.6464 H   0  0  0  0  0  0  0  0  0  0  0  0
    6.6977   -2.1655   22.7885 N   0  0  0  0  0  0  0  0  0  0  0  0
    6.2515   -1.7382   21.5641 C   0  0  0  0  0  0  0  0  0  0  0  0
    5.3930   -2.3655   20.9571 O   0  0  0  0  0  0  0  0  0  0  0  0
    6.9129   -0.4922   20.9218 C   0  0  0  0  0  0  0  0  0  0  0  0
    6.1129    0.0833   19.7727 C   0  0  0  0  0  0  0  0  0  0  0  0
    6.4204   -0.2154   18.4698 C   0  0  0  0  0  0  0  0  0  0  0  0
    5.7594    0.2394   17.3656 N   0  0  0  0  0  0  0  0  0  0  0  0
    4.7367    1.0297   17.5771 C   0  0  0  0  0  0  0  0  0  0  0  0
    4.2860    1.4216   18.8684 C   0  0  0  0  0  0  0  0  0  0  0  0
    3.1668    2.2741   19.0454 C   0  0  0  0  0  0  0  0  0  0  0  0
    2.7526    2.6293   20.2966 C   0  0  0  0  0  0  0  0  0  0  0  0
    3.4498    2.1399   21.4290 C   0  0  0  0  0  0  0  0  0  0  0  0
    4.5348    1.3120   21.2961 C   0  0  0  0  0  0  0  0  0  0  0  0
    4.9890    0.9344   20.0040 C   0  0  0  0  0  0  0  0  0  0  0  0
    5.0476    0.9464   22.1895 H   0  0  0  0  0  0  0  0  0  0  0  0
    3.1091    2.4252   22.4173 H   0  0  0  0  0  0  0  0  0  0  0  0
    1.8960    3.2848   20.4378 H   0  0  0  0  0  0  0  0  0  0  0  0
    2.6478    2.6464   18.1625 H   0  0  0  0  0  0  0  0  0  0  0  0
    4.2008    1.3986   16.6975 H   0  0  0  0  0  0  0  0  0  0  0  0
    7.2641   -0.8663   18.2448 H   0  0  0  0  0  0  0  0  0  0  0  0
    7.1495    0.2852   21.6599 H   0  0  0  0  0  0  0  0  0  0  0  0
    7.8801   -0.8251   20.5204 H   0  0  0  0  0  0  0  0  0  0  0  0
    6.4168   -3.5234   23.2387 C   0  0  0  0  0  0  0  0  0  0  0  0
    5.3658   -3.6597   23.5264 H   0  0  0  0  0  0  0  0  0  0  0  0
    6.5958   -4.2129   22.4138 H   0  0  0  0  0  0  0  0  0  0  0  0
    8.3607   -1.0434   23.3433 H   0  0  0  0  0  0  0  0  0  0  0  0
    7.0664   -2.1229   25.8047 H   0  0  0  0  0  0  0  0  0  0  0  0
    8.7160   -2.2768   25.2909 H   0  0  0  0  0  0  0  0  0  0  0  0
    6.8876   -4.3572   25.1837 H   0  0  0  0  0  0  0  0  0  0  0  0
    9.1781   -3.9600   23.2161 H   0  0  0  0  0  0  0  0  0  0  0  0
    8.3856   -5.4933   23.6164 H   0  0  0  0  0  0  0  0  0  0  0  0
    9.3259   -4.6397   24.8333 H   0  0  0  0  0  0  0  0  0  0  0  0
  1  2  1  0
  2  3  1  0
  3  4  1  0
  4  5  1  0
  5  6  2  0
  6  7  1  0
  7  8  2  0
  8  9  1  0
  9 10  2  0
 10 11  1  0
  9 12  1  0
  8 13  1  0
  7 14  1  0
  6 15  1  0
  4 16  1  0
 16 17  1  0
 17 18  2  0
 17 19  1  0
 19 20  1  0
 20 21  2  0
 21 22  1  0
 22 23  2  0
 23 24  1  0
 24 25  2  0
 25 26  1  0
 26 27  2  0
 27 28  1  0
 28 29  2  0
 28 30  1  0
 27 31  1  0
 26 32  1  0
 25 33  1  0
 23 34  1  0
 21 35  1  0
 19 36  1  0
 19 37  1  0
 16 38  1  0
 38 39  1  0
 38 40  1  0
  4 41  1  6
  3 42  1  0
  3 43  1  0
  2 44  1  1
  1 45  1  0
  1 46  1  0
  1 47  1  0
 38  2  1  0
 10  5  1  0
 29 20  1  0
 29 24  1  0
M  END
>  <cnnaffinities>  (12) 
[5.50981, 5.55425]

>  <score>  (12) 
5.50981

>  <index>  (12) 
16

>  <Smiles>  (12) 
C([C@]1(C([C@](c2c(c(c(c(c2[H])[H])[H])[H])[H])(N(C(=O)C(c2c(nc(c3c(c(c(c(c23)[H])[H])[H])[H])[H])[H])([H])[H])C1([H])[H])[H])([H])[H])[H])([H])([H])[H]

>  <h>  (12) 
<NA>

>  <Training>  (12) 
True

>  <Success>  (12) 
True

>  <enamine_searched>  (12) 
False

>  <enamine_id>  (12) 
nan

$$$$

     RDKit          3D

 58 63  0  0  0  0  0  0  0  0999 V2000
    9.9127   -1.3063   22.0087 C   0  0  0  0  0  0  0  0  0  0  0  0
    8.6209   -0.6016   22.4472 C   0  0  1  0  0  0  0  0  0  0  0  0
    8.0840    0.2991   21.3147 C   0  0  0  0  0  0  0  0  0  0  0  0
    6.9470   -0.4266   20.7951 N   0  0  0  0  0  0  0  0  0  0  0  0
    6.1368    0.0835   19.7529 C   0  0  0  0  0  0  0  0  0  0  0  0
    6.4628   -0.2152   18.4569 C   0  0  0  0  0  0  0  0  0  0  0  0
    5.7890    0.2347   17.3704 N   0  0  0  0  0  0  0  0  0  0  0  0
    4.7590    1.0154   17.5936 C   0  0  0  0  0  0  0  0  0  0  0  0
    4.3135    1.3994   18.8916 C   0  0  0  0  0  0  0  0  0  0  0  0
    3.1976    2.2590   19.0576 C   0  0  0  0  0  0  0  0  0  0  0  0
    2.7921    2.6262   20.3099 C   0  0  0  0  0  0  0  0  0  0  0  0
    3.4792    2.1521   21.4494 C   0  0  0  0  0  0  0  0  0  0  0  0
    4.5602    1.3124   21.3227 C   0  0  0  0  0  0  0  0  0  0  0  0
    5.0085    0.9212   20.0214 C   0  0  0  0  0  0  0  0  0  0  0  0
    5.0680    0.9508   22.2177 H   0  0  0  0  0  0  0  0  0  0  0  0
    3.1438    2.4614   22.4350 H   0  0  0  0  0  0  0  0  0  0  0  0
    1.9441    3.2933   20.4343 H   0  0  0  0  0  0  0  0  0  0  0  0
    2.6935    2.6243   18.1684 H   0  0  0  0  0  0  0  0  0  0  0  0
    4.2176    1.3928   16.7259 H   0  0  0  0  0  0  0  0  0  0  0  0
    7.3116   -0.8685   18.2654 H   0  0  0  0  0  0  0  0  0  0  0  0
    6.4997   -1.4503   21.5962 C   0  0  0  0  0  0  0  0  0  0  0  0
    5.5332   -2.1385   21.3469 O   0  0  0  0  0  0  0  0  0  0  0  0
    7.4304   -1.5438   22.8256 C   0  0  1  0  0  0  0  0  0  0  0  0
    7.8518   -3.0128   23.0208 C   0  0  0  0  0  0  0  0  0  0  0  0
    6.7297   -3.8138   23.4597 N   0  0  0  0  0  0  0  0  0  0  0  0
    6.5343   -5.1279   22.9259 C   0  0  0  0  0  0  0  0  0  0  0  0
    7.2903   -6.1522   23.7067 C   0  0  0  0  0  0  0  0  0  0  0  0
    8.4837   -6.0119   24.2182 N   0  0  0  0  0  0  0  0  0  0  0  0
    8.9477   -7.2813   24.4903 N   0  0  0  0  0  0  0  0  0  0  0  0
    7.9880   -8.1156   24.1960 C   0  0  0  0  0  0  0  0  0  0  0  0
    6.8705   -7.4473   23.7749 N   0  0  0  0  0  0  0  0  0  0  0  0
    5.4563   -7.7898   23.8640 C   0  0  0  0  0  0  0  0  0  0  0  0
    5.0071   -7.7587   22.8711 H   0  0  0  0  0  0  0  0  0  0  0  0
    5.3487   -8.7734   24.3212 H   0  0  0  0  0  0  0  0  0  0  0  0
    4.9399   -7.0453   24.4866 H   0  0  0  0  0  0  0  0  0  0  0  0
    8.0880   -9.1873   24.1875 H   0  0  0  0  0  0  0  0  0  0  0  0
    6.8631   -5.1405   21.8810 H   0  0  0  0  0  0  0  0  0  0  0  0
    5.4634   -5.3384   22.8915 H   0  0  0  0  0  0  0  0  0  0  0  0
    5.9808   -3.4774   24.5443 C   0  0  0  0  0  0  0  0  0  0  0  0
    5.2832   -4.2950   25.1370 O   0  0  0  0  0  0  0  0  0  0  0  0
    6.0339   -2.0390   24.9120 C   0  0  0  0  0  0  0  0  0  0  0  0
    5.3550   -1.6561   26.0629 C   0  0  0  0  0  0  0  0  0  0  0  0
    5.2641   -0.3329   26.4224 C   0  0  0  0  0  0  0  0  0  0  0  0
    5.8745    0.5941   25.5861 C   0  0  0  0  0  0  0  0  0  0  0  0
    5.7766    1.8925   25.9151 F   0  0  0  0  0  0  0  0  0  0  0  0
    6.5722    0.2390   24.4439 C   0  0  0  0  0  0  0  0  0  0  0  0
    6.6842   -1.1081   24.0891 C   0  0  0  0  0  0  0  0  0  0  0  0
    7.0336    1.0258   23.8566 H   0  0  0  0  0  0  0  0  0  0  0  0
    4.7272   -0.0141   27.3085 H   0  0  0  0  0  0  0  0  0  0  0  0
    4.8986   -2.4417   26.6527 H   0  0  0  0  0  0  0  0  0  0  0  0
    8.6743   -3.0786   23.7480 H   0  0  0  0  0  0  0  0  0  0  0  0
    8.2129   -3.4318   22.0828 H   0  0  0  0  0  0  0  0  0  0  0  0
    7.7947    1.2947   21.6807 H   0  0  0  0  0  0  0  0  0  0  0  0
    8.8193    0.4641   20.5221 H   0  0  0  0  0  0  0  0  0  0  0  0
    8.8854   -0.0027   23.3250 H   0  0  0  0  0  0  0  0  0  0  0  0
   10.3221   -1.9268   22.8110 H   0  0  0  0  0  0  0  0  0  0  0  0
   10.6755   -0.5632   21.7540 H   0  0  0  0  0  0  0  0  0  0  0  0
    9.7570   -1.9380   21.1272 H   0  0  0  0  0  0  0  0  0  0  0  0
  1  2  1  0
  2  3  1  0
  3  4  1  0
  4  5  1  0
  5  6  2  0
  6  7  1  0
  7  8  2  0
  8  9  1  0
  9 10  2  0
 10 11  1  0
 11 12  2  0
 12 13  1  0
 13 14  2  0
 13 15  1  0
 12 16  1  0
 11 17  1  0
 10 18  1  0
  8 19  1  0
  6 20  1  0
  4 21  1  0
 21 22  2  0
 21 23  1  0
 23 24  1  1
 24 25  1  0
 25 26  1  0
 26 27  1  0
 27 28  2  0
 28 29  1  0
 29 30  2  0
 30 31  1  0
 31 32  1  0
 32 33  1  0
 32 34  1  0
 32 35  1  0
 30 36  1  0
 26 37  1  0
 26 38  1  0
 25 39  1  0
 39 40  2  0
 39 41  1  0
 41 42  2  0
 42 43  1  0
 43 44  2  0
 44 45  1  0
 44 46  1  0
 46 47  2  0
 46 48  1  0
 43 49  1  0
 42 50  1  0
 24 51  1  0
 24 52  1  0
  3 53  1  0
  3 54  1  0
  2 55  1  1
  1 56  1  0
  1 57  1  0
  1 58  1  0
 23  2  1  0
 31 27  1  0
 47 41  1  0
 14  5  1  0
 47 23  1  0
 14  9  1  0
M  END
>  <cnnaffinities>  (13) 
[6.44861]

>  <score>  (13) 
6.44861

>  <index>  (13) 
17

>  <Smiles>  (13) 
C([C@]1(C(N(c2c(nc(c3c(c(c(c(c23)[H])[H])[H])[H])[H])[H])C(=O)[C@]21C(N(C(c1nnc(n1C([H])([H])[H])[H])([H])[H])C(=O)c1c(c(c(F)c(c21)[H])[H])[H])([H])[H])([H])[H])[H])([H])([H])[H]

>  <h>  (13) 
<NA>

>  <Training>  (13) 
True

>  <Success>  (13) 
True

>  <enamine_searched>  (13) 
False

>  <enamine_id>  (13) 
nan

$$$$

     RDKit          3D

 50 53  0  0  0  0  0  0  0  0999 V2000
    6.0165   -1.0392   29.7335 C   0  0  0  0  0  0  0  0  0  0  0  0
    6.3574   -0.7189   28.2855 C   0  0  1  0  0  0  0  0  0  0  0  0
    7.4405   -1.6499   27.7418 C   0  0  0  0  0  0  0  0  0  0  0  0
    7.7903   -1.3208   26.2907 C   0  0  0  0  0  0  0  0  0  0  0  0
    6.5754   -1.3675   25.3449 C   0  0  2  0  0  0  0  0  0  0  0  0
    6.0808   -2.8101   25.1057 C   0  0  0  0  0  0  0  0  0  0  0  0
    5.5583   -2.8599   23.6677 C   0  0  0  0  0  0  0  0  0  0  0  0
    6.2190   -1.7444   22.9886 N   0  0  0  0  0  0  0  0  0  0  0  0
    6.1671   -1.6422   21.6261 C   0  0  0  0  0  0  0  0  0  0  0  0
    5.5433   -2.4535   20.9591 O   0  0  0  0  0  0  0  0  0  0  0  0
    6.9117   -0.4839   20.9195 C   0  0  0  0  0  0  0  0  0  0  0  0
    6.1144    0.0892   19.7678 C   0  0  0  0  0  0  0  0  0  0  0  0
    6.4214   -0.2143   18.4643 C   0  0  0  0  0  0  0  0  0  0  0  0
    5.7596    0.2386   17.3634 N   0  0  0  0  0  0  0  0  0  0  0  0
    4.7353    1.0304   17.5747 C   0  0  0  0  0  0  0  0  0  0  0  0
    4.2867    1.4234   18.8676 C   0  0  0  0  0  0  0  0  0  0  0  0
    3.1645    2.2750   19.0427 C   0  0  0  0  0  0  0  0  0  0  0  0
    2.7510    2.6285   20.2993 C   0  0  0  0  0  0  0  0  0  0  0  0
    3.4442    2.1440   21.4308 C   0  0  0  0  0  0  0  0  0  0  0  0
    4.5326    1.3180   21.2887 C   0  0  0  0  0  0  0  0  0  0  0  0
    4.9891    0.9395   19.9965 C   0  0  0  0  0  0  0  0  0  0  0  0
    5.0463    0.9538   22.1740 H   0  0  0  0  0  0  0  0  0  0  0  0
    3.1062    2.4267   22.4223 H   0  0  0  0  0  0  0  0  0  0  0  0
    1.8936    3.2817   20.4366 H   0  0  0  0  0  0  0  0  0  0  0  0
    2.6429    2.6460   18.1637 H   0  0  0  0  0  0  0  0  0  0  0  0
    4.1984    1.3995   16.6994 H   0  0  0  0  0  0  0  0  0  0  0  0
    7.2664   -0.8670   18.2481 H   0  0  0  0  0  0  0  0  0  0  0  0
    7.2128    0.3136   21.6089 H   0  0  0  0  0  0  0  0  0  0  0  0
    7.8423   -0.9046   20.5150 H   0  0  0  0  0  0  0  0  0  0  0  0
    6.9607   -0.9048   23.9183 C   0  0  0  0  0  0  0  0  0  0  0  0
    8.0402   -1.0076   23.7522 H   0  0  0  0  0  0  0  0  0  0  0  0
    6.7120    0.1516   23.7757 H   0  0  0  0  0  0  0  0  0  0  0  0
    4.4697   -2.7500   23.6303 H   0  0  0  0  0  0  0  0  0  0  0  0
    5.8061   -3.8071   23.1856 H   0  0  0  0  0  0  0  0  0  0  0  0
    5.3129   -3.1140   25.8228 H   0  0  0  0  0  0  0  0  0  0  0  0
    6.9082   -3.5155   25.2376 H   0  0  0  0  0  0  0  0  0  0  0  0
    5.4489   -0.4782   25.9218 C   0  0  0  0  0  0  0  0  0  0  0  0
    5.1187   -0.7580   27.3903 C   0  0  0  0  0  0  0  0  0  0  0  0
    4.3806   -0.0284   27.7489 H   0  0  0  0  0  0  0  0  0  0  0  0
    4.6339   -1.7374   27.4879 H   0  0  0  0  0  0  0  0  0  0  0  0
    4.5480   -0.5799   25.3053 H   0  0  0  0  0  0  0  0  0  0  0  0
    5.7567    0.5724   25.8415 H   0  0  0  0  0  0  0  0  0  0  0  0
    8.5678   -2.0062   25.9302 H   0  0  0  0  0  0  0  0  0  0  0  0
    8.2350   -0.3171   26.2540 H   0  0  0  0  0  0  0  0  0  0  0  0
    8.3362   -1.5873   28.3725 H   0  0  0  0  0  0  0  0  0  0  0  0
    7.0968   -2.6898   27.8123 H   0  0  0  0  0  0  0  0  0  0  0  0
    6.7571    0.3023   28.2470 H   0  0  0  0  0  0  0  0  0  0  0  0
    5.2603   -0.3537   30.1272 H   0  0  0  0  0  0  0  0  0  0  0  0
    5.6194   -2.0557   29.8168 H   0  0  0  0  0  0  0  0  0  0  0  0
    6.9012   -0.9774   30.3745 H   0  0  0  0  0  0  0  0  0  0  0  0
  1  2  1  0
  2  3  1  0
  3  4  1  0
  5  4  1  1
  5  6  1  0
  6  7  1  0
  7  8  1  0
  8  9  1  0
  9 10  2  0
  9 11  1  0
 11 12  1  0
 12 13  2  0
 13 14  1  0
 14 15  2  0
 15 16  1  0
 16 17  2  0
 17 18  1  0
 18 19  2  0
 19 20  1  0
 20 21  2  0
 20 22  1  0
 19 23  1  0
 18 24  1  0
 17 25  1  0
 15 26  1  0
 13 27  1  0
 11 28  1  0
 11 29  1  0
  8 30  1  0
 30 31  1  0
 30 32  1  0
  7 33  1  0
  7 34  1  0
  6 35  1  0
  6 36  1  0
  5 37  1  0
 37 38  1  0
 38 39  1  0
 38 40  1  0
 37 41  1  0
 37 42  1  0
  4 43  1  0
  4 44  1  0
  3 45  1  0
  3 46  1  0
  2 47  1  1
  1 48  1  0
  1 49  1  0
  1 50  1  0
 38  2  1  0
 30  5  1  0
 21 12  1  0
 21 16  1  0
M  END
>  <cnnaffinities>  (14) 
[5.56445, 5.37414]

>  <score>  (14) 
5.56445

>  <index>  (14) 
18

>  <Smiles>  (14) 
C([C@]1(C(C([C@@]2(C(C(N(C(=O)C(c3c(nc(c4c(c(c(c(c34)[H])[H])[H])[H])[H])[H])([H])[H])C2([H])[H])([H])[H])([H])[H])C(C1([H])[H])([H])[H])([H])[H])([H])[H])[H])([H])([H])[H]

>  <h>  (14) 
<NA>

>  <Training>  (14) 
True

>  <Success>  (14) 
True

>  <enamine_searched>  (14) 
False

>  <enamine_id>  (14) 
nan

$$$$

     RDKit          3D

 67 71  0  0  0  0  0  0  0  0999 V2000
    6.2470   -7.5420   23.5411 O   0  0  0  0  0  0  0  0  0  0  0  0
    5.9393   -6.4527   23.0901 C   0  0  0  0  0  0  0  0  0  0  0  0
    7.0149   -5.3939   22.8484 C   0  0  0  0  0  0  0  0  0  0  0  0
    6.6749   -4.0080   23.2262 N   0  0  1  0  0  4  0  0  0  0  0  0
    6.3586   -3.8852   24.6882 C   0  0  0  0  0  0  0  0  0  0  0  0
    6.0852   -2.4537   25.0938 C   0  0  0  0  0  0  0  0  0  0  0  0
    5.4285   -2.1672   26.2932 C   0  0  0  0  0  0  0  0  0  0  0  0
    5.1976   -0.8537   26.6847 C   0  0  0  0  0  0  0  0  0  0  0  0
    5.6379    0.1822   25.8649 C   0  0  0  0  0  0  0  0  0  0  0  0
    5.3296    1.8341   26.3309 Cl  0  0  0  0  0  0  0  0  0  0  0  0
    6.3131   -0.0821   24.6821 C   0  0  0  0  0  0  0  0  0  0  0  0
    6.5535   -1.4060   24.3041 C   0  0  0  0  0  0  0  0  0  0  0  0
    7.2715   -1.6806   23.0074 C   0  0  2  0  0  0  0  0  0  0  0  0
    6.3208   -1.5325   21.8252 C   0  0  0  0  0  0  0  0  0  0  0  0
    5.3394   -2.2529   21.6742 O   0  0  0  0  0  0  0  0  0  0  0  0
    6.7235   -0.5610   20.9495 N   0  0  0  0  0  0  0  0  0  0  0  0
    6.0079   -0.0313   19.8521 C   0  0  0  0  0  0  0  0  0  0  0  0
    6.4248   -0.3052   18.5764 C   0  0  0  0  0  0  0  0  0  0  0  0
    5.8184    0.1588   17.4552 N   0  0  0  0  0  0  0  0  0  0  0  0
    4.7828    0.9462   17.6179 C   0  0  0  0  0  0  0  0  0  0  0  0
    4.2850    1.3592   18.8856 C   0  0  0  0  0  0  0  0  0  0  0  0
    3.1978    2.2608   19.0187 C   0  0  0  0  0  0  0  0  0  0  0  0
    2.7951    2.6901   20.2539 C   0  0  0  0  0  0  0  0  0  0  0  0
    3.4683    2.2486   21.4188 C   0  0  0  0  0  0  0  0  0  0  0  0
    4.5124    1.3644   21.3198 C   0  0  0  0  0  0  0  0  0  0  0  0
    4.9295    0.8803   20.0487 C   0  0  0  0  0  0  0  0  0  0  0  0
    5.0388    1.0482   22.2160 H   0  0  0  0  0  0  0  0  0  0  0  0
    3.1563    2.6172   22.3907 H   0  0  0  0  0  0  0  0  0  0  0  0
    1.9639    3.3810   20.3510 H   0  0  0  0  0  0  0  0  0  0  0  0
    2.7055    2.6100   18.1149 H   0  0  0  0  0  0  0  0  0  0  0  0
    4.2960    1.3167   16.7143 H   0  0  0  0  0  0  0  0  0  0  0  0
    7.2958   -0.9418   18.4195 H   0  0  0  0  0  0  0  0  0  0  0  0
    7.6965   -0.2957   20.9997 H   0  0  0  0  0  0  0  0  0  0  0  0
    7.8206   -3.0936   22.9194 C   0  0  0  0  0  0  0  0  0  0  0  0
    8.6365   -3.2646   23.6276 H   0  0  0  0  0  0  0  0  0  0  0  0
    8.1960   -3.2873   21.9119 H   0  0  0  0  0  0  0  0  0  0  0  0
    8.0654   -0.9472   22.8742 H   0  0  0  0  0  0  0  0  0  0  0  0
    6.6658    0.7416   24.0617 H   0  0  0  0  0  0  0  0  0  0  0  0
    4.6942   -0.6221   27.6200 H   0  0  0  0  0  0  0  0  0  0  0  0
    5.1021   -2.9776   26.9437 H   0  0  0  0  0  0  0  0  0  0  0  0
    7.2186   -4.2727   25.2562 H   0  0  0  0  0  0  0  0  0  0  0  0
    5.4998   -4.5158   24.9374 H   0  0  0  0  0  0  0  0  0  0  0  0
    5.8872   -3.6088   22.6677 H   0  0  0  0  0  0  0  0  0  0  0  0
    7.8908   -5.7304   23.4148 H   0  0  0  0  0  0  0  0  0  0  0  0
    7.3114   -5.3927   21.7921 H   0  0  0  0  0  0  0  0  0  0  0  0
    4.6610   -6.1372   22.7194 N   0  0  0  0  0  0  0  0  0  0  0  0
    3.5490   -6.9524   23.1711 C   0  0  0  0  0  0  0  0  0  0  0  0
    2.4864   -7.1274   22.0883 C   0  0  0  0  0  0  0  0  0  0  0  0
    1.2741   -7.8959   22.5564 C   0  0  0  0  0  0  0  0  0  0  0  0
    0.2896   -7.2730   23.3251 C   0  0  0  0  0  0  0  0  0  0  0  0
   -0.8298   -7.9777   23.7589 C   0  0  0  0  0  0  0  0  0  0  0  0
   -0.9818   -9.3200   23.4243 C   0  0  0  0  0  0  0  0  0  0  0  0
   -2.2059  -10.0906   23.7984 C   0  0  0  0  0  0  0  0  0  0  0  0
   -2.9043  -10.4345   22.6740 F   0  0  0  0  0  0  0  0  0  0  0  0
   -1.8384  -11.2570   24.4057 F   0  0  0  0  0  0  0  0  0  0  0  0
   -2.8775   -9.5391   24.4676 H   0  0  0  0  0  0  0  0  0  0  0  0
    0.0087   -9.9585   22.6832 C   0  0  0  0  0  0  0  0  0  0  0  0
    1.1202   -9.2474   22.2464 C   0  0  0  0  0  0  0  0  0  0  0  0
    1.8798   -9.7441   21.6474 H   0  0  0  0  0  0  0  0  0  0  0  0
   -0.1202  -11.0067   22.4241 H   0  0  0  0  0  0  0  0  0  0  0  0
   -1.5781   -7.4755   24.3715 H   0  0  0  0  0  0  0  0  0  0  0  0
    0.4166   -6.2229   23.5814 H   0  0  0  0  0  0  0  0  0  0  0  0
    2.1752   -6.1324   21.7396 H   0  0  0  0  0  0  0  0  0  0  0  0
    2.9369   -7.6495   21.2384 H   0  0  0  0  0  0  0  0  0  0  0  0
    3.0970   -6.5202   24.0737 H   0  0  0  0  0  0  0  0  0  0  0  0
    3.9611   -7.9163   23.4747 H   0  0  0  0  0  0  0  0  0  0  0  0
    4.4816   -5.1890   22.4009 H   0  0  0  0  0  0  0  0  0  0  0  0
  1  2  2  0
  2  3  1  0
  3  4  1  0
  4  5  1  0
  5  6  1  0
  6  7  2  0
  7  8  1  0
  8  9  2  0
  9 10  1  0
  9 11  1  0
 11 12  2  0
 12 13  1  0
 13 14  1  0
 14 15  2  0
 14 16  1  0
 16 17  1  0
 17 18  2  0
 18 19  1  0
 19 20  2  0
 20 21  1  0
 21 22  2  0
 22 23  1  0
 23 24  2  0
 24 25  1  0
 25 26  2  0
 25 27  1  0
 24 28  1  0
 23 29  1  0
 22 30  1  0
 20 31  1  0
 18 32  1  0
 16 33  1  0
 13 34  1  0
 34 35  1  0
 34 36  1  0
 13 37  1  6
 11 38  1  0
  8 39  1  0
  7 40  1  0
  5 41  1  0
  5 42  1  0
  4 43  1  6
  3 44  1  0
  3 45  1  0
  2 46  1  0
 46 47  1  0
 47 48  1  0
 48 49  1  0
 49 50  2  0
 50 51  1  0
 51 52  2  0
 52 53  1  0
 53 54  1  0
 53 55  1  0
 53 56  1  0
 52 57  1  0
 57 58  2  0
 58 59  1  0
 57 60  1  0
 51 61  1  0
 50 62  1  0
 48 63  1  0
 48 64  1  0
 47 65  1  0
 47 66  1  0
 46 67  1  0
 34  4  1  0
 58 49  1  0
 12  6  1  0
 26 17  1  0
 26 21  1  0
M  CHG  1   4   1
M  END
>  <cnnaffinities>  (15) 
[6.25141, 5.91037]

>  <score>  (15) 
6.25141

>  <index>  (15) 
19

>  <Smiles>  (15) 
O=C(C([N@+]1(C(c2c(c(c(Cl)c(c2[C@](C(=O)N(c2c(nc(c3c(c(c(c(c23)[H])[H])[H])[H])[H])[H])[H])(C1([H])[H])[H])[H])[H])[H])([H])[H])[H])([H])[H])N(C(C(c1c(c(c(C(F)(F)[H])c(c1[H])[H])[H])[H])([H])[H])([H])[H])[H]

>  <h>  (15) 
<NA>

>  <Training>  (15) 
True

>  <Success>  (15) 
True

>  <enamine_searched>  (15) 
False

>  <enamine_id>  (15) 
nan

$$$$

     RDKit          3D

 66 70  0  0  0  0  0  0  0  0999 V2000
    6.6931    5.2068   27.9490 C   0  0  0  0  0  0  0  0  0  0  0  0
    6.5600    3.9844   27.0421 C   0  0  0  0  0  0  0  0  0  0  0  0
    7.0719    4.2301   25.6421 C   0  0  0  0  0  0  0  0  0  0  0  0
    8.2456    4.3312   25.3822 O   0  0  0  0  0  0  0  0  0  0  0  0
    6.1250    4.3589   24.6290 N   0  0  0  0  0  0  0  0  0  0  0  0
    5.1631    5.4587   24.7969 C   0  0  0  0  0  0  0  0  0  0  0  0
    4.2355    5.5788   23.6010 C   0  0  0  0  0  0  0  0  0  0  0  0
    5.0758    5.7283   22.3384 C   0  0  0  0  0  0  0  0  0  0  0  0
    6.0658    4.5868   22.2422 C   0  0  0  0  0  0  0  0  0  0  0  0
    6.4741    4.1356   21.0059 C   0  0  0  0  0  0  0  0  0  0  0  0
    7.3046    3.0242   20.8494 C   0  0  0  0  0  0  0  0  0  0  0  0
    7.7880    2.3623   21.9695 C   0  0  0  0  0  0  0  0  0  0  0  0
    8.6637    1.2337   21.8041 N   0  0  0  0  0  0  0  0  0  0  0  0
    8.4058    0.0793   21.0277 C   0  0  0  0  0  0  0  0  0  0  0  0
    9.3201   -0.5884   20.5914 O   0  0  0  0  0  0  0  0  0  0  0  0
    6.9578   -0.4192   20.8978 C   0  0  0  0  0  0  0  0  0  0  0  0
    6.1347    0.1472   19.7684 C   0  0  0  0  0  0  0  0  0  0  0  0
    6.4446   -0.1794   18.4714 C   0  0  0  0  0  0  0  0  0  0  0  0
    5.7712    0.2441   17.3765 N   0  0  0  0  0  0  0  0  0  0  0  0
    4.7393    1.0343   17.5740 C   0  0  0  0  0  0  0  0  0  0  0  0
    4.2803    1.4311   18.8615 C   0  0  0  0  0  0  0  0  0  0  0  0
    3.1645    2.2902   19.0301 C   0  0  0  0  0  0  0  0  0  0  0  0
    2.7478    2.6521   20.2844 C   0  0  0  0  0  0  0  0  0  0  0  0
    3.4263    2.1640   21.4181 C   0  0  0  0  0  0  0  0  0  0  0  0
    4.5123    1.3332   21.2817 C   0  0  0  0  0  0  0  0  0  0  0  0
    4.9838    0.9630   19.9955 C   0  0  0  0  0  0  0  0  0  0  0  0
    5.0454    0.9946   22.1623 H   0  0  0  0  0  0  0  0  0  0  0  0
    3.0871    2.4512   22.4119 H   0  0  0  0  0  0  0  0  0  0  0  0
    1.8969    3.3186   20.4077 H   0  0  0  0  0  0  0  0  0  0  0  0
    2.6598    2.6616   18.1427 H   0  0  0  0  0  0  0  0  0  0  0  0
    4.2083    1.3957   16.6912 H   0  0  0  0  0  0  0  0  0  0  0  0
    7.2790   -0.8497   18.2703 H   0  0  0  0  0  0  0  0  0  0  0  0
    6.4287   -0.3206   21.8484 H   0  0  0  0  0  0  0  0  0  0  0  0
    7.1062   -1.4931   20.7261 H   0  0  0  0  0  0  0  0  0  0  0  0
    9.8785    1.2514   22.4660 N   0  0  0  0  0  0  0  0  0  0  0  0
   10.7777    2.3579   22.2276 C   0  0  0  0  0  0  0  0  0  0  0  0
   10.1956    3.2288   21.9089 H   0  0  0  0  0  0  0  0  0  0  0  0
   11.5400    2.1402   21.4723 H   0  0  0  0  0  0  0  0  0  0  0  0
   11.2963    2.5881   23.1613 H   0  0  0  0  0  0  0  0  0  0  0  0
   10.2475    0.1461   23.2318 C   0  0  0  0  0  0  0  0  0  0  0  0
    9.2693   -0.6102   23.8914 C   0  0  0  0  0  0  0  0  0  0  0  0
    9.6371   -1.7269   24.6290 C   0  0  0  0  0  0  0  0  0  0  0  0
   10.9691   -2.1244   24.7120 C   0  0  0  0  0  0  0  0  0  0  0  0
   11.9303   -1.3562   24.0738 C   0  0  0  0  0  0  0  0  0  0  0  0
   13.6145   -1.7841   24.2087 Cl  0  0  0  0  0  0  0  0  0  0  0  0
   11.5903   -0.2210   23.3506 C   0  0  0  0  0  0  0  0  0  0  0  0
   12.3804    0.3616   22.8991 H   0  0  0  0  0  0  0  0  0  0  0  0
   11.2696   -2.9825   25.3065 H   0  0  0  0  0  0  0  0  0  0  0  0
    8.8742   -2.2939   25.1533 H   0  0  0  0  0  0  0  0  0  0  0  0
    8.2265   -0.3141   23.8167 H   0  0  0  0  0  0  0  0  0  0  0  0
    7.4562    2.8368   23.2311 C   0  0  0  0  0  0  0  0  0  0  0  0
    6.5690    3.9258   23.3625 C   0  0  0  0  0  0  0  0  0  0  0  0
    7.8918    2.3309   24.0847 H   0  0  0  0  0  0  0  0  0  0  0  0
    7.5234    2.6052   19.8769 H   0  0  0  0  0  0  0  0  0  0  0  0
    6.0180    4.6728   20.1737 H   0  0  0  0  0  0  0  0  0  0  0  0
    5.6082    6.6932   22.3227 H   0  0  0  0  0  0  0  0  0  0  0  0
    4.4419    5.7230   21.4397 H   0  0  0  0  0  0  0  0  0  0  0  0
    3.5487    6.4262   23.7251 H   0  0  0  0  0  0  0  0  0  0  0  0
    3.6297    4.6683   23.5251 H   0  0  0  0  0  0  0  0  0  0  0  0
    4.6048    5.2660   25.7179 H   0  0  0  0  0  0  0  0  0  0  0  0
    5.6943    6.4195   24.9213 H   0  0  0  0  0  0  0  0  0  0  0  0
    7.1689    3.1589   27.4287 H   0  0  0  0  0  0  0  0  0  0  0  0
    5.5264    3.6282   26.9928 H   0  0  0  0  0  0  0  0  0  0  0  0
    6.1293    6.0661   27.5691 H   0  0  0  0  0  0  0  0  0  0  0  0
    7.7413    5.5006   28.0460 H   0  0  0  0  0  0  0  0  0  0  0  0
    6.3162    4.9700   28.9480 H   0  0  0  0  0  0  0  0  0  0  0  0
  1  2  1  0
  2  3  1  0
  3  4  2  0
  3  5  1  0
  5  6  1  0
  6  7  1  0
  7  8  1  0
  8  9  1  0
  9 10  2  0
 10 11  1  0
 11 12  2  0
 12 13  1  0
 13 14  1  0
 14 15  2  0
 14 16  1  0
 16 17  1  0
 17 18  2  0
 18 19  1  0
 19 20  2  0
 20 21  1  0
 21 22  2  0
 22 23  1  0
 23 24  2  0
 24 25  1  0
 25 26  2  0
 25 27  1  0
 24 28  1  0
 23 29  1  0
 22 30  1  0
 20 31  1  0
 18 32  1  0
 16 33  1  0
 16 34  1  0
 13 35  1  0
 35 36  1  0
 36 37  1  0
 36 38  1  0
 36 39  1  0
 35 40  1  0
 40 41  2  0
 41 42  1  0
 42 43  2  0
 43 44  1  0
 44 45  1  0
 44 46  2  0
 46 47  1  0
 43 48  1  0
 42 49  1  0
 41 50  1  0
 12 51  1  0
 51 52  2  0
 51 53  1  0
 11 54  1  0
 10 55  1  0
  8 56  1  0
  8 57  1  0
  7 58  1  0
  7 59  1  0
  6 60  1  0
  6 61  1  0
  2 62  1  0
  2 63  1  0
  1 64  1  0
  1 65  1  0
  1 66  1  0
 52  5  1  0
 52  9  1  0
 26 17  1  0
 46 40  1  0
 26 21  1  0
M  END
>  <cnnaffinities>  (16) 
[6.68512]

>  <score>  (16) 
6.68512

>  <index>  (16) 
20

>  <Smiles>  (16) 
C(C(C(=O)N1C(C(C(c2c(c(c(N(C(=O)C(c3c(nc(c4c(c(c(c(c34)[H])[H])[H])[H])[H])[H])([H])[H])N(C([H])([H])[H])c3c(c(c(c(Cl)c3[H])[H])[H])[H])c(c12)[H])[H])[H])([H])[H])([H])[H])([H])[H])([H])[H])([H])([H])[H]

>  <h>  (16) 
<NA>

>  <Training>  (16) 
True

>  <Success>  (16) 
True

>  <enamine_searched>  (16) 
False

>  <enamine_id>  (16) 
nan

$$$$

     RDKit          3D

 41 44  0  0  0  0  0  0  0  0999 V2000
    5.0823   -2.0756   21.2473 O   0  0  0  0  0  0  0  0  0  0  0  0
    6.2713   -1.8583   21.4451 C   0  0  0  0  0  0  0  0  0  0  0  0
    6.9205   -0.5774   20.9013 C   0  0  0  0  0  0  0  0  0  0  0  0
    6.1184    0.0395   19.7801 C   0  0  0  0  0  0  0  0  0  0  0  0
    6.4422   -0.2410   18.4776 C   0  0  0  0  0  0  0  0  0  0  0  0
    5.7889    0.2199   17.3771 N   0  0  0  0  0  0  0  0  0  0  0  0
    4.7619    1.0068   17.5882 C   0  0  0  0  0  0  0  0  0  0  0  0
    4.3048    1.3877   18.8775 C   0  0  0  0  0  0  0  0  0  0  0  0
    3.1932    2.2533   19.0437 C   0  0  0  0  0  0  0  0  0  0  0  0
    2.7739    2.6110   20.2958 C   0  0  0  0  0  0  0  0  0  0  0  0
    3.4533    2.1195   21.4321 C   0  0  0  0  0  0  0  0  0  0  0  0
    4.5293    1.2752   21.2969 C   0  0  0  0  0  0  0  0  0  0  0  0
    4.9915    0.8880   20.0102 C   0  0  0  0  0  0  0  0  0  0  0  0
    5.0287    0.8943   22.1817 H   0  0  0  0  0  0  0  0  0  0  0  0
    3.1157    2.4136   22.4220 H   0  0  0  0  0  0  0  0  0  0  0  0
    1.9207    3.2727   20.4245 H   0  0  0  0  0  0  0  0  0  0  0  0
    2.6906    2.6321   18.1569 H   0  0  0  0  0  0  0  0  0  0  0  0
    4.2284    1.3852   16.7144 H   0  0  0  0  0  0  0  0  0  0  0  0
    7.2953   -0.8828   18.2579 H   0  0  0  0  0  0  0  0  0  0  0  0
    7.0436    0.1282   21.7347 H   0  0  0  0  0  0  0  0  0  0  0  0
    7.9306   -0.8174   20.5418 H   0  0  0  0  0  0  0  0  0  0  0  0
    7.0521   -2.7562   22.1356 N   0  0  0  0  0  0  0  0  0  0  0  0
    8.4072   -2.4926   22.6236 C   0  0  0  0  0  0  0  0  0  0  0  0
    8.7102   -3.2287   23.9324 C   0  0  0  0  0  0  0  0  0  0  0  0
    8.2910   -4.6782   23.9216 C   0  0  0  0  0  0  0  0  0  0  0  0
    8.9377   -5.6633   24.6737 C   0  0  0  0  0  0  0  0  0  0  0  0
   10.1303   -5.2250   25.8642 Cl  0  0  0  0  0  0  0  0  0  0  0  0
    8.6848   -7.0143   24.4747 C   0  0  0  0  0  0  0  0  0  0  0  0
    7.7057   -7.4033   23.5644 C   0  0  0  0  0  0  0  0  0  0  0  0
    6.9882   -6.4303   22.8828 C   0  0  0  0  0  0  0  0  0  0  0  0
    7.2395   -5.0739   23.0902 C   0  0  0  0  0  0  0  0  0  0  0  0
    6.3963   -4.0362   22.3864 C   0  0  0  0  0  0  0  0  0  0  0  0
    6.0496   -4.4552   21.4358 H   0  0  0  0  0  0  0  0  0  0  0  0
    5.4643   -3.8077   22.9174 H   0  0  0  0  0  0  0  0  0  0  0  0
    6.2101   -6.7468   22.1951 H   0  0  0  0  0  0  0  0  0  0  0  0
    7.5326   -8.4623   23.3840 H   0  0  0  0  0  0  0  0  0  0  0  0
    9.2979   -7.7363   25.0028 H   0  0  0  0  0  0  0  0  0  0  0  0
    9.7832   -3.1764   24.1373 H   0  0  0  0  0  0  0  0  0  0  0  0
    8.2223   -2.6896   24.7477 H   0  0  0  0  0  0  0  0  0  0  0  0
    8.4993   -1.4163   22.8082 H   0  0  0  0  0  0  0  0  0  0  0  0
    9.1588   -2.7551   21.8668 H   0  0  0  0  0  0  0  0  0  0  0  0
  1  2  2  0
  2  3  1  0
  3  4  1  0
  4  5  2  0
  5  6  1  0
  6  7  2  0
  7  8  1  0
  8  9  2  0
  9 10  1  0
 10 11  2  0
 11 12  1  0
 12 13  2  0
 12 14  1  0
 11 15  1  0
 10 16  1  0
  9 17  1  0
  7 18  1  0
  5 19  1  0
  3 20  1  0
  3 21  1  0
  2 22  1  0
 22 23  1  0
 23 24  1  0
 24 25  1  0
 25 26  2  0
 26 27  1  0
 26 28  1  0
 28 29  2  0
 29 30  1  0
 30 31  2  0
 31 32  1  0
 32 33  1  0
 32 34  1  0
 30 35  1  0
 29 36  1  0
 28 37  1  0
 24 38  1  0
 24 39  1  0
 23 40  1  0
 23 41  1  0
 13  4  1  0
 32 22  1  0
 13  8  1  0
 31 25  1  0
M  END
>  <cnnaffinities>  (17) 
[5.69936]

>  <score>  (17) 
5.69936

>  <index>  (17) 
22

>  <Smiles>  (17) 
O=C(C(c1c(nc(c2c(c(c(c(c12)[H])[H])[H])[H])[H])[H])([H])[H])N1C(C(c2c(Cl)c(c(c(c2C1([H])[H])[H])[H])[H])([H])[H])([H])[H]

>  <h>  (17) 
<NA>

>  <Training>  (17) 
True

>  <Success>  (17) 
True

>  <enamine_searched>  (17) 
False

>  <enamine_id>  (17) 
nan

$$$$

     RDKit          3D

 69 74  0  0  0  0  0  0  0  0999 V2000
    1.7867   -8.6902   24.3791 C   0  0  0  0  0  0  0  0  0  0  0  0
    2.2160   -7.9326   23.1386 C   0  0  1  0  0  0  0  0  0  0  0  0
    3.1477   -6.7779   23.5351 C   0  0  0  0  0  0  0  0  0  0  0  0
    3.7320   -6.1165   22.3248 N   0  0  1  0  0  4  0  0  0  0  0  0
    4.5159   -4.8686   22.5837 C   0  0  0  0  0  0  0  0  0  0  0  0
    5.7961   -5.0187   23.4162 C   0  0  0  0  0  0  0  0  0  0  0  0
    6.2964   -3.7028   23.8026 N   0  0  0  0  0  0  0  0  0  0  0  0
    7.4736   -3.1311   23.1726 C   0  0  0  0  0  0  0  0  0  0  0  0
    7.3256   -1.6185   22.8696 C   0  0  2  0  0  0  0  0  0  0  0  0
    6.3325   -1.4051   21.7106 C   0  0  0  0  0  0  0  0  0  0  0  0
    5.2371   -1.9201   21.5833 O   0  0  0  0  0  0  0  0  0  0  0  0
    6.8692   -0.5057   20.8271 N   0  0  0  0  0  0  0  0  0  0  0  0
    6.1107    0.0514   19.7699 C   0  0  0  0  0  0  0  0  0  0  0  0
    6.4609   -0.2192   18.4720 C   0  0  0  0  0  0  0  0  0  0  0  0
    5.7991    0.2411   17.3824 N   0  0  0  0  0  0  0  0  0  0  0  0
    4.7631    1.0170   17.5983 C   0  0  0  0  0  0  0  0  0  0  0  0
    4.3105    1.4023   18.8924 C   0  0  0  0  0  0  0  0  0  0  0  0
    3.1977    2.2682   19.0560 C   0  0  0  0  0  0  0  0  0  0  0  0
    2.7990    2.6532   20.3053 C   0  0  0  0  0  0  0  0  0  0  0  0
    3.4984    2.1959   21.4462 C   0  0  0  0  0  0  0  0  0  0  0  0
    4.5753    1.3537   21.3202 C   0  0  0  0  0  0  0  0  0  0  0  0
    5.0012    0.9209   20.0271 C   0  0  0  0  0  0  0  0  0  0  0  0
    5.1045    1.0152   22.2128 H   0  0  0  0  0  0  0  0  0  0  0  0
    3.1723    2.5160   22.4317 H   0  0  0  0  0  0  0  0  0  0  0  0
    1.9495    3.3193   20.4297 H   0  0  0  0  0  0  0  0  0  0  0  0
    2.6870    2.6262   18.1658 H   0  0  0  0  0  0  0  0  0  0  0  0
    4.2261    1.3882   16.7244 H   0  0  0  0  0  0  0  0  0  0  0  0
    7.3136   -0.8674   18.2730 H   0  0  0  0  0  0  0  0  0  0  0  0
    8.1988   -0.0520   21.1638 C   0  0  0  0  0  0  0  0  0  0  0  0
    8.6407   -0.9626   22.3307 C   0  0  2  0  0  0  0  0  0  0  0  0
    9.7289   -1.9363   21.8558 C   0  0  0  0  0  0  0  0  0  0  0  0
   10.5893   -1.3780   21.4694 H   0  0  0  0  0  0  0  0  0  0  0  0
    9.3670   -2.5850   21.0508 H   0  0  0  0  0  0  0  0  0  0  0  0
   10.0941   -2.5661   22.6716 H   0  0  0  0  0  0  0  0  0  0  0  0
    9.0910   -0.3650   23.1310 H   0  0  0  0  0  0  0  0  0  0  0  0
    8.1994    1.0147   21.4288 H   0  0  0  0  0  0  0  0  0  0  0  0
    8.8630   -0.1646   20.3067 H   0  0  0  0  0  0  0  0  0  0  0  0
    6.7893   -0.9205   24.1182 C   0  0  0  0  0  0  0  0  0  0  0  0
    6.9744    0.4563   24.3179 C   0  0  0  0  0  0  0  0  0  0  0  0
    6.4476    1.0747   25.4404 C   0  0  0  0  0  0  0  0  0  0  0  0
    6.7017    2.7825   25.6786 Cl  0  0  0  0  0  0  0  0  0  0  0  0
    5.7185    0.3608   26.3887 C   0  0  0  0  0  0  0  0  0  0  0  0
    5.5073   -0.9884   26.1801 C   0  0  0  0  0  0  0  0  0  0  0  0
    6.0214   -1.6264   25.0509 C   0  0  0  0  0  0  0  0  0  0  0  0
    5.6796   -3.0756   24.8460 C   0  0  0  0  0  0  0  0  0  0  0  0
    4.8597   -3.6466   25.5604 O   0  0  0  0  0  0  0  0  0  0  0  0
    4.9282   -1.5801   26.8809 H   0  0  0  0  0  0  0  0  0  0  0  0
    5.3173    0.8677   27.2599 H   0  0  0  0  0  0  0  0  0  0  0  0
    7.5305    1.0691   23.6141 H   0  0  0  0  0  0  0  0  0  0  0  0
    7.6626   -3.6669   22.2411 H   0  0  0  0  0  0  0  0  0  0  0  0
    8.3458   -3.2606   23.8284 H   0  0  0  0  0  0  0  0  0  0  0  0
    5.6070   -5.5836   24.3349 H   0  0  0  0  0  0  0  0  0  0  0  0
    6.5742   -5.5389   22.8442 H   0  0  0  0  0  0  0  0  0  0  0  0
    4.7643   -4.4191   21.6180 H   0  0  0  0  0  0  0  0  0  0  0  0
    3.8462   -4.1815   23.1058 H   0  0  0  0  0  0  0  0  0  0  0  0
    4.4072   -7.1829   21.5047 C   0  0  0  0  0  0  0  0  0  0  0  0
    3.3709   -8.2429   21.1174 C   0  0  0  0  0  0  0  0  0  0  0  0
    2.8132   -8.8653   22.2667 O   0  0  0  0  0  0  0  0  0  0  0  0
    3.8400   -9.0574   20.5633 H   0  0  0  0  0  0  0  0  0  0  0  0
    2.5688   -7.8294   20.4886 H   0  0  0  0  0  0  0  0  0  0  0  0
    4.8780   -6.7314   20.6279 H   0  0  0  0  0  0  0  0  0  0  0  0
    5.1748   -7.6568   22.1220 H   0  0  0  0  0  0  0  0  0  0  0  0
    2.9130   -5.7931   21.7778 H   0  0  0  0  0  0  0  0  0  0  0  0
    2.5879   -6.0470   24.1232 H   0  0  0  0  0  0  0  0  0  0  0  0
    3.9651   -7.1437   24.1604 H   0  0  0  0  0  0  0  0  0  0  0  0
    1.3524   -7.5054   22.5920 H   0  0  0  0  0  0  0  0  0  0  0  0
    1.2538   -9.6035   24.1081 H   0  0  0  0  0  0  0  0  0  0  0  0
    2.6460   -8.9565   25.0104 H   0  0  0  0  0  0  0  0  0  0  0  0
    1.1234   -8.0674   24.9786 H   0  0  0  0  0  0  0  0  0  0  0  0
  1  2  1  0
  2  3  1  0
  3  4  1  0
  4  5  1  0
  5  6  1  0
  6  7  1  0
  7  8  1  0
  9  8  1  1
  9 10  1  0
 10 11  2  0
 10 12  1  0
 12 13  1  0
 13 14  2  0
 14 15  1  0
 15 16  2  0
 16 17  1  0
 17 18  2  0
 18 19  1  0
 19 20  2  0
 20 21  1  0
 21 22  2  0
 21 23  1  0
 20 24  1  0
 19 25  1  0
 18 26  1  0
 16 27  1  0
 14 28  1  0
 12 29  1  0
 29 30  1  0
 30 31  1  0
 31 32  1  0
 31 33  1  0
 31 34  1  0
 30 35  1  1
 29 36  1  0
 29 37  1  0
  9 38  1  0
 38 39  2  0
 39 40  1  0
 40 41  1  0
 40 42  2  0
 42 43  1  0
 43 44  2  0
 44 45  1  0
 45 46  2  0
 43 47  1  0
 42 48  1  0
 39 49  1  0
  8 50  1  0
  8 51  1  0
  6 52  1  0
  6 53  1  0
  5 54  1  0
  5 55  1  0
  4 56  1  0
 56 57  1  0
 57 58  1  0
 57 59  1  0
 57 60  1  0
 56 61  1  0
 56 62  1  0
  4 63  1  6
  3 64  1  0
  3 65  1  0
  2 66  1  6
  1 67  1  0
  1 68  1  0
  1 69  1  0
 58  2  1  0
 45  7  1  0
 30  9  1  0
 44 38  1  0
 22 13  1  0
 22 17  1  0
M  CHG  1   4   1
M  END
>  <cnnaffinities>  (18) 
[6.51755, 6.01546]

>  <score>  (18) 
6.51755

>  <index>  (18) 
23

>  <Smiles>  (18) 
C([C@]1(C([N@@+](C(C(N2C([C@@]3(C(=O)N(c4c(nc(c5c(c(c(c(c45)[H])[H])[H])[H])[H])[H])C([C@@]3(C([H])([H])[H])[H])([H])[H])c3c(c(Cl)c(c(c3C2=O)[H])[H])[H])([H])[H])([H])[H])([H])[H])(C(C(O1)([H])[H])([H])[H])[H])([H])[H])[H])([H])([H])[H]

>  <h>  (18) 
<NA>

>  <Training>  (18) 
True

>  <Success>  (18) 
True

>  <enamine_searched>  (18) 
False

>  <enamine_id>  (18) 
nan

$$$$

     RDKit          3D

 70 75  0  0  0  0  0  0  0  0999 V2000
    6.8939   -8.6004   23.5262 C   0  0  0  0  0  0  0  0  0  0  0  0
    6.9245   -7.1334   23.3276 N   0  0  0  0  0  4  0  0  0  0  0  0
    6.6012   -6.6991   21.9346 C   0  0  0  0  0  0  0  0  0  0  0  0
    5.4461   -5.6867   21.8814 C   0  0  0  0  0  0  0  0  0  0  0  0
    5.7568   -4.4463   22.5886 N   0  0  0  0  0  0  0  0  0  0  0  0
    6.7560   -3.6065   21.9420 C   0  0  0  0  0  0  0  0  0  0  0  0
    6.8208   -2.1478   22.4872 C   0  0  2  0  0  0  0  0  0  0  0  0
    5.8776   -1.3301   21.5989 C   0  0  0  0  0  0  0  0  0  0  0  0
    4.6671   -1.4271   21.5687 O   0  0  0  0  0  0  0  0  0  0  0  0
    6.6262   -0.5411   20.7375 N   0  0  0  0  0  0  0  0  0  0  0  0
    5.9975    0.0510   19.6217 C   0  0  0  0  0  0  0  0  0  0  0  0
    6.3679   -0.2825   18.3391 C   0  0  0  0  0  0  0  0  0  0  0  0
    5.7713    0.1889   17.2166 N   0  0  0  0  0  0  0  0  0  0  0  0
    4.7782    1.0325   17.3778 C   0  0  0  0  0  0  0  0  0  0  0  0
    4.3037    1.4710   18.6449 C   0  0  0  0  0  0  0  0  0  0  0  0
    3.2112    2.3711   18.7436 C   0  0  0  0  0  0  0  0  0  0  0  0
    2.7337    2.7548   19.9671 C   0  0  0  0  0  0  0  0  0  0  0  0
    3.3376    2.2587   21.1421 C   0  0  0  0  0  0  0  0  0  0  0  0
    4.4146    1.4108   21.0731 C   0  0  0  0  0  0  0  0  0  0  0  0
    4.9135    0.9711   19.8115 C   0  0  0  0  0  0  0  0  0  0  0  0
    4.8620    1.0478   21.9894 H   0  0  0  0  0  0  0  0  0  0  0  0
    2.9418    2.5398   22.1138 H   0  0  0  0  0  0  0  0  0  0  0  0
    1.8951    3.4406   20.0443 H   0  0  0  0  0  0  0  0  0  0  0  0
    2.7828    2.7653   17.8269 H   0  0  0  0  0  0  0  0  0  0  0  0
    4.2962    1.4081   16.4756 H   0  0  0  0  0  0  0  0  0  0  0  0
    7.1656   -1.0071   18.1796 H   0  0  0  0  0  0  0  0  0  0  0  0
    8.0684   -0.7861   20.8383 C   0  0  0  0  0  0  0  0  0  0  0  0
    8.1885   -1.4869   22.1982 C   0  0  2  0  0  0  0  0  0  0  0  0
    9.3790   -2.4176   22.4021 C   0  0  0  0  0  0  0  0  0  0  0  0
   10.5961   -1.7329   22.2924 O   0  0  0  0  0  0  0  0  0  0  0  0
   11.1088   -1.2443   23.5147 C   0  0  0  0  0  0  0  0  0  0  0  0
   12.0702   -0.1678   23.1008 C   0  0  0  0  0  0  0  0  0  0  0  0
   11.4138    1.0432   22.4203 C   0  0  0  0  0  0  0  0  0  0  0  0
   12.1632    1.9624   23.2228 O   0  0  0  0  0  0  0  0  0  0  0  0
   12.5506    0.8866   24.0871 C   0  0  0  0  0  0  0  0  0  0  0  0
   11.9645    0.8783   25.0118 H   0  0  0  0  0  0  0  0  0  0  0  0
   13.6151    0.8858   24.3120 H   0  0  0  0  0  0  0  0  0  0  0  0
   11.6178    1.1945   21.3697 H   0  0  0  0  0  0  0  0  0  0  0  0
   10.3327    1.1191   22.6137 H   0  0  0  0  0  0  0  0  0  0  0  0
   12.8777   -0.6381   22.5292 H   0  0  0  0  0  0  0  0  0  0  0  0
   11.6125   -2.0399   24.0913 H   0  0  0  0  0  0  0  0  0  0  0  0
   10.3035   -0.8291   24.1489 H   0  0  0  0  0  0  0  0  0  0  0  0
    9.2860   -2.9181   23.3854 H   0  0  0  0  0  0  0  0  0  0  0  0
    9.4037   -3.1966   21.6341 H   0  0  0  0  0  0  0  0  0  0  0  0
    8.3007   -0.6798   22.9247 H   0  0  0  0  0  0  0  0  0  0  0  0
    8.6158    0.1613   20.8244 H   0  0  0  0  0  0  0  0  0  0  0  0
    8.4475   -1.4092   20.0185 H   0  0  0  0  0  0  0  0  0  0  0  0
    6.4823   -2.0784   23.9643 C   0  0  0  0  0  0  0  0  0  0  0  0
    6.7183   -0.9020   24.7038 C   0  0  0  0  0  0  0  0  0  0  0  0
    6.5608   -0.8906   26.0759 C   0  0  0  0  0  0  0  0  0  0  0  0
    7.0030    0.5353   26.9779 Cl  0  0  0  0  0  0  0  0  0  0  0  0
    6.0907   -2.0097   26.7593 C   0  0  0  0  0  0  0  0  0  0  0  0
    5.7955   -3.1466   26.0329 C   0  0  0  0  0  0  0  0  0  0  0  0
    5.9650   -3.1840   24.6501 C   0  0  0  0  0  0  0  0  0  0  0  0
    5.6047   -4.4434   23.9389 C   0  0  0  0  0  0  0  0  0  0  0  0
    5.2215   -5.4541   24.5478 O   0  0  0  0  0  0  0  0  0  0  0  0
    5.4127   -4.0338   26.5257 H   0  0  0  0  0  0  0  0  0  0  0  0
    5.9673   -1.9693   27.8355 H   0  0  0  0  0  0  0  0  0  0  0  0
    7.0414    0.0129   24.2192 H   0  0  0  0  0  0  0  0  0  0  0  0
    7.7418   -4.0771   22.0241 H   0  0  0  0  0  0  0  0  0  0  0  0
    6.5038   -3.5752   20.8781 H   0  0  0  0  0  0  0  0  0  0  0  0
    5.2151   -5.4312   20.8417 H   0  0  0  0  0  0  0  0  0  0  0  0
    4.5529   -6.1138   22.3462 H   0  0  0  0  0  0  0  0  0  0  0  0
    7.4910   -6.2483   21.4871 H   0  0  0  0  0  0  0  0  0  0  0  0
    6.3449   -7.5750   21.3406 H   0  0  0  0  0  0  0  0  0  0  0  0
    6.2330   -6.6914   23.9663 H   0  0  0  0  0  0  0  0  0  0  0  0
    7.8724   -6.8060   23.5959 H   0  0  0  0  0  0  0  0  0  0  0  0
    5.8694   -8.9630   23.6482 H   0  0  0  0  0  0  0  0  0  0  0  0
    7.3378   -9.1102   22.6666 H   0  0  0  0  0  0  0  0  0  0  0  0
    7.4676   -8.8673   24.4140 H   0  0  0  0  0  0  0  0  0  0  0  0
  1  2  1  0
  2  3  1  0
  3  4  1  0
  4  5  1  0
  5  6  1  0
  7  6  1  6
  7  8  1  0
  8  9  2  0
  8 10  1  0
 10 11  1  0
 11 12  2  0
 12 13  1  0
 13 14  2  0
 14 15  1  0
 15 16  2  0
 16 17  1  0
 17 18  2  0
 18 19  1  0
 19 20  2  0
 19 21  1  0
 18 22  1  0
 17 23  1  0
 16 24  1  0
 14 25  1  0
 12 26  1  0
 10 27  1  0
 27 28  1  0
 28 29  1  0
 29 30  1  0
 30 31  1  0
 31 32  1  0
 32 33  1  0
 33 34  1  0
 34 35  1  0
 35 36  1  0
 35 37  1  0
 33 38  1  0
 33 39  1  0
 32 40  1  0
 31 41  1  0
 31 42  1  0
 29 43  1  0
 29 44  1  0
 28 45  1  1
 27 46  1  0
 27 47  1  0
  7 48  1  0
 48 49  2  0
 49 50  1  0
 50 51  1  0
 50 52  2  0
 52 53  1  0
 53 54  2  0
 54 55  1  0
 55 56  2  0
 53 57  1  0
 52 58  1  0
 49 59  1  0
  6 60  1  0
  6 61  1  0
  4 62  1  0
  4 63  1  0
  3 64  1  0
  3 65  1  0
  2 66  1  0
  2 67  1  0
  1 68  1  0
  1 69  1  0
  1 70  1  0
 55  5  1  0
 28  7  1  0
 35 32  1  0
 54 48  1  0
 20 11  1  0
 20 15  1  0
M  CHG  1   2   1
M  END
>  <cnnaffinities>  (19) 
[6.45337]

>  <score>  (19) 
6.45337

>  <index>  (19) 
24

>  <Smiles>  (19) 
C([N+](C(C(N1C([C@@]2(C(=O)N(c3c(nc(c4c(c(c(c(c34)[H])[H])[H])[H])[H])[H])C([C@@]2(C(OC(C2(C(OC2([H])[H])([H])[H])[H])([H])[H])([H])[H])[H])([H])[H])c2c(c(Cl)c(c(c2C1=O)[H])[H])[H])([H])[H])([H])[H])([H])[H])([H])[H])([H])([H])[H]

>  <h>  (19) 
<NA>

>  <Training>  (19) 
True

>  <Success>  (19) 
True

>  <enamine_searched>  (19) 
False

>  <enamine_id>  (19) 
nan

$$$$

     RDKit          3D

 68 73  0  0  0  0  0  0  0  0999 V2000
    7.5492   -8.4310   23.0701 C   0  0  0  0  0  0  0  0  0  0  0  0
    6.6630   -7.3082   22.8378 N   0  0  0  0  0  0  0  0  0  0  0  0
    6.8672   -6.4978   21.7709 C   0  0  0  0  0  0  0  0  0  0  0  0
    7.6755   -6.7109   20.8849 O   0  0  0  0  0  0  0  0  0  0  0  0
    6.0568   -5.2093   21.7928 C   0  0  0  0  0  0  0  0  0  0  0  0
    6.6342   -4.2623   22.7215 N   0  0  0  0  0  0  0  0  0  0  0  0
    7.7356   -3.4041   22.3144 C   0  0  0  0  0  0  0  0  0  0  0  0
    7.4099   -1.9318   22.6597 C   0  0  2  0  0  0  0  0  0  0  0  0
    6.3140   -1.4600   21.6744 C   0  0  0  0  0  0  0  0  0  0  0  0
    5.1867   -1.8986   21.5694 O   0  0  0  0  0  0  0  0  0  0  0  0
    6.8445   -0.4767   20.8636 N   0  0  0  0  0  0  0  0  0  0  0  0
    6.1159    0.0698   19.7894 C   0  0  0  0  0  0  0  0  0  0  0  0
    6.4760   -0.2152   18.4950 C   0  0  0  0  0  0  0  0  0  0  0  0
    5.8212    0.2302   17.3967 N   0  0  0  0  0  0  0  0  0  0  0  0
    4.7837    1.0069   17.6002 C   0  0  0  0  0  0  0  0  0  0  0  0
    4.3241    1.4042   18.8881 C   0  0  0  0  0  0  0  0  0  0  0  0
    3.2043    2.2629   19.0360 C   0  0  0  0  0  0  0  0  0  0  0  0
    2.7975    2.6564   20.2812 C   0  0  0  0  0  0  0  0  0  0  0  0
    3.4881    2.2164   21.4308 C   0  0  0  0  0  0  0  0  0  0  0  0
    4.5711    1.3788   21.3145 C   0  0  0  0  0  0  0  0  0  0  0  0
    5.0063    0.9406   20.0290 C   0  0  0  0  0  0  0  0  0  0  0  0
    5.0962    1.0424   22.2021 H   0  0  0  0  0  0  0  0  0  0  0  0
    3.1576    2.5430   22.4131 H   0  0  0  0  0  0  0  0  0  0  0  0
    1.9459    3.3209   20.3931 H   0  0  0  0  0  0  0  0  0  0  0  0
    2.6991    2.6102   18.1403 H   0  0  0  0  0  0  0  0  0  0  0  0
    4.2481    1.3626   16.7217 H   0  0  0  0  0  0  0  0  0  0  0  0
    7.3273   -0.8688   18.3096 H   0  0  0  0  0  0  0  0  0  0  0  0
    8.2909   -0.4019   20.9446 C   0  0  0  0  0  0  0  0  0  0  0  0
    8.5868   -0.9714   22.3326 C   0  0  2  0  0  0  0  0  0  0  0  0
    9.9869   -1.5610   22.3990 C   0  0  0  0  0  0  0  0  0  0  0  0
   10.2307   -2.1855   23.6775 N   0  0  0  0  0  0  0  0  0  0  0  0
   11.5103   -2.6015   24.0078 C   0  0  0  0  0  0  0  0  0  0  0  0
   12.6914   -2.5763   23.2361 C   0  0  0  0  0  0  0  0  0  0  0  0
   13.7300   -3.0421   23.9196 N   0  0  0  0  0  0  0  0  0  0  0  0
   13.2422   -3.3805   25.1227 N   0  0  0  0  0  0  0  0  0  0  0  0
   14.1093   -4.1309   26.0199 C   0  0  0  0  0  0  0  0  0  0  0  0
   15.0773   -4.1901   25.5210 H   0  0  0  0  0  0  0  0  0  0  0  0
   13.7530   -5.1561   26.1986 H   0  0  0  0  0  0  0  0  0  0  0  0
   14.2372   -3.6266   26.9784 H   0  0  0  0  0  0  0  0  0  0  0  0
   11.8861   -3.2103   25.1813 C   0  0  0  0  0  0  0  0  0  0  0  0
   11.2737   -3.4638   26.0324 H   0  0  0  0  0  0  0  0  0  0  0  0
   12.7684   -2.3002   22.1948 H   0  0  0  0  0  0  0  0  0  0  0  0
    9.6727   -1.8844   24.4637 H   0  0  0  0  0  0  0  0  0  0  0  0
   10.7318   -0.7782   22.1836 H   0  0  0  0  0  0  0  0  0  0  0  0
   10.0967   -2.3190   21.6104 H   0  0  0  0  0  0  0  0  0  0  0  0
    8.5384   -0.1402   23.0405 H   0  0  0  0  0  0  0  0  0  0  0  0
    8.6282    0.6337   20.8424 H   0  0  0  0  0  0  0  0  0  0  0  0
    8.7816   -0.9975   20.1587 H   0  0  0  0  0  0  0  0  0  0  0  0
    6.9353   -1.8787   24.1065 C   0  0  0  0  0  0  0  0  0  0  0  0
    6.9030   -0.6669   24.8135 C   0  0  0  0  0  0  0  0  0  0  0  0
    6.4227   -0.6243   26.1116 C   0  0  0  0  0  0  0  0  0  0  0  0
    6.3741    0.9094   26.9426 Cl  0  0  0  0  0  0  0  0  0  0  0  0
    5.9753   -1.7705   26.7696 C   0  0  0  0  0  0  0  0  0  0  0  0
    5.9739   -2.9632   26.0732 C   0  0  0  0  0  0  0  0  0  0  0  0
    6.4159   -3.0128   24.7529 C   0  0  0  0  0  0  0  0  0  0  0  0
    6.2024   -4.2783   24.0059 C   0  0  0  0  0  0  0  0  0  0  0  0
    5.6064   -5.2467   24.4893 O   0  0  0  0  0  0  0  0  0  0  0  0
    5.6049   -3.8756   26.5292 H   0  0  0  0  0  0  0  0  0  0  0  0
    5.6157   -1.7142   27.7928 H   0  0  0  0  0  0  0  0  0  0  0  0
    7.2192    0.2647   24.3573 H   0  0  0  0  0  0  0  0  0  0  0  0
    7.8772   -3.5067   21.2418 H   0  0  0  0  0  0  0  0  0  0  0  0
    8.6759   -3.7014   22.7946 H   0  0  0  0  0  0  0  0  0  0  0  0
    6.0620   -4.7622   20.7992 H   0  0  0  0  0  0  0  0  0  0  0  0
    5.0261   -5.4109   22.0959 H   0  0  0  0  0  0  0  0  0  0  0  0
    6.1995   -6.8885   23.6340 H   0  0  0  0  0  0  0  0  0  0  0  0
    8.5697   -8.0946   23.2903 H   0  0  0  0  0  0  0  0  0  0  0  0
    7.5379   -9.0829   22.1962 H   0  0  0  0  0  0  0  0  0  0  0  0
    7.1913   -9.0078   23.9238 H   0  0  0  0  0  0  0  0  0  0  0  0
  1  2  1  0
  2  3  1  0
  3  4  2  0
  3  5  1  0
  5  6  1  0
  6  7  1  0
  8  7  1  6
  8  9  1  0
  9 10  2  0
  9 11  1  0
 11 12  1  0
 12 13  2  0
 13 14  1  0
 14 15  2  0
 15 16  1  0
 16 17  2  0
 17 18  1  0
 18 19  2  0
 19 20  1  0
 20 21  2  0
 20 22  1  0
 19 23  1  0
 18 24  1  0
 17 25  1  0
 15 26  1  0
 13 27  1  0
 11 28  1  0
 28 29  1  0
 29 30  1  0
 30 31  1  0
 31 32  1  0
 32 33  1  0
 33 34  2  0
 34 35  1  0
 35 36  1  0
 36 37  1  0
 36 38  1  0
 36 39  1  0
 35 40  1  0
 40 41  1  0
 33 42  1  0
 31 43  1  0
 30 44  1  0
 30 45  1  0
 29 46  1  1
 28 47  1  0
 28 48  1  0
  8 49  1  0
 49 50  2  0
 50 51  1  0
 51 52  1  0
 51 53  2  0
 53 54  1  0
 54 55  2  0
 55 56  1  0
 56 57  2  0
 54 58  1  0
 53 59  1  0
 50 60  1  0
  7 61  1  0
  7 62  1  0
  5 63  1  0
  5 64  1  0
  2 65  1  0
  1 66  1  0
  1 67  1  0
  1 68  1  0
 56  6  1  0
 29  8  1  0
 40 32  2  0
 55 49  1  0
 21 12  1  0
 21 16  1  0
M  END
>  <cnnaffinities>  (20) 
[7.54155]

>  <score>  (20) 
7.54155

>  <index>  (20) 
25

>  <Smiles>  (20) 
C(N(C(=O)C(N1C([C@@]2(C(=O)N(c3c(nc(c4c(c(c(c(c34)[H])[H])[H])[H])[H])[H])C([C@@]2(C(N(c2c(nn(C([H])([H])[H])c2[H])[H])[H])([H])[H])[H])([H])[H])c2c(c(Cl)c(c(c2C1=O)[H])[H])[H])([H])[H])([H])[H])[H])([H])([H])[H]

>  <h>  (20) 
<NA>

>  <Training>  (20) 
True

>  <Success>  (20) 
True

>  <enamine_searched>  (20) 
False

>  <enamine_id>  (20) 
nan

$$$$

     RDKit          3D

 43 47  0  0  0  0  0  0  0  0999 V2000
    8.8769    0.6216   20.6571 O   0  0  0  0  0  0  0  0  0  0  0  0
    8.2192   -0.2976   21.0848 C   0  0  0  0  0  0  0  0  0  0  0  0
    8.6395   -1.3758   21.8183 N   0  0  0  0  0  0  0  0  0  0  0  0
    7.5482   -2.0991   22.4374 C   0  0  1  0  0  0  0  0  0  0  0  0
    7.5714   -3.6339   22.4783 C   0  0  0  0  0  0  0  0  0  0  0  0
    7.5340   -3.6316   24.0366 C   0  0  2  0  0  0  0  0  0  0  0  0
    6.3609   -4.3358   24.6863 C   0  0  0  0  0  0  0  0  0  0  0  0
    5.6600   -3.7671   25.7581 C   0  0  0  0  0  0  0  0  0  0  0  0
    4.4931   -4.3374   26.2531 C   0  0  0  0  0  0  0  0  0  0  0  0
    3.9496   -5.4561   25.6255 C   0  0  0  0  0  0  0  0  0  0  0  0
    4.6442   -6.0689   24.5914 C   0  0  0  0  0  0  0  0  0  0  0  0
    5.8835   -5.5642   24.2089 C   0  0  0  0  0  0  0  0  0  0  0  0
    6.8715   -6.5273   23.1353 Cl  0  0  0  0  0  0  0  0  0  0  0  0
    4.2675   -6.9718   24.1192 H   0  0  0  0  0  0  0  0  0  0  0  0
    3.0067   -5.8686   25.9631 H   0  0  0  0  0  0  0  0  0  0  0  0
    3.9689   -3.8700   27.0800 H   0  0  0  0  0  0  0  0  0  0  0  0
    6.0230   -2.8448   26.2090 H   0  0  0  0  0  0  0  0  0  0  0  0
    7.4609   -2.0765   23.9808 C   0  0  0  0  0  0  0  0  0  0  0  0
    8.2938   -1.5443   24.4499 H   0  0  0  0  0  0  0  0  0  0  0  0
    6.5041   -1.6589   24.2975 H   0  0  0  0  0  0  0  0  0  0  0  0
    8.4699   -3.9997   24.4716 H   0  0  0  0  0  0  0  0  0  0  0  0
    8.4542   -4.0899   22.0275 H   0  0  0  0  0  0  0  0  0  0  0  0
    6.6643   -4.0386   22.0303 H   0  0  0  0  0  0  0  0  0  0  0  0
    6.3449   -1.5200   21.7072 C   0  0  0  0  0  0  0  0  0  0  0  0
    5.1943   -1.8646   21.7940 O   0  0  0  0  0  0  0  0  0  0  0  0
    6.8350   -0.4829   20.9028 N   0  0  0  0  0  0  0  0  0  0  0  0
    6.1221    0.0781   19.8095 C   0  0  0  0  0  0  0  0  0  0  0  0
    6.4833   -0.2178   18.5192 C   0  0  0  0  0  0  0  0  0  0  0  0
    5.8255    0.2259   17.4190 N   0  0  0  0  0  0  0  0  0  0  0  0
    4.7899    1.0032   17.6177 C   0  0  0  0  0  0  0  0  0  0  0  0
    4.3296    1.4034   18.9007 C   0  0  0  0  0  0  0  0  0  0  0  0
    3.2142    2.2602   19.0537 C   0  0  0  0  0  0  0  0  0  0  0  0
    2.8111    2.6409   20.3012 C   0  0  0  0  0  0  0  0  0  0  0  0
    3.5012    2.1931   21.4477 C   0  0  0  0  0  0  0  0  0  0  0  0
    4.5825    1.3606   21.3274 C   0  0  0  0  0  0  0  0  0  0  0  0
    5.0132    0.9393   20.0413 C   0  0  0  0  0  0  0  0  0  0  0  0
    5.1146    1.0158   22.2087 H   0  0  0  0  0  0  0  0  0  0  0  0
    3.1749    2.5152   22.4300 H   0  0  0  0  0  0  0  0  0  0  0  0
    1.9616    3.3033   20.4173 H   0  0  0  0  0  0  0  0  0  0  0  0
    2.7116    2.6098   18.1581 H   0  0  0  0  0  0  0  0  0  0  0  0
    4.2603    1.3622   16.7365 H   0  0  0  0  0  0  0  0  0  0  0  0
    7.3327   -0.8682   18.3271 H   0  0  0  0  0  0  0  0  0  0  0  0
    9.5861   -1.3822   22.1622 H   0  0  0  0  0  0  0  0  0  0  0  0
  1  2  2  0
  2  3  1  0
  4  3  1  1
  4  5  1  0
  5  6  1  0
  6  7  1  0
  7  8  2  0
  8  9  1  0
  9 10  2  0
 10 11  1  0
 11 12  2  0
 12 13  1  0
 11 14  1  0
 10 15  1  0
  9 16  1  0
  8 17  1  0
  6 18  1  0
 18 19  1  0
 18 20  1  0
  6 21  1  1
  5 22  1  0
  5 23  1  0
  4 24  1  0
 24 25  2  0
 24 26  1  0
 26 27  1  0
 27 28  2  0
 28 29  1  0
 29 30  2  0
 30 31  1  0
 31 32  2  0
 32 33  1  0
 33 34  2  0
 34 35  1  0
 35 36  2  0
 35 37  1  0
 34 38  1  0
 33 39  1  0
 32 40  1  0
 30 41  1  0
 28 42  1  0
  3 43  1  0
 26  2  1  0
 36 27  1  0
 18  4  1  0
 36 31  1  0
 12  7  1  0
M  END
>  <cnnaffinities>  (21) 
[5.773]

>  <score>  (21) 
5.773

>  <index>  (21) 
26

>  <Smiles>  (21) 
O=C1N([C@]2(C([C@](c3c(c(c(c(c3Cl)[H])[H])[H])[H])(C2([H])[H])[H])([H])[H])C(=O)N1c1c(nc(c2c(c(c(c(c12)[H])[H])[H])[H])[H])[H])[H]

>  <h>  (21) 
<NA>

>  <Training>  (21) 
True

>  <Success>  (21) 
True

>  <enamine_searched>  (21) 
False

>  <enamine_id>  (21) 
nan

$$$$

     RDKit          3D

 46 48  0  0  0  0  0  0  0  0999 V2000
    8.5425    0.5325   25.0979 C   0  0  0  0  0  0  0  0  0  0  0  0
    7.2294   -0.0593   24.6001 C   0  0  0  0  0  0  0  0  0  0  0  0
    7.3972   -1.3668   23.8121 C   0  0  1  0  0  0  0  0  0  0  0  0
    7.8179   -2.5860   24.6616 C   0  0  0  0  0  0  0  0  0  0  0  0
    6.7027   -3.3760   25.3600 C   0  0  1  0  0  0  0  0  0  0  0  0
    6.3314   -2.8803   26.7554 C   0  0  0  0  0  0  0  0  0  0  0  0
    5.6873   -3.8450   27.4501 F   0  0  0  0  0  0  0  0  0  0  0  0
    5.5065   -1.8117   26.7537 F   0  0  0  0  0  0  0  0  0  0  0  0
    7.4027   -2.5313   27.4910 F   0  0  0  0  0  0  0  0  0  0  0  0
    5.4776   -3.5422   24.4615 C   0  0  0  0  0  0  0  0  0  0  0  0
    5.0827   -2.2552   23.7458 C   0  0  0  0  0  0  0  0  0  0  0  0
    6.2105   -1.6833   23.0127 N   0  0  0  0  0  0  0  0  0  0  0  0
    6.1558   -1.6231   21.6258 C   0  0  0  0  0  0  0  0  0  0  0  0
    5.4851   -2.4014   20.9750 O   0  0  0  0  0  0  0  0  0  0  0  0
    6.9197   -0.4875   20.9093 C   0  0  0  0  0  0  0  0  0  0  0  0
    6.1179    0.0922   19.7638 C   0  0  0  0  0  0  0  0  0  0  0  0
    6.4224   -0.2137   18.4607 C   0  0  0  0  0  0  0  0  0  0  0  0
    5.7591    0.2384   17.3619 N   0  0  0  0  0  0  0  0  0  0  0  0
    4.7349    1.0308   17.5749 C   0  0  0  0  0  0  0  0  0  0  0  0
    4.2869    1.4229   18.8674 C   0  0  0  0  0  0  0  0  0  0  0  0
    3.1652    2.2744   19.0427 C   0  0  0  0  0  0  0  0  0  0  0  0
    2.7509    2.6285   20.3002 C   0  0  0  0  0  0  0  0  0  0  0  0
    3.4437    2.1441   21.4305 C   0  0  0  0  0  0  0  0  0  0  0  0
    4.5329    1.3173   21.2862 C   0  0  0  0  0  0  0  0  0  0  0  0
    4.9903    0.9379   19.9962 C   0  0  0  0  0  0  0  0  0  0  0  0
    5.0444    0.9520   22.1705 H   0  0  0  0  0  0  0  0  0  0  0  0
    3.1056    2.4256   22.4225 H   0  0  0  0  0  0  0  0  0  0  0  0
    1.8933    3.2817   20.4370 H   0  0  0  0  0  0  0  0  0  0  0  0
    2.6433    2.6459   18.1640 H   0  0  0  0  0  0  0  0  0  0  0  0
    4.1983    1.3997   16.6996 H   0  0  0  0  0  0  0  0  0  0  0  0
    7.2660   -0.8677   18.2464 H   0  0  0  0  0  0  0  0  0  0  0  0
    7.2086    0.3079   21.6105 H   0  0  0  0  0  0  0  0  0  0  0  0
    7.8491   -0.9146   20.5123 H   0  0  0  0  0  0  0  0  0  0  0  0
    4.7082   -1.5294   24.4755 H   0  0  0  0  0  0  0  0  0  0  0  0
    4.2734   -2.4528   23.0394 H   0  0  0  0  0  0  0  0  0  0  0  0
    4.6326   -3.9462   25.0316 H   0  0  0  0  0  0  0  0  0  0  0  0
    5.7156   -4.2801   23.6926 H   0  0  0  0  0  0  0  0  0  0  0  0
    7.1005   -4.3739   25.5801 H   0  0  0  0  0  0  0  0  0  0  0  0
    8.5820   -2.2951   25.3889 H   0  0  0  0  0  0  0  0  0  0  0  0
    8.3181   -3.2910   23.9896 H   0  0  0  0  0  0  0  0  0  0  0  0
    8.2155   -1.2089   23.1002 H   0  0  0  0  0  0  0  0  0  0  0  0
    6.7482    0.6719   23.9402 H   0  0  0  0  0  0  0  0  0  0  0  0
    6.5490   -0.2090   25.4405 H   0  0  0  0  0  0  0  0  0  0  0  0
    9.0136   -0.0960   25.8592 H   0  0  0  0  0  0  0  0  0  0  0  0
    8.3725    1.5152   25.5462 H   0  0  0  0  0  0  0  0  0  0  0  0
    9.2595    0.6644   24.2809 H   0  0  0  0  0  0  0  0  0  0  0  0
  1  2  1  0
  2  3  1  0
  3  4  1  0
  4  5  1  0
  5  6  1  0
  6  7  1  0
  6  8  1  0
  6  9  1  0
  5 10  1  0
 10 11  1  0
 11 12  1  0
 12 13  1  0
 13 14  2  0
 13 15  1  0
 15 16  1  0
 16 17  2  0
 17 18  1  0
 18 19  2  0
 19 20  1  0
 20 21  2  0
 21 22  1  0
 22 23  2  0
 23 24  1  0
 24 25  2  0
 24 26  1  0
 23 27  1  0
 22 28  1  0
 21 29  1  0
 19 30  1  0
 17 31  1  0
 15 32  1  0
 15 33  1  0
 11 34  1  0
 11 35  1  0
 10 36  1  0
 10 37  1  0
  5 38  1  1
  4 39  1  0
  4 40  1  0
  3 41  1  6
  2 42  1  0
  2 43  1  0
  1 44  1  0
  1 45  1  0
  1 46  1  0
 12  3  1  0
 25 16  1  0
 25 20  1  0
M  END
>  <cnnaffinities>  (22) 
[5.52907, 5.52903, 5.52915, 5.52916, 5.58251, 5.58251, 5.58245, 5.58239, 5.58247, 5.46972]

>  <score>  (22) 
5.52907

>  <index>  (22) 
27

>  <Smiles>  (22) 
C(C([C@]1(C([C@@](C(F)(F)F)(C(C(N1C(=O)C(c1c(nc(c2c(c(c(c(c12)[H])[H])[H])[H])[H])[H])([H])[H])([H])[H])([H])[H])[H])([H])[H])[H])([H])[H])([H])([H])[H]

>  <h>  (22) 
<NA>

>  <Training>  (22) 
True

>  <Success>  (22) 
True

>  <enamine_searched>  (22) 
False

>  <enamine_id>  (22) 
nan

$$$$

     RDKit          3D

 70 75  0  0  0  0  0  0  0  0999 V2000
    4.7906   -7.6186   20.2313 C   0  0  0  0  0  0  0  0  0  0  0  0
    5.2113   -6.2922   19.6985 N   0  0  0  0  0  4  0  0  0  0  0  0
    5.3469   -5.2719   20.7792 C   0  0  0  0  0  0  0  0  0  0  0  0
    6.6375   -5.4792   21.5717 C   0  0  0  0  0  0  0  0  0  0  0  0
    6.8039   -4.3852   22.5054 N   0  0  0  0  0  0  0  0  0  0  0  0
    7.7897   -3.3754   22.2452 C   0  0  0  0  0  0  0  0  0  0  0  0
    7.3396   -1.9473   22.6421 C   0  0  2  0  0  0  0  0  0  0  0  0
    6.2579   -1.4773   21.6462 C   0  0  0  0  0  0  0  0  0  0  0  0
    5.1236   -1.9031   21.5540 O   0  0  0  0  0  0  0  0  0  0  0  0
    6.7927   -0.5050   20.8284 N   0  0  0  0  0  0  0  0  0  0  0  0
    6.0774    0.0555   19.7562 C   0  0  0  0  0  0  0  0  0  0  0  0
    6.4505   -0.2088   18.4628 C   0  0  0  0  0  0  0  0  0  0  0  0
    5.7994    0.2519   17.3685 N   0  0  0  0  0  0  0  0  0  0  0  0
    4.7593    1.0253   17.5754 C   0  0  0  0  0  0  0  0  0  0  0  0
    4.2997    1.4137   18.8671 C   0  0  0  0  0  0  0  0  0  0  0  0
    3.1853    2.2753   19.0328 C   0  0  0  0  0  0  0  0  0  0  0  0
    2.7875    2.6589   20.2842 C   0  0  0  0  0  0  0  0  0  0  0  0
    3.4836    2.2060   21.4284 C   0  0  0  0  0  0  0  0  0  0  0  0
    4.5611    1.3651   21.2967 C   0  0  0  0  0  0  0  0  0  0  0  0
    4.9799    0.9340   20.0040 C   0  0  0  0  0  0  0  0  0  0  0  0
    5.1001    1.0191   22.1744 H   0  0  0  0  0  0  0  0  0  0  0  0
    3.1601    2.5240   22.4162 H   0  0  0  0  0  0  0  0  0  0  0  0
    1.9371    3.3235   20.4095 H   0  0  0  0  0  0  0  0  0  0  0  0
    2.6742    2.6338   18.1436 H   0  0  0  0  0  0  0  0  0  0  0  0
    4.2261    1.3918   16.6980 H   0  0  0  0  0  0  0  0  0  0  0  0
    7.3050   -0.8565   18.2705 H   0  0  0  0  0  0  0  0  0  0  0  0
    8.2259   -0.3656   20.9568 C   0  0  0  0  0  0  0  0  0  0  0  0
    8.4939   -0.9571   22.3476 C   0  0  2  0  0  0  0  0  0  0  0  0
    9.8452   -1.6220   22.3922 C   0  0  0  0  0  0  0  0  0  0  0  0
   10.8337   -0.6756   22.0633 O   0  0  0  0  0  0  0  0  0  0  0  0
   12.0983   -1.1816   22.4068 C   0  0  0  0  0  0  0  0  0  0  0  0
   12.4553   -0.7211   23.7986 C   0  0  0  0  0  0  0  0  0  0  0  0
   11.6106   -1.3127   24.7146 F   0  0  0  0  0  0  0  0  0  0  0  0
   13.9515   -0.7610   24.0602 C   0  0  0  0  0  0  0  0  0  0  0  0
   14.0369    0.5846   23.5585 O   0  0  0  0  0  0  0  0  0  0  0  0
   12.6482    0.7937   23.8779 C   0  0  0  0  0  0  0  0  0  0  0  0
   12.5459    1.1719   24.8998 H   0  0  0  0  0  0  0  0  0  0  0  0
   12.1370    1.4526   23.1711 H   0  0  0  0  0  0  0  0  0  0  0  0
   14.5534   -1.4836   23.5039 H   0  0  0  0  0  0  0  0  0  0  0  0
   14.1722   -0.8067   25.1315 H   0  0  0  0  0  0  0  0  0  0  0  0
   12.8350   -0.8290   21.6913 H   0  0  0  0  0  0  0  0  0  0  0  0
   12.1100   -2.2814   22.3735 H   0  0  0  0  0  0  0  0  0  0  0  0
    9.9146   -2.4317   21.6500 H   0  0  0  0  0  0  0  0  0  0  0  0
   10.0173   -2.0523   23.3860 H   0  0  0  0  0  0  0  0  0  0  0  0
    8.5046   -0.1349   23.0668 H   0  0  0  0  0  0  0  0  0  0  0  0
    8.5248    0.6825   20.8781 H   0  0  0  0  0  0  0  0  0  0  0  0
    8.7638   -0.9150   20.1701 H   0  0  0  0  0  0  0  0  0  0  0  0
    6.8613   -2.0168   24.0800 C   0  0  0  0  0  0  0  0  0  0  0  0
    6.8779   -0.9012   24.9300 C   0  0  0  0  0  0  0  0  0  0  0  0
    6.4083   -1.0125   26.2281 C   0  0  0  0  0  0  0  0  0  0  0  0
    6.3840    0.4033   27.2478 Cl  0  0  0  0  0  0  0  0  0  0  0  0
    5.9394   -2.2233   26.7369 C   0  0  0  0  0  0  0  0  0  0  0  0
    5.9106   -3.3205   25.9022 C   0  0  0  0  0  0  0  0  0  0  0  0
    6.3374   -3.2234   24.5802 C   0  0  0  0  0  0  0  0  0  0  0  0
    6.1892   -4.4452   23.7165 C   0  0  0  0  0  0  0  0  0  0  0  0
    5.5500   -5.4283   24.0758 O   0  0  0  0  0  0  0  0  0  0  0  0
    5.5486   -4.2791   26.2597 H   0  0  0  0  0  0  0  0  0  0  0  0
    5.5866   -2.2841   27.7620 H   0  0  0  0  0  0  0  0  0  0  0  0
    7.2423    0.0652   24.5949 H   0  0  0  0  0  0  0  0  0  0  0  0
    8.7003   -3.6412   22.7950 H   0  0  0  0  0  0  0  0  0  0  0  0
    7.9991   -3.3627   21.1799 H   0  0  0  0  0  0  0  0  0  0  0  0
    7.5012   -5.5034   20.8927 H   0  0  0  0  0  0  0  0  0  0  0  0
    6.6338   -6.4149   22.1426 H   0  0  0  0  0  0  0  0  0  0  0  0
    5.3299   -4.2691   20.3536 H   0  0  0  0  0  0  0  0  0  0  0  0
    4.5063   -5.3661   21.4695 H   0  0  0  0  0  0  0  0  0  0  0  0
    4.5685   -5.9649   18.9591 H   0  0  0  0  0  0  0  0  0  0  0  0
    6.1528   -6.3975   19.2619 H   0  0  0  0  0  0  0  0  0  0  0  0
    4.3139   -8.1979   19.4451 H   0  0  0  0  0  0  0  0  0  0  0  0
    5.6434   -8.1701   20.6275 H   0  0  0  0  0  0  0  0  0  0  0  0
    4.0830   -7.5015   21.0575 H   0  0  0  0  0  0  0  0  0  0  0  0
  1  2  1  0
  2  3  1  0
  3  4  1  0
  4  5  1  0
  5  6  1  0
  7  6  1  6
  7  8  1  0
  8  9  2  0
  8 10  1  0
 10 11  1  0
 11 12  2  0
 12 13  1  0
 13 14  2  0
 14 15  1  0
 15 16  2  0
 16 17  1  0
 17 18  2  0
 18 19  1  0
 19 20  2  0
 19 21  1  0
 18 22  1  0
 17 23  1  0
 16 24  1  0
 14 25  1  0
 12 26  1  0
 10 27  1  0
 27 28  1  0
 28 29  1  0
 29 30  1  0
 30 31  1  0
 31 32  1  0
 32 33  1  0
 32 34  1  0
 34 35  1  0
 35 36  1  0
 36 37  1  0
 36 38  1  0
 34 39  1  0
 34 40  1  0
 31 41  1  0
 31 42  1  0
 29 43  1  0
 29 44  1  0
 28 45  1  1
 27 46  1  0
 27 47  1  0
  7 48  1  0
 48 49  2  0
 49 50  1  0
 50 51  1  0
 50 52  2  0
 52 53  1  0
 53 54  2  0
 54 55  1  0
 55 56  2  0
 53 57  1  0
 52 58  1  0
 49 59  1  0
  6 60  1  0
  6 61  1  0
  4 62  1  0
  4 63  1  0
  3 64  1  0
  3 65  1  0
  2 66  1  0
  2 67  1  0
  1 68  1  0
  1 69  1  0
  1 70  1  0
 55  5  1  0
 28  7  1  0
 36 32  1  0
 54 48  1  0
 20 11  1  0
 20 15  1  0
M  CHG  1   2   1
M  END
>  <cnnaffinities>  (23) 
[6.29618]

>  <score>  (23) 
6.29618

>  <index>  (23) 
28

>  <Smiles>  (23) 
C([N+](C(C(N1C([C@@]2(C(=O)N(c3c(nc(c4c(c(c(c(c34)[H])[H])[H])[H])[H])[H])C([C@@]2(C(OC(C2(F)C(OC2([H])[H])([H])[H])([H])[H])([H])[H])[H])([H])[H])c2c(c(Cl)c(c(c2C1=O)[H])[H])[H])([H])[H])([H])[H])([H])[H])([H])[H])([H])([H])[H]

>  <h>  (23) 
<NA>

>  <Training>  (23) 
True

>  <Success>  (23) 
True

>  <enamine_searched>  (23) 
False

>  <enamine_id>  (23) 
nan

$$$$

     RDKit          3D

 67 72  0  0  0  0  0  0  0  0999 V2000
    6.6496   -0.2135   28.0971 C   0  0  0  0  0  0  0  0  0  0  0  0
    5.5405   -0.0673   27.1271 N   0  0  0  0  0  4  0  0  0  0  0  0
    5.4887    1.2468   26.3996 C   0  0  0  0  0  0  0  0  0  0  0  0
    5.8756    1.1439   24.9114 C   0  0  0  0  0  0  0  0  0  0  0  0
    7.0356    0.3204   24.6062 N   0  0  0  0  0  0  0  0  0  0  0  0
    6.8555   -0.8545   23.7753 C   0  0  0  0  0  0  0  0  0  0  0  0
    7.8893   -0.9314   22.6141 C   0  0  2  0  0  0  0  0  0  0  0  0
    7.3900   -0.0011   21.4633 C   0  0  0  0  0  0  0  0  0  0  0  0
    7.6744    1.1621   21.2525 O   0  0  0  0  0  0  0  0  0  0  0  0
    6.5558   -0.7478   20.6555 N   0  0  0  0  0  0  0  0  0  0  0  0
    5.8972   -0.1513   19.5635 C   0  0  0  0  0  0  0  0  0  0  0  0
    6.2527   -0.4698   18.2773 C   0  0  0  0  0  0  0  0  0  0  0  0
    5.6830    0.0751   17.1725 N   0  0  0  0  0  0  0  0  0  0  0  0
    4.7281    0.9572   17.3588 C   0  0  0  0  0  0  0  0  0  0  0  0
    4.2669    1.3756   18.6426 C   0  0  0  0  0  0  0  0  0  0  0  0
    3.2217    2.3220   18.8052 C   0  0  0  0  0  0  0  0  0  0  0  0
    2.7901    2.6814   20.0516 C   0  0  0  0  0  0  0  0  0  0  0  0
    3.3904    2.1242   21.2007 C   0  0  0  0  0  0  0  0  0  0  0  0
    4.4066    1.2161   21.0741 C   0  0  0  0  0  0  0  0  0  0  0  0
    4.8677    0.8149   19.7880 C   0  0  0  0  0  0  0  0  0  0  0  0
    4.8777    0.8029   21.9600 H   0  0  0  0  0  0  0  0  0  0  0  0
    3.0459    2.4077   22.1885 H   0  0  0  0  0  0  0  0  0  0  0  0
    1.9857    3.4002   20.1702 H   0  0  0  0  0  0  0  0  0  0  0  0
    2.7806    2.7608   17.9174 H   0  0  0  0  0  0  0  0  0  0  0  0
    4.2722    1.3867   16.4642 H   0  0  0  0  0  0  0  0  0  0  0  0
    7.0583   -1.1862   18.0995 H   0  0  0  0  0  0  0  0  0  0  0  0
    6.4934   -2.1490   21.0196 C   0  0  0  0  0  0  0  0  0  0  0  0
    7.7924   -2.2808   21.8256 C   0  0  2  0  0  0  0  0  0  0  0  0
    7.9665   -3.6117   22.5600 C   0  0  0  0  0  0  0  0  0  0  0  0
    6.8413   -4.0514   23.3646 N   0  0  0  0  0  0  0  0  0  0  0  0
    5.8601   -4.8672   22.9455 C   0  0  0  0  0  0  0  0  0  0  0  0
    5.9254   -5.3675   21.6932 N   0  0  0  0  0  0  0  0  0  0  0  0
    4.9432   -6.2119   21.4037 C   0  0  0  0  0  0  0  0  0  0  0  0
    3.9075   -6.5317   22.1804 N   0  0  0  0  0  0  0  0  0  0  0  0
    3.9386   -5.9383   23.3793 C   0  0  0  0  0  0  0  0  0  0  0  0
    4.8679   -5.1139   23.8302 N   0  0  0  0  0  0  0  0  0  0  0  0
    3.1135   -6.1492   24.0624 H   0  0  0  0  0  0  0  0  0  0  0  0
    4.9793   -6.6758   20.4144 H   0  0  0  0  0  0  0  0  0  0  0  0
    6.7714   -3.7711   24.3308 H   0  0  0  0  0  0  0  0  0  0  0  0
    8.1337   -4.3922   21.8146 H   0  0  0  0  0  0  0  0  0  0  0  0
    8.8494   -3.5815   23.2078 H   0  0  0  0  0  0  0  0  0  0  0  0
    8.6018   -2.2317   21.0823 H   0  0  0  0  0  0  0  0  0  0  0  0
    5.6021   -2.3806   21.6217 H   0  0  0  0  0  0  0  0  0  0  0  0
    6.4432   -2.7726   20.1260 H   0  0  0  0  0  0  0  0  0  0  0  0
    9.2650   -0.5624   23.1578 C   0  0  0  0  0  0  0  0  0  0  0  0
   10.5397   -1.1003   22.7479 C   0  0  0  0  0  0  0  0  0  0  0  0
   11.6010   -0.4848   23.3169 C   0  0  0  0  0  0  0  0  0  0  0  0
   13.0475   -1.3430   23.6451 Cl  0  0  0  0  0  0  0  0  0  0  0  0
   11.5640    0.8981   24.2627 C   0  0  0  0  0  0  0  0  0  0  0  0
   11.2913    0.5747   24.2370 C   0  0  0  0  0  0  0  0  0  0  0  0
    9.3777    0.3321   24.1754 C   0  0  0  0  0  0  0  0  0  0  0  0
    8.3022    0.7168   25.0564 C   0  0  0  0  0  0  0  0  0  0  0  0
    8.4065    1.3625   26.0884 O   0  0  0  0  0  0  0  0  0  0  0  0
   12.4474    0.6545   24.8803 H   0  0  0  0  0  0  0  0  0  0  0  0
   12.0091    1.8528   23.9019 H   0  0  0  0  0  0  0  0  0  0  0  0
   10.6591   -1.9864   22.1263 H   0  0  0  0  0  0  0  0  0  0  0  0
    5.8436   -0.8755   23.3736 H   0  0  0  0  0  0  0  0  0  0  0  0
    6.9459   -1.7568   24.3877 H   0  0  0  0  0  0  0  0  0  0  0  0
    6.0310    2.1638   24.5287 H   0  0  0  0  0  0  0  0  0  0  0  0
    5.0236    0.7252   24.3526 H   0  0  0  0  0  0  0  0  0  0  0  0
    6.1617    1.9331   26.8949 H   0  0  0  0  0  0  0  0  0  0  0  0
    4.4693    1.6316   26.4769 H   0  0  0  0  0  0  0  0  0  0  0  0
    4.6419   -0.2147   27.6229 H   0  0  0  0  0  0  0  0  0  0  0  0
    5.6598   -0.7974   26.3950 H   0  0  0  0  0  0  0  0  0  0  0  0
    6.8691    0.7355   28.5798 H   0  0  0  0  0  0  0  0  0  0  0  0
    7.5496   -0.5319   27.5850 H   0  0  0  0  0  0  0  0  0  0  0  0
    6.3997   -0.9411   28.8618 H   0  0  0  0  0  0  0  0  0  0  0  0
  1  2  1  0
  2  3  1  0
  3  4  1  0
  4  5  1  0
  5  6  1  0
  7  6  1  1
  7  8  1  0
  8  9  2  0
  8 10  1  0
 10 11  1  0
 11 12  2  0
 12 13  1  0
 13 14  2  0
 14 15  1  0
 15 16  2  0
 16 17  1  0
 17 18  2  0
 18 19  1  0
 19 20  2  0
 19 21  1  0
 18 22  1  0
 17 23  1  0
 16 24  1  0
 14 25  1  0
 12 26  1  0
 10 27  1  0
 27 28  1  0
 28 29  1  0
 29 30  1  0
 30 31  1  0
 31 32  2  0
 32 33  1  0
 33 34  2  0
 34 35  1  0
 35 36  2  0
 35 37  1  0
 33 38  1  0
 30 39  1  0
 29 40  1  0
 29 41  1  0
 28 42  1  6
 27 43  1  0
 27 44  1  0
  7 45  1  0
 45 46  2  0
 46 47  1  0
 47 48  1  0
 47 49  2  0
 49 50  1  0
 50 51  2  0
 51 52  1  0
 52 53  2  0
 50 54  1  0
 49 55  1  0
 46 56  1  0
  6 57  1  0
  6 58  1  0
  4 59  1  0
  4 60  1  0
  3 61  1  0
  3 62  1  0
  2 63  1  0
  2 64  1  0
  1 65  1  0
  1 66  1  0
  1 67  1  0
 52  5  1  0
 28  7  1  0
 36 31  1  0
 51 45  1  0
 20 11  1  0
 20 15  1  0
M  CHG  1   2   1
M  END
>  <cnnaffinities>  (24) 
[6.63763]

>  <score>  (24) 
6.63763

>  <index>  (24) 
29

>  <Smiles>  (24) 
C([N+](C(C(N1C([C@@]2(C(=O)N(c3c(nc(c4c(c(c(c(c34)[H])[H])[H])[H])[H])[H])C([C@@]2(C(N(c2nc(nc(n2)[H])[H])[H])([H])[H])[H])([H])[H])c2c(c(Cl)c(c(c2C1=O)[H])[H])[H])([H])[H])([H])[H])([H])[H])([H])[H])([H])([H])[H]

>  <h>  (24) 
<NA>

>  <Training>  (24) 
True

>  <Success>  (24) 
True

>  <enamine_searched>  (24) 
False

>  <enamine_id>  (24) 
nan

$$$$

     RDKit          3D

 64 70  0  0  0  0  0  0  0  0999 V2000
    6.3836    1.8000   25.1474 O   0  0  0  0  0  0  0  0  0  0  0  0
    8.7739    1.2939   25.1779 C   0  0  0  0  0  0  0  0  0  0  0  0
    9.9111    0.7670   24.1995 C   0  0  0  0  0  0  0  0  0  0  0  0
   11.4233    1.1051   24.3596 C   0  0  0  0  0  0  0  0  0  0  0  0
   12.4196    0.7762   23.5020 C   0  0  0  0  0  0  0  0  0  0  0  0
   11.8635   -0.1034   22.5263 C   0  0  0  0  0  0  0  0  0  0  0  0
   12.6088   -1.0684   21.0008 Cl  0  0  0  0  0  0  0  0  0  0  0  0
   10.5827   -0.3996   22.2694 C   0  0  0  0  0  0  0  0  0  0  0  0
    9.5879   -0.0719   23.1061 C   0  0  0  0  0  0  0  0  0  0  0  0
    8.2141   -0.5453   22.7891 C   0  0  1  0  0  0  0  0  0  0  0  0
    7.3098   -0.4072   24.0790 C   0  0  0  0  0  0  0  0  0  0  0  0
    7.5333    0.9257   24.6662 N   0  0  0  0  0  0  0  0  0  0  0  0
    6.3835    1.8002   25.1472 C   0  0  0  0  0  0  0  0  0  0  0  0
    6.2472    1.2767   26.5947 C   0  0  0  0  0  0  0  0  0  0  0  0
    6.4409    1.9414   27.6904 N   0  0  0  0  0  0  0  0  0  0  0  0
    5.8400    1.2176   28.7206 N   0  0  0  0  0  0  0  0  0  0  0  0
    5.1511    0.3082   28.1593 C   0  0  0  0  0  0  0  0  0  0  0  0
    5.1909    0.2596   26.8352 O   0  0  0  0  0  0  0  0  0  0  0  0
    4.5593   -0.4447   28.5958 H   0  0  0  0  0  0  0  0  0  0  0  0
    6.5339    3.0520   24.9809 H   0  0  0  0  0  0  0  0  0  0  0  0
    5.5819    2.0182   24.3721 H   0  0  0  0  0  0  0  0  0  0  0  0
    7.6769   -1.0277   24.9041 H   0  0  0  0  0  0  0  0  0  0  0  0
    6.2856   -0.5687   23.8241 H   0  0  0  0  0  0  0  0  0  0  0  0
    7.6285    0.3823   21.6847 C   0  0  0  0  0  0  0  0  0  0  0  0
    7.7566    1.5866   21.6667 O   0  0  0  0  0  0  0  0  0  0  0  0
    6.9253   -0.4073   20.8338 N   0  0  0  0  0  0  0  0  0  0  0  0
    6.1403    0.0974   19.7703 C   0  0  0  0  0  0  0  0  0  0  0  0
    6.4277   -0.2219   18.4744 C   0  0  0  0  0  0  0  0  0  0  0  0
    5.7582    0.2393   17.3713 N   0  0  0  0  0  0  0  0  0  0  0  0
    4.7376    1.0298   17.5736 C   0  0  0  0  0  0  0  0  0  0  0  0
    4.2906    1.4216   18.8727 C   0  0  0  0  0  0  0  0  0  0  0  0
    3.1566    2.2797   19.0543 C   0  0  0  0  0  0  0  0  0  0  0  0
    2.7468    2.6142   20.3046 C   0  0  0  0  0  0  0  0  0  0  0  0
    3.4294    2.1153   21.4399 C   0  0  0  0  0  0  0  0  0  0  0  0
    4.5011    1.2942   21.2902 C   0  0  0  0  0  0  0  0  0  0  0  0
    4.9868    0.9373   19.9963 C   0  0  0  0  0  0  0  0  0  0  0  0
    5.0242    0.8889   22.1508 H   0  0  0  0  0  0  0  0  0  0  0  0
    3.0847    2.3789   22.4327 H   0  0  0  0  0  0  0  0  0  0  0  0
    1.8917    3.2620   20.4523 H   0  0  0  0  0  0  0  0  0  0  0  0
    2.6364    2.6520   18.1743 H   0  0  0  0  0  0  0  0  0  0  0  0
    4.1944    1.4018   16.6995 H   0  0  0  0  0  0  0  0  0  0  0  0
    7.2829   -0.8642   18.2608 H   0  0  0  0  0  0  0  0  0  0  0  0
    6.9150   -1.8085   21.2336 C   0  0  0  0  0  0  0  0  0  0  0  0
    8.0581   -1.9371   22.2448 C   0  0  2  0  0  0  0  0  0  0  0  0
    7.8480   -3.0631   23.2786 C   0  0  0  0  0  0  0  0  0  0  0  0
    7.8508   -4.3771   22.6511 N   0  0  0  0  0  0  0  0  0  0  0  0
    6.7703   -5.0609   22.2319 C   0  0  0  0  0  0  0  0  0  0  0  0
    6.9175   -6.2500   21.4704 C   0  0  0  0  0  0  0  0  0  0  0  0
    5.7676   -6.8911   21.1035 C   0  0  0  0  0  0  0  0  0  0  0  0
    4.5416   -6.4878   21.4274 N   0  0  0  0  0  0  0  0  0  0  0  0
    4.5269   -5.3693   22.1134 C   0  0  0  0  0  0  0  0  0  0  0  0
    5.5462   -4.6139   22.5445 N   0  0  0  0  0  0  0  0  0  0  0  0
    3.5076   -5.0011   22.3659 H   0  0  0  0  0  0  0  0  0  0  0  0
    5.8016   -7.8010   20.5038 H   0  0  0  0  0  0  0  0  0  0  0  0
    7.8879   -6.6360   21.1733 H   0  0  0  0  0  0  0  0  0  0  0  0
    8.7709   -4.6867   22.4052 H   0  0  0  0  0  0  0  0  0  0  0  0
    8.6297   -3.0016   24.0505 H   0  0  0  0  0  0  0  0  0  0  0  0
    6.8930   -2.9511   23.7868 H   0  0  0  0  0  0  0  0  0  0  0  0
    8.9685   -2.1852   21.7054 H   0  0  0  0  0  0  0  0  0  0  0  0
    7.0863   -2.4481   20.3825 H   0  0  0  0  0  0  0  0  0  0  0  0
    5.9579   -2.0927   21.6765 H   0  0  0  0  0  0  0  0  0  0  0  0
   10.4999   -0.9365   21.3756 H   0  0  0  0  0  0  0  0  0  0  0  0
   13.4050    1.1665   23.7449 H   0  0  0  0  0  0  0  0  0  0  0  0
   11.6798    1.8057   25.1270 H   0  0  0  0  0  0  0  0  0  0  0  0
  1  2  2  0
  2  3  1  0
  3  4  2  0
  4  5  1  0
  5  6  2  0
  6  7  1  0
  6  8  1  0
  8  9  2  0
  9 10  1  0
 10 11  1  1
 11 12  1  0
 12 13  1  0
 13 14  1  0
 14 15  2  0
 15 16  1  0
 16 17  2  0
 17 18  1  0
 17 19  1  0
 13 20  1  0
 13 21  1  0
 11 22  1  0
 11 23  1  0
 10 24  1  0
 24 25  2  0
 24 26  1  0
 26 27  1  0
 27 28  2  0
 28 29  1  0
 29 30  2  0
 30 31  1  0
 31 32  2  0
 32 33  1  0
 33 34  2  0
 34 35  1  0
 35 36  2  0
 35 37  1  0
 34 38  1  0
 33 39  1  0
 32 40  1  0
 30 41  1  0
 28 42  1  0
 26 43  1  0
 43 44  1  0
 44 45  1  0
 45 46  1  0
 46 47  1  0
 47 48  2  0
 48 49  1  0
 49 50  2  0
 50 51  1  0
 51 52  2  0
 51 53  1  0
 49 54  1  0
 48 55  1  0
 46 56  1  0
 45 57  1  0
 45 58  1  0
 44 59  1  6
 43 60  1  0
 43 61  1  0
  8 62  1  0
  5 63  1  0
  4 64  1  0
 12  2  1  0
 18 14  1  0
 36 27  1  0
 52 47  1  0
  9  3  1  0
 44 10  1  0
 36 31  1  0
M  END
>  <cnnaffinities>  (25) 
[6.23881]

>  <score>  (25) 
6.23881

>  <index>  (25) 
31

>  <Smiles>  (25) 
O=C1c2c(c(c(Cl)c(c2[C@@]2(C(N1C(c1nnc(o1)[H])([H])[H])([H])[H])C(=O)N(c1c(nc(c3c(c(c(c(c13)[H])[H])[H])[H])[H])[H])C([C@@]2(C(N(c1c(c(nc(n1)[H])[H])[H])[H])([H])[H])[H])([H])[H])[H])[H])[H]

>  <h>  (25) 
<NA>

>  <Training>  (25) 
True

>  <Success>  (25) 
True

>  <enamine_searched>  (25) 
False

>  <enamine_id>  (25) 
nan

$$$$

     RDKit          3D

 72 77  0  0  0  0  0  0  0  0999 V2000
    9.7443   -1.9260   21.8862 C   0  0  0  0  0  0  0  0  0  0  0  0
    8.6162   -0.9874   22.3387 C   0  0  1  0  0  0  0  0  0  0  0  0
    8.1841   -0.0840   21.1652 C   0  0  0  0  0  0  0  0  0  0  0  0
    6.8500   -0.5199   20.8324 N   0  0  0  0  0  0  0  0  0  0  0  0
    6.1025    0.0459   19.7759 C   0  0  0  0  0  0  0  0  0  0  0  0
    6.4604   -0.2205   18.4780 C   0  0  0  0  0  0  0  0  0  0  0  0
    5.8013    0.2393   17.3880 N   0  0  0  0  0  0  0  0  0  0  0  0
    4.7632    1.0141   17.6037 C   0  0  0  0  0  0  0  0  0  0  0  0
    4.3079    1.3956   18.8992 C   0  0  0  0  0  0  0  0  0  0  0  0
    3.1954    2.2595   19.0608 C   0  0  0  0  0  0  0  0  0  0  0  0
    2.7890    2.6405   20.3093 C   0  0  0  0  0  0  0  0  0  0  0  0
    3.4821    2.1822   21.4541 C   0  0  0  0  0  0  0  0  0  0  0  0
    4.5623    1.3407   21.3301 C   0  0  0  0  0  0  0  0  0  0  0  0
    4.9929    0.9123   20.0362 C   0  0  0  0  0  0  0  0  0  0  0  0
    5.0915    1.0119   22.2265 H   0  0  0  0  0  0  0  0  0  0  0  0
    3.1532    2.5024   22.4382 H   0  0  0  0  0  0  0  0  0  0  0  0
    1.9363    3.3023   20.4323 H   0  0  0  0  0  0  0  0  0  0  0  0
    2.6891    2.6211   18.1704 H   0  0  0  0  0  0  0  0  0  0  0  0
    4.2274    1.3931   16.7334 H   0  0  0  0  0  0  0  0  0  0  0  0
    7.3125   -0.8725   18.2844 H   0  0  0  0  0  0  0  0  0  0  0  0
    6.3166   -1.4450   21.6893 C   0  0  0  0  0  0  0  0  0  0  0  0
    5.2339   -1.9810   21.5415 O   0  0  0  0  0  0  0  0  0  0  0  0
    7.3065   -1.6757   22.8447 C   0  0  1  0  0  0  0  0  0  0  0  0
    7.4960   -3.1812   23.0819 C   0  0  0  0  0  0  0  0  0  0  0  0
    6.3792   -3.7997   23.7697 N   0  0  0  0  0  0  0  0  0  0  0  0
    6.0242   -5.1602   23.4169 C   0  0  0  0  0  0  0  0  0  0  0  0
    4.8059   -5.2700   22.4933 C   0  0  0  0  0  0  0  0  0  0  0  0
    3.5071   -5.1715   23.2398 N   0  0  1  0  0  4  0  0  0  0  0  0
    2.9506   -3.7876   23.1965 C   0  0  0  0  0  0  0  0  0  0  0  0
    1.6139   -3.7310   23.9059 C   0  0  0  0  0  0  0  0  0  0  0  0
    0.6664   -4.5370   23.2401 O   0  0  0  0  0  0  0  0  0  0  0  0
    1.0445   -5.9217   23.2814 C   0  0  0  0  0  0  0  0  0  0  0  0
    0.0167   -6.6470   22.4201 C   0  0  0  0  0  0  0  0  0  0  0  0
    0.2288   -7.7212   22.3744 H   0  0  0  0  0  0  0  0  0  0  0  0
    0.0185   -6.2473   21.4009 H   0  0  0  0  0  0  0  0  0  0  0  0
   -0.9896   -6.5125   22.8320 H   0  0  0  0  0  0  0  0  0  0  0  0
    0.9870   -6.4218   24.7227 C   0  0  0  0  0  0  0  0  0  0  0  0
    1.1451   -7.5030   24.7770 H   0  0  0  0  0  0  0  0  0  0  0  0
    1.7593   -5.9517   25.3366 H   0  0  0  0  0  0  0  0  0  0  0  0
    0.0099   -6.1725   25.1500 H   0  0  0  0  0  0  0  0  0  0  0  0
    2.4482   -6.1016   22.6745 C   0  0  0  0  0  0  0  0  0  0  0  0
    2.3737   -5.8980   21.6028 H   0  0  0  0  0  0  0  0  0  0  0  0
    2.7679   -7.1385   22.8014 H   0  0  0  0  0  0  0  0  0  0  0  0
    1.2440   -2.7068   23.9330 H   0  0  0  0  0  0  0  0  0  0  0  0
    1.7416   -4.0441   24.9485 H   0  0  0  0  0  0  0  0  0  0  0  0
    2.7839   -3.5381   22.1433 H   0  0  0  0  0  0  0  0  0  0  0  0
    3.6451   -3.0661   23.6255 H   0  0  0  0  0  0  0  0  0  0  0  0
    3.7000   -5.3909   24.2349 H   0  0  0  0  0  0  0  0  0  0  0  0
    4.8304   -4.4887   21.7252 H   0  0  0  0  0  0  0  0  0  0  0  0
    4.8368   -6.2449   21.9988 H   0  0  0  0  0  0  0  0  0  0  0  0
    5.8144   -5.7038   24.3417 H   0  0  0  0  0  0  0  0  0  0  0  0
    6.8945   -5.6176   22.9388 H   0  0  0  0  0  0  0  0  0  0  0  0
    5.7609   -3.2375   24.8421 C   0  0  0  0  0  0  0  0  0  0  0  0
    4.9517   -3.8664   25.5256 O   0  0  0  0  0  0  0  0  0  0  0  0
    6.0580   -1.7874   25.0712 C   0  0  0  0  0  0  0  0  0  0  0  0
    5.5634   -1.1892   26.2294 C   0  0  0  0  0  0  0  0  0  0  0  0
    5.7098    0.1703   26.4309 C   0  0  0  0  0  0  0  0  0  0  0  0
    6.3531    0.9262   25.4513 C   0  0  0  0  0  0  0  0  0  0  0  0
    6.5088    2.6504   25.6662 Cl  0  0  0  0  0  0  0  0  0  0  0  0
    6.8717    0.3414   24.3087 C   0  0  0  0  0  0  0  0  0  0  0  0
    6.7574   -1.0409   24.1152 C   0  0  0  0  0  0  0  0  0  0  0  0
    7.3679    0.9721   23.5750 H   0  0  0  0  0  0  0  0  0  0  0  0
    5.3101    0.6602   27.3116 H   0  0  0  0  0  0  0  0  0  0  0  0
    5.0501   -1.8178   26.9512 H   0  0  0  0  0  0  0  0  0  0  0  0
    7.6256   -3.6820   22.1211 H   0  0  0  0  0  0  0  0  0  0  0  0
    8.4092   -3.3209   23.6715 H   0  0  0  0  0  0  0  0  0  0  0  0
    8.1930    0.9831   21.4240 H   0  0  0  0  0  0  0  0  0  0  0  0
    8.8482   -0.2093   20.3080 H   0  0  0  0  0  0  0  0  0  0  0  0
    9.0285   -0.3882   23.1566 H   0  0  0  0  0  0  0  0  0  0  0  0
   10.5875   -1.3404   21.5036 H   0  0  0  0  0  0  0  0  0  0  0  0
    9.4128   -2.5909   21.0811 H   0  0  0  0  0  0  0  0  0  0  0  0
   10.1307   -2.5358   22.7085 H   0  0  0  0  0  0  0  0  0  0  0  0
  1  2  1  0
  2  3  1  0
  3  4  1  0
  4  5  1  0
  5  6  2  0
  6  7  1  0
  7  8  2  0
  8  9  1  0
  9 10  2  0
 10 11  1  0
 11 12  2  0
 12 13  1  0
 13 14  2  0
 13 15  1  0
 12 16  1  0
 11 17  1  0
 10 18  1  0
  8 19  1  0
  6 20  1  0
  4 21  1  0
 21 22  2  0
 21 23  1  0
 23 24  1  1
 24 25  1  0
 25 26  1  0
 26 27  1  0
 27 28  1  0
 28 29  1  0
 29 30  1  0
 30 31  1  0
 31 32  1  0
 32 33  1  0
 33 34  1  0
 33 35  1  0
 33 36  1  0
 32 37  1  0
 37 38  1  0
 37 39  1  0
 37 40  1  0
 32 41  1  0
 41 42  1  0
 41 43  1  0
 30 44  1  0
 30 45  1  0
 29 46  1  0
 29 47  1  0
 28 48  1  1
 27 49  1  0
 27 50  1  0
 26 51  1  0
 26 52  1  0
 25 53  1  0
 53 54  2  0
 53 55  1  0
 55 56  2  0
 56 57  1  0
 57 58  2  0
 58 59  1  0
 58 60  1  0
 60 61  2  0
 60 62  1  0
 57 63  1  0
 56 64  1  0
 24 65  1  0
 24 66  1  0
  3 67  1  0
  3 68  1  0
  2 69  1  1
  1 70  1  0
  1 71  1  0
  1 72  1  0
 23  2  1  0
 41 28  1  0
 61 55  1  0
 14  5  1  0
 61 23  1  0
 14  9  1  0
M  CHG  1  28   1
M  END
>  <cnnaffinities>  (26) 
[6.37088, 6.34634]

>  <score>  (26) 
6.37088

>  <index>  (26) 
32

>  <Smiles>  (26) 
C([C@]1(C(N(c2c(nc(c3c(c(c(c(c23)[H])[H])[H])[H])[H])[H])C(=O)[C@]21C(N(C(C([N@+]1(C(C(OC(C([H])([H])[H])(C([H])([H])[H])C1([H])[H])([H])[H])([H])[H])[H])([H])[H])([H])[H])C(=O)c1c(c(c(Cl)c(c21)[H])[H])[H])([H])[H])([H])[H])[H])([H])([H])[H]

>  <h>  (26) 
<NA>

>  <Training>  (26) 
True

>  <Success>  (26) 
True

>  <enamine_searched>  (26) 
False

>  <enamine_id>  (26) 
nan

$$$$

     RDKit          3D

 44 47  0  0  0  0  0  0  0  0999 V2000
    5.4454   -2.3990   20.9430 O   0  0  0  0  0  0  0  0  0  0  0  0
    6.2318   -1.7168   21.5855 C   0  0  0  0  0  0  0  0  0  0  0  0
    6.9125   -0.4904   20.9241 C   0  0  0  0  0  0  0  0  0  0  0  0
    6.1132    0.0833   19.7718 C   0  0  0  0  0  0  0  0  0  0  0  0
    6.4210   -0.2153   18.4679 C   0  0  0  0  0  0  0  0  0  0  0  0
    5.7595    0.2392   17.3654 N   0  0  0  0  0  0  0  0  0  0  0  0
    4.7360    1.0301   17.5761 C   0  0  0  0  0  0  0  0  0  0  0  0
    4.2862    1.4226   18.8683 C   0  0  0  0  0  0  0  0  0  0  0  0
    3.1664    2.2752   19.0443 C   0  0  0  0  0  0  0  0  0  0  0  0
    2.7528    2.6304   20.2972 C   0  0  0  0  0  0  0  0  0  0  0  0
    3.4494    2.1416   21.4277 C   0  0  0  0  0  0  0  0  0  0  0  0
    4.5347    1.3133   21.2924 C   0  0  0  0  0  0  0  0  0  0  0  0
    4.9888    0.9358   20.0006 C   0  0  0  0  0  0  0  0  0  0  0  0
    5.0485    0.9469   22.1810 H   0  0  0  0  0  0  0  0  0  0  0  0
    3.1100    2.4292   22.4160 H   0  0  0  0  0  0  0  0  0  0  0  0
    1.8963    3.2861   20.4376 H   0  0  0  0  0  0  0  0  0  0  0  0
    2.6468    2.6472   18.1631 H   0  0  0  0  0  0  0  0  0  0  0  0
    4.2000    1.3990   16.6981 H   0  0  0  0  0  0  0  0  0  0  0  0
    7.2654   -0.8665   18.2450 H   0  0  0  0  0  0  0  0  0  0  0  0
    7.8734   -0.8395   20.5202 H   0  0  0  0  0  0  0  0  0  0  0  0
    7.1575    0.2946   21.6510 H   0  0  0  0  0  0  0  0  0  0  0  0
    6.5548   -2.0573   22.8728 N   0  0  0  0  0  0  0  0  0  0  0  0
    6.0865   -3.3289   23.4230 C   0  0  0  0  0  0  0  0  0  0  0  0
    6.5999   -3.3633   24.8648 C   0  0  0  0  0  0  0  0  0  0  0  0
    7.6637   -2.2665   24.9544 C   0  0  0  0  0  0  0  0  0  0  0  0
    7.3550   -1.2851   23.8124 C   0  0  2  0  0  0  0  0  0  0  0  0
    6.6484   -0.0320   24.2983 C   0  0  0  0  0  0  0  0  0  0  0  0
    7.3312    1.1830   24.3536 C   0  0  0  0  0  0  0  0  0  0  0  0
    6.6928    2.3320   24.8060 C   0  0  0  0  0  0  0  0  0  0  0  0
    5.3701    2.2930   25.2262 C   0  0  0  0  0  0  0  0  0  0  0  0
    4.7238    1.0678   25.1921 C   0  0  0  0  0  0  0  0  0  0  0  0
    3.4436    1.0105   25.5949 F   0  0  0  0  0  0  0  0  0  0  0  0
    5.3322   -0.0926   24.7461 C   0  0  0  0  0  0  0  0  0  0  0  0
    4.7627   -1.0178   24.7455 H   0  0  0  0  0  0  0  0  0  0  0  0
    4.8443    3.1793   25.5654 H   0  0  0  0  0  0  0  0  0  0  0  0
    7.2283    3.2719   24.8146 H   0  0  0  0  0  0  0  0  0  0  0  0
    8.3691    1.2332   24.0301 H   0  0  0  0  0  0  0  0  0  0  0  0
    8.2877   -0.9857   23.3319 H   0  0  0  0  0  0  0  0  0  0  0  0
    7.6550   -1.7675   25.9249 H   0  0  0  0  0  0  0  0  0  0  0  0
    8.6668   -2.6862   24.8394 H   0  0  0  0  0  0  0  0  0  0  0  0
    7.0161   -4.3381   25.1235 H   0  0  0  0  0  0  0  0  0  0  0  0
    5.7938   -3.1835   25.5807 H   0  0  0  0  0  0  0  0  0  0  0  0
    6.4903   -4.1490   22.8253 H   0  0  0  0  0  0  0  0  0  0  0  0
    4.9963   -3.4127   23.3740 H   0  0  0  0  0  0  0  0  0  0  0  0
  1  2  2  0
  2  3  1  0
  3  4  1  0
  4  5  2  0
  5  6  1  0
  6  7  2  0
  7  8  1  0
  8  9  2  0
  9 10  1  0
 10 11  2  0
 11 12  1  0
 12 13  2  0
 12 14  1  0
 11 15  1  0
 10 16  1  0
  9 17  1  0
  7 18  1  0
  5 19  1  0
  3 20  1  0
  3 21  1  0
  2 22  1  0
 22 23  1  0
 23 24  1  0
 24 25  1  0
 25 26  1  0
 26 27  1  0
 27 28  2  0
 28 29  1  0
 29 30  2  0
 30 31  1  0
 31 32  1  0
 31 33  2  0
 33 34  1  0
 30 35  1  0
 29 36  1  0
 28 37  1  0
 26 38  1  6
 25 39  1  0
 25 40  1  0
 24 41  1  0
 24 42  1  0
 23 43  1  0
 23 44  1  0
 13  4  1  0
 26 22  1  0
 33 27  1  0
 13  8  1  0
M  END
>  <cnnaffinities>  (27) 
[5.64569, 5.62393]

>  <score>  (27) 
5.64569

>  <index>  (27) 
33

>  <Smiles>  (27) 
O=C(C(c1c(nc(c2c(c(c(c(c12)[H])[H])[H])[H])[H])[H])([H])[H])N1C(C(C([C@@]1(c1c(c(c(c(F)c1[H])[H])[H])[H])[H])([H])[H])([H])[H])([H])[H]

>  <h>  (27) 
<NA>

>  <Training>  (27) 
True

>  <Success>  (27) 
True

>  <enamine_searched>  (27) 
False

>  <enamine_id>  (27) 
nan

$$$$

     RDKit          3D

 51 54  0  0  0  0  0  0  0  0999 V2000
   13.0896   -3.5534   25.6777 N   0  0  0  0  0  0  0  0  0  0  0  0
   12.8507   -2.7574   24.8761 C   0  0  0  0  0  0  0  0  0  0  0  0
   12.4312   -1.6710   23.9694 C   0  0  0  0  0  0  0  0  0  0  0  0
   11.0022   -1.8757   23.5012 C   0  0  0  0  0  0  0  0  0  0  0  0
    9.9101   -1.1565   23.9828 C   0  0  0  0  0  0  0  0  0  0  0  0
    8.6260   -1.4258   23.5191 C   0  0  0  0  0  0  0  0  0  0  0  0
    8.4176   -2.4138   22.5583 C   0  0  0  0  0  0  0  0  0  0  0  0
    7.1136   -2.7198   22.0607 N   0  0  0  0  0  0  0  0  0  0  0  0
    6.5261   -4.0162   22.4410 C   0  0  0  0  0  0  0  0  0  0  0  0
    5.9749   -4.0170   23.8566 C   0  0  0  0  0  0  0  0  0  0  0  0
    6.8213   -4.2218   24.9470 C   0  0  0  0  0  0  0  0  0  0  0  0
    6.3278   -4.1444   26.2446 C   0  0  0  0  0  0  0  0  0  0  0  0
    4.9832   -3.8760   26.4730 C   0  0  0  0  0  0  0  0  0  0  0  0
    4.1462   -3.6791   25.3830 C   0  0  0  0  0  0  0  0  0  0  0  0
    2.4619   -3.3268   25.6531 Cl  0  0  0  0  0  0  0  0  0  0  0  0
    4.6251   -3.7466   24.0812 C   0  0  0  0  0  0  0  0  0  0  0  0
    3.9546   -3.5661   23.2456 H   0  0  0  0  0  0  0  0  0  0  0  0
    4.5897   -3.8150   27.4831 H   0  0  0  0  0  0  0  0  0  0  0  0
    6.9965   -4.2955   27.0885 H   0  0  0  0  0  0  0  0  0  0  0  0
    7.8791   -4.4230   24.7812 H   0  0  0  0  0  0  0  0  0  0  0  0
    5.7391   -4.2659   21.7225 H   0  0  0  0  0  0  0  0  0  0  0  0
    7.3090   -4.7787   22.3579 H   0  0  0  0  0  0  0  0  0  0  0  0
    6.2815   -1.7783   21.4783 C   0  0  0  0  0  0  0  0  0  0  0  0
    5.0800   -1.9594   21.3886 O   0  0  0  0  0  0  0  0  0  0  0  0
    6.9279   -0.5064   20.8818 C   0  0  0  0  0  0  0  0  0  0  0  0
    6.1149    0.0884   19.7624 C   0  0  0  0  0  0  0  0  0  0  0  0
    6.4238   -0.2124   18.4626 C   0  0  0  0  0  0  0  0  0  0  0  0
    5.7590    0.2365   17.3645 N   0  0  0  0  0  0  0  0  0  0  0  0
    4.7355    1.0282   17.5780 C   0  0  0  0  0  0  0  0  0  0  0  0
    4.2861    1.4189   18.8676 C   0  0  0  0  0  0  0  0  0  0  0  0
    3.1654    2.2723   19.0429 C   0  0  0  0  0  0  0  0  0  0  0  0
    2.7498    2.6227   20.2975 C   0  0  0  0  0  0  0  0  0  0  0  0
    3.4377    2.1340   21.4300 C   0  0  0  0  0  0  0  0  0  0  0  0
    4.5242    1.3075   21.2874 C   0  0  0  0  0  0  0  0  0  0  0  0
    4.9861    0.9319   19.9974 C   0  0  0  0  0  0  0  0  0  0  0  0
    5.0257    0.9216   22.1693 H   0  0  0  0  0  0  0  0  0  0  0  0
    3.0946    2.4129   22.4227 H   0  0  0  0  0  0  0  0  0  0  0  0
    1.8910    3.2759   20.4315 H   0  0  0  0  0  0  0  0  0  0  0  0
    2.6510    2.6439   18.1597 H   0  0  0  0  0  0  0  0  0  0  0  0
    4.2015    1.3981   16.7013 H   0  0  0  0  0  0  0  0  0  0  0  0
    7.2683   -0.8675   18.2428 H   0  0  0  0  0  0  0  0  0  0  0  0
    7.9297   -0.7639   20.5306 H   0  0  0  0  0  0  0  0  0  0  0  0
    7.0780    0.2230   21.6850 H   0  0  0  0  0  0  0  0  0  0  0  0
    9.5036   -3.1428   22.0947 C   0  0  0  0  0  0  0  0  0  0  0  0
   10.7786   -2.8669   22.5573 C   0  0  0  0  0  0  0  0  0  0  0  0
   11.6456   -3.4128   22.2084 H   0  0  0  0  0  0  0  0  0  0  0  0
    9.3327   -3.9087   21.3532 H   0  0  0  0  0  0  0  0  0  0  0  0
    7.7753   -0.8822   23.9168 H   0  0  0  0  0  0  0  0  0  0  0  0
   10.0495   -0.3763   24.7276 H   0  0  0  0  0  0  0  0  0  0  0  0
   12.5499   -0.7085   24.4719 H   0  0  0  0  0  0  0  0  0  0  0  0
   13.1349   -1.6804   23.1359 H   0  0  0  0  0  0  0  0  0  0  0  0
  1  2  3  0
  2  3  1  0
  3  4  1  0
  4  5  2  0
  5  6  1  0
  6  7  2  0
  7  8  1  0
  8  9  1  0
  9 10  1  0
 10 11  2  0
 11 12  1  0
 12 13  2  0
 13 14  1  0
 14 15  1  0
 14 16  2  0
 16 17  1  0
 13 18  1  0
 12 19  1  0
 11 20  1  0
  9 21  1  0
  9 22  1  0
  8 23  1  0
 23 24  2  0
 23 25  1  0
 25 26  1  0
 26 27  2  0
 27 28  1  0
 28 29  2  0
 29 30  1  0
 30 31  2  0
 31 32  1  0
 32 33  2  0
 33 34  1  0
 34 35  2  0
 34 36  1  0
 33 37  1  0
 32 38  1  0
 31 39  1  0
 29 40  1  0
 27 41  1  0
 25 42  1  0
 25 43  1  0
  7 44  1  0
 44 45  2  0
 45 46  1  0
 44 47  1  0
  6 48  1  0
  5 49  1  0
  3 50  1  0
  3 51  1  0
 45  4  1  0
 16 10  1  0
 35 26  1  0
 35 30  1  0
M  END
>  <cnnaffinities>  (28) 
[6.4312]

>  <score>  (28) 
6.4312

>  <index>  (28) 
35

>  <Smiles>  (28) 
N#CC(c1c(c(c(N(C(c2c(c(c(c(Cl)c2[H])[H])[H])[H])([H])[H])C(=O)C(c2c(nc(c3c(c(c(c(c23)[H])[H])[H])[H])[H])[H])([H])[H])c(c1[H])[H])[H])[H])([H])[H]

>  <h>  (28) 
<NA>

>  <Training>  (28) 
True

>  <Success>  (28) 
True

>  <enamine_searched>  (28) 
False

>  <enamine_id>  (28) 
nan

$$$$

     RDKit          3D

 48 51  0  0  0  0  0  0  0  0999 V2000
   13.4256   -1.3690   24.3289 N   0  0  0  0  0  0  0  0  0  0  0  0
   12.3606   -1.6068   23.9406 C   0  0  0  0  0  0  0  0  0  0  0  0
   11.0226   -1.8904   23.4726 C   0  0  0  0  0  0  0  0  0  0  0  0
    9.9256   -1.1770   23.9591 C   0  0  0  0  0  0  0  0  0  0  0  0
    8.6458   -1.4532   23.4963 C   0  0  0  0  0  0  0  0  0  0  0  0
    8.4309   -2.4418   22.5343 C   0  0  0  0  0  0  0  0  0  0  0  0
    7.1243   -2.7419   22.0368 N   0  0  0  0  0  0  0  0  0  0  0  0
    6.5278   -4.0344   22.4241 C   0  0  0  0  0  0  0  0  0  0  0  0
    5.9678   -4.0422   23.8358 C   0  0  0  0  0  0  0  0  0  0  0  0
    6.8150   -4.2321   24.9280 C   0  0  0  0  0  0  0  0  0  0  0  0
    6.3151   -4.1535   26.2215 C   0  0  0  0  0  0  0  0  0  0  0  0
    4.9691   -3.8984   26.4462 C   0  0  0  0  0  0  0  0  0  0  0  0
    4.1353   -3.7079   25.3542 C   0  0  0  0  0  0  0  0  0  0  0  0
    2.4516   -3.3746   25.6177 Cl  0  0  0  0  0  0  0  0  0  0  0  0
    4.6164   -3.7784   24.0544 C   0  0  0  0  0  0  0  0  0  0  0  0
    3.9492   -3.6064   23.2150 H   0  0  0  0  0  0  0  0  0  0  0  0
    4.5764   -3.8439   27.4557 H   0  0  0  0  0  0  0  0  0  0  0  0
    6.9805   -4.3021   27.0652 H   0  0  0  0  0  0  0  0  0  0  0  0
    7.8764   -4.4202   24.7671 H   0  0  0  0  0  0  0  0  0  0  0  0
    7.3039   -4.8027   22.3447 H   0  0  0  0  0  0  0  0  0  0  0  0
    5.7508   -4.2964   21.7029 H   0  0  0  0  0  0  0  0  0  0  0  0
    6.2917   -1.7733   21.4888 C   0  0  0  0  0  0  0  0  0  0  0  0
    5.0893   -1.9402   21.4123 O   0  0  0  0  0  0  0  0  0  0  0  0
    6.9389   -0.5070   20.8860 C   0  0  0  0  0  0  0  0  0  0  0  0
    6.1184    0.0921   19.7662 C   0  0  0  0  0  0  0  0  0  0  0  0
    6.4207   -0.2104   18.4646 C   0  0  0  0  0  0  0  0  0  0  0  0
    5.7587    0.2376   17.3627 N   0  0  0  0  0  0  0  0  0  0  0  0
    4.7353    1.0307   17.5758 C   0  0  0  0  0  0  0  0  0  0  0  0
    4.2853    1.4230   18.8673 C   0  0  0  0  0  0  0  0  0  0  0  0
    3.1622    2.2755   19.0423 C   0  0  0  0  0  0  0  0  0  0  0  0
    2.7459    2.6244   20.2978 C   0  0  0  0  0  0  0  0  0  0  0  0
    3.4346    2.1371   21.4289 C   0  0  0  0  0  0  0  0  0  0  0  0
    4.5239    1.3136   21.2875 C   0  0  0  0  0  0  0  0  0  0  0  0
    4.9862    0.9349   19.9993 C   0  0  0  0  0  0  0  0  0  0  0  0
    5.0257    0.9274   22.1687 H   0  0  0  0  0  0  0  0  0  0  0  0
    3.0914    2.4115   22.4212 H   0  0  0  0  0  0  0  0  0  0  0  0
    1.8876    3.2762   20.4337 H   0  0  0  0  0  0  0  0  0  0  0  0
    2.6421    2.6471   18.1614 H   0  0  0  0  0  0  0  0  0  0  0  0
    4.1975    1.4001   16.6997 H   0  0  0  0  0  0  0  0  0  0  0  0
    7.2636   -0.8653   18.2480 H   0  0  0  0  0  0  0  0  0  0  0  0
    7.9423   -0.7518   20.5195 H   0  0  0  0  0  0  0  0  0  0  0  0
    7.0821    0.2326   21.6825 H   0  0  0  0  0  0  0  0  0  0  0  0
    9.5231   -3.1664   22.0720 C   0  0  0  0  0  0  0  0  0  0  0  0
   10.8060   -2.8869   22.5213 C   0  0  0  0  0  0  0  0  0  0  0  0
   11.6696   -3.4176   22.1500 H   0  0  0  0  0  0  0  0  0  0  0  0
    9.3526   -3.9241   21.3212 H   0  0  0  0  0  0  0  0  0  0  0  0
    7.8042   -0.9005   23.8972 H   0  0  0  0  0  0  0  0  0  0  0  0
   10.0834   -0.3968   24.6943 H   0  0  0  0  0  0  0  0  0  0  0  0
  1  2  3  0
  2  3  1  0
  3  4  2  0
  4  5  1  0
  5  6  2  0
  6  7  1  0
  7  8  1  0
  8  9  1  0
  9 10  2  0
 10 11  1  0
 11 12  2  0
 12 13  1  0
 13 14  1  0
 13 15  2  0
 15 16  1  0
 12 17  1  0
 11 18  1  0
 10 19  1  0
  8 20  1  0
  8 21  1  0
  7 22  1  0
 22 23  2  0
 22 24  1  0
 24 25  1  0
 25 26  2  0
 26 27  1  0
 27 28  2  0
 28 29  1  0
 29 30  2  0
 30 31  1  0
 31 32  2  0
 32 33  1  0
 33 34  2  0
 33 35  1  0
 32 36  1  0
 31 37  1  0
 30 38  1  0
 28 39  1  0
 26 40  1  0
 24 41  1  0
 24 42  1  0
  6 43  1  0
 43 44  2  0
 44 45  1  0
 43 46  1  0
  5 47  1  0
  4 48  1  0
 44  3  1  0
 15  9  1  0
 34 25  1  0
 34 29  1  0
M  END
>  <cnnaffinities>  (29) 
[6.50672]

>  <score>  (29) 
6.50672

>  <index>  (29) 
37

>  <Smiles>  (29) 
N#Cc1c(c(c(N(C(c2c(c(c(c(Cl)c2[H])[H])[H])[H])([H])[H])C(=O)C(c2c(nc(c3c(c(c(c(c23)[H])[H])[H])[H])[H])[H])([H])[H])c(c1[H])[H])[H])[H]

>  <h>  (29) 
<NA>

>  <Training>  (29) 
True

>  <Success>  (29) 
True

>  <enamine_searched>  (29) 
False

>  <enamine_id>  (29) 
nan

$$$$

     RDKit          3D

 72 77  0  0  0  0  0  0  0  0999 V2000
    6.6516   -8.4301   23.0706 C   0  0  0  0  0  0  0  0  0  0  0  0
    7.1587   -7.0601   22.8632 N   0  0  0  0  0  4  0  0  0  0  0  0
    6.9122   -6.4917   21.4989 C   0  0  0  0  0  0  0  0  0  0  0  0
    5.9178   -5.3231   21.5721 C   0  0  0  0  0  0  0  0  0  0  0  0
    6.3391   -4.2760   22.4926 N   0  0  0  0  0  0  0  0  0  0  0  0
    7.3754   -3.3396   22.1143 C   0  0  0  0  0  0  0  0  0  0  0  0
    7.0087   -1.8940   22.5204 C   0  0  2  0  0  0  0  0  0  0  0  0
    5.8602   -1.4624   21.5705 C   0  0  0  0  0  0  0  0  0  0  0  0
    4.7070   -1.8377   21.6092 O   0  0  0  0  0  0  0  0  0  0  0  0
    6.3875   -0.6381   20.5954 N   0  0  0  0  0  0  0  0  0  0  0  0
    5.6598   -0.0652   19.5315 C   0  0  0  0  0  0  0  0  0  0  0  0
    6.0140   -0.3327   18.2318 C   0  0  0  0  0  0  0  0  0  0  0  0
    5.4394    0.2268   17.1392 N   0  0  0  0  0  0  0  0  0  0  0  0
    4.4924    1.1102   17.3489 C   0  0  0  0  0  0  0  0  0  0  0  0
    4.0288    1.4878   18.6420 C   0  0  0  0  0  0  0  0  0  0  0  0
    3.0092    2.4648   18.8158 C   0  0  0  0  0  0  0  0  0  0  0  0
    2.6147    2.8376   20.0721 C   0  0  0  0  0  0  0  0  0  0  0  0
    3.2164    2.2555   21.2116 C   0  0  0  0  0  0  0  0  0  0  0  0
    4.1955    1.3040   21.0693 C   0  0  0  0  0  0  0  0  0  0  0  0
    4.6244    0.8935   19.7751 C   0  0  0  0  0  0  0  0  0  0  0  0
    4.6505    0.8578   21.9469 H   0  0  0  0  0  0  0  0  0  0  0  0
    2.8966    2.5555   22.2069 H   0  0  0  0  0  0  0  0  0  0  0  0
    1.8458    3.5953   20.2066 H   0  0  0  0  0  0  0  0  0  0  0  0
    2.5678    2.9179   17.9309 H   0  0  0  0  0  0  0  0  0  0  0  0
    4.0436    1.5754   16.4718 H   0  0  0  0  0  0  0  0  0  0  0  0
    6.8019   -1.0554   18.0307 H   0  0  0  0  0  0  0  0  0  0  0  0
    7.8222   -0.4659   20.6905 C   0  0  0  0  0  0  0  0  0  0  0  0
    8.1432   -0.9144   22.1203 C   0  0  2  0  0  0  0  0  0  0  0  0
    9.5476   -1.5003   22.1906 C   0  0  0  0  0  0  0  0  0  0  0  0
   10.5227   -0.5776   21.7706 O   0  0  0  0  0  0  0  0  0  0  0  0
   10.9776    0.3412   22.7321 C   0  0  0  0  0  0  0  0  0  0  0  0
   11.3429   -0.2918   24.0636 C   0  0  0  0  0  0  0  0  0  0  0  0
   12.5477    0.4342   24.7113 C   0  0  0  0  0  0  0  0  0  0  0  0
   13.6325   -0.9406   24.2172 S   0  0  0  0  0  0  0  0  0  0  0  0
   14.3257   -0.5559   23.0083 O   0  0  0  0  0  0  0  0  0  0  0  0
   14.3268   -1.6064   25.3137 O   0  0  0  0  0  0  0  0  0  0  0  0
   12.0335   -1.6717   23.8741 C   0  0  0  0  0  0  0  0  0  0  0  0
   11.7795   -2.4018   24.6399 H   0  0  0  0  0  0  0  0  0  0  0  0
   12.0019   -2.1113   22.8748 H   0  0  0  0  0  0  0  0  0  0  0  0
   12.5328    0.5121   25.7944 H   0  0  0  0  0  0  0  0  0  0  0  0
   12.8785    1.3740   24.2532 H   0  0  0  0  0  0  0  0  0  0  0  0
   10.4832   -0.3218   24.7373 H   0  0  0  0  0  0  0  0  0  0  0  0
   11.8519    0.7882   22.2772 H   0  0  0  0  0  0  0  0  0  0  0  0
   10.2750    1.1720   22.8690 H   0  0  0  0  0  0  0  0  0  0  0  0
    9.6270   -2.3534   21.4987 H   0  0  0  0  0  0  0  0  0  0  0  0
    9.7576   -1.8494   23.2096 H   0  0  0  0  0  0  0  0  0  0  0  0
    8.0966   -0.0343   22.7694 H   0  0  0  0  0  0  0  0  0  0  0  0
    8.3535   -1.0807   19.9508 H   0  0  0  0  0  0  0  0  0  0  0  0
    8.0917    0.5762   20.5011 H   0  0  0  0  0  0  0  0  0  0  0  0
    6.6412   -1.9241   23.9951 C   0  0  0  0  0  0  0  0  0  0  0  0
    6.7306   -0.7895   24.8169 C   0  0  0  0  0  0  0  0  0  0  0  0
    6.4331   -0.8778   26.1666 C   0  0  0  0  0  0  0  0  0  0  0  0
    6.5531    0.5490   27.1637 Cl  0  0  0  0  0  0  0  0  0  0  0  0
    6.0479   -2.0769   26.7626 C   0  0  0  0  0  0  0  0  0  0  0  0
    5.9144   -3.1888   25.9570 C   0  0  0  0  0  0  0  0  0  0  0  0
    6.1955   -3.1175   24.5938 C   0  0  0  0  0  0  0  0  0  0  0  0
    6.0144   -4.3632   23.8016 C   0  0  0  0  0  0  0  0  0  0  0  0
    5.6091   -5.4189   24.3071 O   0  0  0  0  0  0  0  0  0  0  0  0
    5.5798   -4.1379   26.3609 H   0  0  0  0  0  0  0  0  0  0  0  0
    5.8491   -2.1246   27.8283 H   0  0  0  0  0  0  0  0  0  0  0  0
    7.0185    0.1772   24.4196 H   0  0  0  0  0  0  0  0  0  0  0  0
    7.4946   -3.3653   21.0390 H   0  0  0  0  0  0  0  0  0  0  0  0
    8.3207   -3.6286   22.5944 H   0  0  0  0  0  0  0  0  0  0  0  0
    4.9557   -5.6960   21.9425 H   0  0  0  0  0  0  0  0  0  0  0  0
    5.7549   -4.8683   20.5860 H   0  0  0  0  0  0  0  0  0  0  0  0
    7.8603   -6.1691   21.0542 H   0  0  0  0  0  0  0  0  0  0  0  0
    6.4995   -7.2656   20.8487 H   0  0  0  0  0  0  0  0  0  0  0  0
    6.6495   -6.4737   23.5499 H   0  0  0  0  0  0  0  0  0  0  0  0
    8.1619   -7.0277   23.1164 H   0  0  0  0  0  0  0  0  0  0  0  0
    7.1512   -8.9107   23.9128 H   0  0  0  0  0  0  0  0  0  0  0  0
    6.7922   -9.0423   22.1751 H   0  0  0  0  0  0  0  0  0  0  0  0
    5.5815   -8.3756   23.2927 H   0  0  0  0  0  0  0  0  0  0  0  0
  1  2  1  0
  2  3  1  0
  3  4  1  0
  4  5  1  0
  5  6  1  0
  7  6  1  6
  7  8  1  0
  8  9  2  0
  8 10  1  0
 10 11  1  0
 11 12  2  0
 12 13  1  0
 13 14  2  0
 14 15  1  0
 15 16  2  0
 16 17  1  0
 17 18  2  0
 18 19  1  0
 19 20  2  0
 19 21  1  0
 18 22  1  0
 17 23  1  0
 16 24  1  0
 14 25  1  0
 12 26  1  0
 10 27  1  0
 27 28  1  0
 28 29  1  0
 29 30  1  0
 30 31  1  0
 31 32  1  0
 32 33  1  0
 33 34  1  0
 34 35  2  0
 34 36  2  0
 34 37  1  0
 37 38  1  0
 37 39  1  0
 33 40  1  0
 33 41  1  0
 32 42  1  0
 31 43  1  0
 31 44  1  0
 29 45  1  0
 29 46  1  0
 28 47  1  1
 27 48  1  0
 27 49  1  0
  7 50  1  0
 50 51  2  0
 51 52  1  0
 52 53  1  0
 52 54  2  0
 54 55  1  0
 55 56  2  0
 56 57  1  0
 57 58  2  0
 55 59  1  0
 54 60  1  0
 51 61  1  0
  6 62  1  0
  6 63  1  0
  4 64  1  0
  4 65  1  0
  3 66  1  0
  3 67  1  0
  2 68  1  0
  2 69  1  0
  1 70  1  0
  1 71  1  0
  1 72  1  0
 57  5  1  0
 28  7  1  0
 37 32  1  0
 56 50  1  0
 20 11  1  0
 20 15  1  0
M  CHG  1   2   1
M  END
>  <cnnaffinities>  (30) 
[6.83585]

>  <score>  (30) 
6.83585

>  <index>  (30) 
38

>  <Smiles>  (30) 
C([N+](C(C(N1C([C@@]2(C(=O)N(c3c(nc(c4c(c(c(c(c34)[H])[H])[H])[H])[H])[H])C([C@@]2(C(OC(C2(C(S(=O)(=O)C2([H])[H])([H])[H])[H])([H])[H])([H])[H])[H])([H])[H])c2c(c(Cl)c(c(c2C1=O)[H])[H])[H])([H])[H])([H])[H])([H])[H])([H])[H])([H])([H])[H]

>  <h>  (30) 
<NA>

>  <Training>  (30) 
True

>  <Success>  (30) 
True

>  <enamine_searched>  (30) 
False

>  <enamine_id>  (30) 
nan

$$$$

     RDKit          3D

 60 64  0  0  0  0  0  0  0  0999 V2000
   11.4747   -0.5176   23.7575 C   0  0  0  0  0  0  0  0  0  0  0  0
   10.4854   -1.6597   23.5663 C   0  0  0  0  0  0  0  0  0  0  0  0
    9.8273   -1.5538   22.3146 O   0  0  0  0  0  0  0  0  0  0  0  0
    8.5515   -0.9606   22.3399 C   0  0  1  0  0  0  0  0  0  0  0  0
    8.2775   -0.4119   20.9471 C   0  0  0  0  0  0  0  0  0  0  0  0
    6.8364   -0.4913   20.8416 N   0  0  0  0  0  0  0  0  0  0  0  0
    6.1087    0.0696   19.7738 C   0  0  0  0  0  0  0  0  0  0  0  0
    6.4638   -0.2140   18.4801 C   0  0  0  0  0  0  0  0  0  0  0  0
    5.8056    0.2367   17.3833 N   0  0  0  0  0  0  0  0  0  0  0  0
    4.7696    1.0110   17.5964 C   0  0  0  0  0  0  0  0  0  0  0  0
    4.3126    1.4056   18.8847 C   0  0  0  0  0  0  0  0  0  0  0  0
    3.1962    2.2664   19.0440 C   0  0  0  0  0  0  0  0  0  0  0  0
    2.7900    2.6540   20.2868 C   0  0  0  0  0  0  0  0  0  0  0  0
    3.4833    2.2097   21.4349 C   0  0  0  0  0  0  0  0  0  0  0  0
    4.5652    1.3754   21.3109 C   0  0  0  0  0  0  0  0  0  0  0  0
    4.9988    0.9369   20.0256 C   0  0  0  0  0  0  0  0  0  0  0  0
    5.0893    1.0451   22.2041 H   0  0  0  0  0  0  0  0  0  0  0  0
    3.1557    2.5381   22.4177 H   0  0  0  0  0  0  0  0  0  0  0  0
    1.9384    3.3198   20.4030 H   0  0  0  0  0  0  0  0  0  0  0  0
    2.6887    2.6170   18.1484 H   0  0  0  0  0  0  0  0  0  0  0  0
    4.2301    1.3786   16.7229 H   0  0  0  0  0  0  0  0  0  0  0  0
    7.3137   -0.8695   18.2927 H   0  0  0  0  0  0  0  0  0  0  0  0
    6.2895   -1.4513   21.6660 C   0  0  0  0  0  0  0  0  0  0  0  0
    5.1517   -1.8687   21.5721 O   0  0  0  0  0  0  0  0  0  0  0  0
    7.3711   -1.9231   22.6672 C   0  0  1  0  0  0  0  0  0  0  0  0
    7.7441   -3.3978   22.3676 C   0  0  0  0  0  0  0  0  0  0  0  0
    6.6871   -4.3046   22.7882 N   0  0  0  0  0  0  0  0  0  0  0  0
    6.0962   -5.2493   21.8553 C   0  0  0  0  0  0  0  0  0  0  0  0
    6.9255   -6.5293   21.7795 C   0  0  0  0  0  0  0  0  0  0  0  0
    7.6825   -6.7603   20.8531 O   0  0  0  0  0  0  0  0  0  0  0  0
    6.7397   -7.3579   22.8458 N   0  0  0  0  0  0  0  0  0  0  0  0
    7.5984   -8.5119   23.0153 C   0  0  0  0  0  0  0  0  0  0  0  0
    8.6322   -8.2286   23.2660 H   0  0  0  0  0  0  0  0  0  0  0  0
    7.6053   -9.0978   22.0940 H   0  0  0  0  0  0  0  0  0  0  0  0
    7.2013   -9.1392   23.8168 H   0  0  0  0  0  0  0  0  0  0  0  0
    6.1914   -7.0226   23.6326 H   0  0  0  0  0  0  0  0  0  0  0  0
    5.0810   -5.4811   22.2057 H   0  0  0  0  0  0  0  0  0  0  0  0
    6.0477   -4.7703   20.8709 H   0  0  0  0  0  0  0  0  0  0  0  0
    6.2093   -4.2726   24.0601 C   0  0  0  0  0  0  0  0  0  0  0  0
    5.6116   -5.2295   24.5545 O   0  0  0  0  0  0  0  0  0  0  0  0
    6.3814   -2.9729   24.7706 C   0  0  0  0  0  0  0  0  0  0  0  0
    5.9411   -2.8940   26.0898 C   0  0  0  0  0  0  0  0  0  0  0  0
    5.9378   -1.6854   26.7558 C   0  0  0  0  0  0  0  0  0  0  0  0
    6.3724   -0.5536   26.0682 C   0  0  0  0  0  0  0  0  0  0  0  0
    6.3336    0.9908   26.8655 Cl  0  0  0  0  0  0  0  0  0  0  0  0
    6.8357   -0.6178   24.7684 C   0  0  0  0  0  0  0  0  0  0  0  0
    6.8733   -1.8451   24.0984 C   0  0  0  0  0  0  0  0  0  0  0  0
    7.1560    0.2965   24.2817 H   0  0  0  0  0  0  0  0  0  0  0  0
    5.5904   -1.6016   27.7803 H   0  0  0  0  0  0  0  0  0  0  0  0
    5.5865   -3.8020   26.5632 H   0  0  0  0  0  0  0  0  0  0  0  0
    8.6993   -3.6240   22.8628 H   0  0  0  0  0  0  0  0  0  0  0  0
    7.9025   -3.5314   21.3029 H   0  0  0  0  0  0  0  0  0  0  0  0
    8.6148    0.6236   20.8400 H   0  0  0  0  0  0  0  0  0  0  0  0
    8.8100   -1.0411   20.2230 H   0  0  0  0  0  0  0  0  0  0  0  0
    8.5363   -0.1272   23.0519 H   0  0  0  0  0  0  0  0  0  0  0  0
    9.7532   -1.7042   24.3932 H   0  0  0  0  0  0  0  0  0  0  0  0
   11.0209   -2.6170   23.5431 H   0  0  0  0  0  0  0  0  0  0  0  0
   12.2123   -0.5235   22.9481 H   0  0  0  0  0  0  0  0  0  0  0  0
   12.0049   -0.6292   24.7090 H   0  0  0  0  0  0  0  0  0  0  0  0
   10.9689    0.4552   23.7551 H   0  0  0  0  0  0  0  0  0  0  0  0
  1  2  1  0
  2  3  1  0
  3  4  1  0
  4  5  1  0
  5  6  1  0
  6  7  1  0
  7  8  2  0
  8  9  1  0
  9 10  2  0
 10 11  1  0
 11 12  2  0
 12 13  1  0
 13 14  2  0
 14 15  1  0
 15 16  2  0
 15 17  1  0
 14 18  1  0
 13 19  1  0
 12 20  1  0
 10 21  1  0
  8 22  1  0
  6 23  1  0
 23 24  2  0
 23 25  1  0
 25 26  1  6
 26 27  1  0
 27 28  1  0
 28 29  1  0
 29 30  2  0
 29 31  1  0
 31 32  1  0
 32 33  1  0
 32 34  1  0
 32 35  1  0
 31 36  1  0
 28 37  1  0
 28 38  1  0
 27 39  1  0
 39 40  2  0
 39 41  1  0
 41 42  2  0
 42 43  1  0
 43 44  2  0
 44 45  1  0
 44 46  1  0
 46 47  2  0
 46 48  1  0
 43 49  1  0
 42 50  1  0
 26 51  1  0
 26 52  1  0
  5 53  1  0
  5 54  1  0
  4 55  1  1
  2 56  1  0
  2 57  1  0
  1 58  1  0
  1 59  1  0
  1 60  1  0
 25  4  1  0
 47 41  1  0
 16  7  1  0
 47 25  1  0
 16 11  1  0
M  END
>  <cnnaffinities>  (31) 
[6.59287]

>  <score>  (31) 
6.59287

>  <index>  (31) 
39

>  <Smiles>  (31) 
C(C(O[C@]1(C(N(c2c(nc(c3c(c(c(c(c23)[H])[H])[H])[H])[H])[H])C(=O)[C@]21C(N(C(C(=O)N(C([H])([H])[H])[H])([H])[H])C(=O)c1c(c(c(Cl)c(c21)[H])[H])[H])([H])[H])([H])[H])[H])([H])[H])([H])([H])[H]

>  <h>  (31) 
<NA>

>  <Training>  (31) 
True

>  <Success>  (31) 
True

>  <enamine_searched>  (31) 
False

>  <enamine_id>  (31) 
nan

$$$$

     RDKit          3D

 57 61  0  0  0  0  0  0  0  0999 V2000
    7.4783   -8.4714   23.0460 C   0  0  0  0  0  0  0  0  0  0  0  0
    6.5930   -7.3819   22.7005 N   0  0  0  0  0  0  0  0  0  0  0  0
    6.8921   -6.5405   21.6787 C   0  0  0  0  0  0  0  0  0  0  0  0
    7.7695   -6.7502   20.8595 O   0  0  0  0  0  0  0  0  0  0  0  0
    6.0746   -5.2501   21.6671 C   0  0  0  0  0  0  0  0  0  0  0  0
    6.6058   -4.3215   22.6431 N   0  0  0  0  0  0  0  0  0  0  0  0
    7.7012   -3.4349   22.2916 C   0  0  0  0  0  0  0  0  0  0  0  0
    7.3386   -1.9774   22.6434 C   0  0  2  0  0  0  0  0  0  0  0  0
    6.2582   -1.4805   21.6493 C   0  0  0  0  0  0  0  0  0  0  0  0
    5.1253   -1.8927   21.5318 O   0  0  0  0  0  0  0  0  0  0  0  0
    6.8137   -0.4965   20.8526 N   0  0  0  0  0  0  0  0  0  0  0  0
    6.1031    0.0676   19.7754 C   0  0  0  0  0  0  0  0  0  0  0  0
    6.4643   -0.2114   18.4821 C   0  0  0  0  0  0  0  0  0  0  0  0
    5.8097    0.2411   17.3847 N   0  0  0  0  0  0  0  0  0  0  0  0
    4.7723    1.0178   17.5910 C   0  0  0  0  0  0  0  0  0  0  0  0
    4.3133    1.4104   18.8797 C   0  0  0  0  0  0  0  0  0  0  0  0
    3.1946    2.2692   19.0353 C   0  0  0  0  0  0  0  0  0  0  0  0
    2.7897    2.6586   20.2818 C   0  0  0  0  0  0  0  0  0  0  0  0
    3.4843    2.2148   21.4291 C   0  0  0  0  0  0  0  0  0  0  0  0
    4.5662    1.3788   21.3061 C   0  0  0  0  0  0  0  0  0  0  0  0
    4.9984    0.9412   20.0200 C   0  0  0  0  0  0  0  0  0  0  0  0
    5.0958    1.0430   22.1926 H   0  0  0  0  0  0  0  0  0  0  0  0
    3.1556    2.5390   22.4133 H   0  0  0  0  0  0  0  0  0  0  0  0
    1.9374    3.3221   20.3988 H   0  0  0  0  0  0  0  0  0  0  0  0
    2.6856    2.6209   18.1416 H   0  0  0  0  0  0  0  0  0  0  0  0
    4.2346    1.3788   16.7134 H   0  0  0  0  0  0  0  0  0  0  0  0
    7.3135   -0.8665   18.2916 H   0  0  0  0  0  0  0  0  0  0  0  0
    8.2532   -0.4218   20.9697 C   0  0  0  0  0  0  0  0  0  0  0  0
    8.5055   -1.0035   22.3597 C   0  0  2  0  0  0  0  0  0  0  0  0
    9.9394   -1.5263   22.5254 C   0  0  0  0  0  0  0  0  0  0  0  0
   10.8514   -0.3779   22.5547 C   0  0  0  0  0  0  0  0  0  0  0  0
   11.4739    0.5959   22.5490 N   0  0  0  0  0  0  0  0  0  0  0  0
   10.2350   -2.1654   21.6890 H   0  0  0  0  0  0  0  0  0  0  0  0
   10.0567   -2.1063   23.4449 H   0  0  0  0  0  0  0  0  0  0  0  0
    8.4023   -0.1812   23.0624 H   0  0  0  0  0  0  0  0  0  0  0  0
    8.7679   -1.0080   20.1940 H   0  0  0  0  0  0  0  0  0  0  0  0
    8.6028    0.6119   20.8962 H   0  0  0  0  0  0  0  0  0  0  0  0
    6.8402   -1.9601   24.0809 C   0  0  0  0  0  0  0  0  0  0  0  0
    6.8210   -0.7692   24.8193 C   0  0  0  0  0  0  0  0  0  0  0  0
    6.3632   -0.7633   26.1232 C   0  0  0  0  0  0  0  0  0  0  0  0
    6.3395    0.7439   26.9997 Cl  0  0  0  0  0  0  0  0  0  0  0  0
    5.9307   -1.9305   26.7542 C   0  0  0  0  0  0  0  0  0  0  0  0
    5.9207   -3.1040   26.0269 C   0  0  0  0  0  0  0  0  0  0  0  0
    6.3333   -3.1146   24.6961 C   0  0  0  0  0  0  0  0  0  0  0  0
    6.1355   -4.3658   23.9156 C   0  0  0  0  0  0  0  0  0  0  0  0
    5.5317   -5.3417   24.3679 O   0  0  0  0  0  0  0  0  0  0  0  0
    5.5773   -4.0343   26.4663 H   0  0  0  0  0  0  0  0  0  0  0  0
    5.5950   -1.9018   27.7858 H   0  0  0  0  0  0  0  0  0  0  0  0
    7.1694    0.1668   24.3960 H   0  0  0  0  0  0  0  0  0  0  0  0
    8.6247   -3.7164   22.8199 H   0  0  0  0  0  0  0  0  0  0  0  0
    7.8899   -3.5287   21.2265 H   0  0  0  0  0  0  0  0  0  0  0  0
    5.0270   -5.4550   21.9071 H   0  0  0  0  0  0  0  0  0  0  0  0
    6.1211   -4.7795   20.6802 H   0  0  0  0  0  0  0  0  0  0  0  0
    6.0150   -7.0037   23.4412 H   0  0  0  0  0  0  0  0  0  0  0  0
    7.0031   -9.0674   23.8276 H   0  0  0  0  0  0  0  0  0  0  0  0
    7.6532   -9.1169   22.1863 H   0  0  0  0  0  0  0  0  0  0  0  0
    8.4436   -8.1119   23.4223 H   0  0  0  0  0  0  0  0  0  0  0  0
  1  2  1  0
  2  3  1  0
  3  4  2  0
  3  5  1  0
  5  6  1  0
  6  7  1  0
  8  7  1  6
  8  9  1  0
  9 10  2  0
  9 11  1  0
 11 12  1  0
 12 13  2  0
 13 14  1  0
 14 15  2  0
 15 16  1  0
 16 17  2  0
 17 18  1  0
 18 19  2  0
 19 20  1  0
 20 21  2  0
 20 22  1  0
 19 23  1  0
 18 24  1  0
 17 25  1  0
 15 26  1  0
 13 27  1  0
 11 28  1  0
 28 29  1  0
 29 30  1  0
 30 31  1  0
 31 32  3  0
 30 33  1  0
 30 34  1  0
 29 35  1  1
 28 36  1  0
 28 37  1  0
  8 38  1  0
 38 39  2  0
 39 40  1  0
 40 41  1  0
 40 42  2  0
 42 43  1  0
 43 44  2  0
 44 45  1  0
 45 46  2  0
 43 47  1  0
 42 48  1  0
 39 49  1  0
  7 50  1  0
  7 51  1  0
  5 52  1  0
  5 53  1  0
  2 54  1  0
  1 55  1  0
  1 56  1  0
  1 57  1  0
 45  6  1  0
 29  8  1  0
 44 38  1  0
 21 12  1  0
 21 16  1  0
M  END
>  <cnnaffinities>  (32) 
[7.01274]

>  <score>  (32) 
7.01274

>  <index>  (32) 
40

>  <Smiles>  (32) 
C(N(C(=O)C(N1C([C@@]2(C(=O)N(c3c(nc(c4c(c(c(c(c34)[H])[H])[H])[H])[H])[H])C([C@@]2(C(C#N)([H])[H])[H])([H])[H])c2c(c(Cl)c(c(c2C1=O)[H])[H])[H])([H])[H])([H])[H])[H])([H])([H])[H]

>  <h>  (32) 
<NA>

>  <Training>  (32) 
True

>  <Success>  (32) 
True

>  <enamine_searched>  (32) 
False

>  <enamine_id>  (32) 
nan

$$$$

     RDKit          3D

 60 65  0  0  0  0  0  0  0  0999 V2000
    5.8541    1.0838   28.8107 C   0  0  0  0  0  0  0  0  0  0  0  0
    6.3128    1.3089   27.4575 N   0  0  0  0  0  0  0  0  0  0  0  0
    5.6353    0.7674   26.4070 C   0  0  0  0  0  0  0  0  0  0  0  0
    4.7150   -0.0234   26.5361 O   0  0  0  0  0  0  0  0  0  0  0  0
    6.0233    1.3190   25.0250 C   0  0  0  0  0  0  0  0  0  0  0  0
    6.9723    0.4995   24.2820 N   0  0  0  0  0  0  0  0  0  0  0  0
    6.4792   -0.6918   23.5894 C   0  0  0  0  0  0  0  0  0  0  0  0
    7.2877   -1.0329   22.3066 C   0  0  2  0  0  0  0  0  0  0  0  0
    6.8049   -0.2315   21.0930 C   0  0  0  0  0  0  0  0  0  0  0  0
    7.1605    0.8709   20.7295 O   0  0  0  0  0  0  0  0  0  0  0  0
    5.8735   -0.9993   20.4280 N   0  0  0  0  0  0  0  0  0  0  0  0
    5.2394   -0.4144   19.3095 C   0  0  0  0  0  0  0  0  0  0  0  0
    5.6064   -0.7403   18.0288 C   0  0  0  0  0  0  0  0  0  0  0  0
    5.1775   -0.0768   16.9260 N   0  0  0  0  0  0  0  0  0  0  0  0
    4.3626    0.9390   17.1081 C   0  0  0  0  0  0  0  0  0  0  0  0
    3.8623    1.3448   18.3813 C   0  0  0  0  0  0  0  0  0  0  0  0
    2.9739    2.4400   18.5574 C   0  0  0  0  0  0  0  0  0  0  0  0
    2.5695    2.8263   19.8087 C   0  0  0  0  0  0  0  0  0  0  0  0
    2.9941    2.1112   20.9484 C   0  0  0  0  0  0  0  0  0  0  0  0
    3.8154    1.0238   20.8025 C   0  0  0  0  0  0  0  0  0  0  0  0
    4.3069    0.6440   19.5202 C   0  0  0  0  0  0  0  0  0  0  0  0
    4.1015    0.4468   21.6750 H   0  0  0  0  0  0  0  0  0  0  0  0
    2.6738    2.4151   21.9411 H   0  0  0  0  0  0  0  0  0  0  0  0
    1.9282    3.6940   19.9365 H   0  0  0  0  0  0  0  0  0  0  0  0
    2.6194    2.9680   17.6787 H   0  0  0  0  0  0  0  0  0  0  0  0
    4.0721    1.4991   16.2186 H   0  0  0  0  0  0  0  0  0  0  0  0
    6.3087   -1.5547   17.8473 H   0  0  0  0  0  0  0  0  0  0  0  0
    5.7320   -2.3524   20.9543 C   0  0  0  0  0  0  0  0  0  0  0  0
    7.0039   -2.4869   21.8216 C   0  0  2  0  0  0  0  0  0  0  0  0
    7.0801   -3.6183   22.8707 C   0  0  0  0  0  0  0  0  0  0  0  0
    8.3367   -3.5778   23.7141 C   0  0  0  0  0  0  0  0  0  0  0  0
    8.3884   -3.2146   24.9853 N   0  0  0  0  0  0  0  0  0  0  0  0
    9.6750   -3.3220   25.3300 N   0  0  0  0  0  0  0  0  0  0  0  0
   10.3558   -3.7371   24.3042 N   0  0  0  0  0  2  0  0  0  0  0  0
    9.5341   -3.9168   23.2668 N   0  0  0  0  0  0  0  0  0  0  0  0
    7.0862   -4.5756   22.3494 H   0  0  0  0  0  0  0  0  0  0  0  0
    6.2242   -3.6131   23.5469 H   0  0  0  0  0  0  0  0  0  0  0  0
    7.8030   -2.7117   21.1174 H   0  0  0  0  0  0  0  0  0  0  0  0
    4.8049   -2.4636   21.5359 H   0  0  0  0  0  0  0  0  0  0  0  0
    5.7034   -3.0675   20.1301 H   0  0  0  0  0  0  0  0  0  0  0  0
    8.7517   -0.7504   22.5552 C   0  0  0  0  0  0  0  0  0  0  0  0
    9.6592   -1.1551   21.5713 C   0  0  0  0  0  0  0  0  0  0  0  0
   11.0108   -1.0301   21.7869 C   0  0  0  0  0  0  0  0  0  0  0  0
   12.1087   -1.7140   20.6394 Cl  0  0  0  0  0  0  0  0  0  0  0  0
   11.5113   -0.3933   22.9174 C   0  0  0  0  0  0  0  0  0  0  0  0
   10.6180    0.0997   23.8451 C   0  0  0  0  0  0  0  0  0  0  0  0
    9.2432   -0.0716   23.6798 C   0  0  0  0  0  0  0  0  0  0  0  0
    8.2857    0.5331   24.6788 C   0  0  0  0  0  0  0  0  0  0  0  0
    8.6253    1.0415   25.7383 O   0  0  0  0  0  0  0  0  0  0  0  0
   10.9829    0.6838   24.6776 H   0  0  0  0  0  0  0  0  0  0  0  0
   12.5822   -0.2668   23.0298 H   0  0  0  0  0  0  0  0  0  0  0  0
    9.3258   -1.5933   20.6366 H   0  0  0  0  0  0  0  0  0  0  0  0
    6.5695   -1.5410   24.2820 H   0  0  0  0  0  0  0  0  0  0  0  0
    5.4175   -0.5416   23.3627 H   0  0  0  0  0  0  0  0  0  0  0  0
    6.4197    2.3366   25.1318 H   0  0  0  0  0  0  0  0  0  0  0  0
    5.0984    1.3726   24.4395 H   0  0  0  0  0  0  0  0  0  0  0  0
    7.2699    1.5870   27.2869 H   0  0  0  0  0  0  0  0  0  0  0  0
    4.7649    1.0034   28.7767 H   0  0  0  0  0  0  0  0  0  0  0  0
    6.1298    1.9341   29.4436 H   0  0  0  0  0  0  0  0  0  0  0  0
    6.2540    0.1601   29.2474 H   0  0  0  0  0  0  0  0  0  0  0  0
  1  2  1  0
  2  3  1  0
  3  4  2  0
  3  5  1  0
  5  6  1  0
  6  7  1  0
  8  7  1  1
  8  9  1  0
  9 10  2  0
  9 11  1  0
 11 12  1  0
 12 13  2  0
 13 14  1  0
 14 15  2  0
 15 16  1  0
 16 17  2  0
 17 18  1  0
 18 19  2  0
 19 20  1  0
 20 21  2  0
 20 22  1  0
 19 23  1  0
 18 24  1  0
 17 25  1  0
 15 26  1  0
 13 27  1  0
 11 28  1  0
 28 29  1  0
 29 30  1  0
 30 31  1  0
 31 32  1  0
 32 33  2  0
 33 34  1  0
 34 35  1  0
 30 36  1  0
 30 37  1  0
 29 38  1  6
 28 39  1  0
 28 40  1  0
  8 41  1  0
 41 42  2  0
 42 43  1  0
 43 44  1  0
 43 45  2  0
 45 46  1  0
 46 47  2  0
 47 48  1  0
 48 49  2  0
 46 50  1  0
 45 51  1  0
 42 52  1  0
  7 53  1  0
  7 54  1  0
  5 55  1  0
  5 56  1  0
  2 57  1  0
  1 58  1  0
  1 59  1  0
  1 60  1  0
 48  6  1  0
 29  8  1  0
 35 31  2  0
 47 41  1  0
 21 12  1  0
 21 16  1  0
M  CHG  1  34  -1
M  END
>  <cnnaffinities>  (33) 
[6.04047, 7.20811]

>  <score>  (33) 
6.04047

>  <index>  (33) 
42

>  <Smiles>  (33) 
C(N(C(=O)C(N1C([C@@]2(C(=O)N(c3c(nc(c4c(c(c(c(c34)[H])[H])[H])[H])[H])[H])C([C@@]2(C(c2nn[n-]n2)([H])[H])[H])([H])[H])c2c(c(Cl)c(c(c2C1=O)[H])[H])[H])([H])[H])([H])[H])[H])([H])([H])[H]

>  <h>  (33) 
<NA>

>  <Training>  (33) 
True

>  <Success>  (33) 
True

>  <enamine_searched>  (33) 
False

>  <enamine_id>  (33) 
nan

$$$$

     RDKit          3D

 56 60  0  0  0  0  0  0  0  0999 V2000
    7.5378   -8.4130   23.0304 C   0  0  0  0  0  0  0  0  0  0  0  0
    6.6115   -7.3861   22.6034 N   0  0  0  0  0  0  0  0  0  0  0  0
    6.9491   -6.5269   21.6016 C   0  0  0  0  0  0  0  0  0  0  0  0
    7.8524   -6.7238   20.8065 O   0  0  0  0  0  0  0  0  0  0  0  0
    6.1405   -5.2225   21.5912 C   0  0  0  0  0  0  0  0  0  0  0  0
    6.6634   -4.2992   22.5881 N   0  0  0  0  0  0  0  0  0  0  0  0
    7.7528   -3.3897   22.2752 C   0  0  0  0  0  0  0  0  0  0  0  0
    7.3944   -1.9327   22.6522 C   0  0  2  0  0  0  0  0  0  0  0  0
    6.3007   -1.4302   21.6816 C   0  0  0  0  0  0  0  0  0  0  0  0
    5.1596   -1.8297   21.6073 O   0  0  0  0  0  0  0  0  0  0  0  0
    6.8487   -0.4720   20.8525 N   0  0  0  0  0  0  0  0  0  0  0  0
    6.1171    0.0768   19.7800 C   0  0  0  0  0  0  0  0  0  0  0  0
    6.4666   -0.2146   18.4856 C   0  0  0  0  0  0  0  0  0  0  0  0
    5.8059    0.2324   17.3893 N   0  0  0  0  0  0  0  0  0  0  0  0
    4.7685    1.0098   17.5960 C   0  0  0  0  0  0  0  0  0  0  0  0
    4.3158    1.4076   18.8862 C   0  0  0  0  0  0  0  0  0  0  0  0
    3.1978    2.2666   19.0450 C   0  0  0  0  0  0  0  0  0  0  0  0
    2.7913    2.6525   20.2921 C   0  0  0  0  0  0  0  0  0  0  0  0
    3.4858    2.2064   21.4374 C   0  0  0  0  0  0  0  0  0  0  0  0
    4.5705    1.3752   21.3131 C   0  0  0  0  0  0  0  0  0  0  0  0
    5.0044    0.9420   20.0251 C   0  0  0  0  0  0  0  0  0  0  0  0
    5.0940    1.0397   22.2030 H   0  0  0  0  0  0  0  0  0  0  0  0
    3.1590    2.5322   22.4209 H   0  0  0  0  0  0  0  0  0  0  0  0
    1.9403    3.3166   20.4101 H   0  0  0  0  0  0  0  0  0  0  0  0
    2.6865    2.6184   18.1543 H   0  0  0  0  0  0  0  0  0  0  0  0
    4.2293    1.3784   16.7223 H   0  0  0  0  0  0  0  0  0  0  0  0
    7.3114   -0.8760   18.2951 H   0  0  0  0  0  0  0  0  0  0  0  0
    8.2910   -0.3896   20.9594 C   0  0  0  0  0  0  0  0  0  0  0  0
    8.5610   -0.9433   22.3655 C   0  0  2  0  0  0  0  0  0  0  0  0
    9.9893   -1.4652   22.4410 C   0  0  0  0  0  0  0  0  0  0  0  0
   10.4628   -2.0005   24.0779 Cl  0  0  0  0  0  0  0  0  0  0  0  0
   10.1363   -2.3163   21.7713 H   0  0  0  0  0  0  0  0  0  0  0  0
   10.6979   -0.6839   22.1601 H   0  0  0  0  0  0  0  0  0  0  0  0
    8.4800   -0.1107   23.0633 H   0  0  0  0  0  0  0  0  0  0  0  0
    8.6212    0.6478   20.8566 H   0  0  0  0  0  0  0  0  0  0  0  0
    8.8120   -0.9916   20.1981 H   0  0  0  0  0  0  0  0  0  0  0  0
    6.8974   -1.9554   24.0834 C   0  0  0  0  0  0  0  0  0  0  0  0
    6.8544   -0.7884   24.8488 C   0  0  0  0  0  0  0  0  0  0  0  0
    6.3935   -0.8289   26.1509 C   0  0  0  0  0  0  0  0  0  0  0  0
    6.3523    0.6489   27.0586 Cl  0  0  0  0  0  0  0  0  0  0  0  0
    5.9624   -2.0082   26.7542 C   0  0  0  0  0  0  0  0  0  0  0  0
    5.9625   -3.1536   25.9892 C   0  0  0  0  0  0  0  0  0  0  0  0
    6.3903   -3.1260   24.6659 C   0  0  0  0  0  0  0  0  0  0  0  0
    6.1822   -4.3619   23.8568 C   0  0  0  0  0  0  0  0  0  0  0  0
    5.5660   -5.3381   24.2855 O   0  0  0  0  0  0  0  0  0  0  0  0
    5.6123   -4.0948   26.3885 H   0  0  0  0  0  0  0  0  0  0  0  0
    5.6219   -2.0100   27.7849 H   0  0  0  0  0  0  0  0  0  0  0  0
    7.1798    0.1611   24.4404 H   0  0  0  0  0  0  0  0  0  0  0  0
    8.6709   -3.6845   22.8015 H   0  0  0  0  0  0  0  0  0  0  0  0
    7.9585   -3.4562   21.2144 H   0  0  0  0  0  0  0  0  0  0  0  0
    5.0902   -5.4112   21.8372 H   0  0  0  0  0  0  0  0  0  0  0  0
    6.1803   -4.7319   20.6091 H   0  0  0  0  0  0  0  0  0  0  0  0
    5.9315   -7.0791   23.2926 H   0  0  0  0  0  0  0  0  0  0  0  0
    8.4662   -7.9905   23.4487 H   0  0  0  0  0  0  0  0  0  0  0  0
    7.0231   -9.0276   23.7714 H   0  0  0  0  0  0  0  0  0  0  0  0
    7.7709   -9.0515   22.1772 H   0  0  0  0  0  0  0  0  0  0  0  0
  1  2  1  0
  2  3  1  0
  3  4  2  0
  3  5  1  0
  5  6  1  0
  6  7  1  0
  8  7  1  6
  8  9  1  0
  9 10  2  0
  9 11  1  0
 11 12  1  0
 12 13  2  0
 13 14  1  0
 14 15  2  0
 15 16  1  0
 16 17  2  0
 17 18  1  0
 18 19  2  0
 19 20  1  0
 20 21  2  0
 20 22  1  0
 19 23  1  0
 18 24  1  0
 17 25  1  0
 15 26  1  0
 13 27  1  0
 11 28  1  0
 28 29  1  0
 29 30  1  0
 30 31  1  0
 30 32  1  0
 30 33  1  0
 29 34  1  1
 28 35  1  0
 28 36  1  0
  8 37  1  0
 37 38  2  0
 38 39  1  0
 39 40  1  0
 39 41  2  0
 41 42  1  0
 42 43  2  0
 43 44  1  0
 44 45  2  0
 42 46  1  0
 41 47  1  0
 38 48  1  0
  7 49  1  0
  7 50  1  0
  5 51  1  0
  5 52  1  0
  2 53  1  0
  1 54  1  0
  1 55  1  0
  1 56  1  0
 44  6  1  0
 29  8  1  0
 43 37  1  0
 21 12  1  0
 21 16  1  0
M  END
>  <cnnaffinities>  (34) 
[6.79362, 6.59913]

>  <score>  (34) 
6.79362

>  <index>  (34) 
44

>  <Smiles>  (34) 
C(N(C(=O)C(N1C([C@@]2(C(=O)N(c3c(nc(c4c(c(c(c(c34)[H])[H])[H])[H])[H])[H])C([C@@]2(C(Cl)([H])[H])[H])([H])[H])c2c(c(Cl)c(c(c2C1=O)[H])[H])[H])([H])[H])([H])[H])[H])([H])([H])[H]

>  <h>  (34) 
<NA>

>  <Training>  (34) 
True

>  <Success>  (34) 
True

>  <enamine_searched>  (34) 
False

>  <enamine_id>  (34) 
nan

$$$$

     RDKit          3D

 60 64  0  0  0  0  0  0  0  0999 V2000
    7.6358   -8.4931   23.0222 C   0  0  0  0  0  0  0  0  0  0  0  0
    6.7595   -7.3473   22.8716 N   0  0  0  0  0  0  0  0  0  0  0  0
    6.9167   -6.5069   21.8146 C   0  0  0  0  0  0  0  0  0  0  0  0
    7.6719   -6.7157   20.8810 O   0  0  0  0  0  0  0  0  0  0  0  0
    6.0700   -5.2379   21.8922 C   0  0  0  0  0  0  0  0  0  0  0  0
    6.6529   -4.2762   22.8128 N   0  0  0  0  0  0  0  0  0  0  0  0
    7.7237   -3.3815   22.3883 C   0  0  0  0  0  0  0  0  0  0  0  0
    7.3517   -1.9001   22.6834 C   0  0  2  0  0  0  0  0  0  0  0  0
    6.2770   -1.4508   21.6614 C   0  0  0  0  0  0  0  0  0  0  0  0
    5.1486   -1.8926   21.5471 O   0  0  0  0  0  0  0  0  0  0  0  0
    6.8199   -0.4788   20.8456 N   0  0  0  0  0  0  0  0  0  0  0  0
    6.1005    0.0739   19.7710 C   0  0  0  0  0  0  0  0  0  0  0  0
    6.4585   -0.2137   18.4780 C   0  0  0  0  0  0  0  0  0  0  0  0
    5.8023    0.2366   17.3820 N   0  0  0  0  0  0  0  0  0  0  0  0
    4.7663    1.0151   17.5936 C   0  0  0  0  0  0  0  0  0  0  0  0
    4.3085    1.4090   18.8835 C   0  0  0  0  0  0  0  0  0  0  0  0
    3.1926    2.2697   19.0426 C   0  0  0  0  0  0  0  0  0  0  0  0
    2.7907    2.6535   20.2923 C   0  0  0  0  0  0  0  0  0  0  0  0
    3.4859    2.2086   21.4366 C   0  0  0  0  0  0  0  0  0  0  0  0
    4.5678    1.3746   21.3100 C   0  0  0  0  0  0  0  0  0  0  0  0
    4.9941    0.9415   20.0201 C   0  0  0  0  0  0  0  0  0  0  0  0
    5.0976    1.0399   22.1962 H   0  0  0  0  0  0  0  0  0  0  0  0
    3.1605    2.5344   22.4200 H   0  0  0  0  0  0  0  0  0  0  0  0
    1.9416    3.3187   20.4086 H   0  0  0  0  0  0  0  0  0  0  0  0
    2.6836    2.6216   18.1508 H   0  0  0  0  0  0  0  0  0  0  0  0
    4.2277    1.3800   16.7206 H   0  0  0  0  0  0  0  0  0  0  0  0
    7.3084   -0.8692   18.2914 H   0  0  0  0  0  0  0  0  0  0  0  0
    8.2559   -0.3492   20.9837 C   0  0  0  0  0  0  0  0  0  0  0  0
    8.5013   -0.8869   22.3899 C   0  0  2  0  0  0  0  0  0  0  0  0
    9.9257   -1.3703   22.5523 C   0  0  0  0  0  0  0  0  0  0  0  0
   10.2302   -2.2109   21.4671 O   0  0  0  0  0  0  0  0  0  0  0  0
   11.5516   -2.6666   21.5079 C   0  0  0  0  0  0  0  0  0  0  0  0
   11.6903   -3.3653   22.3452 H   0  0  0  0  0  0  0  0  0  0  0  0
   11.7574   -3.1446   20.5489 H   0  0  0  0  0  0  0  0  0  0  0  0
   12.2615   -1.8395   21.6305 H   0  0  0  0  0  0  0  0  0  0  0  0
   10.6081   -0.5044   22.5579 H   0  0  0  0  0  0  0  0  0  0  0  0
   10.0549   -1.9084   23.5051 H   0  0  0  0  0  0  0  0  0  0  0  0
    8.3710   -0.0563   23.0817 H   0  0  0  0  0  0  0  0  0  0  0  0
    8.5622    0.6980   20.8860 H   0  0  0  0  0  0  0  0  0  0  0  0
    8.8069   -0.9524   20.2544 H   0  0  0  0  0  0  0  0  0  0  0  0
    6.8284   -1.8218   24.1106 C   0  0  0  0  0  0  0  0  0  0  0  0
    6.7505   -0.5886   24.7679 C   0  0  0  0  0  0  0  0  0  0  0  0
    6.2872   -0.5153   26.0651 C   0  0  0  0  0  0  0  0  0  0  0  0
    6.2357    1.0375   26.8398 Cl  0  0  0  0  0  0  0  0  0  0  0  0
    5.8760   -1.6450   26.7676 C   0  0  0  0  0  0  0  0  0  0  0  0
    5.9031   -2.8586   26.1126 C   0  0  0  0  0  0  0  0  0  0  0  0
    6.3468   -2.9465   24.7943 C   0  0  0  0  0  0  0  0  0  0  0  0
    6.1881   -4.2524   24.0904 C   0  0  0  0  0  0  0  0  0  0  0  0
    5.6138   -5.2192   24.5870 O   0  0  0  0  0  0  0  0  0  0  0  0
    5.5609   -3.7656   26.5952 H   0  0  0  0  0  0  0  0  0  0  0  0
    5.5297   -1.5629   27.7922 H   0  0  0  0  0  0  0  0  0  0  0  0
    7.0449    0.3344   24.2824 H   0  0  0  0  0  0  0  0  0  0  0  0
    8.6756   -3.6257   22.8851 H   0  0  0  0  0  0  0  0  0  0  0  0
    7.8791   -3.5316   21.3255 H   0  0  0  0  0  0  0  0  0  0  0  0
    6.0026   -4.7728   20.9031 H   0  0  0  0  0  0  0  0  0  0  0  0
    5.0618   -5.4944   22.2447 H   0  0  0  0  0  0  0  0  0  0  0  0
    6.2213   -7.0202   23.6705 H   0  0  0  0  0  0  0  0  0  0  0  0
    7.6139   -9.0761   22.0985 H   0  0  0  0  0  0  0  0  0  0  0  0
    7.2735   -9.1275   23.8351 H   0  0  0  0  0  0  0  0  0  0  0  0
    8.6675   -8.1843   23.2486 H   0  0  0  0  0  0  0  0  0  0  0  0
  1  2  1  0
  2  3  1  0
  3  4  2  0
  3  5  1  0
  5  6  1  0
  6  7  1  0
  8  7  1  6
  8  9  1  0
  9 10  2  0
  9 11  1  0
 11 12  1  0
 12 13  2  0
 13 14  1  0
 14 15  2  0
 15 16  1  0
 16 17  2  0
 17 18  1  0
 18 19  2  0
 19 20  1  0
 20 21  2  0
 20 22  1  0
 19 23  1  0
 18 24  1  0
 17 25  1  0
 15 26  1  0
 13 27  1  0
 11 28  1  0
 28 29  1  0
 29 30  1  0
 30 31  1  0
 31 32  1  0
 32 33  1  0
 32 34  1  0
 32 35  1  0
 30 36  1  0
 30 37  1  0
 29 38  1  1
 28 39  1  0
 28 40  1  0
  8 41  1  0
 41 42  2  0
 42 43  1  0
 43 44  1  0
 43 45  2  0
 45 46  1  0
 46 47  2  0
 47 48  1  0
 48 49  2  0
 46 50  1  0
 45 51  1  0
 42 52  1  0
  7 53  1  0
  7 54  1  0
  5 55  1  0
  5 56  1  0
  2 57  1  0
  1 58  1  0
  1 59  1  0
  1 60  1  0
 48  6  1  0
 29  8  1  0
 47 41  1  0
 21 12  1  0
 21 16  1  0
M  END
>  <cnnaffinities>  (35) 
[6.80117, 6.7734, 6.80839]

>  <score>  (35) 
6.80117

>  <index>  (35) 
45

>  <Smiles>  (35) 
C(N(C(=O)C(N1C([C@@]2(C(=O)N(c3c(nc(c4c(c(c(c(c34)[H])[H])[H])[H])[H])[H])C([C@@]2(C(OC([H])([H])[H])([H])[H])[H])([H])[H])c2c(c(Cl)c(c(c2C1=O)[H])[H])[H])([H])[H])([H])[H])[H])([H])([H])[H]

>  <h>  (35) 
<NA>

>  <Training>  (35) 
True

>  <Success>  (35) 
True

>  <enamine_searched>  (35) 
False

>  <enamine_id>  (35) 
nan

$$$$

     RDKit          3D

 64 68  0  0  0  0  0  0  0  0999 V2000
   12.0958    0.1499   24.2019 C   0  0  0  0  0  0  0  0  0  0  0  0
   11.8552   -1.2640   23.6777 C   0  0  0  0  0  0  0  0  0  0  0  0
   11.1927   -1.2023   22.0002 S   0  0  0  0  0  0  0  0  0  0  0  0
   11.0453    0.2073   21.6582 O   0  0  0  0  0  0  0  0  0  0  0  0
   11.9012   -2.1267   21.1368 O   0  0  0  0  0  0  0  0  0  0  0  0
    9.6653   -1.8776   22.1742 N   0  0  0  0  0  0  0  0  0  0  0  0
    8.5587   -0.9320   22.3801 C   0  0  1  0  0  0  0  0  0  0  0  0
    8.1842   -0.1118   21.1263 C   0  0  0  0  0  0  0  0  0  0  0  0
    6.8289   -0.5045   20.8388 N   0  0  0  0  0  0  0  0  0  0  0  0
    6.0929    0.0534   19.7719 C   0  0  0  0  0  0  0  0  0  0  0  0
    6.4616   -0.2085   18.4774 C   0  0  0  0  0  0  0  0  0  0  0  0
    5.8090    0.2531   17.3835 N   0  0  0  0  0  0  0  0  0  0  0  0
    4.7666    1.0221   17.5939 C   0  0  0  0  0  0  0  0  0  0  0  0
    4.3052    1.4071   18.8854 C   0  0  0  0  0  0  0  0  0  0  0  0
    3.1893    2.2696   19.0433 C   0  0  0  0  0  0  0  0  0  0  0  0
    2.7905    2.6618   20.2902 C   0  0  0  0  0  0  0  0  0  0  0  0
    3.4936    2.2193   21.4355 C   0  0  0  0  0  0  0  0  0  0  0  0
    4.5744    1.3808   21.3155 C   0  0  0  0  0  0  0  0  0  0  0  0
    4.9910    0.9311   20.0243 C   0  0  0  0  0  0  0  0  0  0  0  0
    5.1145    1.0636   22.2101 H   0  0  0  0  0  0  0  0  0  0  0  0
    3.1669    2.5458   22.4189 H   0  0  0  0  0  0  0  0  0  0  0  0
    1.9385    3.3255   20.4098 H   0  0  0  0  0  0  0  0  0  0  0  0
    2.6795    2.6203   18.1492 H   0  0  0  0  0  0  0  0  0  0  0  0
    4.2334    1.3899   16.7165 H   0  0  0  0  0  0  0  0  0  0  0  0
    7.3216   -0.8486   18.2841 H   0  0  0  0  0  0  0  0  0  0  0  0
    6.2810   -1.4066   21.7170 C   0  0  0  0  0  0  0  0  0  0  0  0
    5.1883   -1.9168   21.5783 O   0  0  0  0  0  0  0  0  0  0  0  0
    7.2687   -1.6276   22.8792 C   0  0  1  0  0  0  0  0  0  0  0  0
    7.4889   -3.1455   23.1220 C   0  0  0  0  0  0  0  0  0  0  0  0
    6.4079   -3.7851   23.8601 N   0  0  0  0  0  0  0  0  0  0  0  0
    6.0400   -5.1537   23.5068 C   0  0  0  0  0  0  0  0  0  0  0  0
    4.7551   -5.1438   22.6693 C   0  0  0  0  0  0  0  0  0  0  0  0
    4.7855   -5.1807   21.4483 O   0  0  0  0  0  0  0  0  0  0  0  0
    3.6009   -5.0248   23.3829 N   0  0  0  0  0  0  0  0  0  0  0  0
    2.4086   -4.5623   22.6915 C   0  0  0  0  0  0  0  0  0  0  0  0
    2.6810   -3.7926   21.9615 H   0  0  0  0  0  0  0  0  0  0  0  0
    1.6965   -4.1512   23.4159 H   0  0  0  0  0  0  0  0  0  0  0  0
    1.9154   -5.3817   22.1626 H   0  0  0  0  0  0  0  0  0  0  0  0
    3.7175   -4.7627   24.3563 H   0  0  0  0  0  0  0  0  0  0  0  0
    5.9439   -5.7607   24.4116 H   0  0  0  0  0  0  0  0  0  0  0  0
    6.8351   -5.5741   22.8910 H   0  0  0  0  0  0  0  0  0  0  0  0
    5.7248   -3.1642   24.8578 C   0  0  0  0  0  0  0  0  0  0  0  0
    4.8761   -3.7554   25.5308 O   0  0  0  0  0  0  0  0  0  0  0  0
    6.0217   -1.7131   25.0841 C   0  0  0  0  0  0  0  0  0  0  0  0
    5.5453   -1.1100   26.2501 C   0  0  0  0  0  0  0  0  0  0  0  0
    5.7460    0.2357   26.4877 C   0  0  0  0  0  0  0  0  0  0  0  0
    6.4123    0.9915   25.5246 C   0  0  0  0  0  0  0  0  0  0  0  0
    6.6710    2.6926   25.7977 Cl  0  0  0  0  0  0  0  0  0  0  0  0
    6.8921    0.4121   24.3627 C   0  0  0  0  0  0  0  0  0  0  0  0
    6.7330   -0.9678   24.1421 C   0  0  0  0  0  0  0  0  0  0  0  0
    7.4001    1.0556   23.6470 H   0  0  0  0  0  0  0  0  0  0  0  0
    5.3884    0.7069   27.3976 H   0  0  0  0  0  0  0  0  0  0  0  0
    5.0206   -1.7239   26.9730 H   0  0  0  0  0  0  0  0  0  0  0  0
    7.5397   -3.6370   22.1459 H   0  0  0  0  0  0  0  0  0  0  0  0
    8.4392   -3.2865   23.6431 H   0  0  0  0  0  0  0  0  0  0  0  0
    8.8456   -0.3406   20.2923 H   0  0  0  0  0  0  0  0  0  0  0  0
    8.2518    0.9678   21.3139 H   0  0  0  0  0  0  0  0  0  0  0  0
    8.9288   -0.2604   23.1534 H   0  0  0  0  0  0  0  0  0  0  0  0
    9.5183   -2.5510   21.4208 H   0  0  0  0  0  0  0  0  0  0  0  0
   11.1056   -1.8101   24.2668 H   0  0  0  0  0  0  0  0  0  0  0  0
   12.7822   -1.8520   23.6304 H   0  0  0  0  0  0  0  0  0  0  0  0
   12.8384    0.6755   23.5927 H   0  0  0  0  0  0  0  0  0  0  0  0
   12.4537    0.1017   25.2318 H   0  0  0  0  0  0  0  0  0  0  0  0
   11.1755    0.7436   24.1790 H   0  0  0  0  0  0  0  0  0  0  0  0
  1  2  1  0
  2  3  1  0
  3  4  2  0
  3  5  2  0
  3  6  1  0
  6  7  1  0
  7  8  1  0
  8  9  1  0
  9 10  1  0
 10 11  2  0
 11 12  1  0
 12 13  2  0
 13 14  1  0
 14 15  2  0
 15 16  1  0
 16 17  2  0
 17 18  1  0
 18 19  2  0
 18 20  1  0
 17 21  1  0
 16 22  1  0
 15 23  1  0
 13 24  1  0
 11 25  1  0
  9 26  1  0
 26 27  2  0
 26 28  1  0
 28 29  1  1
 29 30  1  0
 30 31  1  0
 31 32  1  0
 32 33  2  0
 32 34  1  0
 34 35  1  0
 35 36  1  0
 35 37  1  0
 35 38  1  0
 34 39  1  0
 31 40  1  0
 31 41  1  0
 30 42  1  0
 42 43  2  0
 42 44  1  0
 44 45  2  0
 45 46  1  0
 46 47  2  0
 47 48  1  0
 47 49  1  0
 49 50  2  0
 49 51  1  0
 46 52  1  0
 45 53  1  0
 29 54  1  0
 29 55  1  0
  8 56  1  0
  8 57  1  0
  7 58  1  1
  6 59  1  0
  2 60  1  0
  2 61  1  0
  1 62  1  0
  1 63  1  0
  1 64  1  0
 28  7  1  0
 50 44  1  0
 19 10  1  0
 50 28  1  0
 19 14  1  0
M  END
>  <cnnaffinities>  (36) 
[6.7366]

>  <score>  (36) 
6.7366

>  <index>  (36) 
46

>  <Smiles>  (36) 
C(C(S(=O)(=O)N([C@]1(C(N(c2c(nc(c3c(c(c(c(c23)[H])[H])[H])[H])[H])[H])C(=O)[C@]21C(N(C(C(=O)N(C([H])([H])[H])[H])([H])[H])C(=O)c1c(c(c(Cl)c(c21)[H])[H])[H])([H])[H])([H])[H])[H])[H])([H])[H])([H])([H])[H]

>  <h>  (36) 
<NA>

>  <Training>  (36) 
True

>  <Success>  (36) 
True

>  <enamine_searched>  (36) 
False

>  <enamine_id>  (36) 
nan

$$$$

     RDKit          3D

 56 60  0  0  0  0  0  0  0  0999 V2000
    7.5292   -8.5031   23.0158 C   0  0  0  0  0  0  0  0  0  0  0  0
    6.6536   -7.3794   22.7524 N   0  0  0  0  0  0  0  0  0  0  0  0
    6.9180   -6.5323   21.7192 C   0  0  0  0  0  0  0  0  0  0  0  0
    7.7514   -6.7475   20.8542 O   0  0  0  0  0  0  0  0  0  0  0  0
    6.0959   -5.2388   21.7583 C   0  0  0  0  0  0  0  0  0  0  0  0
    6.6701   -4.3111   22.7193 N   0  0  0  0  0  0  0  0  0  0  0  0
    7.7387   -3.4081   22.3333 C   0  0  0  0  0  0  0  0  0  0  0  0
    7.3810   -1.9364   22.6532 C   0  0  2  0  0  0  0  0  0  0  0  0
    6.2940   -1.4578   21.6593 C   0  0  0  0  0  0  0  0  0  0  0  0
    5.1580   -1.8795   21.5594 O   0  0  0  0  0  0  0  0  0  0  0  0
    6.8365   -0.4825   20.8506 N   0  0  0  0  0  0  0  0  0  0  0  0
    6.1104    0.0734   19.7801 C   0  0  0  0  0  0  0  0  0  0  0  0
    6.4655   -0.2165   18.4879 C   0  0  0  0  0  0  0  0  0  0  0  0
    5.8098    0.2321   17.3907 N   0  0  0  0  0  0  0  0  0  0  0  0
    4.7730    1.0095   17.5995 C   0  0  0  0  0  0  0  0  0  0  0  0
    4.3142    1.4051   18.8882 C   0  0  0  0  0  0  0  0  0  0  0  0
    3.1977    2.2664   19.0439 C   0  0  0  0  0  0  0  0  0  0  0  0
    2.7903    2.6541   20.2900 C   0  0  0  0  0  0  0  0  0  0  0  0
    3.4831    2.2100   21.4370 C   0  0  0  0  0  0  0  0  0  0  0  0
    4.5655    1.3753   21.3147 C   0  0  0  0  0  0  0  0  0  0  0  0
    4.9998    0.9385   20.0283 C   0  0  0  0  0  0  0  0  0  0  0  0
    5.0878    1.0426   22.2061 H   0  0  0  0  0  0  0  0  0  0  0  0
    3.1541    2.5387   22.4189 H   0  0  0  0  0  0  0  0  0  0  0  0
    1.9396    3.3193   20.4028 H   0  0  0  0  0  0  0  0  0  0  0  0
    2.6912    2.6164   18.1490 H   0  0  0  0  0  0  0  0  0  0  0  0
    4.2364    1.3747   16.7240 H   0  0  0  0  0  0  0  0  0  0  0  0
    7.3139   -0.8738   18.3019 H   0  0  0  0  0  0  0  0  0  0  0  0
    8.2781   -0.3921   20.9549 C   0  0  0  0  0  0  0  0  0  0  0  0
    8.5682   -0.9703   22.3458 C   0  0  2  0  0  0  0  0  0  0  0  0
    9.9776   -1.5478   22.4305 C   0  0  0  0  0  0  0  0  0  0  0  0
   10.1238   -2.3272   21.6726 H   0  0  0  0  0  0  0  0  0  0  0  0
   10.1881   -1.9834   23.4131 H   0  0  0  0  0  0  0  0  0  0  0  0
   10.7176   -0.7624   22.2440 H   0  0  0  0  0  0  0  0  0  0  0  0
    8.4992   -0.1419   23.0532 H   0  0  0  0  0  0  0  0  0  0  0  0
    8.7936   -0.9738   20.1739 H   0  0  0  0  0  0  0  0  0  0  0  0
    8.5989    0.6507   20.8656 H   0  0  0  0  0  0  0  0  0  0  0  0
    6.8752   -1.8900   24.0848 C   0  0  0  0  0  0  0  0  0  0  0  0
    6.8419   -0.6825   24.7866 C   0  0  0  0  0  0  0  0  0  0  0  0
    6.3681   -0.6629   26.0799 C   0  0  0  0  0  0  0  0  0  0  0  0
    6.3480    0.5062   26.7382 F   0  0  0  0  0  0  0  0  0  0  0  0
    5.9198   -1.7967   26.7437 C   0  0  0  0  0  0  0  0  0  0  0  0
    5.9213   -2.9832   26.0451 C   0  0  0  0  0  0  0  0  0  0  0  0
    6.3623   -3.0273   24.7264 C   0  0  0  0  0  0  0  0  0  0  0  0
    6.1790   -4.3059   23.9851 C   0  0  0  0  0  0  0  0  0  0  0  0
    5.5669   -5.2690   24.4485 O   0  0  0  0  0  0  0  0  0  0  0  0
    5.5672   -3.9062   26.4837 H   0  0  0  0  0  0  0  0  0  0  0  0
    5.5748   -1.7285   27.7677 H   0  0  0  0  0  0  0  0  0  0  0  0
    7.1895    0.2480   24.3535 H   0  0  0  0  0  0  0  0  0  0  0  0
    8.6745   -3.6657   22.8518 H   0  0  0  0  0  0  0  0  0  0  0  0
    7.9067   -3.5290   21.2675 H   0  0  0  0  0  0  0  0  0  0  0  0
    5.0680   -5.4609   22.0743 H   0  0  0  0  0  0  0  0  0  0  0  0
    6.0692   -4.7506   20.7743 H   0  0  0  0  0  0  0  0  0  0  0  0
    6.0464   -7.0499   23.4973 H   0  0  0  0  0  0  0  0  0  0  0  0
    8.5242   -8.1739   23.3557 H   0  0  0  0  0  0  0  0  0  0  0  0
    7.0705   -9.1243   23.7919 H   0  0  0  0  0  0  0  0  0  0  0  0
    7.6337   -9.0946   22.1034 H   0  0  0  0  0  0  0  0  0  0  0  0
  1  2  1  0
  2  3  1  0
  3  4  2  0
  3  5  1  0
  5  6  1  0
  6  7  1  0
  8  7  1  6
  8  9  1  0
  9 10  2  0
  9 11  1  0
 11 12  1  0
 12 13  2  0
 13 14  1  0
 14 15  2  0
 15 16  1  0
 16 17  2  0
 17 18  1  0
 18 19  2  0
 19 20  1  0
 20 21  2  0
 20 22  1  0
 19 23  1  0
 18 24  1  0
 17 25  1  0
 15 26  1  0
 13 27  1  0
 11 28  1  0
 28 29  1  0
 29 30  1  0
 30 31  1  0
 30 32  1  0
 30 33  1  0
 29 34  1  1
 28 35  1  0
 28 36  1  0
  8 37  1  0
 37 38  2  0
 38 39  1  0
 39 40  1  0
 39 41  2  0
 41 42  1  0
 42 43  2  0
 43 44  1  0
 44 45  2  0
 42 46  1  0
 41 47  1  0
 38 48  1  0
  7 49  1  0
  7 50  1  0
  5 51  1  0
  5 52  1  0
  2 53  1  0
  1 54  1  0
  1 55  1  0
  1 56  1  0
 44  6  1  0
 29  8  1  0
 43 37  1  0
 21 12  1  0
 21 16  1  0
M  END
>  <cnnaffinities>  (37) 
[6.49024]

>  <score>  (37) 
6.49024

>  <index>  (37) 
47

>  <Smiles>  (37) 
C(N(C(=O)C(N1C([C@@]2(C(=O)N(c3c(nc(c4c(c(c(c(c34)[H])[H])[H])[H])[H])[H])C([C@@]2(C([H])([H])[H])[H])([H])[H])c2c(c(F)c(c(c2C1=O)[H])[H])[H])([H])[H])([H])[H])[H])([H])([H])[H]

>  <h>  (37) 
<NA>

>  <Training>  (37) 
True

>  <Success>  (37) 
True

>  <enamine_searched>  (37) 
False

>  <enamine_id>  (37) 
nan

$$$$

     RDKit          3D

 41 43  0  0  0  0  0  0  0  0999 V2000
    4.9796    0.1139   26.0412 C   0  0  0  0  0  0  0  0  0  0  0  0
    5.4916   -0.7746   24.9264 C   0  0  1  0  0  0  0  0  0  0  0  0
    6.9247   -0.4151   24.5222 C   0  0  0  0  0  0  0  0  0  0  0  0
    7.6192   -1.4745   23.6453 C   0  0  0  0  0  0  0  0  0  0  0  0
    6.7425   -2.2259   22.7519 N   0  0  0  0  0  0  0  0  0  0  0  0
    6.2154   -1.7086   21.5864 C   0  0  0  0  0  0  0  0  0  0  0  0
    5.2408   -2.2201   21.0601 O   0  0  0  0  0  0  0  0  0  0  0  0
    6.9136   -0.4998   20.9138 C   0  0  0  0  0  0  0  0  0  0  0  0
    6.1142    0.0835   19.7705 C   0  0  0  0  0  0  0  0  0  0  0  0
    6.4214   -0.2149   18.4665 C   0  0  0  0  0  0  0  0  0  0  0  0
    5.7609    0.2386   17.3649 N   0  0  0  0  0  0  0  0  0  0  0  0
    4.7361    1.0301   17.5751 C   0  0  0  0  0  0  0  0  0  0  0  0
    4.2869    1.4202   18.8675 C   0  0  0  0  0  0  0  0  0  0  0  0
    3.1650    2.2722   19.0445 C   0  0  0  0  0  0  0  0  0  0  0  0
    2.7492    2.6256   20.3005 C   0  0  0  0  0  0  0  0  0  0  0  0
    3.4414    2.1420   21.4324 C   0  0  0  0  0  0  0  0  0  0  0  0
    4.5306    1.3170   21.2863 C   0  0  0  0  0  0  0  0  0  0  0  0
    4.9889    0.9338   19.9974 C   0  0  0  0  0  0  0  0  0  0  0  0
    5.0477    0.9530   22.1699 H   0  0  0  0  0  0  0  0  0  0  0  0
    3.1026    2.4225   22.4245 H   0  0  0  0  0  0  0  0  0  0  0  0
    1.8906    3.2779   20.4370 H   0  0  0  0  0  0  0  0  0  0  0  0
    2.6436    2.6440   18.1651 H   0  0  0  0  0  0  0  0  0  0  0  0
    4.1991    1.3993   16.6990 H   0  0  0  0  0  0  0  0  0  0  0  0
    7.2648   -0.8680   18.2468 H   0  0  0  0  0  0  0  0  0  0  0  0
    7.8782   -0.8551   20.5239 H   0  0  0  0  0  0  0  0  0  0  0  0
    7.1540    0.2849   21.6443 H   0  0  0  0  0  0  0  0  0  0  0  0
    6.0653   -3.3757   23.3548 C   0  0  0  0  0  0  0  0  0  0  0  0
    4.9576   -3.0261   24.3528 C   0  0  0  0  0  0  0  0  0  0  0  0
    5.3708   -2.1239   25.3558 O   0  0  0  0  0  0  0  0  0  0  0  0
    4.0890   -2.6156   23.8185 H   0  0  0  0  0  0  0  0  0  0  0  0
    4.6202   -3.9343   24.8761 H   0  0  0  0  0  0  0  0  0  0  0  0
    6.8217   -3.9582   23.8881 H   0  0  0  0  0  0  0  0  0  0  0  0
    5.6566   -4.0050   22.5613 H   0  0  0  0  0  0  0  0  0  0  0  0
    8.0987   -2.2066   24.2965 H   0  0  0  0  0  0  0  0  0  0  0  0
    8.4236   -1.0225   23.0600 H   0  0  0  0  0  0  0  0  0  0  0  0
    7.5254   -0.2432   25.4260 H   0  0  0  0  0  0  0  0  0  0  0  0
    6.8950    0.5488   23.9966 H   0  0  0  0  0  0  0  0  0  0  0  0
    4.8419   -0.6408   24.0535 H   0  0  0  0  0  0  0  0  0  0  0  0
    5.5841   -0.0160   26.9428 H   0  0  0  0  0  0  0  0  0  0  0  0
    5.0170    1.1642   25.7360 H   0  0  0  0  0  0  0  0  0  0  0  0
    3.9434   -0.1394   26.2806 H   0  0  0  0  0  0  0  0  0  0  0  0
  1  2  1  0
  2  3  1  0
  3  4  1  0
  4  5  1  0
  5  6  1  0
  6  7  2  0
  6  8  1  0
  8  9  1  0
  9 10  2  0
 10 11  1  0
 11 12  2  0
 12 13  1  0
 13 14  2  0
 14 15  1  0
 15 16  2  0
 16 17  1  0
 17 18  2  0
 17 19  1  0
 16 20  1  0
 15 21  1  0
 14 22  1  0
 12 23  1  0
 10 24  1  0
  8 25  1  0
  8 26  1  0
  5 27  1  0
 27 28  1  0
 28 29  1  0
 28 30  1  0
 28 31  1  0
 27 32  1  0
 27 33  1  0
  4 34  1  0
  4 35  1  0
  3 36  1  0
  3 37  1  0
  2 38  1  6
  1 39  1  0
  1 40  1  0
  1 41  1  0
 29  2  1  0
 18  9  1  0
 18 13  1  0
M  END
>  <cnnaffinities>  (38) 
[5.02627, 4.71609]

>  <score>  (38) 
5.02627

>  <index>  (38) 
48

>  <Smiles>  (38) 
C([C@]1(C(C(N(C(=O)C(c2c(nc(c3c(c(c(c(c23)[H])[H])[H])[H])[H])[H])([H])[H])C(C(O1)([H])[H])([H])[H])([H])[H])([H])[H])[H])([H])([H])[H]

>  <h>  (38) 
<NA>

>  <Training>  (38) 
True

>  <Success>  (38) 
True

>  <enamine_searched>  (38) 
False

>  <enamine_id>  (38) 
nan

$$$$

     RDKit          3D

 42 45  0  0  0  0  0  0  0  0999 V2000
    4.7518   -4.4577   23.8470 C   0  0  0  0  0  0  0  0  0  0  0  0
    5.5358   -3.2582   24.1122 N   0  0  0  0  0  0  0  0  0  0  0  0
    6.8573   -3.0905   23.5343 C   0  0  0  0  0  0  0  0  0  0  0  0
    7.1112   -1.6539   23.0459 C   0  0  1  0  0  0  0  0  0  0  0  0
    6.2872   -1.3299   21.7841 C   0  0  0  0  0  0  0  0  0  0  0  0
    5.1542   -1.7372   21.6236 O   0  0  0  0  0  0  0  0  0  0  0  0
    6.8483   -0.4690   20.8606 N   0  0  0  0  0  0  0  0  0  0  0  0
    6.1010    0.0684   19.7765 C   0  0  0  0  0  0  0  0  0  0  0  0
    6.4396   -0.2141   18.4746 C   0  0  0  0  0  0  0  0  0  0  0  0
    5.7692    0.2384   17.3843 N   0  0  0  0  0  0  0  0  0  0  0  0
    4.7352    1.0241   17.5828 C   0  0  0  0  0  0  0  0  0  0  0  0
    4.2912    1.4207   18.8751 C   0  0  0  0  0  0  0  0  0  0  0  0
    3.1753    2.2838   19.0474 C   0  0  0  0  0  0  0  0  0  0  0  0
    2.7844    2.6681   20.3038 C   0  0  0  0  0  0  0  0  0  0  0  0
    3.4989    2.2134   21.4339 C   0  0  0  0  0  0  0  0  0  0  0  0
    4.5829    1.3823   21.2931 C   0  0  0  0  0  0  0  0  0  0  0  0
    4.9958    0.9463   20.0049 C   0  0  0  0  0  0  0  0  0  0  0  0
    5.1326    1.0447   22.1663 H   0  0  0  0  0  0  0  0  0  0  0  0
    3.1911    2.5244   22.4259 H   0  0  0  0  0  0  0  0  0  0  0  0
    1.9355    3.3315   20.4423 H   0  0  0  0  0  0  0  0  0  0  0  0
    2.6472    2.6481   18.1697 H   0  0  0  0  0  0  0  0  0  0  0  0
    4.2024    1.3955   16.7023 H   0  0  0  0  0  0  0  0  0  0  0  0
    7.2784   -0.8724   18.2545 H   0  0  0  0  0  0  0  0  0  0  0  0
    7.8486   -0.3568   20.8300 H   0  0  0  0  0  0  0  0  0  0  0  0
    6.7399   -0.6838   24.1423 C   0  0  0  0  0  0  0  0  0  0  0  0
    7.3604    0.5635   24.2041 C   0  0  0  0  0  0  0  0  0  0  0  0
    6.9673    1.4885   25.1572 C   0  0  0  0  0  0  0  0  0  0  0  0
    7.7189    3.0521   25.2127 Cl  0  0  0  0  0  0  0  0  0  0  0  0
    5.9522    1.1979   26.0642 C   0  0  0  0  0  0  0  0  0  0  0  0
    5.3337   -0.0395   25.9963 C   0  0  0  0  0  0  0  0  0  0  0  0
    5.7243   -0.9944   25.0442 C   0  0  0  0  0  0  0  0  0  0  0  0
    5.0159   -2.3290   24.9739 C   0  0  0  0  0  0  0  0  0  0  0  0
    4.0165   -2.5634   25.6357 O   0  0  0  0  0  0  0  0  0  0  0  0
    4.5376   -0.2619   26.6947 H   0  0  0  0  0  0  0  0  0  0  0  0
    5.6631    1.9468   26.7997 H   0  0  0  0  0  0  0  0  0  0  0  0
    8.1448    0.8175   23.4991 H   0  0  0  0  0  0  0  0  0  0  0  0
    8.1777   -1.5458   22.8167 H   0  0  0  0  0  0  0  0  0  0  0  0
    7.6221   -3.3642   24.2729 H   0  0  0  0  0  0  0  0  0  0  0  0
    6.9639   -3.7879   22.7053 H   0  0  0  0  0  0  0  0  0  0  0  0
    5.2937   -5.1203   23.1724 H   0  0  0  0  0  0  0  0  0  0  0  0
    3.8014   -4.2110   23.3688 H   0  0  0  0  0  0  0  0  0  0  0  0
    4.5276   -5.0168   24.7585 H   0  0  0  0  0  0  0  0  0  0  0  0
  1  2  1  0
  2  3  1  0
  3  4  1  0
  4  5  1  0
  5  6  2  0
  5  7  1  0
  7  8  1  0
  8  9  2  0
  9 10  1  0
 10 11  2  0
 11 12  1  0
 12 13  2  0
 13 14  1  0
 14 15  2  0
 15 16  1  0
 16 17  2  0
 16 18  1  0
 15 19  1  0
 14 20  1  0
 13 21  1  0
 11 22  1  0
  9 23  1  0
  7 24  1  0
  4 25  1  0
 25 26  2  0
 26 27  1  0
 27 28  1  0
 27 29  2  0
 29 30  1  0
 30 31  2  0
 31 32  1  0
 32 33  2  0
 30 34  1  0
 29 35  1  0
 26 36  1  0
  4 37  1  6
  3 38  1  0
  3 39  1  0
  1 40  1  0
  1 41  1  0
  1 42  1  0
 32  2  1  0
 17  8  1  0
 31 25  1  0
 17 12  1  0
M  END
>  <cnnaffinities>  (39) 
[5.53845, 5.53878]

>  <score>  (39) 
5.53845

>  <index>  (39) 
49

>  <Smiles>  (39) 
C(N1C([C@@](C(=O)N(c2c(nc(c3c(c(c(c(c23)[H])[H])[H])[H])[H])[H])[H])(c2c(c(Cl)c(c(c2C1=O)[H])[H])[H])[H])([H])[H])([H])([H])[H]

>  <h>  (39) 
<NA>

>  <Training>  (39) 
True

>  <Success>  (39) 
True

>  <enamine_searched>  (39) 
False

>  <enamine_id>  (39) 
nan

$$$$

     RDKit          3D

 38 41  0  0  0  0  0  0  0  0999 V2000
    5.1023   -1.9867   21.3439 O   0  0  0  0  0  0  0  0  0  0  0  0
    6.2908   -1.7691   21.5071 C   0  0  0  0  0  0  0  0  0  0  0  0
    6.9402   -0.5058   20.8954 C   0  0  0  0  0  0  0  0  0  0  0  0
    6.1180    0.0872   19.7714 C   0  0  0  0  0  0  0  0  0  0  0  0
    6.4222   -0.2113   18.4674 C   0  0  0  0  0  0  0  0  0  0  0  0
    5.7596    0.2372   17.3673 N   0  0  0  0  0  0  0  0  0  0  0  0
    4.7354    1.0302   17.5766 C   0  0  0  0  0  0  0  0  0  0  0  0
    4.2869    1.4206   18.8687 C   0  0  0  0  0  0  0  0  0  0  0  0
    3.1644    2.2737   19.0418 C   0  0  0  0  0  0  0  0  0  0  0  0
    2.7465    2.6248   20.2978 C   0  0  0  0  0  0  0  0  0  0  0  0
    3.4354    2.1369   21.4296 C   0  0  0  0  0  0  0  0  0  0  0  0
    4.5249    1.3110   21.2876 C   0  0  0  0  0  0  0  0  0  0  0  0
    4.9870    0.9329   19.9993 C   0  0  0  0  0  0  0  0  0  0  0  0
    5.0271    0.9263   22.1683 H   0  0  0  0  0  0  0  0  0  0  0  0
    3.0923    2.4121   22.4217 H   0  0  0  0  0  0  0  0  0  0  0  0
    1.8883    3.2775   20.4333 H   0  0  0  0  0  0  0  0  0  0  0  0
    2.6454    2.6464   18.1613 H   0  0  0  0  0  0  0  0  0  0  0  0
    4.1996    1.3989   16.6999 H   0  0  0  0  0  0  0  0  0  0  0  0
    7.2635   -0.8652   18.2456 H   0  0  0  0  0  0  0  0  0  0  0  0
    7.0904    0.2420   21.6854 H   0  0  0  0  0  0  0  0  0  0  0  0
    7.9396   -0.7551   20.5099 H   0  0  0  0  0  0  0  0  0  0  0  0
    7.0807   -2.6632   22.2022 N   0  0  0  0  0  0  0  0  0  0  0  0
    8.4403   -2.3759   22.6494 C   0  0  0  0  0  0  0  0  0  0  0  0
    8.7614   -3.0433   23.9884 C   0  0  0  0  0  0  0  0  0  0  0  0
    8.3862   -4.4897   23.9475 C   0  0  0  0  0  0  0  0  0  0  0  0
    9.0679   -5.7410   24.9333 S   0  0  0  0  0  0  0  0  0  0  0  0
    8.0093   -6.9117   24.2316 C   0  0  0  0  0  0  0  0  0  0  0  0
    7.1635   -6.3593   23.3162 C   0  0  0  0  0  0  0  0  0  0  0  0
    7.3926   -4.9554   23.1478 C   0  0  0  0  0  0  0  0  0  0  0  0
    6.5957   -4.0473   22.2517 C   0  0  0  0  0  0  0  0  0  0  0  0
    5.5515   -4.0544   22.5818 H   0  0  0  0  0  0  0  0  0  0  0  0
    6.5698   -4.4924   21.2473 H   0  0  0  0  0  0  0  0  0  0  0  0
    6.4136   -6.9330   22.7769 H   0  0  0  0  0  0  0  0  0  0  0  0
    8.0715   -7.9477   24.5309 H   0  0  0  0  0  0  0  0  0  0  0  0
    9.8190   -2.9129   24.2321 H   0  0  0  0  0  0  0  0  0  0  0  0
    8.1985   -2.5530   24.7914 H   0  0  0  0  0  0  0  0  0  0  0  0
    9.1757   -2.7096   21.9060 H   0  0  0  0  0  0  0  0  0  0  0  0
    8.5549   -1.2955   22.7614 H   0  0  0  0  0  0  0  0  0  0  0  0
  1  2  2  0
  2  3  1  0
  3  4  1  0
  4  5  2  0
  5  6  1  0
  6  7  2  0
  7  8  1  0
  8  9  2  0
  9 10  1  0
 10 11  2  0
 11 12  1  0
 12 13  2  0
 12 14  1  0
 11 15  1  0
 10 16  1  0
  9 17  1  0
  7 18  1  0
  5 19  1  0
  3 20  1  0
  3 21  1  0
  2 22  1  0
 22 23  1  0
 23 24  1  0
 24 25  1  0
 25 26  1  0
 26 27  1  0
 27 28  2  0
 28 29  1  0
 29 30  1  0
 30 31  1  0
 30 32  1  0
 28 33  1  0
 27 34  1  0
 24 35  1  0
 24 36  1  0
 23 37  1  0
 23 38  1  0
 13  4  1  0
 30 22  1  0
 13  8  1  0
 29 25  2  0
M  END
>  <cnnaffinities>  (40) 
[5.35884]

>  <score>  (40) 
5.35884

>  <index>  (40) 
50

>  <Smiles>  (40) 
O=C(C(c1c(nc(c2c(c(c(c(c12)[H])[H])[H])[H])[H])[H])([H])[H])N1C(C(c2sc(c(c2C1([H])[H])[H])[H])([H])[H])([H])[H]

>  <h>  (40) 
<NA>

>  <Training>  (40) 
True

>  <Success>  (40) 
True

>  <enamine_searched>  (40) 
False

>  <enamine_id>  (40) 
nan

$$$$

     RDKit          3D

 67 73  0  0  0  0  0  0  0  0999 V2000
    6.1740    1.4290   30.0060 C   0  0  0  0  0  0  0  0  0  0  0  0
    5.8626    1.1932   28.5698 C   0  0  0  0  0  0  0  0  0  0  0  0
    5.0718    0.3197   28.0929 N   0  0  0  0  0  0  0  0  0  0  0  0
    5.1147    0.4465   26.7250 N   0  0  0  0  0  0  0  0  0  0  0  0
    5.9703    1.3552   26.4901 C   0  0  0  0  0  0  0  0  0  0  0  0
    6.3103    1.8733   25.1486 C   0  0  0  0  0  0  0  0  0  0  0  0
    7.5442    1.0739   24.6145 N   0  0  0  0  0  0  0  0  0  0  0  0
    7.3336   -0.2845   24.1050 C   0  0  0  0  0  0  0  0  0  0  0  0
    8.2360   -0.4879   22.8385 C   0  0  2  0  0  0  0  0  0  0  0  0
    7.6530    0.3918   21.7057 C   0  0  0  0  0  0  0  0  0  0  0  0
    7.8027    1.5742   21.6227 O   0  0  0  0  0  0  0  0  0  0  0  0
    6.9147   -0.4111   20.8434 N   0  0  0  0  0  0  0  0  0  0  0  0
    6.1184    0.0939   19.7618 C   0  0  0  0  0  0  0  0  0  0  0  0
    6.4257   -0.2153   18.4608 C   0  0  0  0  0  0  0  0  0  0  0  0
    5.7561    0.2406   17.3675 N   0  0  0  0  0  0  0  0  0  0  0  0
    4.7331    1.0328   17.5750 C   0  0  0  0  0  0  0  0  0  0  0  0
    4.2847    1.4277   18.8629 C   0  0  0  0  0  0  0  0  0  0  0  0
    3.1598    2.2785   19.0502 C   0  0  0  0  0  0  0  0  0  0  0  0
    2.7525    2.6119   20.3092 C   0  0  0  0  0  0  0  0  0  0  0  0
    3.4360    2.1116   21.4404 C   0  0  0  0  0  0  0  0  0  0  0  0
    4.5177    1.2917   21.2871 C   0  0  0  0  0  0  0  0  0  0  0  0
    4.9843    0.9407   19.9933 C   0  0  0  0  0  0  0  0  0  0  0  0
    5.0266    0.8922   22.1618 H   0  0  0  0  0  0  0  0  0  0  0  0
    3.0884    2.3787   22.4362 H   0  0  0  0  0  0  0  0  0  0  0  0
    1.8917    3.2617   20.4557 H   0  0  0  0  0  0  0  0  0  0  0  0
    2.6295    2.6540   18.1762 H   0  0  0  0  0  0  0  0  0  0  0  0
    4.1900    1.4045   16.7037 H   0  0  0  0  0  0  0  0  0  0  0  0
    7.2820   -0.8633   18.2699 H   0  0  0  0  0  0  0  0  0  0  0  0
    6.8757   -1.8067   21.2667 C   0  0  0  0  0  0  0  0  0  0  0  0
    8.0476   -1.9153   22.2756 C   0  0  2  0  0  0  0  0  0  0  0  0
    7.9457   -3.0773   23.3026 C   0  0  0  0  0  0  0  0  0  0  0  0
    6.5909   -3.2883   23.8685 N   0  0  0  0  0  0  0  0  0  0  0  0
    5.6075   -4.1465   23.3488 C   0  0  0  0  0  0  0  0  0  0  0  0
    5.7747   -4.8364   22.1178 C   0  0  0  0  0  0  0  0  0  0  0  0
    4.7395   -5.6512   21.7014 C   0  0  0  0  0  0  0  0  0  0  0  0
    3.6021   -5.8045   22.4020 N   0  0  0  0  0  0  0  0  0  0  0  0
    3.5129   -5.1272   23.5447 C   0  0  0  0  0  0  0  0  0  0  0  0
    4.4541   -4.3130   24.0383 N   0  0  0  0  0  0  0  0  0  0  0  0
    2.5626   -5.2475   24.1449 H   0  0  0  0  0  0  0  0  0  0  0  0
    4.8448   -6.2021   20.7409 H   0  0  0  0  0  0  0  0  0  0  0  0
    6.6704   -4.7314   21.5138 H   0  0  0  0  0  0  0  0  0  0  0  0
    6.4250   -2.8838   24.7936 H   0  0  0  0  0  0  0  0  0  0  0  0
    8.6651   -2.8825   24.1229 H   0  0  0  0  0  0  0  0  0  0  0  0
    8.3034   -4.0159   22.8430 H   0  0  0  0  0  0  0  0  0  0  0  0
    8.9130   -2.1659   21.6572 H   0  0  0  0  0  0  0  0  0  0  0  0
    5.9033   -2.0063   21.7358 H   0  0  0  0  0  0  0  0  0  0  0  0
    7.0247   -2.4809   20.4113 H   0  0  0  0  0  0  0  0  0  0  0  0
    9.6967   -0.0461   23.1121 C   0  0  0  0  0  0  0  0  0  0  0  0
   10.7436   -0.4227   22.3256 C   0  0  0  0  0  0  0  0  0  0  0  0
   11.9832   -0.0254   22.6435 C   0  0  0  0  0  0  0  0  0  0  0  0
   12.9293   -0.9304   21.7156 Cl  0  0  0  0  0  0  0  0  0  0  0  0
   12.3526    0.8412   23.6393 C   0  0  0  0  0  0  0  0  0  0  0  0
   11.3692    1.2464   24.3886 C   0  0  0  0  0  0  0  0  0  0  0  0
    9.9237    0.8771   24.1468 C   0  0  0  0  0  0  0  0  0  0  0  0
    8.7691    1.5065   24.9501 C   0  0  0  0  0  0  0  0  0  0  0  0
    6.3101    1.8735   25.1481 O   0  0  0  0  0  0  0  0  0  0  0  0
   11.5755    1.9817   25.1810 H   0  0  0  0  0  0  0  0  0  0  0  0
   13.3546    1.1647   23.8479 H   0  0  0  0  0  0  0  0  0  0  0  0
   10.6173   -1.0364   21.4324 H   0  0  0  0  0  0  0  0  0  0  0  0
    7.6716   -0.9344   24.9173 H   0  0  0  0  0  0  0  0  0  0  0  0
    6.2886   -0.4651   23.8804 H   0  0  0  0  0  0  0  0  0  0  0  0
    6.5873    2.9374   25.1067 H   0  0  0  0  0  0  0  0  0  0  0  0
    5.5042    1.7549   24.4130 H   0  0  0  0  0  0  0  0  0  0  0  0
    6.4859    1.9283   27.6170 O   0  0  0  0  0  0  0  0  0  0  0  0
    6.9362    0.7008   30.3308 H   0  0  0  0  0  0  0  0  0  0  0  0
    5.2526    1.2627   30.5816 H   0  0  0  0  0  0  0  0  0  0  0  0
    6.5397    2.4456   30.1836 H   0  0  0  0  0  0  0  0  0  0  0  0
  1  2  1  0
  2  3  2  0
  3  4  1  0
  4  5  2  0
  5  6  1  0
  6  7  1  0
  7  8  1  0
  9  8  1  1
  9 10  1  0
 10 11  2  0
 10 12  1  0
 12 13  1  0
 13 14  2  0
 14 15  1  0
 15 16  2  0
 16 17  1  0
 17 18  2  0
 18 19  1  0
 19 20  2  0
 20 21  1  0
 21 22  2  0
 21 23  1  0
 20 24  1  0
 19 25  1  0
 18 26  1  0
 16 27  1  0
 14 28  1  0
 12 29  1  0
 29 30  1  0
 30 31  1  0
 31 32  1  0
 32 33  1  0
 33 34  2  0
 34 35  1  0
 35 36  2  0
 36 37  1  0
 37 38  2  0
 37 39  1  0
 35 40  1  0
 34 41  1  0
 32 42  1  0
 31 43  1  0
 31 44  1  0
 30 45  1  6
 29 46  1  0
 29 47  1  0
  9 48  1  0
 48 49  2  0
 49 50  1  0
 50 51  1  0
 50 52  2  0
 52 53  1  0
 53 54  2  0
 54 55  1  0
 55 56  2  0
 53 57  1  0
 52 58  1  0
 49 59  1  0
  8 60  1  0
  8 61  1  0
  6 62  1  0
  6 63  1  0
  5 64  1  0
  1 65  1  0
  1 66  1  0
  1 67  1  0
 64  2  1  0
 55  7  1  0
 30  9  1  0
 38 33  1  0
 54 48  1  0
 22 13  1  0
 22 17  1  0
M  END
>  <cnnaffinities>  (41) 
[6.76195]

>  <score>  (41) 
6.76195

>  <index>  (41) 
51

>  <Smiles>  (41) 
C(c1nnc(C(N2C([C@@]3(C(=O)N(c4c(nc(c5c(c(c(c(c45)[H])[H])[H])[H])[H])[H])C([C@@]3(C(N(c3c(c(nc(n3)[H])[H])[H])[H])([H])[H])[H])([H])[H])c3c(c(Cl)c(c(c3C2=O)[H])[H])[H])([H])[H])([H])[H])o1)([H])([H])[H]

>  <h>  (41) 
<NA>

>  <Training>  (41) 
True

>  <Success>  (41) 
True

>  <enamine_searched>  (41) 
False

>  <enamine_id>  (41) 
nan

$$$$

     RDKit          3D

 66 71  0  0  0  0  0  0  0  0999 V2000
    7.5296   -8.4573   23.0546 C   0  0  0  0  0  0  0  0  0  0  0  0
    6.6347   -7.3472   22.7785 N   0  0  0  0  0  0  0  0  0  0  0  0
    6.8804   -6.5157   21.7277 C   0  0  0  0  0  0  0  0  0  0  0  0
    7.7175   -6.7228   20.8635 O   0  0  0  0  0  0  0  0  0  0  0  0
    6.0625   -5.2271   21.7431 C   0  0  0  0  0  0  0  0  0  0  0  0
    6.6207   -4.2852   22.6917 N   0  0  0  0  0  0  0  0  0  0  0  0
    7.7359   -3.4328   22.3141 C   0  0  0  0  0  0  0  0  0  0  0  0
    7.4201   -1.9601   22.6689 C   0  0  2  0  0  0  0  0  0  0  0  0
    6.3363   -1.4690   21.6793 C   0  0  0  0  0  0  0  0  0  0  0  0
    5.2064   -1.9077   21.5658 O   0  0  0  0  0  0  0  0  0  0  0  0
    6.8680   -0.4764   20.8808 N   0  0  0  0  0  0  0  0  0  0  0  0
    6.1381    0.0709   19.8018 C   0  0  0  0  0  0  0  0  0  0  0  0
    6.4926   -0.2178   18.5075 C   0  0  0  0  0  0  0  0  0  0  0  0
    5.8352    0.2251   17.4077 N   0  0  0  0  0  0  0  0  0  0  0  0
    4.7965    1.0009   17.6082 C   0  0  0  0  0  0  0  0  0  0  0  0
    4.3368    1.4019   18.8940 C   0  0  0  0  0  0  0  0  0  0  0  0
    3.2146    2.2577   19.0408 C   0  0  0  0  0  0  0  0  0  0  0  0
    2.8042    2.6514   20.2844 C   0  0  0  0  0  0  0  0  0  0  0  0
    3.4948    2.2089   21.4340 C   0  0  0  0  0  0  0  0  0  0  0  0
    4.5791    1.3737   21.3193 C   0  0  0  0  0  0  0  0  0  0  0  0
    5.0219    0.9378   20.0368 C   0  0  0  0  0  0  0  0  0  0  0  0
    5.1034    1.0362   22.2081 H   0  0  0  0  0  0  0  0  0  0  0  0
    3.1606    2.5326   22.4156 H   0  0  0  0  0  0  0  0  0  0  0  0
    1.9500    3.3128   20.3952 H   0  0  0  0  0  0  0  0  0  0  0  0
    2.7083    2.6020   18.1434 H   0  0  0  0  0  0  0  0  0  0  0  0
    4.2607    1.3561   16.7283 H   0  0  0  0  0  0  0  0  0  0  0  0
    7.3402   -0.8740   18.3158 H   0  0  0  0  0  0  0  0  0  0  0  0
    8.3159   -0.4135   20.9731 C   0  0  0  0  0  0  0  0  0  0  0  0
    8.6080   -1.0055   22.3584 C   0  0  2  0  0  0  0  0  0  0  0  0
   10.0151   -1.6042   22.4176 C   0  0  0  0  0  0  0  0  0  0  0  0
   10.2936   -2.1890   23.7115 N   0  0  0  0  0  0  0  0  0  0  0  0
   11.5025   -2.6935   24.0744 C   0  0  0  0  0  0  0  0  0  0  0  0
   12.6302   -2.5877   23.2399 C   0  0  0  0  0  0  0  0  0  0  0  0
   13.8433   -2.8688   23.8260 C   0  0  0  0  0  0  0  0  0  0  0  0
   13.9826   -3.3778   25.0550 N   0  0  0  0  0  0  0  0  0  0  0  0
   12.8338   -3.5964   25.6799 C   0  0  0  0  0  0  0  0  0  0  0  0
   11.6046   -3.2699   25.2837 N   0  0  0  0  0  0  0  0  0  0  0  0
   12.9311   -4.1189   26.6267 H   0  0  0  0  0  0  0  0  0  0  0  0
   14.7752   -2.6795   23.3106 H   0  0  0  0  0  0  0  0  0  0  0  0
   12.5692   -2.2830   22.2002 H   0  0  0  0  0  0  0  0  0  0  0  0
    9.5946   -2.1599   24.4387 H   0  0  0  0  0  0  0  0  0  0  0  0
   10.7502   -0.8181   22.1888 H   0  0  0  0  0  0  0  0  0  0  0  0
   10.1172   -2.3599   21.6228 H   0  0  0  0  0  0  0  0  0  0  0  0
    8.5656   -0.1838   23.0772 H   0  0  0  0  0  0  0  0  0  0  0  0
    8.6618    0.6217   20.8834 H   0  0  0  0  0  0  0  0  0  0  0  0
    8.8026   -1.0078   20.1838 H   0  0  0  0  0  0  0  0  0  0  0  0
    6.9253   -1.9173   24.1118 C   0  0  0  0  0  0  0  0  0  0  0  0
    6.8840   -0.7098   24.8261 C   0  0  0  0  0  0  0  0  0  0  0  0
    6.4007   -0.6783   26.1235 C   0  0  0  0  0  0  0  0  0  0  0  0
    6.3518    0.8477   26.9708 Cl  0  0  0  0  0  0  0  0  0  0  0  0
    5.9501   -1.8319   26.7662 C   0  0  0  0  0  0  0  0  0  0  0  0
    5.9445   -3.0187   26.0592 C   0  0  0  0  0  0  0  0  0  0  0  0
    6.3928   -3.0570   24.7399 C   0  0  0  0  0  0  0  0  0  0  0  0
    6.1736   -4.3109   23.9725 C   0  0  0  0  0  0  0  0  0  0  0  0
    5.5682   -5.2828   24.4386 O   0  0  0  0  0  0  0  0  0  0  0  0
    5.5695   -3.9328   26.5083 H   0  0  0  0  0  0  0  0  0  0  0  0
    5.5874   -1.7845   27.7877 H   0  0  0  0  0  0  0  0  0  0  0  0
    7.1997    0.2253   24.3769 H   0  0  0  0  0  0  0  0  0  0  0  0
    7.9001   -3.5248   21.2426 H   0  0  0  0  0  0  0  0  0  0  0  0
    8.6593   -3.7472   22.8174 H   0  0  0  0  0  0  0  0  0  0  0  0
    6.0869   -4.7829   20.7455 H   0  0  0  0  0  0  0  0  0  0  0  0
    5.0220   -5.4287   22.0202 H   0  0  0  0  0  0  0  0  0  0  0  0
    6.1367   -6.9392   23.5657 H   0  0  0  0  0  0  0  0  0  0  0  0
    7.6044   -9.1170   22.1851 H   0  0  0  0  0  0  0  0  0  0  0  0
    8.5378   -8.1124   23.3258 H   0  0  0  0  0  0  0  0  0  0  0  0
    7.1274   -9.0397   23.8903 H   0  0  0  0  0  0  0  0  0  0  0  0
  1  2  1  0
  2  3  1  0
  3  4  2  0
  3  5  1  0
  5  6  1  0
  6  7  1  0
  8  7  1  6
  8  9  1  0
  9 10  2  0
  9 11  1  0
 11 12  1  0
 12 13  2  0
 13 14  1  0
 14 15  2  0
 15 16  1  0
 16 17  2  0
 17 18  1  0
 18 19  2  0
 19 20  1  0
 20 21  2  0
 20 22  1  0
 19 23  1  0
 18 24  1  0
 17 25  1  0
 15 26  1  0
 13 27  1  0
 11 28  1  0
 28 29  1  0
 29 30  1  0
 30 31  1  0
 31 32  1  0
 32 33  2  0
 33 34  1  0
 34 35  2  0
 35 36  1  0
 36 37  2  0
 36 38  1  0
 34 39  1  0
 33 40  1  0
 31 41  1  0
 30 42  1  0
 30 43  1  0
 29 44  1  1
 28 45  1  0
 28 46  1  0
  8 47  1  0
 47 48  2  0
 48 49  1  0
 49 50  1  0
 49 51  2  0
 51 52  1  0
 52 53  2  0
 53 54  1  0
 54 55  2  0
 52 56  1  0
 51 57  1  0
 48 58  1  0
  7 59  1  0
  7 60  1  0
  5 61  1  0
  5 62  1  0
  2 63  1  0
  1 64  1  0
  1 65  1  0
  1 66  1  0
 54  6  1  0
 29  8  1  0
 37 32  1  0
 53 47  1  0
 21 12  1  0
 21 16  1  0
M  END
>  <cnnaffinities>  (42) 
[7.51109]

>  <score>  (42) 
7.51109

>  <index>  (42) 
52

>  <Smiles>  (42) 
C(N(C(=O)C(N1C([C@@]2(C(=O)N(c3c(nc(c4c(c(c(c(c34)[H])[H])[H])[H])[H])[H])C([C@@]2(C(N(c2c(c(nc(n2)[H])[H])[H])[H])([H])[H])[H])([H])[H])c2c(c(Cl)c(c(c2C1=O)[H])[H])[H])([H])[H])([H])[H])[H])([H])([H])[H]

>  <h>  (42) 
<NA>

>  <Training>  (42) 
True

>  <Success>  (42) 
True

>  <enamine_searched>  (42) 
False

>  <enamine_id>  (42) 
nan

$$$$

     RDKit          3D

 66 71  0  0  0  0  0  0  0  0999 V2000
    7.5494   -8.4348   23.0591 C   0  0  0  0  0  0  0  0  0  0  0  0
    6.6492   -7.3332   22.7896 N   0  0  0  0  0  0  0  0  0  0  0  0
    6.8778   -6.5067   21.7369 C   0  0  0  0  0  0  0  0  0  0  0  0
    7.7052   -6.7223   20.8680 O   0  0  0  0  0  0  0  0  0  0  0  0
    6.0606   -5.2153   21.7528 C   0  0  0  0  0  0  0  0  0  0  0  0
    6.6372   -4.2773   22.6984 N   0  0  0  0  0  0  0  0  0  0  0  0
    7.7389   -3.4097   22.3113 C   0  0  0  0  0  0  0  0  0  0  0  0
    7.4045   -1.9397   22.6632 C   0  0  2  0  0  0  0  0  0  0  0  0
    6.3151   -1.4553   21.6754 C   0  0  0  0  0  0  0  0  0  0  0  0
    5.1804   -1.8779   21.5725 O   0  0  0  0  0  0  0  0  0  0  0  0
    6.8605   -0.4790   20.8652 N   0  0  0  0  0  0  0  0  0  0  0  0
    6.1277    0.0725   19.7910 C   0  0  0  0  0  0  0  0  0  0  0  0
    6.4796   -0.2163   18.4962 C   0  0  0  0  0  0  0  0  0  0  0  0
    5.8223    0.2289   17.3971 N   0  0  0  0  0  0  0  0  0  0  0  0
    4.7858    1.0063   17.6035 C   0  0  0  0  0  0  0  0  0  0  0  0
    4.3281    1.4040   18.8907 C   0  0  0  0  0  0  0  0  0  0  0  0
    3.2079    2.2601   19.0413 C   0  0  0  0  0  0  0  0  0  0  0  0
    2.7994    2.6510   20.2860 C   0  0  0  0  0  0  0  0  0  0  0  0
    3.4912    2.2106   21.4352 C   0  0  0  0  0  0  0  0  0  0  0  0
    4.5757    1.3774   21.3172 C   0  0  0  0  0  0  0  0  0  0  0  0
    5.0145    0.9409   20.0328 C   0  0  0  0  0  0  0  0  0  0  0  0
    5.0973    1.0402   22.2076 H   0  0  0  0  0  0  0  0  0  0  0  0
    3.1590    2.5364   22.4170 H   0  0  0  0  0  0  0  0  0  0  0  0
    1.9481    3.3149   20.3982 H   0  0  0  0  0  0  0  0  0  0  0  0
    2.7010    2.6065   18.1455 H   0  0  0  0  0  0  0  0  0  0  0  0
    4.2463    1.3633   16.7275 H   0  0  0  0  0  0  0  0  0  0  0  0
    7.3287   -0.8724   18.3085 H   0  0  0  0  0  0  0  0  0  0  0  0
    8.3103   -0.4101   20.9642 C   0  0  0  0  0  0  0  0  0  0  0  0
    8.5847   -0.9744   22.3595 C   0  0  2  0  0  0  0  0  0  0  0  0
    9.9889   -1.5528   22.4750 C   0  0  0  0  0  0  0  0  0  0  0  0
   10.2088   -2.1162   23.7854 N   0  0  0  0  0  0  0  0  0  0  0  0
   11.4171   -2.6313   24.1518 C   0  0  0  0  0  0  0  0  0  0  0  0
   11.5623   -3.2928   25.3952 C   0  0  0  0  0  0  0  0  0  0  0  0
   12.7497   -3.6173   25.8725 N   0  0  0  0  0  0  0  0  0  0  0  0
   13.8078   -3.3266   25.0997 C   0  0  0  0  0  0  0  0  0  0  0  0
   13.6408   -2.8572   23.8073 C   0  0  0  0  0  0  0  0  0  0  0  0
   12.4484   -2.4978   23.3186 N   0  0  0  0  0  0  0  0  0  0  0  0
   14.5017   -2.7580   23.1586 H   0  0  0  0  0  0  0  0  0  0  0  0
   14.7924   -3.5055   25.5313 H   0  0  0  0  0  0  0  0  0  0  0  0
   10.6829   -3.4350   26.0309 H   0  0  0  0  0  0  0  0  0  0  0  0
    9.5299   -1.9321   24.5072 H   0  0  0  0  0  0  0  0  0  0  0  0
   10.7429   -0.7846   22.2690 H   0  0  0  0  0  0  0  0  0  0  0  0
   10.1336   -2.3472   21.7321 H   0  0  0  0  0  0  0  0  0  0  0  0
    8.5094   -0.1338   23.0541 H   0  0  0  0  0  0  0  0  0  0  0  0
    8.8079   -1.0031   20.1804 H   0  0  0  0  0  0  0  0  0  0  0  0
    8.6487    0.6253   20.8627 H   0  0  0  0  0  0  0  0  0  0  0  0
    6.9199   -1.8985   24.1043 C   0  0  0  0  0  0  0  0  0  0  0  0
    6.8796   -0.6930   24.8190 C   0  0  0  0  0  0  0  0  0  0  0  0
    6.4058   -0.6621   26.1185 C   0  0  0  0  0  0  0  0  0  0  0  0
    6.3555    0.8596   26.9626 Cl  0  0  0  0  0  0  0  0  0  0  0  0
    5.9656   -1.8131   26.7699 C   0  0  0  0  0  0  0  0  0  0  0  0
    5.9674   -2.9976   26.0622 C   0  0  0  0  0  0  0  0  0  0  0  0
    6.4049   -3.0390   24.7404 C   0  0  0  0  0  0  0  0  0  0  0  0
    6.1922   -4.3004   23.9808 C   0  0  0  0  0  0  0  0  0  0  0  0
    5.5892   -5.2686   24.4492 O   0  0  0  0  0  0  0  0  0  0  0  0
    5.5989   -3.9122   26.5104 H   0  0  0  0  0  0  0  0  0  0  0  0
    5.6078   -1.7693   27.7939 H   0  0  0  0  0  0  0  0  0  0  0  0
    7.1910    0.2431   24.3705 H   0  0  0  0  0  0  0  0  0  0  0  0
    7.8936   -3.5082   21.2414 H   0  0  0  0  0  0  0  0  0  0  0  0
    8.6797   -3.7064   22.7978 H   0  0  0  0  0  0  0  0  0  0  0  0
    5.0217   -5.4168   22.0417 H   0  0  0  0  0  0  0  0  0  0  0  0
    6.0717   -4.7536   20.7608 H   0  0  0  0  0  0  0  0  0  0  0  0
    6.1316   -6.9362   23.5650 H   0  0  0  0  0  0  0  0  0  0  0  0
    8.5524   -8.0759   23.3314 H   0  0  0  0  0  0  0  0  0  0  0  0
    7.5898   -9.0919   22.1869 H   0  0  0  0  0  0  0  0  0  0  0  0
    7.1563   -9.0150   23.8956 H   0  0  0  0  0  0  0  0  0  0  0  0
  1  2  1  0
  2  3  1  0
  3  4  2  0
  3  5  1  0
  5  6  1  0
  6  7  1  0
  8  7  1  6
  8  9  1  0
  9 10  2  0
  9 11  1  0
 11 12  1  0
 12 13  2  0
 13 14  1  0
 14 15  2  0
 15 16  1  0
 16 17  2  0
 17 18  1  0
 18 19  2  0
 19 20  1  0
 20 21  2  0
 20 22  1  0
 19 23  1  0
 18 24  1  0
 17 25  1  0
 15 26  1  0
 13 27  1  0
 11 28  1  0
 28 29  1  0
 29 30  1  0
 30 31  1  0
 31 32  1  0
 32 33  2  0
 33 34  1  0
 34 35  2  0
 35 36  1  0
 36 37  2  0
 36 38  1  0
 35 39  1  0
 33 40  1  0
 31 41  1  0
 30 42  1  0
 30 43  1  0
 29 44  1  1
 28 45  1  0
 28 46  1  0
  8 47  1  0
 47 48  2  0
 48 49  1  0
 49 50  1  0
 49 51  2  0
 51 52  1  0
 52 53  2  0
 53 54  1  0
 54 55  2  0
 52 56  1  0
 51 57  1  0
 48 58  1  0
  7 59  1  0
  7 60  1  0
  5 61  1  0
  5 62  1  0
  2 63  1  0
  1 64  1  0
  1 65  1  0
  1 66  1  0
 54  6  1  0
 29  8  1  0
 37 32  1  0
 53 47  1  0
 21 12  1  0
 21 16  1  0
M  END
>  <cnnaffinities>  (43) 
[7.53531]

>  <score>  (43) 
7.53531

>  <index>  (43) 
54

>  <Smiles>  (43) 
C(N(C(=O)C(N1C([C@@]2(C(=O)N(c3c(nc(c4c(c(c(c(c34)[H])[H])[H])[H])[H])[H])C([C@@]2(C(N(c2c(nc(c(n2)[H])[H])[H])[H])([H])[H])[H])([H])[H])c2c(c(Cl)c(c(c2C1=O)[H])[H])[H])([H])[H])([H])[H])[H])([H])([H])[H]

>  <h>  (43) 
<NA>

>  <Training>  (43) 
True

>  <Success>  (43) 
True

>  <enamine_searched>  (43) 
False

>  <enamine_id>  (43) 
nan

$$$$

     RDKit          3D

 41 43  0  0  0  0  0  0  0  0999 V2000
    5.4657   -2.3593   21.0013 O   0  0  0  0  0  0  0  0  0  0  0  0
    6.1714   -1.6121   21.6541 C   0  0  0  0  0  0  0  0  0  0  0  0
    6.9179   -0.4790   20.9153 C   0  0  0  0  0  0  0  0  0  0  0  0
    6.1121    0.0874   19.7666 C   0  0  0  0  0  0  0  0  0  0  0  0
    6.4205   -0.2145   18.4626 C   0  0  0  0  0  0  0  0  0  0  0  0
    5.7596    0.2390   17.3625 N   0  0  0  0  0  0  0  0  0  0  0  0
    4.7346    1.0307   17.5750 C   0  0  0  0  0  0  0  0  0  0  0  0
    4.2863    1.4223   18.8670 C   0  0  0  0  0  0  0  0  0  0  0  0
    3.1642    2.2732   19.0432 C   0  0  0  0  0  0  0  0  0  0  0  0
    2.7501    2.6264   20.3002 C   0  0  0  0  0  0  0  0  0  0  0  0
    3.4440    2.1432   21.4324 C   0  0  0  0  0  0  0  0  0  0  0  0
    4.5342    1.3180   21.2888 C   0  0  0  0  0  0  0  0  0  0  0  0
    4.9889    0.9375   19.9973 C   0  0  0  0  0  0  0  0  0  0  0  0
    5.0454    0.9501   22.1766 H   0  0  0  0  0  0  0  0  0  0  0  0
    3.1071    2.4216   22.4253 H   0  0  0  0  0  0  0  0  0  0  0  0
    1.8911    3.2781   20.4369 H   0  0  0  0  0  0  0  0  0  0  0  0
    2.6417    2.6442   18.1645 H   0  0  0  0  0  0  0  0  0  0  0  0
    4.1978    1.3998   16.6997 H   0  0  0  0  0  0  0  0  0  0  0  0
    7.2657   -0.8669   18.2478 H   0  0  0  0  0  0  0  0  0  0  0  0
    7.2506    0.3226   21.5807 H   0  0  0  0  0  0  0  0  0  0  0  0
    7.8280   -0.9376   20.5063 H   0  0  0  0  0  0  0  0  0  0  0  0
    6.3401   -1.8362   23.0180 N   0  0  0  0  0  0  0  0  0  0  0  0
    5.7933   -3.1033   23.5358 C   0  0  0  0  0  0  0  0  0  0  0  0
    4.2905   -3.0853   23.8134 C   0  0  0  0  0  0  0  0  0  0  0  0
    3.9143   -2.3635   25.0990 C   0  0  0  0  0  0  0  0  0  0  0  0
    4.3558   -0.6068   25.1398 S   0  0  0  0  0  0  0  0  0  0  0  0
    6.1472   -0.7884   25.3084 C   0  0  0  0  0  0  0  0  0  0  0  0
    6.8774   -0.8667   23.9597 C   0  0  1  0  0  0  0  0  0  0  0  0
    8.3648   -1.1322   24.1660 C   0  0  0  0  0  0  0  0  0  0  0  0
    9.0115   -1.1598   22.9917 F   0  0  0  0  0  0  0  0  0  0  0  0
    8.9352   -0.1842   24.9315 F   0  0  0  0  0  0  0  0  0  0  0  0
    8.5770   -2.3131   24.7777 F   0  0  0  0  0  0  0  0  0  0  0  0
    6.8096    0.1359   23.5330 H   0  0  0  0  0  0  0  0  0  0  0  0
    6.5030    0.0829   25.8666 H   0  0  0  0  0  0  0  0  0  0  0  0
    6.3549   -1.6568   25.9364 H   0  0  0  0  0  0  0  0  0  0  0  0
    4.3929   -2.8384   25.9632 H   0  0  0  0  0  0  0  0  0  0  0  0
    2.8341   -2.4208   25.2680 H   0  0  0  0  0  0  0  0  0  0  0  0
    3.7880   -2.6142   22.9672 H   0  0  0  0  0  0  0  0  0  0  0  0
    3.9190   -4.1192   23.8811 H   0  0  0  0  0  0  0  0  0  0  0  0
    6.3402   -3.3770   24.4387 H   0  0  0  0  0  0  0  0  0  0  0  0
    6.0172   -3.8776   22.8006 H   0  0  0  0  0  0  0  0  0  0  0  0
  1  2  2  0
  2  3  1  0
  3  4  1  0
  4  5  2  0
  5  6  1  0
  6  7  2  0
  7  8  1  0
  8  9  2  0
  9 10  1  0
 10 11  2  0
 11 12  1  0
 12 13  2  0
 12 14  1  0
 11 15  1  0
 10 16  1  0
  9 17  1  0
  7 18  1  0
  5 19  1  0
  3 20  1  0
  3 21  1  0
  2 22  1  0
 22 23  1  0
 23 24  1  0
 24 25  1  0
 25 26  1  0
 26 27  1  0
 27 28  1  0
 28 29  1  0
 29 30  1  0
 29 31  1  0
 29 32  1  0
 28 33  1  6
 27 34  1  0
 27 35  1  0
 25 36  1  0
 25 37  1  0
 24 38  1  0
 24 39  1  0
 23 40  1  0
 23 41  1  0
 13  4  1  0
 28 22  1  0
 13  8  1  0
M  END
>  <cnnaffinities>  (44) 
[5.51137, 5.44458, 5.44457, 5.41101, 5.41146]

>  <score>  (44) 
5.51137

>  <index>  (44) 
56

>  <Smiles>  (44) 
O=C(C(c1c(nc(c2c(c(c(c(c12)[H])[H])[H])[H])[H])[H])([H])[H])N1C(C(C(SC([C@]1(C(F)(F)F)[H])([H])[H])([H])[H])([H])[H])([H])[H]

>  <h>  (44) 
<NA>

>  <Training>  (44) 
True

>  <Success>  (44) 
True

>  <enamine_searched>  (44) 
False

>  <enamine_id>  (44) 
nan

$$$$

     RDKit          3D

 67 72  0  0  0  0  0  0  0  0999 V2000
    7.5876   -8.3993   23.0984 C   0  0  0  0  0  0  0  0  0  0  0  0
    6.7040   -7.2750   22.8937 N   0  0  0  0  0  0  0  0  0  0  0  0
    6.8674   -6.4818   21.8082 C   0  0  0  0  0  0  0  0  0  0  0  0
    7.6270   -6.7221   20.8823 O   0  0  0  0  0  0  0  0  0  0  0  0
    6.0498   -5.1954   21.8426 C   0  0  0  0  0  0  0  0  0  0  0  0
    6.6323   -4.2487   22.7713 N   0  0  0  0  0  0  0  0  0  0  0  0
    7.7313   -3.3955   22.3545 C   0  0  0  0  0  0  0  0  0  0  0  0
    7.4124   -1.9187   22.6784 C   0  0  2  0  0  0  0  0  0  0  0  0
    6.3262   -1.4647   21.6743 C   0  0  0  0  0  0  0  0  0  0  0  0
    5.2065   -1.9182   21.5584 O   0  0  0  0  0  0  0  0  0  0  0  0
    6.8470   -0.4736   20.8679 N   0  0  0  0  0  0  0  0  0  0  0  0
    6.1167    0.0663   19.7904 C   0  0  0  0  0  0  0  0  0  0  0  0
    6.4827   -0.2145   18.4998 C   0  0  0  0  0  0  0  0  0  0  0  0
    5.8273    0.2320   17.4010 N   0  0  0  0  0  0  0  0  0  0  0  0
    4.7869    1.0055   17.5989 C   0  0  0  0  0  0  0  0  0  0  0  0
    4.3238    1.4048   18.8837 C   0  0  0  0  0  0  0  0  0  0  0  0
    3.2041    2.2640   19.0342 C   0  0  0  0  0  0  0  0  0  0  0  0
    2.7973    2.6611   20.2778 C   0  0  0  0  0  0  0  0  0  0  0  0
    3.4907    2.2176   21.4275 C   0  0  0  0  0  0  0  0  0  0  0  0
    4.5712    1.3781   21.3089 C   0  0  0  0  0  0  0  0  0  0  0  0
    5.0075    0.9378   20.0270 C   0  0  0  0  0  0  0  0  0  0  0  0
    5.1044    1.0392   22.1925 H   0  0  0  0  0  0  0  0  0  0  0  0
    3.1599    2.5403   22.4108 H   0  0  0  0  0  0  0  0  0  0  0  0
    1.9417    3.3229   20.3918 H   0  0  0  0  0  0  0  0  0  0  0  0
    2.6970    2.6101   18.1371 H   0  0  0  0  0  0  0  0  0  0  0  0
    4.2558    1.3595   16.7141 H   0  0  0  0  0  0  0  0  0  0  0  0
    7.3333   -0.8661   18.3029 H   0  0  0  0  0  0  0  0  0  0  0  0
    8.2885   -0.3896   20.9540 C   0  0  0  0  0  0  0  0  0  0  0  0
    8.5875   -0.9549   22.3427 C   0  0  2  0  0  0  0  0  0  0  0  0
   10.0002   -1.5211   22.4211 C   0  0  0  0  0  0  0  0  0  0  0  0
   10.2470   -2.0854   23.7218 N   0  0  0  0  0  0  0  0  0  0  0  0
   11.4954   -2.5696   24.0322 C   0  0  0  0  0  0  0  0  0  0  0  0
   12.6715   -2.3776   23.3757 C   0  0  0  0  0  0  0  0  0  0  0  0
   13.8049   -2.8294   24.0180 N   0  0  0  0  0  0  0  0  0  0  0  0
   13.5075   -3.4156   25.1298 C   0  0  0  0  0  0  0  0  0  0  0  0
   14.4857   -4.1253   26.0169 C   0  0  0  0  0  0  0  0  0  0  0  0
   14.4792   -3.7306   27.0368 H   0  0  0  0  0  0  0  0  0  0  0  0
   14.2564   -5.1959   26.0785 H   0  0  0  0  0  0  0  0  0  0  0  0
   15.4850   -4.0173   25.5954 H   0  0  0  0  0  0  0  0  0  0  0  0
   11.7868   -3.5319   25.4515 S   0  0  0  0  0  0  0  0  0  0  0  0
   12.7463   -1.8754   22.4185 H   0  0  0  0  0  0  0  0  0  0  0  0
    9.6194   -1.8775   24.4848 H   0  0  0  0  0  0  0  0  0  0  0  0
   10.7409   -0.7344   22.2026 H   0  0  0  0  0  0  0  0  0  0  0  0
   10.1395   -2.2962   21.6558 H   0  0  0  0  0  0  0  0  0  0  0  0
    8.5324   -0.1346   23.0604 H   0  0  0  0  0  0  0  0  0  0  0  0
    8.7824   -0.9867   20.1721 H   0  0  0  0  0  0  0  0  0  0  0  0
    8.6223    0.6468   20.8515 H   0  0  0  0  0  0  0  0  0  0  0  0
    6.9199   -1.8461   24.1243 C   0  0  0  0  0  0  0  0  0  0  0  0
    6.8609   -0.6228   24.8086 C   0  0  0  0  0  0  0  0  0  0  0  0
    6.3715   -0.5637   26.1025 C   0  0  0  0  0  0  0  0  0  0  0  0
    6.2891    0.9807   26.9134 Cl  0  0  0  0  0  0  0  0  0  0  0  0
    5.9341   -1.7068   26.7720 C   0  0  0  0  0  0  0  0  0  0  0  0
    5.9511   -2.9124   26.1016 C   0  0  0  0  0  0  0  0  0  0  0  0
    6.4039   -2.9753   24.7868 C   0  0  0  0  0  0  0  0  0  0  0  0
    6.2080   -4.2566   24.0616 C   0  0  0  0  0  0  0  0  0  0  0  0
    5.6356   -5.2305   24.5578 O   0  0  0  0  0  0  0  0  0  0  0  0
    5.5922   -3.8268   26.5654 H   0  0  0  0  0  0  0  0  0  0  0  0
    5.5645   -1.6382   27.7868 H   0  0  0  0  0  0  0  0  0  0  0  0
    7.1552    0.3063   24.3338 H   0  0  0  0  0  0  0  0  0  0  0  0
    7.8785   -3.5124   21.2813 H   0  0  0  0  0  0  0  0  0  0  0  0
    8.6518   -3.7068   22.8595 H   0  0  0  0  0  0  0  0  0  0  0  0
    5.0140   -5.3796   22.1576 H   0  0  0  0  0  0  0  0  0  0  0  0
    6.0549   -4.7684   20.8354 H   0  0  0  0  0  0  0  0  0  0  0  0
    6.2735   -6.8275   23.7052 H   0  0  0  0  0  0  0  0  0  0  0  0
    7.5337   -9.0838   22.2497 H   0  0  0  0  0  0  0  0  0  0  0  0
    7.2897   -8.9317   24.0031 H   0  0  0  0  0  0  0  0  0  0  0  0
    8.6305   -8.0833   23.2024 H   0  0  0  0  0  0  0  0  0  0  0  0
  1  2  1  0
  2  3  1  0
  3  4  2  0
  3  5  1  0
  5  6  1  0
  6  7  1  0
  8  7  1  6
  8  9  1  0
  9 10  2  0
  9 11  1  0
 11 12  1  0
 12 13  2  0
 13 14  1  0
 14 15  2  0
 15 16  1  0
 16 17  2  0
 17 18  1  0
 18 19  2  0
 19 20  1  0
 20 21  2  0
 20 22  1  0
 19 23  1  0
 18 24  1  0
 17 25  1  0
 15 26  1  0
 13 27  1  0
 11 28  1  0
 28 29  1  0
 29 30  1  0
 30 31  1  0
 31 32  1  0
 32 33  2  0
 33 34  1  0
 34 35  2  0
 35 36  1  0
 36 37  1  0
 36 38  1  0
 36 39  1  0
 35 40  1  0
 33 41  1  0
 31 42  1  0
 30 43  1  0
 30 44  1  0
 29 45  1  1
 28 46  1  0
 28 47  1  0
  8 48  1  0
 48 49  2  0
 49 50  1  0
 50 51  1  0
 50 52  2  0
 52 53  1  0
 53 54  2  0
 54 55  1  0
 55 56  2  0
 53 57  1  0
 52 58  1  0
 49 59  1  0
  7 60  1  0
  7 61  1  0
  5 62  1  0
  5 63  1  0
  2 64  1  0
  1 65  1  0
  1 66  1  0
  1 67  1  0
 55  6  1  0
 29  8  1  0
 40 32  1  0
 54 48  1  0
 21 12  1  0
 21 16  1  0
M  END
>  <cnnaffinities>  (45) 
[7.64641]

>  <score>  (45) 
7.64641

>  <index>  (45) 
57

>  <Smiles>  (45) 
C(N(C(=O)C(N1C([C@@]2(C(=O)N(c3c(nc(c4c(c(c(c(c34)[H])[H])[H])[H])[H])[H])C([C@@]2(C(N(c2c(nc(C([H])([H])[H])s2)[H])[H])([H])[H])[H])([H])[H])c2c(c(Cl)c(c(c2C1=O)[H])[H])[H])([H])[H])([H])[H])[H])([H])([H])[H]

>  <h>  (45) 
<NA>

>  <Training>  (45) 
True

>  <Success>  (45) 
True

>  <enamine_searched>  (45) 
False

>  <enamine_id>  (45) 
nan

$$$$

     RDKit          3D

 60 65  0  0  0  0  0  0  0  0999 V2000
    9.1829   -3.5178   23.8208 C   0  0  0  0  0  0  0  0  0  0  0  0
    7.8058   -3.2923   24.0202 O   0  0  0  0  0  0  0  0  0  0  0  0
    6.9712   -3.5707   22.9171 C   0  0  0  0  0  0  0  0  0  0  0  0
    6.9872   -2.4757   21.8292 C   0  0  1  0  0  0  0  0  0  0  0  0
    5.7241   -2.3134   20.9493 C   0  0  0  0  0  0  0  0  0  0  0  0
    5.8981   -0.9717   20.4192 N   0  0  0  0  0  0  0  0  0  0  0  0
    5.2658   -0.3749   19.3062 C   0  0  0  0  0  0  0  0  0  0  0  0
    5.6189   -0.7162   18.0285 C   0  0  0  0  0  0  0  0  0  0  0  0
    5.1744   -0.0694   16.9233 N   0  0  0  0  0  0  0  0  0  0  0  0
    4.3595    0.9471   17.1083 C   0  0  0  0  0  0  0  0  0  0  0  0
    3.8800    1.3768   18.3813 C   0  0  0  0  0  0  0  0  0  0  0  0
    2.9843    2.4644   18.5565 C   0  0  0  0  0  0  0  0  0  0  0  0
    2.5599    2.8362   19.8065 C   0  0  0  0  0  0  0  0  0  0  0  0
    2.9856    2.1169   20.9424 C   0  0  0  0  0  0  0  0  0  0  0  0
    3.8343    1.0538   20.7979 C   0  0  0  0  0  0  0  0  0  0  0  0
    4.3344    0.6838   19.5193 C   0  0  0  0  0  0  0  0  0  0  0  0
    4.1252    0.4688   21.6624 H   0  0  0  0  0  0  0  0  0  0  0  0
    2.6360    2.3921   21.9323 H   0  0  0  0  0  0  0  0  0  0  0  0
    1.8955    3.6847   19.9326 H   0  0  0  0  0  0  0  0  0  0  0  0
    2.6319    2.9919   17.6781 H   0  0  0  0  0  0  0  0  0  0  0  0
    4.0402    1.4765   16.2139 H   0  0  0  0  0  0  0  0  0  0  0  0
    6.3194   -1.5349   17.8572 H   0  0  0  0  0  0  0  0  0  0  0  0
    6.8379   -0.2242   21.0883 C   0  0  0  0  0  0  0  0  0  0  0  0
    7.1867    0.8818   20.7324 O   0  0  0  0  0  0  0  0  0  0  0  0
    7.3017   -1.0221   22.3180 C   0  0  1  0  0  0  0  0  0  0  0  0
    6.4457   -0.6700   23.5622 C   0  0  0  0  0  0  0  0  0  0  0  0
    6.9856    0.4535   24.3278 N   0  0  0  0  0  0  0  0  0  0  0  0
    6.0487    1.2862   25.0763 C   0  0  0  0  0  0  0  0  0  0  0  0
    5.6443    0.7969   26.4445 C   0  0  0  0  0  0  0  0  0  0  0  0
    4.5306    0.1644   26.7426 N   0  0  0  0  0  0  0  0  0  0  0  0
    4.5487    0.0378   28.1126 C   0  0  0  0  0  0  0  0  0  0  0  0
    5.6726    0.6103   28.6400 C   0  0  0  0  0  0  0  0  0  0  0  0
    6.3690    1.0924   27.5590 N   0  0  0  0  0  0  0  0  0  0  0  0
    7.3263    1.4249   27.5174 H   0  0  0  0  0  0  0  0  0  0  0  0
    6.0294    0.7335   29.6554 H   0  0  0  0  0  0  0  0  0  0  0  0
    3.7353   -0.4511   28.6344 H   0  0  0  0  0  0  0  0  0  0  0  0
    6.4940    2.2834   25.1851 H   0  0  0  0  0  0  0  0  0  0  0  0
    5.1367    1.3945   24.4774 H   0  0  0  0  0  0  0  0  0  0  0  0
    8.3004    0.4483   24.7353 C   0  0  0  0  0  0  0  0  0  0  0  0
    8.6348    0.9073   25.8224 O   0  0  0  0  0  0  0  0  0  0  0  0
    9.2608   -0.1172   23.7239 C   0  0  0  0  0  0  0  0  0  0  0  0
   10.6418    0.0325   23.8870 C   0  0  0  0  0  0  0  0  0  0  0  0
   11.5332   -0.4690   22.9553 C   0  0  0  0  0  0  0  0  0  0  0  0
   11.0224   -1.0781   21.8114 C   0  0  0  0  0  0  0  0  0  0  0  0
   12.1021   -1.8326   20.6873 Cl  0  0  0  0  0  0  0  0  0  0  0  0
    9.6650   -1.1567   21.5864 C   0  0  0  0  0  0  0  0  0  0  0  0
    8.7610   -0.7427   22.5726 C   0  0  0  0  0  0  0  0  0  0  0  0
    9.3124   -1.5976   20.6582 H   0  0  0  0  0  0  0  0  0  0  0  0
   12.6068   -0.4407   23.1121 H   0  0  0  0  0  0  0  0  0  0  0  0
   11.0139    0.5757   24.7412 H   0  0  0  0  0  0  0  0  0  0  0  0
    6.3874   -1.5557   24.2083 H   0  0  0  0  0  0  0  0  0  0  0  0
    5.4298   -0.4046   23.2404 H   0  0  0  0  0  0  0  0  0  0  0  0
    4.7943   -2.3909   21.5315 H   0  0  0  0  0  0  0  0  0  0  0  0
    5.6705   -3.0289   20.1255 H   0  0  0  0  0  0  0  0  0  0  0  0
    7.7811   -2.7506   21.1336 H   0  0  0  0  0  0  0  0  0  0  0  0
    5.9717   -3.6629   23.3485 H   0  0  0  0  0  0  0  0  0  0  0  0
    7.2299   -4.5487   22.4804 H   0  0  0  0  0  0  0  0  0  0  0  0
    9.4738   -4.5375   24.1057 H   0  0  0  0  0  0  0  0  0  0  0  0
    9.7227   -2.8098   24.4544 H   0  0  0  0  0  0  0  0  0  0  0  0
    9.4834   -3.3572   22.7793 H   0  0  0  0  0  0  0  0  0  0  0  0
  1  2  1  0
  2  3  1  0
  3  4  1  0
  4  5  1  0
  5  6  1  0
  6  7  1  0
  7  8  2  0
  8  9  1  0
  9 10  2  0
 10 11  1  0
 11 12  2  0
 12 13  1  0
 13 14  2  0
 14 15  1  0
 15 16  2  0
 15 17  1  0
 14 18  1  0
 13 19  1  0
 12 20  1  0
 10 21  1  0
  8 22  1  0
  6 23  1  0
 23 24  2  0
 23 25  1  0
 25 26  1  1
 26 27  1  0
 27 28  1  0
 28 29  1  0
 29 30  2  0
 30 31  1  0
 31 32  2  0
 32 33  1  0
 33 34  1  0
 32 35  1  0
 31 36  1  0
 28 37  1  0
 28 38  1  0
 27 39  1  0
 39 40  2  0
 39 41  1  0
 41 42  2  0
 42 43  1  0
 43 44  2  0
 44 45  1  0
 44 46  1  0
 46 47  2  0
 46 48  1  0
 43 49  1  0
 42 50  1  0
 26 51  1  0
 26 52  1  0
  5 53  1  0
  5 54  1  0
  4 55  1  6
  3 56  1  0
  3 57  1  0
  1 58  1  0
  1 59  1  0
  1 60  1  0
 25  4  1  0
 33 29  1  0
 47 41  1  0
 16  7  1  0
 47 25  1  0
 16 11  1  0
M  END
>  <cnnaffinities>  (46) 
[6.09046]

>  <score>  (46) 
6.09046

>  <index>  (46) 
59

>  <Smiles>  (46) 
C(OC([C@]1(C(N(c2c(nc(c3c(c(c(c(c23)[H])[H])[H])[H])[H])[H])C(=O)[C@]21C(N(C(c1nc(c(n1[H])[H])[H])([H])[H])C(=O)c1c(c(c(Cl)c(c21)[H])[H])[H])([H])[H])([H])[H])[H])([H])[H])([H])([H])[H]

>  <h>  (46) 
<NA>

>  <Training>  (46) 
True

>  <Success>  (46) 
True

>  <enamine_searched>  (46) 
False

>  <enamine_id>  (46) 
nan

$$$$

     RDKit          3D

 38 41  0  0  0  0  0  0  0  0999 V2000
    5.1023   -1.9867   21.3439 O   0  0  0  0  0  0  0  0  0  0  0  0
    6.2908   -1.7691   21.5071 C   0  0  0  0  0  0  0  0  0  0  0  0
    6.9402   -0.5058   20.8954 C   0  0  0  0  0  0  0  0  0  0  0  0
    6.1180    0.0872   19.7714 C   0  0  0  0  0  0  0  0  0  0  0  0
    6.4222   -0.2113   18.4674 C   0  0  0  0  0  0  0  0  0  0  0  0
    5.7596    0.2372   17.3673 N   0  0  0  0  0  0  0  0  0  0  0  0
    4.7354    1.0302   17.5766 C   0  0  0  0  0  0  0  0  0  0  0  0
    4.2869    1.4206   18.8687 C   0  0  0  0  0  0  0  0  0  0  0  0
    3.1644    2.2737   19.0418 C   0  0  0  0  0  0  0  0  0  0  0  0
    2.7465    2.6248   20.2978 C   0  0  0  0  0  0  0  0  0  0  0  0
    3.4354    2.1369   21.4296 C   0  0  0  0  0  0  0  0  0  0  0  0
    4.5249    1.3110   21.2876 C   0  0  0  0  0  0  0  0  0  0  0  0
    4.9870    0.9329   19.9993 C   0  0  0  0  0  0  0  0  0  0  0  0
    5.0271    0.9263   22.1683 H   0  0  0  0  0  0  0  0  0  0  0  0
    3.0923    2.4121   22.4217 H   0  0  0  0  0  0  0  0  0  0  0  0
    1.8883    3.2775   20.4333 H   0  0  0  0  0  0  0  0  0  0  0  0
    2.6454    2.6464   18.1613 H   0  0  0  0  0  0  0  0  0  0  0  0
    4.1996    1.3989   16.6999 H   0  0  0  0  0  0  0  0  0  0  0  0
    7.2635   -0.8652   18.2456 H   0  0  0  0  0  0  0  0  0  0  0  0
    7.0904    0.2420   21.6854 H   0  0  0  0  0  0  0  0  0  0  0  0
    7.9396   -0.7551   20.5099 H   0  0  0  0  0  0  0  0  0  0  0  0
    7.0807   -2.6632   22.2022 N   0  0  0  0  0  0  0  0  0  0  0  0
    8.4403   -2.3759   22.6494 C   0  0  0  0  0  0  0  0  0  0  0  0
    8.7614   -3.0433   23.9884 C   0  0  0  0  0  0  0  0  0  0  0  0
    8.3862   -4.4897   23.9475 C   0  0  0  0  0  0  0  0  0  0  0  0
    9.0679   -5.7410   24.9333 S   0  0  0  0  0  0  0  0  0  0  0  0
    8.0093   -6.9117   24.2316 C   0  0  0  0  0  0  0  0  0  0  0  0
    7.1635   -6.3593   23.3162 C   0  0  0  0  0  0  0  0  0  0  0  0
    7.3926   -4.9554   23.1478 C   0  0  0  0  0  0  0  0  0  0  0  0
    6.5957   -4.0473   22.2517 C   0  0  0  0  0  0  0  0  0  0  0  0
    5.5515   -4.0544   22.5818 H   0  0  0  0  0  0  0  0  0  0  0  0
    6.5698   -4.4924   21.2473 H   0  0  0  0  0  0  0  0  0  0  0  0
    6.4136   -6.9330   22.7769 H   0  0  0  0  0  0  0  0  0  0  0  0
    8.0715   -7.9477   24.5309 H   0  0  0  0  0  0  0  0  0  0  0  0
    9.8190   -2.9129   24.2321 H   0  0  0  0  0  0  0  0  0  0  0  0
    8.1985   -2.5530   24.7914 H   0  0  0  0  0  0  0  0  0  0  0  0
    9.1757   -2.7096   21.9060 H   0  0  0  0  0  0  0  0  0  0  0  0
    8.5549   -1.2955   22.7614 H   0  0  0  0  0  0  0  0  0  0  0  0
  1  2  2  0
  2  3  1  0
  3  4  1  0
  4  5  2  0
  5  6  1  0
  6  7  2  0
  7  8  1  0
  8  9  2  0
  9 10  1  0
 10 11  2  0
 11 12  1  0
 12 13  2  0
 12 14  1  0
 11 15  1  0
 10 16  1  0
  9 17  1  0
  7 18  1  0
  5 19  1  0
  3 20  1  0
  3 21  1  0
  2 22  1  0
 22 23  1  0
 23 24  1  0
 24 25  1  0
 25 26  1  0
 26 27  1  0
 27 28  2  0
 28 29  1  0
 29 30  1  0
 30 31  1  0
 30 32  1  0
 28 33  1  0
 27 34  1  0
 24 35  1  0
 24 36  1  0
 23 37  1  0
 23 38  1  0
 13  4  1  0
 30 22  1  0
 13  8  1  0
 29 25  2  0
M  END
>  <cnnaffinities>  (47) 
[5.35884]

>  <score>  (47) 
5.35884

>  <index>  (47) 
60

>  <Smiles>  (47) 
O=C(C(c1c(nc(c2c(c(c(c(c12)[H])[H])[H])[H])[H])[H])([H])[H])N1C(C(c2sc(c(c2C1([H])[H])[H])[H])([H])[H])([H])[H]

>  <h>  (47) 
<NA>

>  <Training>  (47) 
True

>  <Success>  (47) 
True

>  <enamine_searched>  (47) 
False

>  <enamine_id>  (47) 
nan

$$$$

     RDKit          3D

 70 76  0  0  0  0  0  0  0  0999 V2000
    9.7362   -1.9273   21.8711 C   0  0  0  0  0  0  0  0  0  0  0  0
    8.6583   -0.9295   22.3220 C   0  0  1  0  0  0  0  0  0  0  0  0
    8.2190   -0.0543   21.1338 C   0  0  0  0  0  0  0  0  0  0  0  0
    6.8763   -0.4825   20.8285 N   0  0  0  0  0  0  0  0  0  0  0  0
    6.1117    0.0625   19.7762 C   0  0  0  0  0  0  0  0  0  0  0  0
    6.4606   -0.2179   18.4788 C   0  0  0  0  0  0  0  0  0  0  0  0
    5.7948    0.2338   17.3881 N   0  0  0  0  0  0  0  0  0  0  0  0
    4.7592    1.0120   17.6037 C   0  0  0  0  0  0  0  0  0  0  0  0
    4.3112    1.4034   18.8977 C   0  0  0  0  0  0  0  0  0  0  0  0
    3.1977    2.2682   19.0565 C   0  0  0  0  0  0  0  0  0  0  0  0
    2.7942    2.6587   20.3043 C   0  0  0  0  0  0  0  0  0  0  0  0
    3.4913    2.2082   21.4489 C   0  0  0  0  0  0  0  0  0  0  0  0
    4.5736    1.3695   21.3282 C   0  0  0  0  0  0  0  0  0  0  0  0
    5.0019    0.9303   20.0354 C   0  0  0  0  0  0  0  0  0  0  0  0
    5.1030    1.0473   22.2263 H   0  0  0  0  0  0  0  0  0  0  0  0
    3.1645    2.5299   22.4334 H   0  0  0  0  0  0  0  0  0  0  0  0
    1.9408    3.3205   20.4261 H   0  0  0  0  0  0  0  0  0  0  0  0
    2.6878    2.6223   18.1662 H   0  0  0  0  0  0  0  0  0  0  0  0
    4.2219    1.3844   16.7306 H   0  0  0  0  0  0  0  0  0  0  0  0
    7.3091   -0.8731   18.2832 H   0  0  0  0  0  0  0  0  0  0  0  0
    6.3408   -1.3612   21.7329 C   0  0  0  0  0  0  0  0  0  0  0  0
    5.2475   -1.8795   21.6155 O   0  0  0  0  0  0  0  0  0  0  0  0
    7.3448   -1.5467   22.8847 C   0  0  1  0  0  0  0  0  0  0  0  0
    7.4846   -3.0331   23.2269 C   0  0  0  0  0  0  0  0  0  0  0  0
    6.2959   -3.5436   23.8619 N   0  0  0  0  0  0  0  0  0  0  0  0
    5.7699   -4.8055   23.4243 C   0  0  0  0  0  0  0  0  0  0  0  0
    6.5101   -5.9532   24.0923 C   0  0  0  0  0  0  0  0  0  0  0  0
    5.9167   -7.2971   23.7760 N   0  0  2  0  0  4  0  0  0  0  0  0
    5.8986   -7.5537   22.3011 C   0  0  0  0  0  0  0  0  0  0  0  0
    4.4522   -7.3345   21.8410 C   0  0  0  0  0  0  0  0  0  0  0  0
    3.5441   -7.5341   23.0667 C   0  0  0  0  0  0  0  0  0  0  0  0
    2.4683   -8.6520   23.1055 C   0  0  0  0  0  0  0  0  0  0  0  0
    1.3944   -7.7070   23.1493 O   0  0  0  0  0  0  0  0  0  0  0  0
    2.3125   -6.6134   23.1310 C   0  0  0  0  0  0  0  0  0  0  0  0
    2.2305   -6.0052   24.0407 H   0  0  0  0  0  0  0  0  0  0  0  0
    2.1591   -5.9783   22.2492 H   0  0  0  0  0  0  0  0  0  0  0  0
    2.4803   -9.2679   24.0150 H   0  0  0  0  0  0  0  0  0  0  0  0
    2.3885   -9.3113   22.2333 H   0  0  0  0  0  0  0  0  0  0  0  0
    4.4974   -7.5174   24.2707 C   0  0  0  0  0  0  0  0  0  0  0  0
    4.4948   -8.4708   24.7978 H   0  0  0  0  0  0  0  0  0  0  0  0
    4.2523   -6.7345   24.9917 H   0  0  0  0  0  0  0  0  0  0  0  0
    4.3732   -6.3031   21.4941 H   0  0  0  0  0  0  0  0  0  0  0  0
    4.1899   -7.9877   21.0005 H   0  0  0  0  0  0  0  0  0  0  0  0
    6.6043   -6.8833   21.8233 H   0  0  0  0  0  0  0  0  0  0  0  0
    6.2696   -8.5574   22.1184 H   0  0  0  0  0  0  0  0  0  0  0  0
    6.5262   -7.9809   24.2414 H   0  0  0  0  0  0  0  0  0  0  0  0
    7.5649   -5.9579   23.7933 H   0  0  0  0  0  0  0  0  0  0  0  0
    6.4938   -5.7942   25.1685 H   0  0  0  0  0  0  0  0  0  0  0  0
    5.8699   -4.8229   22.3324 H   0  0  0  0  0  0  0  0  0  0  0  0
    4.7046   -4.8153   23.6648 H   0  0  0  0  0  0  0  0  0  0  0  0
    5.7442   -2.9479   24.9516 C   0  0  0  0  0  0  0  0  0  0  0  0
    4.9820   -3.5350   25.7117 O   0  0  0  0  0  0  0  0  0  0  0  0
    6.0979   -1.5093   25.1094 C   0  0  0  0  0  0  0  0  0  0  0  0
    5.6136   -0.8576   26.2395 C   0  0  0  0  0  0  0  0  0  0  0  0
    5.8292    0.4954   26.4080 C   0  0  0  0  0  0  0  0  0  0  0  0
    6.5273    1.1836   25.4163 C   0  0  0  0  0  0  0  0  0  0  0  0
    6.7784    2.9000   25.5915 Cl  0  0  0  0  0  0  0  0  0  0  0  0
    7.0243    0.5467   24.2903 C   0  0  0  0  0  0  0  0  0  0  0  0
    6.8345   -0.8299   24.1303 C   0  0  0  0  0  0  0  0  0  0  0  0
    7.5647    1.1300   23.5501 H   0  0  0  0  0  0  0  0  0  0  0  0
    5.4502    1.0293   27.2721 H   0  0  0  0  0  0  0  0  0  0  0  0
    5.0584   -1.4490   26.9597 H   0  0  0  0  0  0  0  0  0  0  0  0
    8.3536   -3.1651   23.8837 H   0  0  0  0  0  0  0  0  0  0  0  0
    7.6518   -3.6096   22.3142 H   0  0  0  0  0  0  0  0  0  0  0  0
    8.2480    1.0198   21.3562 H   0  0  0  0  0  0  0  0  0  0  0  0
    8.8703   -0.2189   20.2764 H   0  0  0  0  0  0  0  0  0  0  0  0
    9.1185   -0.3233   23.1067 H   0  0  0  0  0  0  0  0  0  0  0  0
   10.5994   -1.3908   21.4636 H   0  0  0  0  0  0  0  0  0  0  0  0
   10.1022   -2.5408   22.6989 H   0  0  0  0  0  0  0  0  0  0  0  0
    9.3642   -2.5946   21.0871 H   0  0  0  0  0  0  0  0  0  0  0  0
  1  2  1  0
  2  3  1  0
  3  4  1  0
  4  5  1  0
  5  6  2  0
  6  7  1  0
  7  8  2  0
  8  9  1  0
  9 10  2  0
 10 11  1  0
 11 12  2  0
 12 13  1  0
 13 14  2  0
 13 15  1  0
 12 16  1  0
 11 17  1  0
 10 18  1  0
  8 19  1  0
  6 20  1  0
  4 21  1  0
 21 22  2  0
 21 23  1  0
 23 24  1  1
 24 25  1  0
 25 26  1  0
 26 27  1  0
 27 28  1  0
 28 29  1  0
 29 30  1  0
 30 31  1  0
 31 32  1  0
 32 33  1  0
 33 34  1  0
 34 35  1  0
 34 36  1  0
 32 37  1  0
 32 38  1  0
 31 39  1  0
 39 40  1  0
 39 41  1  0
 30 42  1  0
 30 43  1  0
 29 44  1  0
 29 45  1  0
 28 46  1  1
 27 47  1  0
 27 48  1  0
 26 49  1  0
 26 50  1  0
 25 51  1  0
 51 52  2  0
 51 53  1  0
 53 54  2  0
 54 55  1  0
 55 56  2  0
 56 57  1  0
 56 58  1  0
 58 59  2  0
 58 60  1  0
 55 61  1  0
 54 62  1  0
 24 63  1  0
 24 64  1  0
  3 65  1  0
  3 66  1  0
  2 67  1  1
  1 68  1  0
  1 69  1  0
  1 70  1  0
 23  2  1  0
 39 28  1  0
 59 53  1  0
 14  5  1  0
 59 23  1  0
 14  9  1  0
 34 31  1  0
M  CHG  1  28   1
M  END
>  <cnnaffinities>  (48) 
[6.58846]

>  <score>  (48) 
6.58846

>  <index>  (48) 
62

>  <Smiles>  (48) 
C([C@]1(C(N(c2c(nc(c3c(c(c(c(c23)[H])[H])[H])[H])[H])[H])C(=O)[C@]21C(N(C(C([N@@+]1(C(C(C3(C(OC3([H])[H])([H])[H])C1([H])[H])([H])[H])([H])[H])[H])([H])[H])([H])[H])C(=O)c1c(c(c(Cl)c(c21)[H])[H])[H])([H])[H])([H])[H])[H])([H])([H])[H]

>  <h>  (48) 
<NA>

>  <Training>  (48) 
True

>  <Success>  (48) 
True

>  <enamine_searched>  (48) 
False

>  <enamine_id>  (48) 
nan

$$$$

     RDKit          3D

 66 71  0  0  0  0  0  0  0  0999 V2000
    9.7300   -1.9206   21.8614 C   0  0  0  0  0  0  0  0  0  0  0  0
    8.6333   -0.9557   22.3326 C   0  0  1  0  0  0  0  0  0  0  0  0
    8.1919   -0.0448   21.1654 C   0  0  0  0  0  0  0  0  0  0  0  0
    6.8665   -0.5070   20.8232 N   0  0  0  0  0  0  0  0  0  0  0  0
    6.1082    0.0511   19.7701 C   0  0  0  0  0  0  0  0  0  0  0  0
    6.4616   -0.2212   18.4741 C   0  0  0  0  0  0  0  0  0  0  0  0
    5.8016    0.2393   17.3847 N   0  0  0  0  0  0  0  0  0  0  0  0
    4.7666    1.0148   17.6053 C   0  0  0  0  0  0  0  0  0  0  0  0
    4.3122    1.3988   18.8988 C   0  0  0  0  0  0  0  0  0  0  0  0
    3.2003    2.2646   19.0591 C   0  0  0  0  0  0  0  0  0  0  0  0
    2.7989    2.6507   20.3061 C   0  0  0  0  0  0  0  0  0  0  0  0
    3.4963    2.1958   21.4494 C   0  0  0  0  0  0  0  0  0  0  0  0
    4.5739    1.3532   21.3277 C   0  0  0  0  0  0  0  0  0  0  0  0
    5.0007    0.9187   20.0342 C   0  0  0  0  0  0  0  0  0  0  0  0
    5.0998    1.0198   22.2248 H   0  0  0  0  0  0  0  0  0  0  0  0
    3.1675    2.5197   22.4325 H   0  0  0  0  0  0  0  0  0  0  0  0
    1.9499    3.3181   20.4262 H   0  0  0  0  0  0  0  0  0  0  0  0
    2.6954    2.6218   18.1656 H   0  0  0  0  0  0  0  0  0  0  0  0
    4.2299    1.3859   16.7327 H   0  0  0  0  0  0  0  0  0  0  0  0
    7.3170   -0.8683   18.2820 H   0  0  0  0  0  0  0  0  0  0  0  0
    6.3262   -1.4155   21.6969 C   0  0  0  0  0  0  0  0  0  0  0  0
    5.2399   -1.9413   21.5555 O   0  0  0  0  0  0  0  0  0  0  0  0
    7.3177   -1.6226   22.8586 C   0  0  1  0  0  0  0  0  0  0  0  0
    7.4654   -3.1371   23.1576 C   0  0  0  0  0  0  0  0  0  0  0  0
    6.2716   -3.7128   23.7557 N   0  0  0  0  0  0  0  0  0  0  0  0
    5.8027   -5.0502   23.3910 C   0  0  0  0  0  0  0  0  0  0  0  0
    4.5131   -4.9713   22.5597 C   0  0  0  0  0  0  0  0  0  0  0  0
    3.7786   -6.2532   22.3243 N   0  0  0  0  0  4  0  0  0  0  0  0
    4.6334   -7.2853   21.3551 C   0  0  0  0  0  0  0  0  0  0  0  0
    3.9130   -8.1413   20.4975 C   0  0  0  0  0  0  0  0  0  0  0  0
    2.7727   -9.0797   22.9234 O   0  0  0  0  0  0  0  0  0  0  0  0
    2.2257   -8.0331   23.3657 C   0  0  0  0  0  0  0  0  0  0  0  0
    3.2094   -6.8126   23.5949 C   0  0  0  0  0  0  0  0  0  0  0  0
    2.6063   -6.0347   24.0708 H   0  0  0  0  0  0  0  0  0  0  0  0
    4.0289   -7.0900   24.2664 H   0  0  0  0  0  0  0  0  0  0  0  0
    1.4016   -7.6174   22.6770 H   0  0  0  0  0  0  0  0  0  0  0  0
    1.6905   -8.1606   24.3771 H   0  0  0  0  0  0  0  0  0  0  0  0
    3.2640   -8.8587   20.9670 H   0  0  0  0  0  0  0  0  0  0  0  0
    3.9548   -8.1123   19.4171 H   0  0  0  0  0  0  0  0  0  0  0  0
    5.3257   -6.6012   20.8007 H   0  0  0  0  0  0  0  0  0  0  0  0
    5.1907   -7.8269   22.1502 H   0  0  0  0  0  0  0  0  0  0  0  0
    2.9403   -6.0188   21.7654 H   0  0  0  0  0  0  0  0  0  0  0  0
    4.7512   -4.5395   21.5870 H   0  0  0  0  0  0  0  0  0  0  0  0
    3.8174   -4.3027   23.0698 H   0  0  0  0  0  0  0  0  0  0  0  0
    6.6046   -5.5672   22.8508 H   0  0  0  0  0  0  0  0  0  0  0  0
    5.6376   -5.6000   24.3190 H   0  0  0  0  0  0  0  0  0  0  0  0
    5.6713   -3.0950   24.8176 C   0  0  0  0  0  0  0  0  0  0  0  0
    4.8656   -3.6699   25.5398 O   0  0  0  0  0  0  0  0  0  0  0  0
    6.0119   -1.6424   25.0318 C   0  0  0  0  0  0  0  0  0  0  0  0
    5.4991   -1.0114   26.1658 C   0  0  0  0  0  0  0  0  0  0  0  0
    5.7047    0.3381   26.3820 C   0  0  0  0  0  0  0  0  0  0  0  0
    6.4338    1.0592   25.4383 C   0  0  0  0  0  0  0  0  0  0  0  0
    6.6765    2.7683   25.6810 Cl  0  0  0  0  0  0  0  0  0  0  0  0
    6.9675    0.4472   24.3156 C   0  0  0  0  0  0  0  0  0  0  0  0
    6.7784   -0.9281   24.1061 C   0  0  0  0  0  0  0  0  0  0  0  0
    7.5279    1.0646   23.6183 H   0  0  0  0  0  0  0  0  0  0  0  0
    5.2958    0.8407   27.2526 H   0  0  0  0  0  0  0  0  0  0  0  0
    4.9258   -1.6122   26.8630 H   0  0  0  0  0  0  0  0  0  0  0  0
    7.6730   -3.6671   22.2263 H   0  0  0  0  0  0  0  0  0  0  0  0
    8.3202   -3.2591   23.8406 H   0  0  0  0  0  0  0  0  0  0  0  0
    8.1829    1.0216   21.4333 H   0  0  0  0  0  0  0  0  0  0  0  0
    8.8624   -0.1510   20.3112 H   0  0  0  0  0  0  0  0  0  0  0  0
    9.0744   -0.3578   23.1389 H   0  0  0  0  0  0  0  0  0  0  0  0
   10.0956   -2.5494   22.6784 H   0  0  0  0  0  0  0  0  0  0  0  0
    9.3742   -2.5696   21.0535 H   0  0  0  0  0  0  0  0  0  0  0  0
   10.5870   -1.3541   21.4787 H   0  0  0  0  0  0  0  0  0  0  0  0
  1  2  1  0
  2  3  1  0
  3  4  1  0
  4  5  1  0
  5  6  2  0
  6  7  1  0
  7  8  2  0
  8  9  1  0
  9 10  2  0
 10 11  1  0
 11 12  2  0
 12 13  1  0
 13 14  2  0
 13 15  1  0
 12 16  1  0
 11 17  1  0
 10 18  1  0
  8 19  1  0
  6 20  1  0
  4 21  1  0
 21 22  2  0
 21 23  1  0
 23 24  1  1
 24 25  1  0
 25 26  1  0
 26 27  1  0
 27 28  1  0
 28 29  1  0
 29 30  1  0
 30 31  1  0
 31 32  1  0
 32 33  1  0
 33 34  1  0
 33 35  1  0
 32 36  1  0
 32 37  1  0
 30 38  1  0
 30 39  1  0
 29 40  1  0
 29 41  1  0
 28 42  1  0
 27 43  1  0
 27 44  1  0
 26 45  1  0
 26 46  1  0
 25 47  1  0
 47 48  2  0
 47 49  1  0
 49 50  2  0
 50 51  1  0
 51 52  2  0
 52 53  1  0
 52 54  1  0
 54 55  2  0
 54 56  1  0
 51 57  1  0
 50 58  1  0
 24 59  1  0
 24 60  1  0
  3 61  1  0
  3 62  1  0
  2 63  1  1
  1 64  1  0
  1 65  1  0
  1 66  1  0
 23  2  1  0
 33 28  1  0
 55 49  1  0
 14  5  1  0
 55 23  1  0
 14  9  1  0
M  CHG  1  28   1
M  END
>  <cnnaffinities>  (49) 
[6.41206]

>  <score>  (49) 
6.41206

>  <index>  (49) 
64

>  <Smiles>  (49) 
C([C@]1(C(N(c2c(nc(c3c(c(c(c(c23)[H])[H])[H])[H])[H])[H])C(=O)[C@]21C(N(C(C([N+]1(C(C(OC(C1([H])[H])([H])[H])([H])[H])([H])[H])[H])([H])[H])([H])[H])C(=O)c1c(c(c(Cl)c(c21)[H])[H])[H])([H])[H])([H])[H])[H])([H])([H])[H]

>  <h>  (49) 
<NA>

>  <Training>  (49) 
True

>  <Success>  (49) 
True

>  <enamine_searched>  (49) 
False

>  <enamine_id>  (49) 
nan

$$$$

     RDKit          3D

 54 59  0  0  0  0  0  0  0  0999 V2000
    7.7103    3.3872   22.5545 C   0  0  0  0  0  0  0  0  0  0  0  0
    8.0409    2.4203   23.5884 N   0  0  0  0  0  0  0  0  0  0  0  0
    7.0660    2.0696   24.4717 C   0  0  0  0  0  0  0  0  0  0  0  0
    5.9047    2.4264   24.3424 O   0  0  0  0  0  0  0  0  0  0  0  0
    7.5031    1.1590   25.6170 C   0  0  0  0  0  0  0  0  0  0  0  0
    7.6178   -0.2179   25.1828 N   0  0  0  0  0  0  0  0  0  0  0  0
    8.3621   -1.1168   25.9309 C   0  0  0  0  0  0  0  0  0  0  0  0
    8.9404   -0.8340   26.9636 O   0  0  0  0  0  0  0  0  0  0  0  0
    8.1726   -2.4436   25.2670 C   0  0  0  0  0  0  0  0  0  0  0  0
    8.6526   -3.6513   25.6935 C   0  0  0  0  0  0  0  0  0  0  0  0
    8.0513   -4.8371   25.2146 C   0  0  0  0  0  0  0  0  0  0  0  0
    6.9629   -4.7686   24.3926 C   0  0  0  0  0  0  0  0  0  0  0  0
    6.2407   -6.2374   23.8394 Cl  0  0  0  0  0  0  0  0  0  0  0  0
    6.2514   -3.5049   24.0792 C   0  0  0  0  0  0  0  0  0  0  0  0
    7.1867   -2.3135   24.1915 C   0  0  1  0  0  0  0  0  0  0  0  0
    6.7551   -0.8746   24.2433 C   0  0  2  0  0  0  0  0  0  0  0  0
    7.3349   -1.4192   22.9514 C   0  0  2  0  0  0  0  0  0  0  0  0
    6.3201   -1.3476   21.8125 C   0  0  0  0  0  0  0  0  0  0  0  0
    5.2021   -1.8253   21.7468 O   0  0  0  0  0  0  0  0  0  0  0  0
    6.8699   -0.5593   20.8196 N   0  0  0  0  0  0  0  0  0  0  0  0
    6.1103    0.0215   19.7729 C   0  0  0  0  0  0  0  0  0  0  0  0
    6.4597   -0.2349   18.4714 C   0  0  0  0  0  0  0  0  0  0  0  0
    5.7992    0.2324   17.3845 N   0  0  0  0  0  0  0  0  0  0  0  0
    4.7633    1.0060   17.6015 C   0  0  0  0  0  0  0  0  0  0  0  0
    4.3212    1.3938   18.8967 C   0  0  0  0  0  0  0  0  0  0  0  0
    3.2102    2.2614   19.0626 C   0  0  0  0  0  0  0  0  0  0  0  0
    2.8124    2.6536   20.3079 C   0  0  0  0  0  0  0  0  0  0  0  0
    3.5250    2.2161   21.4476 C   0  0  0  0  0  0  0  0  0  0  0  0
    4.6137    1.3877   21.3178 C   0  0  0  0  0  0  0  0  0  0  0  0
    5.0198    0.9173   20.0315 C   0  0  0  0  0  0  0  0  0  0  0  0
    5.1695    1.1096   22.2127 H   0  0  0  0  0  0  0  0  0  0  0  0
    3.2105    2.5459   22.4332 H   0  0  0  0  0  0  0  0  0  0  0  0
    1.9613    3.3173   20.4288 H   0  0  0  0  0  0  0  0  0  0  0  0
    2.6970    2.6161   18.1724 H   0  0  0  0  0  0  0  0  0  0  0  0
    4.2220    1.3825   16.7309 H   0  0  0  0  0  0  0  0  0  0  0  0
    7.3122   -0.8804   18.2682 H   0  0  0  0  0  0  0  0  0  0  0  0
    8.2599   -0.2165   21.0491 C   0  0  0  0  0  0  0  0  0  0  0  0
    8.5887   -0.9547   22.3251 C   0  0  0  0  0  0  0  0  0  0  0  0
    9.8399   -1.1207   22.7378 C   0  0  0  0  0  0  0  0  0  0  0  0
   10.8559   -0.5126   22.0964 F   0  0  0  0  0  0  0  0  0  0  0  0
   10.1557   -1.7478   23.5605 H   0  0  0  0  0  0  0  0  0  0  0  0
    8.8978   -0.5327   20.2224 H   0  0  0  0  0  0  0  0  0  0  0  0
    8.3644    0.8671   21.1858 H   0  0  0  0  0  0  0  0  0  0  0  0
    5.7153   -0.5557   24.2024 H   0  0  0  0  0  0  0  0  0  0  0  0
    5.7731   -3.5300   23.0937 H   0  0  0  0  0  0  0  0  0  0  0  0
    5.4335   -3.3839   24.8153 H   0  0  0  0  0  0  0  0  0  0  0  0
    8.4108   -5.8089   25.5438 H   0  0  0  0  0  0  0  0  0  0  0  0
    9.4726   -3.7061   26.3976 H   0  0  0  0  0  0  0  0  0  0  0  0
    8.4714    1.4599   26.0247 H   0  0  0  0  0  0  0  0  0  0  0  0
    6.7786    1.2593   26.4282 H   0  0  0  0  0  0  0  0  0  0  0  0
    9.0140    2.2167   23.7982 H   0  0  0  0  0  0  0  0  0  0  0  0
    8.5887    3.6061   21.9432 H   0  0  0  0  0  0  0  0  0  0  0  0
    7.3496    4.3214   22.9992 H   0  0  0  0  0  0  0  0  0  0  0  0
    6.9111    2.9872   21.9167 H   0  0  0  0  0  0  0  0  0  0  0  0
  1  2  1  0
  2  3  1  0
  3  4  2  0
  3  5  1  0
  5  6  1  0
  6  7  1  0
  7  8  2  0
  7  9  1  0
  9 10  2  0
 10 11  1  0
 11 12  2  0
 12 13  1  0
 12 14  1  0
 15 14  1  6
 15 16  1  0
 16 17  1  0
 17 18  1  6
 18 19  2  0
 18 20  1  0
 20 21  1  0
 21 22  2  0
 22 23  1  0
 23 24  2  0
 24 25  1  0
 25 26  2  0
 26 27  1  0
 27 28  2  0
 28 29  1  0
 29 30  2  0
 29 31  1  0
 28 32  1  0
 27 33  1  0
 26 34  1  0
 24 35  1  0
 22 36  1  0
 20 37  1  0
 37 38  1  0
 38 39  2  0
 39 40  1  0
 39 41  1  0
 37 42  1  0
 37 43  1  0
 16 44  1  6
 14 45  1  0
 14 46  1  0
 11 47  1  0
 10 48  1  0
  5 49  1  0
  5 50  1  0
  2 51  1  0
  1 52  1  0
  1 53  1  0
  1 54  1  0
 16  6  1  0
 38 17  1  0
 15  9  1  0
 30 21  1  0
 17 15  1  0
 30 25  1  0
M  END
>  <cnnaffinities>  (50) 
[6.61146]

>  <score>  (50) 
6.61146

>  <index>  (50) 
65

>  <Smiles>  (50) 
C(N(C(=O)C(N1C(=O)C2=C(C(=C(Cl)C([C@]32[C@@]1([C@@]13C(=O)N(c2c(nc(c3c(c(c(c(c23)[H])[H])[H])[H])[H])[H])C(/C/1=C(\F)/[H])([H])[H])[H])([H])[H])[H])[H])([H])[H])[H])([H])([H])[H]

>  <h>  (50) 
<NA>

>  <Training>  (50) 
True

>  <Success>  (50) 
True

>  <enamine_searched>  (50) 
False

>  <enamine_id>  (50) 
nan

$$$$

     RDKit          3D

 47 50  0  0  0  0  0  0  0  0999 V2000
    5.4699   -2.4306   20.9126 O   0  0  0  0  0  0  0  0  0  0  0  0
    6.1379   -1.6668   21.5838 C   0  0  0  0  0  0  0  0  0  0  0  0
    6.9053   -0.5047   20.9140 C   0  0  0  0  0  0  0  0  0  0  0  0
    6.1172    0.0890   19.7654 C   0  0  0  0  0  0  0  0  0  0  0  0
    6.4230   -0.2141   18.4635 C   0  0  0  0  0  0  0  0  0  0  0  0
    5.7605    0.2399   17.3642 N   0  0  0  0  0  0  0  0  0  0  0  0
    4.7361    1.0299   17.5754 C   0  0  0  0  0  0  0  0  0  0  0  0
    4.2869    1.4209   18.8669 C   0  0  0  0  0  0  0  0  0  0  0  0
    3.1635    2.2702   19.0453 C   0  0  0  0  0  0  0  0  0  0  0  0
    2.7489    2.6228   20.3014 C   0  0  0  0  0  0  0  0  0  0  0  0
    3.4447    2.1415   21.4338 C   0  0  0  0  0  0  0  0  0  0  0  0
    4.5359    1.3201   21.2846 C   0  0  0  0  0  0  0  0  0  0  0  0
    4.9916    0.9374   19.9963 C   0  0  0  0  0  0  0  0  0  0  0  0
    5.0618    0.9622   22.1644 H   0  0  0  0  0  0  0  0  0  0  0  0
    3.1071    2.4225   22.4281 H   0  0  0  0  0  0  0  0  0  0  0  0
    1.8885    3.2740   20.4387 H   0  0  0  0  0  0  0  0  0  0  0  0
    2.6416    2.6417   18.1655 H   0  0  0  0  0  0  0  0  0  0  0  0
    4.1993    1.3987   16.6989 H   0  0  0  0  0  0  0  0  0  0  0  0
    7.2660   -0.8687   18.2439 H   0  0  0  0  0  0  0  0  0  0  0  0
    7.8528   -0.9033   20.5241 H   0  0  0  0  0  0  0  0  0  0  0  0
    7.1652    0.2747   21.6458 H   0  0  0  0  0  0  0  0  0  0  0  0
    6.1917   -1.7440   22.9679 N   0  0  0  0  0  0  0  0  0  0  0  0
    7.4458   -1.6668   23.7166 C   0  0  0  0  0  0  0  0  0  0  0  0
    7.2226   -1.0295   25.0780 C   0  0  0  0  0  0  0  0  0  0  0  0
    6.1368   -1.7603   25.8674 C   0  0  1  0  0  0  0  0  0  0  0  0
    5.8685   -1.1106   27.2363 C   0  0  0  0  0  0  0  0  0  0  0  0
    5.1176    0.2180   27.1449 C   0  0  0  0  0  0  0  0  0  0  0  0
    3.8572    0.0733   26.3197 C   0  0  0  0  0  0  0  0  0  0  0  0
    3.2388    1.2900   26.1838 F   0  0  0  0  0  0  0  0  0  0  0  0
    2.9666   -0.7128   27.0065 F   0  0  0  0  0  0  0  0  0  0  0  0
    4.0971   -0.5391   24.9544 C   0  0  0  0  0  0  0  0  0  0  0  0
    4.8410   -1.8781   25.0478 C   0  0  1  0  0  0  0  0  0  0  0  0
    5.1292   -2.4702   23.6631 C   0  0  0  0  0  0  0  0  0  0  0  0
    5.3645   -3.5416   23.7620 H   0  0  0  0  0  0  0  0  0  0  0  0
    4.2331   -2.4190   23.0425 H   0  0  0  0  0  0  0  0  0  0  0  0
    4.1700   -2.5630   25.5776 H   0  0  0  0  0  0  0  0  0  0  0  0
    4.6731    0.1795   24.3675 H   0  0  0  0  0  0  0  0  0  0  0  0
    3.1293   -0.6579   24.4567 H   0  0  0  0  0  0  0  0  0  0  0  0
    4.8531    0.5975   28.1373 H   0  0  0  0  0  0  0  0  0  0  0  0
    5.7348    0.9792   26.6622 H   0  0  0  0  0  0  0  0  0  0  0  0
    6.8164   -0.9551   27.7626 H   0  0  0  0  0  0  0  0  0  0  0  0
    5.2841   -1.7993   27.8559 H   0  0  0  0  0  0  0  0  0  0  0  0
    6.5062   -2.7793   26.0505 H   0  0  0  0  0  0  0  0  0  0  0  0
    6.9598    0.0218   24.9420 H   0  0  0  0  0  0  0  0  0  0  0  0
    8.1599   -1.0335   25.6453 H   0  0  0  0  0  0  0  0  0  0  0  0
    7.8837   -2.6686   23.8605 H   0  0  0  0  0  0  0  0  0  0  0  0
    8.1744   -1.0986   23.1370 H   0  0  0  0  0  0  0  0  0  0  0  0
  1  2  2  0
  2  3  1  0
  3  4  1  0
  4  5  2  0
  5  6  1  0
  6  7  2  0
  7  8  1  0
  8  9  2  0
  9 10  1  0
 10 11  2  0
 11 12  1  0
 12 13  2  0
 12 14  1  0
 11 15  1  0
 10 16  1  0
  9 17  1  0
  7 18  1  0
  5 19  1  0
  3 20  1  0
  3 21  1  0
  2 22  1  0
 22 23  1  0
 23 24  1  0
 24 25  1  0
 25 26  1  0
 26 27  1  0
 27 28  1  0
 28 29  1  0
 28 30  1  0
 28 31  1  0
 31 32  1  0
 32 33  1  0
 33 34  1  0
 33 35  1  0
 32 36  1  1
 31 37  1  0
 31 38  1  0
 27 39  1  0
 27 40  1  0
 26 41  1  0
 26 42  1  0
 25 43  1  1
 24 44  1  0
 24 45  1  0
 23 46  1  0
 23 47  1  0
 13  4  1  0
 33 22  1  0
 13  8  1  0
 32 25  1  0
M  END
>  <cnnaffinities>  (51) 
[5.55209, 5.55187]

>  <score>  (51) 
5.55209

>  <index>  (51) 
66

>  <Smiles>  (51) 
O=C(C(c1c(nc(c2c(c(c(c(c12)[H])[H])[H])[H])[H])[H])([H])[H])N1C(C([C@]2(C(C(C(F)(F)C([C@]2(C1([H])[H])[H])([H])[H])([H])[H])([H])[H])[H])([H])[H])([H])[H]

>  <h>  (51) 
<NA>

>  <Training>  (51) 
True

>  <Success>  (51) 
True

>  <enamine_searched>  (51) 
False

>  <enamine_id>  (51) 
nan

$$$$

     RDKit          3D

 69 74  0  0  0  0  0  0  0  0999 V2000
    6.4013   -8.1899   22.6981 C   0  0  0  0  0  0  0  0  0  0  0  0
    7.2719   -7.0527   22.4721 N   0  0  0  0  0  4  0  0  0  0  0  0
    6.9820   -6.3338   21.1966 C   0  0  0  0  0  0  0  0  0  0  0  0
    6.0461   -5.1618   21.5004 C   0  0  0  0  0  0  0  0  0  0  0  0
    6.5912   -4.3362   22.5632 N   0  0  0  0  0  0  0  0  0  0  0  0
    7.6706   -3.4399   22.2682 C   0  0  0  0  0  0  0  0  0  0  0  0
    7.2758   -1.9970   22.6197 C   0  0  2  0  0  0  0  0  0  0  0  0
    6.2013   -1.5293   21.6054 C   0  0  0  0  0  0  0  0  0  0  0  0
    5.0936   -1.9953   21.4405 O   0  0  0  0  0  0  0  0  0  0  0  0
    6.7542   -0.5359   20.8151 N   0  0  0  0  0  0  0  0  0  0  0  0
    6.0645    0.0447   19.7323 C   0  0  0  0  0  0  0  0  0  0  0  0
    6.4535   -0.2011   18.4405 C   0  0  0  0  0  0  0  0  0  0  0  0
    5.8102    0.2693   17.3439 N   0  0  0  0  0  0  0  0  0  0  0  0
    4.7659    1.0370   17.5519 C   0  0  0  0  0  0  0  0  0  0  0  0
    4.2928    1.4178   18.8404 C   0  0  0  0  0  0  0  0  0  0  0  0
    3.1837    2.2887   19.0066 C   0  0  0  0  0  0  0  0  0  0  0  0
    2.7865    2.6717   20.2585 C   0  0  0  0  0  0  0  0  0  0  0  0
    3.4823    2.2151   21.3995 C   0  0  0  0  0  0  0  0  0  0  0  0
    4.5533    1.3676   21.2654 C   0  0  0  0  0  0  0  0  0  0  0  0
    4.9703    0.9303   19.9765 C   0  0  0  0  0  0  0  0  0  0  0  0
    5.0959    1.0257   22.1405 H   0  0  0  0  0  0  0  0  0  0  0  0
    3.1606    2.5372   22.3861 H   0  0  0  0  0  0  0  0  0  0  0  0
    1.9356    3.3362   20.3821 H   0  0  0  0  0  0  0  0  0  0  0  0
    2.6688    2.6441   18.1180 H   0  0  0  0  0  0  0  0  0  0  0  0
    4.2407    1.4005   16.6701 H   0  0  0  0  0  0  0  0  0  0  0  0
    7.3151   -0.8394   18.2465 H   0  0  0  0  0  0  0  0  0  0  0  0
    8.1935   -0.4394   20.9346 C   0  0  0  0  0  0  0  0  0  0  0  0
    8.4567   -1.0437   22.3145 C   0  0  2  0  0  0  0  0  0  0  0  0
    9.8119   -1.7118   22.3616 C   0  0  0  0  0  0  0  0  0  0  0  0
   10.7731   -0.7667   21.9704 O   0  0  0  0  0  0  0  0  0  0  0  0
   12.0565   -1.2038   22.3134 C   0  0  0  0  0  0  0  0  0  0  0  0
   12.3805   -0.7462   23.7038 C   0  0  0  0  0  0  0  0  0  0  0  0
   11.5678   -1.3619   24.6361 F   0  0  0  0  0  0  0  0  0  0  0  0
   12.7878    0.6440   24.0158 C   0  0  0  0  0  0  0  0  0  0  0  0
   13.7750   -0.5032   24.1035 C   0  0  0  0  0  0  0  0  0  0  0  0
   14.4913   -0.6348   23.3038 H   0  0  0  0  0  0  0  0  0  0  0  0
   14.0823   -0.8490   25.0836 H   0  0  0  0  0  0  0  0  0  0  0  0
   12.4315    1.0488   24.9558 H   0  0  0  0  0  0  0  0  0  0  0  0
   12.8653    1.3777   23.2225 H   0  0  0  0  0  0  0  0  0  0  0  0
   12.7387   -0.8215   21.5524 H   0  0  0  0  0  0  0  0  0  0  0  0
   12.1346   -2.2996   22.2669 H   0  0  0  0  0  0  0  0  0  0  0  0
    9.9980   -2.0873   23.3727 H   0  0  0  0  0  0  0  0  0  0  0  0
    9.8826   -2.5649   21.6660 H   0  0  0  0  0  0  0  0  0  0  0  0
    8.4482   -0.2296   23.0413 H   0  0  0  0  0  0  0  0  0  0  0  0
    8.5122    0.6043   20.8664 H   0  0  0  0  0  0  0  0  0  0  0  0
    8.7143   -1.0085   20.1496 H   0  0  0  0  0  0  0  0  0  0  0  0
    6.7921   -2.0284   24.0609 C   0  0  0  0  0  0  0  0  0  0  0  0
    6.8173   -0.8717   24.8453 C   0  0  0  0  0  0  0  0  0  0  0  0
    6.3694   -0.9105   26.1507 C   0  0  0  0  0  0  0  0  0  0  0  0
    6.3943    0.5509   27.0903 Cl  0  0  0  0  0  0  0  0  0  0  0  0
    5.8949   -2.0788   26.7416 C   0  0  0  0  0  0  0  0  0  0  0  0
    5.8734   -3.2310   25.9816 C   0  0  0  0  0  0  0  0  0  0  0  0
    6.3043   -3.2115   24.6548 C   0  0  0  0  0  0  0  0  0  0  0  0
    6.2199   -4.4744   23.8620 C   0  0  0  0  0  0  0  0  0  0  0  0
    5.8578   -5.5601   24.3156 O   0  0  0  0  0  0  0  0  0  0  0  0
    5.5188   -4.1692   26.3937 H   0  0  0  0  0  0  0  0  0  0  0  0
    5.5516   -2.0688   27.7702 H   0  0  0  0  0  0  0  0  0  0  0  0
    7.1798    0.0709   24.4532 H   0  0  0  0  0  0  0  0  0  0  0  0
    7.9147   -3.5096   21.2124 H   0  0  0  0  0  0  0  0  0  0  0  0
    8.5489   -3.7430   22.8588 H   0  0  0  0  0  0  0  0  0  0  0  0
    5.0674   -5.5101   21.8472 H   0  0  0  0  0  0  0  0  0  0  0  0
    5.9004   -4.5252   20.6213 H   0  0  0  0  0  0  0  0  0  0  0  0
    7.9226   -5.9810   20.7626 H   0  0  0  0  0  0  0  0  0  0  0  0
    6.5225   -7.0211   20.4768 H   0  0  0  0  0  0  0  0  0  0  0  0
    8.2478   -7.4016   22.5106 H   0  0  0  0  0  0  0  0  0  0  0  0
    7.1270   -6.3951   23.2539 H   0  0  0  0  0  0  0  0  0  0  0  0
    6.2905   -8.7433   21.7579 H   0  0  0  0  0  0  0  0  0  0  0  0
    5.4140   -7.8509   23.0253 H   0  0  0  0  0  0  0  0  0  0  0  0
    6.8137   -8.8627   23.4505 H   0  0  0  0  0  0  0  0  0  0  0  0
  1  2  1  0
  2  3  1  0
  3  4  1  0
  4  5  1  0
  5  6  1  0
  7  6  1  6
  7  8  1  0
  8  9  2  0
  8 10  1  0
 10 11  1  0
 11 12  2  0
 12 13  1  0
 13 14  2  0
 14 15  1  0
 15 16  2  0
 16 17  1  0
 17 18  2  0
 18 19  1  0
 19 20  2  0
 19 21  1  0
 18 22  1  0
 17 23  1  0
 16 24  1  0
 14 25  1  0
 12 26  1  0
 10 27  1  0
 27 28  1  0
 28 29  1  0
 29 30  1  0
 30 31  1  0
 31 32  1  0
 32 33  1  0
 32 34  1  0
 34 35  1  0
 35 36  1  0
 35 37  1  0
 34 38  1  0
 34 39  1  0
 31 40  1  0
 31 41  1  0
 29 42  1  0
 29 43  1  0
 28 44  1  1
 27 45  1  0
 27 46  1  0
  7 47  1  0
 47 48  2  0
 48 49  1  0
 49 50  1  0
 49 51  2  0
 51 52  1  0
 52 53  2  0
 53 54  1  0
 54 55  2  0
 52 56  1  0
 51 57  1  0
 48 58  1  0
  6 59  1  0
  6 60  1  0
  4 61  1  0
  4 62  1  0
  3 63  1  0
  3 64  1  0
  2 65  1  0
  2 66  1  0
  1 67  1  0
  1 68  1  0
  1 69  1  0
 54  5  1  0
 28  7  1  0
 35 32  1  0
 53 47  1  0
 20 11  1  0
 20 15  1  0
M  CHG  1   2   1
M  END
>  <cnnaffinities>  (52) 
[6.70416]

>  <score>  (52) 
6.70416

>  <index>  (52) 
67

>  <Smiles>  (52) 
C([N+](C(C(N1C([C@@]2(C(=O)N(c3c(nc(c4c(c(c(c(c34)[H])[H])[H])[H])[H])[H])C([C@@]2(C(OC(C2(F)C(C2([H])[H])([H])[H])([H])[H])([H])[H])[H])([H])[H])c2c(c(Cl)c(c(c2C1=O)[H])[H])[H])([H])[H])([H])[H])([H])[H])([H])[H])([H])([H])[H]

>  <h>  (52) 
<NA>

>  <Training>  (52) 
True

>  <Success>  (52) 
True

>  <enamine_searched>  (52) 
False

>  <enamine_id>  (52) 
nan

$$$$

     RDKit          3D

 64 68  0  0  0  0  0  0  0  0999 V2000
    2.9126    2.7814   28.0979 C   0  0  0  0  0  0  0  0  0  0  0  0
    3.4727    2.9183   26.6813 C   0  0  0  0  0  0  0  0  0  0  0  0
    4.2068    1.6652   26.2406 C   0  0  0  0  0  0  0  0  0  0  0  0
    3.6138    0.7290   25.7405 O   0  0  0  0  0  0  0  0  0  0  0  0
    5.5804    1.6423   26.4839 N   0  0  0  0  0  0  0  0  0  0  0  0
    6.2743    2.3730   27.5415 C   0  0  0  0  0  0  0  0  0  0  0  0
    7.5850    1.6349   27.8085 C   0  0  0  0  0  0  0  0  0  0  0  0
    8.4985    0.9484   25.2377 C   0  0  0  0  0  0  0  0  0  0  0  0
    8.2847    0.6602   25.3442 C   0  0  0  0  0  0  0  0  0  0  0  0
    8.7033   -0.7735   25.1586 C   0  0  0  0  0  0  0  0  0  0  0  0
    7.7516   -1.3459   24.2179 C   0  0  0  0  0  0  0  0  0  0  0  0
    6.6053   -0.7263   23.8376 C   0  0  0  0  0  0  0  0  0  0  0  0
    5.7249   -1.3795   22.8924 N   0  0  0  0  0  0  0  0  0  0  0  0
    4.7617   -2.3389   23.4735 C   0  0  0  0  0  0  0  0  0  0  0  0
    5.4694   -3.6045   23.9095 C   0  0  0  0  0  0  0  0  0  0  0  0
    6.0486   -3.6904   25.1763 C   0  0  0  0  0  0  0  0  0  0  0  0
    6.9858   -4.6744   25.4546 C   0  0  0  0  0  0  0  0  0  0  0  0
    7.2489   -5.6787   24.5308 C   0  0  0  0  0  0  0  0  0  0  0  0
    6.5701   -5.6621   23.3198 C   0  0  0  0  0  0  0  0  0  0  0  0
    6.8213   -6.9550   22.1776 Cl  0  0  0  0  0  0  0  0  0  0  0  0
    5.7106   -4.6204   22.9845 C   0  0  0  0  0  0  0  0  0  0  0  0
    5.2819   -4.5830   21.9882 H   0  0  0  0  0  0  0  0  0  0  0  0
    7.9677   -6.4638   24.7462 H   0  0  0  0  0  0  0  0  0  0  0  0
    7.5239   -4.6515   26.4017 H   0  0  0  0  0  0  0  0  0  0  0  0
    5.8368   -2.9287   25.9236 H   0  0  0  0  0  0  0  0  0  0  0  0
    4.0362   -2.5561   22.6884 H   0  0  0  0  0  0  0  0  0  0  0  0
    4.2357   -1.8536   24.3075 H   0  0  0  0  0  0  0  0  0  0  0  0
    5.8794   -1.4888   21.5118 C   0  0  0  0  0  0  0  0  0  0  0  0
    5.2634   -2.3337   20.8818 O   0  0  0  0  0  0  0  0  0  0  0  0
    6.7647   -0.5058   20.7316 C   0  0  0  0  0  0  0  0  0  0  0  0
    6.0041    0.1095   19.5771 C   0  0  0  0  0  0  0  0  0  0  0  0
    6.3495   -0.1380   18.2738 C   0  0  0  0  0  0  0  0  0  0  0  0
    5.7070    0.3466   17.1782 N   0  0  0  0  0  0  0  0  0  0  0  0
    4.6643    1.1186   17.3861 C   0  0  0  0  0  0  0  0  0  0  0  0
    4.1949    1.4576   18.6832 C   0  0  0  0  0  0  0  0  0  0  0  0
    3.0695    2.2841   18.9004 C   0  0  0  0  0  0  0  0  0  0  0  0
    2.4004    2.7222   17.8210 F   0  0  0  0  0  0  0  0  0  0  0  0
    2.6424    2.6468   20.1432 C   0  0  0  0  0  0  0  0  0  0  0  0
    3.3449    2.1580   21.2614 C   0  0  0  0  0  0  0  0  0  0  0  0
    4.4207    1.3215   21.1047 C   0  0  0  0  0  0  0  0  0  0  0  0
    4.8801    0.9547   19.8117 C   0  0  0  0  0  0  0  0  0  0  0  0
    4.9115    0.9274   21.9835 H   0  0  0  0  0  0  0  0  0  0  0  0
    3.0195    2.4406   22.2588 H   0  0  0  0  0  0  0  0  0  0  0  0
    1.7811    3.2965   20.2550 H   0  0  0  0  0  0  0  0  0  0  0  0
    4.1419    1.5109   16.5164 H   0  0  0  0  0  0  0  0  0  0  0  0
    7.2087   -0.7716   18.0504 H   0  0  0  0  0  0  0  0  0  0  0  0
    7.1734    0.2564   21.3961 H   0  0  0  0  0  0  0  0  0  0  0  0
    7.6009   -1.0879   20.3237 H   0  0  0  0  0  0  0  0  0  0  0  0
    5.9903    0.3825   24.4883 C   0  0  0  0  0  0  0  0  0  0  0  0
    6.4504    1.0061   25.6077 C   0  0  0  0  0  0  0  0  0  0  0  0
    4.9922    0.6207   24.1112 H   0  0  0  0  0  0  0  0  0  0  0  0
    7.9630   -2.3306   23.8021 H   0  0  0  0  0  0  0  0  0  0  0  0
    9.7428   -1.0641   24.7830 H   0  0  0  0  0  0  0  0  0  0  0  0
    8.3410    1.3791   26.3029 H   0  0  0  0  0  0  0  0  0  0  0  0
    8.6129   -1.3875   26.1098 H   0  0  0  0  0  0  0  0  0  0  0  0
    7.4011    0.7617   28.4714 H   0  0  0  0  0  0  0  0  0  0  0  0
    8.2925    2.3051   28.3340 H   0  0  0  0  0  0  0  0  0  0  0  0
    6.4292    3.4279   27.2566 H   0  0  0  0  0  0  0  0  0  0  0  0
    5.6624    2.3736   28.4540 H   0  0  0  0  0  0  0  0  0  0  0  0
    2.6478    3.0441   25.9757 H   0  0  0  0  0  0  0  0  0  0  0  0
    4.1266    3.7901   26.5884 H   0  0  0  0  0  0  0  0  0  0  0  0
    3.7014    2.6989   28.8511 H   0  0  0  0  0  0  0  0  0  0  0  0
    2.2929    1.8836   28.1675 H   0  0  0  0  0  0  0  0  0  0  0  0
    2.2972    3.6495   28.3478 H   0  0  0  0  0  0  0  0  0  0  0  0
  1  2  1  0
  2  3  1  0
  3  4  2  0
  3  5  1  0
  5  6  1  0
  6  7  1  0
  7  8  1  0
  8  9  1  0
  9 10  2  0
 10 11  1  0
 11 12  2  0
 12 13  1  0
 13 14  1  0
 14 15  1  0
 15 16  2  0
 16 17  1  0
 17 18  2  0
 18 19  1  0
 19 20  1  0
 19 21  2  0
 21 22  1  0
 18 23  1  0
 17 24  1  0
 16 25  1  0
 14 26  1  0
 14 27  1  0
 13 28  1  0
 28 29  2  0
 28 30  1  0
 30 31  1  0
 31 32  2  0
 32 33  1  0
 33 34  2  0
 34 35  1  0
 35 36  2  0
 36 37  1  0
 36 38  1  0
 38 39  2  0
 39 40  1  0
 40 41  2  0
 40 42  1  0
 39 43  1  0
 38 44  1  0
 34 45  1  0
 32 46  1  0
 30 47  1  0
 30 48  1  0
 12 49  1  0
 49 50  2  0
 49 51  1  0
 11 52  1  0
 10 53  1  0
  8 54  1  0
  8 55  1  0
  7 56  1  0
  7 57  1  0
  6 58  1  0
  6 59  1  0
  2 60  1  0
  2 61  1  0
  1 62  1  0
  1 63  1  0
  1 64  1  0
 50  5  1  0
 50  9  1  0
 21 15  1  0
 41 31  1  0
 41 35  1  0
M  END
>  <cnnaffinities>  (53) 
[6.8064]

>  <score>  (53) 
6.8064

>  <index>  (53) 
69

>  <Smiles>  (53) 
C(C(C(=O)N1C(C(C(c2c(c(c(N(C(c3c(c(c(c(Cl)c3[H])[H])[H])[H])([H])[H])C(=O)C(c3c(nc(c4c(F)c(c(c(c34)[H])[H])[H])[H])[H])([H])[H])c(c12)[H])[H])[H])([H])[H])([H])[H])([H])[H])([H])[H])([H])([H])[H]

>  <h>  (53) 
<NA>

>  <Training>  (53) 
True

>  <Success>  (53) 
True

>  <enamine_searched>  (53) 
False

>  <enamine_id>  (53) 
nan

$$$$

     RDKit          3D

 60 64  0  0  0  0  0  0  0  0999 V2000
    7.6033   -8.4851   22.9901 C   0  0  0  0  0  0  0  0  0  0  0  0
    6.7050   -7.3798   22.7301 N   0  0  0  0  0  0  0  0  0  0  0  0
    6.9518   -6.5381   21.6875 C   0  0  0  0  0  0  0  0  0  0  0  0
    7.7992   -6.7417   20.8327 O   0  0  0  0  0  0  0  0  0  0  0  0
    6.1158   -5.2519   21.7205 C   0  0  0  0  0  0  0  0  0  0  0  0
    6.6588   -4.3140   22.6892 N   0  0  0  0  0  0  0  0  0  0  0  0
    7.7416   -3.4189   22.3174 C   0  0  0  0  0  0  0  0  0  0  0  0
    7.3984   -1.9495   22.6554 C   0  0  2  0  0  0  0  0  0  0  0  0
    6.3220   -1.4358   21.6780 C   0  0  0  0  0  0  0  0  0  0  0  0
    5.1796   -1.8309   21.5931 O   0  0  0  0  0  0  0  0  0  0  0  0
    6.8732   -0.4564   20.8754 N   0  0  0  0  0  0  0  0  0  0  0  0
    6.1417    0.0869   19.7948 C   0  0  0  0  0  0  0  0  0  0  0  0
    6.4823   -0.2173   18.5004 C   0  0  0  0  0  0  0  0  0  0  0  0
    5.8182    0.2229   17.4018 N   0  0  0  0  0  0  0  0  0  0  0  0
    4.7820    1.0021   17.6082 C   0  0  0  0  0  0  0  0  0  0  0  0
    4.3278    1.4037   18.8970 C   0  0  0  0  0  0  0  0  0  0  0  0
    3.2069    2.2620   19.0507 C   0  0  0  0  0  0  0  0  0  0  0  0
    2.7956    2.6501   20.2955 C   0  0  0  0  0  0  0  0  0  0  0  0
    3.4879    2.2054   21.4432 C   0  0  0  0  0  0  0  0  0  0  0  0
    4.5743    1.3751   21.3223 C   0  0  0  0  0  0  0  0  0  0  0  0
    5.0192    0.9424   20.0377 C   0  0  0  0  0  0  0  0  0  0  0  0
    5.0925    1.0415   22.2162 H   0  0  0  0  0  0  0  0  0  0  0  0
    3.1565    2.5310   22.4256 H   0  0  0  0  0  0  0  0  0  0  0  0
    1.9422    3.3125   20.4085 H   0  0  0  0  0  0  0  0  0  0  0  0
    2.6970    2.6090   18.1554 H   0  0  0  0  0  0  0  0  0  0  0  0
    4.2402    1.3662   16.7335 H   0  0  0  0  0  0  0  0  0  0  0  0
    7.3243   -0.8820   18.3116 H   0  0  0  0  0  0  0  0  0  0  0  0
    8.3175   -0.3945   20.9784 C   0  0  0  0  0  0  0  0  0  0  0  0
    8.5961   -0.9916   22.3614 C   0  0  2  0  0  0  0  0  0  0  0  0
    9.9255   -1.5533   22.4351 N   0  0  0  0  0  0  0  0  0  0  0  0
   10.5433   -1.7936   23.6364 C   0  0  0  0  0  0  0  0  0  0  0  0
   10.0323   -1.4800   24.6972 O   0  0  0  0  0  0  0  0  0  0  0  0
   11.8756   -2.5063   23.5431 C   0  0  0  0  0  0  0  0  0  0  0  0
   11.7246   -3.5164   23.1428 H   0  0  0  0  0  0  0  0  0  0  0  0
   12.2973   -2.5832   24.5472 H   0  0  0  0  0  0  0  0  0  0  0  0
   12.5758   -1.9700   22.8915 H   0  0  0  0  0  0  0  0  0  0  0  0
   10.3865   -1.8027   21.5712 H   0  0  0  0  0  0  0  0  0  0  0  0
    8.5554   -0.1966   23.1009 H   0  0  0  0  0  0  0  0  0  0  0  0
    8.6684    0.6378   20.8967 H   0  0  0  0  0  0  0  0  0  0  0  0
    8.8188   -1.0008   20.2096 H   0  0  0  0  0  0  0  0  0  0  0  0
    6.8784   -1.9173   24.0833 C   0  0  0  0  0  0  0  0  0  0  0  0
    6.8234   -0.7106   24.7871 C   0  0  0  0  0  0  0  0  0  0  0  0
    6.3619   -0.6888   26.0893 C   0  0  0  0  0  0  0  0  0  0  0  0
    6.3140    0.8267   26.9379 Cl  0  0  0  0  0  0  0  0  0  0  0  0
    5.9347   -1.8432   26.7436 C   0  0  0  0  0  0  0  0  0  0  0  0
    5.9394   -3.0291   26.0406 C   0  0  0  0  0  0  0  0  0  0  0  0
    6.3762   -3.0618   24.7201 C   0  0  0  0  0  0  0  0  0  0  0  0
    6.1887   -4.3343   23.9667 C   0  0  0  0  0  0  0  0  0  0  0  0
    5.5953   -5.3049   24.4342 O   0  0  0  0  0  0  0  0  0  0  0  0
    5.5938   -3.9560   26.4805 H   0  0  0  0  0  0  0  0  0  0  0  0
    5.5954   -1.7969   27.7717 H   0  0  0  0  0  0  0  0  0  0  0  0
    7.1492    0.2182   24.3333 H   0  0  0  0  0  0  0  0  0  0  0  0
    7.9160   -3.5226   21.2512 H   0  0  0  0  0  0  0  0  0  0  0  0
    8.6660   -3.6964   22.8339 H   0  0  0  0  0  0  0  0  0  0  0  0
    6.0915   -4.7645   20.7367 H   0  0  0  0  0  0  0  0  0  0  0  0
    5.0858   -5.4735   22.0168 H   0  0  0  0  0  0  0  0  0  0  0  0
    6.0669   -7.0944   23.4667 H   0  0  0  0  0  0  0  0  0  0  0  0
    8.6090   -8.1379   23.2715 H   0  0  0  0  0  0  0  0  0  0  0  0
    7.6826   -9.0906   22.0876 H   0  0  0  0  0  0  0  0  0  0  0  0
    7.1864   -9.0950   23.7966 H   0  0  0  0  0  0  0  0  0  0  0  0
  1  2  1  0
  2  3  1  0
  3  4  2  0
  3  5  1  0
  5  6  1  0
  6  7  1  0
  8  7  1  6
  8  9  1  0
  9 10  2  0
  9 11  1  0
 11 12  1  0
 12 13  2  0
 13 14  1  0
 14 15  2  0
 15 16  1  0
 16 17  2  0
 17 18  1  0
 18 19  2  0
 19 20  1  0
 20 21  2  0
 20 22  1  0
 19 23  1  0
 18 24  1  0
 17 25  1  0
 15 26  1  0
 13 27  1  0
 11 28  1  0
 28 29  1  0
 29 30  1  0
 30 31  1  0
 31 32  2  0
 31 33  1  0
 33 34  1  0
 33 35  1  0
 33 36  1  0
 30 37  1  0
 29 38  1  1
 28 39  1  0
 28 40  1  0
  8 41  1  0
 41 42  2  0
 42 43  1  0
 43 44  1  0
 43 45  2  0
 45 46  1  0
 46 47  2  0
 47 48  1  0
 48 49  2  0
 46 50  1  0
 45 51  1  0
 42 52  1  0
  7 53  1  0
  7 54  1  0
  5 55  1  0
  5 56  1  0
  2 57  1  0
  1 58  1  0
  1 59  1  0
  1 60  1  0
 48  6  1  0
 29  8  1  0
 47 41  1  0
 21 12  1  0
 21 16  1  0
M  END
>  <cnnaffinities>  (54) 
[6.86546]

>  <score>  (54) 
6.86546

>  <index>  (54) 
72

>  <Smiles>  (54) 
C(N(C(=O)C(N1C([C@@]2(C(=O)N(c3c(nc(c4c(c(c(c(c34)[H])[H])[H])[H])[H])[H])C([C@@]2(N(C(=O)C([H])([H])[H])[H])[H])([H])[H])c2c(c(Cl)c(c(c2C1=O)[H])[H])[H])([H])[H])([H])[H])[H])([H])([H])[H]

>  <h>  (54) 
<NA>

>  <Training>  (54) 
True

>  <Success>  (54) 
True

>  <enamine_searched>  (54) 
False

>  <enamine_id>  (54) 
nan

$$$$

     RDKit          3D

 56 61  0  0  0  0  0  0  0  0999 V2000
    7.7256   -3.5757   22.7360 C   0  0  0  0  0  0  0  0  0  0  0  0
    7.6751   -2.3145   21.8812 C   0  0  1  0  0  0  0  0  0  0  0  0
    6.4189   -2.1545   21.0071 C   0  0  0  0  0  0  0  0  0  0  0  0
    6.5238   -0.7658   20.6187 N   0  0  0  0  0  0  0  0  0  0  0  0
    5.8484   -0.1535   19.5514 C   0  0  0  0  0  0  0  0  0  0  0  0
    6.1931   -0.4454   18.2573 C   0  0  0  0  0  0  0  0  0  0  0  0
    5.6341    0.1407   17.1716 N   0  0  0  0  0  0  0  0  0  0  0  0
    4.6963    1.0300   17.4006 C   0  0  0  0  0  0  0  0  0  0  0  0
    4.2343    1.4031   18.6924 C   0  0  0  0  0  0  0  0  0  0  0  0
    3.1941    2.3507   18.8635 C   0  0  0  0  0  0  0  0  0  0  0  0
    2.7570    2.6950   20.1119 C   0  0  0  0  0  0  0  0  0  0  0  0
    3.3332    2.0884   21.2528 C   0  0  0  0  0  0  0  0  0  0  0  0
    4.3278    1.1543   21.1149 C   0  0  0  0  0  0  0  0  0  0  0  0
    4.8207    0.7993   19.8222 C   0  0  0  0  0  0  0  0  0  0  0  0
    4.7301    0.6798   22.0068 H   0  0  0  0  0  0  0  0  0  0  0  0
    2.9658    2.3521   22.2439 H   0  0  0  0  0  0  0  0  0  0  0  0
    1.9607    3.4249   20.2325 H   0  0  0  0  0  0  0  0  0  0  0  0
    2.7498    2.7810   17.9708 H   0  0  0  0  0  0  0  0  0  0  0  0
    4.2408    1.4989   16.5310 H   0  0  0  0  0  0  0  0  0  0  0  0
    6.9804   -1.1761   18.0679 H   0  0  0  0  0  0  0  0  0  0  0  0
    7.3560   -0.0210   21.4180 C   0  0  0  0  0  0  0  0  0  0  0  0
    7.6478    1.1340   21.1959 O   0  0  0  0  0  0  0  0  0  0  0  0
    7.7966   -0.9385   22.6056 C   0  0  1  0  0  0  0  0  0  0  0  0
    6.7535   -0.7663   23.7571 C   0  0  0  0  0  0  0  0  0  0  0  0
    6.9417    0.5221   24.4359 N   0  0  0  0  0  0  0  0  0  0  0  0
    5.7797    1.3381   24.7049 C   0  0  0  0  0  0  0  0  0  0  0  0
    4.5155    0.6523   25.2885 C   0  0  0  0  0  0  0  0  0  0  0  0
    4.5388    1.5350   26.5307 N   0  0  0  0  0  4  0  0  0  0  0  0
    5.8168    2.1735   26.0120 C   0  0  0  0  0  0  0  0  0  0  0  0
    6.6538    1.9711   26.6654 H   0  0  0  0  0  0  0  0  0  0  0  0
    5.7087    3.2416   25.8678 H   0  0  0  0  0  0  0  0  0  0  0  0
    3.7470    2.1966   26.6146 H   0  0  0  0  0  0  0  0  0  0  0  0
    4.6602    1.0246   27.4214 H   0  0  0  0  0  0  0  0  0  0  0  0
    3.6090    0.8047   24.7046 H   0  0  0  0  0  0  0  0  0  0  0  0
    4.6313   -0.3990   25.5402 H   0  0  0  0  0  0  0  0  0  0  0  0
    5.5470    1.9590   23.8178 H   0  0  0  0  0  0  0  0  0  0  0  0
    8.1390    1.2469   24.4330 C   0  0  0  0  0  0  0  0  0  0  0  0
    8.0827    2.4297   24.7501 O   0  0  0  0  0  0  0  0  0  0  0  0
    9.2908    0.4748   24.0128 C   0  0  0  0  0  0  0  0  0  0  0  0
   11.5205    0.8815   24.1429 C   0  0  0  0  0  0  0  0  0  0  0  0
   11.2282    0.5778   24.1306 C   0  0  0  0  0  0  0  0  0  0  0  0
   11.4875   -0.6033   23.3581 C   0  0  0  0  0  0  0  0  0  0  0  0
   12.9625   -1.4271   23.5749 Cl  0  0  0  0  0  0  0  0  0  0  0  0
   10.4166   -1.2482   22.8662 C   0  0  0  0  0  0  0  0  0  0  0  0
    9.1611   -0.5812   23.1677 C   0  0  0  0  0  0  0  0  0  0  0  0
   10.4839   -2.2141   22.3778 H   0  0  0  0  0  0  0  0  0  0  0  0
   12.0271    1.7865   23.7374 H   0  0  0  0  0  0  0  0  0  0  0  0
   12.3734    0.6206   24.7789 H   0  0  0  0  0  0  0  0  0  0  0  0
    6.8546   -1.5750   24.4905 H   0  0  0  0  0  0  0  0  0  0  0  0
    5.7420   -0.8186   23.3522 H   0  0  0  0  0  0  0  0  0  0  0  0
    5.4986   -2.3412   21.5828 H   0  0  0  0  0  0  0  0  0  0  0  0
    6.3828   -2.7872   20.1160 H   0  0  0  0  0  0  0  0  0  0  0  0
    8.5078   -2.3434   21.1660 H   0  0  0  0  0  0  0  0  0  0  0  0
    7.7719   -4.4742   22.1073 H   0  0  0  0  0  0  0  0  0  0  0  0
    8.6093   -3.5906   23.3842 H   0  0  0  0  0  0  0  0  0  0  0  0
    6.8453   -3.6634   23.3840 H   0  0  0  0  0  0  0  0  0  0  0  0
  1  2  1  0
  2  3  1  0
  3  4  1  0
  4  5  1  0
  5  6  2  0
  6  7  1  0
  7  8  2  0
  8  9  1  0
  9 10  2  0
 10 11  1  0
 11 12  2  0
 12 13  1  0
 13 14  2  0
 13 15  1  0
 12 16  1  0
 11 17  1  0
 10 18  1  0
  8 19  1  0
  6 20  1  0
  4 21  1  0
 21 22  2  0
 21 23  1  0
 23 24  1  1
 24 25  1  0
 25 26  1  0
 26 27  1  0
 27 28  1  0
 28 29  1  0
 29 30  1  0
 29 31  1  0
 28 32  1  0
 28 33  1  0
 27 34  1  0
 27 35  1  0
 26 36  1  0
 25 37  1  0
 37 38  2  0
 37 39  1  0
 39 40  2  0
 40 41  1  0
 41 42  2  0
 42 43  1  0
 42 44  1  0
 44 45  2  0
 44 46  1  0
 41 47  1  0
 40 48  1  0
 24 49  1  0
 24 50  1  0
  3 51  1  0
  3 52  1  0
  2 53  1  6
  1 54  1  0
  1 55  1  0
  1 56  1  0
 23  2  1  0
 29 26  1  0
 45 39  1  0
 14  5  1  0
 45 23  1  0
 14  9  1  0
M  CHG  1  28   1
M  END
>  <cnnaffinities>  (55) 
[5.9256]

>  <score>  (55) 
5.9256

>  <index>  (55) 
73

>  <Smiles>  (55) 
C([C@]1(C(N(c2c(nc(c3c(c(c(c(c23)[H])[H])[H])[H])[H])[H])C(=O)[C@]21C(N(C1(C([N+](C1([H])[H])([H])[H])([H])[H])[H])C(=O)c1c(c(c(Cl)c(c21)[H])[H])[H])([H])[H])([H])[H])[H])([H])([H])[H]

>  <h>  (55) 
<NA>

>  <Training>  (55) 
True

>  <Success>  (55) 
True

>  <enamine_searched>  (55) 
False

>  <enamine_id>  (55) 
nan

$$$$

     RDKit          3D

 61 65  0  0  0  0  0  0  0  0999 V2000
    9.7759   -1.8822   21.8597 C   0  0  0  0  0  0  0  0  0  0  0  0
    8.6666   -0.9234   22.3336 C   0  0  1  0  0  0  0  0  0  0  0  0
    8.2059   -0.0241   21.1635 C   0  0  0  0  0  0  0  0  0  0  0  0
    6.8723   -0.4832   20.8369 N   0  0  0  0  0  0  0  0  0  0  0  0
    6.1051    0.0558   19.7735 C   0  0  0  0  0  0  0  0  0  0  0  0
    6.4473   -0.2238   18.4754 C   0  0  0  0  0  0  0  0  0  0  0  0
    5.7863    0.2410   17.3871 N   0  0  0  0  0  0  0  0  0  0  0  0
    4.7541    1.0211   17.6016 C   0  0  0  0  0  0  0  0  0  0  0  0
    4.2993    1.4109   18.8935 C   0  0  0  0  0  0  0  0  0  0  0  0
    3.1850    2.2772   19.0599 C   0  0  0  0  0  0  0  0  0  0  0  0
    2.7862    2.6587   20.3095 C   0  0  0  0  0  0  0  0  0  0  0  0
    3.4910    2.2024   21.4468 C   0  0  0  0  0  0  0  0  0  0  0  0
    4.5713    1.3662   21.3170 C   0  0  0  0  0  0  0  0  0  0  0  0
    4.9951    0.9289   20.0260 C   0  0  0  0  0  0  0  0  0  0  0  0
    5.1003    1.0263   22.2084 H   0  0  0  0  0  0  0  0  0  0  0  0
    3.1617    2.5099   22.4349 H   0  0  0  0  0  0  0  0  0  0  0  0
    1.9324    3.3195   20.4357 H   0  0  0  0  0  0  0  0  0  0  0  0
    2.6734    2.6348   18.1694 H   0  0  0  0  0  0  0  0  0  0  0  0
    4.2220    1.3811   16.7214 H   0  0  0  0  0  0  0  0  0  0  0  0
    7.2965   -0.8722   18.2642 H   0  0  0  0  0  0  0  0  0  0  0  0
    6.3365   -1.3800   21.7300 C   0  0  0  0  0  0  0  0  0  0  0  0
    5.2381   -1.8828   21.6182 O   0  0  0  0  0  0  0  0  0  0  0  0
    7.3599   -1.5941   22.8749 C   0  0  1  0  0  0  0  0  0  0  0  0
    7.5204   -3.1007   23.1638 C   0  0  0  0  0  0  0  0  0  0  0  0
    6.3175   -3.6571   23.7361 N   0  0  0  0  0  0  0  0  0  0  0  0
    5.8685   -4.9536   23.2708 C   0  0  0  0  0  0  0  0  0  0  0  0
    6.6121   -6.0899   23.9730 C   0  0  0  0  0  0  0  0  0  0  0  0
    6.1985   -7.4708   23.4860 N   0  0  0  0  0  4  0  0  0  0  0  0
    4.8005   -7.8311   23.9045 C   0  0  0  0  0  0  0  0  0  0  0  0
    4.0860   -7.2302   23.3430 H   0  0  0  0  0  0  0  0  0  0  0  0
    4.5966   -8.8919   23.7170 H   0  0  0  0  0  0  0  0  0  0  0  0
    4.6838   -7.6362   24.9742 H   0  0  0  0  0  0  0  0  0  0  0  0
    7.1504   -8.5201   23.9354 C   0  0  0  0  0  0  0  0  0  0  0  0
    8.1700   -8.2573   23.6458 H   0  0  0  0  0  0  0  0  0  0  0  0
    6.8895   -9.4859   23.4987 H   0  0  0  0  0  0  0  0  0  0  0  0
    7.1026   -8.5974   25.0228 H   0  0  0  0  0  0  0  0  0  0  0  0
    6.2435   -7.4388   22.4496 H   0  0  0  0  0  0  0  0  0  0  0  0
    7.6996   -6.0145   23.8402 H   0  0  0  0  0  0  0  0  0  0  0  0
    6.3877   -5.9935   25.0386 H   0  0  0  0  0  0  0  0  0  0  0  0
    4.8012   -5.0034   23.4952 H   0  0  0  0  0  0  0  0  0  0  0  0
    6.0055   -4.9839   22.1786 H   0  0  0  0  0  0  0  0  0  0  0  0
    5.7542   -3.1102   24.8480 C   0  0  0  0  0  0  0  0  0  0  0  0
    4.9990   -3.7380   25.5824 O   0  0  0  0  0  0  0  0  0  0  0  0
    6.0862   -1.6629   25.0818 C   0  0  0  0  0  0  0  0  0  0  0  0
    5.5708   -1.0432   26.2191 C   0  0  0  0  0  0  0  0  0  0  0  0
    5.7475    0.3114   26.4211 C   0  0  0  0  0  0  0  0  0  0  0  0
    6.4396    1.0474   25.4622 C   0  0  0  0  0  0  0  0  0  0  0  0
    6.6293    2.7623   25.6918 Cl  0  0  0  0  0  0  0  0  0  0  0  0
    6.9732    0.4478   24.3353 C   0  0  0  0  0  0  0  0  0  0  0  0
    6.8263   -0.9317   24.1429 C   0  0  0  0  0  0  0  0  0  0  0  0
    7.4851    1.0785   23.6139 H   0  0  0  0  0  0  0  0  0  0  0  0
    5.3452    0.8107   27.2940 H   0  0  0  0  0  0  0  0  0  0  0  0
    5.0112   -1.6616   26.9128 H   0  0  0  0  0  0  0  0  0  0  0  0
    7.7015   -3.6368   22.2318 H   0  0  0  0  0  0  0  0  0  0  0  0
    8.3812   -3.2389   23.8417 H   0  0  0  0  0  0  0  0  0  0  0  0
    8.2057    1.0461   21.4188 H   0  0  0  0  0  0  0  0  0  0  0  0
    8.8682   -0.1487   20.3071 H   0  0  0  0  0  0  0  0  0  0  0  0
    9.1048   -0.3185   23.1374 H   0  0  0  0  0  0  0  0  0  0  0  0
   10.1513   -2.5083   22.6742 H   0  0  0  0  0  0  0  0  0  0  0  0
    9.4320   -2.5417   21.0544 H   0  0  0  0  0  0  0  0  0  0  0  0
   10.6273   -1.3088   21.4747 H   0  0  0  0  0  0  0  0  0  0  0  0
  1  2  1  0
  2  3  1  0
  3  4  1  0
  4  5  1  0
  5  6  2  0
  6  7  1  0
  7  8  2  0
  8  9  1  0
  9 10  2  0
 10 11  1  0
 11 12  2  0
 12 13  1  0
 13 14  2  0
 13 15  1  0
 12 16  1  0
 11 17  1  0
 10 18  1  0
  8 19  1  0
  6 20  1  0
  4 21  1  0
 21 22  2  0
 21 23  1  0
 23 24  1  1
 24 25  1  0
 25 26  1  0
 26 27  1  0
 27 28  1  0
 28 29  1  0
 29 30  1  0
 29 31  1  0
 29 32  1  0
 28 33  1  0
 33 34  1  0
 33 35  1  0
 33 36  1  0
 28 37  1  0
 27 38  1  0
 27 39  1  0
 26 40  1  0
 26 41  1  0
 25 42  1  0
 42 43  2  0
 42 44  1  0
 44 45  2  0
 45 46  1  0
 46 47  2  0
 47 48  1  0
 47 49  1  0
 49 50  2  0
 49 51  1  0
 46 52  1  0
 45 53  1  0
 24 54  1  0
 24 55  1  0
  3 56  1  0
  3 57  1  0
  2 58  1  1
  1 59  1  0
  1 60  1  0
  1 61  1  0
 23  2  1  0
 50 44  1  0
 14  5  1  0
 50 23  1  0
 14  9  1  0
M  CHG  1  28   1
M  END
>  <cnnaffinities>  (56) 
[6.10078, 6.11588]

>  <score>  (56) 
6.10078

>  <index>  (56) 
76

>  <Smiles>  (56) 
C([C@]1(C(N(c2c(nc(c3c(c(c(c(c23)[H])[H])[H])[H])[H])[H])C(=O)[C@]21C(N(C(C([N+](C([H])([H])[H])(C([H])([H])[H])[H])([H])[H])([H])[H])C(=O)c1c(c(c(Cl)c(c21)[H])[H])[H])([H])[H])([H])[H])[H])([H])([H])[H]

>  <h>  (56) 
<NA>

>  <Training>  (56) 
True

>  <Success>  (56) 
True

>  <enamine_searched>  (56) 
False

>  <enamine_id>  (56) 
nan

$$$$

     RDKit          3D

 57 60  0  0  0  0  0  0  0  0999 V2000
    9.6588    6.5401   25.1762 C   0  0  0  0  0  0  0  0  0  0  0  0
    8.2210    5.9656   25.2350 C   0  0  0  0  0  0  0  0  0  0  0  0
    7.2514    7.0512   24.7071 C   0  0  0  0  0  0  0  0  0  0  0  0
    7.5087    7.3145   23.6768 H   0  0  0  0  0  0  0  0  0  0  0  0
    6.2109    6.7172   24.7337 H   0  0  0  0  0  0  0  0  0  0  0  0
    7.3344    7.9565   25.3158 H   0  0  0  0  0  0  0  0  0  0  0  0
    7.9234    5.7642   26.6733 C   0  0  0  0  0  0  0  0  0  0  0  0
    7.7289    5.6320   27.8062 N   0  0  0  0  0  0  0  0  0  0  0  0
    8.0550    4.6265   24.4884 C   0  0  0  0  0  0  0  0  0  0  0  0
    8.6958    4.3737   23.2738 C   0  0  0  0  0  0  0  0  0  0  0  0
    8.5671    3.1667   22.5959 C   0  0  0  0  0  0  0  0  0  0  0  0
    7.7884    2.1326   23.1347 C   0  0  0  0  0  0  0  0  0  0  0  0
    7.6504    0.8391   22.5320 N   0  0  0  0  0  0  0  0  0  0  0  0
    7.8630   -0.3741   23.3319 C   0  0  0  0  0  0  0  0  0  0  0  0
    9.2988   -0.8320   23.2332 C   0  0  0  0  0  0  0  0  0  0  0  0
    9.6693   -1.8772   22.3929 C   0  0  0  0  0  0  0  0  0  0  0  0
   11.0095   -2.2090   22.2140 C   0  0  0  0  0  0  0  0  0  0  0  0
   11.9910   -1.4975   22.8955 C   0  0  0  0  0  0  0  0  0  0  0  0
   11.6112   -0.4764   23.7561 C   0  0  0  0  0  0  0  0  0  0  0  0
   12.8302    0.3465   24.6869 Cl  0  0  0  0  0  0  0  0  0  0  0  0
   10.2809   -0.1134   23.9015 C   0  0  0  0  0  0  0  0  0  0  0  0
   10.0215    0.7304   24.5288 H   0  0  0  0  0  0  0  0  0  0  0  0
   13.0412   -1.7260   22.7616 H   0  0  0  0  0  0  0  0  0  0  0  0
   11.2874   -3.0261   21.5530 H   0  0  0  0  0  0  0  0  0  0  0  0
    8.8987   -2.4330   21.8693 H   0  0  0  0  0  0  0  0  0  0  0  0
    7.2148   -1.1705   22.9659 H   0  0  0  0  0  0  0  0  0  0  0  0
    7.5902   -0.1740   24.3688 H   0  0  0  0  0  0  0  0  0  0  0  0
    7.6316    0.7155   21.1444 C   0  0  0  0  0  0  0  0  0  0  0  0
    8.1275    1.5270   20.3898 O   0  0  0  0  0  0  0  0  0  0  0  0
    6.8573   -0.4817   20.5711 C   0  0  0  0  0  0  0  0  0  0  0  0
    6.0027   -0.0003   19.4411 C   0  0  0  0  0  0  0  0  0  0  0  0
    6.2911   -0.2515   18.1268 C   0  0  0  0  0  0  0  0  0  0  0  0
    5.6104    0.2677   17.0698 N   0  0  0  0  0  0  0  0  0  0  0  0
    4.6138    1.0744   17.3482 C   0  0  0  0  0  0  0  0  0  0  0  0
    4.2069    1.4214   18.6661 C   0  0  0  0  0  0  0  0  0  0  0  0
    3.1307    2.3059   18.9239 C   0  0  0  0  0  0  0  0  0  0  0  0
    2.7899    2.6394   20.2062 C   0  0  0  0  0  0  0  0  0  0  0  0
    3.5121    2.1037   21.2939 C   0  0  0  0  0  0  0  0  0  0  0  0
    4.5542    1.2419   21.0704 C   0  0  0  0  0  0  0  0  0  0  0  0
    4.9253    0.8779   19.7474 C   0  0  0  0  0  0  0  0  0  0  0  0
    5.1045    0.8492   21.9169 H   0  0  0  0  0  0  0  0  0  0  0  0
    3.2446    2.3765   22.3107 H   0  0  0  0  0  0  0  0  0  0  0  0
    1.9685    3.3228   20.3978 H   0  0  0  0  0  0  0  0  0  0  0  0
    2.5934    2.7210   18.0768 H   0  0  0  0  0  0  0  0  0  0  0  0
    4.0755    1.5070   16.5043 H   0  0  0  0  0  0  0  0  0  0  0  0
    7.1216   -0.9039   17.8560 H   0  0  0  0  0  0  0  0  0  0  0  0
    6.2290   -0.9239   21.3476 H   0  0  0  0  0  0  0  0  0  0  0  0
    7.5718   -1.2379   20.2269 H   0  0  0  0  0  0  0  0  0  0  0  0
    7.0962    2.3992   24.3215 C   0  0  0  0  0  0  0  0  0  0  0  0
    7.2215    3.6153   24.9777 C   0  0  0  0  0  0  0  0  0  0  0  0
    6.6570    3.7568   25.8975 H   0  0  0  0  0  0  0  0  0  0  0  0
    6.4349    1.6385   24.7269 H   0  0  0  0  0  0  0  0  0  0  0  0
    9.0629    3.0496   21.6432 H   0  0  0  0  0  0  0  0  0  0  0  0
    9.3099    5.1384   22.8007 H   0  0  0  0  0  0  0  0  0  0  0  0
    9.6953    7.4633   25.7638 H   0  0  0  0  0  0  0  0  0  0  0  0
    9.9392    6.7899   24.1494 H   0  0  0  0  0  0  0  0  0  0  0  0
   10.4083    5.8543   25.5795 H   0  0  0  0  0  0  0  0  0  0  0  0
  1  2  1  0
  2  3  1  0
  3  4  1  0
  3  5  1  0
  3  6  1  0
  2  7  1  0
  7  8  3  0
  2  9  1  0
  9 10  2  0
 10 11  1  0
 11 12  2  0
 12 13  1  0
 13 14  1  0
 14 15  1  0
 15 16  2  0
 16 17  1  0
 17 18  2  0
 18 19  1  0
 19 20  1  0
 19 21  2  0
 21 22  1  0
 18 23  1  0
 17 24  1  0
 16 25  1  0
 14 26  1  0
 14 27  1  0
 13 28  1  0
 28 29  2  0
 28 30  1  0
 30 31  1  0
 31 32  2  0
 32 33  1  0
 33 34  2  0
 34 35  1  0
 35 36  2  0
 36 37  1  0
 37 38  2  0
 38 39  1  0
 39 40  2  0
 39 41  1  0
 38 42  1  0
 37 43  1  0
 36 44  1  0
 34 45  1  0
 32 46  1  0
 30 47  1  0
 30 48  1  0
 12 49  1  0
 49 50  2  0
 50 51  1  0
 49 52  1  0
 11 53  1  0
 10 54  1  0
  1 55  1  0
  1 56  1  0
  1 57  1  0
 50  9  1  0
 21 15  1  0
 40 31  1  0
 40 35  1  0
M  END
>  <cnnaffinities>  (57) 
[5.96256]

>  <score>  (57) 
5.96256

>  <index>  (57) 
77

>  <Smiles>  (57) 
C(C(C([H])([H])[H])(C#N)c1c(c(c(N(C(c2c(c(c(c(Cl)c2[H])[H])[H])[H])([H])[H])C(=O)C(c2c(nc(c3c(c(c(c(c23)[H])[H])[H])[H])[H])[H])([H])[H])c(c1[H])[H])[H])[H])([H])([H])[H]

>  <h>  (57) 
<NA>

>  <Training>  (57) 
True

>  <Success>  (57) 
True

>  <enamine_searched>  (57) 
False

>  <enamine_id>  (57) 
nan

$$$$

     RDKit          3D

 40 42  0  0  0  0  0  0  0  0999 V2000
    8.6934   -5.3662   25.0847 C   0  0  0  0  0  0  0  0  0  0  0  0
    8.3182   -4.5121   23.8745 C   0  0  0  0  0  0  0  0  0  0  0  0
    6.9044   -4.8029   23.3609 C   0  0  0  0  0  0  0  0  0  0  0  0
    6.6913   -4.0917   22.0338 C   0  0  0  0  0  0  0  0  0  0  0  0
    7.0717   -2.6839   22.1050 N   0  0  0  0  0  0  0  0  0  0  0  0
    6.2576   -1.8019   21.4426 C   0  0  0  0  0  0  0  0  0  0  0  0
    5.0753   -2.0436   21.2517 O   0  0  0  0  0  0  0  0  0  0  0  0
    6.9084   -0.5239   20.9008 C   0  0  0  0  0  0  0  0  0  0  0  0
    6.1186    0.0779   19.7692 C   0  0  0  0  0  0  0  0  0  0  0  0
    6.4359   -0.2225   18.4682 C   0  0  0  0  0  0  0  0  0  0  0  0
    5.7750    0.2306   17.3690 N   0  0  0  0  0  0  0  0  0  0  0  0
    4.7479    1.0188   17.5820 C   0  0  0  0  0  0  0  0  0  0  0  0
    4.2948    1.4073   18.8713 C   0  0  0  0  0  0  0  0  0  0  0  0
    3.1787    2.2651   19.0417 C   0  0  0  0  0  0  0  0  0  0  0  0
    2.7618    2.6179   20.2964 C   0  0  0  0  0  0  0  0  0  0  0  0
    3.4445    2.1290   21.4324 C   0  0  0  0  0  0  0  0  0  0  0  0
    4.5263    1.2938   21.2920 C   0  0  0  0  0  0  0  0  0  0  0  0
    4.9877    0.9178   20.0016 C   0  0  0  0  0  0  0  0  0  0  0  0
    5.0283    0.9064   22.1724 H   0  0  0  0  0  0  0  0  0  0  0  0
    3.1057    2.4175   22.4238 H   0  0  0  0  0  0  0  0  0  0  0  0
    1.9057    3.2743   20.4238 H   0  0  0  0  0  0  0  0  0  0  0  0
    2.6762    2.6363   18.1515 H   0  0  0  0  0  0  0  0  0  0  0  0
    4.2139    1.3901   16.7063 H   0  0  0  0  0  0  0  0  0  0  0  0
    7.2846   -0.8716   18.2461 H   0  0  0  0  0  0  0  0  0  0  0  0
    7.0532    0.1842   21.7281 H   0  0  0  0  0  0  0  0  0  0  0  0
    7.9109   -0.7893   20.5424 H   0  0  0  0  0  0  0  0  0  0  0  0
    8.4049   -2.3778   22.6201 C   0  0  0  0  0  0  0  0  0  0  0  0
    8.6290   -3.0152   23.9964 C   0  0  0  0  0  0  0  0  0  0  0  0
    9.6932   -2.9144   24.2600 H   0  0  0  0  0  0  0  0  0  0  0  0
    8.0502   -2.5107   24.7759 H   0  0  0  0  0  0  0  0  0  0  0  0
    9.1735   -2.8078   21.9572 H   0  0  0  0  0  0  0  0  0  0  0  0
    8.5383   -1.2908   22.6542 H   0  0  0  0  0  0  0  0  0  0  0  0
    5.6482   -4.1003   21.7069 H   0  0  0  0  0  0  0  0  0  0  0  0
    7.3032   -4.6071   21.2745 H   0  0  0  0  0  0  0  0  0  0  0  0
    6.7882   -5.8867   23.1977 H   0  0  0  0  0  0  0  0  0  0  0  0
    6.1520   -4.5032   24.0976 H   0  0  0  0  0  0  0  0  0  0  0  0
    8.9669   -4.7738   23.0489 H   0  0  0  0  0  0  0  0  0  0  0  0
    8.5057   -6.4314   24.8937 H   0  0  0  0  0  0  0  0  0  0  0  0
    8.0968   -5.0844   25.9547 H   0  0  0  0  0  0  0  0  0  0  0  0
    9.7496   -5.2524   25.3583 H   0  0  0  0  0  0  0  0  0  0  0  0
  1  2  1  0
  2  3  1  0
  3  4  1  0
  4  5  1  0
  5  6  1  0
  6  7  2  0
  6  8  1  0
  8  9  1  0
  9 10  2  0
 10 11  1  0
 11 12  2  0
 12 13  1  0
 13 14  2  0
 14 15  1  0
 15 16  2  0
 16 17  1  0
 17 18  2  0
 17 19  1  0
 16 20  1  0
 15 21  1  0
 14 22  1  0
 12 23  1  0
 10 24  1  0
  8 25  1  0
  8 26  1  0
  5 27  1  0
 27 28  1  0
 28 29  1  0
 28 30  1  0
 27 31  1  0
 27 32  1  0
  4 33  1  0
  4 34  1  0
  3 35  1  0
  3 36  1  0
  2 37  1  0
  1 38  1  0
  1 39  1  0
  1 40  1  0
 28  2  1  0
 18  9  1  0
 18 13  1  0
M  END
>  <cnnaffinities>  (58) 
[4.66997, 4.95948, 5.03286, 5.03283, 4.66963, 4.60276, 4.60283, 4.58977]

>  <score>  (58) 
4.66997

>  <index>  (58) 
79

>  <Smiles>  (58) 
C(C1(C(C(N(C(=O)C(c2c(nc(c3c(c(c(c(c23)[H])[H])[H])[H])[H])[H])([H])[H])C(C1([H])[H])([H])[H])([H])[H])([H])[H])[H])([H])([H])[H]

>  <h>  (58) 
<NA>

>  <Training>  (58) 
True

>  <Success>  (58) 
True

>  <enamine_searched>  (58) 
False

>  <enamine_id>  (58) 
nan

$$$$

     RDKit          3D

 59 64  0  0  0  0  0  0  0  0999 V2000
    9.7478   -1.8545   21.9310 C   0  0  0  0  0  0  0  0  0  0  0  0
    8.5604   -0.9942   22.3938 C   0  0  1  0  0  0  0  0  0  0  0  0
    8.1278   -0.0252   21.2665 C   0  0  0  0  0  0  0  0  0  0  0  0
    6.8435   -0.5226   20.8278 N   0  0  0  0  0  0  0  0  0  0  0  0
    6.0996    0.0511   19.7663 C   0  0  0  0  0  0  0  0  0  0  0  0
    6.4488   -0.2219   18.4688 C   0  0  0  0  0  0  0  0  0  0  0  0
    5.7896    0.2444   17.3801 N   0  0  0  0  0  0  0  0  0  0  0  0
    4.7551    1.0234   17.5941 C   0  0  0  0  0  0  0  0  0  0  0  0
    4.2993    1.4061   18.8887 C   0  0  0  0  0  0  0  0  0  0  0  0
    3.1841    2.2696   19.0579 C   0  0  0  0  0  0  0  0  0  0  0  0
    2.7808    2.6403   20.3112 C   0  0  0  0  0  0  0  0  0  0  0  0
    3.4764    2.1724   21.4492 C   0  0  0  0  0  0  0  0  0  0  0  0
    4.5558    1.3334   21.3170 C   0  0  0  0  0  0  0  0  0  0  0  0
    4.9886    0.9184   20.0208 C   0  0  0  0  0  0  0  0  0  0  0  0
    5.0836    0.9861   22.2050 H   0  0  0  0  0  0  0  0  0  0  0  0
    3.1464    2.4784   22.4378 H   0  0  0  0  0  0  0  0  0  0  0  0
    1.9272    3.3009   20.4407 H   0  0  0  0  0  0  0  0  0  0  0  0
    2.6724    2.6365   18.1722 H   0  0  0  0  0  0  0  0  0  0  0  0
    4.2216    1.3961   16.7186 H   0  0  0  0  0  0  0  0  0  0  0  0
    7.2959   -0.8766   18.2683 H   0  0  0  0  0  0  0  0  0  0  0  0
    6.3008   -1.4971   21.6300 C   0  0  0  0  0  0  0  0  0  0  0  0
    5.2311   -2.0362   21.4276 O   0  0  0  0  0  0  0  0  0  0  0  0
    7.2623   -1.7692   22.8026 C   0  0  1  0  0  0  0  0  0  0  0  0
    7.4666   -3.2907   22.9508 C   0  0  0  0  0  0  0  0  0  0  0  0
    6.2534   -3.9301   23.4163 N   0  0  0  0  0  0  0  0  0  0  0  0
    5.8090   -5.1702   22.8391 C   0  0  0  0  0  0  0  0  0  0  0  0
    6.3621   -6.3540   23.5638 C   0  0  0  0  0  0  0  0  0  0  0  0
    7.6605   -6.6039   23.9338 C   0  0  0  0  0  0  0  0  0  0  0  0
    7.6711   -7.9747   24.2410 C   0  0  0  0  0  0  0  0  0  0  0  0
    6.4644   -8.5126   24.1516 N   0  0  0  0  0  0  0  0  0  0  0  0
    5.6647   -7.5110   23.7430 N   0  0  0  0  0  0  0  0  0  0  0  0
    4.2247   -7.6082   23.9393 C   0  0  0  0  0  0  0  0  0  0  0  0
    3.6719   -7.6329   22.9935 H   0  0  0  0  0  0  0  0  0  0  0  0
    4.0231   -8.5288   24.4882 H   0  0  0  0  0  0  0  0  0  0  0  0
    3.9005   -6.7476   24.5324 H   0  0  0  0  0  0  0  0  0  0  0  0
    8.5056   -8.5913   24.5520 H   0  0  0  0  0  0  0  0  0  0  0  0
    8.4791   -5.8931   24.0190 H   0  0  0  0  0  0  0  0  0  0  0  0
    4.7144   -5.1732   22.8201 H   0  0  0  0  0  0  0  0  0  0  0  0
    6.1507   -5.1928   21.7971 H   0  0  0  0  0  0  0  0  0  0  0  0
    5.6104   -3.5124   24.5421 C   0  0  0  0  0  0  0  0  0  0  0  0
    4.8256   -4.2284   25.1528 O   0  0  0  0  0  0  0  0  0  0  0  0
    5.8763   -2.0981   24.9282 C   0  0  0  0  0  0  0  0  0  0  0  0
    5.2759   -1.6267   26.0943 C   0  0  0  0  0  0  0  0  0  0  0  0
    5.3751   -0.2946   26.4397 C   0  0  0  0  0  0  0  0  0  0  0  0
    6.0750    0.5493   25.5850 C   0  0  0  0  0  0  0  0  0  0  0  0
    6.1510    1.8550   25.9000 F   0  0  0  0  0  0  0  0  0  0  0  0
    6.6907    0.1035   24.4294 C   0  0  0  0  0  0  0  0  0  0  0  0
    6.6287   -1.2555   24.0972 C   0  0  0  0  0  0  0  0  0  0  0  0
    7.2078    0.8295   23.8082 H   0  0  0  0  0  0  0  0  0  0  0  0
    4.9072    0.1094   27.3303 H   0  0  0  0  0  0  0  0  0  0  0  0
    4.7170   -2.3330   26.6998 H   0  0  0  0  0  0  0  0  0  0  0  0
    7.7475   -3.7258   21.9888 H   0  0  0  0  0  0  0  0  0  0  0  0
    8.2866   -3.4605   23.6640 H   0  0  0  0  0  0  0  0  0  0  0  0
    8.0495    1.0121   21.6219 H   0  0  0  0  0  0  0  0  0  0  0  0
    8.8384   -0.0254   20.4347 H   0  0  0  0  0  0  0  0  0  0  0  0
    8.9181   -0.4324   23.2648 H   0  0  0  0  0  0  0  0  0  0  0  0
   10.5915   -1.2102   21.6555 H   0  0  0  0  0  0  0  0  0  0  0  0
   10.0997   -2.5237   22.7221 H   0  0  0  0  0  0  0  0  0  0  0  0
    9.4943   -2.4601   21.0536 H   0  0  0  0  0  0  0  0  0  0  0  0
  1  2  1  0
  2  3  1  0
  3  4  1  0
  4  5  1  0
  5  6  2  0
  6  7  1  0
  7  8  2  0
  8  9  1  0
  9 10  2  0
 10 11  1  0
 11 12  2  0
 12 13  1  0
 13 14  2  0
 13 15  1  0
 12 16  1  0
 11 17  1  0
 10 18  1  0
  8 19  1  0
  6 20  1  0
  4 21  1  0
 21 22  2  0
 21 23  1  0
 23 24  1  1
 24 25  1  0
 25 26  1  0
 26 27  1  0
 27 28  2  0
 28 29  1  0
 29 30  2  0
 30 31  1  0
 31 32  1  0
 32 33  1  0
 32 34  1  0
 32 35  1  0
 29 36  1  0
 28 37  1  0
 26 38  1  0
 26 39  1  0
 25 40  1  0
 40 41  2  0
 40 42  1  0
 42 43  2  0
 43 44  1  0
 44 45  2  0
 45 46  1  0
 45 47  1  0
 47 48  2  0
 47 49  1  0
 44 50  1  0
 43 51  1  0
 24 52  1  0
 24 53  1  0
  3 54  1  0
  3 55  1  0
  2 56  1  1
  1 57  1  0
  1 58  1  0
  1 59  1  0
 23  2  1  0
 31 27  1  0
 48 42  1  0
 14  5  1  0
 48 23  1  0
 14  9  1  0
M  END
>  <cnnaffinities>  (59) 
[6.67434]

>  <score>  (59) 
6.67434

>  <index>  (59) 
80

>  <Smiles>  (59) 
C([C@]1(C(N(c2c(nc(c3c(c(c(c(c23)[H])[H])[H])[H])[H])[H])C(=O)[C@]21C(N(C(c1c(c(nn1C([H])([H])[H])[H])[H])([H])[H])C(=O)c1c(c(c(F)c(c21)[H])[H])[H])([H])[H])([H])[H])[H])([H])([H])[H]

>  <h>  (59) 
<NA>

>  <Training>  (59) 
True

>  <Success>  (59) 
True

>  <enamine_searched>  (59) 
False

>  <enamine_id>  (59) 
nan

$$$$

     RDKit          3D

 72 77  0  0  0  0  0  0  0  0999 V2000
    3.1621   -6.4505   24.2983 C   0  0  0  0  0  0  0  0  0  0  0  0
    4.2468   -7.4132   23.8058 C   0  0  2  0  0  0  0  0  0  0  0  0
    4.3816   -8.5144   24.8079 C   0  0  0  0  0  0  0  0  0  0  0  0
    6.9105   -9.0637   24.7559 O   0  0  0  0  0  0  0  0  0  0  0  0
    7.6496   -7.9100   24.3704 C   0  0  0  0  0  0  0  0  0  0  0  0
    6.9584   -7.3621   23.1014 C   0  0  1  0  0  0  0  0  0  0  0  0
    6.7085   -8.3746   22.2203 C   0  0  0  0  0  0  0  0  0  0  0  0
    6.0084   -8.8662   24.3849 H   0  0  0  0  0  0  0  0  0  0  0  0
    7.1989   -9.3303   22.3010 H   0  0  0  0  0  0  0  0  0  0  0  0
    5.9949   -8.1602   21.4319 H   0  0  0  0  0  0  0  0  0  0  0  0
    5.5221   -6.6274   23.4168 N   0  0  0  0  0  4  0  0  0  0  0  0
    5.8050   -5.3735   24.1341 C   0  0  0  0  0  0  0  0  0  0  0  0
    5.3363   -4.1403   23.3680 C   0  0  0  0  0  0  0  0  0  0  0  0
    5.9953   -2.9730   23.8905 N   0  0  0  0  0  0  0  0  0  0  0  0
    7.2871   -2.5919   23.3649 C   0  0  0  0  0  0  0  0  0  0  0  0
    7.2675   -1.1158   22.9246 C   0  0  2  0  0  0  0  0  0  0  0  0
    6.3817   -1.0341   21.6645 C   0  0  0  0  0  0  0  0  0  0  0  0
    5.3107   -1.5786   21.4799 O   0  0  0  0  0  0  0  0  0  0  0  0
    7.0167   -0.2532   20.7235 N   0  0  0  0  0  0  0  0  0  0  0  0
    6.2708    0.2684   19.6407 C   0  0  0  0  0  0  0  0  0  0  0  0
    6.6332   -0.0149   18.3504 C   0  0  0  0  0  0  0  0  0  0  0  0
    5.9394    0.3954   17.2600 N   0  0  0  0  0  0  0  0  0  0  0  0
    4.8659    1.1226   17.4693 C   0  0  0  0  0  0  0  0  0  0  0  0
    4.3971    1.5083   18.7583 C   0  0  0  0  0  0  0  0  0  0  0  0
    3.2411    2.3095   18.9373 C   0  0  0  0  0  0  0  0  0  0  0  0
    2.8222    2.6587   20.1937 C   0  0  0  0  0  0  0  0  0  0  0  0
    3.5485    2.2310   21.3288 C   0  0  0  0  0  0  0  0  0  0  0  0
    4.6732    1.4677   21.1867 C   0  0  0  0  0  0  0  0  0  0  0  0
    5.1172    1.0750   19.8882 C   0  0  0  0  0  0  0  0  0  0  0  0
    5.2288    1.1467   22.0684 H   0  0  0  0  0  0  0  0  0  0  0  0
    3.2034    2.5054   22.3218 H   0  0  0  0  0  0  0  0  0  0  0  0
    1.9384    3.2735   20.3278 H   0  0  0  0  0  0  0  0  0  0  0  0
    2.7075    2.6513   18.0562 H   0  0  0  0  0  0  0  0  0  0  0  0
    4.3059    1.4447   16.5908 H   0  0  0  0  0  0  0  0  0  0  0  0
    7.5123   -0.6303   18.1587 H   0  0  0  0  0  0  0  0  0  0  0  0
    8.2465    0.3434   21.2154 C   0  0  0  0  0  0  0  0  0  0  0  0
    8.6370   -0.5893   22.3809 C   0  0  2  0  0  0  0  0  0  0  0  0
    9.5693   -1.6940   21.8632 C   0  0  0  0  0  0  0  0  0  0  0  0
   10.5126   -1.2656   21.5071 H   0  0  0  0  0  0  0  0  0  0  0  0
    9.1160   -2.2396   21.0272 H   0  0  0  0  0  0  0  0  0  0  0  0
    9.8147   -2.4149   22.6487 H   0  0  0  0  0  0  0  0  0  0  0  0
    9.1724   -0.0483   23.1682 H   0  0  0  0  0  0  0  0  0  0  0  0
    8.0877    1.3832   21.5350 H   0  0  0  0  0  0  0  0  0  0  0  0
    9.0080    0.3621   20.4350 H   0  0  0  0  0  0  0  0  0  0  0  0
    6.7383   -0.3113   24.1222 C   0  0  0  0  0  0  0  0  0  0  0  0
    7.0648    1.0370   24.3214 C   0  0  0  0  0  0  0  0  0  0  0  0
    6.6730    1.6886   25.4827 C   0  0  0  0  0  0  0  0  0  0  0  0
    7.1059    3.3620   25.7142 Cl  0  0  0  0  0  0  0  0  0  0  0  0
    5.9627    1.0406   26.4914 C   0  0  0  0  0  0  0  0  0  0  0  0
    5.5886   -0.2686   26.2805 C   0  0  0  0  0  0  0  0  0  0  0  0
    5.9423   -0.9224   25.1068 C   0  0  0  0  0  0  0  0  0  0  0  0
    5.4195   -2.3046   24.9204 C   0  0  0  0  0  0  0  0  0  0  0  0
    4.5194   -2.7784   25.6069 O   0  0  0  0  0  0  0  0  0  0  0  0
    5.0178   -0.8272   27.0145 H   0  0  0  0  0  0  0  0  0  0  0  0
    5.7021    1.5626   27.4049 H   0  0  0  0  0  0  0  0  0  0  0  0
    7.6456    1.5975   23.5966 H   0  0  0  0  0  0  0  0  0  0  0  0
    7.5048   -3.2451   22.5163 H   0  0  0  0  0  0  0  0  0  0  0  0
    8.0694   -2.7312   24.1248 H   0  0  0  0  0  0  0  0  0  0  0  0
    4.2523   -3.9965   23.4302 H   0  0  0  0  0  0  0  0  0  0  0  0
    5.5990   -4.2315   22.3030 H   0  0  0  0  0  0  0  0  0  0  0  0
    5.3902   -5.3909   25.1441 H   0  0  0  0  0  0  0  0  0  0  0  0
    6.8904   -5.2722   24.2477 H   0  0  0  0  0  0  0  0  0  0  0  0
    5.2854   -6.3501   22.4484 H   0  0  0  0  0  0  0  0  0  0  0  0
    7.5429   -6.4819   22.7348 H   0  0  0  0  0  0  0  0  0  0  0  0
    7.6276   -7.1597   25.1648 H   0  0  0  0  0  0  0  0  0  0  0  0
    8.6925   -8.1828   24.1755 H   0  0  0  0  0  0  0  0  0  0  0  0
    3.7489   -9.3895   24.6965 H   0  0  0  0  0  0  0  0  0  0  0  0
    4.5210   -8.1789   25.8325 H   0  0  0  0  0  0  0  0  0  0  0  0
    3.9101   -7.8598   22.8632 H   0  0  0  0  0  0  0  0  0  0  0  0
    3.5294   -5.8867   25.1633 H   0  0  0  0  0  0  0  0  0  0  0  0
    2.2824   -7.0154   24.6229 H   0  0  0  0  0  0  0  0  0  0  0  0
    2.8455   -5.7428   23.5244 H   0  0  0  0  0  0  0  0  0  0  0  0
  1  2  1  0
  2  3  1  0
  3  4  1  0
  4  5  1  0
  5  6  1  0
  6  7  1  0
  7  8  1  0
  7  9  1  0
  7 10  1  0
  6 11  1  0
 11 12  1  0
 12 13  1  0
 13 14  1  0
 14 15  1  0
 16 15  1  1
 16 17  1  0
 17 18  2  0
 17 19  1  0
 19 20  1  0
 20 21  2  0
 21 22  1  0
 22 23  2  0
 23 24  1  0
 24 25  2  0
 25 26  1  0
 26 27  2  0
 27 28  1  0
 28 29  2  0
 28 30  1  0
 27 31  1  0
 26 32  1  0
 25 33  1  0
 23 34  1  0
 21 35  1  0
 19 36  1  0
 36 37  1  0
 37 38  1  0
 38 39  1  0
 38 40  1  0
 38 41  1  0
 37 42  1  1
 36 43  1  0
 36 44  1  0
 16 45  1  0
 45 46  2  0
 46 47  1  0
 47 48  1  0
 47 49  2  0
 49 50  1  0
 50 51  2  0
 51 52  1  0
 52 53  2  0
 50 54  1  0
 49 55  1  0
 46 56  1  0
 15 57  1  0
 15 58  1  0
 13 59  1  0
 13 60  1  0
 12 61  1  0
 12 62  1  0
 11 63  1  0
  6 64  1  6
  5 65  1  0
  5 66  1  0
  3 67  1  0
  3 68  1  0
  2 69  1  6
  1 70  1  0
  1 71  1  0
  1 72  1  0
 11  2  1  0
 52 14  1  0
 37 16  1  0
 51 45  1  0
 29 20  1  0
 29 24  1  0
M  CHG  1  11   1
M  END
>  <cnnaffinities>  (60) 
[6.64882]

>  <score>  (60) 
6.64882

>  <index>  (60) 
83

>  <Smiles>  (60) 
C([C@@]1(C(OC([C@@](C([H])([H])[H])([N+]1(C(C(N1C([C@@]2(C(=O)N(c3c(nc(c4c(c(c(c(c34)[H])[H])[H])[H])[H])[H])C([C@@]2(C([H])([H])[H])[H])([H])[H])c2c(c(Cl)c(c(c2C1=O)[H])[H])[H])([H])[H])([H])[H])([H])[H])[H])[H])([H])[H])([H])[H])[H])([H])([H])[H]

>  <h>  (60) 
<NA>

>  <Training>  (60) 
True

>  <Success>  (60) 
True

>  <enamine_searched>  (60) 
False

>  <enamine_id>  (60) 
nan

$$$$

     RDKit          3D

 60 65  0  0  0  0  0  0  0  0999 V2000
    8.6694   -6.5464   25.1270 C   0  0  0  0  0  0  0  0  0  0  0  0
    7.6625   -5.6087   24.6767 N   0  0  0  0  0  0  0  0  0  0  0  0
    6.6424   -5.9641   23.8555 C   0  0  0  0  0  0  0  0  0  0  0  0
    6.3944   -7.1216   23.5552 O   0  0  0  0  0  0  0  0  0  0  0  0
    5.8204   -4.8532   23.2357 C   0  0  0  0  0  0  0  0  0  0  0  0
    6.1544   -3.5160   23.6078 N   0  0  0  0  0  0  0  0  0  0  0  0
    7.3916   -2.9909   23.0806 C   0  0  0  0  0  0  0  0  0  0  0  0
    7.2683   -1.4934   22.8179 C   0  0  2  0  0  0  0  0  0  0  0  0
    6.3366   -1.3067   21.6133 C   0  0  0  0  0  0  0  0  0  0  0  0
    5.2690   -1.8492   21.3869 O   0  0  0  0  0  0  0  0  0  0  0  0
    6.9118   -0.4100   20.7609 N   0  0  0  0  0  0  0  0  0  0  0  0
    6.1488    0.1272   19.7112 C   0  0  0  0  0  0  0  0  0  0  0  0
    6.4783   -0.1786   18.4181 C   0  0  0  0  0  0  0  0  0  0  0  0
    5.7930    0.2591   17.3368 N   0  0  0  0  0  0  0  0  0  0  0  0
    4.7553    1.0295   17.5697 C   0  0  0  0  0  0  0  0  0  0  0  0
    4.3146    1.4177   18.8679 C   0  0  0  0  0  0  0  0  0  0  0  0
    3.1953    2.2686   19.0442 C   0  0  0  0  0  0  0  0  0  0  0  0
    2.8017    2.6501   20.2960 C   0  0  0  0  0  0  0  0  0  0  0  0
    3.5044    2.1916   21.4349 C   0  0  0  0  0  0  0  0  0  0  0  0
    4.5872    1.3588   21.2990 C   0  0  0  0  0  0  0  0  0  0  0  0
    5.0197    0.9530   19.9952 C   0  0  0  0  0  0  0  0  0  0  0  0
    5.1100    1.0092   22.1919 H   0  0  0  0  0  0  0  0  0  0  0  0
    3.1782    2.5063   22.4228 H   0  0  0  0  0  0  0  0  0  0  0  0
    1.9525    3.3153   20.4248 H   0  0  0  0  0  0  0  0  0  0  0  0
    2.6801    2.6226   18.1565 H   0  0  0  0  0  0  0  0  0  0  0  0
    4.2031    1.3969   16.7051 H   0  0  0  0  0  0  0  0  0  0  0  0
    7.3249   -0.8381   18.2273 H   0  0  0  0  0  0  0  0  0  0  0  0
    8.2164    0.0591   21.1531 C   0  0  0  0  0  0  0  0  0  0  0  0
    8.6133   -0.8634   22.3230 C   0  0  2  0  0  0  0  0  0  0  0  0
    9.6965   -1.8611   21.8720 C   0  0  0  0  0  0  0  0  0  0  0  0
   10.5856   -1.3227   21.5250 H   0  0  0  0  0  0  0  0  0  0  0  0
   10.0161   -2.5085   22.6941 H   0  0  0  0  0  0  0  0  0  0  0  0
    9.3588   -2.4999   21.0481 H   0  0  0  0  0  0  0  0  0  0  0  0
    9.0597   -0.2871   23.1381 H   0  0  0  0  0  0  0  0  0  0  0  0
    8.9172   -0.0322   20.3259 H   0  0  0  0  0  0  0  0  0  0  0  0
    8.1862    1.1188   21.4348 H   0  0  0  0  0  0  0  0  0  0  0  0
    6.7043   -0.8326   24.0779 C   0  0  0  0  0  0  0  0  0  0  0  0
    6.9073    0.5319   24.3277 C   0  0  0  0  0  0  0  0  0  0  0  0
    6.3955    1.1165   25.4759 C   0  0  0  0  0  0  0  0  0  0  0  0
    6.6512    2.8185   25.7536 Cl  0  0  0  0  0  0  0  0  0  0  0  0
    5.6874    0.3742   26.4203 C   0  0  0  0  0  0  0  0  0  0  0  0
    5.4703   -0.9677   26.1767 C   0  0  0  0  0  0  0  0  0  0  0  0
    5.9449   -1.5620   25.0061 C   0  0  0  0  0  0  0  0  0  0  0  0
    5.5934   -2.9901   24.7521 C   0  0  0  0  0  0  0  0  0  0  0  0
    4.8731   -3.6484   25.4839 O   0  0  0  0  0  0  0  0  0  0  0  0
    4.9228   -1.5860   26.8821 H   0  0  0  0  0  0  0  0  0  0  0  0
    5.3074    0.8509   27.3171 H   0  0  0  0  0  0  0  0  0  0  0  0
    7.4855    1.1538   23.6501 H   0  0  0  0  0  0  0  0  0  0  0  0
    7.6083   -3.5225   22.1592 H   0  0  0  0  0  0  0  0  0  0  0  0
    8.2347   -3.1325   23.7722 H   0  0  0  0  0  0  0  0  0  0  0  0
    5.4394   -5.1181   21.7839 C   0  0  0  0  0  0  0  0  0  0  0  0
    4.3975   -5.1867   22.8482 C   0  0  0  0  0  0  0  0  0  0  0  0
    4.0313   -6.1570   23.1794 H   0  0  0  0  0  0  0  0  0  0  0  0
    3.6763   -4.3711   22.8507 H   0  0  0  0  0  0  0  0  0  0  0  0
    5.4007   -4.2491   21.1275 H   0  0  0  0  0  0  0  0  0  0  0  0
    5.8068   -6.0517   21.3638 H   0  0  0  0  0  0  0  0  0  0  0  0
    7.7191   -4.6591   25.0004 H   0  0  0  0  0  0  0  0  0  0  0  0
    8.3974   -7.5218   24.7132 H   0  0  0  0  0  0  0  0  0  0  0  0
    9.6520   -6.2408   24.7568 H   0  0  0  0  0  0  0  0  0  0  0  0
    8.6772   -6.5704   26.2258 H   0  0  0  0  0  0  0  0  0  0  0  0
  1  2  1  0
  2  3  1  0
  3  4  2  0
  3  5  1  0
  5  6  1  0
  6  7  1  0
  8  7  1  1
  8  9  1  0
  9 10  2  0
  9 11  1  0
 11 12  1  0
 12 13  2  0
 13 14  1  0
 14 15  2  0
 15 16  1  0
 16 17  2  0
 17 18  1  0
 18 19  2  0
 19 20  1  0
 20 21  2  0
 20 22  1  0
 19 23  1  0
 18 24  1  0
 17 25  1  0
 15 26  1  0
 13 27  1  0
 11 28  1  0
 28 29  1  0
 29 30  1  0
 30 31  1  0
 30 32  1  0
 30 33  1  0
 29 34  1  1
 28 35  1  0
 28 36  1  0
  8 37  1  0
 37 38  2  0
 38 39  1  0
 39 40  1  0
 39 41  2  0
 41 42  1  0
 42 43  2  0
 43 44  1  0
 44 45  2  0
 42 46  1  0
 41 47  1  0
 38 48  1  0
  7 49  1  0
  7 50  1  0
  5 51  1  0
 51 52  1  0
 52 53  1  0
 52 54  1  0
 51 55  1  0
 51 56  1  0
  2 57  1  0
  1 58  1  0
  1 59  1  0
  1 60  1  0
 52  5  1  0
 44  6  1  0
 29  8  1  0
 43 37  1  0
 21 12  1  0
 21 16  1  0
M  END
>  <cnnaffinities>  (61) 
[6.31154, 6.71153]

>  <score>  (61) 
6.31154

>  <index>  (61) 
84

>  <Smiles>  (61) 
C(N(C(=O)C1(N2C([C@@]3(C(=O)N(c4c(nc(c5c(c(c(c(c45)[H])[H])[H])[H])[H])[H])C([C@@]3(C([H])([H])[H])[H])([H])[H])c3c(c(Cl)c(c(c3C2=O)[H])[H])[H])([H])[H])C(C1([H])[H])([H])[H])[H])([H])([H])[H]

>  <h>  (61) 
<NA>

>  <Training>  (61) 
True

>  <Success>  (61) 
True

>  <enamine_searched>  (61) 
False

>  <enamine_id>  (61) 
nan

$$$$

     RDKit          3D

 65 70  0  0  0  0  0  0  0  0999 V2000
    4.8407   -0.0731   28.0955 C   0  0  0  0  0  0  0  0  0  0  0  0
    5.1697    0.3802   26.7542 N   0  0  0  0  0  0  0  0  0  0  0  0
    6.1811    1.4023   26.6333 C   0  0  0  0  0  0  0  0  0  0  0  0
    6.4510    2.0767   27.5846 O   0  0  0  0  0  0  0  0  0  0  0  0
    6.4578    1.8505   25.1965 C   0  0  0  0  0  0  0  0  0  0  0  0
    7.5676    0.9993   24.6179 N   0  0  0  0  0  0  0  0  0  0  0  0
    7.3312   -0.3336   24.0992 C   0  0  0  0  0  0  0  0  0  0  0  0
    8.2366   -0.5185   22.8157 C   0  0  2  0  0  0  0  0  0  0  0  0
    7.6333    0.4018   21.6869 C   0  0  0  0  0  0  0  0  0  0  0  0
    7.7739    1.5744   21.6431 O   0  0  0  0  0  0  0  0  0  0  0  0
    6.9226   -0.4044   20.8456 N   0  0  0  0  0  0  0  0  0  0  0  0
    6.1319    0.0915   19.7642 C   0  0  0  0  0  0  0  0  0  0  0  0
    6.4249   -0.2171   18.4721 C   0  0  0  0  0  0  0  0  0  0  0  0
    5.7529    0.2433   17.3662 N   0  0  0  0  0  0  0  0  0  0  0  0
    4.7384    1.0288   17.5738 C   0  0  0  0  0  0  0  0  0  0  0  0
    4.2893    1.4238   18.8669 C   0  0  0  0  0  0  0  0  0  0  0  0
    3.1541    2.2825   19.0580 C   0  0  0  0  0  0  0  0  0  0  0  0
    2.7517    2.6114   20.3014 C   0  0  0  0  0  0  0  0  0  0  0  0
    3.4383    2.1097   21.4399 C   0  0  0  0  0  0  0  0  0  0  0  0
    4.5046    1.2979   21.2916 C   0  0  0  0  0  0  0  0  0  0  0  0
    4.9846    0.9396   19.9932 C   0  0  0  0  0  0  0  0  0  0  0  0
    5.0247    0.8915   22.1585 H   0  0  0  0  0  0  0  0  0  0  0  0
    3.0855    2.3792   22.4341 H   0  0  0  0  0  0  0  0  0  0  0  0
    1.8913    3.2618   20.4542 H   0  0  0  0  0  0  0  0  0  0  0  0
    2.6320    2.6532   18.1746 H   0  0  0  0  0  0  0  0  0  0  0  0
    4.1911    1.4039   16.7013 H   0  0  0  0  0  0  0  0  0  0  0  0
    7.2835   -0.8636   18.2659 H   0  0  0  0  0  0  0  0  0  0  0  0
    6.9077   -1.8118   21.2385 C   0  0  0  0  0  0  0  0  0  0  0  0
    8.0531   -1.9155   22.2713 C   0  0  2  0  0  0  0  0  0  0  0  0
    7.8266   -3.0445   23.3067 C   0  0  0  0  0  0  0  0  0  0  0  0
    7.8385   -4.3917   22.6576 N   0  0  0  0  0  0  0  0  0  0  0  0
    6.7355   -5.0853   22.2468 C   0  0  0  0  0  0  0  0  0  0  0  0
    5.4875   -4.6117   22.5627 N   0  0  0  0  0  0  0  0  0  0  0  0
    4.4934   -5.3733   22.1254 C   0  0  0  0  0  0  0  0  0  0  0  0
    4.5545   -6.5002   21.4399 N   0  0  0  0  0  0  0  0  0  0  0  0
    5.8102   -6.8458   21.1924 C   0  0  0  0  0  0  0  0  0  0  0  0
    6.9252   -6.2392   21.5375 N   0  0  0  0  0  0  0  0  0  0  0  0
    5.9050   -7.8020   20.5921 H   0  0  0  0  0  0  0  0  0  0  0  0
    3.4392   -4.9999   22.3713 H   0  0  0  0  0  0  0  0  0  0  0  0
    8.7793   -4.7035   22.4196 H   0  0  0  0  0  0  0  0  0  0  0  0
    8.6116   -2.9852   24.0771 H   0  0  0  0  0  0  0  0  0  0  0  0
    6.8621   -2.9213   23.8148 H   0  0  0  0  0  0  0  0  0  0  0  0
    8.9522   -2.2022   21.7178 H   0  0  0  0  0  0  0  0  0  0  0  0
    7.0917   -2.4589   20.3860 H   0  0  0  0  0  0  0  0  0  0  0  0
    5.9442   -2.0721   21.6878 H   0  0  0  0  0  0  0  0  0  0  0  0
    9.6815   -0.0534   23.0816 C   0  0  0  0  0  0  0  0  0  0  0  0
   10.6840   -0.3903   22.2703 C   0  0  0  0  0  0  0  0  0  0  0  0
   11.9232   -0.0675   22.5679 C   0  0  0  0  0  0  0  0  0  0  0  0
   12.6061   -1.0554   21.2637 Cl  0  0  0  0  0  0  0  0  0  0  0  0
   12.3925    0.8175   23.5543 C   0  0  0  0  0  0  0  0  0  0  0  0
   11.4263    1.1763   24.3567 C   0  0  0  0  0  0  0  0  0  0  0  0
    9.9229    0.8191   24.1543 C   0  0  0  0  0  0  0  0  0  0  0  0
    8.8011    1.3901   25.0540 C   0  0  0  0  0  0  0  0  0  0  0  0
    6.4578    1.8504   25.1966 O   0  0  0  0  0  0  0  0  0  0  0  0
   11.6357    1.8949   25.1513 H   0  0  0  0  0  0  0  0  0  0  0  0
   13.3784    1.1566   23.7681 H   0  0  0  0  0  0  0  0  0  0  0  0
   10.5628   -0.9688   21.3575 H   0  0  0  0  0  0  0  0  0  0  0  0
    6.2922   -0.4678   23.8654 H   0  0  0  0  0  0  0  0  0  0  0  0
    7.6649   -0.9739   24.9137 H   0  0  0  0  0  0  0  0  0  0  0  0
    5.4321    1.8366   24.3492 H   0  0  0  0  0  0  0  0  0  0  0  0
    6.5645    2.9308   24.9787 H   0  0  0  0  0  0  0  0  0  0  0  0
    4.7890   -0.1541   25.9655 H   0  0  0  0  0  0  0  0  0  0  0  0
    5.7453   -0.3515   28.6465 H   0  0  0  0  0  0  0  0  0  0  0  0
    4.1870   -0.9516   28.0452 H   0  0  0  0  0  0  0  0  0  0  0  0
    4.3191    0.7157   28.6425 H   0  0  0  0  0  0  0  0  0  0  0  0
  1  2  1  0
  2  3  1  0
  3  4  2  0
  3  5  1  0
  5  6  1  0
  6  7  1  0
  8  7  1  1
  8  9  1  0
  9 10  2  0
  9 11  1  0
 11 12  1  0
 12 13  2  0
 13 14  1  0
 14 15  2  0
 15 16  1  0
 16 17  2  0
 17 18  1  0
 18 19  2  0
 19 20  1  0
 20 21  2  0
 20 22  1  0
 19 23  1  0
 18 24  1  0
 17 25  1  0
 15 26  1  0
 13 27  1  0
 11 28  1  0
 28 29  1  0
 29 30  1  0
 30 31  1  0
 31 32  1  0
 32 33  2  0
 33 34  1  0
 34 35  2  0
 35 36  1  0
 36 37  2  0
 36 38  1  0
 34 39  1  0
 31 40  1  0
 30 41  1  0
 30 42  1  0
 29 43  1  6
 28 44  1  0
 28 45  1  0
  8 46  1  0
 46 47  2  0
 47 48  1  0
 48 49  1  0
 48 50  2  0
 50 51  1  0
 51 52  2  0
 52 53  1  0
 53 54  2  0
 51 55  1  0
 50 56  1  0
 47 57  1  0
  7 58  1  0
  7 59  1  0
  5 60  1  0
  5 61  1  0
  2 62  1  0
  1 63  1  0
  1 64  1  0
  1 65  1  0
 53  6  1  0
 29  8  1  0
 37 32  1  0
 52 46  1  0
 21 12  1  0
 21 16  1  0
M  END
>  <cnnaffinities>  (62) 
[6.03325]

>  <score>  (62) 
6.03325

>  <index>  (62) 
86

>  <Smiles>  (62) 
C(N(C(=O)C(N1C([C@@]2(C(=O)N(c3c(nc(c4c(c(c(c(c34)[H])[H])[H])[H])[H])[H])C([C@@]2(C(N(c2nc(nc(n2)[H])[H])[H])([H])[H])[H])([H])[H])c2c(c(Cl)c(c(c2C1=O)[H])[H])[H])([H])[H])([H])[H])[H])([H])([H])[H]

>  <h>  (62) 
<NA>

>  <Training>  (62) 
True

>  <Success>  (62) 
True

>  <enamine_searched>  (62) 
False

>  <enamine_id>  (62) 
nan

$$$$

     RDKit          3D

 64 68  0  0  0  0  0  0  0  0999 V2000
    1.1655   -3.8535   27.2849 C   0  0  0  0  0  0  0  0  0  0  0  0
    1.7100   -3.7259   25.8576 C   0  0  0  0  0  0  0  0  0  0  0  0
    3.2011   -4.0026   25.7088 C   0  0  0  0  0  0  0  0  0  0  0  0
    3.9876   -3.1044   25.9774 O   0  0  0  0  0  0  0  0  0  0  0  0
    3.6208   -5.1171   24.9886 N   0  0  0  0  0  0  0  0  0  0  0  0
    2.8412   -6.3566   25.0467 C   0  0  0  0  0  0  0  0  0  0  0  0
    3.7685   -7.5685   25.1876 C   0  0  0  0  0  0  0  0  0  0  0  0
    4.8603   -7.5747   24.1056 C   0  0  0  0  0  0  0  0  0  0  0  0
    5.4554   -6.2145   23.8202 C   0  0  0  0  0  0  0  0  0  0  0  0
    6.6385   -6.1142   23.0671 C   0  0  0  0  0  0  0  0  0  0  0  0
    7.1308   -4.8551   22.6899 C   0  0  0  0  0  0  0  0  0  0  0  0
    6.4517   -3.6962   23.0486 C   0  0  0  0  0  0  0  0  0  0  0  0
    6.9169   -2.4505   22.6147 N   0  0  0  0  0  0  0  0  0  0  0  0
    8.0302   -1.8548   23.3591 C   0  0  0  0  0  0  0  0  0  0  0  0
    7.4929   -1.3938   24.6907 C   0  0  0  0  0  0  0  0  0  0  0  0
    7.5794   -2.2301   25.8148 C   0  0  0  0  0  0  0  0  0  0  0  0
    7.0061   -1.8480   27.0331 C   0  0  0  0  0  0  0  0  0  0  0  0
    6.3347   -0.6247   27.1319 C   0  0  0  0  0  0  0  0  0  0  0  0
    6.2456    0.2214   26.0224 C   0  0  0  0  0  0  0  0  0  0  0  0
    5.3295    1.8942   26.1638 Br  0  0  0  0  0  0  0  0  0  0  0  0
    6.8291   -0.1635   24.8101 C   0  0  0  0  0  0  0  0  0  0  0  0
    6.7410    0.4938   23.9525 H   0  0  0  0  0  0  0  0  0  0  0  0
    5.8831   -0.3231   28.0719 H   0  0  0  0  0  0  0  0  0  0  0  0
    7.0782   -2.5025   27.8980 H   0  0  0  0  0  0  0  0  0  0  0  0
    8.0775   -3.1916   25.7374 H   0  0  0  0  0  0  0  0  0  0  0  0
    8.8310   -2.5898   23.5138 H   0  0  0  0  0  0  0  0  0  0  0  0
    8.4706   -1.0087   22.8195 H   0  0  0  0  0  0  0  0  0  0  0  0
    6.2526   -1.7615   21.5962 C   0  0  0  0  0  0  0  0  0  0  0  0
    5.2035   -2.2103   21.1336 O   0  0  0  0  0  0  0  0  0  0  0  0
    6.8886   -0.5100   20.9433 C   0  0  0  0  0  0  0  0  0  0  0  0
    6.0990    0.0857   19.7649 C   0  0  0  0  0  0  0  0  0  0  0  0
    6.4498   -0.2058   18.4309 C   0  0  0  0  0  0  0  0  0  0  0  0
    5.7886    0.2639   17.3564 N   0  0  0  0  0  0  0  0  0  0  0  0
    4.7265    1.0600   17.5713 C   0  0  0  0  0  0  0  0  0  0  0  0
    4.2972    1.4217   18.8491 C   0  0  0  0  0  0  0  0  0  0  0  0
    3.1861    2.2649   19.0171 C   0  0  0  0  0  0  0  0  0  0  0  0
    2.7701    2.6133   20.3035 C   0  0  0  0  0  0  0  0  0  0  0  0
    3.4560    2.1270   21.4192 C   0  0  0  0  0  0  0  0  0  0  0  0
    4.5645    1.2879   21.2504 C   0  0  0  0  0  0  0  0  0  0  0  0
    4.9931    0.9286   19.9687 C   0  0  0  0  0  0  0  0  0  0  0  0
    5.1002    0.9072   22.1122 H   0  0  0  0  0  0  0  0  0  0  0  0
    3.1240    2.3944   22.4178 H   0  0  0  0  0  0  0  0  0  0  0  0
    1.9131    3.2658   20.4367 H   0  0  0  0  0  0  0  0  0  0  0  0
    2.6474    2.6555   18.1577 H   0  0  0  0  0  0  0  0  0  0  0  0
    4.1672    1.4302   16.7169 H   0  0  0  0  0  0  0  0  0  0  0  0
    7.3039   -0.8505   18.2515 H   0  0  0  0  0  0  0  0  0  0  0  0
    7.8882   -0.7937   20.6040 H   0  0  0  0  0  0  0  0  0  0  0  0
    7.0280    0.2608   21.7076 H   0  0  0  0  0  0  0  0  0  0  0  0
    5.2937   -3.7958   23.8152 C   0  0  0  0  0  0  0  0  0  0  0  0
    4.7911   -5.0455   24.2196 C   0  0  0  0  0  0  0  0  0  0  0  0
    4.7884   -2.8804   24.0934 H   0  0  0  0  0  0  0  0  0  0  0  0
    8.0206   -4.7528   22.0762 H   0  0  0  0  0  0  0  0  0  0  0  0
    7.1501   -7.0171   22.7491 H   0  0  0  0  0  0  0  0  0  0  0  0
    5.6515   -8.2915   24.3713 H   0  0  0  0  0  0  0  0  0  0  0  0
    4.3902   -7.9014   23.1824 H   0  0  0  0  0  0  0  0  0  0  0  0
    4.2159   -7.5956   26.1818 H   0  0  0  0  0  0  0  0  0  0  0  0
    3.1723   -8.4791   25.0925 H   0  0  0  0  0  0  0  0  0  0  0  0
    2.1555   -6.3369   25.9026 H   0  0  0  0  0  0  0  0  0  0  0  0
    2.2316   -6.4774   24.1456 H   0  0  0  0  0  0  0  0  0  0  0  0
    1.1596   -4.4032   25.2010 H   0  0  0  0  0  0  0  0  0  0  0  0
    1.5453   -2.7072   25.4980 H   0  0  0  0  0  0  0  0  0  0  0  0
    1.3035   -4.8646   27.6786 H   0  0  0  0  0  0  0  0  0  0  0  0
    1.6608   -3.1440   27.9528 H   0  0  0  0  0  0  0  0  0  0  0  0
    0.0947   -3.6318   27.2900 H   0  0  0  0  0  0  0  0  0  0  0  0
  1  2  1  0
  2  3  1  0
  3  4  2  0
  3  5  1  0
  5  6  1  0
  6  7  1  0
  7  8  1  0
  8  9  1  0
  9 10  2  0
 10 11  1  0
 11 12  2  0
 12 13  1  0
 13 14  1  0
 14 15  1  0
 15 16  2  0
 16 17  1  0
 17 18  2  0
 18 19  1  0
 19 20  1  0
 19 21  2  0
 21 22  1  0
 18 23  1  0
 17 24  1  0
 16 25  1  0
 14 26  1  0
 14 27  1  0
 13 28  1  0
 28 29  2  0
 28 30  1  0
 30 31  1  0
 31 32  2  0
 32 33  1  0
 33 34  2  0
 34 35  1  0
 35 36  2  0
 36 37  1  0
 37 38  2  0
 38 39  1  0
 39 40  2  0
 39 41  1  0
 38 42  1  0
 37 43  1  0
 36 44  1  0
 34 45  1  0
 32 46  1  0
 30 47  1  0
 30 48  1  0
 12 49  1  0
 49 50  2  0
 49 51  1  0
 11 52  1  0
 10 53  1  0
  8 54  1  0
  8 55  1  0
  7 56  1  0
  7 57  1  0
  6 58  1  0
  6 59  1  0
  2 60  1  0
  2 61  1  0
  1 62  1  0
  1 63  1  0
  1 64  1  0
 50  5  1  0
 50  9  1  0
 21 15  1  0
 40 31  1  0
 40 35  1  0
M  END
>  <cnnaffinities>  (63) 
[6.63439, 6.09783, 6.64324]

>  <score>  (63) 
6.63439

>  <index>  (63) 
88

>  <Smiles>  (63) 
C(C(C(=O)N1C(C(C(c2c(c(c(N(C(c3c(c(c(c(Br)c3[H])[H])[H])[H])([H])[H])C(=O)C(c3c(nc(c4c(c(c(c(c34)[H])[H])[H])[H])[H])[H])([H])[H])c(c12)[H])[H])[H])([H])[H])([H])[H])([H])[H])([H])[H])([H])([H])[H]

>  <h>  (63) 
<NA>

>  <Training>  (63) 
True

>  <Success>  (63) 
True

>  <enamine_searched>  (63) 
False

>  <enamine_id>  (63) 
nan

$$$$

     RDKit          3D

 38 40  0  0  0  0  0  0  0  0999 V2000
    5.0979   -1.9794   21.3860 O   0  0  0  0  0  0  0  0  0  0  0  0
    6.2963   -1.7851   21.4741 C   0  0  0  0  0  0  0  0  0  0  0  0
    6.9399   -0.5053   20.8931 C   0  0  0  0  0  0  0  0  0  0  0  0
    6.1182    0.0900   19.7700 C   0  0  0  0  0  0  0  0  0  0  0  0
    6.4235   -0.2107   18.4685 C   0  0  0  0  0  0  0  0  0  0  0  0
    5.7592    0.2373   17.3699 N   0  0  0  0  0  0  0  0  0  0  0  0
    4.7358    1.0296   17.5785 C   0  0  0  0  0  0  0  0  0  0  0  0
    4.2873    1.4199   18.8676 C   0  0  0  0  0  0  0  0  0  0  0  0
    3.1658    2.2721   19.0420 C   0  0  0  0  0  0  0  0  0  0  0  0
    2.7468    2.6248   20.2964 C   0  0  0  0  0  0  0  0  0  0  0  0
    3.4364    2.1375   21.4295 C   0  0  0  0  0  0  0  0  0  0  0  0
    4.5254    1.3117   21.2866 C   0  0  0  0  0  0  0  0  0  0  0  0
    4.9885    0.9342   19.9997 C   0  0  0  0  0  0  0  0  0  0  0  0
    5.0268    0.9234   22.1672 H   0  0  0  0  0  0  0  0  0  0  0  0
    3.0931    2.4133   22.4222 H   0  0  0  0  0  0  0  0  0  0  0  0
    1.8877    3.2787   20.4317 H   0  0  0  0  0  0  0  0  0  0  0  0
    2.6497    2.6450   18.1597 H   0  0  0  0  0  0  0  0  0  0  0  0
    4.2022    1.3973   16.6991 H   0  0  0  0  0  0  0  0  0  0  0  0
    7.2636   -0.8655   18.2441 H   0  0  0  0  0  0  0  0  0  0  0  0
    7.0802    0.2301   21.6977 H   0  0  0  0  0  0  0  0  0  0  0  0
    7.9439   -0.7505   20.5155 H   0  0  0  0  0  0  0  0  0  0  0  0
    7.1308   -2.7333   22.0339 N   0  0  0  0  0  0  0  0  0  0  0  0
    6.5954   -4.0783   22.2147 C   0  0  0  0  0  0  0  0  0  0  0  0
    5.8789   -4.3497   23.5181 C   0  0  0  0  0  0  0  0  0  0  0  0
    6.2181   -3.8311   24.6955 C   0  0  0  0  0  0  0  0  0  0  0  0
    7.3495   -2.8630   24.9405 C   0  0  0  0  0  0  0  0  0  0  0  0
    8.5720   -3.0629   24.0416 C   0  0  0  0  0  0  0  0  0  0  0  0
    8.4258   -2.4582   22.6401 C   0  0  0  0  0  0  0  0  0  0  0  0
    9.2364   -2.8298   21.9978 H   0  0  0  0  0  0  0  0  0  0  0  0
    8.5435   -1.3748   22.7193 H   0  0  0  0  0  0  0  0  0  0  0  0
    9.4478   -2.6045   24.5138 H   0  0  0  0  0  0  0  0  0  0  0  0
    8.8154   -4.1271   23.9825 H   0  0  0  0  0  0  0  0  0  0  0  0
    7.6435   -2.9244   25.9947 H   0  0  0  0  0  0  0  0  0  0  0  0
    6.9840   -1.8400   24.7993 H   0  0  0  0  0  0  0  0  0  0  0  0
    5.6461   -4.1348   25.5703 H   0  0  0  0  0  0  0  0  0  0  0  0
    5.0148   -5.0139   23.4655 H   0  0  0  0  0  0  0  0  0  0  0  0
    7.4363   -4.7733   22.1233 H   0  0  0  0  0  0  0  0  0  0  0  0
    5.9320   -4.3002   21.3784 H   0  0  0  0  0  0  0  0  0  0  0  0
  1  2  2  0
  2  3  1  0
  3  4  1  0
  4  5  2  0
  5  6  1  0
  6  7  2  0
  7  8  1  0
  8  9  2  0
  9 10  1  0
 10 11  2  0
 11 12  1  0
 12 13  2  0
 12 14  1  0
 11 15  1  0
 10 16  1  0
  9 17  1  0
  7 18  1  0
  5 19  1  0
  3 20  1  0
  3 21  1  0
  2 22  1  0
 22 23  1  0
 23 24  1  0
 24 25  2  0
 25 26  1  0
 26 27  1  0
 27 28  1  0
 28 29  1  0
 28 30  1  0
 27 31  1  0
 27 32  1  0
 26 33  1  0
 26 34  1  0
 25 35  1  0
 24 36  1  0
 23 37  1  0
 23 38  1  0
 13  4  1  0
 28 22  1  0
 13  8  1  0
M  END
>  <cnnaffinities>  (64) 
[5.14099, 5.13587, 4.72574, 4.75277, 4.49876, 5.16233]

>  <score>  (64) 
5.14099

>  <index>  (64) 
89

>  <Smiles>  (64) 
O=C(C(c1c(nc(c2c(c(c(c(c12)[H])[H])[H])[H])[H])[H])([H])[H])N1C(C(=C(C(C(C1([H])[H])([H])[H])([H])[H])[H])[H])([H])[H]

>  <h>  (64) 
<NA>

>  <Training>  (64) 
True

>  <Success>  (64) 
True

>  <enamine_searched>  (64) 
False

>  <enamine_id>  (64) 
nan

$$$$

     RDKit          3D

 62 67  0  0  0  0  0  0  0  0999 V2000
    9.9616   -1.4952   22.4723 C   0  0  0  0  0  0  0  0  0  0  0  0
    8.5634   -0.8938   22.3558 C   0  0  1  0  0  0  0  0  0  0  0  0
    8.2855   -0.3656   20.9385 C   0  0  0  0  0  0  0  0  0  0  0  0
    6.8415   -0.4276   20.8447 N   0  0  0  0  0  0  0  0  0  0  0  0
    6.1168    0.1003   19.7572 C   0  0  0  0  0  0  0  0  0  0  0  0
    6.4759   -0.1908   18.4666 C   0  0  0  0  0  0  0  0  0  0  0  0
    5.8158    0.2513   17.3685 N   0  0  0  0  0  0  0  0  0  0  0  0
    4.7712    1.0227   17.5676 C   0  0  0  0  0  0  0  0  0  0  0  0
    4.3084    1.4224   18.8542 C   0  0  0  0  0  0  0  0  0  0  0  0
    3.1910    2.2833   19.0126 C   0  0  0  0  0  0  0  0  0  0  0  0
    2.7852    2.6717   20.2636 C   0  0  0  0  0  0  0  0  0  0  0  0
    3.4813    2.2211   21.4070 C   0  0  0  0  0  0  0  0  0  0  0  0
    4.5619    1.3879   21.2801 C   0  0  0  0  0  0  0  0  0  0  0  0
    4.9966    0.9571   19.9925 C   0  0  0  0  0  0  0  0  0  0  0  0
    5.0950    1.0410   22.1600 H   0  0  0  0  0  0  0  0  0  0  0  0
    3.1523    2.5404   22.3937 H   0  0  0  0  0  0  0  0  0  0  0  0
    1.9319    3.3334   20.3808 H   0  0  0  0  0  0  0  0  0  0  0  0
    2.6765    2.6294   18.1217 H   0  0  0  0  0  0  0  0  0  0  0  0
    4.2388    1.3774   16.6852 H   0  0  0  0  0  0  0  0  0  0  0  0
    7.3274   -0.8430   18.2719 H   0  0  0  0  0  0  0  0  0  0  0  0
    6.2952   -1.3816   21.6768 C   0  0  0  0  0  0  0  0  0  0  0  0
    5.1731   -1.8315   21.5462 O   0  0  0  0  0  0  0  0  0  0  0  0
    7.3693   -1.8376   22.6954 C   0  0  1  0  0  0  0  0  0  0  0  0
    7.6883   -3.3103   22.3500 C   0  0  0  0  0  0  0  0  0  0  0  0
    6.5946   -4.1683   22.7421 N   0  0  0  0  0  0  0  0  0  0  0  0
    5.9738   -5.0463   21.7595 C   0  0  0  0  0  0  0  0  0  0  0  0
    6.7981   -6.3078   21.5793 C   0  0  0  0  0  0  0  0  0  0  0  0
    7.0013   -6.9296   22.9088 N   0  0  0  0  0  4  0  0  0  0  0  0
    5.9697   -7.9437   23.3386 C   0  0  0  0  0  0  0  0  0  0  0  0
    7.0232   -9.0855   23.3542 C   0  0  0  0  0  0  0  0  0  0  0  0
    8.0592   -7.9862   23.0491 C   0  0  0  0  0  0  0  0  0  0  0  0
    8.6096   -8.0731   22.1147 H   0  0  0  0  0  0  0  0  0  0  0  0
    8.7370   -7.7414   23.8633 H   0  0  0  0  0  0  0  0  0  0  0  0
    7.0064   -9.8223   22.5569 H   0  0  0  0  0  0  0  0  0  0  0  0
    7.1234   -9.6138   24.2974 H   0  0  0  0  0  0  0  0  0  0  0  0
    5.6206   -7.6820   24.3283 H   0  0  0  0  0  0  0  0  0  0  0  0
    5.1158   -7.9677   22.6671 H   0  0  0  0  0  0  0  0  0  0  0  0
    7.0889   -6.1871   23.6034 H   0  0  0  0  0  0  0  0  0  0  0  0
    6.3202   -7.0125   20.8940 H   0  0  0  0  0  0  0  0  0  0  0  0
    7.7755   -6.0469   21.1674 H   0  0  0  0  0  0  0  0  0  0  0  0
    5.8759   -4.4967   20.8175 H   0  0  0  0  0  0  0  0  0  0  0  0
    4.9594   -5.2649   22.1107 H   0  0  0  0  0  0  0  0  0  0  0  0
    6.2571   -4.2122   24.0536 C   0  0  0  0  0  0  0  0  0  0  0  0
    5.8628   -5.2397   24.6122 O   0  0  0  0  0  0  0  0  0  0  0  0
    6.3813   -2.9258   24.7835 C   0  0  0  0  0  0  0  0  0  0  0  0
    5.9219   -2.8967   26.0991 C   0  0  0  0  0  0  0  0  0  0  0  0
    5.9073   -1.7150   26.8068 C   0  0  0  0  0  0  0  0  0  0  0  0
    6.3702   -0.5681   26.1638 C   0  0  0  0  0  0  0  0  0  0  0  0
    6.3458    0.9360   27.0345 Cl  0  0  0  0  0  0  0  0  0  0  0  0
    6.8497   -0.5826   24.8653 C   0  0  0  0  0  0  0  0  0  0  0  0
    6.8796   -1.7830   24.1394 C   0  0  0  0  0  0  0  0  0  0  0  0
    7.1814    0.3509   24.4243 H   0  0  0  0  0  0  0  0  0  0  0  0
    5.5341   -1.6702   27.8252 H   0  0  0  0  0  0  0  0  0  0  0  0
    5.5569   -3.8184   26.5377 H   0  0  0  0  0  0  0  0  0  0  0  0
    7.8543   -3.4076   21.2784 H   0  0  0  0  0  0  0  0  0  0  0  0
    8.5992   -3.6298   22.8758 H   0  0  0  0  0  0  0  0  0  0  0  0
    8.7757   -0.9929   20.1762 H   0  0  0  0  0  0  0  0  0  0  0  0
    8.6304    0.6636   20.7983 H   0  0  0  0  0  0  0  0  0  0  0  0
    8.4891   -0.0408   23.0334 H   0  0  0  0  0  0  0  0  0  0  0  0
   10.1017   -2.2957   21.7358 H   0  0  0  0  0  0  0  0  0  0  0  0
   10.1414   -1.9196   23.4654 H   0  0  0  0  0  0  0  0  0  0  0  0
   10.7328   -0.7413   22.2800 H   0  0  0  0  0  0  0  0  0  0  0  0
  1  2  1  0
  2  3  1  0
  3  4  1  0
  4  5  1  0
  5  6  2  0
  6  7  1  0
  7  8  2  0
  8  9  1  0
  9 10  2  0
 10 11  1  0
 11 12  2  0
 12 13  1  0
 13 14  2  0
 13 15  1  0
 12 16  1  0
 11 17  1  0
 10 18  1  0
  8 19  1  0
  6 20  1  0
  4 21  1  0
 21 22  2  0
 21 23  1  0
 23 24  1  6
 24 25  1  0
 25 26  1  0
 26 27  1  0
 27 28  1  0
 28 29  1  0
 29 30  1  0
 30 31  1  0
 31 32  1  0
 31 33  1  0
 30 34  1  0
 30 35  1  0
 29 36  1  0
 29 37  1  0
 28 38  1  0
 27 39  1  0
 27 40  1  0
 26 41  1  0
 26 42  1  0
 25 43  1  0
 43 44  2  0
 43 45  1  0
 45 46  2  0
 46 47  1  0
 47 48  2  0
 48 49  1  0
 48 50  1  0
 50 51  2  0
 50 52  1  0
 47 53  1  0
 46 54  1  0
 24 55  1  0
 24 56  1  0
  3 57  1  0
  3 58  1  0
  2 59  1  1
  1 60  1  0
  1 61  1  0
  1 62  1  0
 23  2  1  0
 31 28  1  0
 51 45  1  0
 14  5  1  0
 51 23  1  0
 14  9  1  0
M  CHG  1  28   1
M  END
>  <cnnaffinities>  (65) 
[6.50279, 6.31418]

>  <score>  (65) 
6.50279

>  <index>  (65) 
90

>  <Smiles>  (65) 
C([C@]1(C(N(c2c(nc(c3c(c(c(c(c23)[H])[H])[H])[H])[H])[H])C(=O)[C@]21C(N(C(C([N+]1(C(C(C1([H])[H])([H])[H])([H])[H])[H])([H])[H])([H])[H])C(=O)c1c(c(c(Cl)c(c21)[H])[H])[H])([H])[H])([H])[H])[H])([H])([H])[H]

>  <h>  (65) 
<NA>

>  <Training>  (65) 
True

>  <Success>  (65) 
True

>  <enamine_searched>  (65) 
False

>  <enamine_id>  (65) 
nan

$$$$

     RDKit          3D

 47 50  0  0  0  0  0  0  0  0999 V2000
    5.5695   -2.4587   20.9396 O   0  0  0  0  0  0  0  0  0  0  0  0
    6.1425   -1.6129   21.5943 C   0  0  0  0  0  0  0  0  0  0  0  0
    6.9161   -0.4791   20.9084 C   0  0  0  0  0  0  0  0  0  0  0  0
    6.1188    0.0947   19.7618 C   0  0  0  0  0  0  0  0  0  0  0  0
    6.4232   -0.2135   18.4611 C   0  0  0  0  0  0  0  0  0  0  0  0
    5.7589    0.2392   17.3616 N   0  0  0  0  0  0  0  0  0  0  0  0
    4.7354    1.0302   17.5755 C   0  0  0  0  0  0  0  0  0  0  0  0
    4.2879    1.4215   18.8668 C   0  0  0  0  0  0  0  0  0  0  0  0
    3.1665    2.2718   19.0441 C   0  0  0  0  0  0  0  0  0  0  0  0
    2.7509    2.6276   20.2993 C   0  0  0  0  0  0  0  0  0  0  0  0
    3.4466    2.1435   21.4315 C   0  0  0  0  0  0  0  0  0  0  0  0
    4.5356    1.3189   21.2872 C   0  0  0  0  0  0  0  0  0  0  0  0
    4.9920    0.9388   19.9960 C   0  0  0  0  0  0  0  0  0  0  0  0
    5.0516    0.9527   22.1711 H   0  0  0  0  0  0  0  0  0  0  0  0
    3.1093    2.4271   22.4227 H   0  0  0  0  0  0  0  0  0  0  0  0
    1.8932    3.2814   20.4360 H   0  0  0  0  0  0  0  0  0  0  0  0
    2.6482    2.6429   18.1634 H   0  0  0  0  0  0  0  0  0  0  0  0
    4.2005    1.3983   16.6983 H   0  0  0  0  0  0  0  0  0  0  0  0
    7.2659   -0.8665   18.2414 H   0  0  0  0  0  0  0  0  0  0  0  0
    7.2032    0.2986   21.6235 H   0  0  0  0  0  0  0  0  0  0  0  0
    7.8439   -0.9205   20.5304 H   0  0  0  0  0  0  0  0  0  0  0  0
    6.0653   -1.6468   22.9924 N   0  0  0  0  0  0  0  0  0  0  0  0
    4.8992   -2.2926   23.4867 C   0  0  0  0  0  0  0  0  0  0  0  0
    4.8664   -3.4760   24.1015 C   0  0  0  0  0  0  0  0  0  0  0  0
    6.0417   -4.2467   24.5090 C   0  0  0  0  0  0  0  0  0  0  0  0
    6.9975   -3.7804   25.3302 C   0  0  0  0  0  0  0  0  0  0  0  0
    6.9493   -2.4610   25.9796 C   0  0  0  0  0  0  0  0  0  0  0  0
    6.8206   -1.2797   25.3661 C   0  0  0  0  0  0  0  0  0  0  0  0
    7.0414   -0.9835   23.8893 C   0  0  1  0  0  0  0  0  0  0  0  0
    8.4966   -1.2716   23.4995 C   0  0  0  0  0  0  0  0  0  0  0  0
    8.9072   -2.4899   22.9650 C   0  0  0  0  0  0  0  0  0  0  0  0
   10.2514   -2.7100   22.6725 C   0  0  0  0  0  0  0  0  0  0  0  0
   11.2071   -1.7270   22.9085 C   0  0  0  0  0  0  0  0  0  0  0  0
   10.8089   -0.5164   23.4644 C   0  0  0  0  0  0  0  0  0  0  0  0
    9.4659   -0.3014   23.7621 C   0  0  0  0  0  0  0  0  0  0  0  0
    9.1694    0.6436   24.2101 H   0  0  0  0  0  0  0  0  0  0  0  0
   11.5424    0.2611   23.6577 H   0  0  0  0  0  0  0  0  0  0  0  0
   12.2509   -1.9083   22.6605 H   0  0  0  0  0  0  0  0  0  0  0  0
   10.5573   -3.6577   22.2501 H   0  0  0  0  0  0  0  0  0  0  0  0
    8.1740   -3.2727   22.7878 H   0  0  0  0  0  0  0  0  0  0  0  0
    6.8886    0.0993   23.7800 H   0  0  0  0  0  0  0  0  0  0  0  0
    6.7403   -0.3966   25.9980 H   0  0  0  0  0  0  0  0  0  0  0  0
    6.9900   -2.5000   27.0722 H   0  0  0  0  0  0  0  0  0  0  0  0
    7.8322   -4.4247   25.6022 H   0  0  0  0  0  0  0  0  0  0  0  0
    6.0870   -5.2742   24.1491 H   0  0  0  0  0  0  0  0  0  0  0  0
    3.8926   -3.9112   24.3327 H   0  0  0  0  0  0  0  0  0  0  0  0
    3.9701   -1.7656   23.2683 H   0  0  0  0  0  0  0  0  0  0  0  0
  1  2  2  0
  2  3  1  0
  3  4  1  0
  4  5  2  0
  5  6  1  0
  6  7  2  0
  7  8  1  0
  8  9  2  0
  9 10  1  0
 10 11  2  0
 11 12  1  0
 12 13  2  0
 12 14  1  0
 11 15  1  0
 10 16  1  0
  9 17  1  0
  7 18  1  0
  5 19  1  0
  3 20  1  0
  3 21  1  0
  2 22  1  0
 22 23  1  0
 23 24  2  3
 24 25  1  0
 25 26  2  3
 26 27  1  0
 27 28  2  3
 28 29  1  0
 29 30  1  0
 30 31  2  0
 31 32  1  0
 32 33  2  0
 33 34  1  0
 34 35  2  0
 35 36  1  0
 34 37  1  0
 33 38  1  0
 32 39  1  0
 31 40  1  0
 29 41  1  1
 28 42  1  0
 27 43  1  0
 26 44  1  0
 25 45  1  0
 24 46  1  0
 23 47  1  0
 13  4  1  0
 29 22  1  0
 35 30  1  0
 13  8  1  0
M  END
>  <cnnaffinities>  (66) 
[6.09876, 6.09871, 5.5695, 5.56926, 5.67131, 5.67165]

>  <score>  (66) 
6.09876

>  <index>  (66) 
92

>  <Smiles>  (66) 
O=C(C(c1c(nc(c2c(c(c(c(c12)[H])[H])[H])[H])[H])[H])([H])[H])N1C(=C(C(=C(C(=C([C@]1(c1c(c(c(c(c1[H])[H])[H])[H])[H])[H])[H])[H])[H])[H])[H])[H]

>  <h>  (66) 
<NA>

>  <Training>  (66) 
True

>  <Success>  (66) 
True

>  <enamine_searched>  (66) 
False

>  <enamine_id>  (66) 
nan

$$$$

     RDKit          3D

 58 62  0  0  0  0  0  0  0  0999 V2000
    2.7446   -5.4118   23.4146 C   0  0  0  0  0  0  0  0  0  0  0  0
    3.5802   -4.4979   22.5895 N   0  0  0  0  0  4  0  0  0  0  0  0
    4.9067   -5.0862   22.2178 C   0  0  0  0  0  0  0  0  0  0  0  0
    5.9100   -5.0693   23.3812 C   0  0  0  0  0  0  0  0  0  0  0  0
    6.2975   -3.7210   23.7661 N   0  0  0  0  0  0  0  0  0  0  0  0
    7.4793   -3.1548   23.1427 C   0  0  0  0  0  0  0  0  0  0  0  0
    7.3344   -1.6445   22.8695 C   0  0  2  0  0  0  0  0  0  0  0  0
    6.3039   -1.3980   21.7411 C   0  0  0  0  0  0  0  0  0  0  0  0
    5.1836   -1.8720   21.6633 O   0  0  0  0  0  0  0  0  0  0  0  0
    6.8467   -0.5111   20.8427 N   0  0  0  0  0  0  0  0  0  0  0  0
    6.0955    0.0449   19.7737 C   0  0  0  0  0  0  0  0  0  0  0  0
    6.4445   -0.2264   18.4756 C   0  0  0  0  0  0  0  0  0  0  0  0
    5.7872    0.2439   17.3872 N   0  0  0  0  0  0  0  0  0  0  0  0
    4.7541    1.0222   17.6012 C   0  0  0  0  0  0  0  0  0  0  0  0
    4.2978    1.4105   18.8914 C   0  0  0  0  0  0  0  0  0  0  0  0
    3.1833    2.2762   19.0600 C   0  0  0  0  0  0  0  0  0  0  0  0
    2.7862    2.6558   20.3106 C   0  0  0  0  0  0  0  0  0  0  0  0
    3.4927    2.2001   21.4465 C   0  0  0  0  0  0  0  0  0  0  0  0
    4.5707    1.3629   21.3144 C   0  0  0  0  0  0  0  0  0  0  0  0
    4.9908    0.9245   20.0230 C   0  0  0  0  0  0  0  0  0  0  0  0
    5.1033    1.0141   22.1999 H   0  0  0  0  0  0  0  0  0  0  0  0
    3.1635    2.5087   22.4364 H   0  0  0  0  0  0  0  0  0  0  0  0
    1.9296    3.3164   20.4363 H   0  0  0  0  0  0  0  0  0  0  0  0
    2.6713    2.6335   18.1698 H   0  0  0  0  0  0  0  0  0  0  0  0
    4.2221    1.3821   16.7211 H   0  0  0  0  0  0  0  0  0  0  0  0
    7.2957   -0.8731   18.2630 H   0  0  0  0  0  0  0  0  0  0  0  0
    8.1961   -0.0797   21.1564 C   0  0  0  0  0  0  0  0  0  0  0  0
    8.6499   -0.9939   22.3180 C   0  0  2  0  0  0  0  0  0  0  0  0
    9.7419   -1.9665   21.8261 C   0  0  0  0  0  0  0  0  0  0  0  0
   10.5985   -1.4043   21.4305 H   0  0  0  0  0  0  0  0  0  0  0  0
   10.1219   -2.6002   22.6341 H   0  0  0  0  0  0  0  0  0  0  0  0
    9.3782   -2.6180   21.0215 H   0  0  0  0  0  0  0  0  0  0  0  0
    9.1115   -0.3975   23.1160 H   0  0  0  0  0  0  0  0  0  0  0  0
    8.8493   -0.2111   20.2913 H   0  0  0  0  0  0  0  0  0  0  0  0
    8.2244    0.9890   21.4214 H   0  0  0  0  0  0  0  0  0  0  0  0
    6.8283   -0.9728   24.1421 C   0  0  0  0  0  0  0  0  0  0  0  0
    7.0090    0.4054   24.3373 C   0  0  0  0  0  0  0  0  0  0  0  0
    6.4937    1.0012   25.4705 C   0  0  0  0  0  0  0  0  0  0  0  0
    6.6826    2.3190   25.6642 F   0  0  0  0  0  0  0  0  0  0  0  0
    5.7825    0.2878   26.4255 C   0  0  0  0  0  0  0  0  0  0  0  0
    5.5729   -1.0615   26.2179 C   0  0  0  0  0  0  0  0  0  0  0  0
    6.0763   -1.6933   25.0817 C   0  0  0  0  0  0  0  0  0  0  0  0
    5.7147   -3.1371   24.8493 C   0  0  0  0  0  0  0  0  0  0  0  0
    4.9004   -3.7302   25.5495 O   0  0  0  0  0  0  0  0  0  0  0  0
    4.9983   -1.6656   26.9113 H   0  0  0  0  0  0  0  0  0  0  0  0
    5.4020    0.8106   27.2934 H   0  0  0  0  0  0  0  0  0  0  0  0
    7.5366    1.0417   23.6330 H   0  0  0  0  0  0  0  0  0  0  0  0
    8.3674   -3.3077   23.7795 H   0  0  0  0  0  0  0  0  0  0  0  0
    7.6191   -3.6755   22.1928 H   0  0  0  0  0  0  0  0  0  0  0  0
    6.8146   -5.6083   23.0797 H   0  0  0  0  0  0  0  0  0  0  0  0
    5.5005   -5.5533   24.2710 H   0  0  0  0  0  0  0  0  0  0  0  0
    5.2879   -4.4863   21.3960 H   0  0  0  0  0  0  0  0  0  0  0  0
    4.7559   -6.1143   21.8829 H   0  0  0  0  0  0  0  0  0  0  0  0
    3.0511   -4.2573   21.7259 H   0  0  0  0  0  0  0  0  0  0  0  0
    3.7822   -3.6088   23.1030 H   0  0  0  0  0  0  0  0  0  0  0  0
    3.2113   -5.5797   24.3849 H   0  0  0  0  0  0  0  0  0  0  0  0
    2.6319   -6.3815   22.9182 H   0  0  0  0  0  0  0  0  0  0  0  0
    1.7547   -4.9840   23.5619 H   0  0  0  0  0  0  0  0  0  0  0  0
  1  2  1  0
  2  3  1  0
  3  4  1  0
  4  5  1  0
  5  6  1  0
  7  6  1  1
  7  8  1  0
  8  9  2  0
  8 10  1  0
 10 11  1  0
 11 12  2  0
 12 13  1  0
 13 14  2  0
 14 15  1  0
 15 16  2  0
 16 17  1  0
 17 18  2  0
 18 19  1  0
 19 20  2  0
 19 21  1  0
 18 22  1  0
 17 23  1  0
 16 24  1  0
 14 25  1  0
 12 26  1  0
 10 27  1  0
 27 28  1  0
 28 29  1  0
 29 30  1  0
 29 31  1  0
 29 32  1  0
 28 33  1  1
 27 34  1  0
 27 35  1  0
  7 36  1  0
 36 37  2  0
 37 38  1  0
 38 39  1  0
 38 40  2  0
 40 41  1  0
 41 42  2  0
 42 43  1  0
 43 44  2  0
 41 45  1  0
 40 46  1  0
 37 47  1  0
  6 48  1  0
  6 49  1  0
  4 50  1  0
  4 51  1  0
  3 52  1  0
  3 53  1  0
  2 54  1  0
  2 55  1  0
  1 56  1  0
  1 57  1  0
  1 58  1  0
 43  5  1  0
 28  7  1  0
 42 36  1  0
 20 11  1  0
 20 15  1  0
M  CHG  1   2   1
M  END
>  <cnnaffinities>  (67) 
[5.85502]

>  <score>  (67) 
5.85502

>  <index>  (67) 
93

>  <Smiles>  (67) 
C([N+](C(C(N1C([C@@]2(C(=O)N(c3c(nc(c4c(c(c(c(c34)[H])[H])[H])[H])[H])[H])C([C@@]2(C([H])([H])[H])[H])([H])[H])c2c(c(F)c(c(c2C1=O)[H])[H])[H])([H])[H])([H])[H])([H])[H])([H])[H])([H])([H])[H]

>  <h>  (67) 
<NA>

>  <Training>  (67) 
True

>  <Success>  (67) 
True

>  <enamine_searched>  (67) 
False

>  <enamine_id>  (67) 
nan

$$$$

     RDKit          3D

 65 69  0  0  0  0  0  0  0  0999 V2000
    1.6131   -8.8541   24.7994 C   0  0  0  0  0  0  0  0  0  0  0  0
    2.9779   -8.6373   24.1267 C   0  0  0  0  0  0  0  0  0  0  0  0
    3.0214   -7.2499   23.5109 C   0  0  0  0  0  0  0  0  0  0  0  0
    2.3316   -6.8979   22.5937 O   0  0  0  0  0  0  0  0  0  0  0  0
    3.9472   -6.2459   24.1623 N   0  0  2  0  0  4  0  0  0  0  0  0
    3.1743   -5.1271   24.8958 C   0  0  0  0  0  0  0  0  0  0  0  0
    4.1418   -4.0442   25.3168 C   0  0  0  0  0  0  0  0  0  0  0  0
    4.7656   -3.3798   24.0983 C   0  0  0  0  0  0  0  0  0  0  0  0
    5.4513   -4.4006   23.2151 C   0  0  0  0  0  0  0  0  0  0  0  0
    6.5035   -4.0336   22.3600 C   0  0  0  0  0  0  0  0  0  0  0  0
    6.9223   -2.6682   22.2557 N   0  0  0  0  0  0  0  0  0  0  0  0
    8.2640   -2.3495   22.7625 C   0  0  0  0  0  0  0  0  0  0  0  0
    8.5574   -2.9806   24.1105 C   0  0  0  0  0  0  0  0  0  0  0  0
    9.3050   -4.1530   24.1094 C   0  0  0  0  0  0  0  0  0  0  0  0
    9.4552   -4.9304   25.2407 C   0  0  0  0  0  0  0  0  0  0  0  0
    8.9509   -4.4794   26.4490 C   0  0  0  0  0  0  0  0  0  0  0  0
    8.3035   -3.2519   26.4799 C   0  0  0  0  0  0  0  0  0  0  0  0
    7.7459   -2.6393   28.0130 Cl  0  0  0  0  0  0  0  0  0  0  0  0
    8.0991   -2.4908   25.3320 C   0  0  0  0  0  0  0  0  0  0  0  0
    7.5987   -1.5300   25.4314 H   0  0  0  0  0  0  0  0  0  0  0  0
    9.0989   -5.0504   27.3562 H   0  0  0  0  0  0  0  0  0  0  0  0
    9.9695   -5.8839   25.1918 H   0  0  0  0  0  0  0  0  0  0  0  0
    9.7729   -4.4380   23.1819 H   0  0  0  0  0  0  0  0  0  0  0  0
    8.3529   -1.2631   22.8150 H   0  0  0  0  0  0  0  0  0  0  0  0
    9.0382   -2.7177   22.0709 H   0  0  0  0  0  0  0  0  0  0  0  0
    6.1829   -1.8480   21.4126 C   0  0  0  0  0  0  0  0  0  0  0  0
    5.0475   -2.1362   21.0750 O   0  0  0  0  0  0  0  0  0  0  0  0
    6.8698   -0.5745   20.8942 C   0  0  0  0  0  0  0  0  0  0  0  0
    6.1084    0.0587   19.7670 C   0  0  0  0  0  0  0  0  0  0  0  0
    6.4378   -0.2244   18.4678 C   0  0  0  0  0  0  0  0  0  0  0  0
    5.7866    0.2350   17.3655 N   0  0  0  0  0  0  0  0  0  0  0  0
    4.7574    1.0206   17.5759 C   0  0  0  0  0  0  0  0  0  0  0  0
    4.2981    1.3998   18.8655 C   0  0  0  0  0  0  0  0  0  0  0  0
    3.1822    2.2577   19.0379 C   0  0  0  0  0  0  0  0  0  0  0  0
    2.7601    2.6062   20.2920 C   0  0  0  0  0  0  0  0  0  0  0  0
    3.4397    2.1145   21.4288 C   0  0  0  0  0  0  0  0  0  0  0  0
    4.5228    1.2807   21.2890 C   0  0  0  0  0  0  0  0  0  0  0  0
    4.9857    0.9065   19.9988 C   0  0  0  0  0  0  0  0  0  0  0  0
    5.0290    0.9025   22.1716 H   0  0  0  0  0  0  0  0  0  0  0  0
    3.1005    2.4008   22.4213 H   0  0  0  0  0  0  0  0  0  0  0  0
    1.9051    3.2650   20.4242 H   0  0  0  0  0  0  0  0  0  0  0  0
    2.6813    2.6407   18.1521 H   0  0  0  0  0  0  0  0  0  0  0  0
    4.2243    1.4005   16.7016 H   0  0  0  0  0  0  0  0  0  0  0  0
    7.2855   -0.8745   18.2527 H   0  0  0  0  0  0  0  0  0  0  0  0
    6.9988    0.1181   21.7349 H   0  0  0  0  0  0  0  0  0  0  0  0
    7.8750   -0.8471   20.5467 H   0  0  0  0  0  0  0  0  0  0  0  0
    7.2196   -4.9987   21.6598 C   0  0  0  0  0  0  0  0  0  0  0  0
    6.7875   -6.3174   21.6432 C   0  0  0  0  0  0  0  0  0  0  0  0
    5.7240   -6.6872   22.4545 C   0  0  0  0  0  0  0  0  0  0  0  0
    5.0785   -5.7413   23.2454 C   0  0  0  0  0  0  0  0  0  0  0  0
    5.4166   -7.7197   22.5214 H   0  0  0  0  0  0  0  0  0  0  0  0
    7.2635   -7.0434   20.9953 H   0  0  0  0  0  0  0  0  0  0  0  0
    8.1360   -4.7200   21.1488 H   0  0  0  0  0  0  0  0  0  0  0  0
    5.4864   -2.6126   24.3960 H   0  0  0  0  0  0  0  0  0  0  0  0
    3.9994   -2.8607   23.5125 H   0  0  0  0  0  0  0  0  0  0  0  0
    4.9319   -4.4694   25.9521 H   0  0  0  0  0  0  0  0  0  0  0  0
    3.6202   -3.2983   25.9274 H   0  0  0  0  0  0  0  0  0  0  0  0
    2.4240   -4.7433   24.2011 H   0  0  0  0  0  0  0  0  0  0  0  0
    2.6592   -5.5528   25.7644 H   0  0  0  0  0  0  0  0  0  0  0  0
    4.4134   -6.7917   24.9248 H   0  0  0  0  0  0  0  0  0  0  0  0
    3.8119   -8.7375   24.8318 H   0  0  0  0  0  0  0  0  0  0  0  0
    3.1128   -9.3762   23.3284 H   0  0  0  0  0  0  0  0  0  0  0  0
    0.8215   -8.6776   24.0630 H   0  0  0  0  0  0  0  0  0  0  0  0
    1.4751   -8.1441   25.6256 H   0  0  0  0  0  0  0  0  0  0  0  0
    1.5085   -9.8734   25.1911 H   0  0  0  0  0  0  0  0  0  0  0  0
  1  2  1  0
  2  3  1  0
  3  4  2  0
  3  5  1  0
  5  6  1  0
  6  7  1  0
  7  8  1  0
  8  9  1  0
  9 10  2  0
 10 11  1  0
 11 12  1  0
 12 13  1  0
 13 14  2  0
 14 15  1  0
 15 16  2  0
 16 17  1  0
 17 18  1  0
 17 19  2  0
 19 20  1  0
 16 21  1  0
 15 22  1  0
 14 23  1  0
 12 24  1  0
 12 25  1  0
 11 26  1  0
 26 27  2  0
 26 28  1  0
 28 29  1  0
 29 30  2  0
 30 31  1  0
 31 32  2  0
 32 33  1  0
 33 34  2  0
 34 35  1  0
 35 36  2  0
 36 37  1  0
 37 38  2  0
 37 39  1  0
 36 40  1  0
 35 41  1  0
 34 42  1  0
 32 43  1  0
 30 44  1  0
 28 45  1  0
 28 46  1  0
 10 47  1  0
 47 48  2  0
 48 49  1  0
 49 50  2  0
 49 51  1  0
 48 52  1  0
 47 53  1  0
  8 54  1  0
  8 55  1  0
  7 56  1  0
  7 57  1  0
  6 58  1  0
  6 59  1  0
  5 60  1  1
  2 61  1  0
  2 62  1  0
  1 63  1  0
  1 64  1  0
  1 65  1  0
 50  5  1  0
 50  9  1  0
 19 13  1  0
 38 29  1  0
 38 33  1  0
M  CHG  1   5   1
M  END
>  <cnnaffinities>  (68) 
[6.63471, 6.62916]

>  <score>  (68) 
6.63471

>  <index>  (68) 
94

>  <Smiles>  (68) 
C(C(C(=O)[N@@+]1(C(C(C(c2c(N(C(c3c(c(c(c(Cl)c3[H])[H])[H])[H])([H])[H])C(=O)C(c3c(nc(c4c(c(c(c(c34)[H])[H])[H])[H])[H])[H])([H])[H])c(c(c(c12)[H])[H])[H])([H])[H])([H])[H])([H])[H])[H])([H])[H])([H])([H])[H]

>  <h>  (68) 
<NA>

>  <Training>  (68) 
True

>  <Success>  (68) 
True

>  <enamine_searched>  (68) 
False

>  <enamine_id>  (68) 
nan

$$$$

     RDKit          3D

 67 71  0  0  0  0  0  0  0  0999 V2000
    7.4671   -8.3823   23.0734 C   0  0  0  0  0  0  0  0  0  0  0  0
    6.5798   -7.3316   22.6288 N   0  0  0  0  0  0  0  0  0  0  0  0
    6.9169   -6.5233   21.5879 C   0  0  0  0  0  0  0  0  0  0  0  0
    7.8156   -6.7642   20.8048 O   0  0  0  0  0  0  0  0  0  0  0  0
    6.1048   -5.2195   21.5073 C   0  0  0  0  0  0  0  0  0  0  0  0
    6.5774   -4.2711   22.5004 N   0  0  0  0  0  0  0  0  0  0  0  0
    7.7157   -3.3990   22.2421 C   0  0  0  0  0  0  0  0  0  0  0  0
    7.3756   -1.9404   22.6216 C   0  0  2  0  0  0  0  0  0  0  0  0
    6.2783   -1.4409   21.6502 C   0  0  0  0  0  0  0  0  0  0  0  0
    5.1386   -1.8489   21.5618 O   0  0  0  0  0  0  0  0  0  0  0  0
    6.8184   -0.4651   20.8356 N   0  0  0  0  0  0  0  0  0  0  0  0
    6.0971    0.0823   19.7617 C   0  0  0  0  0  0  0  0  0  0  0  0
    6.4614   -0.2018   18.4702 C   0  0  0  0  0  0  0  0  0  0  0  0
    5.8030    0.2445   17.3748 N   0  0  0  0  0  0  0  0  0  0  0  0
    4.7652    1.0199   17.5844 C   0  0  0  0  0  0  0  0  0  0  0  0
    4.3075    1.4167   18.8727 C   0  0  0  0  0  0  0  0  0  0  0  0
    3.1892    2.2723   19.0334 C   0  0  0  0  0  0  0  0  0  0  0  0
    2.7878    2.6599   20.2815 C   0  0  0  0  0  0  0  0  0  0  0  0
    3.4837    2.2155   21.4280 C   0  0  0  0  0  0  0  0  0  0  0  0
    4.5668    1.3820   21.3024 C   0  0  0  0  0  0  0  0  0  0  0  0
    4.9927    0.9513   20.0114 C   0  0  0  0  0  0  0  0  0  0  0  0
    5.0998    1.0406   22.1859 H   0  0  0  0  0  0  0  0  0  0  0  0
    3.1557    2.5354   22.4132 H   0  0  0  0  0  0  0  0  0  0  0  0
    1.9347    3.3210   20.4008 H   0  0  0  0  0  0  0  0  0  0  0  0
    2.6798    2.6230   18.1418 H   0  0  0  0  0  0  0  0  0  0  0  0
    4.2301    1.3783   16.7070 H   0  0  0  0  0  0  0  0  0  0  0  0
    7.3116   -0.8579   18.2835 H   0  0  0  0  0  0  0  0  0  0  0  0
    8.2580   -0.3990   20.9129 C   0  0  0  0  0  0  0  0  0  0  0  0
    8.5359   -0.9444   22.3148 C   0  0  2  0  0  0  0  0  0  0  0  0
    9.9741   -1.4448   22.3943 C   0  0  0  0  0  0  0  0  0  0  0  0
   10.5092   -1.5121   24.0952 S   0  0  0  0  0  0  0  0  0  0  0  0
   10.3979   -0.1531   24.6011 O   0  0  0  0  0  0  0  0  0  0  0  0
    9.8529   -2.6326   24.7488 O   0  0  0  0  0  0  0  0  0  0  0  0
   12.1189   -1.9168   24.0275 N   0  0  0  0  0  0  0  0  0  0  0  0
   13.0826   -0.9151   23.6035 C   0  0  0  0  0  0  0  0  0  0  0  0
   14.0887   -1.2863   23.8276 H   0  0  0  0  0  0  0  0  0  0  0  0
   12.9158   -0.0000   24.1719 H   0  0  0  0  0  0  0  0  0  0  0  0
   13.0388   -0.7216   22.5237 H   0  0  0  0  0  0  0  0  0  0  0  0
   12.3718   -3.2507   23.5238 C   0  0  0  0  0  0  0  0  0  0  0  0
   11.7189   -3.9452   24.0529 H   0  0  0  0  0  0  0  0  0  0  0  0
   12.2092   -3.3559   22.4419 H   0  0  0  0  0  0  0  0  0  0  0  0
   13.4130   -3.4794   23.7473 H   0  0  0  0  0  0  0  0  0  0  0  0
   10.0892   -2.4316   21.9308 H   0  0  0  0  0  0  0  0  0  0  0  0
   10.6396   -0.7376   21.8900 H   0  0  0  0  0  0  0  0  0  0  0  0
    8.4290   -0.0959   22.9915 H   0  0  0  0  0  0  0  0  0  0  0  0
    8.6018    0.6343   20.7953 H   0  0  0  0  0  0  0  0  0  0  0  0
    8.7451   -1.0078   20.1352 H   0  0  0  0  0  0  0  0  0  0  0  0
    6.8911   -1.9949   24.0654 C   0  0  0  0  0  0  0  0  0  0  0  0
    6.9054   -0.8676   24.8929 C   0  0  0  0  0  0  0  0  0  0  0  0
    6.4480   -0.9618   26.1959 C   0  0  0  0  0  0  0  0  0  0  0  0
    6.4448    0.1460   26.9593 F   0  0  0  0  0  0  0  0  0  0  0  0
    5.9986   -2.1547   26.7525 C   0  0  0  0  0  0  0  0  0  0  0  0
    5.9604   -3.2689   25.9420 C   0  0  0  0  0  0  0  0  0  0  0  0
    6.3540   -3.1771   24.6108 C   0  0  0  0  0  0  0  0  0  0  0  0
    6.0822   -4.3550   23.7557 C   0  0  0  0  0  0  0  0  0  0  0  0
    5.4114   -5.3195   24.1460 O   0  0  0  0  0  0  0  0  0  0  0  0
    5.6059   -4.2277   26.3063 H   0  0  0  0  0  0  0  0  0  0  0  0
    5.6587   -2.1874   27.7808 H   0  0  0  0  0  0  0  0  0  0  0  0
    7.2694    0.0909   24.5444 H   0  0  0  0  0  0  0  0  0  0  0  0
    8.5765   -3.7317   22.8393 H   0  0  0  0  0  0  0  0  0  0  0  0
    7.9695   -3.4604   21.1902 H   0  0  0  0  0  0  0  0  0  0  0  0
    6.2278   -4.7696   20.5193 H   0  0  0  0  0  0  0  0  0  0  0  0
    5.0316   -5.3919   21.6710 H   0  0  0  0  0  0  0  0  0  0  0  0
    5.9921   -6.9225   23.3474 H   0  0  0  0  0  0  0  0  0  0  0  0
    8.3914   -8.0152   23.5335 H   0  0  0  0  0  0  0  0  0  0  0  0
    7.7476   -9.0375   22.2575 H   0  0  0  0  0  0  0  0  0  0  0  0
    6.9459   -8.9836   23.8143 H   0  0  0  0  0  0  0  0  0  0  0  0
  1  2  1  0
  2  3  1  0
  3  4  2  0
  3  5  1  0
  5  6  1  0
  6  7  1  0
  8  7  1  6
  8  9  1  0
  9 10  2  0
  9 11  1  0
 11 12  1  0
 12 13  2  0
 13 14  1  0
 14 15  2  0
 15 16  1  0
 16 17  2  0
 17 18  1  0
 18 19  2  0
 19 20  1  0
 20 21  2  0
 20 22  1  0
 19 23  1  0
 18 24  1  0
 17 25  1  0
 15 26  1  0
 13 27  1  0
 11 28  1  0
 28 29  1  0
 29 30  1  0
 30 31  1  0
 31 32  2  0
 31 33  2  0
 31 34  1  0
 34 35  1  0
 35 36  1  0
 35 37  1  0
 35 38  1  0
 34 39  1  0
 39 40  1  0
 39 41  1  0
 39 42  1  0
 30 43  1  0
 30 44  1  0
 29 45  1  1
 28 46  1  0
 28 47  1  0
  8 48  1  0
 48 49  2  0
 49 50  1  0
 50 51  1  0
 50 52  2  0
 52 53  1  0
 53 54  2  0
 54 55  1  0
 55 56  2  0
 53 57  1  0
 52 58  1  0
 49 59  1  0
  7 60  1  0
  7 61  1  0
  5 62  1  0
  5 63  1  0
  2 64  1  0
  1 65  1  0
  1 66  1  0
  1 67  1  0
 55  6  1  0
 29  8  1  0
 54 48  1  0
 21 12  1  0
 21 16  1  0
M  END
>  <cnnaffinities>  (69) 
[6.9943]

>  <score>  (69) 
6.9943

>  <index>  (69) 
95

>  <Smiles>  (69) 
C(N(C(=O)C(N1C([C@@]2(C(=O)N(c3c(nc(c4c(c(c(c(c34)[H])[H])[H])[H])[H])[H])C([C@@]2(C(S(=O)(=O)N(C([H])([H])[H])C([H])([H])[H])([H])[H])[H])([H])[H])c2c(c(F)c(c(c2C1=O)[H])[H])[H])([H])[H])([H])[H])[H])([H])([H])[H]

>  <h>  (69) 
<NA>

>  <Training>  (69) 
True

>  <Success>  (69) 
True

>  <enamine_searched>  (69) 
False

>  <enamine_id>  (69) 
nan

$$$$

     RDKit          3D

 37 39  0  0  0  0  0  0  0  0999 V2000
    5.8627   -2.6567   20.8459 O   0  0  0  0  0  0  0  0  0  0  0  0
    6.1803   -1.6985   21.5317 C   0  0  0  0  0  0  0  0  0  0  0  0
    6.9028   -0.4901   20.9151 C   0  0  0  0  0  0  0  0  0  0  0  0
    6.1122    0.0955   19.7647 C   0  0  0  0  0  0  0  0  0  0  0  0
    6.4225   -0.2116   18.4644 C   0  0  0  0  0  0  0  0  0  0  0  0
    5.7582    0.2401   17.3638 N   0  0  0  0  0  0  0  0  0  0  0  0
    4.7365    1.0302   17.5760 C   0  0  0  0  0  0  0  0  0  0  0  0
    4.2858    1.4250   18.8636 C   0  0  0  0  0  0  0  0  0  0  0  0
    3.1642    2.2747   19.0432 C   0  0  0  0  0  0  0  0  0  0  0  0
    2.7498    2.6284   20.2957 C   0  0  0  0  0  0  0  0  0  0  0  0
    3.4429    2.1454   21.4301 C   0  0  0  0  0  0  0  0  0  0  0  0
    4.5319    1.3220   21.2850 C   0  0  0  0  0  0  0  0  0  0  0  0
    4.9882    0.9420   19.9971 C   0  0  0  0  0  0  0  0  0  0  0  0
    5.0454    0.9554   22.1701 H   0  0  0  0  0  0  0  0  0  0  0  0
    3.1047    2.4296   22.4213 H   0  0  0  0  0  0  0  0  0  0  0  0
    1.8913    3.2825   20.4335 H   0  0  0  0  0  0  0  0  0  0  0  0
    2.6443    2.6450   18.1606 H   0  0  0  0  0  0  0  0  0  0  0  0
    4.1994    1.3989   16.6981 H   0  0  0  0  0  0  0  0  0  0  0  0
    7.2659   -0.8659   18.2446 H   0  0  0  0  0  0  0  0  0  0  0  0
    7.1507    0.2723   21.6658 H   0  0  0  0  0  0  0  0  0  0  0  0
    7.8570   -0.8585   20.5175 H   0  0  0  0  0  0  0  0  0  0  0  0
    5.8629   -1.6492   22.8573 N   0  0  0  0  0  0  0  0  0  0  0  0
    5.2075   -2.7748   23.5116 C   0  0  0  0  0  0  0  0  0  0  0  0
    6.0988   -3.9799   23.6879 C   0  0  0  0  0  0  0  0  0  0  0  0
    7.1484   -3.9414   24.6014 C   0  0  0  0  0  0  0  0  0  0  0  0
    8.0077   -5.0223   24.7335 C   0  0  0  0  0  0  0  0  0  0  0  0
    7.8311   -6.1610   23.9646 C   0  0  0  0  0  0  0  0  0  0  0  0
    6.7903   -6.1794   23.0479 C   0  0  0  0  0  0  0  0  0  0  0  0
    6.5570   -7.5842   22.0682 Cl  0  0  0  0  0  0  0  0  0  0  0  0
    5.9195   -5.1121   22.9016 C   0  0  0  0  0  0  0  0  0  0  0  0
    5.1280   -5.1521   22.1564 H   0  0  0  0  0  0  0  0  0  0  0  0
    8.5093   -7.0057   24.0446 H   0  0  0  0  0  0  0  0  0  0  0  0
    8.8280   -4.9858   25.4406 H   0  0  0  0  0  0  0  0  0  0  0  0
    7.2993   -3.0581   25.2140 H   0  0  0  0  0  0  0  0  0  0  0  0
    4.3181   -3.0413   22.9432 H   0  0  0  0  0  0  0  0  0  0  0  0
    4.8638   -2.4272   24.4866 H   0  0  0  0  0  0  0  0  0  0  0  0
    6.1688   -0.8781   23.4177 H   0  0  0  0  0  0  0  0  0  0  0  0
  1  2  2  0
  2  3  1  0
  3  4  1  0
  4  5  2  0
  5  6  1  0
  6  7  2  0
  7  8  1  0
  8  9  2  0
  9 10  1  0
 10 11  2  0
 11 12  1  0
 12 13  2  0
 12 14  1  0
 11 15  1  0
 10 16  1  0
  9 17  1  0
  7 18  1  0
  5 19  1  0
  3 20  1  0
  3 21  1  0
  2 22  1  0
 22 23  1  0
 23 24  1  0
 24 25  2  0
 25 26  1  0
 26 27  2  0
 27 28  1  0
 28 29  1  0
 28 30  2  0
 30 31  1  0
 27 32  1  0
 26 33  1  0
 25 34  1  0
 23 35  1  0
 23 36  1  0
 22 37  1  0
 13  4  1  0
 30 24  1  0
 13  8  1  0
M  END
>  <cnnaffinities>  (70) 
[4.73395, 4.87936, 4.5169]

>  <score>  (70) 
4.73395

>  <index>  (70) 
96

>  <Smiles>  (70) 
O=C(C(c1c(nc(c2c(c(c(c(c12)[H])[H])[H])[H])[H])[H])([H])[H])N(C(c1c(c(c(c(Cl)c1[H])[H])[H])[H])([H])[H])[H]

>  <h>  (70) 
<NA>

>  <Training>  (70) 
True

>  <Success>  (70) 
True

>  <enamine_searched>  (70) 
False

>  <enamine_id>  (70) 
nan

$$$$
