
     RDKit          3D

 63 69  0  0  0  0  0  0  0  0999 V2000
    9.5809    2.4461   25.4793 O   0  0  0  0  0  0  0  0  0  0  0  0
    9.2113    1.5640   24.7192 C   0  0  0  0  0  0  0  0  0  0  0  0
   10.1729    0.7832   23.8868 C   0  0  0  0  0  0  0  0  0  0  0  0
   11.5201    1.0773   24.0561 C   0  0  0  0  0  0  0  0  0  0  0  0
   12.4737    0.4942   23.2493 C   0  0  0  0  0  0  0  0  0  0  0  0
   12.0379   -0.3789   22.2524 C   0  0  0  0  0  0  0  0  0  0  0  0
   13.2067   -1.1128   21.1961 Cl  0  0  0  0  0  0  0  0  0  0  0  0
   10.7009   -0.6860   22.0754 C   0  0  0  0  0  0  0  0  0  0  0  0
    9.7404   -0.1437   22.9345 C   0  0  0  0  0  0  0  0  0  0  0  0
    8.2720   -0.4592   22.7437 C   0  0  1  0  0  0  0  0  0  0  0  0
    7.5284   -0.0853   24.0527 C   0  0  0  0  0  0  0  0  0  0  0  0
    7.8959    1.2343   24.5283 N   0  0  0  0  0  0  0  0  0  0  0  0
    6.8986    2.1724   24.9663 C   0  0  0  0  0  0  0  0  0  0  0  0
    6.6454    3.2460   23.9532 C   0  0  0  0  0  0  0  0  0  0  0  0
    5.5000    3.7635   23.6496 N   0  0  0  0  0  0  0  0  0  0  0  0
    5.7600    4.7662   22.7189 N   0  0  0  0  0  0  0  0  0  0  0  0
    7.0343    4.7640   22.5474 C   0  0  0  0  0  0  0  0  0  0  0  0
    7.6684    3.8320   23.2961 O   0  0  0  0  0  0  0  0  0  0  0  0
    7.6065    5.4092   21.8955 H   0  0  0  0  0  0  0  0  0  0  0  0
    7.2474    2.6239   25.9012 H   0  0  0  0  0  0  0  0  0  0  0  0
    5.9571    1.6525   25.1546 H   0  0  0  0  0  0  0  0  0  0  0  0
    7.7938   -0.8247   24.8179 H   0  0  0  0  0  0  0  0  0  0  0  0
    6.4421   -0.1225   23.8959 H   0  0  0  0  0  0  0  0  0  0  0  0
    7.7090    0.3735   21.5738 C   0  0  0  0  0  0  0  0  0  0  0  0
    7.9066    1.5441   21.3521 O   0  0  0  0  0  0  0  0  0  0  0  0
    6.9091   -0.4427   20.8081 N   0  0  0  0  0  0  0  0  0  0  0  0
    6.1179    0.0693   19.7581 C   0  0  0  0  0  0  0  0  0  0  0  0
    6.4425   -0.2480   18.4650 C   0  0  0  0  0  0  0  0  0  0  0  0
    5.7867    0.2082   17.3708 N   0  0  0  0  0  0  0  0  0  0  0  0
    4.7591    0.9973   17.5853 C   0  0  0  0  0  0  0  0  0  0  0  0
    4.3007    1.3802   18.8784 C   0  0  0  0  0  0  0  0  0  0  0  0
    3.1722    2.2257   19.0456 C   0  0  0  0  0  0  0  0  0  0  0  0
    2.7374    2.5692   20.2938 C   0  0  0  0  0  0  0  0  0  0  0  0
    3.4091    2.0880   21.4413 C   0  0  0  0  0  0  0  0  0  0  0  0
    4.5121    1.2799   21.3103 C   0  0  0  0  0  0  0  0  0  0  0  0
    4.9887    0.9079   20.0170 C   0  0  0  0  0  0  0  0  0  0  0  0
    5.0169    0.9184   22.2038 H   0  0  0  0  0  0  0  0  0  0  0  0
    3.0502    2.3676   22.4286 H   0  0  0  0  0  0  0  0  0  0  0  0
    1.8741    3.2170   20.4099 H   0  0  0  0  0  0  0  0  0  0  0  0
    2.6776    2.6019   18.1545 H   0  0  0  0  0  0  0  0  0  0  0  0
    4.2205    1.3710   16.7140 H   0  0  0  0  0  0  0  0  0  0  0  0
    7.3022   -0.8910   18.2831 H   0  0  0  0  0  0  0  0  0  0  0  0
    6.7701   -1.7868   21.3147 C   0  0  0  0  0  0  0  0  0  0  0  0
    7.9573   -1.9189   22.2862 C   0  0  2  0  0  0  0  0  0  0  0  0
    7.6809   -2.9473   23.4000 C   0  0  0  0  0  0  0  0  0  0  0  0
    7.4731   -4.2936   22.8874 N   0  0  0  0  0  0  0  0  0  0  0  0
    6.2616   -4.8734   22.7351 C   0  0  0  0  0  0  0  0  0  0  0  0
    5.1490   -4.1813   23.0663 N   0  0  0  0  0  0  0  0  0  0  0  0
    4.0080   -4.7714   22.7190 C   0  0  0  0  0  0  0  0  0  0  0  0
    3.8750   -5.9529   22.1201 N   0  0  0  0  0  0  0  0  0  0  0  0
    5.0413   -6.5742   21.9087 C   0  0  0  0  0  0  0  0  0  0  0  0
    6.2448   -6.1197   22.2127 N   0  0  0  0  0  0  0  0  0  0  0  0
    4.9941   -7.5420   21.4009 H   0  0  0  0  0  0  0  0  0  0  0  0
    3.0839   -4.2267   22.9153 H   0  0  0  0  0  0  0  0  0  0  0  0
    8.2621   -4.8955   22.7076 H   0  0  0  0  0  0  0  0  0  0  0  0
    6.7454   -2.6975   23.9002 H   0  0  0  0  0  0  0  0  0  0  0  0
    8.4844   -2.9590   24.1522 H   0  0  0  0  0  0  0  0  0  0  0  0
    8.8184   -2.2861   21.7199 H   0  0  0  0  0  0  0  0  0  0  0  0
    6.8036   -2.5016   20.4885 H   0  0  0  0  0  0  0  0  0  0  0  0
    5.8059   -1.9119   21.8310 H   0  0  0  0  0  0  0  0  0  0  0  0
   10.4174   -1.3382   21.2559 H   0  0  0  0  0  0  0  0  0  0  0  0
   13.5280    0.7229   23.3645 H   0  0  0  0  0  0  0  0  0  0  0  0
   11.7636    1.7895   24.8290 H   0  0  0  0  0  0  0  0  0  0  0  0
  1  2  2  0
  2  3  1  0
  3  4  2  0
  4  5  1  0
  5  6  2  0
  6  7  1  0
  6  8  1  0
  8  9  2  0
  9 10  1  0
 10 11  1  1
 11 12  1  0
 12 13  1  0
 13 14  1  0
 14 15  2  0
 15 16  1  0
 16 17  2  0
 17 18  1  0
 17 19  1  0
 13 20  1  0
 13 21  1  0
 11 22  1  0
 11 23  1  0
 10 24  1  0
 24 25  2  0
 24 26  1  0
 26 27  1  0
 27 28  2  0
 28 29  1  0
 29 30  2  0
 30 31  1  0
 31 32  2  0
 32 33  1  0
 33 34  2  0
 34 35  1  0
 35 36  2  0
 35 37  1  0
 34 38  1  0
 33 39  1  0
 32 40  1  0
 30 41  1  0
 28 42  1  0
 26 43  1  0
 43 44  1  0
 44 45  1  0
 45 46  1  0
 46 47  1  0
 47 48  2  0
 48 49  1  0
 49 50  2  0
 50 51  1  0
 51 52  2  0
 51 53  1  0
 49 54  1  0
 46 55  1  0
 45 56  1  0
 45 57  1  0
 44 58  1  6
 43 59  1  0
 43 60  1  0
  8 61  1  0
  5 62  1  0
  4 63  1  0
 12  2  1  0
 18 14  1  0
 36 27  1  0
 52 47  1  0
  9  3  1  0
 44 10  1  0
 36 31  1  0
M  END
>  <cnnaffinities>  (1) 
[6.61999, 6.7116]

>  <score>  (1) 
6.61999

>  <index>  (1) 
0

>  <Smiles>  (1) 
O=C1c2c(c(c(Cl)c(c2[C@@]2(C(N1C(c1nnc(o1)[H])([H])[H])([H])[H])C(=O)N(c1c(nc(c3c(c(c(c(c13)[H])[H])[H])[H])[H])[H])C([C@@]2(C(N(c1nc(nc(n1)[H])[H])[H])([H])[H])[H])([H])[H])[H])[H])[H]

>  <h>  (1) 
<NA>

>  <Training>  (1) 
True

>  <Success>  (1) 
True

>  <enamine_searched>  (1) 
False

>  <enamine_id>  (1) 
nan

$$$$

     RDKit          3D

 51 54  0  0  0  0  0  0  0  0999 V2000
   12.6028   -0.5894   24.9102 C   0  0  0  0  0  0  0  0  0  0  0  0
   12.2354   -1.5441   23.9492 O   0  0  0  0  0  0  0  0  0  0  0  0
   10.9355   -1.6448   23.5679 C   0  0  0  0  0  0  0  0  0  0  0  0
   10.7579   -2.5452   22.5218 C   0  0  0  0  0  0  0  0  0  0  0  0
    9.5066   -2.8444   22.0356 C   0  0  0  0  0  0  0  0  0  0  0  0
    8.3908   -2.2154   22.5715 C   0  0  0  0  0  0  0  0  0  0  0  0
    7.0986   -2.5998   22.1046 N   0  0  0  0  0  0  0  0  0  0  0  0
    6.5843   -3.9049   22.4864 C   0  0  0  0  0  0  0  0  0  0  0  0
    6.0249   -3.8533   23.8870 C   0  0  0  0  0  0  0  0  0  0  0  0
    6.8840   -3.7882   24.9838 C   0  0  0  0  0  0  0  0  0  0  0  0
    6.3646   -3.7088   26.2706 C   0  0  0  0  0  0  0  0  0  0  0  0
    4.9870   -3.6353   26.4638 C   0  0  0  0  0  0  0  0  0  0  0  0
    4.1461   -3.6594   25.3631 C   0  0  0  0  0  0  0  0  0  0  0  0
    2.4335   -3.4973   25.5832 Cl  0  0  0  0  0  0  0  0  0  0  0  0
    4.6524   -3.7883   24.0798 C   0  0  0  0  0  0  0  0  0  0  0  0
    3.9771   -3.7979   23.2299 H   0  0  0  0  0  0  0  0  0  0  0  0
    4.5698   -3.5848   27.4629 H   0  0  0  0  0  0  0  0  0  0  0  0
    7.0318   -3.6960   27.1292 H   0  0  0  0  0  0  0  0  0  0  0  0
    7.9659   -3.7912   24.8287 H   0  0  0  0  0  0  0  0  0  0  0  0
    5.8016   -4.1359   21.7598 H   0  0  0  0  0  0  0  0  0  0  0  0
    7.3949   -4.6456   22.4237 H   0  0  0  0  0  0  0  0  0  0  0  0
    6.2602   -1.7696   21.4007 C   0  0  0  0  0  0  0  0  0  0  0  0
    5.0958   -2.0524   21.1746 O   0  0  0  0  0  0  0  0  0  0  0  0
    6.9208   -0.4986   20.8693 C   0  0  0  0  0  0  0  0  0  0  0  0
    6.1309    0.0859   19.7470 C   0  0  0  0  0  0  0  0  0  0  0  0
    6.4443   -0.2246   18.4512 C   0  0  0  0  0  0  0  0  0  0  0  0
    5.7796    0.2179   17.3514 N   0  0  0  0  0  0  0  0  0  0  0  0
    4.7465    0.9977   17.5710 C   0  0  0  0  0  0  0  0  0  0  0  0
    4.2894    1.3761   18.8625 C   0  0  0  0  0  0  0  0  0  0  0  0
    3.1711    2.2287   19.0410 C   0  0  0  0  0  0  0  0  0  0  0  0
    2.7642    2.5846   20.2975 C   0  0  0  0  0  0  0  0  0  0  0  0
    3.4448    2.0946   21.4295 C   0  0  0  0  0  0  0  0  0  0  0  0
    4.5256    1.2601   21.2870 C   0  0  0  0  0  0  0  0  0  0  0  0
    4.9861    0.8938   19.9924 C   0  0  0  0  0  0  0  0  0  0  0  0
    5.0284    0.8768   22.1684 H   0  0  0  0  0  0  0  0  0  0  0  0
    3.1182    2.3942   22.4213 H   0  0  0  0  0  0  0  0  0  0  0  0
    1.9193    3.2549   20.4273 H   0  0  0  0  0  0  0  0  0  0  0  0
    2.6679    2.6133   18.1584 H   0  0  0  0  0  0  0  0  0  0  0  0
    4.2104    1.3760   16.6986 H   0  0  0  0  0  0  0  0  0  0  0  0
    7.2972   -0.8711   18.2433 H   0  0  0  0  0  0  0  0  0  0  0  0
    7.0354    0.2162   21.6974 H   0  0  0  0  0  0  0  0  0  0  0  0
    7.9368   -0.7540   20.5371 H   0  0  0  0  0  0  0  0  0  0  0  0
    8.5730   -1.2660   23.5746 C   0  0  0  0  0  0  0  0  0  0  0  0
    9.8362   -0.9801   24.1001 C   0  0  0  0  0  0  0  0  0  0  0  0
    9.9338   -0.2643   24.9113 H   0  0  0  0  0  0  0  0  0  0  0  0
    7.7039   -0.7905   24.0156 H   0  0  0  0  0  0  0  0  0  0  0  0
    9.4036   -3.5652   21.2323 H   0  0  0  0  0  0  0  0  0  0  0  0
   11.6506   -3.0077   22.1368 H   0  0  0  0  0  0  0  0  0  0  0  0
   12.3366    0.4205   24.5777 H   0  0  0  0  0  0  0  0  0  0  0  0
   13.6887   -0.6667   25.0118 H   0  0  0  0  0  0  0  0  0  0  0  0
   12.1303   -0.7946   25.8786 H   0  0  0  0  0  0  0  0  0  0  0  0
  1  2  1  0
  2  3  1  0
  3  4  2  0
  4  5  1  0
  5  6  2  0
  6  7  1  0
  7  8  1  0
  8  9  1  0
  9 10  2  0
 10 11  1  0
 11 12  2  0
 12 13  1  0
 13 14  1  0
 13 15  2  0
 15 16  1  0
 12 17  1  0
 11 18  1  0
 10 19  1  0
  8 20  1  0
  8 21  1  0
  7 22  1  0
 22 23  2  0
 22 24  1  0
 24 25  1  0
 25 26  2  0
 26 27  1  0
 27 28  2  0
 28 29  1  0
 29 30  2  0
 30 31  1  0
 31 32  2  0
 32 33  1  0
 33 34  2  0
 33 35  1  0
 32 36  1  0
 31 37  1  0
 30 38  1  0
 28 39  1  0
 26 40  1  0
 24 41  1  0
 24 42  1  0
  6 43  1  0
 43 44  2  0
 44 45  1  0
 43 46  1  0
  5 47  1  0
  4 48  1  0
  1 49  1  0
  1 50  1  0
  1 51  1  0
 44  3  1  0
 15  9  1  0
 34 25  1  0
 34 29  1  0
M  END
>  <cnnaffinities>  (2) 
[5.44584, 5.04087, 5.71632, 5.05326, 5.65515]

>  <score>  (2) 
5.44584

>  <index>  (2) 
1

>  <Smiles>  (2) 
C(Oc1c(c(c(N(C(c2c(c(c(c(Cl)c2[H])[H])[H])[H])([H])[H])C(=O)C(c2c(nc(c3c(c(c(c(c23)[H])[H])[H])[H])[H])[H])([H])[H])c(c1[H])[H])[H])[H])([H])([H])[H]

>  <h>  (2) 
<NA>

>  <Training>  (2) 
True

>  <Success>  (2) 
True

>  <enamine_searched>  (2) 
False

>  <enamine_id>  (2) 
nan

$$$$

     RDKit          3D

 56 60  0  0  0  0  0  0  0  0999 V2000
    6.7293    4.4682   21.3321 C   0  0  0  0  0  0  0  0  0  0  0  0
    7.6002    4.0590   22.4204 N   0  0  0  0  0  0  0  0  0  0  0  0
    7.0381    3.3780   23.4467 C   0  0  0  0  0  0  0  0  0  0  0  0
    5.8253    3.2355   23.5479 O   0  0  0  0  0  0  0  0  0  0  0  0
    7.9854    2.8028   24.5131 C   0  0  0  0  0  0  0  0  0  0  0  0
    8.7321    1.6377   24.0736 N   0  0  0  0  0  0  0  0  0  0  0  0
    8.0287    0.3747   23.9369 C   0  0  0  0  0  0  0  0  0  0  0  0
    8.4676   -0.3759   22.6571 C   0  0  2  0  0  0  0  0  0  0  0  0
    7.9347    0.3547   21.3939 C   0  0  0  0  0  0  0  0  0  0  0  0
    8.3194    1.4107   20.9434 O   0  0  0  0  0  0  0  0  0  0  0  0
    6.9343   -0.4035   20.8288 N   0  0  0  0  0  0  0  0  0  0  0  0
    6.1478    0.1114   19.7613 C   0  0  0  0  0  0  0  0  0  0  0  0
    6.4566   -0.2118   18.4662 C   0  0  0  0  0  0  0  0  0  0  0  0
    5.7707    0.2247   17.3785 N   0  0  0  0  0  0  0  0  0  0  0  0
    4.7454    1.0142   17.5916 C   0  0  0  0  0  0  0  0  0  0  0  0
    4.2939    1.4148   18.8808 C   0  0  0  0  0  0  0  0  0  0  0  0
    3.1692    2.2668   19.0645 C   0  0  0  0  0  0  0  0  0  0  0  0
    2.7625    2.6310   20.3186 C   0  0  0  0  0  0  0  0  0  0  0  0
    3.4586    2.1538   21.4526 C   0  0  0  0  0  0  0  0  0  0  0  0
    4.5494    1.3307   21.3011 C   0  0  0  0  0  0  0  0  0  0  0  0
    5.0101    0.9464   20.0110 C   0  0  0  0  0  0  0  0  0  0  0  0
    5.0777    0.9772   22.1824 H   0  0  0  0  0  0  0  0  0  0  0  0
    3.1527    2.4565   22.4484 H   0  0  0  0  0  0  0  0  0  0  0  0
    1.9164    3.3008   20.4450 H   0  0  0  0  0  0  0  0  0  0  0  0
    2.6627    2.6445   18.1800 H   0  0  0  0  0  0  0  0  0  0  0  0
    4.2164    1.3798   16.7111 H   0  0  0  0  0  0  0  0  0  0  0  0
    7.2994   -0.8657   18.2539 H   0  0  0  0  0  0  0  0  0  0  0  0
    6.6086   -1.6164   21.5489 C   0  0  0  0  0  0  0  0  0  0  0  0
    7.7854   -1.7748   22.5315 C   0  0  2  0  0  0  0  0  0  0  0  0
    7.3283   -2.3900   23.8414 N   0  0  0  0  0  4  0  0  0  0  0  0
    6.5985   -1.8008   24.2784 H   0  0  0  0  0  0  0  0  0  0  0  0
    8.1174   -2.4837   24.5007 H   0  0  0  0  0  0  0  0  0  0  0  0
    6.9378   -3.3338   23.6759 H   0  0  0  0  0  0  0  0  0  0  0  0
    8.5176   -2.4577   22.1159 H   0  0  0  0  0  0  0  0  0  0  0  0
    5.6575   -1.5227   22.0969 H   0  0  0  0  0  0  0  0  0  0  0  0
    6.5051   -2.4524   20.8483 H   0  0  0  0  0  0  0  0  0  0  0  0
    9.9850   -0.3942   22.6037 C   0  0  0  0  0  0  0  0  0  0  0  0
   10.6482   -1.2634   21.7256 C   0  0  0  0  0  0  0  0  0  0  0  0
   12.0291   -1.2464   21.6556 C   0  0  0  0  0  0  0  0  0  0  0  0
   12.8609   -2.2802   20.5321 Cl  0  0  0  0  0  0  0  0  0  0  0  0
   12.7916   -0.3756   22.4329 C   0  0  0  0  0  0  0  0  0  0  0  0
   12.1415    0.5364   23.2371 C   0  0  0  0  0  0  0  0  0  0  0  0
   10.7481    0.5550   23.2976 C   0  0  0  0  0  0  0  0  0  0  0  0
   10.0991    1.6831   24.0405 C   0  0  0  0  0  0  0  0  0  0  0  0
   10.7482    2.5933   24.5392 O   0  0  0  0  0  0  0  0  0  0  0  0
   12.6828    1.2799   23.8126 H   0  0  0  0  0  0  0  0  0  0  0  0
   13.8725   -0.4019   22.3616 H   0  0  0  0  0  0  0  0  0  0  0  0
   10.1041   -1.9172   21.0539 H   0  0  0  0  0  0  0  0  0  0  0  0
    8.1964   -0.2644   24.8173 H   0  0  0  0  0  0  0  0  0  0  0  0
    6.9694    0.6355   23.8673 H   0  0  0  0  0  0  0  0  0  0  0  0
    7.3366    2.5546   25.3635 H   0  0  0  0  0  0  0  0  0  0  0  0
    8.7425    3.5223   24.8407 H   0  0  0  0  0  0  0  0  0  0  0  0
    8.6035    4.0191   22.3021 H   0  0  0  0  0  0  0  0  0  0  0  0
    5.9748    5.1705   21.7034 H   0  0  0  0  0  0  0  0  0  0  0  0
    7.3107    4.9783   20.5670 H   0  0  0  0  0  0  0  0  0  0  0  0
    6.2105    3.5926   20.9106 H   0  0  0  0  0  0  0  0  0  0  0  0
  1  2  1  0
  2  3  1  0
  3  4  2  0
  3  5  1  0
  5  6  1  0
  6  7  1  0
  8  7  1  1
  8  9  1  0
  9 10  2  0
  9 11  1  0
 11 12  1  0
 12 13  2  0
 13 14  1  0
 14 15  2  0
 15 16  1  0
 16 17  2  0
 17 18  1  0
 18 19  2  0
 19 20  1  0
 20 21  2  0
 20 22  1  0
 19 23  1  0
 18 24  1  0
 17 25  1  0
 15 26  1  0
 13 27  1  0
 11 28  1  0
 28 29  1  0
 29 30  1  0
 30 31  1  0
 30 32  1  0
 30 33  1  0
 29 34  1  6
 28 35  1  0
 28 36  1  0
  8 37  1  0
 37 38  2  0
 38 39  1  0
 39 40  1  0
 39 41  2  0
 41 42  1  0
 42 43  2  0
 43 44  1  0
 44 45  2  0
 42 46  1  0
 41 47  1  0
 38 48  1  0
  7 49  1  0
  7 50  1  0
  5 51  1  0
  5 52  1  0
  2 53  1  0
  1 54  1  0
  1 55  1  0
  1 56  1  0
 44  6  1  0
 29  8  1  0
 43 37  1  0
 21 12  1  0
 21 16  1  0
M  CHG  1  30   1
M  END
>  <cnnaffinities>  (3) 
[6.18458]

>  <score>  (3) 
6.18458

>  <index>  (3) 
2

>  <Smiles>  (3) 
C(N(C(=O)C(N1C([C@@]2(C(=O)N(c3c(nc(c4c(c(c(c(c34)[H])[H])[H])[H])[H])[H])C([C@@]2([N+]([H])([H])[H])[H])([H])[H])c2c(c(Cl)c(c(c2C1=O)[H])[H])[H])([H])[H])([H])[H])[H])([H])([H])[H]

>  <h>  (3) 
<NA>

>  <Training>  (3) 
True

>  <Success>  (3) 
True

>  <enamine_searched>  (3) 
False

>  <enamine_id>  (3) 
nan

$$$$

     RDKit          3D

 67 73  0  0  0  0  0  0  0  0999 V2000
    9.4690    2.6132   25.3870 O   0  0  0  0  0  0  0  0  0  0  0  0
    9.1178    1.6792   24.6765 C   0  0  0  0  0  0  0  0  0  0  0  0
   10.0978    0.7987   23.9596 C   0  0  0  0  0  0  0  0  0  0  0  0
   11.4488    1.0285   24.1935 C   0  0  0  0  0  0  0  0  0  0  0  0
   12.4200    0.3692   23.4688 C   0  0  0  0  0  0  0  0  0  0  0  0
   12.0089   -0.5298   22.4857 C   0  0  0  0  0  0  0  0  0  0  0  0
   13.2047   -1.3413   21.5148 Cl  0  0  0  0  0  0  0  0  0  0  0  0
   10.6703   -0.7973   22.2612 C   0  0  0  0  0  0  0  0  0  0  0  0
    9.6845   -0.1657   23.0297 C   0  0  0  0  0  0  0  0  0  0  0  0
    8.2123   -0.4372   22.7882 C   0  0  1  0  0  0  0  0  0  0  0  0
    7.4349    0.0291   24.0494 C   0  0  0  0  0  0  0  0  0  0  0  0
    7.8105    1.3792   24.4290 N   0  0  0  0  0  0  0  0  0  0  0  0
    6.7791    2.3731   24.6682 C   0  0  0  0  0  0  0  0  0  0  0  0
    5.9640    2.0955   25.9091 C   0  0  0  0  0  0  0  0  0  0  0  0
    6.4684    2.3471   27.1651 C   0  0  0  0  0  0  0  0  0  0  0  0
    5.6609    2.0177   28.2505 C   0  0  0  0  0  0  0  0  0  0  0  0
    4.4542    1.4690   28.1401 N   0  0  0  0  0  0  0  0  0  0  0  0
    3.9638    1.2209   26.9354 N   0  0  0  0  0  0  0  0  0  0  0  0
    4.6894    1.5242   25.8632 C   0  0  0  0  0  0  0  0  0  0  0  0
    4.2215    1.2892   24.9091 H   0  0  0  0  0  0  0  0  0  0  0  0
    6.0006    2.2015   29.2668 H   0  0  0  0  0  0  0  0  0  0  0  0
    7.4578    2.7827   27.3022 H   0  0  0  0  0  0  0  0  0  0  0  0
    6.1360    2.4086   23.7765 H   0  0  0  0  0  0  0  0  0  0  0  0
    7.2841    3.3383   24.7661 H   0  0  0  0  0  0  0  0  0  0  0  0
    7.6501   -0.6554   24.8831 H   0  0  0  0  0  0  0  0  0  0  0  0
    6.3543    0.0079   23.8762 H   0  0  0  0  0  0  0  0  0  0  0  0
    7.7078    0.3656   21.5716 C   0  0  0  0  0  0  0  0  0  0  0  0
    7.9229    1.5302   21.3075 O   0  0  0  0  0  0  0  0  0  0  0  0
    6.9147   -0.4593   20.8105 N   0  0  0  0  0  0  0  0  0  0  0  0
    6.1292    0.0662   19.7617 C   0  0  0  0  0  0  0  0  0  0  0  0
    6.4455   -0.2539   18.4681 C   0  0  0  0  0  0  0  0  0  0  0  0
    5.7798    0.2004   17.3791 N   0  0  0  0  0  0  0  0  0  0  0  0
    4.7582    0.9943   17.5975 C   0  0  0  0  0  0  0  0  0  0  0  0
    4.3124    1.3889   18.8907 C   0  0  0  0  0  0  0  0  0  0  0  0
    3.1884    2.2386   19.0585 C   0  0  0  0  0  0  0  0  0  0  0  0
    2.7628    2.5928   20.3081 C   0  0  0  0  0  0  0  0  0  0  0  0
    3.4404    2.1096   21.4492 C   0  0  0  0  0  0  0  0  0  0  0  0
    4.5337    1.2908   21.3167 C   0  0  0  0  0  0  0  0  0  0  0  0
    5.0068    0.9137   20.0230 C   0  0  0  0  0  0  0  0  0  0  0  0
    5.0421    0.9244   22.2044 H   0  0  0  0  0  0  0  0  0  0  0  0
    3.0876    2.3951   22.4367 H   0  0  0  0  0  0  0  0  0  0  0  0
    1.9048    3.2477   20.4269 H   0  0  0  0  0  0  0  0  0  0  0  0
    2.6878    2.6073   18.1679 H   0  0  0  0  0  0  0  0  0  0  0  0
    4.2209    1.3651   16.7245 H   0  0  0  0  0  0  0  0  0  0  0  0
    7.2993   -0.9026   18.2764 H   0  0  0  0  0  0  0  0  0  0  0  0
    6.6943   -1.7687   21.3851 C   0  0  0  0  0  0  0  0  0  0  0  0
    7.8534   -1.9006   22.3807 C   0  0  2  0  0  0  0  0  0  0  0  0
    7.5664   -2.8401   23.5643 C   0  0  0  0  0  0  0  0  0  0  0  0
    7.3633   -4.2342   23.2218 N   0  0  0  0  0  0  0  0  0  0  0  0
    6.1646   -4.7815   22.8769 C   0  0  0  0  0  0  0  0  0  0  0  0
    4.9304   -4.1210   23.0915 C   0  0  0  0  0  0  0  0  0  0  0  0
    3.7897   -4.7993   22.7257 C   0  0  0  0  0  0  0  0  0  0  0  0
    3.7904   -6.0061   22.1497 N   0  0  0  0  0  0  0  0  0  0  0  0
    5.0007   -6.5419   22.0222 C   0  0  0  0  0  0  0  0  0  0  0  0
    6.1771   -6.0227   22.3594 N   0  0  0  0  0  0  0  0  0  0  0  0
    5.0040   -7.5257   21.5612 H   0  0  0  0  0  0  0  0  0  0  0  0
    2.8057   -4.3641   22.9062 H   0  0  0  0  0  0  0  0  0  0  0  0
    4.8687   -3.1183   23.5055 H   0  0  0  0  0  0  0  0  0  0  0  0
    8.1663   -4.7960   22.9692 H   0  0  0  0  0  0  0  0  0  0  0  0
    8.4021   -2.7790   24.2685 H   0  0  0  0  0  0  0  0  0  0  0  0
    6.6792   -2.4858   24.1009 H   0  0  0  0  0  0  0  0  0  0  0  0
    8.7051   -2.3040   21.8270 H   0  0  0  0  0  0  0  0  0  0  0  0
    5.7176   -1.8239   21.8885 H   0  0  0  0  0  0  0  0  0  0  0  0
    6.7024   -2.5380   20.6090 H   0  0  0  0  0  0  0  0  0  0  0  0
   10.4118   -1.4922   21.4705 H   0  0  0  0  0  0  0  0  0  0  0  0
   13.4746    0.5560   23.6382 H   0  0  0  0  0  0  0  0  0  0  0  0
   11.6929    1.7582   24.9481 H   0  0  0  0  0  0  0  0  0  0  0  0
  1  2  2  0
  2  3  1  0
  3  4  2  0
  4  5  1  0
  5  6  2  0
  6  7  1  0
  6  8  1  0
  8  9  2  0
  9 10  1  0
 10 11  1  1
 11 12  1  0
 12 13  1  0
 13 14  1  0
 14 15  2  0
 15 16  1  0
 16 17  2  0
 17 18  1  0
 18 19  2  0
 19 20  1  0
 16 21  1  0
 15 22  1  0
 13 23  1  0
 13 24  1  0
 11 25  1  0
 11 26  1  0
 10 27  1  0
 27 28  2  0
 27 29  1  0
 29 30  1  0
 30 31  2  0
 31 32  1  0
 32 33  2  0
 33 34  1  0
 34 35  2  0
 35 36  1  0
 36 37  2  0
 37 38  1  0
 38 39  2  0
 38 40  1  0
 37 41  1  0
 36 42  1  0
 35 43  1  0
 33 44  1  0
 31 45  1  0
 29 46  1  0
 46 47  1  0
 47 48  1  0
 48 49  1  0
 49 50  1  0
 50 51  2  0
 51 52  1  0
 52 53  2  0
 53 54  1  0
 54 55  2  0
 54 56  1  0
 52 57  1  0
 51 58  1  0
 49 59  1  0
 48 60  1  0
 48 61  1  0
 47 62  1  6
 46 63  1  0
 46 64  1  0
  8 65  1  0
  5 66  1  0
  4 67  1  0
 12  2  1  0
 19 14  1  0
 39 30  1  0
 55 50  1  0
  9  3  1  0
 47 10  1  0
 39 34  1  0
M  END
>  <cnnaffinities>  (4) 
[6.92703]

>  <score>  (4) 
6.92703

>  <index>  (4) 
3

>  <Smiles>  (4) 
O=C1c2c(c(c(Cl)c(c2[C@@]2(C(N1C(c1c(c(nnc1[H])[H])[H])([H])[H])([H])[H])C(=O)N(c1c(nc(c3c(c(c(c(c13)[H])[H])[H])[H])[H])[H])C([C@@]2(C(N(c1c(c(nc(n1)[H])[H])[H])[H])([H])[H])[H])([H])[H])[H])[H])[H]

>  <h>  (4) 
<NA>

>  <Training>  (4) 
True

>  <Success>  (4) 
True

>  <enamine_searched>  (4) 
False

>  <enamine_id>  (4) 
nan

$$$$

     RDKit          3D

 41 44  0  0  0  0  0  0  0  0999 V2000
   10.0964   -2.1707   21.6899 C   0  0  0  0  0  0  0  0  0  0  0  0
    9.2508   -1.2724   22.6040 C   0  0  1  0  0  0  0  0  0  0  0  0
    9.8311   -1.2489   23.9977 C   0  0  0  0  0  0  0  0  0  0  0  0
    9.8757   -2.3651   24.9001 C   0  0  0  0  0  0  0  0  0  0  0  0
   10.5871   -2.0838   26.0261 C   0  0  0  0  0  0  0  0  0  0  0  0
   11.2859   -0.5189   25.9517 S   0  0  0  0  0  0  0  0  0  0  0  0
   10.4956   -0.1512   24.4599 C   0  0  0  0  0  0  0  0  0  0  0  0
   10.5097    1.2017   23.7823 C   0  0  0  0  0  0  0  0  0  0  0  0
   10.2535    0.9873   22.2902 C   0  0  0  0  0  0  0  0  0  0  0  0
    9.1198    0.0915   22.0856 N   0  0  0  0  0  0  0  0  0  0  0  0
    8.0380    0.5705   21.3849 C   0  0  0  0  0  0  0  0  0  0  0  0
    7.9170    1.7574   21.1329 O   0  0  0  0  0  0  0  0  0  0  0  0
    6.9821   -0.4428   20.9024 C   0  0  0  0  0  0  0  0  0  0  0  0
    6.1288    0.0866   19.7755 C   0  0  0  0  0  0  0  0  0  0  0  0
    6.4409   -0.2120   18.4727 C   0  0  0  0  0  0  0  0  0  0  0  0
    5.7737    0.2355   17.3742 N   0  0  0  0  0  0  0  0  0  0  0  0
    4.7458    1.0201   17.5856 C   0  0  0  0  0  0  0  0  0  0  0  0
    4.2929    1.4094   18.8756 C   0  0  0  0  0  0  0  0  0  0  0  0
    3.1720    2.2602   19.0479 C   0  0  0  0  0  0  0  0  0  0  0  0
    2.7701    2.6335   20.3001 C   0  0  0  0  0  0  0  0  0  0  0  0
    3.4737    2.1703   21.4347 C   0  0  0  0  0  0  0  0  0  0  0  0
    4.5641    1.3475   21.2919 C   0  0  0  0  0  0  0  0  0  0  0  0
    5.0042    0.9400   20.0043 C   0  0  0  0  0  0  0  0  0  0  0  0
    5.1114    1.0155   22.1678 H   0  0  0  0  0  0  0  0  0  0  0  0
    3.1494    2.4786   22.4240 H   0  0  0  0  0  0  0  0  0  0  0  0
    1.9245    3.3033   20.4226 H   0  0  0  0  0  0  0  0  0  0  0  0
    2.6638    2.6259   18.1584 H   0  0  0  0  0  0  0  0  0  0  0  0
    4.2112    1.3846   16.7065 H   0  0  0  0  0  0  0  0  0  0  0  0
    7.2823   -0.8667   18.2429 H   0  0  0  0  0  0  0  0  0  0  0  0
    6.3675   -0.7597   21.7570 H   0  0  0  0  0  0  0  0  0  0  0  0
    7.5040   -1.3443   20.5611 H   0  0  0  0  0  0  0  0  0  0  0  0
   10.0039    1.9190   21.7778 H   0  0  0  0  0  0  0  0  0  0  0  0
   11.1518    0.5481   21.8291 H   0  0  0  0  0  0  0  0  0  0  0  0
   11.4729    1.7075   23.9310 H   0  0  0  0  0  0  0  0  0  0  0  0
    9.7301    1.8660   24.1980 H   0  0  0  0  0  0  0  0  0  0  0  0
   10.7127   -2.6778   26.9201 H   0  0  0  0  0  0  0  0  0  0  0  0
    9.4323   -3.3339   24.6756 H   0  0  0  0  0  0  0  0  0  0  0  0
    8.2330   -1.6827   22.6720 H   0  0  0  0  0  0  0  0  0  0  0  0
   10.0919   -3.1818   22.1053 H   0  0  0  0  0  0  0  0  0  0  0  0
   11.1398   -1.8296   21.6470 H   0  0  0  0  0  0  0  0  0  0  0  0
    9.6875   -2.1983   20.6770 H   0  0  0  0  0  0  0  0  0  0  0  0
  1  2  1  0
  2  3  1  0
  3  4  1  0
  4  5  2  0
  5  6  1  0
  6  7  1  0
  7  8  1  0
  8  9  1  0
  9 10  1  0
 10 11  1  0
 11 12  2  0
 11 13  1  0
 13 14  1  0
 14 15  2  0
 15 16  1  0
 16 17  2  0
 17 18  1  0
 18 19  2  0
 19 20  1  0
 20 21  2  0
 21 22  1  0
 22 23  2  0
 22 24  1  0
 21 25  1  0
 20 26  1  0
 19 27  1  0
 17 28  1  0
 15 29  1  0
 13 30  1  0
 13 31  1  0
  9 32  1  0
  9 33  1  0
  8 34  1  0
  8 35  1  0
  5 36  1  0
  4 37  1  0
  2 38  1  1
  1 39  1  0
  1 40  1  0
  1 41  1  0
 10  2  1  0
 23 14  1  0
  7  3  2  0
 23 18  1  0
M  END
>  <cnnaffinities>  (5) 
[5.53502, 5.81217]

>  <score>  (5) 
5.53502

>  <index>  (5) 
4

>  <Smiles>  (5) 
C([C@]1(c2c(c(sc2C(C(N1C(=O)C(c1c(nc(c2c(c(c(c(c12)[H])[H])[H])[H])[H])[H])([H])[H])([H])[H])([H])[H])[H])[H])[H])([H])([H])[H]

>  <h>  (5) 
<NA>

>  <Training>  (5) 
True

>  <Success>  (5) 
True

>  <enamine_searched>  (5) 
False

>  <enamine_id>  (5) 
nan

$$$$

     RDKit          3D

 50 54  0  0  0  0  0  0  0  0999 V2000
   10.0296   -1.5415   22.4183 C   0  0  0  0  0  0  0  0  0  0  0  0
    8.6221   -0.9436   22.3686 C   0  0  1  0  0  0  0  0  0  0  0  0
    8.3021   -0.3487   20.9803 C   0  0  0  0  0  0  0  0  0  0  0  0
    6.8646   -0.4696   20.8592 N   0  0  0  0  0  0  0  0  0  0  0  0
    6.1066    0.0615   19.7810 C   0  0  0  0  0  0  0  0  0  0  0  0
    6.4411   -0.2215   18.4792 C   0  0  0  0  0  0  0  0  0  0  0  0
    5.7761    0.2369   17.3870 N   0  0  0  0  0  0  0  0  0  0  0  0
    4.7436    1.0212   17.5899 C   0  0  0  0  0  0  0  0  0  0  0  0
    4.2909    1.4125   18.8811 C   0  0  0  0  0  0  0  0  0  0  0  0
    3.1702    2.2702   19.0543 C   0  0  0  0  0  0  0  0  0  0  0  0
    2.7763    2.6506   20.3086 C   0  0  0  0  0  0  0  0  0  0  0  0
    3.4829    2.1952   21.4434 C   0  0  0  0  0  0  0  0  0  0  0  0
    4.5673    1.3670   21.2998 C   0  0  0  0  0  0  0  0  0  0  0  0
    4.9912    0.9358   20.0130 C   0  0  0  0  0  0  0  0  0  0  0  0
    5.1097    1.0198   22.1720 H   0  0  0  0  0  0  0  0  0  0  0  0
    3.1677    2.5053   22.4348 H   0  0  0  0  0  0  0  0  0  0  0  0
    1.9277    3.3163   20.4402 H   0  0  0  0  0  0  0  0  0  0  0  0
    2.6510    2.6399   18.1734 H   0  0  0  0  0  0  0  0  0  0  0  0
    4.2123    1.3878   16.7098 H   0  0  0  0  0  0  0  0  0  0  0  0
    7.2803   -0.8792   18.2602 H   0  0  0  0  0  0  0  0  0  0  0  0
    6.3272   -1.3900   21.7358 C   0  0  0  0  0  0  0  0  0  0  0  0
    5.1768   -1.7179   21.7247 O   0  0  0  0  0  0  0  0  0  0  0  0
    7.4425   -1.8987   22.6992 C   0  0  1  0  0  0  0  0  0  0  0  0
    7.7666   -3.3652   22.3576 C   0  0  0  0  0  0  0  0  0  0  0  0
    6.6355   -4.2107   22.6687 N   0  0  0  0  0  0  0  0  0  0  0  0
    6.1723   -5.1136   21.7217 C   0  0  0  0  0  0  0  0  0  0  0  0
    4.6623   -4.9783   21.3994 C   0  0  0  0  0  0  0  0  0  0  0  0
    4.6624   -4.9785   21.3993 N   0  0  0  0  0  0  0  0  0  0  0  0
    6.3174   -6.1482   21.9378 H   0  0  0  0  0  0  0  0  0  0  0  0
    6.6309   -4.8592   20.8131 H   0  0  0  0  0  0  0  0  0  0  0  0
    6.0548   -4.2249   23.9051 C   0  0  0  0  0  0  0  0  0  0  0  0
    5.3353   -5.1250   24.2854 O   0  0  0  0  0  0  0  0  0  0  0  0
    6.3536   -3.0231   24.7221 C   0  0  0  0  0  0  0  0  0  0  0  0
    5.9059   -3.0178   26.0424 C   0  0  0  0  0  0  0  0  0  0  0  0
    5.9160   -1.8490   26.7713 C   0  0  0  0  0  0  0  0  0  0  0  0
    6.3535   -0.6907   26.1374 C   0  0  0  0  0  0  0  0  0  0  0  0
    6.3005    0.4722   26.8099 F   0  0  0  0  0  0  0  0  0  0  0  0
    6.8342   -0.6854   24.8430 C   0  0  0  0  0  0  0  0  0  0  0  0
    6.9127   -1.8825   24.1260 C   0  0  0  0  0  0  0  0  0  0  0  0
    7.1053    0.2657   24.3990 H   0  0  0  0  0  0  0  0  0  0  0  0
    5.5554   -1.7969   27.7931 H   0  0  0  0  0  0  0  0  0  0  0  0
    5.5220   -3.9337   26.4772 H   0  0  0  0  0  0  0  0  0  0  0  0
    7.9244   -3.4257   21.2679 H   0  0  0  0  0  0  0  0  0  0  0  0
    8.6812   -3.7105   22.8549 H   0  0  0  0  0  0  0  0  0  0  0  0
    8.8136   -0.9019   20.1806 H   0  0  0  0  0  0  0  0  0  0  0  0
    8.5975    0.7017   20.9070 H   0  0  0  0  0  0  0  0  0  0  0  0
    8.5773   -0.1272   23.0939 H   0  0  0  0  0  0  0  0  0  0  0  0
   10.2345   -2.0119   23.3852 H   0  0  0  0  0  0  0  0  0  0  0  0
   10.7842   -0.7640   22.2576 H   0  0  0  0  0  0  0  0  0  0  0  0
   10.1743   -2.3023   21.6414 H   0  0  0  0  0  0  0  0  0  0  0  0
  1  2  1  0
  2  3  1  0
  3  4  1  0
  4  5  1  0
  5  6  2  0
  6  7  1  0
  7  8  2  0
  8  9  1  0
  9 10  2  0
 10 11  1  0
 11 12  2  0
 12 13  1  0
 13 14  2  0
 13 15  1  0
 12 16  1  0
 11 17  1  0
 10 18  1  0
  8 19  1  0
  6 20  1  0
  4 21  1  0
 21 22  2  0
 21 23  1  0
 23 24  1  6
 24 25  1  0
 25 26  1  0
 26 27  1  0
 27 28  3  0
 26 29  1  0
 26 30  1  0
 25 31  1  0
 31 32  2  0
 31 33  1  0
 33 34  2  0
 34 35  1  0
 35 36  2  0
 36 37  1  0
 36 38  1  0
 38 39  2  0
 38 40  1  0
 35 41  1  0
 34 42  1  0
 24 43  1  0
 24 44  1  0
  3 45  1  0
  3 46  1  0
  2 47  1  1
  1 48  1  0
  1 49  1  0
  1 50  1  0
 23  2  1  0
 39 33  1  0
 14  5  1  0
 39 23  1  0
 14  9  1  0
M  END
>  <cnnaffinities>  (6) 
[5.4335]

>  <score>  (6) 
5.4335

>  <index>  (6) 
5

>  <Smiles>  (6) 
C([C@]1(C(N(c2c(nc(c3c(c(c(c(c23)[H])[H])[H])[H])[H])[H])C(=O)[C@]21C(N(C(C#N)([H])[H])C(=O)c1c(c(c(F)c(c21)[H])[H])[H])([H])[H])([H])[H])[H])([H])([H])[H]

>  <h>  (6) 
<NA>

>  <Training>  (6) 
True

>  <Success>  (6) 
True

>  <enamine_searched>  (6) 
False

>  <enamine_id>  (6) 
nan

$$$$

     RDKit          3D

 65 69  0  0  0  0  0  0  0  0999 V2000
    8.7882   -4.9936   27.4948 C   0  0  0  0  0  0  0  0  0  0  0  0
    9.5415   -5.4170   26.2245 C   0  0  0  0  0  0  0  0  0  0  0  0
    9.0368   -4.6358   25.0397 C   0  0  0  0  0  0  0  0  0  0  0  0
    8.3240   -5.0313   24.1508 O   0  0  0  0  0  0  0  0  0  0  0  0
    9.5840   -3.2970   24.9003 N   0  0  1  0  0  4  0  0  0  0  0  0
   10.6849   -3.3625   23.8141 C   0  0  0  0  0  0  0  0  0  0  0  0
   11.1721   -1.9558   23.6249 C   0  0  0  0  0  0  0  0  0  0  0  0
   10.0482   -1.1100   23.0320 C   0  0  0  0  0  0  0  0  0  0  0  0
    8.7546   -1.1765   23.8227 C   0  0  0  0  0  0  0  0  0  0  0  0
    7.7401   -0.2101   23.6928 C   0  0  0  0  0  0  0  0  0  0  0  0
    7.9308    0.8617   22.7726 N   0  0  0  0  0  0  0  0  0  0  0  0
    8.2850    2.1718   23.3150 C   0  0  0  0  0  0  0  0  0  0  0  0
    7.1099    3.1249   23.2844 C   0  0  0  0  0  0  0  0  0  0  0  0
    6.2782    3.2856   24.3918 C   0  0  0  0  0  0  0  0  0  0  0  0
    5.1873    4.1467   24.3316 C   0  0  0  0  0  0  0  0  0  0  0  0
    4.9181    4.8602   23.1703 C   0  0  0  0  0  0  0  0  0  0  0  0
    5.7439    4.6754   22.0645 C   0  0  0  0  0  0  0  0  0  0  0  0
    5.4173    5.5605   20.5983 Cl  0  0  0  0  0  0  0  0  0  0  0  0
    6.8242    3.8072   22.1039 C   0  0  0  0  0  0  0  0  0  0  0  0
    7.4337    3.6397   21.2190 H   0  0  0  0  0  0  0  0  0  0  0  0
    4.0660    5.5303   23.1041 H   0  0  0  0  0  0  0  0  0  0  0  0
    4.5424    4.2632   25.1987 H   0  0  0  0  0  0  0  0  0  0  0  0
    6.4813    2.7323   25.3073 H   0  0  0  0  0  0  0  0  0  0  0  0
    8.6309    2.0106   24.3408 H   0  0  0  0  0  0  0  0  0  0  0  0
    9.1082    2.5710   22.7112 H   0  0  0  0  0  0  0  0  0  0  0  0
    7.8715    0.7180   21.4029 C   0  0  0  0  0  0  0  0  0  0  0  0
    8.4754    1.4627   20.6492 O   0  0  0  0  0  0  0  0  0  0  0  0
    7.0055   -0.4183   20.8462 C   0  0  0  0  0  0  0  0  0  0  0  0
    6.1421    0.0660   19.7170 C   0  0  0  0  0  0  0  0  0  0  0  0
    6.4636   -0.2178   18.4179 C   0  0  0  0  0  0  0  0  0  0  0  0
    5.7879    0.2246   17.3254 N   0  0  0  0  0  0  0  0  0  0  0  0
    4.7493    0.9944   17.5483 C   0  0  0  0  0  0  0  0  0  0  0  0
    4.2986    1.3744   18.8421 C   0  0  0  0  0  0  0  0  0  0  0  0
    3.1736    2.2186   19.0283 C   0  0  0  0  0  0  0  0  0  0  0  0
    2.7704    2.5726   20.2854 C   0  0  0  0  0  0  0  0  0  0  0  0
    3.4664    2.0874   21.4156 C   0  0  0  0  0  0  0  0  0  0  0  0
    4.5608    1.2710   21.2632 C   0  0  0  0  0  0  0  0  0  0  0  0
    5.0101    0.8992   19.9662 C   0  0  0  0  0  0  0  0  0  0  0  0
    5.0883    0.9174   22.1458 H   0  0  0  0  0  0  0  0  0  0  0  0
    3.1298    2.3654   22.4123 H   0  0  0  0  0  0  0  0  0  0  0  0
    1.9201    3.2396   20.4154 H   0  0  0  0  0  0  0  0  0  0  0  0
    2.6567    2.5951   18.1503 H   0  0  0  0  0  0  0  0  0  0  0  0
    4.2111    1.3623   16.6744 H   0  0  0  0  0  0  0  0  0  0  0  0
    7.3249   -0.8484   18.1927 H   0  0  0  0  0  0  0  0  0  0  0  0
    7.6927   -1.1899   20.4768 H   0  0  0  0  0  0  0  0  0  0  0  0
    6.4181   -0.8615   21.6545 H   0  0  0  0  0  0  0  0  0  0  0  0
    6.5982   -0.2472   24.4841 C   0  0  0  0  0  0  0  0  0  0  0  0
    6.3926   -1.3018   25.3738 C   0  0  0  0  0  0  0  0  0  0  0  0
    7.3497   -2.3072   25.4594 C   0  0  0  0  0  0  0  0  0  0  0  0
    8.5170   -2.2214   24.7004 C   0  0  0  0  0  0  0  0  0  0  0  0
    7.2177   -3.1623   26.1146 H   0  0  0  0  0  0  0  0  0  0  0  0
    5.5046   -1.3424   25.9990 H   0  0  0  0  0  0  0  0  0  0  0  0
    5.8620    0.5453   24.3888 H   0  0  0  0  0  0  0  0  0  0  0  0
    9.8502   -1.4728   22.0128 H   0  0  0  0  0  0  0  0  0  0  0  0
   10.3752   -0.0730   22.9252 H   0  0  0  0  0  0  0  0  0  0  0  0
   12.0480   -1.9596   22.9708 H   0  0  0  0  0  0  0  0  0  0  0  0
   11.4947   -1.5566   24.5965 H   0  0  0  0  0  0  0  0  0  0  0  0
   11.4688   -4.0596   24.1387 H   0  0  0  0  0  0  0  0  0  0  0  0
   10.2142   -3.7745   22.9179 H   0  0  0  0  0  0  0  0  0  0  0  0
   10.0902   -3.0364   25.7747 H   0  0  0  0  0  0  0  0  0  0  0  0
    9.3962   -6.4684   25.9934 H   0  0  0  0  0  0  0  0  0  0  0  0
   10.6222   -5.2299   26.3095 H   0  0  0  0  0  0  0  0  0  0  0  0
    8.9248   -3.9187   27.6629 H   0  0  0  0  0  0  0  0  0  0  0  0
    7.7178   -5.1951   27.3703 H   0  0  0  0  0  0  0  0  0  0  0  0
    9.1400   -5.5293   28.3826 H   0  0  0  0  0  0  0  0  0  0  0  0
  1  2  1  0
  2  3  1  0
  3  4  2  0
  3  5  1  0
  5  6  1  0
  6  7  1  0
  7  8  1  0
  8  9  1  0
  9 10  2  0
 10 11  1  0
 11 12  1  0
 12 13  1  0
 13 14  2  0
 14 15  1  0
 15 16  2  0
 16 17  1  0
 17 18  1  0
 17 19  2  0
 19 20  1  0
 16 21  1  0
 15 22  1  0
 14 23  1  0
 12 24  1  0
 12 25  1  0
 11 26  1  0
 26 27  2  0
 26 28  1  0
 28 29  1  0
 29 30  2  0
 30 31  1  0
 31 32  2  0
 32 33  1  0
 33 34  2  0
 34 35  1  0
 35 36  2  0
 36 37  1  0
 37 38  2  0
 37 39  1  0
 36 40  1  0
 35 41  1  0
 34 42  1  0
 32 43  1  0
 30 44  1  0
 28 45  1  0
 28 46  1  0
 10 47  1  0
 47 48  2  0
 48 49  1  0
 49 50  2  0
 49 51  1  0
 48 52  1  0
 47 53  1  0
  8 54  1  0
  8 55  1  0
  7 56  1  0
  7 57  1  0
  6 58  1  0
  6 59  1  0
  5 60  1  1
  2 61  1  0
  2 62  1  0
  1 63  1  0
  1 64  1  0
  1 65  1  0
 50  5  1  0
 50  9  1  0
 19 13  1  0
 38 29  1  0
 38 33  1  0
M  CHG  1   5   1
M  END
>  <cnnaffinities>  (7) 
[6.72146]

>  <score>  (7) 
6.72146

>  <index>  (7) 
6

>  <Smiles>  (7) 
C(C(C(=O)[N@+]1(C(C(C(c2c(N(C(c3c(c(c(c(Cl)c3[H])[H])[H])[H])([H])[H])C(=O)C(c3c(nc(c4c(c(c(c(c34)[H])[H])[H])[H])[H])[H])([H])[H])c(c(c(c12)[H])[H])[H])([H])[H])([H])[H])([H])[H])[H])([H])[H])([H])([H])[H]

>  <h>  (7) 
<NA>

>  <Training>  (7) 
True

>  <Success>  (7) 
True

>  <enamine_searched>  (7) 
False

>  <enamine_id>  (7) 
nan

$$$$

     RDKit          3D

 37 39  0  0  0  0  0  0  0  0999 V2000
    8.5356    1.3337   20.7083 O   0  0  0  0  0  0  0  0  0  0  0  0
    7.8658    0.6713   21.4760 C   0  0  0  0  0  0  0  0  0  0  0  0
    6.9468   -0.4391   20.9149 C   0  0  0  0  0  0  0  0  0  0  0  0
    6.1075    0.0809   19.7657 C   0  0  0  0  0  0  0  0  0  0  0  0
    6.4270   -0.2094   18.4649 C   0  0  0  0  0  0  0  0  0  0  0  0
    5.7635    0.2421   17.3644 N   0  0  0  0  0  0  0  0  0  0  0  0
    4.7346    1.0269   17.5768 C   0  0  0  0  0  0  0  0  0  0  0  0
    4.2848    1.4169   18.8666 C   0  0  0  0  0  0  0  0  0  0  0  0
    3.1668    2.2707   19.0453 C   0  0  0  0  0  0  0  0  0  0  0  0
    2.7632    2.6429   20.2989 C   0  0  0  0  0  0  0  0  0  0  0  0
    3.4625    2.1679   21.4316 C   0  0  0  0  0  0  0  0  0  0  0  0
    4.5459    1.3364   21.2872 C   0  0  0  0  0  0  0  0  0  0  0  0
    4.9890    0.9372   19.9975 C   0  0  0  0  0  0  0  0  0  0  0  0
    5.0683    0.9828   22.1728 H   0  0  0  0  0  0  0  0  0  0  0  0
    3.1366    2.4671   22.4233 H   0  0  0  0  0  0  0  0  0  0  0  0
    1.9148    3.3108   20.4316 H   0  0  0  0  0  0  0  0  0  0  0  0
    2.6523    2.6470   18.1648 H   0  0  0  0  0  0  0  0  0  0  0  0
    4.2009    1.3963   16.6986 H   0  0  0  0  0  0  0  0  0  0  0  0
    7.2745   -0.8566   18.2414 H   0  0  0  0  0  0  0  0  0  0  0  0
    6.3092   -0.8800   21.6929 H   0  0  0  0  0  0  0  0  0  0  0  0
    7.5997   -1.2349   20.5347 H   0  0  0  0  0  0  0  0  0  0  0  0
    7.8820    0.9003   22.8475 N   0  0  0  0  0  0  0  0  0  0  0  0
    7.5939   -0.1158   23.8481 C   0  0  0  0  0  0  0  0  0  0  0  0
    8.4589    0.0761   25.0945 C   0  0  0  0  0  0  0  0  0  0  0  0
    8.3470    1.4929   25.6402 C   0  0  0  0  0  0  0  0  0  0  0  0
    8.7021    2.4949   24.5490 C   0  0  0  0  0  0  0  0  0  0  0  0
    7.8409    2.2857   23.3127 C   0  0  0  0  0  0  0  0  0  0  0  0
    6.8026    2.5849   23.5412 H   0  0  0  0  0  0  0  0  0  0  0  0
    8.1795    2.9108   22.4872 H   0  0  0  0  0  0  0  0  0  0  0  0
    8.5811    3.5205   24.9148 H   0  0  0  0  0  0  0  0  0  0  0  0
    9.7560    2.3880   24.2753 H   0  0  0  0  0  0  0  0  0  0  0  0
    7.3222    1.6737   25.9909 H   0  0  0  0  0  0  0  0  0  0  0  0
    8.9988    1.6256   26.5112 H   0  0  0  0  0  0  0  0  0  0  0  0
    9.5028   -0.1404   24.8477 H   0  0  0  0  0  0  0  0  0  0  0  0
    8.1670   -0.6537   25.8553 H   0  0  0  0  0  0  0  0  0  0  0  0
    6.5318   -0.1114   24.1464 H   0  0  0  0  0  0  0  0  0  0  0  0
    7.8020   -1.0919   23.4107 H   0  0  0  0  0  0  0  0  0  0  0  0
  1  2  2  0
  2  3  1  0
  3  4  1  0
  4  5  2  0
  5  6  1  0
  6  7  2  0
  7  8  1  0
  8  9  2  0
  9 10  1  0
 10 11  2  0
 11 12  1  0
 12 13  2  0
 12 14  1  0
 11 15  1  0
 10 16  1  0
  9 17  1  0
  7 18  1  0
  5 19  1  0
  3 20  1  0
  3 21  1  0
  2 22  1  0
 22 23  1  0
 23 24  1  0
 24 25  1  0
 25 26  1  0
 26 27  1  0
 27 28  1  0
 27 29  1  0
 26 30  1  0
 26 31  1  0
 25 32  1  0
 25 33  1  0
 24 34  1  0
 24 35  1  0
 23 36  1  0
 23 37  1  0
 13  4  1  0
 27 22  1  0
 13  8  1  0
M  END
>  <cnnaffinities>  (8) 
[4.717, 4.72115, 4.53959, 4.57214, 4.57235]

>  <score>  (8) 
4.717

>  <index>  (8) 
7

>  <Smiles>  (8) 
O=C(C(c1c(nc(c2c(c(c(c(c12)[H])[H])[H])[H])[H])[H])([H])[H])N1C(C(C(C(C1([H])[H])([H])[H])([H])[H])([H])[H])([H])[H]

>  <h>  (8) 
<NA>

>  <Training>  (8) 
True

>  <Success>  (8) 
True

>  <enamine_searched>  (8) 
False

>  <enamine_id>  (8) 
nan

$$$$

     RDKit          3D

 66 71  0  0  0  0  0  0  0  0999 V2000
    7.7719   -2.8608   23.3705 C   0  0  0  0  0  0  0  0  0  0  0  0
    8.0657   -1.8501   22.2675 C   0  0  1  0  0  0  0  0  0  0  0  0
    6.8989   -1.7382   21.2786 C   0  0  0  0  0  0  0  0  0  0  0  0
    6.9558   -0.3728   20.8208 N   0  0  0  0  0  0  0  0  0  0  0  0
    6.1439    0.1005   19.7677 C   0  0  0  0  0  0  0  0  0  0  0  0
    6.4500   -0.2452   18.4764 C   0  0  0  0  0  0  0  0  0  0  0  0
    5.7850    0.1963   17.3825 N   0  0  0  0  0  0  0  0  0  0  0  0
    4.7609    0.9903   17.5965 C   0  0  0  0  0  0  0  0  0  0  0  0
    4.3086    1.3815   18.8884 C   0  0  0  0  0  0  0  0  0  0  0  0
    3.1801    2.2258   19.0527 C   0  0  0  0  0  0  0  0  0  0  0  0
    2.7559    2.5809   20.3014 C   0  0  0  0  0  0  0  0  0  0  0  0
    3.4324    2.1091   21.4480 C   0  0  0  0  0  0  0  0  0  0  0  0
    4.5260    1.2897   21.3181 C   0  0  0  0  0  0  0  0  0  0  0  0
    5.0032    0.9193   20.0272 C   0  0  0  0  0  0  0  0  0  0  0  0
    5.0354    0.9423   22.2124 H   0  0  0  0  0  0  0  0  0  0  0  0
    3.0943    2.4089   22.4344 H   0  0  0  0  0  0  0  0  0  0  0  0
    1.8941    3.2295   20.4167 H   0  0  0  0  0  0  0  0  0  0  0  0
    2.6813    2.5959   18.1608 H   0  0  0  0  0  0  0  0  0  0  0  0
    4.2177    1.3610   16.7261 H   0  0  0  0  0  0  0  0  0  0  0  0
    7.3057   -0.8930   18.2926 H   0  0  0  0  0  0  0  0  0  0  0  0
    7.7423    0.4553   21.5786 C   0  0  0  0  0  0  0  0  0  0  0  0
    7.8691    1.6499   21.3763 O   0  0  0  0  0  0  0  0  0  0  0  0
    8.3976   -0.3809   22.7037 C   0  0  1  0  0  0  0  0  0  0  0  0
    7.7411   -0.0450   24.0678 C   0  0  0  0  0  0  0  0  0  0  0  0
    8.1947    1.2105   24.6364 N   0  0  0  0  0  0  0  0  0  0  0  0
    7.2370    2.1791   25.1382 C   0  0  0  0  0  0  0  0  0  0  0  0
    6.8948    3.1898   24.0438 C   0  0  0  0  0  0  0  0  0  0  0  0
    5.7955    3.2355   23.5176 O   0  0  0  0  0  0  0  0  0  0  0  0
    7.9258    4.0012   23.6989 N   0  0  0  0  0  0  0  0  0  0  0  0
    7.7833    4.9151   22.5849 C   0  0  0  0  0  0  0  0  0  0  0  0
    9.0308    5.7251   22.3876 C   0  0  0  0  0  0  0  0  0  0  0  0
    9.2837    7.0812   22.4911 C   0  0  0  0  0  0  0  0  0  0  0  0
   10.6355    7.2250   22.1127 C   0  0  0  0  0  0  0  0  0  0  0  0
   11.1860    6.0569   21.8233 N   0  0  0  0  0  0  0  0  0  0  0  0
   10.2074    5.1539   22.0009 N   0  0  0  0  0  0  0  0  0  0  0  0
   10.5283    3.7744   21.6813 C   0  0  0  0  0  0  0  0  0  0  0  0
   11.5596    3.8233   21.3315 H   0  0  0  0  0  0  0  0  0  0  0  0
   10.4712    3.1328   22.5663 H   0  0  0  0  0  0  0  0  0  0  0  0
    9.8680    3.3744   20.9048 H   0  0  0  0  0  0  0  0  0  0  0  0
   11.2487    8.1162   22.0248 H   0  0  0  0  0  0  0  0  0  0  0  0
    8.6017    7.8435   22.8517 H   0  0  0  0  0  0  0  0  0  0  0  0
    7.5409    4.3387   21.6796 H   0  0  0  0  0  0  0  0  0  0  0  0
    6.9240    5.5652   22.7700 H   0  0  0  0  0  0  0  0  0  0  0  0
    8.7886    4.0111   24.2309 H   0  0  0  0  0  0  0  0  0  0  0  0
    7.6946    2.6879   25.9915 H   0  0  0  0  0  0  0  0  0  0  0  0
    6.3335    1.6556   25.4611 H   0  0  0  0  0  0  0  0  0  0  0  0
    9.5088    1.5521   24.6604 C   0  0  0  0  0  0  0  0  0  0  0  0
    9.9148    2.5256   25.3001 O   0  0  0  0  0  0  0  0  0  0  0  0
   10.4184    0.7672   23.7755 C   0  0  0  0  0  0  0  0  0  0  0  0
   11.7853    1.0356   23.8373 C   0  0  0  0  0  0  0  0  0  0  0  0
   12.6545    0.4694   22.9249 C   0  0  0  0  0  0  0  0  0  0  0  0
   12.1311   -0.3491   21.9242 C   0  0  0  0  0  0  0  0  0  0  0  0
   10.7695   -0.5844   21.8439 C   0  0  0  0  0  0  0  0  0  0  0  0
    9.8844   -0.0773   22.7965 C   0  0  0  0  0  0  0  0  0  0  0  0
   10.3902   -1.1734   21.0141 H   0  0  0  0  0  0  0  0  0  0  0  0
   12.7761   -0.8229   21.1944 H   0  0  0  0  0  0  0  0  0  0  0  0
   13.7165    0.6897   22.9788 H   0  0  0  0  0  0  0  0  0  0  0  0
   12.1288    1.7434   24.5774 H   0  0  0  0  0  0  0  0  0  0  0  0
    7.9922   -0.8466   24.7694 H   0  0  0  0  0  0  0  0  0  0  0  0
    6.6508   -0.0080   23.9564 H   0  0  0  0  0  0  0  0  0  0  0  0
    7.0096   -2.4196   20.4334 H   0  0  0  0  0  0  0  0  0  0  0  0
    5.9334   -1.9575   21.7584 H   0  0  0  0  0  0  0  0  0  0  0  0
    8.9314   -2.2243   21.7166 H   0  0  0  0  0  0  0  0  0  0  0  0
    8.5924   -2.9328   24.0904 H   0  0  0  0  0  0  0  0  0  0  0  0
    6.8578   -2.5992   23.9148 H   0  0  0  0  0  0  0  0  0  0  0  0
    7.6223   -3.8510   22.9323 H   0  0  0  0  0  0  0  0  0  0  0  0
  1  2  1  0
  2  3  1  0
  3  4  1  0
  4  5  1  0
  5  6  2  0
  6  7  1  0
  7  8  2  0
  8  9  1  0
  9 10  2  0
 10 11  1  0
 11 12  2  0
 12 13  1  0
 13 14  2  0
 13 15  1  0
 12 16  1  0
 11 17  1  0
 10 18  1  0
  8 19  1  0
  6 20  1  0
  4 21  1  0
 21 22  2  0
 21 23  1  0
 23 24  1  1
 24 25  1  0
 25 26  1  0
 26 27  1  0
 27 28  2  0
 27 29  1  0
 29 30  1  0
 30 31  1  0
 31 32  2  0
 32 33  1  0
 33 34  2  0
 34 35  1  0
 35 36  1  0
 36 37  1  0
 36 38  1  0
 36 39  1  0
 33 40  1  0
 32 41  1  0
 30 42  1  0
 30 43  1  0
 29 44  1  0
 26 45  1  0
 26 46  1  0
 25 47  1  0
 47 48  2  0
 47 49  1  0
 49 50  2  0
 50 51  1  0
 51 52  2  0
 52 53  1  0
 53 54  2  0
 53 55  1  0
 52 56  1  0
 51 57  1  0
 50 58  1  0
 24 59  1  0
 24 60  1  0
  3 61  1  0
  3 62  1  0
  2 63  1  6
  1 64  1  0
  1 65  1  0
  1 66  1  0
 23  2  1  0
 35 31  1  0
 54 49  1  0
 14  5  1  0
 54 23  1  0
 14  9  1  0
M  END
>  <cnnaffinities>  (9) 
[6.55154, 6.43286]

>  <score>  (9) 
6.55154

>  <index>  (9) 
8

>  <Smiles>  (9) 
C([C@]1(C(N(c2c(nc(c3c(c(c(c(c23)[H])[H])[H])[H])[H])[H])C(=O)[C@]21C(N(C(C(=O)N(C(c1c(c(nn1C([H])([H])[H])[H])[H])([H])[H])[H])([H])[H])C(=O)c1c(c(c(c(c21)[H])[H])[H])[H])([H])[H])([H])[H])[H])([H])([H])[H]

>  <h>  (9) 
<NA>

>  <Training>  (9) 
True

>  <Success>  (9) 
True

>  <enamine_searched>  (9) 
False

>  <enamine_id>  (9) 
nan

$$$$

     RDKit          3D

 58 63  0  0  0  0  0  0  0  0999 V2000
    6.1767    2.7017   29.8103 C   0  0  0  0  0  0  0  0  0  0  0  0
    6.0814    2.3668   28.3552 C   0  0  0  0  0  0  0  0  0  0  0  0
    6.8783    2.9238   27.3160 C   0  0  0  0  0  0  0  0  0  0  0  0
    6.4247    2.3117   26.1974 C   0  0  0  0  0  0  0  0  0  0  0  0
    6.8716    2.4245   24.7706 C   0  0  0  0  0  0  0  0  0  0  0  0
    7.9079    1.4876   24.3958 N   0  0  0  0  0  0  0  0  0  0  0  0
    7.5495    0.1248   24.0796 C   0  0  0  0  0  0  0  0  0  0  0  0
    8.2757   -0.3417   22.7969 C   0  0  2  0  0  0  0  0  0  0  0  0
    7.7177    0.4527   21.5925 C   0  0  0  0  0  0  0  0  0  0  0  0
    7.8897    1.6270   21.3484 O   0  0  0  0  0  0  0  0  0  0  0  0
    6.9508   -0.3905   20.8214 N   0  0  0  0  0  0  0  0  0  0  0  0
    6.1476    0.1127   19.7644 C   0  0  0  0  0  0  0  0  0  0  0  0
    6.4466   -0.2231   18.4704 C   0  0  0  0  0  0  0  0  0  0  0  0
    5.7660    0.2168   17.3825 N   0  0  0  0  0  0  0  0  0  0  0  0
    4.7448    1.0128   17.5948 C   0  0  0  0  0  0  0  0  0  0  0  0
    4.2979    1.4129   18.8852 C   0  0  0  0  0  0  0  0  0  0  0  0
    3.1697    2.2602   19.0609 C   0  0  0  0  0  0  0  0  0  0  0  0
    2.7528    2.6165   20.3136 C   0  0  0  0  0  0  0  0  0  0  0  0
    3.4354    2.1285   21.4512 C   0  0  0  0  0  0  0  0  0  0  0  0
    4.5266    1.3086   21.3072 C   0  0  0  0  0  0  0  0  0  0  0  0
    5.0062    0.9446   20.0150 C   0  0  0  0  0  0  0  0  0  0  0  0
    5.0408    0.9340   22.1875 H   0  0  0  0  0  0  0  0  0  0  0  0
    3.1003    2.4186   22.4426 H   0  0  0  0  0  0  0  0  0  0  0  0
    1.9052    3.2854   20.4399 H   0  0  0  0  0  0  0  0  0  0  0  0
    2.6635    2.6376   18.1759 H   0  0  0  0  0  0  0  0  0  0  0  0
    4.2167    1.3797   16.7137 H   0  0  0  0  0  0  0  0  0  0  0  0
    7.2907   -0.8787   18.2631 H   0  0  0  0  0  0  0  0  0  0  0  0
    6.8171   -1.7277   21.3647 C   0  0  0  0  0  0  0  0  0  0  0  0
    7.9287   -1.8188   22.4316 C   0  0  2  0  0  0  0  0  0  0  0  0
    7.5499   -2.7506   23.5916 C   0  0  0  0  0  0  0  0  0  0  0  0
    6.6189   -2.4270   24.0748 H   0  0  0  0  0  0  0  0  0  0  0  0
    8.3266   -2.7866   24.3647 H   0  0  0  0  0  0  0  0  0  0  0  0
    7.3925   -3.7743   23.2322 H   0  0  0  0  0  0  0  0  0  0  0  0
    8.8227   -2.2266   21.9541 H   0  0  0  0  0  0  0  0  0  0  0  0
    5.8243   -1.8810   21.8160 H   0  0  0  0  0  0  0  0  0  0  0  0
    6.9307   -2.4698   20.5689 H   0  0  0  0  0  0  0  0  0  0  0  0
    9.7561   -0.0324   22.9552 C   0  0  0  0  0  0  0  0  0  0  0  0
   10.7036   -0.6230   22.1087 C   0  0  0  0  0  0  0  0  0  0  0  0
   12.0418   -0.3166   22.2592 C   0  0  0  0  0  0  0  0  0  0  0  0
   12.9364   -0.9085   21.4502 F   0  0  0  0  0  0  0  0  0  0  0  0
   12.4964    0.5890   23.2110 C   0  0  0  0  0  0  0  0  0  0  0  0
   11.5535    1.2312   23.9867 C   0  0  0  0  0  0  0  0  0  0  0  0
   10.1953    0.9552   23.8481 C   0  0  0  0  0  0  0  0  0  0  0  0
    9.2212    1.8149   24.5972 C   0  0  0  0  0  0  0  0  0  0  0  0
    9.5698    2.7560   25.2990 O   0  0  0  0  0  0  0  0  0  0  0  0
   11.8245    1.9946   24.6940 H   0  0  0  0  0  0  0  0  0  0  0  0
   13.5564    0.7957   23.2988 H   0  0  0  0  0  0  0  0  0  0  0  0
   10.4216   -1.2920   21.3033 H   0  0  0  0  0  0  0  0  0  0  0  0
    7.8154   -0.5359   24.9205 H   0  0  0  0  0  0  0  0  0  0  0  0
    6.4647    0.0919   23.9391 H   0  0  0  0  0  0  0  0  0  0  0  0
    7.2822    3.4251   24.6310 H   0  0  0  0  0  0  0  0  0  0  0  0
    6.0206    2.2929   24.0907 H   0  0  0  0  0  0  0  0  0  0  0  0
    5.4350    1.4691   26.5117 O   0  0  0  0  0  0  0  0  0  0  0  0
    5.2175    1.5032   27.8788 N   0  0  0  0  0  0  0  0  0  0  0  0
    7.6831    3.6412   27.3886 H   0  0  0  0  0  0  0  0  0  0  0  0
    7.2244    2.8778   30.0734 H   0  0  0  0  0  0  0  0  0  0  0  0
    5.7766    1.9075   30.4470 H   0  0  0  0  0  0  0  0  0  0  0  0
    5.6303    3.6286   30.0166 H   0  0  0  0  0  0  0  0  0  0  0  0
  1  2  1  0
  2  3  1  0
  3  4  2  0
  4  5  1  0
  5  6  1  0
  6  7  1  0
  8  7  1  1
  8  9  1  0
  9 10  2  0
  9 11  1  0
 11 12  1  0
 12 13  2  0
 13 14  1  0
 14 15  2  0
 15 16  1  0
 16 17  2  0
 17 18  1  0
 18 19  2  0
 19 20  1  0
 20 21  2  0
 20 22  1  0
 19 23  1  0
 18 24  1  0
 17 25  1  0
 15 26  1  0
 13 27  1  0
 11 28  1  0
 28 29  1  0
 29 30  1  0
 30 31  1  0
 30 32  1  0
 30 33  1  0
 29 34  1  6
 28 35  1  0
 28 36  1  0
  8 37  1  0
 37 38  2  0
 38 39  1  0
 39 40  1  0
 39 41  2  0
 41 42  1  0
 42 43  2  0
 43 44  1  0
 44 45  2  0
 42 46  1  0
 41 47  1  0
 38 48  1  0
  7 49  1  0
  7 50  1  0
  5 51  1  0
  5 52  1  0
  4 53  1  0
 53 54  1  0
  3 55  1  0
  1 56  1  0
  1 57  1  0
  1 58  1  0
 54  2  2  0
 44  6  1  0
 29  8  1  0
 43 37  1  0
 21 12  1  0
 21 16  1  0
M  END
>  <cnnaffinities>  (10) 
[6.53088, 6.5023, 6.66761]

>  <score>  (10) 
6.53088

>  <index>  (10) 
9

>  <Smiles>  (10) 
C(c1c(c(C(N2C([C@@]3(C(=O)N(c4c(nc(c5c(c(c(c(c45)[H])[H])[H])[H])[H])[H])C([C@@]3(C([H])([H])[H])[H])([H])[H])c3c(c(F)c(c(c3C2=O)[H])[H])[H])([H])[H])([H])[H])on1)[H])([H])([H])[H]

>  <h>  (10) 
<NA>

>  <Training>  (10) 
True

>  <Success>  (10) 
True

>  <enamine_searched>  (10) 
False

>  <enamine_id>  (10) 
nan

$$$$

     RDKit          3D

 72 77  0  0  0  0  0  0  0  0999 V2000
    7.4910    8.3781   24.7298 C   0  0  0  0  0  0  0  0  0  0  0  0
    6.7340    7.3396   23.9199 C   0  0  1  0  0  0  0  0  0  0  0  0
    7.4721    6.0064   23.9194 C   0  0  0  0  0  0  0  0  0  0  0  0
    6.6888    4.9784   23.1606 N   0  0  0  0  0  4  0  0  0  0  0  0
    7.3982    3.6659   23.0022 C   0  0  0  0  0  0  0  0  0  0  0  0
    7.5754    2.8442   24.2882 C   0  0  0  0  0  0  0  0  0  0  0  0
    8.4264    1.6776   24.0714 N   0  0  0  0  0  0  0  0  0  0  0  0
    7.8528    0.3587   23.9239 C   0  0  0  0  0  0  0  0  0  0  0  0
    8.4244   -0.3939   22.6916 C   0  0  2  0  0  0  0  0  0  0  0  0
    7.9559    0.3073   21.3938 C   0  0  0  0  0  0  0  0  0  0  0  0
    8.3860    1.3465   20.9284 O   0  0  0  0  0  0  0  0  0  0  0  0
    6.9328   -0.4201   20.8323 N   0  0  0  0  0  0  0  0  0  0  0  0
    6.1437    0.1070   19.7675 C   0  0  0  0  0  0  0  0  0  0  0  0
    6.4470   -0.2132   18.4693 C   0  0  0  0  0  0  0  0  0  0  0  0
    5.7636    0.2287   17.3829 N   0  0  0  0  0  0  0  0  0  0  0  0
    4.7392    1.0207   17.5863 C   0  0  0  0  0  0  0  0  0  0  0  0
    4.2893    1.4135   18.8788 C   0  0  0  0  0  0  0  0  0  0  0  0
    3.1630    2.2630   19.0570 C   0  0  0  0  0  0  0  0  0  0  0  0
    2.7538    2.6176   20.3132 C   0  0  0  0  0  0  0  0  0  0  0  0
    3.4463    2.1356   21.4442 C   0  0  0  0  0  0  0  0  0  0  0  0
    4.5440    1.3221   21.2987 C   0  0  0  0  0  0  0  0  0  0  0  0
    5.0025    0.9414   20.0073 C   0  0  0  0  0  0  0  0  0  0  0  0
    5.0710    0.9681   22.1777 H   0  0  0  0  0  0  0  0  0  0  0  0
    3.1137    2.4145   22.4410 H   0  0  0  0  0  0  0  0  0  0  0  0
    1.9004    3.2786   20.4533 H   0  0  0  0  0  0  0  0  0  0  0  0
    2.6496    2.6449   18.1788 H   0  0  0  0  0  0  0  0  0  0  0  0
    4.2091    1.3893   16.7052 H   0  0  0  0  0  0  0  0  0  0  0  0
    7.2915   -0.8656   18.2548 H   0  0  0  0  0  0  0  0  0  0  0  0
    6.5788   -1.6082   21.5861 C   0  0  0  0  0  0  0  0  0  0  0  0
    7.7737   -1.8053   22.5428 C   0  0  2  0  0  0  0  0  0  0  0  0
    7.3693   -2.5273   23.8336 C   0  0  0  0  0  0  0  0  0  0  0  0
    6.5588   -2.0049   24.3578 H   0  0  0  0  0  0  0  0  0  0  0  0
    7.0124   -3.5444   23.6252 H   0  0  0  0  0  0  0  0  0  0  0  0
    8.2076   -2.6104   24.5344 H   0  0  0  0  0  0  0  0  0  0  0  0
    8.5004   -2.4394   22.0279 H   0  0  0  0  0  0  0  0  0  0  0  0
    6.4392   -2.4587   20.9137 H   0  0  0  0  0  0  0  0  0  0  0  0
    5.6311   -1.4886   22.1368 H   0  0  0  0  0  0  0  0  0  0  0  0
    9.9405   -0.3406   22.7719 C   0  0  0  0  0  0  0  0  0  0  0  0
   10.7419   -1.2349   22.0498 C   0  0  0  0  0  0  0  0  0  0  0  0
   12.1223   -1.1388   22.1150 C   0  0  0  0  0  0  0  0  0  0  0  0
   13.1128   -2.2530   21.2214 Cl  0  0  0  0  0  0  0  0  0  0  0  0
   12.7580   -0.1517   22.8626 C   0  0  0  0  0  0  0  0  0  0  0  0
   11.9704    0.7777   23.5095 C   0  0  0  0  0  0  0  0  0  0  0  0
   10.5768    0.7113   23.4499 C   0  0  0  0  0  0  0  0  0  0  0  0
    9.7816    1.8435   24.0607 C   0  0  0  0  0  0  0  0  0  0  0  0
   10.3153    2.8569   24.4858 O   0  0  0  0  0  0  0  0  0  0  0  0
   12.4400    1.5840   24.0547 H   0  0  0  0  0  0  0  0  0  0  0  0
   13.8453   -0.1188   22.8961 H   0  0  0  0  0  0  0  0  0  0  0  0
   10.3071   -1.9894   21.4027 H   0  0  0  0  0  0  0  0  0  0  0  0
    8.0382   -0.2283   24.8363 H   0  0  0  0  0  0  0  0  0  0  0  0
    6.7739    0.4723   23.8114 H   0  0  0  0  0  0  0  0  0  0  0  0
    6.5986    2.4963   24.6335 H   0  0  0  0  0  0  0  0  0  0  0  0
    8.0087    3.4530   25.0866 H   0  0  0  0  0  0  0  0  0  0  0  0
    6.8345    3.0721   22.2753 H   0  0  0  0  0  0  0  0  0  0  0  0
    8.3843    3.8757   22.5817 H   0  0  0  0  0  0  0  0  0  0  0  0
    5.3014    4.8788   23.7300 C   0  0  0  0  0  0  0  0  0  0  0  0
    4.6169    6.2448   23.8106 C   0  0  2  0  0  0  0  0  0  0  0  0
    4.1161    6.7515   22.4601 C   0  0  0  0  0  0  0  0  0  0  0  0
    3.3727    6.0558   22.0510 H   0  0  0  0  0  0  0  0  0  0  0  0
    4.9192    6.8452   21.7193 H   0  0  0  0  0  0  0  0  0  0  0  0
    3.6430    7.7318   22.5805 H   0  0  0  0  0  0  0  0  0  0  0  0
    5.4380    7.1943   24.4849 O   0  0  0  0  0  0  0  0  0  0  0  0
    3.7465    6.1349   24.4685 H   0  0  0  0  0  0  0  0  0  0  0  0
    5.3748    4.4763   24.7396 H   0  0  0  0  0  0  0  0  0  0  0  0
    4.7104    4.1875   23.1238 H   0  0  0  0  0  0  0  0  0  0  0  0
    6.5865    5.3413   22.1917 H   0  0  0  0  0  0  0  0  0  0  0  0
    8.4636    6.1201   23.4677 H   0  0  0  0  0  0  0  0  0  0  0  0
    7.5988    5.6762   24.9528 H   0  0  0  0  0  0  0  0  0  0  0  0
    6.6554    7.6860   22.8777 H   0  0  0  0  0  0  0  0  0  0  0  0
    7.5956    8.0512   25.7717 H   0  0  0  0  0  0  0  0  0  0  0  0
    6.9783    9.3460   24.7200 H   0  0  0  0  0  0  0  0  0  0  0  0
    8.4978    8.5182   24.3159 H   0  0  0  0  0  0  0  0  0  0  0  0
  1  2  1  0
  2  3  1  0
  3  4  1  0
  4  5  1  0
  5  6  1  0
  6  7  1  0
  7  8  1  0
  9  8  1  1
  9 10  1  0
 10 11  2  0
 10 12  1  0
 12 13  1  0
 13 14  2  0
 14 15  1  0
 15 16  2  0
 16 17  1  0
 17 18  2  0
 18 19  1  0
 19 20  2  0
 20 21  1  0
 21 22  2  0
 21 23  1  0
 20 24  1  0
 19 25  1  0
 18 26  1  0
 16 27  1  0
 14 28  1  0
 12 29  1  0
 29 30  1  0
 30 31  1  0
 31 32  1  0
 31 33  1  0
 31 34  1  0
 30 35  1  6
 29 36  1  0
 29 37  1  0
  9 38  1  0
 38 39  2  0
 39 40  1  0
 40 41  1  0
 40 42  2  0
 42 43  1  0
 43 44  2  0
 44 45  1  0
 45 46  2  0
 43 47  1  0
 42 48  1  0
 39 49  1  0
  8 50  1  0
  8 51  1  0
  6 52  1  0
  6 53  1  0
  5 54  1  0
  5 55  1  0
  4 56  1  0
 56 57  1  0
 57 58  1  0
 58 59  1  0
 58 60  1  0
 58 61  1  0
 57 62  1  0
 57 63  1  1
 56 64  1  0
 56 65  1  0
  4 66  1  0
  3 67  1  0
  3 68  1  0
  2 69  1  6
  1 70  1  0
  1 71  1  0
  1 72  1  0
 62  2  1  0
 45  7  1  0
 30  9  1  0
 44 38  1  0
 22 13  1  0
 22 17  1  0
M  CHG  1   4   1
M  END
>  <cnnaffinities>  (11) 
[7.33054]

>  <score>  (11) 
7.33054

>  <index>  (11) 
10

>  <Smiles>  (11) 
C([C@]1(C([N+](C(C(N2C([C@@]3(C(=O)N(c4c(nc(c5c(c(c(c(c45)[H])[H])[H])[H])[H])[H])C([C@@]3(C([H])([H])[H])[H])([H])[H])c3c(c(Cl)c(c(c3C2=O)[H])[H])[H])([H])[H])([H])[H])([H])[H])(C([C@](C([H])([H])[H])(O1)[H])([H])[H])[H])([H])[H])[H])([H])([H])[H]

>  <h>  (11) 
<NA>

>  <Training>  (11) 
True

>  <Success>  (11) 
True

>  <enamine_searched>  (11) 
False

>  <enamine_id>  (11) 
nan

$$$$

     RDKit          3D

 54 57  0  0  0  0  0  0  0  0999 V2000
    4.8800    1.9204   25.3042 C   0  0  0  0  0  0  0  0  0  0  0  0
    6.1345    1.9647   24.6601 O   0  0  0  0  0  0  0  0  0  0  0  0
    6.4399    2.9880   23.8097 C   0  0  0  0  0  0  0  0  0  0  0  0
    5.5513    4.0270   23.5131 C   0  0  0  0  0  0  0  0  0  0  0  0
    5.9382    5.0312   22.6254 C   0  0  0  0  0  0  0  0  0  0  0  0
    7.1969    5.0148   22.0454 C   0  0  0  0  0  0  0  0  0  0  0  0
    8.0718    3.9816   22.3661 C   0  0  0  0  0  0  0  0  0  0  0  0
    7.7270    2.9598   23.2370 C   0  0  0  0  0  0  0  0  0  0  0  0
    8.6566    1.7834   23.5085 C   0  0  2  0  0  0  0  0  0  0  0  0
   10.1647    2.0525   23.3432 C   0  0  0  0  0  0  0  0  0  0  0  0
   10.9920    0.8538   23.8299 C   0  0  2  0  0  0  0  0  0  0  0  0
   12.4877    1.0771   23.6130 C   0  0  0  0  0  0  0  0  0  0  0  0
   12.8386    1.9812   24.1210 H   0  0  0  0  0  0  0  0  0  0  0  0
   13.0861    0.2305   23.9710 H   0  0  0  0  0  0  0  0  0  0  0  0
   12.7015    1.1958   22.5459 H   0  0  0  0  0  0  0  0  0  0  0  0
   10.5195   -0.4276   23.1387 C   0  0  0  0  0  0  0  0  0  0  0  0
    8.9987   -0.6100   23.2632 C   0  0  0  0  0  0  0  0  0  0  0  0
    8.2621    0.5604   22.7855 N   0  0  0  0  0  0  0  0  0  0  0  0
    7.9291    0.6540   21.4234 C   0  0  0  0  0  0  0  0  0  0  0  0
    8.3470    1.5263   20.6924 O   0  0  0  0  0  0  0  0  0  0  0  0
    6.9749   -0.4302   20.8958 C   0  0  0  0  0  0  0  0  0  0  0  0
    6.1118    0.0827   19.7658 C   0  0  0  0  0  0  0  0  0  0  0  0
    6.4269   -0.2097   18.4648 C   0  0  0  0  0  0  0  0  0  0  0  0
    5.7626    0.2395   17.3646 N   0  0  0  0  0  0  0  0  0  0  0  0
    4.7349    1.0261   17.5767 C   0  0  0  0  0  0  0  0  0  0  0  0
    4.2871    1.4173   18.8662 C   0  0  0  0  0  0  0  0  0  0  0  0
    3.1687    2.2699   19.0450 C   0  0  0  0  0  0  0  0  0  0  0  0
    2.7638    2.6408   20.2983 C   0  0  0  0  0  0  0  0  0  0  0  0
    3.4646    2.1635   21.4317 C   0  0  0  0  0  0  0  0  0  0  0  0
    4.5484    1.3311   21.2899 C   0  0  0  0  0  0  0  0  0  0  0  0
    4.9932    0.9365   20.0001 C   0  0  0  0  0  0  0  0  0  0  0  0
    5.0716    0.9774   22.1747 H   0  0  0  0  0  0  0  0  0  0  0  0
    3.1373    2.4671   22.4237 H   0  0  0  0  0  0  0  0  0  0  0  0
    1.9141    3.3085   20.4255 H   0  0  0  0  0  0  0  0  0  0  0  0
    2.6557    2.6484   18.1639 H   0  0  0  0  0  0  0  0  0  0  0  0
    4.2018    1.3953   16.6976 H   0  0  0  0  0  0  0  0  0  0  0  0
    7.2749   -0.8537   18.2400 H   0  0  0  0  0  0  0  0  0  0  0  0
    6.3687   -0.8298   21.7211 H   0  0  0  0  0  0  0  0  0  0  0  0
    7.5885   -1.2632   20.5244 H   0  0  0  0  0  0  0  0  0  0  0  0
    8.6680   -1.4845   22.6992 H   0  0  0  0  0  0  0  0  0  0  0  0
    8.7397   -0.7774   24.3179 H   0  0  0  0  0  0  0  0  0  0  0  0
   10.7959   -0.3847   22.0781 H   0  0  0  0  0  0  0  0  0  0  0  0
   11.0493   -1.2958   23.5540 H   0  0  0  0  0  0  0  0  0  0  0  0
   10.8215    0.7374   24.9101 H   0  0  0  0  0  0  0  0  0  0  0  0
   10.4537    2.9449   23.9138 H   0  0  0  0  0  0  0  0  0  0  0  0
   10.3984    2.2599   22.2921 H   0  0  0  0  0  0  0  0  0  0  0  0
    8.5160    1.5181   24.5619 H   0  0  0  0  0  0  0  0  0  0  0  0
    9.0402    3.9595   21.8788 H   0  0  0  0  0  0  0  0  0  0  0  0
    7.5024    5.7838   21.3399 H   0  0  0  0  0  0  0  0  0  0  0  0
    5.2503    5.8350   22.3818 H   0  0  0  0  0  0  0  0  0  0  0  0
    4.5621    4.0696   23.9632 H   0  0  0  0  0  0  0  0  0  0  0  0
    4.6971    2.7761   25.9652 H   0  0  0  0  0  0  0  0  0  0  0  0
    4.9068    1.0237   25.9182 H   0  0  0  0  0  0  0  0  0  0  0  0
    4.0300    1.8268   24.6157 H   0  0  0  0  0  0  0  0  0  0  0  0
  1  2  1  0
  2  3  1  0
  3  4  2  0
  4  5  1  0
  5  6  2  0
  6  7  1  0
  7  8  2  0
  8  9  1  0
  9 10  1  0
 10 11  1  0
 11 12  1  0
 12 13  1  0
 12 14  1  0
 12 15  1  0
 11 16  1  0
 16 17  1  0
 17 18  1  0
 18 19  1  0
 19 20  2  0
 19 21  1  0
 21 22  1  0
 22 23  2  0
 23 24  1  0
 24 25  2  0
 25 26  1  0
 26 27  2  0
 27 28  1  0
 28 29  2  0
 29 30  1  0
 30 31  2  0
 30 32  1  0
 29 33  1  0
 28 34  1  0
 27 35  1  0
 25 36  1  0
 23 37  1  0
 21 38  1  0
 21 39  1  0
 17 40  1  0
 17 41  1  0
 16 42  1  0
 16 43  1  0
 11 44  1  1
 10 45  1  0
 10 46  1  0
  9 47  1  1
  7 48  1  0
  6 49  1  0
  5 50  1  0
  4 51  1  0
  1 52  1  0
  1 53  1  0
  1 54  1  0
  8  3  1  0
 18  9  1  0
 31 22  1  0
 31 26  1  0
M  END
>  <cnnaffinities>  (12) 
[5.77232]

>  <score>  (12) 
5.77232

>  <index>  (12) 
11

>  <Smiles>  (12) 
C(Oc1c(c(c(c(c1[C@@]1(C([C@](C([H])([H])[H])(C(C(N1C(=O)C(c1c(nc(c2c(c(c(c(c12)[H])[H])[H])[H])[H])[H])([H])[H])([H])[H])([H])[H])[H])([H])[H])[H])[H])[H])[H])[H])([H])([H])[H]

>  <h>  (12) 
<NA>

>  <Training>  (12) 
True

>  <Success>  (12) 
True

>  <enamine_searched>  (12) 
False

>  <enamine_id>  (12) 
nan

$$$$

     RDKit          3D

 47 50  0  0  0  0  0  0  0  0999 V2000
    8.4370    1.4091   20.7873 O   0  0  0  0  0  0  0  0  0  0  0  0
    7.8547    0.6350   21.5303 C   0  0  0  0  0  0  0  0  0  0  0  0
    6.9366   -0.4479   20.9191 C   0  0  0  0  0  0  0  0  0  0  0  0
    6.1115    0.0846   19.7690 C   0  0  0  0  0  0  0  0  0  0  0  0
    6.4274   -0.2069   18.4644 C   0  0  0  0  0  0  0  0  0  0  0  0
    5.7628    0.2408   17.3633 N   0  0  0  0  0  0  0  0  0  0  0  0
    4.7344    1.0279   17.5747 C   0  0  0  0  0  0  0  0  0  0  0  0
    4.2861    1.4201   18.8682 C   0  0  0  0  0  0  0  0  0  0  0  0
    3.1649    2.2732   19.0440 C   0  0  0  0  0  0  0  0  0  0  0  0
    2.7626    2.6434   20.3000 C   0  0  0  0  0  0  0  0  0  0  0  0
    3.4621    2.1688   21.4312 C   0  0  0  0  0  0  0  0  0  0  0  0
    4.5475    1.3388   21.2878 C   0  0  0  0  0  0  0  0  0  0  0  0
    4.9913    0.9418   19.9964 C   0  0  0  0  0  0  0  0  0  0  0  0
    5.0702    0.9874   22.1717 H   0  0  0  0  0  0  0  0  0  0  0  0
    3.1365    2.4667   22.4220 H   0  0  0  0  0  0  0  0  0  0  0  0
    1.9128    3.3063   20.4343 H   0  0  0  0  0  0  0  0  0  0  0  0
    2.6458    2.6486   18.1660 H   0  0  0  0  0  0  0  0  0  0  0  0
    4.1987    1.3986   16.6995 H   0  0  0  0  0  0  0  0  0  0  0  0
    7.2738   -0.8568   18.2478 H   0  0  0  0  0  0  0  0  0  0  0  0
    6.2907   -0.9316   21.6598 H   0  0  0  0  0  0  0  0  0  0  0  0
    7.5965   -1.2328   20.5284 H   0  0  0  0  0  0  0  0  0  0  0  0
    8.0102    0.6944   22.8868 N   0  0  0  0  0  0  0  0  0  0  0  0
    8.9011    1.6893   23.4880 C   0  0  0  0  0  0  0  0  0  0  0  0
    9.0872    1.2428   24.9460 C   0  0  2  0  0  0  0  0  0  0  0  0
   10.3531    0.4125   25.1358 C   0  0  0  0  0  0  0  0  0  0  0  0
   11.4665    1.1718   24.8041 F   0  0  0  0  0  0  0  0  0  0  0  0
   10.4758    0.0660   26.1660 H   0  0  0  0  0  0  0  0  0  0  0  0
   10.3465   -0.4720   24.4946 H   0  0  0  0  0  0  0  0  0  0  0  0
    7.7992    0.4519   25.2589 C   0  0  0  0  0  0  0  0  0  0  0  0
    6.6539    1.3674   25.7526 C   0  0  0  0  0  0  0  0  0  0  0  0
    5.6642    0.4692   26.5188 C   0  0  0  0  0  0  0  0  0  0  0  0
    6.4337   -0.8173   26.8704 C   0  0  0  0  0  0  0  0  0  0  0  0
    7.8731   -0.5837   26.3926 C   0  0  0  0  0  0  0  0  0  0  0  0
    8.3602   -1.5135   26.0833 H   0  0  0  0  0  0  0  0  0  0  0  0
    8.4637   -0.1839   27.2213 H   0  0  0  0  0  0  0  0  0  0  0  0
    5.9966   -1.6773   26.3551 H   0  0  0  0  0  0  0  0  0  0  0  0
    6.4001   -1.0377   27.9417 H   0  0  0  0  0  0  0  0  0  0  0  0
    4.7927    0.2390   25.9013 H   0  0  0  0  0  0  0  0  0  0  0  0
    5.2941    0.9791   27.4120 H   0  0  0  0  0  0  0  0  0  0  0  0
    6.1763    1.9001   24.9259 H   0  0  0  0  0  0  0  0  0  0  0  0
    7.0587    2.1315   26.4252 H   0  0  0  0  0  0  0  0  0  0  0  0
    7.4406   -0.1891   23.8951 C   0  0  0  0  0  0  0  0  0  0  0  0
    6.3564   -0.2769   23.7839 H   0  0  0  0  0  0  0  0  0  0  0  0
    7.8568   -1.2007   23.8108 H   0  0  0  0  0  0  0  0  0  0  0  0
    9.1859    2.1035   25.6145 H   0  0  0  0  0  0  0  0  0  0  0  0
    8.4544    2.6884   23.4454 H   0  0  0  0  0  0  0  0  0  0  0  0
    9.8597    1.7333   22.9708 H   0  0  0  0  0  0  0  0  0  0  0  0
  1  2  2  0
  2  3  1  0
  3  4  1  0
  4  5  2  0
  5  6  1  0
  6  7  2  0
  7  8  1  0
  8  9  2  0
  9 10  1  0
 10 11  2  0
 11 12  1  0
 12 13  2  0
 12 14  1  0
 11 15  1  0
 10 16  1  0
  9 17  1  0
  7 18  1  0
  5 19  1  0
  3 20  1  0
  3 21  1  0
  2 22  1  0
 22 23  1  0
 23 24  1  0
 24 25  1  0
 25 26  1  0
 25 27  1  0
 25 28  1  0
 24 29  1  0
 29 30  1  0
 30 31  1  0
 31 32  1  0
 32 33  1  0
 33 34  1  0
 33 35  1  0
 32 36  1  0
 32 37  1  0
 31 38  1  0
 31 39  1  0
 30 40  1  0
 30 41  1  0
 29 42  1  0
 42 43  1  0
 42 44  1  0
 24 45  1  1
 23 46  1  0
 23 47  1  0
 13  4  1  0
 42 22  1  0
 13  8  1  0
 33 29  1  0
M  END
>  <cnnaffinities>  (13) 
[5.34775, 5.22969, 5.01026, 5.38276, 5.60419, 4.87876]

>  <score>  (13) 
5.34775

>  <index>  (13) 
12

>  <Smiles>  (13) 
O=C(C(c1c(nc(c2c(c(c(c(c12)[H])[H])[H])[H])[H])[H])([H])[H])N1C([C@](C(F)([H])[H])(C2(C(C(C(C2([H])[H])([H])[H])([H])[H])([H])[H])C1([H])[H])[H])([H])[H]

>  <h>  (13) 
<NA>

>  <Training>  (13) 
True

>  <Success>  (13) 
True

>  <enamine_searched>  (13) 
False

>  <enamine_id>  (13) 
nan

$$$$

     RDKit          3D

 67 72  0  0  0  0  0  0  0  0999 V2000
    6.0388    1.6307   28.9816 C   0  0  0  0  0  0  0  0  0  0  0  0
    6.2904    2.0531   27.6123 N   0  0  0  0  0  0  0  0  0  0  0  0
    5.9315    1.2414   26.5858 C   0  0  0  0  0  0  0  0  0  0  0  0
    5.3088    0.2018   26.7521 O   0  0  0  0  0  0  0  0  0  0  0  0
    6.3266    1.7139   25.1783 C   0  0  0  0  0  0  0  0  0  0  0  0
    7.4885    1.0343   24.6409 N   0  0  0  0  0  0  0  0  0  0  0  0
    7.3606   -0.3056   24.0966 C   0  0  0  0  0  0  0  0  0  0  0  0
    8.2288   -0.4838   22.8191 C   0  0  2  0  0  0  0  0  0  0  0  0
    7.6431    0.3958   21.6899 C   0  0  0  0  0  0  0  0  0  0  0  0
    7.7580    1.5972   21.5627 O   0  0  0  0  0  0  0  0  0  0  0  0
    6.9255   -0.4112   20.8316 N   0  0  0  0  0  0  0  0  0  0  0  0
    6.1408    0.1047   19.7704 C   0  0  0  0  0  0  0  0  0  0  0  0
    6.4434   -0.2239   18.4720 C   0  0  0  0  0  0  0  0  0  0  0  0
    5.7703    0.2237   17.3840 N   0  0  0  0  0  0  0  0  0  0  0  0
    4.7465    1.0177   17.5935 C   0  0  0  0  0  0  0  0  0  0  0  0
    4.2938    1.4092   18.8846 C   0  0  0  0  0  0  0  0  0  0  0  0
    3.1637    2.2544   19.0585 C   0  0  0  0  0  0  0  0  0  0  0  0
    2.7375    2.5996   20.3119 C   0  0  0  0  0  0  0  0  0  0  0  0
    3.4133    2.1031   21.4491 C   0  0  0  0  0  0  0  0  0  0  0  0
    4.5058    1.2859   21.3051 C   0  0  0  0  0  0  0  0  0  0  0  0
    4.9951    0.9338   20.0147 C   0  0  0  0  0  0  0  0  0  0  0  0
    5.0173    0.9092   22.1857 H   0  0  0  0  0  0  0  0  0  0  0  0
    3.0708    2.3822   22.4409 H   0  0  0  0  0  0  0  0  0  0  0  0
    1.8858    3.2622   20.4389 H   0  0  0  0  0  0  0  0  0  0  0  0
    2.6602    2.6361   18.1744 H   0  0  0  0  0  0  0  0  0  0  0  0
    4.2186    1.3851   16.7137 H   0  0  0  0  0  0  0  0  0  0  0  0
    7.2891   -0.8782   18.2641 H   0  0  0  0  0  0  0  0  0  0  0  0
    6.9166   -1.8078   21.2215 C   0  0  0  0  0  0  0  0  0  0  0  0
    8.0885   -1.9124   22.2080 C   0  0  2  0  0  0  0  0  0  0  0  0
    7.9188   -3.0785   23.1915 C   0  0  0  0  0  0  0  0  0  0  0  0
    8.9347   -3.0992   24.1673 O   0  0  0  0  0  0  0  0  0  0  0  0
   10.0663   -3.8260   23.7583 C   0  0  0  0  0  0  0  0  0  0  0  0
   11.2045   -3.6059   24.7056 C   0  0  0  0  0  0  0  0  0  0  0  0
   11.3696   -2.3723   25.5352 C   0  0  0  0  0  0  0  0  0  0  0  0
   10.9732   -3.6862   26.1835 C   0  0  0  0  0  0  0  0  0  0  0  0
   11.6788   -4.2233   26.8158 H   0  0  0  0  0  0  0  0  0  0  0  0
    9.9408   -3.7765   26.5191 H   0  0  0  0  0  0  0  0  0  0  0  0
   10.6306   -1.5757   25.4214 H   0  0  0  0  0  0  0  0  0  0  0  0
   12.3963   -2.0440   25.6785 H   0  0  0  0  0  0  0  0  0  0  0  0
   12.1287   -3.9322   24.2497 H   0  0  0  0  0  0  0  0  0  0  0  0
   10.3856   -3.5219   22.7510 H   0  0  0  0  0  0  0  0  0  0  0  0
    9.8124   -4.8975   23.7018 H   0  0  0  0  0  0  0  0  0  0  0  0
    6.9708   -2.9747   23.7360 H   0  0  0  0  0  0  0  0  0  0  0  0
    7.8901   -4.0426   22.6478 H   0  0  0  0  0  0  0  0  0  0  0  0
    8.9988   -2.0899   21.6295 H   0  0  0  0  0  0  0  0  0  0  0  0
    7.0333   -2.4395   20.3400 H   0  0  0  0  0  0  0  0  0  0  0  0
    5.9652   -2.0898   21.7001 H   0  0  0  0  0  0  0  0  0  0  0  0
    9.6421   -0.0378   23.1586 C   0  0  0  0  0  0  0  0  0  0  0  0
   10.7475   -0.4504   22.3999 C   0  0  0  0  0  0  0  0  0  0  0  0
   12.0214   -0.0186   22.7341 C   0  0  0  0  0  0  0  0  0  0  0  0
   13.3903   -0.5743   21.8074 Cl  0  0  0  0  0  0  0  0  0  0  0  0
   12.2410    0.8541   23.7993 C   0  0  0  0  0  0  0  0  0  0  0  0
   11.1450    1.3090   24.5076 C   0  0  0  0  0  0  0  0  0  0  0  0
    9.8576    0.8978   24.1835 C   0  0  0  0  0  0  0  0  0  0  0  0
    8.7221    1.5364   24.9341 C   0  0  0  0  0  0  0  0  0  0  0  0
    8.8752    2.4526   25.7363 O   0  0  0  0  0  0  0  0  0  0  0  0
   11.2155    2.0110   25.3259 H   0  0  0  0  0  0  0  0  0  0  0  0
   13.2508    1.1702   24.0353 H   0  0  0  0  0  0  0  0  0  0  0  0
   10.6368   -1.0795   21.5224 H   0  0  0  0  0  0  0  0  0  0  0  0
    7.6735   -1.0407   24.8514 H   0  0  0  0  0  0  0  0  0  0  0  0
    6.3055   -0.4821   23.8629 H   0  0  0  0  0  0  0  0  0  0  0  0
    5.4778    1.4754   24.5306 H   0  0  0  0  0  0  0  0  0  0  0  0
    6.5075    2.7933   25.1327 H   0  0  0  0  0  0  0  0  0  0  0  0
    6.8674    2.8627   27.4231 H   0  0  0  0  0  0  0  0  0  0  0  0
    4.9623    1.5064   29.1620 H   0  0  0  0  0  0  0  0  0  0  0  0
    6.4354    2.3918   29.6593 H   0  0  0  0  0  0  0  0  0  0  0  0
    6.5214    0.6662   29.1954 H   0  0  0  0  0  0  0  0  0  0  0  0
  1  2  1  0
  2  3  1  0
  3  4  2  0
  3  5  1  0
  5  6  1  0
  6  7  1  0
  8  7  1  1
  8  9  1  0
  9 10  2  0
  9 11  1  0
 11 12  1  0
 12 13  2  0
 13 14  1  0
 14 15  2  0
 15 16  1  0
 16 17  2  0
 17 18  1  0
 18 19  2  0
 19 20  1  0
 20 21  2  0
 20 22  1  0
 19 23  1  0
 18 24  1  0
 17 25  1  0
 15 26  1  0
 13 27  1  0
 11 28  1  0
 28 29  1  0
 29 30  1  0
 30 31  1  0
 31 32  1  0
 32 33  1  0
 33 34  1  0
 34 35  1  0
 35 36  1  0
 35 37  1  0
 34 38  1  0
 34 39  1  0
 33 40  1  0
 32 41  1  0
 32 42  1  0
 30 43  1  0
 30 44  1  0
 29 45  1  6
 28 46  1  0
 28 47  1  0
  8 48  1  0
 48 49  2  0
 49 50  1  0
 50 51  1  0
 50 52  2  0
 52 53  1  0
 53 54  2  0
 54 55  1  0
 55 56  2  0
 53 57  1  0
 52 58  1  0
 49 59  1  0
  7 60  1  0
  7 61  1  0
  5 62  1  0
  5 63  1  0
  2 64  1  0
  1 65  1  0
  1 66  1  0
  1 67  1  0
 55  6  1  0
 29  8  1  0
 35 33  1  0
 54 48  1  0
 21 12  1  0
 21 16  1  0
M  END
>  <cnnaffinities>  (14) 
[6.58894, 6.16593]

>  <score>  (14) 
6.58894

>  <index>  (14) 
13

>  <Smiles>  (14) 
C(N(C(=O)C(N1C([C@@]2(C(=O)N(c3c(nc(c4c(c(c(c(c34)[H])[H])[H])[H])[H])[H])C([C@@]2(C(OC(C2(C(C2([H])[H])([H])[H])[H])([H])[H])([H])[H])[H])([H])[H])c2c(c(Cl)c(c(c2C1=O)[H])[H])[H])([H])[H])([H])[H])[H])([H])([H])[H]

>  <h>  (14) 
<NA>

>  <Training>  (14) 
True

>  <Success>  (14) 
True

>  <enamine_searched>  (14) 
False

>  <enamine_id>  (14) 
nan

$$$$

     RDKit          3D

 67 73  0  0  0  0  0  0  0  0999 V2000
    7.3907   -2.4021   23.9093 C   0  0  0  0  0  0  0  0  0  0  0  0
    7.7732   -1.7787   22.5582 C   0  0  1  0  0  0  0  0  0  0  0  0
    6.5385   -1.5408   21.6545 C   0  0  0  0  0  0  0  0  0  0  0  0
    6.9288   -0.4141   20.8285 N   0  0  0  0  0  0  0  0  0  0  0  0
    6.1449    0.1083   19.7621 C   0  0  0  0  0  0  0  0  0  0  0  0
    6.4595   -0.2094   18.4666 C   0  0  0  0  0  0  0  0  0  0  0  0
    5.7733    0.2263   17.3807 N   0  0  0  0  0  0  0  0  0  0  0  0
    4.7470    1.0135   17.5956 C   0  0  0  0  0  0  0  0  0  0  0  0
    4.2958    1.4156   18.8842 C   0  0  0  0  0  0  0  0  0  0  0  0
    3.1683    2.2621   19.0634 C   0  0  0  0  0  0  0  0  0  0  0  0
    2.7595    2.6248   20.3167 C   0  0  0  0  0  0  0  0  0  0  0  0
    3.4575    2.1544   21.4499 C   0  0  0  0  0  0  0  0  0  0  0  0
    4.5613    1.3467   21.3043 C   0  0  0  0  0  0  0  0  0  0  0  0
    5.0131    0.9508   20.0145 C   0  0  0  0  0  0  0  0  0  0  0  0
    5.0927    1.0014   22.1855 H   0  0  0  0  0  0  0  0  0  0  0  0
    3.1256    2.4452   22.4430 H   0  0  0  0  0  0  0  0  0  0  0  0
    1.9117    3.2959   20.4426 H   0  0  0  0  0  0  0  0  0  0  0  0
    2.6606    2.6341   18.1787 H   0  0  0  0  0  0  0  0  0  0  0  0
    4.2151    1.3787   16.7163 H   0  0  0  0  0  0  0  0  0  0  0  0
    7.3032   -0.8645   18.2607 H   0  0  0  0  0  0  0  0  0  0  0  0
    8.0593    0.2419   21.2638 C   0  0  0  0  0  0  0  0  0  0  0  0
    8.5645    1.1828   20.6868 O   0  0  0  0  0  0  0  0  0  0  0  0
    8.5359   -0.4137   22.5901 C   0  0  1  0  0  0  0  0  0  0  0  0
    8.0609    0.4490   23.7985 C   0  0  0  0  0  0  0  0  0  0  0  0
    8.7256    1.7340   23.8531 N   0  0  0  0  0  0  0  0  0  0  0  0
    7.9682    2.9649   24.0248 C   0  0  0  0  0  0  0  0  0  0  0  0
    7.7011    3.6459   22.6809 C   0  0  0  0  0  0  0  0  0  0  0  0
    6.9465    4.9299   22.8284 N   0  0  2  0  0  4  0  0  0  0  0  0
    5.4590    4.7686   23.2105 C   0  0  0  0  0  0  0  0  0  0  0  0
    4.7357    5.5057   22.0717 C   0  0  2  0  0  0  0  0  0  0  0  0
    5.5899    5.1319   20.8578 C   0  0  0  0  0  0  0  0  0  0  0  0
    6.8450    5.7182   21.5210 C   0  0  1  0  0  0  0  0  0  0  0  0
    6.3374    7.1154   21.8585 C   0  0  0  0  0  0  0  0  0  0  0  0
    4.9611    6.9119   22.2161 O   0  0  0  0  0  0  0  0  0  0  0  0
    6.8826    7.5661   22.6960 H   0  0  0  0  0  0  0  0  0  0  0  0
    6.3893    7.7950   20.9982 H   0  0  0  0  0  0  0  0  0  0  0  0
    7.7967    5.6878   21.0013 H   0  0  0  0  0  0  0  0  0  0  0  0
    5.6186    4.0519   20.6595 H   0  0  0  0  0  0  0  0  0  0  0  0
    5.2983    5.6730   19.9547 H   0  0  0  0  0  0  0  0  0  0  0  0
    3.6595    5.3435   22.0219 H   0  0  0  0  0  0  0  0  0  0  0  0
    5.2147    3.7031   23.2269 H   0  0  0  0  0  0  0  0  0  0  0  0
    5.2750    5.2150   24.1853 H   0  0  0  0  0  0  0  0  0  0  0  0
    7.4484    5.4980   23.5368 H   0  0  0  0  0  0  0  0  0  0  0  0
    8.6565    3.8529   22.1833 H   0  0  0  0  0  0  0  0  0  0  0  0
    7.1325    2.9666   22.0351 H   0  0  0  0  0  0  0  0  0  0  0  0
    8.5417    3.6255   24.6827 H   0  0  0  0  0  0  0  0  0  0  0  0
    7.0246    2.6988   24.5161 H   0  0  0  0  0  0  0  0  0  0  0  0
   10.0811    1.8151   23.7566 C   0  0  0  0  0  0  0  0  0  0  0  0
   10.7052    2.8217   24.0621 O   0  0  0  0  0  0  0  0  0  0  0  0
   10.7706    0.5933   23.2115 C   0  0  0  0  0  0  0  0  0  0  0  0
   12.1623    0.5972   23.2425 C   0  0  0  0  0  0  0  0  0  0  0  0
   12.8571   -0.4168   22.6234 C   0  0  0  0  0  0  0  0  0  0  0  0
   12.1748   -1.4032   21.9159 C   0  0  0  0  0  0  0  0  0  0  0  0
   13.1770   -2.4623   20.9584 Cl  0  0  0  0  0  0  0  0  0  0  0  0
   10.7888   -1.4629   21.9338 C   0  0  0  0  0  0  0  0  0  0  0  0
   10.0624   -0.4698   22.6213 C   0  0  0  0  0  0  0  0  0  0  0  0
   10.2676   -2.2452   21.3905 H   0  0  0  0  0  0  0  0  0  0  0  0
   13.9357   -0.4467   22.6190 H   0  0  0  0  0  0  0  0  0  0  0  0
   12.6699    1.4369   23.7122 H   0  0  0  0  0  0  0  0  0  0  0  0
    6.9860    0.6433   23.7121 H   0  0  0  0  0  0  0  0  0  0  0  0
    8.2502   -0.1192   24.7257 H   0  0  0  0  0  0  0  0  0  0  0  0
    6.3014   -2.4129   21.0314 H   0  0  0  0  0  0  0  0  0  0  0  0
    5.6367   -1.3179   22.2487 H   0  0  0  0  0  0  0  0  0  0  0  0
    8.4295   -2.4774   22.0331 H   0  0  0  0  0  0  0  0  0  0  0  0
    8.2587   -2.5120   24.5712 H   0  0  0  0  0  0  0  0  0  0  0  0
    6.9477   -3.3980   23.7749 H   0  0  0  0  0  0  0  0  0  0  0  0
    6.6476   -1.7889   24.4379 H   0  0  0  0  0  0  0  0  0  0  0  0
  1  2  1  0
  2  3  1  0
  3  4  1  0
  4  5  1  0
  5  6  2  0
  6  7  1  0
  7  8  2  0
  8  9  1  0
  9 10  2  0
 10 11  1  0
 11 12  2  0
 12 13  1  0
 13 14  2  0
 13 15  1  0
 12 16  1  0
 11 17  1  0
 10 18  1  0
  8 19  1  0
  6 20  1  0
  4 21  1  0
 21 22  2  0
 21 23  1  0
 23 24  1  1
 24 25  1  0
 25 26  1  0
 26 27  1  0
 27 28  1  0
 28 29  1  0
 29 30  1  0
 30 31  1  0
 31 32  1  0
 32 33  1  0
 33 34  1  0
 33 35  1  0
 33 36  1  0
 32 37  1  6
 31 38  1  0
 31 39  1  0
 30 40  1  6
 29 41  1  0
 29 42  1  0
 28 43  1  1
 27 44  1  0
 27 45  1  0
 26 46  1  0
 26 47  1  0
 25 48  1  0
 48 49  2  0
 48 50  1  0
 50 51  2  0
 51 52  1  0
 52 53  2  0
 53 54  1  0
 53 55  1  0
 55 56  2  0
 55 57  1  0
 52 58  1  0
 51 59  1  0
 24 60  1  0
 24 61  1  0
  3 62  1  0
  3 63  1  0
  2 64  1  6
  1 65  1  0
  1 66  1  0
  1 67  1  0
 23  2  1  0
 32 28  1  0
 56 50  1  0
 14  5  1  0
 56 23  1  0
 14  9  1  0
 34 30  1  0
M  CHG  1  28   1
M  END
>  <cnnaffinities>  (15) 
[7.05667, 7.27244, 6.51267]

>  <score>  (15) 
7.05667

>  <index>  (15) 
14

>  <Smiles>  (15) 
C([C@]1(C(N(c2c(nc(c3c(c(c(c(c23)[H])[H])[H])[H])[H])[H])C(=O)[C@]21C(N(C(C([N@@+]1(C([C@@]3(C([C@]1(C(O3)([H])[H])[H])([H])[H])[H])([H])[H])[H])([H])[H])([H])[H])C(=O)c1c(c(c(Cl)c(c21)[H])[H])[H])([H])[H])([H])[H])[H])([H])([H])[H]

>  <h>  (15) 
<NA>

>  <Training>  (15) 
True

>  <Success>  (15) 
True

>  <enamine_searched>  (15) 
False

>  <enamine_id>  (15) 
nan

$$$$

     RDKit          3D

 72 77  0  0  0  0  0  0  0  0999 V2000
    5.3311    6.1379   20.2292 C   0  0  0  0  0  0  0  0  0  0  0  0
    5.7131    5.4030   21.5085 C   0  0  1  0  0  0  0  0  0  0  0  0
    6.7966    4.3564   21.2095 C   0  0  0  0  0  0  0  0  0  0  0  0
    7.7734    4.1867   22.3379 N   0  0  2  0  0  4  0  0  0  0  0  0
    7.0966    3.4300   23.4473 C   0  0  0  0  0  0  0  0  0  0  0  0
    8.0748    2.8273   24.4422 C   0  0  0  0  0  0  0  0  0  0  0  0
    8.8002    1.7135   23.8639 N   0  0  0  0  0  0  0  0  0  0  0  0
    8.1311    0.4282   23.7820 C   0  0  0  0  0  0  0  0  0  0  0  0
    8.5715   -0.3575   22.5268 C   0  0  2  0  0  0  0  0  0  0  0  0
    8.0142    0.3629   21.2747 C   0  0  0  0  0  0  0  0  0  0  0  0
    8.3911    1.4212   20.8072 O   0  0  0  0  0  0  0  0  0  0  0  0
    6.9694   -0.3815   20.7859 N   0  0  0  0  0  0  0  0  0  0  0  0
    6.1603    0.1140   19.7377 C   0  0  0  0  0  0  0  0  0  0  0  0
    6.4928   -0.1910   18.4462 C   0  0  0  0  0  0  0  0  0  0  0  0
    5.8038    0.2335   17.3618 N   0  0  0  0  0  0  0  0  0  0  0  0
    4.7620    0.9991   17.5875 C   0  0  0  0  0  0  0  0  0  0  0  0
    4.3078    1.3906   18.8799 C   0  0  0  0  0  0  0  0  0  0  0  0
    3.1891    2.2420   19.0616 C   0  0  0  0  0  0  0  0  0  0  0  0
    2.7853    2.6116   20.3150 C   0  0  0  0  0  0  0  0  0  0  0  0
    3.4775    2.1381   21.4526 C   0  0  0  0  0  0  0  0  0  0  0  0
    4.5661    1.3103   21.3078 C   0  0  0  0  0  0  0  0  0  0  0  0
    5.0194    0.9245   20.0112 C   0  0  0  0  0  0  0  0  0  0  0  0
    5.0881    0.9643   22.1976 H   0  0  0  0  0  0  0  0  0  0  0  0
    3.1448    2.4419   22.4411 H   0  0  0  0  0  0  0  0  0  0  0  0
    1.9333    3.2735   20.4413 H   0  0  0  0  0  0  0  0  0  0  0  0
    2.6808    2.6118   18.1758 H   0  0  0  0  0  0  0  0  0  0  0  0
    4.2113    1.3550   16.7176 H   0  0  0  0  0  0  0  0  0  0  0  0
    7.3677   -0.8115   18.2614 H   0  0  0  0  0  0  0  0  0  0  0  0
    6.6114   -1.5196   21.6036 C   0  0  0  0  0  0  0  0  0  0  0  0
    7.8687   -1.7481   22.4565 C   0  0  2  0  0  0  0  0  0  0  0  0
    7.5437   -2.4259   23.7842 C   0  0  0  0  0  0  0  0  0  0  0  0
    7.1051   -3.4141   23.6144 H   0  0  0  0  0  0  0  0  0  0  0  0
    8.4340   -2.5512   24.4081 H   0  0  0  0  0  0  0  0  0  0  0  0
    6.8131   -1.8401   24.3534 H   0  0  0  0  0  0  0  0  0  0  0  0
    8.5225   -2.4118   21.8872 H   0  0  0  0  0  0  0  0  0  0  0  0
    6.3597   -2.3826   20.9794 H   0  0  0  0  0  0  0  0  0  0  0  0
    5.7325   -1.3118   22.2337 H   0  0  0  0  0  0  0  0  0  0  0  0
   10.0890   -0.3745   22.4919 C   0  0  0  0  0  0  0  0  0  0  0  0
   10.7884   -1.3069   21.7191 C   0  0  0  0  0  0  0  0  0  0  0  0
   12.1674   -1.2363   21.6270 C   0  0  0  0  0  0  0  0  0  0  0  0
   12.9882   -2.2972   20.5168 Cl  0  0  0  0  0  0  0  0  0  0  0  0
   12.9048   -0.3000   22.3537 C   0  0  0  0  0  0  0  0  0  0  0  0
   12.2212    0.6365   23.0991 C   0  0  0  0  0  0  0  0  0  0  0  0
   10.8305    0.6360   23.1191 C   0  0  0  0  0  0  0  0  0  0  0  0
   10.1569    1.8008   23.7696 C   0  0  0  0  0  0  0  0  0  0  0  0
   10.7953    2.7751   24.1578 O   0  0  0  0  0  0  0  0  0  0  0  0
   12.7290    1.4139   23.6590 H   0  0  0  0  0  0  0  0  0  0  0  0
   13.9868   -0.2912   22.3059 H   0  0  0  0  0  0  0  0  0  0  0  0
   10.2724   -2.0799   21.1612 H   0  0  0  0  0  0  0  0  0  0  0  0
    8.3632   -0.1706   24.6736 H   0  0  0  0  0  0  0  0  0  0  0  0
    7.0483    0.5928   23.7576 H   0  0  0  0  0  0  0  0  0  0  0  0
    7.5280    2.4940   25.3346 H   0  0  0  0  0  0  0  0  0  0  0  0
    8.8322    3.5513   24.7475 H   0  0  0  0  0  0  0  0  0  0  0  0
    6.3984    4.1022   23.9507 H   0  0  0  0  0  0  0  0  0  0  0  0
    6.5123    2.6313   22.9790 H   0  0  0  0  0  0  0  0  0  0  0  0
    8.3544    5.5475   22.8168 C   0  0  1  0  0  0  0  0  0  0  0  0
    9.8292    5.7760   22.5105 C   0  0  0  0  0  0  0  0  0  0  0  0
   10.1334    6.7506   22.9147 H   0  0  0  0  0  0  0  0  0  0  0  0
   10.0456    5.7935   21.4364 H   0  0  0  0  0  0  0  0  0  0  0  0
   10.4414    5.0101   22.9892 H   0  0  0  0  0  0  0  0  0  0  0  0
    7.4832    6.6828   22.2934 C   0  0  0  0  0  0  0  0  0  0  0  0
    6.1236    6.3541   22.4860 O   0  0  0  0  0  0  0  0  0  0  0  0
    7.6544    7.6106   22.8407 H   0  0  0  0  0  0  0  0  0  0  0  0
    7.7263    6.8714   21.2362 H   0  0  0  0  0  0  0  0  0  0  0  0
    8.2229    5.5280   23.8994 H   0  0  0  0  0  0  0  0  0  0  0  0
    8.5367    3.6029   21.9490 H   0  0  0  0  0  0  0  0  0  0  0  0
    7.3653    4.6536   20.3283 H   0  0  0  0  0  0  0  0  0  0  0  0
    6.2950    3.4085   20.9713 H   0  0  0  0  0  0  0  0  0  0  0  0
    4.8460    4.8801   21.9327 H   0  0  0  0  0  0  0  0  0  0  0  0
    5.5086    5.4978   19.3714 H   0  0  0  0  0  0  0  0  0  0  0  0
    4.2966    6.4829   20.2198 H   0  0  0  0  0  0  0  0  0  0  0  0
    5.9645    7.0199   20.1159 H   0  0  0  0  0  0  0  0  0  0  0  0
  1  2  1  0
  2  3  1  0
  3  4  1  0
  4  5  1  0
  5  6  1  0
  6  7  1  0
  7  8  1  0
  9  8  1  1
  9 10  1  0
 10 11  2  0
 10 12  1  0
 12 13  1  0
 13 14  2  0
 14 15  1  0
 15 16  2  0
 16 17  1  0
 17 18  2  0
 18 19  1  0
 19 20  2  0
 20 21  1  0
 21 22  2  0
 21 23  1  0
 20 24  1  0
 19 25  1  0
 18 26  1  0
 16 27  1  0
 14 28  1  0
 12 29  1  0
 29 30  1  0
 30 31  1  0
 31 32  1  0
 31 33  1  0
 31 34  1  0
 30 35  1  6
 29 36  1  0
 29 37  1  0
  9 38  1  0
 38 39  2  0
 39 40  1  0
 40 41  1  0
 40 42  2  0
 42 43  1  0
 43 44  2  0
 44 45  1  0
 45 46  2  0
 43 47  1  0
 42 48  1  0
 39 49  1  0
  8 50  1  0
  8 51  1  0
  6 52  1  0
  6 53  1  0
  5 54  1  0
  5 55  1  0
  4 56  1  0
 56 57  1  0
 57 58  1  0
 57 59  1  0
 57 60  1  0
 56 61  1  0
 61 62  1  0
 61 63  1  0
 61 64  1  0
 56 65  1  1
  4 66  1  6
  3 67  1  0
  3 68  1  0
  2 69  1  1
  1 70  1  0
  1 71  1  0
  1 72  1  0
 62  2  1  0
 45  7  1  0
 30  9  1  0
 44 38  1  0
 22 13  1  0
 22 17  1  0
M  CHG  1   4   1
M  END
>  <cnnaffinities>  (16) 
[6.67213]

>  <score>  (16) 
6.67213

>  <index>  (16) 
15

>  <Smiles>  (16) 
C([C@]1(C([N@+](C(C(N2C([C@@]3(C(=O)N(c4c(nc(c5c(c(c(c(c45)[H])[H])[H])[H])[H])[H])C([C@@]3(C([H])([H])[H])[H])([H])[H])c3c(c(Cl)c(c(c3C2=O)[H])[H])[H])([H])[H])([H])[H])([H])[H])([C@@](C([H])([H])[H])(C(O1)([H])[H])[H])[H])([H])[H])[H])([H])([H])[H]

>  <h>  (16) 
<NA>

>  <Training>  (16) 
True

>  <Success>  (16) 
True

>  <enamine_searched>  (16) 
False

>  <enamine_id>  (16) 
nan

$$$$

     RDKit          3D

 47 50  0  0  0  0  0  0  0  0999 V2000
    8.6453   -4.5043   23.9859 C   0  0  0  0  0  0  0  0  0  0  0  0
    7.3900   -3.7454   24.3950 C   0  0  1  0  0  0  0  0  0  0  0  0
    7.6954   -2.3486   24.9328 C   0  0  0  0  0  0  0  0  0  0  0  0
    7.4151   -1.3723   23.7809 C   0  0  2  0  0  0  0  0  0  0  0  0
    6.6538   -0.1523   24.2661 C   0  0  0  0  0  0  0  0  0  0  0  0
    5.3227   -0.2579   24.6737 C   0  0  0  0  0  0  0  0  0  0  0  0
    4.6276    0.8567   25.1252 C   0  0  0  0  0  0  0  0  0  0  0  0
    5.2618    2.0949   25.1894 C   0  0  0  0  0  0  0  0  0  0  0  0
    6.5973    2.2042   24.8139 C   0  0  0  0  0  0  0  0  0  0  0  0
    7.2888    1.0840   24.3620 C   0  0  0  0  0  0  0  0  0  0  0  0
    8.3343    1.1729   24.0729 H   0  0  0  0  0  0  0  0  0  0  0  0
    7.1000    3.1645   24.8558 H   0  0  0  0  0  0  0  0  0  0  0  0
    4.7172    2.9694   25.5298 H   0  0  0  0  0  0  0  0  0  0  0  0
    3.5885    0.7609   25.4282 H   0  0  0  0  0  0  0  0  0  0  0  0
    4.8169   -1.2196   24.6469 H   0  0  0  0  0  0  0  0  0  0  0  0
    6.6898   -2.1590   22.7867 N   0  0  0  0  0  0  0  0  0  0  0  0
    6.2469   -1.7339   21.5609 C   0  0  0  0  0  0  0  0  0  0  0  0
    5.3964   -2.3587   20.9462 O   0  0  0  0  0  0  0  0  0  0  0  0
    6.9146   -0.4909   20.9187 C   0  0  0  0  0  0  0  0  0  0  0  0
    6.1140    0.0849   19.7722 C   0  0  0  0  0  0  0  0  0  0  0  0
    6.4204   -0.2152   18.4673 C   0  0  0  0  0  0  0  0  0  0  0  0
    5.7595    0.2371   17.3653 N   0  0  0  0  0  0  0  0  0  0  0  0
    4.7353    1.0293   17.5757 C   0  0  0  0  0  0  0  0  0  0  0  0
    4.2851    1.4192   18.8699 C   0  0  0  0  0  0  0  0  0  0  0  0
    3.1615    2.2673   19.0451 C   0  0  0  0  0  0  0  0  0  0  0  0
    2.7504    2.6251   20.2997 C   0  0  0  0  0  0  0  0  0  0  0  0
    3.4450    2.1364   21.4302 C   0  0  0  0  0  0  0  0  0  0  0  0
    4.5340    1.3101   21.2962 C   0  0  0  0  0  0  0  0  0  0  0  0
    4.9879    0.9350   20.0010 C   0  0  0  0  0  0  0  0  0  0  0  0
    5.0472    0.9469   22.1872 H   0  0  0  0  0  0  0  0  0  0  0  0
    3.1089    2.4260   22.4193 H   0  0  0  0  0  0  0  0  0  0  0  0
    1.8971    3.2850   20.4373 H   0  0  0  0  0  0  0  0  0  0  0  0
    2.6451    2.6464   18.1662 H   0  0  0  0  0  0  0  0  0  0  0  0
    4.1998    1.3988   16.6987 H   0  0  0  0  0  0  0  0  0  0  0  0
    7.2648   -0.8670   18.2469 H   0  0  0  0  0  0  0  0  0  0  0  0
    7.1488    0.2873   21.6560 H   0  0  0  0  0  0  0  0  0  0  0  0
    7.8822   -0.8265   20.5192 H   0  0  0  0  0  0  0  0  0  0  0  0
    6.4191   -3.5196   23.2340 C   0  0  0  0  0  0  0  0  0  0  0  0
    5.3701   -3.6606   23.5325 H   0  0  0  0  0  0  0  0  0  0  0  0
    6.6002   -4.2135   22.4121 H   0  0  0  0  0  0  0  0  0  0  0  0
    8.3622   -1.0496   23.3413 H   0  0  0  0  0  0  0  0  0  0  0  0
    7.0690   -2.1294   25.8038 H   0  0  0  0  0  0  0  0  0  0  0  0
    8.7240   -2.2729   25.2919 H   0  0  0  0  0  0  0  0  0  0  0  0
    6.8958   -4.2859   25.1855 H   0  0  0  0  0  0  0  0  0  0  0  0
    9.1851   -3.9552   23.2129 H   0  0  0  0  0  0  0  0  0  0  0  0
    8.4119   -5.4920   23.5839 H   0  0  0  0  0  0  0  0  0  0  0  0
    9.3236   -4.6414   24.8335 H   0  0  0  0  0  0  0  0  0  0  0  0
  1  2  1  0
  2  3  1  0
  3  4  1  0
  4  5  1  0
  5  6  2  0
  6  7  1  0
  7  8  2  0
  8  9  1  0
  9 10  2  0
 10 11  1  0
  9 12  1  0
  8 13  1  0
  7 14  1  0
  6 15  1  0
  4 16  1  0
 16 17  1  0
 17 18  2  0
 17 19  1  0
 19 20  1  0
 20 21  2  0
 21 22  1  0
 22 23  2  0
 23 24  1  0
 24 25  2  0
 25 26  1  0
 26 27  2  0
 27 28  1  0
 28 29  2  0
 28 30  1  0
 27 31  1  0
 26 32  1  0
 25 33  1  0
 23 34  1  0
 21 35  1  0
 19 36  1  0
 19 37  1  0
 16 38  1  0
 38 39  1  0
 38 40  1  0
  4 41  1  6
  3 42  1  0
  3 43  1  0
  2 44  1  1
  1 45  1  0
  1 46  1  0
  1 47  1  0
 38  2  1  0
 10  5  1  0
 29 20  1  0
 29 24  1  0
M  END
>  <cnnaffinities>  (17) 
[5.2762, 5.3174, 5.3464, 5.34728, 5.46249, 5.46047, 5.23051]

>  <score>  (17) 
5.2762

>  <index>  (17) 
16

>  <Smiles>  (17) 
C([C@]1(C([C@](c2c(c(c(c(c2[H])[H])[H])[H])[H])(N(C(=O)C(c2c(nc(c3c(c(c(c(c23)[H])[H])[H])[H])[H])[H])([H])[H])C1([H])[H])[H])([H])[H])[H])([H])([H])[H]

>  <h>  (17) 
<NA>

>  <Training>  (17) 
True

>  <Success>  (17) 
True

>  <enamine_searched>  (17) 
False

>  <enamine_id>  (17) 
nan

$$$$

     RDKit          3D

 58 63  0  0  0  0  0  0  0  0999 V2000
    7.3553   -2.4736   23.8616 C   0  0  0  0  0  0  0  0  0  0  0  0
    7.7760   -1.7634   22.5753 C   0  0  1  0  0  0  0  0  0  0  0  0
    6.6088   -1.6009   21.5820 C   0  0  0  0  0  0  0  0  0  0  0  0
    6.9449   -0.4047   20.8325 N   0  0  0  0  0  0  0  0  0  0  0  0
    6.1433    0.1110   19.7686 C   0  0  0  0  0  0  0  0  0  0  0  0
    6.4390   -0.2157   18.4706 C   0  0  0  0  0  0  0  0  0  0  0  0
    5.7595    0.2297   17.3807 N   0  0  0  0  0  0  0  0  0  0  0  0
    4.7354    1.0241   17.5811 C   0  0  0  0  0  0  0  0  0  0  0  0
    4.2878    1.4182   18.8758 C   0  0  0  0  0  0  0  0  0  0  0  0
    3.1676    2.2757   19.0558 C   0  0  0  0  0  0  0  0  0  0  0  0
    2.7762    2.6479   20.3133 C   0  0  0  0  0  0  0  0  0  0  0  0
    3.4742    2.1732   21.4465 C   0  0  0  0  0  0  0  0  0  0  0  0
    4.5530    1.3387   21.2973 C   0  0  0  0  0  0  0  0  0  0  0  0
    5.0001    0.9472   20.0051 C   0  0  0  0  0  0  0  0  0  0  0  0
    5.0880    0.9779   22.1707 H   0  0  0  0  0  0  0  0  0  0  0  0
    3.1640    2.4739   22.4425 H   0  0  0  0  0  0  0  0  0  0  0  0
    1.9303    3.3159   20.4512 H   0  0  0  0  0  0  0  0  0  0  0  0
    2.6456    2.6535   18.1788 H   0  0  0  0  0  0  0  0  0  0  0  0
    4.2021    1.3962   16.7006 H   0  0  0  0  0  0  0  0  0  0  0  0
    7.2853   -0.8647   18.2553 H   0  0  0  0  0  0  0  0  0  0  0  0
    7.9098    0.3694   21.4417 C   0  0  0  0  0  0  0  0  0  0  0  0
    8.2817    1.4446   21.0217 O   0  0  0  0  0  0  0  0  0  0  0  0
    8.3941   -0.3357   22.7286 C   0  0  1  0  0  0  0  0  0  0  0  0
    7.8019    0.4226   23.9502 C   0  0  0  0  0  0  0  0  0  0  0  0
    8.3633    1.7577   24.0811 N   0  0  0  0  0  0  0  0  0  0  0  0
    7.4593    2.9129   24.1037 C   0  0  0  0  0  0  0  0  0  0  0  0
    6.4583    2.8589   25.2186 C   0  0  0  0  0  0  0  0  0  0  0  0
    5.1774    2.6264   25.0768 N   0  0  0  0  0  0  0  0  0  0  0  0
    4.6186    2.5814   26.3298 N   0  0  0  0  0  0  0  0  0  0  0  0
    5.5793    2.7947   27.1846 C   0  0  0  0  0  0  0  0  0  0  0  0
    6.7686    2.9897   26.5415 N   0  0  0  0  0  0  0  0  0  0  0  0
    8.0766    3.1943   27.1287 C   0  0  0  0  0  0  0  0  0  0  0  0
    7.9596    3.4292   28.1861 H   0  0  0  0  0  0  0  0  0  0  0  0
    8.6978    2.3022   27.0401 H   0  0  0  0  0  0  0  0  0  0  0  0
    8.5986    4.0280   26.6575 H   0  0  0  0  0  0  0  0  0  0  0  0
    5.4765    2.8175   28.2635 H   0  0  0  0  0  0  0  0  0  0  0  0
    8.0612    3.8269   24.1757 H   0  0  0  0  0  0  0  0  0  0  0  0
    6.8939    2.9633   23.1638 H   0  0  0  0  0  0  0  0  0  0  0  0
    9.7242    1.9205   24.1228 C   0  0  0  0  0  0  0  0  0  0  0  0
   10.2578    2.9122   24.6031 O   0  0  0  0  0  0  0  0  0  0  0  0
   10.5383    0.8005   23.5090 C   0  0  0  0  0  0  0  0  0  0  0  0
   11.9361    0.8813   23.5689 C   0  0  0  0  0  0  0  0  0  0  0  0
   12.7422   -0.0186   22.8991 C   0  0  0  0  0  0  0  0  0  0  0  0
   12.1082   -0.9865   22.1312 C   0  0  0  0  0  0  0  0  0  0  0  0
   12.8691   -1.8385   21.4244 F   0  0  0  0  0  0  0  0  0  0  0  0
   10.7319   -1.1044   22.0560 C   0  0  0  0  0  0  0  0  0  0  0  0
    9.9147   -0.2463   22.8050 C   0  0  0  0  0  0  0  0  0  0  0  0
   10.3236   -1.8456   21.3765 H   0  0  0  0  0  0  0  0  0  0  0  0
   13.8307    0.0278   22.9292 H   0  0  0  0  0  0  0  0  0  0  0  0
   12.4049    1.6782   24.1296 H   0  0  0  0  0  0  0  0  0  0  0  0
    6.7198    0.5075   23.8519 H   0  0  0  0  0  0  0  0  0  0  0  0
    7.9892   -0.1405   24.8747 H   0  0  0  0  0  0  0  0  0  0  0  0
    6.5186   -2.4594   20.9142 H   0  0  0  0  0  0  0  0  0  0  0  0
    5.6454   -1.5094   22.1067 H   0  0  0  0  0  0  0  0  0  0  0  0
    8.5259   -2.3954   22.0925 H   0  0  0  0  0  0  0  0  0  0  0  0
    8.1791   -2.5337   24.5782 H   0  0  0  0  0  0  0  0  0  0  0  0
    7.0258   -3.4958   23.6527 H   0  0  0  0  0  0  0  0  0  0  0  0
    6.5256   -1.9626   24.3603 H   0  0  0  0  0  0  0  0  0  0  0  0
  1  2  1  0
  2  3  1  0
  3  4  1  0
  4  5  1  0
  5  6  2  0
  6  7  1  0
  7  8  2  0
  8  9  1  0
  9 10  2  0
 10 11  1  0
 11 12  2  0
 12 13  1  0
 13 14  2  0
 13 15  1  0
 12 16  1  0
 11 17  1  0
 10 18  1  0
  8 19  1  0
  6 20  1  0
  4 21  1  0
 21 22  2  0
 21 23  1  0
 23 24  1  1
 24 25  1  0
 25 26  1  0
 26 27  1  0
 27 28  2  0
 28 29  1  0
 29 30  2  0
 30 31  1  0
 31 32  1  0
 32 33  1  0
 32 34  1  0
 32 35  1  0
 30 36  1  0
 26 37  1  0
 26 38  1  0
 25 39  1  0
 39 40  2  0
 39 41  1  0
 41 42  2  0
 42 43  1  0
 43 44  2  0
 44 45  1  0
 44 46  1  0
 46 47  2  0
 46 48  1  0
 43 49  1  0
 42 50  1  0
 24 51  1  0
 24 52  1  0
  3 53  1  0
  3 54  1  0
  2 55  1  6
  1 56  1  0
  1 57  1  0
  1 58  1  0
 23  2  1  0
 31 27  1  0
 47 41  1  0
 14  5  1  0
 47 23  1  0
 14  9  1  0
M  END
>  <cnnaffinities>  (18) 
[6.7414, 6.54148]

>  <score>  (18) 
6.7414

>  <index>  (18) 
17

>  <Smiles>  (18) 
C([C@]1(C(N(c2c(nc(c3c(c(c(c(c23)[H])[H])[H])[H])[H])[H])C(=O)[C@]21C(N(C(c1nnc(n1C([H])([H])[H])[H])([H])[H])C(=O)c1c(c(c(F)c(c21)[H])[H])[H])([H])[H])([H])[H])[H])([H])([H])[H]

>  <h>  (18) 
<NA>

>  <Training>  (18) 
True

>  <Success>  (18) 
True

>  <enamine_searched>  (18) 
False

>  <enamine_id>  (18) 
nan

$$$$

     RDKit          3D

 50 53  0  0  0  0  0  0  0  0999 V2000
    6.1511    0.0036   28.7103 C   0  0  0  0  0  0  0  0  0  0  0  0
    5.8035   -0.5659   27.3357 C   0  0  1  0  0  0  0  0  0  0  0  0
    5.4435    0.5371   26.3295 C   0  0  0  0  0  0  0  0  0  0  0  0
    6.6580    1.3236   25.8234 C   0  0  0  0  0  0  0  0  0  0  0  0
    7.8021    0.4387   25.2769 C   0  0  2  0  0  0  0  0  0  0  0  0
    9.0349    1.2990   24.9422 C   0  0  0  0  0  0  0  0  0  0  0  0
    8.8939    1.7146   23.4760 C   0  0  0  0  0  0  0  0  0  0  0  0
    8.0116    0.7055   22.8901 N   0  0  0  0  0  0  0  0  0  0  0  0
    7.8597    0.6346   21.5340 C   0  0  0  0  0  0  0  0  0  0  0  0
    8.4516    1.4009   20.7882 O   0  0  0  0  0  0  0  0  0  0  0  0
    6.9373   -0.4465   20.9217 C   0  0  0  0  0  0  0  0  0  0  0  0
    6.1117    0.0851   19.7698 C   0  0  0  0  0  0  0  0  0  0  0  0
    6.4273   -0.2068   18.4654 C   0  0  0  0  0  0  0  0  0  0  0  0
    5.7629    0.2410   17.3638 N   0  0  0  0  0  0  0  0  0  0  0  0
    4.7346    1.0276   17.5751 C   0  0  0  0  0  0  0  0  0  0  0  0
    4.2858    1.4198   18.8682 C   0  0  0  0  0  0  0  0  0  0  0  0
    3.1649    2.2726   19.0442 C   0  0  0  0  0  0  0  0  0  0  0  0
    2.7625    2.6429   20.2996 C   0  0  0  0  0  0  0  0  0  0  0  0
    3.4623    2.1684   21.4310 C   0  0  0  0  0  0  0  0  0  0  0  0
    4.5478    1.3389   21.2882 C   0  0  0  0  0  0  0  0  0  0  0  0
    4.9912    0.9416   19.9972 C   0  0  0  0  0  0  0  0  0  0  0  0
    5.0716    0.9879   22.1722 H   0  0  0  0  0  0  0  0  0  0  0  0
    3.1359    2.4667   22.4214 H   0  0  0  0  0  0  0  0  0  0  0  0
    1.9124    3.3061   20.4342 H   0  0  0  0  0  0  0  0  0  0  0  0
    2.6461    2.6481   18.1657 H   0  0  0  0  0  0  0  0  0  0  0  0
    4.1990    1.3983   16.6994 H   0  0  0  0  0  0  0  0  0  0  0  0
    7.2737   -0.8567   18.2475 H   0  0  0  0  0  0  0  0  0  0  0  0
    6.2912   -0.9286   21.6637 H   0  0  0  0  0  0  0  0  0  0  0  0
    7.5944   -1.2334   20.5292 H   0  0  0  0  0  0  0  0  0  0  0  0
    7.4382   -0.1720   23.8994 C   0  0  0  0  0  0  0  0  0  0  0  0
    6.3540   -0.2505   23.7748 H   0  0  0  0  0  0  0  0  0  0  0  0
    7.8436   -1.1861   23.7994 H   0  0  0  0  0  0  0  0  0  0  0  0
    9.8596    1.7238   22.9694 H   0  0  0  0  0  0  0  0  0  0  0  0
    8.4649    2.7175   23.3786 H   0  0  0  0  0  0  0  0  0  0  0  0
    9.9492    0.7149   25.0915 H   0  0  0  0  0  0  0  0  0  0  0  0
    9.1174    2.1592   25.6112 H   0  0  0  0  0  0  0  0  0  0  0  0
    8.1390   -0.6474   26.3130 C   0  0  0  0  0  0  0  0  0  0  0  0
    6.9243   -1.4524   26.7760 C   0  0  0  0  0  0  0  0  0  0  0  0
    6.5455   -2.0282   25.9232 H   0  0  0  0  0  0  0  0  0  0  0  0
    7.2253   -2.1888   27.5316 H   0  0  0  0  0  0  0  0  0  0  0  0
    8.6072   -0.1775   27.1810 H   0  0  0  0  0  0  0  0  0  0  0  0
    8.9044   -1.3199   25.9080 H   0  0  0  0  0  0  0  0  0  0  0  0
    7.0445    1.9389   26.6468 H   0  0  0  0  0  0  0  0  0  0  0  0
    6.3507    2.0369   25.0498 H   0  0  0  0  0  0  0  0  0  0  0  0
    4.9222    0.0919   25.4738 H   0  0  0  0  0  0  0  0  0  0  0  0
    4.7253    1.2275   26.7891 H   0  0  0  0  0  0  0  0  0  0  0  0
    4.9167   -1.1969   27.4725 H   0  0  0  0  0  0  0  0  0  0  0  0
    7.0100    0.6777   28.6820 H   0  0  0  0  0  0  0  0  0  0  0  0
    5.3131    0.5721   29.1222 H   0  0  0  0  0  0  0  0  0  0  0  0
    6.3917   -0.7940   29.4185 H   0  0  0  0  0  0  0  0  0  0  0  0
  1  2  1  0
  2  3  1  0
  3  4  1  0
  5  4  1  1
  5  6  1  0
  6  7  1  0
  7  8  1  0
  8  9  1  0
  9 10  2  0
  9 11  1  0
 11 12  1  0
 12 13  2  0
 13 14  1  0
 14 15  2  0
 15 16  1  0
 16 17  2  0
 17 18  1  0
 18 19  2  0
 19 20  1  0
 20 21  2  0
 20 22  1  0
 19 23  1  0
 18 24  1  0
 17 25  1  0
 15 26  1  0
 13 27  1  0
 11 28  1  0
 11 29  1  0
  8 30  1  0
 30 31  1  0
 30 32  1  0
  7 33  1  0
  7 34  1  0
  6 35  1  0
  6 36  1  0
  5 37  1  0
 37 38  1  0
 38 39  1  0
 38 40  1  0
 37 41  1  0
 37 42  1  0
  4 43  1  0
  4 44  1  0
  3 45  1  0
  3 46  1  0
  2 47  1  1
  1 48  1  0
  1 49  1  0
  1 50  1  0
 38  2  1  0
 30  5  1  0
 21 12  1  0
 21 16  1  0
M  END
>  <cnnaffinities>  (19) 
[5.54498, 5.60805, 5.33543]

>  <score>  (19) 
5.54498

>  <index>  (19) 
18

>  <Smiles>  (19) 
C([C@]1(C(C([C@@]2(C(C(N(C(=O)C(c3c(nc(c4c(c(c(c(c34)[H])[H])[H])[H])[H])[H])([H])[H])C2([H])[H])([H])[H])([H])[H])C(C1([H])[H])([H])[H])([H])[H])([H])[H])[H])([H])([H])[H]

>  <h>  (19) 
<NA>

>  <Training>  (19) 
True

>  <Success>  (19) 
True

>  <enamine_searched>  (19) 
False

>  <enamine_id>  (19) 
nan

$$$$

     RDKit          3D

 67 71  0  0  0  0  0  0  0  0999 V2000
    3.5473   -5.2578   21.8454 O   0  0  0  0  0  0  0  0  0  0  0  0
    4.1352   -5.8357   22.7489 C   0  0  0  0  0  0  0  0  0  0  0  0
    5.6459   -5.6792   22.8021 C   0  0  0  0  0  0  0  0  0  0  0  0
    5.8832   -4.2082   22.7513 N   0  0  1  0  0  4  0  0  0  0  0  0
    5.1817   -3.5972   23.9415 C   0  0  0  0  0  0  0  0  0  0  0  0
    5.5224   -2.1615   24.2418 C   0  0  0  0  0  0  0  0  0  0  0  0
    4.7290   -1.4538   25.1486 C   0  0  0  0  0  0  0  0  0  0  0  0
    5.0732   -0.1721   25.5530 C   0  0  0  0  0  0  0  0  0  0  0  0
    6.2413    0.3949   25.0490 C   0  0  0  0  0  0  0  0  0  0  0  0
    6.7109    1.9940   25.5641 Cl  0  0  0  0  0  0  0  0  0  0  0  0
    7.0200   -0.2806   24.1199 C   0  0  0  0  0  0  0  0  0  0  0  0
    6.6394   -1.5534   23.6843 C   0  0  0  0  0  0  0  0  0  0  0  0
    7.3457   -2.2434   22.5370 C   0  0  2  0  0  0  0  0  0  0  0  0
    6.6501   -1.8542   21.2236 C   0  0  0  0  0  0  0  0  0  0  0  0
    5.9747   -2.6477   20.5824 O   0  0  0  0  0  0  0  0  0  0  0  0
    6.8170   -0.5469   20.8327 N   0  0  0  0  0  0  0  0  0  0  0  0
    6.0936    0.0212   19.7563 C   0  0  0  0  0  0  0  0  0  0  0  0
    6.4362   -0.2663   18.4620 C   0  0  0  0  0  0  0  0  0  0  0  0
    5.7926    0.2221   17.3708 N   0  0  0  0  0  0  0  0  0  0  0  0
    4.7680    1.0137   17.5836 C   0  0  0  0  0  0  0  0  0  0  0  0
    4.3111    1.4029   18.8766 C   0  0  0  0  0  0  0  0  0  0  0  0
    3.1878    2.2504   19.0531 C   0  0  0  0  0  0  0  0  0  0  0  0
    2.7763    2.5987   20.3105 C   0  0  0  0  0  0  0  0  0  0  0  0
    3.4605    2.1111   21.4447 C   0  0  0  0  0  0  0  0  0  0  0  0
    4.5455    1.2815   21.3036 C   0  0  0  0  0  0  0  0  0  0  0  0
    4.9966    0.9097   20.0049 C   0  0  0  0  0  0  0  0  0  0  0  0
    5.0458    0.8962   22.1882 H   0  0  0  0  0  0  0  0  0  0  0  0
    3.1217    2.4015   22.4352 H   0  0  0  0  0  0  0  0  0  0  0  0
    1.9235    3.2569   20.4422 H   0  0  0  0  0  0  0  0  0  0  0  0
    2.6773    2.6236   18.1722 H   0  0  0  0  0  0  0  0  0  0  0  0
    4.2380    1.3899   16.7090 H   0  0  0  0  0  0  0  0  0  0  0  0
    7.2828   -0.9227   18.2769 H   0  0  0  0  0  0  0  0  0  0  0  0
    7.1736    0.1085   21.5163 H   0  0  0  0  0  0  0  0  0  0  0  0
    7.3064   -3.7673   22.6830 C   0  0  0  0  0  0  0  0  0  0  0  0
    7.8009   -4.2299   21.8273 H   0  0  0  0  0  0  0  0  0  0  0  0
    7.8403   -4.0839   23.5855 H   0  0  0  0  0  0  0  0  0  0  0  0
    8.3827   -1.8904   22.4969 H   0  0  0  0  0  0  0  0  0  0  0  0
    7.9243    0.1883   23.7432 H   0  0  0  0  0  0  0  0  0  0  0  0
    4.4601    0.3778   26.2609 H   0  0  0  0  0  0  0  0  0  0  0  0
    3.8296   -1.9137   25.5550 H   0  0  0  0  0  0  0  0  0  0  0  0
    5.4148   -4.2103   24.8207 H   0  0  0  0  0  0  0  0  0  0  0  0
    4.1042   -3.6718   23.7833 H   0  0  0  0  0  0  0  0  0  0  0  0
    5.4198   -3.8720   21.8757 H   0  0  0  0  0  0  0  0  0  0  0  0
    6.0524   -6.1007   23.7181 H   0  0  0  0  0  0  0  0  0  0  0  0
    6.0917   -6.1826   21.9404 H   0  0  0  0  0  0  0  0  0  0  0  0
    3.5059   -6.4765   23.7581 N   0  0  0  0  0  0  0  0  0  0  0  0
    2.0674   -6.7007   23.6923 C   0  0  0  0  0  0  0  0  0  0  0  0
    1.2805   -5.3802   23.6184 C   0  0  0  0  0  0  0  0  0  0  0  0
   -0.2115   -5.5740   23.5806 C   0  0  0  0  0  0  0  0  0  0  0  0
   -0.9406   -5.6136   24.7691 C   0  0  0  0  0  0  0  0  0  0  0  0
   -2.3136   -5.8313   24.7572 C   0  0  0  0  0  0  0  0  0  0  0  0
   -2.9851   -6.0138   23.5525 C   0  0  0  0  0  0  0  0  0  0  0  0
   -4.4643   -6.2483   23.5375 C   0  0  0  0  0  0  0  0  0  0  0  0
   -5.0854   -5.3337   22.7374 F   0  0  0  0  0  0  0  0  0  0  0  0
   -4.7396   -7.4768   23.0100 F   0  0  0  0  0  0  0  0  0  0  0  0
   -4.9144   -6.1938   24.5360 H   0  0  0  0  0  0  0  0  0  0  0  0
   -2.2655   -5.9779   22.3585 C   0  0  0  0  0  0  0  0  0  0  0  0
   -0.8925   -5.7572   22.3728 C   0  0  0  0  0  0  0  0  0  0  0  0
   -0.3526   -5.7130   21.4262 H   0  0  0  0  0  0  0  0  0  0  0  0
   -2.7867   -6.1075   21.4144 H   0  0  0  0  0  0  0  0  0  0  0  0
   -2.8609   -5.8421   25.6986 H   0  0  0  0  0  0  0  0  0  0  0  0
   -0.4238   -5.4615   25.7152 H   0  0  0  0  0  0  0  0  0  0  0  0
    1.5561   -4.7465   24.4737 H   0  0  0  0  0  0  0  0  0  0  0  0
    1.6186   -4.8638   22.7192 H   0  0  0  0  0  0  0  0  0  0  0  0
    1.7632   -7.2919   24.5591 H   0  0  0  0  0  0  0  0  0  0  0  0
    1.8320   -7.2969   22.8004 H   0  0  0  0  0  0  0  0  0  0  0  0
    4.0261   -6.7678   24.5716 H   0  0  0  0  0  0  0  0  0  0  0  0
  1  2  2  0
  2  3  1  0
  3  4  1  0
  4  5  1  0
  5  6  1  0
  6  7  2  0
  7  8  1  0
  8  9  2  0
  9 10  1  0
  9 11  1  0
 11 12  2  0
 12 13  1  0
 13 14  1  0
 14 15  2  0
 14 16  1  0
 16 17  1  0
 17 18  2  0
 18 19  1  0
 19 20  2  0
 20 21  1  0
 21 22  2  0
 22 23  1  0
 23 24  2  0
 24 25  1  0
 25 26  2  0
 25 27  1  0
 24 28  1  0
 23 29  1  0
 22 30  1  0
 20 31  1  0
 18 32  1  0
 16 33  1  0
 13 34  1  0
 34 35  1  0
 34 36  1  0
 13 37  1  6
 11 38  1  0
  8 39  1  0
  7 40  1  0
  5 41  1  0
  5 42  1  0
  4 43  1  6
  3 44  1  0
  3 45  1  0
  2 46  1  0
 46 47  1  0
 47 48  1  0
 48 49  1  0
 49 50  2  0
 50 51  1  0
 51 52  2  0
 52 53  1  0
 53 54  1  0
 53 55  1  0
 53 56  1  0
 52 57  1  0
 57 58  2  0
 58 59  1  0
 57 60  1  0
 51 61  1  0
 50 62  1  0
 48 63  1  0
 48 64  1  0
 47 65  1  0
 47 66  1  0
 46 67  1  0
 34  4  1  0
 58 49  1  0
 12  6  1  0
 26 17  1  0
 26 21  1  0
M  CHG  1   4   1
M  END
>  <cnnaffinities>  (20) 
[5.35409]

>  <score>  (20) 
5.35409

>  <index>  (20) 
19

>  <Smiles>  (20) 
O=C(C([N@+]1(C(c2c(c(c(Cl)c(c2[C@](C(=O)N(c2c(nc(c3c(c(c(c(c23)[H])[H])[H])[H])[H])[H])[H])(C1([H])[H])[H])[H])[H])[H])([H])[H])[H])([H])[H])N(C(C(c1c(c(c(C(F)(F)[H])c(c1[H])[H])[H])[H])([H])[H])([H])[H])[H]

>  <h>  (20) 
<NA>

>  <Training>  (20) 
True

>  <Success>  (20) 
True

>  <enamine_searched>  (20) 
False

>  <enamine_id>  (20) 
nan

$$$$

     RDKit          3D

 66 70  0  0  0  0  0  0  0  0999 V2000
    4.1904    6.0278   20.6154 C   0  0  0  0  0  0  0  0  0  0  0  0
    5.2995    5.0203   20.9410 C   0  0  0  0  0  0  0  0  0  0  0  0
    6.5987    5.8140   20.7944 C   0  0  0  0  0  0  0  0  0  0  0  0
    6.7579    6.5074   19.8089 O   0  0  0  0  0  0  0  0  0  0  0  0
    7.5109    5.8858   21.8478 N   0  0  0  0  0  0  0  0  0  0  0  0
    8.1807    7.1787   22.0315 C   0  0  0  0  0  0  0  0  0  0  0  0
    8.1095    7.5192   23.5088 C   0  0  0  0  0  0  0  0  0  0  0  0
    8.9208    6.4904   24.2870 C   0  0  0  0  0  0  0  0  0  0  0  0
    8.5421    5.0760   23.9003 C   0  0  0  0  0  0  0  0  0  0  0  0
    8.9027    3.9962   24.7045 C   0  0  0  0  0  0  0  0  0  0  0  0
    8.6590    2.6879   24.3262 C   0  0  0  0  0  0  0  0  0  0  0  0
    8.0555    2.4422   23.0904 C   0  0  0  0  0  0  0  0  0  0  0  0
    7.7842    1.1114   22.6952 N   0  0  0  0  0  0  0  0  0  0  0  0
    7.8191    0.7747   21.3385 C   0  0  0  0  0  0  0  0  0  0  0  0
    8.4984    1.4029   20.5570 O   0  0  0  0  0  0  0  0  0  0  0  0
    6.9542   -0.3934   20.8876 C   0  0  0  0  0  0  0  0  0  0  0  0
    6.1045    0.0741   19.7485 C   0  0  0  0  0  0  0  0  0  0  0  0
    6.4390   -0.2237   18.4557 C   0  0  0  0  0  0  0  0  0  0  0  0
    5.7817    0.2295   17.3595 N   0  0  0  0  0  0  0  0  0  0  0  0
    4.7564    1.0203   17.5778 C   0  0  0  0  0  0  0  0  0  0  0  0
    4.3000    1.4176   18.8634 C   0  0  0  0  0  0  0  0  0  0  0  0
    3.1691    2.2524   19.0466 C   0  0  0  0  0  0  0  0  0  0  0  0
    2.7661    2.6190   20.3022 C   0  0  0  0  0  0  0  0  0  0  0  0
    3.4829    2.1779   21.4343 C   0  0  0  0  0  0  0  0  0  0  0  0
    4.5905    1.3773   21.2847 C   0  0  0  0  0  0  0  0  0  0  0  0
    5.0111    0.9515   19.9929 C   0  0  0  0  0  0  0  0  0  0  0  0
    5.1426    1.0704   22.1688 H   0  0  0  0  0  0  0  0  0  0  0  0
    3.1588    2.4838   22.4267 H   0  0  0  0  0  0  0  0  0  0  0  0
    1.9034    3.2668   20.4315 H   0  0  0  0  0  0  0  0  0  0  0  0
    2.6453    2.6155   18.1700 H   0  0  0  0  0  0  0  0  0  0  0  0
    4.2282    1.3942   16.7004 H   0  0  0  0  0  0  0  0  0  0  0  0
    7.2962   -0.8655   18.2505 H   0  0  0  0  0  0  0  0  0  0  0  0
    6.3606   -0.7541   21.7276 H   0  0  0  0  0  0  0  0  0  0  0  0
    7.6274   -1.2012   20.5808 H   0  0  0  0  0  0  0  0  0  0  0  0
    7.5364    0.1625   23.6665 N   0  0  0  0  0  0  0  0  0  0  0  0
    6.3822    0.3203   24.5200 C   0  0  0  0  0  0  0  0  0  0  0  0
    6.6256   -0.0331   25.5228 H   0  0  0  0  0  0  0  0  0  0  0  0
    5.5036   -0.2451   24.1792 H   0  0  0  0  0  0  0  0  0  0  0  0
    6.0921    1.3722   24.6017 H   0  0  0  0  0  0  0  0  0  0  0  0
    8.4154   -0.9112   23.8151 C   0  0  0  0  0  0  0  0  0  0  0  0
    9.7406   -0.8292   23.3657 C   0  0  0  0  0  0  0  0  0  0  0  0
   10.5701   -1.9370   23.4521 C   0  0  0  0  0  0  0  0  0  0  0  0
   10.1313   -3.1264   24.0268 C   0  0  0  0  0  0  0  0  0  0  0  0
    8.8395   -3.1601   24.5284 C   0  0  0  0  0  0  0  0  0  0  0  0
    8.2814   -4.5598   25.3901 Cl  0  0  0  0  0  0  0  0  0  0  0  0
    7.9613   -2.0926   24.4093 C   0  0  0  0  0  0  0  0  0  0  0  0
    6.9378   -2.2094   24.7546 H   0  0  0  0  0  0  0  0  0  0  0  0
   10.7718   -4.0035   24.0756 H   0  0  0  0  0  0  0  0  0  0  0  0
   11.5828   -1.8781   23.0657 H   0  0  0  0  0  0  0  0  0  0  0  0
   10.1107    0.1058   22.9492 H   0  0  0  0  0  0  0  0  0  0  0  0
    7.6761    3.4942   22.2676 C   0  0  0  0  0  0  0  0  0  0  0  0
    7.8887    4.8106   22.6840 C   0  0  0  0  0  0  0  0  0  0  0  0
    7.2168    3.3098   21.3035 H   0  0  0  0  0  0  0  0  0  0  0  0
    8.9172    1.8592   24.9770 H   0  0  0  0  0  0  0  0  0  0  0  0
    9.4064    4.1841   25.6492 H   0  0  0  0  0  0  0  0  0  0  0  0
    8.8052    6.6369   25.3686 H   0  0  0  0  0  0  0  0  0  0  0  0
    9.9917    6.6394   24.0729 H   0  0  0  0  0  0  0  0  0  0  0  0
    8.4805    8.5308   23.6957 H   0  0  0  0  0  0  0  0  0  0  0  0
    7.0592    7.4756   23.8227 H   0  0  0  0  0  0  0  0  0  0  0  0
    9.2225    7.1363   21.6782 H   0  0  0  0  0  0  0  0  0  0  0  0
    7.6624    7.9177   21.4157 H   0  0  0  0  0  0  0  0  0  0  0  0
    5.2731    4.1569   20.2583 H   0  0  0  0  0  0  0  0  0  0  0  0
    5.1912    4.6101   21.9495 H   0  0  0  0  0  0  0  0  0  0  0  0
    4.2538    6.8619   21.3208 H   0  0  0  0  0  0  0  0  0  0  0  0
    4.3643    6.4422   19.6202 H   0  0  0  0  0  0  0  0  0  0  0  0
    3.1789    5.6156   20.6480 H   0  0  0  0  0  0  0  0  0  0  0  0
  1  2  1  0
  2  3  1  0
  3  4  2  0
  3  5  1  0
  5  6  1  0
  6  7  1  0
  7  8  1  0
  8  9  1  0
  9 10  2  0
 10 11  1  0
 11 12  2  0
 12 13  1  0
 13 14  1  0
 14 15  2  0
 14 16  1  0
 16 17  1  0
 17 18  2  0
 18 19  1  0
 19 20  2  0
 20 21  1  0
 21 22  2  0
 22 23  1  0
 23 24  2  0
 24 25  1  0
 25 26  2  0
 25 27  1  0
 24 28  1  0
 23 29  1  0
 22 30  1  0
 20 31  1  0
 18 32  1  0
 16 33  1  0
 16 34  1  0
 13 35  1  0
 35 36  1  0
 36 37  1  0
 36 38  1  0
 36 39  1  0
 35 40  1  0
 40 41  2  0
 41 42  1  0
 42 43  2  0
 43 44  1  0
 44 45  1  0
 44 46  2  0
 46 47  1  0
 43 48  1  0
 42 49  1  0
 41 50  1  0
 12 51  1  0
 51 52  2  0
 51 53  1  0
 11 54  1  0
 10 55  1  0
  8 56  1  0
  8 57  1  0
  7 58  1  0
  7 59  1  0
  6 60  1  0
  6 61  1  0
  2 62  1  0
  2 63  1  0
  1 64  1  0
  1 65  1  0
  1 66  1  0
 52  5  1  0
 52  9  1  0
 26 17  1  0
 46 40  1  0
 26 21  1  0
M  END
>  <cnnaffinities>  (21) 
[7.14439]

>  <score>  (21) 
7.14439

>  <index>  (21) 
20

>  <Smiles>  (21) 
C(C(C(=O)N1C(C(C(c2c(c(c(N(C(=O)C(c3c(nc(c4c(c(c(c(c34)[H])[H])[H])[H])[H])[H])([H])[H])N(C([H])([H])[H])c3c(c(c(c(Cl)c3[H])[H])[H])[H])c(c12)[H])[H])[H])([H])[H])([H])[H])([H])[H])([H])[H])([H])([H])[H]

>  <h>  (21) 
<NA>

>  <Training>  (21) 
True

>  <Success>  (21) 
True

>  <enamine_searched>  (21) 
False

>  <enamine_id>  (21) 
nan

$$$$

     RDKit          3D

 59 64  0  0  0  0  0  0  0  0999 V2000
    7.0706   -2.4006   23.5159 C   0  0  0  0  0  0  0  0  0  0  0  0
    7.9445   -1.8350   22.3905 C   0  0  1  0  0  0  0  0  0  0  0  0
    7.1970   -1.7468   21.0473 C   0  0  0  0  0  0  0  0  0  0  0  0
    6.8811   -0.3460   20.8995 N   0  0  0  0  0  0  0  0  0  0  0  0
    6.1237    0.1132   19.7970 C   0  0  0  0  0  0  0  0  0  0  0  0
    6.4491   -0.2343   18.5079 C   0  0  0  0  0  0  0  0  0  0  0  0
    5.7899    0.2016   17.4050 N   0  0  0  0  0  0  0  0  0  0  0  0
    4.7596    0.9916   17.5989 C   0  0  0  0  0  0  0  0  0  0  0  0
    4.2911    1.3897   18.8834 C   0  0  0  0  0  0  0  0  0  0  0  0
    3.1632    2.2356   19.0466 C   0  0  0  0  0  0  0  0  0  0  0  0
    2.7367    2.5931   20.2950 C   0  0  0  0  0  0  0  0  0  0  0  0
    3.4081    2.1188   21.4437 C   0  0  0  0  0  0  0  0  0  0  0  0
    4.4931    1.2894   21.3153 C   0  0  0  0  0  0  0  0  0  0  0  0
    4.9753    0.9290   20.0265 C   0  0  0  0  0  0  0  0  0  0  0  0
    4.9989    0.9004   22.1954 H   0  0  0  0  0  0  0  0  0  0  0  0
    3.0788    2.4335   22.4307 H   0  0  0  0  0  0  0  0  0  0  0  0
    1.8810    3.2525   20.4064 H   0  0  0  0  0  0  0  0  0  0  0  0
    2.6707    2.6128   18.1551 H   0  0  0  0  0  0  0  0  0  0  0  0
    4.2366    1.3570   16.7153 H   0  0  0  0  0  0  0  0  0  0  0  0
    7.3046   -0.8805   18.3110 H   0  0  0  0  0  0  0  0  0  0  0  0
    7.7366    0.4759   21.6157 C   0  0  0  0  0  0  0  0  0  0  0  0
    7.8316    1.6709   21.4575 O   0  0  0  0  0  0  0  0  0  0  0  0
    8.5356   -0.4056   22.6155 C   0  0  1  0  0  0  0  0  0  0  0  0
    8.3641    0.0772   24.0759 C   0  0  0  0  0  0  0  0  0  0  0  0
    8.9954    1.3585   24.3252 N   0  0  0  0  0  0  0  0  0  0  0  0
    8.2574    2.3812   25.0499 C   0  0  0  0  0  0  0  0  0  0  0  0
    7.4029    3.2686   24.1738 C   0  0  0  0  0  0  0  0  0  0  0  0
    6.0040    3.2477   23.9680 C   0  0  0  0  0  0  0  0  0  0  0  0
    5.6124    4.1773   23.1048 N   0  0  0  0  0  0  0  0  0  0  0  0
    6.7399    4.7995   22.7415 N   0  0  0  0  0  0  0  0  0  0  0  0
    6.7011    5.8742   21.7768 C   0  0  0  0  0  0  0  0  0  0  0  0
    7.6068    5.8406   21.1657 H   0  0  0  0  0  0  0  0  0  0  0  0
    6.6335    6.8496   22.2712 H   0  0  0  0  0  0  0  0  0  0  0  0
    5.8227    5.7151   21.1466 H   0  0  0  0  0  0  0  0  0  0  0  0
    7.8316    4.3018   23.3660 C   0  0  0  0  0  0  0  0  0  0  0  0
    8.8164    4.7235   23.1744 H   0  0  0  0  0  0  0  0  0  0  0  0
    5.2476    2.5849   24.3767 H   0  0  0  0  0  0  0  0  0  0  0  0
    7.6385    1.8764   25.8001 H   0  0  0  0  0  0  0  0  0  0  0  0
    9.0170    2.9676   25.5756 H   0  0  0  0  0  0  0  0  0  0  0  0
   10.1983    1.7151   23.7844 C   0  0  0  0  0  0  0  0  0  0  0  0
   10.7505    2.7761   24.0508 O   0  0  0  0  0  0  0  0  0  0  0  0
   10.8125    0.6934   22.8871 C   0  0  0  0  0  0  0  0  0  0  0  0
   12.1861    0.7610   22.6585 C   0  0  0  0  0  0  0  0  0  0  0  0
   12.8186   -0.1900   21.8827 C   0  0  0  0  0  0  0  0  0  0  0  0
   12.0326   -1.1945   21.3280 C   0  0  0  0  0  0  0  0  0  0  0  0
   12.6177   -2.1783   20.6214 F   0  0  0  0  0  0  0  0  0  0  0  0
   10.6630   -1.2417   21.4813 C   0  0  0  0  0  0  0  0  0  0  0  0
   10.0335   -0.3282   22.3294 C   0  0  0  0  0  0  0  0  0  0  0  0
   10.1092   -1.9747   20.9099 H   0  0  0  0  0  0  0  0  0  0  0  0
   13.8859   -0.1660   21.6952 H   0  0  0  0  0  0  0  0  0  0  0  0
   12.7302    1.5871   23.1066 H   0  0  0  0  0  0  0  0  0  0  0  0
    8.8059   -0.6876   24.7278 H   0  0  0  0  0  0  0  0  0  0  0  0
    7.3081    0.1645   24.3339 H   0  0  0  0  0  0  0  0  0  0  0  0
    7.8469   -2.0748   20.2281 H   0  0  0  0  0  0  0  0  0  0  0  0
    6.2780   -2.3416   21.0212 H   0  0  0  0  0  0  0  0  0  0  0  0
    8.7746   -2.5400   22.3079 H   0  0  0  0  0  0  0  0  0  0  0  0
    6.7493   -3.4139   23.2589 H   0  0  0  0  0  0  0  0  0  0  0  0
    7.6393   -2.4802   24.4470 H   0  0  0  0  0  0  0  0  0  0  0  0
    6.1750   -1.8019   23.7111 H   0  0  0  0  0  0  0  0  0  0  0  0
  1  2  1  0
  2  3  1  0
  3  4  1  0
  4  5  1  0
  5  6  2  0
  6  7  1  0
  7  8  2  0
  8  9  1  0
  9 10  2  0
 10 11  1  0
 11 12  2  0
 12 13  1  0
 13 14  2  0
 13 15  1  0
 12 16  1  0
 11 17  1  0
 10 18  1  0
  8 19  1  0
  6 20  1  0
  4 21  1  0
 21 22  2  0
 21 23  1  0
 23 24  1  1
 24 25  1  0
 25 26  1  0
 26 27  1  0
 27 28  1  0
 28 29  2  0
 29 30  1  0
 30 31  1  0
 31 32  1  0
 31 33  1  0
 31 34  1  0
 30 35  1  0
 35 36  1  0
 28 37  1  0
 26 38  1  0
 26 39  1  0
 25 40  1  0
 40 41  2  0
 40 42  1  0
 42 43  2  0
 43 44  1  0
 44 45  2  0
 45 46  1  0
 45 47  1  0
 47 48  2  0
 47 49  1  0
 44 50  1  0
 43 51  1  0
 24 52  1  0
 24 53  1  0
  3 54  1  0
  3 55  1  0
  2 56  1  6
  1 57  1  0
  1 58  1  0
  1 59  1  0
 23  2  1  0
 35 27  2  0
 48 42  1  0
 14  5  1  0
 48 23  1  0
 14  9  1  0
M  END
>  <cnnaffinities>  (22) 
[6.49359, 6.68141, 6.31537]

>  <score>  (22) 
6.49359

>  <index>  (22) 
21

>  <Smiles>  (22) 
C([C@]1(C(N(c2c(nc(c3c(c(c(c(c23)[H])[H])[H])[H])[H])[H])C(=O)[C@]21C(N(C(c1c(nn(C([H])([H])[H])c1[H])[H])([H])[H])C(=O)c1c(c(c(F)c(c21)[H])[H])[H])([H])[H])([H])[H])[H])([H])([H])[H]

>  <h>  (22) 
<NA>

>  <Training>  (22) 
True

>  <Success>  (22) 
True

>  <enamine_searched>  (22) 
False

>  <enamine_id>  (22) 
nan

$$$$

     RDKit          3D

 41 44  0  0  0  0  0  0  0  0999 V2000
    8.3252    1.5096   20.7984 O   0  0  0  0  0  0  0  0  0  0  0  0
    7.9118    0.5988   21.4859 C   0  0  0  0  0  0  0  0  0  0  0  0
    6.9284   -0.4440   20.9114 C   0  0  0  0  0  0  0  0  0  0  0  0
    6.1054    0.0900   19.7697 C   0  0  0  0  0  0  0  0  0  0  0  0
    6.4274   -0.2059   18.4694 C   0  0  0  0  0  0  0  0  0  0  0  0
    5.7654    0.2417   17.3669 N   0  0  0  0  0  0  0  0  0  0  0  0
    4.7354    1.0268   17.5771 C   0  0  0  0  0  0  0  0  0  0  0  0
    4.2856    1.4190   18.8655 C   0  0  0  0  0  0  0  0  0  0  0  0
    3.1660    2.2687   19.0450 C   0  0  0  0  0  0  0  0  0  0  0  0
    2.7618    2.6407   20.2988 C   0  0  0  0  0  0  0  0  0  0  0  0
    3.4624    2.1688   21.4321 C   0  0  0  0  0  0  0  0  0  0  0  0
    4.5483    1.3412   21.2882 C   0  0  0  0  0  0  0  0  0  0  0  0
    4.9904    0.9447   19.9983 C   0  0  0  0  0  0  0  0  0  0  0  0
    5.0721    0.9884   22.1717 H   0  0  0  0  0  0  0  0  0  0  0  0
    3.1380    2.4675   22.4229 H   0  0  0  0  0  0  0  0  0  0  0  0
    1.9133    3.3066   20.4317 H   0  0  0  0  0  0  0  0  0  0  0  0
    2.6518    2.6437   18.1648 H   0  0  0  0  0  0  0  0  0  0  0  0
    4.2024    1.3944   16.6983 H   0  0  0  0  0  0  0  0  0  0  0  0
    7.2728   -0.8552   18.2465 H   0  0  0  0  0  0  0  0  0  0  0  0
    7.5588   -1.2570   20.5228 H   0  0  0  0  0  0  0  0  0  0  0  0
    6.3113   -0.9052   21.6920 H   0  0  0  0  0  0  0  0  0  0  0  0
    8.4072    0.3641   22.7695 N   0  0  0  0  0  0  0  0  0  0  0  0
    7.5969    0.1002   23.9447 C   0  0  0  0  0  0  0  0  0  0  0  0
    8.2190   -1.0228   24.7555 C   0  0  0  0  0  0  0  0  0  0  0  0
    9.6829   -0.7790   25.0225 C   0  0  0  0  0  0  0  0  0  0  0  0
   10.3643   -1.4453   26.0444 C   0  0  0  0  0  0  0  0  0  0  0  0
    9.5061   -2.5717   27.0599 Cl  0  0  0  0  0  0  0  0  0  0  0  0
   11.7163   -1.2654   26.2890 C   0  0  0  0  0  0  0  0  0  0  0  0
   12.4186   -0.3831   25.4819 C   0  0  0  0  0  0  0  0  0  0  0  0
   11.7678    0.2878   24.4554 C   0  0  0  0  0  0  0  0  0  0  0  0
   10.4061    0.0989   24.2120 C   0  0  0  0  0  0  0  0  0  0  0  0
    9.7428    0.8513   23.0717 C   0  0  0  0  0  0  0  0  0  0  0  0
    9.7592    1.9305   23.2833 H   0  0  0  0  0  0  0  0  0  0  0  0
   10.3454    0.7423   22.1710 H   0  0  0  0  0  0  0  0  0  0  0  0
   12.3388    0.9616   23.8268 H   0  0  0  0  0  0  0  0  0  0  0  0
   13.4776   -0.2396   25.6632 H   0  0  0  0  0  0  0  0  0  0  0  0
   12.2056   -1.8219   27.0834 H   0  0  0  0  0  0  0  0  0  0  0  0
    7.6771   -1.1530   25.6943 H   0  0  0  0  0  0  0  0  0  0  0  0
    8.1036   -1.9620   24.2080 H   0  0  0  0  0  0  0  0  0  0  0  0
    6.5785   -0.1513   23.6493 H   0  0  0  0  0  0  0  0  0  0  0  0
    7.5248    1.0032   24.5755 H   0  0  0  0  0  0  0  0  0  0  0  0
  1  2  2  0
  2  3  1  0
  3  4  1  0
  4  5  2  0
  5  6  1  0
  6  7  2  0
  7  8  1  0
  8  9  2  0
  9 10  1  0
 10 11  2  0
 11 12  1  0
 12 13  2  0
 12 14  1  0
 11 15  1  0
 10 16  1  0
  9 17  1  0
  7 18  1  0
  5 19  1  0
  3 20  1  0
  3 21  1  0
  2 22  1  0
 22 23  1  0
 23 24  1  0
 24 25  1  0
 25 26  2  0
 26 27  1  0
 26 28  1  0
 28 29  2  0
 29 30  1  0
 30 31  2  0
 31 32  1  0
 32 33  1  0
 32 34  1  0
 30 35  1  0
 29 36  1  0
 28 37  1  0
 24 38  1  0
 24 39  1  0
 23 40  1  0
 23 41  1  0
 13  4  1  0
 32 22  1  0
 13  8  1  0
 31 25  1  0
M  END
>  <cnnaffinities>  (23) 
[5.46397]

>  <score>  (23) 
5.46397

>  <index>  (23) 
22

>  <Smiles>  (23) 
O=C(C(c1c(nc(c2c(c(c(c(c12)[H])[H])[H])[H])[H])[H])([H])[H])N1C(C(c2c(Cl)c(c(c(c2C1([H])[H])[H])[H])[H])([H])[H])([H])[H]

>  <h>  (23) 
<NA>

>  <Training>  (23) 
True

>  <Success>  (23) 
True

>  <enamine_searched>  (23) 
False

>  <enamine_id>  (23) 
nan

$$$$

     RDKit          3D

 69 74  0  0  0  0  0  0  0  0999 V2000
    8.7749    7.6173   24.3188 C   0  0  0  0  0  0  0  0  0  0  0  0
    8.3127    6.3933   23.5468 C   0  0  1  0  0  0  0  0  0  0  0  0
    7.8241    5.2642   24.4517 C   0  0  0  0  0  0  0  0  0  0  0  0
    7.2654    4.0988   23.6583 N   0  0  1  0  0  4  0  0  0  0  0  0
    6.6825    3.0468   24.5414 C   0  0  0  0  0  0  0  0  0  0  0  0
    7.7517    2.2762   25.3112 C   0  0  0  0  0  0  0  0  0  0  0  0
    8.5693    1.4538   24.4500 N   0  0  0  0  0  0  0  0  0  0  0  0
    8.0926    0.1199   24.1522 C   0  0  0  0  0  0  0  0  0  0  0  0
    8.4367   -0.3030   22.7109 C   0  0  2  0  0  0  0  0  0  0  0  0
    7.6236    0.5640   21.7210 C   0  0  0  0  0  0  0  0  0  0  0  0
    7.5730    1.7806   21.7059 O   0  0  0  0  0  0  0  0  0  0  0  0
    6.9530   -0.2806   20.8665 N   0  0  0  0  0  0  0  0  0  0  0  0
    6.1573    0.1521   19.7911 C   0  0  0  0  0  0  0  0  0  0  0  0
    6.4519   -0.2312   18.5047 C   0  0  0  0  0  0  0  0  0  0  0  0
    5.7795    0.1921   17.4089 N   0  0  0  0  0  0  0  0  0  0  0  0
    4.7614    0.9955   17.6102 C   0  0  0  0  0  0  0  0  0  0  0  0
    4.3108    1.4064   18.8975 C   0  0  0  0  0  0  0  0  0  0  0  0
    3.1846    2.2543   19.0586 C   0  0  0  0  0  0  0  0  0  0  0  0
    2.7507    2.6056   20.3076 C   0  0  0  0  0  0  0  0  0  0  0  0
    3.4097    2.1151   21.4568 C   0  0  0  0  0  0  0  0  0  0  0  0
    4.5100    1.3049   21.3295 C   0  0  0  0  0  0  0  0  0  0  0  0
    5.0051    0.9560   20.0369 C   0  0  0  0  0  0  0  0  0  0  0  0
    5.0139    0.9395   22.2187 H   0  0  0  0  0  0  0  0  0  0  0  0
    3.0552    2.4012   22.4439 H   0  0  0  0  0  0  0  0  0  0  0  0
    1.8997    3.2700   20.4215 H   0  0  0  0  0  0  0  0  0  0  0  0
    2.6942    2.6306   18.1667 H   0  0  0  0  0  0  0  0  0  0  0  0
    4.2298    1.3563   16.7306 H   0  0  0  0  0  0  0  0  0  0  0  0
    7.2949   -0.8942   18.3127 H   0  0  0  0  0  0  0  0  0  0  0  0
    7.3349   -1.6716   21.0013 C   0  0  0  0  0  0  0  0  0  0  0  0
    8.0008   -1.7652   22.3854 C   0  0  2  0  0  0  0  0  0  0  0  0
    7.1259   -2.4674   23.4269 C   0  0  0  0  0  0  0  0  0  0  0  0
    7.6495   -2.5406   24.3844 H   0  0  0  0  0  0  0  0  0  0  0  0
    6.1701   -1.9635   23.5948 H   0  0  0  0  0  0  0  0  0  0  0  0
    6.9185   -3.4900   23.1011 H   0  0  0  0  0  0  0  0  0  0  0  0
    8.8942   -2.3901   22.3239 H   0  0  0  0  0  0  0  0  0  0  0  0
    6.4485   -2.3065   20.9096 H   0  0  0  0  0  0  0  0  0  0  0  0
    8.0417   -1.9489   20.2098 H   0  0  0  0  0  0  0  0  0  0  0  0
    9.9323   -0.0805   22.5308 C   0  0  0  0  0  0  0  0  0  0  0  0
   10.7177   -0.9101   21.7305 C   0  0  0  0  0  0  0  0  0  0  0  0
   12.0876   -0.7471   21.6615 C   0  0  0  0  0  0  0  0  0  0  0  0
   12.9868   -1.8433   20.6482 Cl  0  0  0  0  0  0  0  0  0  0  0  0
   12.7258    0.3007   22.3255 C   0  0  0  0  0  0  0  0  0  0  0  0
   11.9429    1.1782   23.0564 C   0  0  0  0  0  0  0  0  0  0  0  0
   10.5703    0.9800   23.1783 C   0  0  0  0  0  0  0  0  0  0  0  0
    9.8118    1.8846   24.0953 C   0  0  0  0  0  0  0  0  0  0  0  0
   10.3015    2.9326   24.5046 O   0  0  0  0  0  0  0  0  0  0  0  0
   12.3618    2.0569   23.5382 H   0  0  0  0  0  0  0  0  0  0  0  0
   13.8007    0.4329   22.2630 H   0  0  0  0  0  0  0  0  0  0  0  0
   10.2559   -1.6786   21.1290 H   0  0  0  0  0  0  0  0  0  0  0  0
    8.5403   -0.6002   24.8502 H   0  0  0  0  0  0  0  0  0  0  0  0
    7.0106    0.0995   24.3005 H   0  0  0  0  0  0  0  0  0  0  0  0
    7.2765    1.6220   26.0466 H   0  0  0  0  0  0  0  0  0  0  0  0
    8.4358    2.9468   25.8259 H   0  0  0  0  0  0  0  0  0  0  0  0
    5.9777    3.5112   25.2430 H   0  0  0  0  0  0  0  0  0  0  0  0
    6.1113    2.3587   23.9051 H   0  0  0  0  0  0  0  0  0  0  0  0
    6.2494    4.6096   22.6712 C   0  0  0  0  0  0  0  0  0  0  0  0
    6.8308    5.7612   21.8664 C   0  0  0  0  0  0  0  0  0  0  0  0
    7.2613    6.8184   22.6937 O   0  0  0  0  0  0  0  0  0  0  0  0
    6.0880    6.1695   21.1745 H   0  0  0  0  0  0  0  0  0  0  0  0
    7.6789    5.3839   21.2767 H   0  0  0  0  0  0  0  0  0  0  0  0
    5.9741    3.7863   22.0071 H   0  0  0  0  0  0  0  0  0  0  0  0
    5.3599    4.9417   23.2191 H   0  0  0  0  0  0  0  0  0  0  0  0
    8.0053    3.6341   23.0984 H   0  0  0  0  0  0  0  0  0  0  0  0
    7.0266    5.6525   25.0989 H   0  0  0  0  0  0  0  0  0  0  0  0
    8.6483    4.9174   25.0764 H   0  0  0  0  0  0  0  0  0  0  0  0
    9.1402    6.0070   22.9249 H   0  0  0  0  0  0  0  0  0  0  0  0
    9.5916    7.3809   25.0100 H   0  0  0  0  0  0  0  0  0  0  0  0
    9.1241    8.3846   23.6213 H   0  0  0  0  0  0  0  0  0  0  0  0
    7.9380    8.0329   24.8899 H   0  0  0  0  0  0  0  0  0  0  0  0
  1  2  1  0
  2  3  1  0
  3  4  1  0
  4  5  1  0
  5  6  1  0
  6  7  1  0
  7  8  1  0
  9  8  1  1
  9 10  1  0
 10 11  2  0
 10 12  1  0
 12 13  1  0
 13 14  2  0
 14 15  1  0
 15 16  2  0
 16 17  1  0
 17 18  2  0
 18 19  1  0
 19 20  2  0
 20 21  1  0
 21 22  2  0
 21 23  1  0
 20 24  1  0
 19 25  1  0
 18 26  1  0
 16 27  1  0
 14 28  1  0
 12 29  1  0
 29 30  1  0
 30 31  1  0
 31 32  1  0
 31 33  1  0
 31 34  1  0
 30 35  1  6
 29 36  1  0
 29 37  1  0
  9 38  1  0
 38 39  2  0
 39 40  1  0
 40 41  1  0
 40 42  2  0
 42 43  1  0
 43 44  2  0
 44 45  1  0
 45 46  2  0
 43 47  1  0
 42 48  1  0
 39 49  1  0
  8 50  1  0
  8 51  1  0
  6 52  1  0
  6 53  1  0
  5 54  1  0
  5 55  1  0
  4 56  1  0
 56 57  1  0
 57 58  1  0
 57 59  1  0
 57 60  1  0
 56 61  1  0
 56 62  1  0
  4 63  1  6
  3 64  1  0
  3 65  1  0
  2 66  1  6
  1 67  1  0
  1 68  1  0
  1 69  1  0
 58  2  1  0
 45  7  1  0
 30  9  1  0
 44 38  1  0
 22 13  1  0
 22 17  1  0
M  CHG  1   4   1
M  END
>  <cnnaffinities>  (24) 
[6.78788, 6.52013]

>  <score>  (24) 
6.78788

>  <index>  (24) 
23

>  <Smiles>  (24) 
C([C@]1(C([N@@+](C(C(N2C([C@@]3(C(=O)N(c4c(nc(c5c(c(c(c(c45)[H])[H])[H])[H])[H])[H])C([C@@]3(C([H])([H])[H])[H])([H])[H])c3c(c(Cl)c(c(c3C2=O)[H])[H])[H])([H])[H])([H])[H])([H])[H])(C(C(O1)([H])[H])([H])[H])[H])([H])[H])[H])([H])([H])[H]

>  <h>  (24) 
<NA>

>  <Training>  (24) 
True

>  <Success>  (24) 
True

>  <enamine_searched>  (24) 
False

>  <enamine_id>  (24) 
nan

$$$$

     RDKit          3D

 70 75  0  0  0  0  0  0  0  0999 V2000
    9.7212    4.7457   22.3729 C   0  0  0  0  0  0  0  0  0  0  0  0
    8.7086    3.7207   22.0394 N   0  0  0  0  0  4  0  0  0  0  0  0
    7.7419    3.4451   23.1329 C   0  0  0  0  0  0  0  0  0  0  0  0
    8.3988    2.7631   24.3397 C   0  0  0  0  0  0  0  0  0  0  0  0
    9.0912    1.5425   23.9572 N   0  0  0  0  0  0  0  0  0  0  0  0
    8.3331    0.3316   23.7313 C   0  0  0  0  0  0  0  0  0  0  0  0
    8.7088   -0.3581   22.3966 C   0  0  2  0  0  0  0  0  0  0  0  0
    8.2719    0.4755   21.1579 C   0  0  0  0  0  0  0  0  0  0  0  0
    8.8576    1.4495   20.7078 O   0  0  0  0  0  0  0  0  0  0  0  0
    7.1209   -0.0566   20.6487 N   0  0  0  0  0  0  0  0  0  0  0  0
    6.3297    0.4500   19.5892 C   0  0  0  0  0  0  0  0  0  0  0  0
    6.5961    0.0827   18.2957 C   0  0  0  0  0  0  0  0  0  0  0  0
    5.8044    0.3827   17.2358 N   0  0  0  0  0  0  0  0  0  0  0  0
    4.7107    1.0663   17.4759 C   0  0  0  0  0  0  0  0  0  0  0  0
    4.3056    1.4981   18.7708 C   0  0  0  0  0  0  0  0  0  0  0  0
    3.1060    2.2291   18.9809 C   0  0  0  0  0  0  0  0  0  0  0  0
    2.7170    2.5786   20.2445 C   0  0  0  0  0  0  0  0  0  0  0  0
    3.5087    2.2167   21.3577 C   0  0  0  0  0  0  0  0  0  0  0  0
    4.6869    1.5361   21.1768 C   0  0  0  0  0  0  0  0  0  0  0  0
    5.1218    1.1633   19.8722 C   0  0  0  0  0  0  0  0  0  0  0  0
    5.2896    1.2714   22.0413 H   0  0  0  0  0  0  0  0  0  0  0  0
    3.1834    2.4760   22.3606 H   0  0  0  0  0  0  0  0  0  0  0  0
    1.8020    3.1414   20.4016 H   0  0  0  0  0  0  0  0  0  0  0  0
    2.5167    2.5149   18.1146 H   0  0  0  0  0  0  0  0  0  0  0  0
    4.0727    1.2986   16.6230 H   0  0  0  0  0  0  0  0  0  0  0  0
    7.4847   -0.5050   18.0728 H   0  0  0  0  0  0  0  0  0  0  0  0
    6.6160   -1.1660   21.4121 C   0  0  0  0  0  0  0  0  0  0  0  0
    7.8517   -1.6460   22.1884 C   0  0  2  0  0  0  0  0  0  0  0  0
    7.4059   -2.4691   23.4017 C   0  0  0  0  0  0  0  0  0  0  0  0
    6.5162   -3.4680   22.9641 O   0  0  0  0  0  0  0  0  0  0  0  0
    7.0510   -4.7719   22.9079 C   0  0  0  0  0  0  0  0  0  0  0  0
    6.0624   -5.8401   22.4036 C   0  0  0  0  0  0  0  0  0  0  0  0
    5.8886   -5.5960   22.3978 C   0  0  0  0  0  0  0  0  0  0  0  0
    3.6432   -5.7249   22.8226 O   0  0  0  0  0  0  0  0  0  0  0  0
    4.8734   -5.8993   23.3410 C   0  0  0  0  0  0  0  0  0  0  0  0
    3.1043   -6.5429   22.7206 H   0  0  0  0  0  0  0  0  0  0  0  0
    4.7556   -6.1055   24.3883 H   0  0  0  0  0  0  0  0  0  0  0  0
    5.2185   -6.2568   21.4766 H   0  0  0  0  0  0  0  0  0  0  0  0
    5.6153   -4.6471   21.8140 H   0  0  0  0  0  0  0  0  0  0  0  0
    6.7092   -6.8615   22.6476 H   0  0  0  0  0  0  0  0  0  0  0  0
    7.9756   -4.7555   22.2873 H   0  0  0  0  0  0  0  0  0  0  0  0
    7.4843   -5.0040   23.9087 H   0  0  0  0  0  0  0  0  0  0  0  0
    6.8531   -1.8387   24.1104 H   0  0  0  0  0  0  0  0  0  0  0  0
    8.2770   -2.8880   23.9307 H   0  0  0  0  0  0  0  0  0  0  0  0
    8.4176   -2.3167   21.5335 H   0  0  0  0  0  0  0  0  0  0  0  0
    6.2177   -1.9369   20.7467 H   0  0  0  0  0  0  0  0  0  0  0  0
    5.8036   -0.8580   22.0940 H   0  0  0  0  0  0  0  0  0  0  0  0
   10.2198   -0.4953   22.3726 C   0  0  0  0  0  0  0  0  0  0  0  0
   10.8319   -1.3914   21.4918 C   0  0  0  0  0  0  0  0  0  0  0  0
   12.2113   -1.4255   21.3829 C   0  0  0  0  0  0  0  0  0  0  0  0
   12.9528   -2.4682   20.2043 Cl  0  0  0  0  0  0  0  0  0  0  0  0
   13.0277   -0.5968   22.1513 C   0  0  0  0  0  0  0  0  0  0  0  0
   12.4299    0.3259   22.9874 C   0  0  0  0  0  0  0  0  0  0  0  0
   11.0398    0.4020   23.0783 C   0  0  0  0  0  0  0  0  0  0  0  0
   10.4518    1.5295   23.8774 C   0  0  0  0  0  0  0  0  0  0  0  0
   11.1584    2.4015   24.3719 O   0  0  0  0  0  0  0  0  0  0  0  0
   13.0234    1.0261   23.5649 H   0  0  0  0  0  0  0  0  0  0  0  0
   14.1066   -0.6609   22.0596 H   0  0  0  0  0  0  0  0  0  0  0  0
   10.2363   -2.0397   20.8614 H   0  0  0  0  0  0  0  0  0  0  0  0
    8.5435   -0.3813   24.5446 H   0  0  0  0  0  0  0  0  0  0  0  0
    7.2649    0.5729   23.7602 H   0  0  0  0  0  0  0  0  0  0  0  0
    7.6325    2.5256   25.0875 H   0  0  0  0  0  0  0  0  0  0  0  0
    9.1410    3.4094   24.8094 H   0  0  0  0  0  0  0  0  0  0  0  0
    7.2650    4.3765   23.4604 H   0  0  0  0  0  0  0  0  0  0  0  0
    6.9552    2.8009   22.7241 H   0  0  0  0  0  0  0  0  0  0  0  0
    8.2111    4.0412   21.1921 H   0  0  0  0  0  0  0  0  0  0  0  0
    9.1574    2.8325   21.7544 H   0  0  0  0  0  0  0  0  0  0  0  0
   10.2361    5.0749   21.4684 H   0  0  0  0  0  0  0  0  0  0  0  0
   10.4551    4.3432   23.0706 H   0  0  0  0  0  0  0  0  0  0  0  0
    9.2457    5.6210   22.8311 H   0  0  0  0  0  0  0  0  0  0  0  0
  1  2  1  0
  2  3  1  0
  3  4  1  0
  4  5  1  0
  5  6  1  0
  7  6  1  1
  7  8  1  0
  8  9  2  0
  8 10  1  0
 10 11  1  0
 11 12  2  0
 12 13  1  0
 13 14  2  0
 14 15  1  0
 15 16  2  0
 16 17  1  0
 17 18  2  0
 18 19  1  0
 19 20  2  0
 19 21  1  0
 18 22  1  0
 17 23  1  0
 16 24  1  0
 14 25  1  0
 12 26  1  0
 10 27  1  0
 27 28  1  0
 28 29  1  0
 29 30  1  0
 30 31  1  0
 31 32  1  0
 32 33  1  0
 33 34  1  0
 34 35  1  0
 35 36  1  0
 35 37  1  0
 33 38  1  0
 33 39  1  0
 32 40  1  0
 31 41  1  0
 31 42  1  0
 29 43  1  0
 29 44  1  0
 28 45  1  6
 27 46  1  0
 27 47  1  0
  7 48  1  0
 48 49  2  0
 49 50  1  0
 50 51  1  0
 50 52  2  0
 52 53  1  0
 53 54  2  0
 54 55  1  0
 55 56  2  0
 53 57  1  0
 52 58  1  0
 49 59  1  0
  6 60  1  0
  6 61  1  0
  4 62  1  0
  4 63  1  0
  3 64  1  0
  3 65  1  0
  2 66  1  0
  2 67  1  0
  1 68  1  0
  1 69  1  0
  1 70  1  0
 55  5  1  0
 28  7  1  0
 35 32  1  0
 54 48  1  0
 20 11  1  0
 20 15  1  0
M  CHG  1   2   1
M  END
>  <cnnaffinities>  (25) 
[6.69605]

>  <score>  (25) 
6.69605

>  <index>  (25) 
24

>  <Smiles>  (25) 
C([N+](C(C(N1C([C@@]2(C(=O)N(c3c(nc(c4c(c(c(c(c34)[H])[H])[H])[H])[H])[H])C([C@@]2(C(OC(C2(C(OC2([H])[H])([H])[H])[H])([H])[H])([H])[H])[H])([H])[H])c2c(c(Cl)c(c(c2C1=O)[H])[H])[H])([H])[H])([H])[H])([H])[H])([H])[H])([H])([H])[H]

>  <h>  (25) 
<NA>

>  <Training>  (25) 
True

>  <Success>  (25) 
True

>  <enamine_searched>  (25) 
False

>  <enamine_id>  (25) 
nan

$$$$

     RDKit          3D

 68 73  0  0  0  0  0  0  0  0999 V2000
    6.5793    4.3470   21.3982 C   0  0  0  0  0  0  0  0  0  0  0  0
    7.5834    3.9060   22.3553 N   0  0  0  0  0  0  0  0  0  0  0  0
    7.1725    3.2367   23.4700 C   0  0  0  0  0  0  0  0  0  0  0  0
    5.9902    3.0339   23.7035 O   0  0  0  0  0  0  0  0  0  0  0  0
    8.2768    2.7535   24.4249 C   0  0  0  0  0  0  0  0  0  0  0  0
    8.9225    1.5596   23.9035 N   0  0  0  0  0  0  0  0  0  0  0  0
    8.1281    0.3465   23.7737 C   0  0  0  0  0  0  0  0  0  0  0  0
    8.5452   -0.4943   22.5396 C   0  0  2  0  0  0  0  0  0  0  0  0
    8.0599    0.2105   21.2507 C   0  0  0  0  0  0  0  0  0  0  0  0
    8.5646    1.1705   20.7002 O   0  0  0  0  0  0  0  0  0  0  0  0
    6.9316   -0.4301   20.8002 N   0  0  0  0  0  0  0  0  0  0  0  0
    6.1603    0.0979   19.7437 C   0  0  0  0  0  0  0  0  0  0  0  0
    6.4996   -0.2036   18.4524 C   0  0  0  0  0  0  0  0  0  0  0  0
    5.8078    0.2196   17.3686 N   0  0  0  0  0  0  0  0  0  0  0  0
    4.7598    0.9781   17.5885 C   0  0  0  0  0  0  0  0  0  0  0  0
    4.3028    1.3687   18.8791 C   0  0  0  0  0  0  0  0  0  0  0  0
    3.1798    2.2176   19.0622 C   0  0  0  0  0  0  0  0  0  0  0  0
    2.7886    2.6005   20.3159 C   0  0  0  0  0  0  0  0  0  0  0  0
    3.5019    2.1514   21.4514 C   0  0  0  0  0  0  0  0  0  0  0  0
    4.5894    1.3229   21.3039 C   0  0  0  0  0  0  0  0  0  0  0  0
    5.0206    0.9141   20.0091 C   0  0  0  0  0  0  0  0  0  0  0  0
    5.1548    1.0206   22.1820 H   0  0  0  0  0  0  0  0  0  0  0  0
    3.2113    2.4874   22.4435 H   0  0  0  0  0  0  0  0  0  0  0  0
    1.9413    3.2705   20.4419 H   0  0  0  0  0  0  0  0  0  0  0  0
    2.6658    2.5800   18.1768 H   0  0  0  0  0  0  0  0  0  0  0  0
    4.2151    1.3328   16.7136 H   0  0  0  0  0  0  0  0  0  0  0  0
    7.3731   -0.8231   18.2586 H   0  0  0  0  0  0  0  0  0  0  0  0
    6.5147   -1.5532   21.6028 C   0  0  0  0  0  0  0  0  0  0  0  0
    7.7511   -1.8456   22.4586 C   0  0  2  0  0  0  0  0  0  0  0  0
    7.3386   -2.5108   23.7673 C   0  0  0  0  0  0  0  0  0  0  0  0
    8.5005   -2.9846   24.4694 N   0  0  0  0  0  0  0  0  0  0  0  0
    8.3968   -3.4398   25.7807 C   0  0  0  0  0  0  0  0  0  0  0  0
    7.2664   -3.7646   26.5730 C   0  0  0  0  0  0  0  0  0  0  0  0
    7.6312   -4.2760   27.7467 N   0  0  0  0  0  0  0  0  0  0  0  0
    8.9670   -4.2596   27.7335 N   0  0  0  0  0  0  0  0  0  0  0  0
    9.7150   -4.8105   28.8323 C   0  0  0  0  0  0  0  0  0  0  0  0
    9.2324   -4.5336   29.7649 H   0  0  0  0  0  0  0  0  0  0  0  0
    9.7531   -5.9001   28.7793 H   0  0  0  0  0  0  0  0  0  0  0  0
   10.7335   -4.4188   28.8227 H   0  0  0  0  0  0  0  0  0  0  0  0
    9.4710   -3.7681   26.5769 C   0  0  0  0  0  0  0  0  0  0  0  0
   10.5348   -3.6660   26.4047 H   0  0  0  0  0  0  0  0  0  0  0  0
    6.2090   -3.6623   26.3464 H   0  0  0  0  0  0  0  0  0  0  0  0
    9.3635   -2.4873   24.2841 H   0  0  0  0  0  0  0  0  0  0  0  0
    6.6735   -3.3606   23.5659 H   0  0  0  0  0  0  0  0  0  0  0  0
    6.7320   -1.8024   24.3594 H   0  0  0  0  0  0  0  0  0  0  0  0
    8.3793   -2.5593   21.9170 H   0  0  0  0  0  0  0  0  0  0  0  0
    5.6460   -1.2991   22.2316 H   0  0  0  0  0  0  0  0  0  0  0  0
    6.2238   -2.4067   20.9772 H   0  0  0  0  0  0  0  0  0  0  0  0
   10.0636   -0.5935   22.5024 C   0  0  0  0  0  0  0  0  0  0  0  0
   10.6847   -1.4750   21.6042 C   0  0  0  0  0  0  0  0  0  0  0  0
   12.0657   -1.4862   21.4848 C   0  0  0  0  0  0  0  0  0  0  0  0
   12.8380   -2.4530   20.2558 Cl  0  0  0  0  0  0  0  0  0  0  0  0
   12.8681   -0.6683   22.2822 C   0  0  0  0  0  0  0  0  0  0  0  0
   12.2657    0.2170   23.1537 C   0  0  0  0  0  0  0  0  0  0  0  0
   10.8753    0.3166   23.2013 C   0  0  0  0  0  0  0  0  0  0  0  0
   10.2925    1.5014   23.9138 C   0  0  0  0  0  0  0  0  0  0  0  0
   10.9900    2.3683   24.4221 O   0  0  0  0  0  0  0  0  0  0  0  0
   12.8534    0.8703   23.7930 H   0  0  0  0  0  0  0  0  0  0  0  0
   13.9446   -0.6876   22.1639 H   0  0  0  0  0  0  0  0  0  0  0  0
   10.0892   -2.0974   20.9456 H   0  0  0  0  0  0  0  0  0  0  0  0
    8.2184   -0.2522   24.6935 H   0  0  0  0  0  0  0  0  0  0  0  0
    7.0823    0.6467   23.6672 H   0  0  0  0  0  0  0  0  0  0  0  0
    9.0764    3.4913   24.5489 H   0  0  0  0  0  0  0  0  0  0  0  0
    7.8410    2.5722   25.4210 H   0  0  0  0  0  0  0  0  0  0  0  0
    8.5125    3.6902   22.0153 H   0  0  0  0  0  0  0  0  0  0  0  0
    6.1643    3.4990   20.8374 H   0  0  0  0  0  0  0  0  0  0  0  0
    7.0143    5.0737   20.7082 H   0  0  0  0  0  0  0  0  0  0  0  0
    5.7593    4.8309   21.9352 H   0  0  0  0  0  0  0  0  0  0  0  0
  1  2  1  0
  2  3  1  0
  3  4  2  0
  3  5  1  0
  5  6  1  0
  6  7  1  0
  8  7  1  1
  8  9  1  0
  9 10  2  0
  9 11  1  0
 11 12  1  0
 12 13  2  0
 13 14  1  0
 14 15  2  0
 15 16  1  0
 16 17  2  0
 17 18  1  0
 18 19  2  0
 19 20  1  0
 20 21  2  0
 20 22  1  0
 19 23  1  0
 18 24  1  0
 17 25  1  0
 15 26  1  0
 13 27  1  0
 11 28  1  0
 28 29  1  0
 29 30  1  0
 30 31  1  0
 31 32  1  0
 32 33  1  0
 33 34  2  0
 34 35  1  0
 35 36  1  0
 36 37  1  0
 36 38  1  0
 36 39  1  0
 35 40  1  0
 40 41  1  0
 33 42  1  0
 31 43  1  0
 30 44  1  0
 30 45  1  0
 29 46  1  6
 28 47  1  0
 28 48  1  0
  8 49  1  0
 49 50  2  0
 50 51  1  0
 51 52  1  0
 51 53  2  0
 53 54  1  0
 54 55  2  0
 55 56  1  0
 56 57  2  0
 54 58  1  0
 53 59  1  0
 50 60  1  0
  7 61  1  0
  7 62  1  0
  5 63  1  0
  5 64  1  0
  2 65  1  0
  1 66  1  0
  1 67  1  0
  1 68  1  0
 56  6  1  0
 29  8  1  0
 40 32  2  0
 55 49  1  0
 21 12  1  0
 21 16  1  0
M  END
>  <cnnaffinities>  (26) 
[6.44839]

>  <score>  (26) 
6.44839

>  <index>  (26) 
25

>  <Smiles>  (26) 
C(N(C(=O)C(N1C([C@@]2(C(=O)N(c3c(nc(c4c(c(c(c(c34)[H])[H])[H])[H])[H])[H])C([C@@]2(C(N(c2c(nn(C([H])([H])[H])c2[H])[H])[H])([H])[H])[H])([H])[H])c2c(c(Cl)c(c(c2C1=O)[H])[H])[H])([H])[H])([H])[H])[H])([H])([H])[H]

>  <h>  (26) 
<NA>

>  <Training>  (26) 
True

>  <Success>  (26) 
True

>  <enamine_searched>  (26) 
False

>  <enamine_id>  (26) 
nan

$$$$

     RDKit          3D

 43 47  0  0  0  0  0  0  0  0999 V2000
    8.8665    0.6947   20.6776 O   0  0  0  0  0  0  0  0  0  0  0  0
    8.2266   -0.2574   21.0525 C   0  0  0  0  0  0  0  0  0  0  0  0
    8.6789   -1.3691   21.7253 N   0  0  0  0  0  0  0  0  0  0  0  0
    7.5839   -2.0589   22.3788 C   0  0  1  0  0  0  0  0  0  0  0  0
    7.5766   -3.5883   22.5041 C   0  0  0  0  0  0  0  0  0  0  0  0
    7.4138   -3.4608   24.0345 C   0  0  2  0  0  0  0  0  0  0  0  0
    6.1612   -4.0148   24.6603 C   0  0  0  0  0  0  0  0  0  0  0  0
    5.2626   -4.8629   24.0051 C   0  0  0  0  0  0  0  0  0  0  0  0
    4.2670   -5.5427   24.6965 C   0  0  0  0  0  0  0  0  0  0  0  0
    4.1233   -5.3535   26.0661 C   0  0  0  0  0  0  0  0  0  0  0  0
    4.9303   -4.4354   26.7293 C   0  0  0  0  0  0  0  0  0  0  0  0
    5.9281   -3.7749   26.0210 C   0  0  0  0  0  0  0  0  0  0  0  0
    6.9249   -2.6209   26.8719 Cl  0  0  0  0  0  0  0  0  0  0  0  0
    4.7823   -4.2211   27.7842 H   0  0  0  0  0  0  0  0  0  0  0  0
    3.3621   -5.8953   26.6200 H   0  0  0  0  0  0  0  0  0  0  0  0
    3.6217   -6.2432   24.1684 H   0  0  0  0  0  0  0  0  0  0  0  0
    5.3600   -5.0342   22.9383 H   0  0  0  0  0  0  0  0  0  0  0  0
    7.4796   -1.9170   23.9061 C   0  0  0  0  0  0  0  0  0  0  0  0
    8.3589   -1.4542   24.3643 H   0  0  0  0  0  0  0  0  0  0  0  0
    6.5725   -1.4014   24.2184 H   0  0  0  0  0  0  0  0  0  0  0  0
    8.2741   -3.8566   24.5852 H   0  0  0  0  0  0  0  0  0  0  0  0
    6.7124   -4.0048   21.9923 H   0  0  0  0  0  0  0  0  0  0  0  0
    8.4841   -4.0941   22.1743 H   0  0  0  0  0  0  0  0  0  0  0  0
    6.3774   -1.5165   21.6409 C   0  0  0  0  0  0  0  0  0  0  0  0
    5.2357   -1.9047   21.6899 O   0  0  0  0  0  0  0  0  0  0  0  0
    6.8474   -0.4464   20.8803 N   0  0  0  0  0  0  0  0  0  0  0  0
    6.1291    0.0987   19.7924 C   0  0  0  0  0  0  0  0  0  0  0  0
    6.4882   -0.2127   18.5064 C   0  0  0  0  0  0  0  0  0  0  0  0
    5.8229    0.2187   17.4090 N   0  0  0  0  0  0  0  0  0  0  0  0
    4.7829    0.9895   17.6171 C   0  0  0  0  0  0  0  0  0  0  0  0
    4.3203    1.3867   18.9016 C   0  0  0  0  0  0  0  0  0  0  0  0
    3.1971    2.2319   19.0587 C   0  0  0  0  0  0  0  0  0  0  0  0
    2.7989    2.6194   20.3064 C   0  0  0  0  0  0  0  0  0  0  0  0
    3.4954    2.1795   21.4532 C   0  0  0  0  0  0  0  0  0  0  0  0
    4.5824    1.3534   21.3307 C   0  0  0  0  0  0  0  0  0  0  0  0
    5.0116    0.9379   20.0397 C   0  0  0  0  0  0  0  0  0  0  0  0
    5.1184    1.0116   22.2116 H   0  0  0  0  0  0  0  0  0  0  0  0
    3.1727    2.5091   22.4348 H   0  0  0  0  0  0  0  0  0  0  0  0
    1.9520    3.2872   20.4187 H   0  0  0  0  0  0  0  0  0  0  0  0
    2.6944    2.5781   18.1625 H   0  0  0  0  0  0  0  0  0  0  0  0
    4.2491    1.3441   16.7381 H   0  0  0  0  0  0  0  0  0  0  0  0
    7.3414   -0.8612   18.3219 H   0  0  0  0  0  0  0  0  0  0  0  0
    9.5794   -1.2690   22.1719 H   0  0  0  0  0  0  0  0  0  0  0  0
  1  2  2  0
  2  3  1  0
  4  3  1  6
  4  5  1  0
  5  6  1  0
  6  7  1  0
  7  8  2  0
  8  9  1  0
  9 10  2  0
 10 11  1  0
 11 12  2  0
 12 13  1  0
 11 14  1  0
 10 15  1  0
  9 16  1  0
  8 17  1  0
  6 18  1  0
 18 19  1  0
 18 20  1  0
  6 21  1  1
  5 22  1  0
  5 23  1  0
  4 24  1  0
 24 25  2  0
 24 26  1  0
 26 27  1  0
 27 28  2  0
 28 29  1  0
 29 30  2  0
 30 31  1  0
 31 32  2  0
 32 33  1  0
 33 34  2  0
 34 35  1  0
 35 36  2  0
 35 37  1  0
 34 38  1  0
 33 39  1  0
 32 40  1  0
 30 41  1  0
 28 42  1  0
  3 43  1  0
 26  2  1  0
 36 27  1  0
 18  4  1  0
 36 31  1  0
 12  7  1  0
M  END
>  <cnnaffinities>  (27) 
[5.21138, 5.1873]

>  <score>  (27) 
5.21138

>  <index>  (27) 
26

>  <Smiles>  (27) 
O=C1N([C@]2(C([C@](c3c(c(c(c(c3Cl)[H])[H])[H])[H])(C2([H])[H])[H])([H])[H])C(=O)N1c1c(nc(c2c(c(c(c(c12)[H])[H])[H])[H])[H])[H])[H]

>  <h>  (27) 
<NA>

>  <Training>  (27) 
True

>  <Success>  (27) 
True

>  <enamine_searched>  (27) 
False

>  <enamine_id>  (27) 
nan

$$$$

     RDKit          3D

 46 48  0  0  0  0  0  0  0  0999 V2000
    6.8379    3.9208   21.4014 C   0  0  0  0  0  0  0  0  0  0  0  0
    7.1978    3.3919   22.7907 C   0  0  0  0  0  0  0  0  0  0  0  0
    8.4705    2.5058   22.7969 C   0  0  1  0  0  0  0  0  0  0  0  0
    9.3562    2.7115   24.0289 C   0  0  0  0  0  0  0  0  0  0  0  0
    8.9482    1.9496   25.2870 C   0  0  1  0  0  0  0  0  0  0  0  0
    7.8486    2.6004   26.1033 C   0  0  0  0  0  0  0  0  0  0  0  0
    7.7451    1.9929   27.3053 F   0  0  0  0  0  0  0  0  0  0  0  0
    6.6288    2.5315   25.5262 F   0  0  0  0  0  0  0  0  0  0  0  0
    8.1164    3.9017   26.3313 F   0  0  0  0  0  0  0  0  0  0  0  0
    8.6530    0.4950   24.9378 C   0  0  0  0  0  0  0  0  0  0  0  0
    7.6945    0.3321   23.7523 C   0  0  0  0  0  0  0  0  0  0  0  0
    8.1675    1.0831   22.6022 N   0  0  0  0  0  0  0  0  0  0  0  0
    8.0471    0.6519   21.2977 C   0  0  0  0  0  0  0  0  0  0  0  0
    8.7576    1.1077   20.4187 O   0  0  0  0  0  0  0  0  0  0  0  0
    6.9784   -0.3978   20.9158 C   0  0  0  0  0  0  0  0  0  0  0  0
    6.1168    0.0933   19.7710 C   0  0  0  0  0  0  0  0  0  0  0  0
    6.4318   -0.2112   18.4667 C   0  0  0  0  0  0  0  0  0  0  0  0
    5.7652    0.2358   17.3700 N   0  0  0  0  0  0  0  0  0  0  0  0
    4.7380    1.0229   17.5776 C   0  0  0  0  0  0  0  0  0  0  0  0
    4.2822    1.4161   18.8661 C   0  0  0  0  0  0  0  0  0  0  0  0
    3.1702    2.2760   19.0479 C   0  0  0  0  0  0  0  0  0  0  0  0
    2.7706    2.6551   20.3003 C   0  0  0  0  0  0  0  0  0  0  0  0
    3.4682    2.1836   21.4353 C   0  0  0  0  0  0  0  0  0  0  0  0
    4.5484    1.3442   21.2846 C   0  0  0  0  0  0  0  0  0  0  0  0
    4.9903    0.9371   19.9991 C   0  0  0  0  0  0  0  0  0  0  0  0
    5.0670    0.9930   22.1735 H   0  0  0  0  0  0  0  0  0  0  0  0
    3.1486    2.4851   22.4278 H   0  0  0  0  0  0  0  0  0  0  0  0
    1.9283    3.3281   20.4276 H   0  0  0  0  0  0  0  0  0  0  0  0
    2.6617    2.6511   18.1636 H   0  0  0  0  0  0  0  0  0  0  0  0
    4.2075    1.3905   16.6968 H   0  0  0  0  0  0  0  0  0  0  0  0
    7.2813   -0.8533   18.2406 H   0  0  0  0  0  0  0  0  0  0  0  0
    7.5262   -1.2813   20.5701 H   0  0  0  0  0  0  0  0  0  0  0  0
    6.3615   -0.7030   21.7692 H   0  0  0  0  0  0  0  0  0  0  0  0
    6.6756    0.6315   24.0392 H   0  0  0  0  0  0  0  0  0  0  0  0
    7.6764   -0.7183   23.4591 H   0  0  0  0  0  0  0  0  0  0  0  0
    8.2493   -0.0272   25.8088 H   0  0  0  0  0  0  0  0  0  0  0  0
    9.6024    0.0160   24.6688 H   0  0  0  0  0  0  0  0  0  0  0  0
    9.7934    1.9821   25.9849 H   0  0  0  0  0  0  0  0  0  0  0  0
    9.4120    3.7804   24.2526 H   0  0  0  0  0  0  0  0  0  0  0  0
   10.3666    2.3806   23.7601 H   0  0  0  0  0  0  0  0  0  0  0  0
    9.0744    2.7736   21.9257 H   0  0  0  0  0  0  0  0  0  0  0  0
    6.3542    2.8236   23.2024 H   0  0  0  0  0  0  0  0  0  0  0  0
    7.3724    4.2381   23.4718 H   0  0  0  0  0  0  0  0  0  0  0  0
    7.5803    4.6501   21.0838 H   0  0  0  0  0  0  0  0  0  0  0  0
    6.7924    3.1108   20.6615 H   0  0  0  0  0  0  0  0  0  0  0  0
    5.8806    4.4507   21.3892 H   0  0  0  0  0  0  0  0  0  0  0  0
  1  2  1  0
  2  3  1  0
  3  4  1  0
  4  5  1  0
  5  6  1  0
  6  7  1  0
  6  8  1  0
  6  9  1  0
  5 10  1  0
 10 11  1  0
 11 12  1  0
 12 13  1  0
 13 14  2  0
 13 15  1  0
 15 16  1  0
 16 17  2  0
 17 18  1  0
 18 19  2  0
 19 20  1  0
 20 21  2  0
 21 22  1  0
 22 23  2  0
 23 24  1  0
 24 25  2  0
 24 26  1  0
 23 27  1  0
 22 28  1  0
 21 29  1  0
 19 30  1  0
 17 31  1  0
 15 32  1  0
 15 33  1  0
 11 34  1  0
 11 35  1  0
 10 36  1  0
 10 37  1  0
  5 38  1  1
  4 39  1  0
  4 40  1  0
  3 41  1  6
  2 42  1  0
  2 43  1  0
  1 44  1  0
  1 45  1  0
  1 46  1  0
 12  3  1  0
 25 16  1  0
 25 20  1  0
M  END
>  <cnnaffinities>  (28) 
[5.62395, 5.62397, 5.5865, 5.5865, 5.58646, 5.58888]

>  <score>  (28) 
5.62395

>  <index>  (28) 
27

>  <Smiles>  (28) 
C(C([C@]1(C([C@@](C(F)(F)F)(C(C(N1C(=O)C(c1c(nc(c2c(c(c(c(c12)[H])[H])[H])[H])[H])[H])([H])[H])([H])[H])([H])[H])[H])([H])[H])[H])([H])[H])([H])([H])[H]

>  <h>  (28) 
<NA>

>  <Training>  (28) 
True

>  <Success>  (28) 
True

>  <enamine_searched>  (28) 
False

>  <enamine_id>  (28) 
nan

$$$$

     RDKit          3D

 70 75  0  0  0  0  0  0  0  0999 V2000
    9.4301    4.7308   22.4005 C   0  0  0  0  0  0  0  0  0  0  0  0
    8.5380    3.6124   22.0190 N   0  0  0  0  0  4  0  0  0  0  0  0
    7.5511    3.2588   23.0704 C   0  0  0  0  0  0  0  0  0  0  0  0
    8.2004    2.5881   24.2884 C   0  0  0  0  0  0  0  0  0  0  0  0
    8.9837    1.4179   23.9300 N   0  0  0  0  0  0  0  0  0  0  0  0
    8.3048    0.1552   23.7296 C   0  0  0  0  0  0  0  0  0  0  0  0
    8.7061   -0.5100   22.3910 C   0  0  2  0  0  0  0  0  0  0  0  0
    8.1764    0.3047   21.1825 C   0  0  0  0  0  0  0  0  0  0  0  0
    8.6568    1.3421   20.7480 O   0  0  0  0  0  0  0  0  0  0  0  0
    7.0567   -0.3065   20.6876 N   0  0  0  0  0  0  0  0  0  0  0  0
    6.2533    0.2371   19.6441 C   0  0  0  0  0  0  0  0  0  0  0  0
    6.5617   -0.0463   18.3381 C   0  0  0  0  0  0  0  0  0  0  0  0
    5.8159    0.3335   17.2695 N   0  0  0  0  0  0  0  0  0  0  0  0
    4.7342    1.0339   17.5078 C   0  0  0  0  0  0  0  0  0  0  0  0
    4.3037    1.4179   18.8085 C   0  0  0  0  0  0  0  0  0  0  0  0
    3.1384    2.2051   19.0055 C   0  0  0  0  0  0  0  0  0  0  0  0
    2.7458    2.5643   20.2645 C   0  0  0  0  0  0  0  0  0  0  0  0
    3.4925    2.1397   21.3846 C   0  0  0  0  0  0  0  0  0  0  0  0
    4.6225    1.3718   21.2209 C   0  0  0  0  0  0  0  0  0  0  0  0
    5.0709    1.0005   19.9221 C   0  0  0  0  0  0  0  0  0  0  0  0
    5.1825    1.0574   22.0967 H   0  0  0  0  0  0  0  0  0  0  0  0
    3.1745    2.4291   22.3810 H   0  0  0  0  0  0  0  0  0  0  0  0
    1.8655    3.1850   20.4099 H   0  0  0  0  0  0  0  0  0  0  0  0
    2.5832    2.5323   18.1315 H   0  0  0  0  0  0  0  0  0  0  0  0
    4.1323    1.3343   16.6477 H   0  0  0  0  0  0  0  0  0  0  0  0
    7.4559   -0.6226   18.1105 H   0  0  0  0  0  0  0  0  0  0  0  0
    6.6653   -1.4775   21.4489 C   0  0  0  0  0  0  0  0  0  0  0  0
    7.9599   -1.8649   22.1891 C   0  0  2  0  0  0  0  0  0  0  0  0
    7.6832   -2.7211   23.4244 C   0  0  0  0  0  0  0  0  0  0  0  0
    8.8989   -3.0670   24.0668 O   0  0  0  0  0  0  0  0  0  0  0  0
    8.8055   -3.3886   25.4396 C   0  0  0  0  0  0  0  0  0  0  0  0
    9.5836   -4.6566   25.7472 C   0  0  0  0  0  0  0  0  0  0  0  0
    9.1602   -5.7028   24.9588 F   0  0  0  0  0  0  0  0  0  0  0  0
   11.0971   -4.4727   25.8154 C   0  0  0  0  0  0  0  0  0  0  0  0
   11.0366   -4.3303   27.2431 O   0  0  0  0  0  0  0  0  0  0  0  0
    9.7288   -4.9304   27.2482 C   0  0  0  0  0  0  0  0  0  0  0  0
   11.6104   -5.3890   25.5072 H   0  0  0  0  0  0  0  0  0  0  0  0
    9.7588   -6.0062   27.4545 H   0  0  0  0  0  0  0  0  0  0  0  0
   11.5375   -3.6019   25.3274 H   0  0  0  0  0  0  0  0  0  0  0  0
    9.0447   -4.4420   27.9484 H   0  0  0  0  0  0  0  0  0  0  0  0
    9.2612   -2.5807   26.0320 H   0  0  0  0  0  0  0  0  0  0  0  0
    7.7621   -3.4983   25.7815 H   0  0  0  0  0  0  0  0  0  0  0  0
    7.1550   -3.6401   23.1177 H   0  0  0  0  0  0  0  0  0  0  0  0
    7.0224   -2.1711   24.1147 H   0  0  0  0  0  0  0  0  0  0  0  0
    8.5609   -2.4642   21.5065 H   0  0  0  0  0  0  0  0  0  0  0  0
    5.8598   -1.2423   22.1655 H   0  0  0  0  0  0  0  0  0  0  0  0
    6.2897   -2.2512   20.7707 H   0  0  0  0  0  0  0  0  0  0  0  0
   10.2220   -0.5521   22.3625 C   0  0  0  0  0  0  0  0  0  0  0  0
   10.8821   -1.4363   21.5052 C   0  0  0  0  0  0  0  0  0  0  0  0
   12.2628   -1.4340   21.4323 C   0  0  0  0  0  0  0  0  0  0  0  0
   13.0603   -2.4718   20.2868 Cl  0  0  0  0  0  0  0  0  0  0  0  0
   13.0318   -0.5763   22.2169 C   0  0  0  0  0  0  0  0  0  0  0  0
   12.3884    0.3507   23.0133 C   0  0  0  0  0  0  0  0  0  0  0  0
   10.9954    0.3838   23.0745 C   0  0  0  0  0  0  0  0  0  0  0  0
   10.3448    1.4876   23.8598 C   0  0  0  0  0  0  0  0  0  0  0  0
   10.9969    2.4003   24.3589 O   0  0  0  0  0  0  0  0  0  0  0  0
   12.9478    1.0876   23.5821 H   0  0  0  0  0  0  0  0  0  0  0  0
   14.1132   -0.6387   22.1763 H   0  0  0  0  0  0  0  0  0  0  0  0
   10.3215   -2.1107   20.8698 H   0  0  0  0  0  0  0  0  0  0  0  0
    8.5697   -0.5332   24.5458 H   0  0  0  0  0  0  0  0  0  0  0  0
    7.2249    0.3280   23.7681 H   0  0  0  0  0  0  0  0  0  0  0  0
    7.4146    2.2721   24.9840 H   0  0  0  0  0  0  0  0  0  0  0  0
    8.8709    3.2703   24.8124 H   0  0  0  0  0  0  0  0  0  0  0  0
    7.0183    4.1595   23.3966 H   0  0  0  0  0  0  0  0  0  0  0  0
    6.8106    2.5868   22.6254 H   0  0  0  0  0  0  0  0  0  0  0  0
    9.0630    2.7599   21.7591 H   0  0  0  0  0  0  0  0  0  0  0  0
    8.0447    3.8670   21.1473 H   0  0  0  0  0  0  0  0  0  0  0  0
    9.9550    5.1186   21.5266 H   0  0  0  0  0  0  0  0  0  0  0  0
   10.1686    4.4025   23.1319 H   0  0  0  0  0  0  0  0  0  0  0  0
    8.8436    5.5480   22.8395 H   0  0  0  0  0  0  0  0  0  0  0  0
  1  2  1  0
  2  3  1  0
  3  4  1  0
  4  5  1  0
  5  6  1  0
  7  6  1  1
  7  8  1  0
  8  9  2  0
  8 10  1  0
 10 11  1  0
 11 12  2  0
 12 13  1  0
 13 14  2  0
 14 15  1  0
 15 16  2  0
 16 17  1  0
 17 18  2  0
 18 19  1  0
 19 20  2  0
 19 21  1  0
 18 22  1  0
 17 23  1  0
 16 24  1  0
 14 25  1  0
 12 26  1  0
 10 27  1  0
 27 28  1  0
 28 29  1  0
 29 30  1  0
 30 31  1  0
 31 32  1  0
 32 33  1  0
 32 34  1  0
 34 35  1  0
 35 36  1  0
 36 37  1  0
 36 38  1  0
 34 39  1  0
 34 40  1  0
 31 41  1  0
 31 42  1  0
 29 43  1  0
 29 44  1  0
 28 45  1  6
 27 46  1  0
 27 47  1  0
  7 48  1  0
 48 49  2  0
 49 50  1  0
 50 51  1  0
 50 52  2  0
 52 53  1  0
 53 54  2  0
 54 55  1  0
 55 56  2  0
 53 57  1  0
 52 58  1  0
 49 59  1  0
  6 60  1  0
  6 61  1  0
  4 62  1  0
  4 63  1  0
  3 64  1  0
  3 65  1  0
  2 66  1  0
  2 67  1  0
  1 68  1  0
  1 69  1  0
  1 70  1  0
 55  5  1  0
 28  7  1  0
 36 32  1  0
 54 48  1  0
 20 11  1  0
 20 15  1  0
M  CHG  1   2   1
M  END
>  <cnnaffinities>  (29) 
[6.399]

>  <score>  (29) 
6.399

>  <index>  (29) 
28

>  <Smiles>  (29) 
C([N+](C(C(N1C([C@@]2(C(=O)N(c3c(nc(c4c(c(c(c(c34)[H])[H])[H])[H])[H])[H])C([C@@]2(C(OC(C2(F)C(OC2([H])[H])([H])[H])([H])[H])([H])[H])[H])([H])[H])c2c(c(Cl)c(c(c2C1=O)[H])[H])[H])([H])[H])([H])[H])([H])[H])([H])[H])([H])([H])[H]

>  <h>  (29) 
<NA>

>  <Training>  (29) 
True

>  <Success>  (29) 
True

>  <enamine_searched>  (29) 
False

>  <enamine_id>  (29) 
nan

$$$$

     RDKit          3D

 67 72  0  0  0  0  0  0  0  0999 V2000
    6.6369    4.3742   21.3245 C   0  0  0  0  0  0  0  0  0  0  0  0
    7.0210    3.3640   22.3153 N   0  0  0  0  0  4  0  0  0  0  0  0
    8.0862    3.7990   23.2478 C   0  0  0  0  0  0  0  0  0  0  0  0
    8.3262    2.7636   24.3470 C   0  0  0  0  0  0  0  0  0  0  0  0
    8.9676    1.5479   23.8678 N   0  0  0  0  0  0  0  0  0  0  0  0
    8.2399    0.2937   23.7763 C   0  0  0  0  0  0  0  0  0  0  0  0
    8.6085   -0.5081   22.4958 C   0  0  2  0  0  0  0  0  0  0  0  0
    7.9777    0.2629   21.3111 C   0  0  0  0  0  0  0  0  0  0  0  0
    8.2376    1.4110   20.9635 O   0  0  0  0  0  0  0  0  0  0  0  0
    6.9410   -0.4626   20.7981 N   0  0  0  0  0  0  0  0  0  0  0  0
    6.1426    0.0732   19.7453 C   0  0  0  0  0  0  0  0  0  0  0  0
    6.4714   -0.2181   18.4457 C   0  0  0  0  0  0  0  0  0  0  0  0
    5.7856    0.2225   17.3636 N   0  0  0  0  0  0  0  0  0  0  0  0
    4.7536    0.9987   17.5945 C   0  0  0  0  0  0  0  0  0  0  0  0
    4.3207    1.4039   18.8899 C   0  0  0  0  0  0  0  0  0  0  0  0
    3.2063    2.2662   19.0754 C   0  0  0  0  0  0  0  0  0  0  0  0
    2.8291    2.6567   20.3309 C   0  0  0  0  0  0  0  0  0  0  0  0
    3.5363    2.1977   21.4609 C   0  0  0  0  0  0  0  0  0  0  0  0
    4.6146    1.3543   21.3086 C   0  0  0  0  0  0  0  0  0  0  0  0
    5.0365    0.9331   20.0147 C   0  0  0  0  0  0  0  0  0  0  0  0
    5.1347    0.9927   22.1917 H   0  0  0  0  0  0  0  0  0  0  0  0
    3.2257    2.5192   22.4512 H   0  0  0  0  0  0  0  0  0  0  0  0
    1.9845    3.3269   20.4594 H   0  0  0  0  0  0  0  0  0  0  0  0
    2.6773    2.6196   18.1953 H   0  0  0  0  0  0  0  0  0  0  0  0
    4.2008    1.3556   16.7263 H   0  0  0  0  0  0  0  0  0  0  0  0
    7.3399   -0.8429   18.2500 H   0  0  0  0  0  0  0  0  0  0  0  0
    6.5538   -1.5752   21.6443 C   0  0  0  0  0  0  0  0  0  0  0  0
    7.8433   -1.8718   22.4303 C   0  0  2  0  0  0  0  0  0  0  0  0
    7.5300   -2.5785   23.7624 C   0  0  0  0  0  0  0  0  0  0  0  0
    6.9303   -3.8834   23.5549 N   0  0  0  0  0  0  0  0  0  0  0  0
    5.6357   -4.2077   23.7370 C   0  0  0  0  0  0  0  0  0  0  0  0
    5.2623   -5.4042   23.2175 N   0  0  0  0  0  0  0  0  0  0  0  0
    3.9916   -5.7036   23.4194 C   0  0  0  0  0  0  0  0  0  0  0  0
    3.0946   -4.9796   24.0933 N   0  0  0  0  0  0  0  0  0  0  0  0
    3.5793   -3.8296   24.5541 C   0  0  0  0  0  0  0  0  0  0  0  0
    4.8185   -3.3720   24.4094 N   0  0  0  0  0  0  0  0  0  0  0  0
    2.8808   -3.1976   25.1014 H   0  0  0  0  0  0  0  0  0  0  0  0
    3.6360   -6.6486   23.0058 H   0  0  0  0  0  0  0  0  0  0  0  0
    7.4987   -4.6147   23.1601 H   0  0  0  0  0  0  0  0  0  0  0  0
    6.7956   -2.0043   24.3307 H   0  0  0  0  0  0  0  0  0  0  0  0
    8.4408   -2.6827   24.3679 H   0  0  0  0  0  0  0  0  0  0  0  0
    8.4456   -2.5547   21.8244 H   0  0  0  0  0  0  0  0  0  0  0  0
    5.7338   -1.2982   22.3299 H   0  0  0  0  0  0  0  0  0  0  0  0
    6.2068   -2.4196   21.0439 H   0  0  0  0  0  0  0  0  0  0  0  0
   10.1312   -0.5783   22.3869 C   0  0  0  0  0  0  0  0  0  0  0  0
   10.7922   -1.5178   21.5760 C   0  0  0  0  0  0  0  0  0  0  0  0
   12.1771   -1.4991   21.4845 C   0  0  0  0  0  0  0  0  0  0  0  0
   13.0316   -2.5504   20.3894 Cl  0  0  0  0  0  0  0  0  0  0  0  0
   12.9507   -0.6110   22.2249 C   0  0  0  0  0  0  0  0  0  0  0  0
   12.3157    0.3306   22.9959 C   0  0  0  0  0  0  0  0  0  0  0  0
   10.9217    0.3869   23.0293 C   0  0  0  0  0  0  0  0  0  0  0  0
   10.3182    1.5898   23.6828 C   0  0  0  0  0  0  0  0  0  0  0  0
   11.0088    2.5520   24.0019 O   0  0  0  0  0  0  0  0  0  0  0  0
   12.8770    1.0703   23.5558 H   0  0  0  0  0  0  0  0  0  0  0  0
   14.0316   -0.6598   22.1477 H   0  0  0  0  0  0  0  0  0  0  0  0
   10.2425   -2.2449   20.9916 H   0  0  0  0  0  0  0  0  0  0  0  0
    7.1643    0.5083   23.7589 H   0  0  0  0  0  0  0  0  0  0  0  0
    8.4598   -0.3214   24.6569 H   0  0  0  0  0  0  0  0  0  0  0  0
    7.3776    2.4855   24.8155 H   0  0  0  0  0  0  0  0  0  0  0  0
    8.9705    3.1887   25.1189 H   0  0  0  0  0  0  0  0  0  0  0  0
    9.0155    3.9580   22.6920 H   0  0  0  0  0  0  0  0  0  0  0  0
    7.8064    4.7544   23.7063 H   0  0  0  0  0  0  0  0  0  0  0  0
    6.1712    3.1125   22.8552 H   0  0  0  0  0  0  0  0  0  0  0  0
    7.3435    2.5198   21.8091 H   0  0  0  0  0  0  0  0  0  0  0  0
    6.4866    5.3491   21.7972 H   0  0  0  0  0  0  0  0  0  0  0  0
    5.7127    4.0666   20.8286 H   0  0  0  0  0  0  0  0  0  0  0  0
    7.4246    4.4785   20.5778 H   0  0  0  0  0  0  0  0  0  0  0  0
  1  2  1  0
  2  3  1  0
  3  4  1  0
  4  5  1  0
  5  6  1  0
  7  6  1  1
  7  8  1  0
  8  9  2  0
  8 10  1  0
 10 11  1  0
 11 12  2  0
 12 13  1  0
 13 14  2  0
 14 15  1  0
 15 16  2  0
 16 17  1  0
 17 18  2  0
 18 19  1  0
 19 20  2  0
 19 21  1  0
 18 22  1  0
 17 23  1  0
 16 24  1  0
 14 25  1  0
 12 26  1  0
 10 27  1  0
 27 28  1  0
 28 29  1  0
 29 30  1  0
 30 31  1  0
 31 32  2  0
 32 33  1  0
 33 34  2  0
 34 35  1  0
 35 36  2  0
 35 37  1  0
 33 38  1  0
 30 39  1  0
 29 40  1  0
 29 41  1  0
 28 42  1  6
 27 43  1  0
 27 44  1  0
  7 45  1  0
 45 46  2  0
 46 47  1  0
 47 48  1  0
 47 49  2  0
 49 50  1  0
 50 51  2  0
 51 52  1  0
 52 53  2  0
 50 54  1  0
 49 55  1  0
 46 56  1  0
  6 57  1  0
  6 58  1  0
  4 59  1  0
  4 60  1  0
  3 61  1  0
  3 62  1  0
  2 63  1  0
  2 64  1  0
  1 65  1  0
  1 66  1  0
  1 67  1  0
 52  5  1  0
 28  7  1  0
 36 31  1  0
 51 45  1  0
 20 11  1  0
 20 15  1  0
M  CHG  1   2   1
M  END
>  <cnnaffinities>  (30) 
[6.27072, 6.27149]

>  <score>  (30) 
6.27072

>  <index>  (30) 
29

>  <Smiles>  (30) 
C([N+](C(C(N1C([C@@]2(C(=O)N(c3c(nc(c4c(c(c(c(c34)[H])[H])[H])[H])[H])[H])C([C@@]2(C(N(c2nc(nc(n2)[H])[H])[H])([H])[H])[H])([H])[H])c2c(c(Cl)c(c(c2C1=O)[H])[H])[H])([H])[H])([H])[H])([H])[H])([H])[H])([H])([H])[H]

>  <h>  (30) 
<NA>

>  <Training>  (30) 
True

>  <Success>  (30) 
True

>  <enamine_searched>  (30) 
False

>  <enamine_id>  (30) 
nan

$$$$

     RDKit          3D

 66 71  0  0  0  0  0  0  0  0999 V2000
    6.0530    1.0504   28.9965 C   0  0  0  0  0  0  0  0  0  0  0  0
    6.3300    1.6143   27.6887 N   0  0  0  0  0  0  0  0  0  0  0  0
    5.9264    0.9538   26.5805 C   0  0  0  0  0  0  0  0  0  0  0  0
    5.2432   -0.0624   26.6230 O   0  0  0  0  0  0  0  0  0  0  0  0
    6.3481    1.5638   25.2424 C   0  0  0  0  0  0  0  0  0  0  0  0
    7.5249    0.9551   24.6691 N   0  0  0  0  0  0  0  0  0  0  0  0
    7.4219   -0.3552   24.0530 C   0  0  0  0  0  0  0  0  0  0  0  0
    8.2846   -0.4564   22.7655 C   0  0  2  0  0  0  0  0  0  0  0  0
    7.6467    0.4240   21.6642 C   0  0  0  0  0  0  0  0  0  0  0  0
    7.7347    1.6261   21.5349 O   0  0  0  0  0  0  0  0  0  0  0  0
    6.9284   -0.3981   20.8271 N   0  0  0  0  0  0  0  0  0  0  0  0
    6.1432    0.1055   19.7676 C   0  0  0  0  0  0  0  0  0  0  0  0
    6.4474   -0.2245   18.4700 C   0  0  0  0  0  0  0  0  0  0  0  0
    5.7735    0.2206   17.3816 N   0  0  0  0  0  0  0  0  0  0  0  0
    4.7489    1.0128   17.5961 C   0  0  0  0  0  0  0  0  0  0  0  0
    4.2979    1.4063   18.8889 C   0  0  0  0  0  0  0  0  0  0  0  0
    3.1676    2.2525   19.0606 C   0  0  0  0  0  0  0  0  0  0  0  0
    2.7403    2.5996   20.3123 C   0  0  0  0  0  0  0  0  0  0  0  0
    3.4141    2.1049   21.4514 C   0  0  0  0  0  0  0  0  0  0  0  0
    4.5078    1.2892   21.3102 C   0  0  0  0  0  0  0  0  0  0  0  0
    4.9988    0.9334   20.0187 C   0  0  0  0  0  0  0  0  0  0  0  0
    5.0193    0.9177   22.1935 H   0  0  0  0  0  0  0  0  0  0  0  0
    3.0712    2.3898   22.4412 H   0  0  0  0  0  0  0  0  0  0  0  0
    1.8924    3.2669   20.4341 H   0  0  0  0  0  0  0  0  0  0  0  0
    2.6695    2.6327   18.1726 H   0  0  0  0  0  0  0  0  0  0  0  0
    4.2210    1.3816   16.7174 H   0  0  0  0  0  0  0  0  0  0  0  0
    7.2939   -0.8780   18.2629 H   0  0  0  0  0  0  0  0  0  0  0  0
    6.9864   -1.7989   21.1924 C   0  0  0  0  0  0  0  0  0  0  0  0
    8.2095   -1.8763   22.1187 C   0  0  2  0  0  0  0  0  0  0  0  0
    8.1965   -3.1016   23.0581 C   0  0  0  0  0  0  0  0  0  0  0  0
    9.4432   -3.2192   23.9140 C   0  0  0  0  0  0  0  0  0  0  0  0
   10.6734   -3.3229   23.2682 C   0  0  0  0  0  0  0  0  0  0  0  0
   11.8582   -3.4298   23.9853 C   0  0  0  0  0  0  0  0  0  0  0  0
   11.8396   -3.4141   25.3786 C   0  0  0  0  0  0  0  0  0  0  0  0
   10.6219   -3.2812   26.0396 C   0  0  0  0  0  0  0  0  0  0  0  0
    9.4337   -3.1907   25.3123 C   0  0  0  0  0  0  0  0  0  0  0  0
    8.4905   -3.0616   25.8472 H   0  0  0  0  0  0  0  0  0  0  0  0
   10.5902   -3.2247   27.1276 H   0  0  0  0  0  0  0  0  0  0  0  0
   12.7699   -3.5007   25.9384 H   0  0  0  0  0  0  0  0  0  0  0  0
   12.7994   -3.5196   23.4445 H   0  0  0  0  0  0  0  0  0  0  0  0
   10.6876   -3.2685   22.1799 H   0  0  0  0  0  0  0  0  0  0  0  0
    7.3068   -3.0651   23.6961 H   0  0  0  0  0  0  0  0  0  0  0  0
    8.0938   -4.0035   22.4376 H   0  0  0  0  0  0  0  0  0  0  0  0
    9.0945   -1.9470   21.4822 H   0  0  0  0  0  0  0  0  0  0  0  0
    6.0721   -2.1122   21.7178 H   0  0  0  0  0  0  0  0  0  0  0  0
    7.0724   -2.4033   20.2896 H   0  0  0  0  0  0  0  0  0  0  0  0
    9.6750    0.0436   23.1130 C   0  0  0  0  0  0  0  0  0  0  0  0
   10.7721   -0.2733   22.3021 C   0  0  0  0  0  0  0  0  0  0  0  0
   12.0365    0.1538   22.6660 C   0  0  0  0  0  0  0  0  0  0  0  0
   13.4148   -0.3774   21.7423 Cl  0  0  0  0  0  0  0  0  0  0  0  0
   12.2416    0.9714   23.7776 C   0  0  0  0  0  0  0  0  0  0  0  0
   11.1531    1.3496   24.5348 C   0  0  0  0  0  0  0  0  0  0  0  0
    9.8815    0.9111   24.1954 C   0  0  0  0  0  0  0  0  0  0  0  0
    8.7424    1.4601   24.9971 C   0  0  0  0  0  0  0  0  0  0  0  0
    8.8882    2.3209   25.8649 O   0  0  0  0  0  0  0  0  0  0  0  0
   11.1908    2.0014   25.3992 H   0  0  0  0  0  0  0  0  0  0  0  0
   13.2419    1.3032   24.0125 H   0  0  0  0  0  0  0  0  0  0  0  0
   10.6655   -0.8700   21.4006 H   0  0  0  0  0  0  0  0  0  0  0  0
    6.3661   -0.5369   23.8245 H   0  0  0  0  0  0  0  0  0  0  0  0
    7.7689   -1.1071   24.7736 H   0  0  0  0  0  0  0  0  0  0  0  0
    6.5465    2.6351   25.3197 H   0  0  0  0  0  0  0  0  0  0  0  0
    5.5186    1.3916   24.5506 H   0  0  0  0  0  0  0  0  0  0  0  0
    6.9724    2.3864   27.5813 H   0  0  0  0  0  0  0  0  0  0  0  0
    6.4969    1.6988   29.7565 H   0  0  0  0  0  0  0  0  0  0  0  0
    4.9713    0.9680   29.1664 H   0  0  0  0  0  0  0  0  0  0  0  0
    6.4708    0.0383   29.0839 H   0  0  0  0  0  0  0  0  0  0  0  0
  1  2  1  0
  2  3  1  0
  3  4  2  0
  3  5  1  0
  5  6  1  0
  6  7  1  0
  8  7  1  1
  8  9  1  0
  9 10  2  0
  9 11  1  0
 11 12  1  0
 12 13  2  0
 13 14  1  0
 14 15  2  0
 15 16  1  0
 16 17  2  0
 17 18  1  0
 18 19  2  0
 19 20  1  0
 20 21  2  0
 20 22  1  0
 19 23  1  0
 18 24  1  0
 17 25  1  0
 15 26  1  0
 13 27  1  0
 11 28  1  0
 28 29  1  0
 29 30  1  0
 30 31  1  0
 31 32  2  0
 32 33  1  0
 33 34  2  0
 34 35  1  0
 35 36  2  0
 36 37  1  0
 35 38  1  0
 34 39  1  0
 33 40  1  0
 32 41  1  0
 30 42  1  0
 30 43  1  0
 29 44  1  6
 28 45  1  0
 28 46  1  0
  8 47  1  0
 47 48  2  0
 48 49  1  0
 49 50  1  0
 49 51  2  0
 51 52  1  0
 52 53  2  0
 53 54  1  0
 54 55  2  0
 52 56  1  0
 51 57  1  0
 48 58  1  0
  7 59  1  0
  7 60  1  0
  5 61  1  0
  5 62  1  0
  2 63  1  0
  1 64  1  0
  1 65  1  0
  1 66  1  0
 54  6  1  0
 29  8  1  0
 36 31  1  0
 53 47  1  0
 21 12  1  0
 21 16  1  0
M  END
>  <cnnaffinities>  (31) 
[6.72291, 6.76592, 6.82492]

>  <score>  (31) 
6.72291

>  <index>  (31) 
30

>  <Smiles>  (31) 
C(N(C(=O)C(N1C([C@@]2(C(=O)N(c3c(nc(c4c(c(c(c(c34)[H])[H])[H])[H])[H])[H])C([C@@]2(C(c2c(c(c(c(c2[H])[H])[H])[H])[H])([H])[H])[H])([H])[H])c2c(c(Cl)c(c(c2C1=O)[H])[H])[H])([H])[H])([H])[H])[H])([H])([H])[H]

>  <h>  (31) 
<NA>

>  <Training>  (31) 
True

>  <Success>  (31) 
True

>  <enamine_searched>  (31) 
False

>  <enamine_id>  (31) 
nan

$$$$

     RDKit          3D

 64 70  0  0  0  0  0  0  0  0999 V2000
   10.4430    2.6754   24.6371 O   0  0  0  0  0  0  0  0  0  0  0  0
    9.8751    1.7202   24.1271 C   0  0  0  0  0  0  0  0  0  0  0  0
   10.6182    0.6279   23.4335 C   0  0  0  0  0  0  0  0  0  0  0  0
   12.0085    0.6980   23.4804 C   0  0  0  0  0  0  0  0  0  0  0  0
   12.7680   -0.2073   22.7700 C   0  0  0  0  0  0  0  0  0  0  0  0
   12.1104   -1.1574   21.9867 C   0  0  0  0  0  0  0  0  0  0  0  0
   13.0655   -2.2239   20.9932 Cl  0  0  0  0  0  0  0  0  0  0  0  0
   10.7289   -1.2504   21.9487 C   0  0  0  0  0  0  0  0  0  0  0  0
    9.9491   -0.3734   22.7115 C   0  0  0  0  0  0  0  0  0  0  0  0
    8.4304   -0.4210   22.6476 C   0  0  1  0  0  0  0  0  0  0  0  0
    7.8894    0.2890   23.9098 C   0  0  0  0  0  0  0  0  0  0  0  0
    8.5139    1.5828   24.1085 N   0  0  0  0  0  0  0  0  0  0  0  0
    7.7156    2.7553   24.3804 C   0  0  0  0  0  0  0  0  0  0  0  0
    7.5121    3.6391   23.1825 C   0  0  0  0  0  0  0  0  0  0  0  0
    8.1516    4.7074   22.8516 N   0  0  0  0  0  0  0  0  0  0  0  0
    7.5112    5.2237   21.7314 N   0  0  0  0  0  0  0  0  0  0  0  0
    6.5453    4.4173   21.4724 C   0  0  0  0  0  0  0  0  0  0  0  0
    6.4811    3.3797   22.3456 O   0  0  0  0  0  0  0  0  0  0  0  0
    5.7818    4.5080   20.7089 H   0  0  0  0  0  0  0  0  0  0  0  0
    8.2423    3.3364   25.1408 H   0  0  0  0  0  0  0  0  0  0  0  0
    6.7485    2.4194   24.7649 H   0  0  0  0  0  0  0  0  0  0  0  0
    8.0766   -0.3587   24.7763 H   0  0  0  0  0  0  0  0  0  0  0  0
    6.8081    0.4447   23.8151 H   0  0  0  0  0  0  0  0  0  0  0  0
    7.9304    0.3187   21.3789 C   0  0  0  0  0  0  0  0  0  0  0  0
    8.3319    1.3650   20.9211 O   0  0  0  0  0  0  0  0  0  0  0  0
    6.9061   -0.4194   20.8301 N   0  0  0  0  0  0  0  0  0  0  0  0
    6.1248    0.0889   19.7620 C   0  0  0  0  0  0  0  0  0  0  0  0
    6.4584   -0.2210   18.4704 C   0  0  0  0  0  0  0  0  0  0  0  0
    5.7859    0.2250   17.3789 N   0  0  0  0  0  0  0  0  0  0  0  0
    4.7582    1.0109   17.5914 C   0  0  0  0  0  0  0  0  0  0  0  0
    4.3037    1.4094   18.8818 C   0  0  0  0  0  0  0  0  0  0  0  0
    3.1830    2.2624   19.0620 C   0  0  0  0  0  0  0  0  0  0  0  0
    2.7690    2.6149   20.3151 C   0  0  0  0  0  0  0  0  0  0  0  0
    3.4471    2.1254   21.4540 C   0  0  0  0  0  0  0  0  0  0  0  0
    4.5358    1.2987   21.3094 C   0  0  0  0  0  0  0  0  0  0  0  0
    4.9950    0.9258   20.0144 C   0  0  0  0  0  0  0  0  0  0  0  0
    5.0657    0.9579   22.1951 H   0  0  0  0  0  0  0  0  0  0  0  0
    3.1154    2.4224   22.4452 H   0  0  0  0  0  0  0  0  0  0  0  0
    1.9226    3.2854   20.4433 H   0  0  0  0  0  0  0  0  0  0  0  0
    2.6761    2.6382   18.1771 H   0  0  0  0  0  0  0  0  0  0  0  0
    4.2139    1.3720   16.7174 H   0  0  0  0  0  0  0  0  0  0  0  0
    7.3220   -0.8563   18.2781 H   0  0  0  0  0  0  0  0  0  0  0  0
    6.5585   -1.6073   21.5732 C   0  0  0  0  0  0  0  0  0  0  0  0
    7.7857   -1.8353   22.4726 C   0  0  2  0  0  0  0  0  0  0  0  0
    7.4339   -2.6283   23.7524 C   0  0  0  0  0  0  0  0  0  0  0  0
    7.0409   -4.0034   23.5130 N   0  0  0  0  0  0  0  0  0  0  0  0
    5.8118   -4.4603   23.1614 C   0  0  0  0  0  0  0  0  0  0  0  0
    4.6103   -3.8054   23.4770 C   0  0  0  0  0  0  0  0  0  0  0  0
    3.4565   -4.4430   23.0662 C   0  0  0  0  0  0  0  0  0  0  0  0
    3.4349   -5.5836   22.3691 N   0  0  0  0  0  0  0  0  0  0  0  0
    4.6311   -6.1086   22.1355 C   0  0  0  0  0  0  0  0  0  0  0  0
    5.8084   -5.6369   22.5125 N   0  0  0  0  0  0  0  0  0  0  0  0
    4.6795   -7.0361   21.5666 H   0  0  0  0  0  0  0  0  0  0  0  0
    2.4810   -4.0266   23.2994 H   0  0  0  0  0  0  0  0  0  0  0  0
    4.5961   -2.8570   24.0099 H   0  0  0  0  0  0  0  0  0  0  0  0
    7.7722   -4.6661   23.3048 H   0  0  0  0  0  0  0  0  0  0  0  0
    6.6177   -2.1220   24.2742 H   0  0  0  0  0  0  0  0  0  0  0  0
    8.2870   -2.6443   24.4428 H   0  0  0  0  0  0  0  0  0  0  0  0
    8.5023   -2.4339   21.9083 H   0  0  0  0  0  0  0  0  0  0  0  0
    6.3628   -2.4355   20.8859 H   0  0  0  0  0  0  0  0  0  0  0  0
    5.6470   -1.4460   22.1720 H   0  0  0  0  0  0  0  0  0  0  0  0
   10.2688   -1.9957   21.3074 H   0  0  0  0  0  0  0  0  0  0  0  0
   13.8518   -0.1798   22.7867 H   0  0  0  0  0  0  0  0  0  0  0  0
   12.4560    1.4966   24.0649 H   0  0  0  0  0  0  0  0  0  0  0  0
  1  2  2  0
  2  3  1  0
  3  4  2  0
  4  5  1  0
  5  6  2  0
  6  7  1  0
  6  8  1  0
  8  9  2  0
  9 10  1  0
 10 11  1  1
 11 12  1  0
 12 13  1  0
 13 14  1  0
 14 15  2  0
 15 16  1  0
 16 17  2  0
 17 18  1  0
 17 19  1  0
 13 20  1  0
 13 21  1  0
 11 22  1  0
 11 23  1  0
 10 24  1  0
 24 25  2  0
 24 26  1  0
 26 27  1  0
 27 28  2  0
 28 29  1  0
 29 30  2  0
 30 31  1  0
 31 32  2  0
 32 33  1  0
 33 34  2  0
 34 35  1  0
 35 36  2  0
 35 37  1  0
 34 38  1  0
 33 39  1  0
 32 40  1  0
 30 41  1  0
 28 42  1  0
 26 43  1  0
 43 44  1  0
 44 45  1  0
 45 46  1  0
 46 47  1  0
 47 48  2  0
 48 49  1  0
 49 50  2  0
 50 51  1  0
 51 52  2  0
 51 53  1  0
 49 54  1  0
 48 55  1  0
 46 56  1  0
 45 57  1  0
 45 58  1  0
 44 59  1  6
 43 60  1  0
 43 61  1  0
  8 62  1  0
  5 63  1  0
  4 64  1  0
 12  2  1  0
 18 14  1  0
 36 27  1  0
 52 47  1  0
  9  3  1  0
 44 10  1  0
 36 31  1  0
M  END
>  <cnnaffinities>  (32) 
[7.06726]

>  <score>  (32) 
7.06726

>  <index>  (32) 
31

>  <Smiles>  (32) 
O=C1c2c(c(c(Cl)c(c2[C@@]2(C(N1C(c1nnc(o1)[H])([H])[H])([H])[H])C(=O)N(c1c(nc(c3c(c(c(c(c13)[H])[H])[H])[H])[H])[H])C([C@@]2(C(N(c1c(c(nc(n1)[H])[H])[H])[H])([H])[H])[H])([H])[H])[H])[H])[H]

>  <h>  (32) 
<NA>

>  <Training>  (32) 
True

>  <Success>  (32) 
True

>  <enamine_searched>  (32) 
False

>  <enamine_id>  (32) 
nan

$$$$

     RDKit          3D

 72 77  0  0  0  0  0  0  0  0999 V2000
    7.6855   -2.7697   23.5100 C   0  0  0  0  0  0  0  0  0  0  0  0
    7.9007   -1.9872   22.2210 C   0  0  1  0  0  0  0  0  0  0  0  0
    6.5689   -1.5545   21.5915 C   0  0  0  0  0  0  0  0  0  0  0  0
    6.9520   -0.4205   20.7816 N   0  0  0  0  0  0  0  0  0  0  0  0
    6.1633    0.0899   19.7260 C   0  0  0  0  0  0  0  0  0  0  0  0
    6.5119   -0.1836   18.4278 C   0  0  0  0  0  0  0  0  0  0  0  0
    5.8154    0.2458   17.3489 N   0  0  0  0  0  0  0  0  0  0  0  0
    4.7612    0.9928   17.5778 C   0  0  0  0  0  0  0  0  0  0  0  0
    4.2997    1.3600   18.8747 C   0  0  0  0  0  0  0  0  0  0  0  0
    3.1924    2.2276   19.0648 C   0  0  0  0  0  0  0  0  0  0  0  0
    2.8034    2.6005   20.3237 C   0  0  0  0  0  0  0  0  0  0  0  0
    3.4816    2.1039   21.4571 C   0  0  0  0  0  0  0  0  0  0  0  0
    4.5420    1.2368   21.2996 C   0  0  0  0  0  0  0  0  0  0  0  0
    5.0014    0.8704   20.0002 C   0  0  0  0  0  0  0  0  0  0  0  0
    5.0723    0.8826   22.1797 H   0  0  0  0  0  0  0  0  0  0  0  0
    3.1764    2.4232   22.4504 H   0  0  0  0  0  0  0  0  0  0  0  0
    1.9786    3.2962   20.4555 H   0  0  0  0  0  0  0  0  0  0  0  0
    2.6907    2.6158   18.1837 H   0  0  0  0  0  0  0  0  0  0  0  0
    4.2083    1.3580   16.7112 H   0  0  0  0  0  0  0  0  0  0  0  0
    7.3946   -0.7864   18.2233 H   0  0  0  0  0  0  0  0  0  0  0  0
    8.1351    0.1606   21.1612 C   0  0  0  0  0  0  0  0  0  0  0  0
    8.5989    1.1883   20.6928 O   0  0  0  0  0  0  0  0  0  0  0  0
    8.7277   -0.6648   22.3308 C   0  0  1  0  0  0  0  0  0  0  0  0
    8.4317    0.0707   23.6600 C   0  0  0  0  0  0  0  0  0  0  0  0
    9.1644    1.3173   23.7729 N   0  0  0  0  0  0  0  0  0  0  0  0
    8.5501    2.4229   24.4870 C   0  0  0  0  0  0  0  0  0  0  0  0
    7.4318    3.0657   23.6643 C   0  0  0  0  0  0  0  0  0  0  0  0
    7.9916    3.6551   22.3932 N   0  0  1  0  0  4  0  0  0  0  0  0
    7.0410    3.7326   21.2270 C   0  0  0  0  0  0  0  0  0  0  0  0
    6.1735    4.9760   21.2073 C   0  0  0  0  0  0  0  0  0  0  0  0
    6.9606    6.1438   21.2695 O   0  0  0  0  0  0  0  0  0  0  0  0
    7.7145    6.2352   22.4825 C   0  0  0  0  0  0  0  0  0  0  0  0
    8.5531    7.5022   22.3381 C   0  0  0  0  0  0  0  0  0  0  0  0
    9.3534    7.3594   21.6057 H   0  0  0  0  0  0  0  0  0  0  0  0
    8.9941    7.8052   23.2947 H   0  0  0  0  0  0  0  0  0  0  0  0
    7.9155    8.3169   21.9836 H   0  0  0  0  0  0  0  0  0  0  0  0
    6.7769    6.3850   23.6851 C   0  0  0  0  0  0  0  0  0  0  0  0
    6.1207    5.5243   23.8207 H   0  0  0  0  0  0  0  0  0  0  0  0
    6.1362    7.2633   23.5573 H   0  0  0  0  0  0  0  0  0  0  0  0
    7.3601    6.5114   24.6031 H   0  0  0  0  0  0  0  0  0  0  0  0
    8.6541    5.0094   22.6028 C   0  0  0  0  0  0  0  0  0  0  0  0
    9.1201    5.0303   23.5916 H   0  0  0  0  0  0  0  0  0  0  0  0
    9.4528    5.1051   21.8590 H   0  0  0  0  0  0  0  0  0  0  0  0
    5.6148    5.0257   20.2648 H   0  0  0  0  0  0  0  0  0  0  0  0
    5.4342    4.9493   22.0207 H   0  0  0  0  0  0  0  0  0  0  0  0
    7.6534    3.7076   20.3231 H   0  0  0  0  0  0  0  0  0  0  0  0
    6.4259    2.8376   21.2183 H   0  0  0  0  0  0  0  0  0  0  0  0
    8.7010    2.9770   22.0709 H   0  0  0  0  0  0  0  0  0  0  0  0
    6.6665    2.3299   23.3882 H   0  0  0  0  0  0  0  0  0  0  0  0
    6.9373    3.8307   24.2597 H   0  0  0  0  0  0  0  0  0  0  0  0
    8.1783    2.0801   25.4599 H   0  0  0  0  0  0  0  0  0  0  0  0
    9.3566    3.1341   24.6713 H   0  0  0  0  0  0  0  0  0  0  0  0
   10.5187    1.3357   23.5813 C   0  0  0  0  0  0  0  0  0  0  0  0
   11.2271    2.2680   23.9369 O   0  0  0  0  0  0  0  0  0  0  0  0
   11.0765    0.1570   22.8339 C   0  0  0  0  0  0  0  0  0  0  0  0
   12.4631    0.0798   22.6976 C   0  0  0  0  0  0  0  0  0  0  0  0
   13.0310   -0.8199   21.8216 C   0  0  0  0  0  0  0  0  0  0  0  0
   12.1904   -1.6847   21.1255 C   0  0  0  0  0  0  0  0  0  0  0  0
   12.9190   -2.7105   19.9327 Cl  0  0  0  0  0  0  0  0  0  0  0  0
   10.8245   -1.7122   21.3441 C   0  0  0  0  0  0  0  0  0  0  0  0
   10.2358   -0.7789   22.2059 C   0  0  0  0  0  0  0  0  0  0  0  0
   10.2263   -2.4555   20.8286 H   0  0  0  0  0  0  0  0  0  0  0  0
   14.1028   -0.8543   21.6485 H   0  0  0  0  0  0  0  0  0  0  0  0
   13.0819    0.7608   23.2693 H   0  0  0  0  0  0  0  0  0  0  0  0
    8.7071   -0.5865   24.4933 H   0  0  0  0  0  0  0  0  0  0  0  0
    7.3590    0.2626   23.7363 H   0  0  0  0  0  0  0  0  0  0  0  0
    5.8484   -1.2720   22.3760 H   0  0  0  0  0  0  0  0  0  0  0  0
    6.1064   -2.3369   20.9803 H   0  0  0  0  0  0  0  0  0  0  0  0
    8.3921   -2.6342   21.4886 H   0  0  0  0  0  0  0  0  0  0  0  0
    7.1062   -3.6790   23.3190 H   0  0  0  0  0  0  0  0  0  0  0  0
    7.1107   -2.1690   24.2237 H   0  0  0  0  0  0  0  0  0  0  0  0
    8.6308   -3.0535   23.9831 H   0  0  0  0  0  0  0  0  0  0  0  0
  1  2  1  0
  2  3  1  0
  3  4  1  0
  4  5  1  0
  5  6  2  0
  6  7  1  0
  7  8  2  0
  8  9  1  0
  9 10  2  0
 10 11  1  0
 11 12  2  0
 12 13  1  0
 13 14  2  0
 13 15  1  0
 12 16  1  0
 11 17  1  0
 10 18  1  0
  8 19  1  0
  6 20  1  0
  4 21  1  0
 21 22  2  0
 21 23  1  0
 23 24  1  1
 24 25  1  0
 25 26  1  0
 26 27  1  0
 27 28  1  0
 28 29  1  0
 29 30  1  0
 30 31  1  0
 31 32  1  0
 32 33  1  0
 33 34  1  0
 33 35  1  0
 33 36  1  0
 32 37  1  0
 37 38  1  0
 37 39  1  0
 37 40  1  0
 32 41  1  0
 41 42  1  0
 41 43  1  0
 30 44  1  0
 30 45  1  0
 29 46  1  0
 29 47  1  0
 28 48  1  6
 27 49  1  0
 27 50  1  0
 26 51  1  0
 26 52  1  0
 25 53  1  0
 53 54  2  0
 53 55  1  0
 55 56  2  0
 56 57  1  0
 57 58  2  0
 58 59  1  0
 58 60  1  0
 60 61  2  0
 60 62  1  0
 57 63  1  0
 56 64  1  0
 24 65  1  0
 24 66  1  0
  3 67  1  0
  3 68  1  0
  2 69  1  6
  1 70  1  0
  1 71  1  0
  1 72  1  0
 23  2  1  0
 41 28  1  0
 61 55  1  0
 14  5  1  0
 61 23  1  0
 14  9  1  0
M  CHG  1  28   1
M  END
>  <cnnaffinities>  (33) 
[6.797]

>  <score>  (33) 
6.797

>  <index>  (33) 
32

>  <Smiles>  (33) 
C([C@]1(C(N(c2c(nc(c3c(c(c(c(c23)[H])[H])[H])[H])[H])[H])C(=O)[C@]21C(N(C(C([N@+]1(C(C(OC(C([H])([H])[H])(C([H])([H])[H])C1([H])[H])([H])[H])([H])[H])[H])([H])[H])([H])[H])C(=O)c1c(c(c(Cl)c(c21)[H])[H])[H])([H])[H])([H])[H])[H])([H])([H])[H]

>  <h>  (33) 
<NA>

>  <Training>  (33) 
True

>  <Success>  (33) 
True

>  <enamine_searched>  (33) 
False

>  <enamine_id>  (33) 
nan

$$$$

     RDKit          3D

 44 47  0  0  0  0  0  0  0  0999 V2000
    8.5170    1.3893   20.7358 O   0  0  0  0  0  0  0  0  0  0  0  0
    7.8662    0.6918   21.5025 C   0  0  0  0  0  0  0  0  0  0  0  0
    6.9515   -0.4139   20.9248 C   0  0  0  0  0  0  0  0  0  0  0  0
    6.1120    0.0889   19.7687 C   0  0  0  0  0  0  0  0  0  0  0  0
    6.4279   -0.2068   18.4674 C   0  0  0  0  0  0  0  0  0  0  0  0
    5.7613    0.2406   17.3644 N   0  0  0  0  0  0  0  0  0  0  0  0
    4.7350    1.0266   17.5774 C   0  0  0  0  0  0  0  0  0  0  0  0
    4.2845    1.4195   18.8669 C   0  0  0  0  0  0  0  0  0  0  0  0
    3.1677    2.2744   19.0489 C   0  0  0  0  0  0  0  0  0  0  0  0
    2.7626    2.6485   20.2993 C   0  0  0  0  0  0  0  0  0  0  0  0
    3.4655    2.1679   21.4310 C   0  0  0  0  0  0  0  0  0  0  0  0
    4.5443    1.3338   21.2899 C   0  0  0  0  0  0  0  0  0  0  0  0
    4.9897    0.9380   20.0015 C   0  0  0  0  0  0  0  0  0  0  0  0
    5.0711    0.9833   22.1776 H   0  0  0  0  0  0  0  0  0  0  0  0
    3.1344    2.4718   22.4192 H   0  0  0  0  0  0  0  0  0  0  0  0
    1.9144    3.3158   20.4311 H   0  0  0  0  0  0  0  0  0  0  0  0
    2.6541    2.6527   18.1660 H   0  0  0  0  0  0  0  0  0  0  0  0
    4.2004    1.3975   16.6983 H   0  0  0  0  0  0  0  0  0  0  0  0
    7.2748   -0.8550   18.2446 H   0  0  0  0  0  0  0  0  0  0  0  0
    7.6146   -1.1971   20.5374 H   0  0  0  0  0  0  0  0  0  0  0  0
    6.3223   -0.8899   21.6864 H   0  0  0  0  0  0  0  0  0  0  0  0
    7.9419    0.8589   22.8615 N   0  0  0  0  0  0  0  0  0  0  0  0
    7.4849   -0.0759   23.8814 C   0  0  0  0  0  0  0  0  0  0  0  0
    7.8299    0.5800   25.2246 C   0  0  0  0  0  0  0  0  0  0  0  0
    8.7635    1.7537   24.9051 C   0  0  0  0  0  0  0  0  0  0  0  0
    8.5929    2.0503   23.4074 C   0  0  2  0  0  0  0  0  0  0  0  0
    7.7990    3.3157   23.1418 C   0  0  0  0  0  0  0  0  0  0  0  0
    8.3960    4.4132   22.5247 C   0  0  0  0  0  0  0  0  0  0  0  0
    7.6646    5.5689   22.2702 C   0  0  0  0  0  0  0  0  0  0  0  0
    6.3281    5.6585   22.6334 C   0  0  0  0  0  0  0  0  0  0  0  0
    5.7667    4.5613   23.2649 C   0  0  0  0  0  0  0  0  0  0  0  0
    4.4686    4.6176   23.6157 F   0  0  0  0  0  0  0  0  0  0  0  0
    6.4669    3.3987   23.5347 C   0  0  0  0  0  0  0  0  0  0  0  0
    5.9553    2.5759   24.0302 H   0  0  0  0  0  0  0  0  0  0  0  0
    5.7338    6.5451   22.4340 H   0  0  0  0  0  0  0  0  0  0  0  0
    8.1389    6.4022   21.7677 H   0  0  0  0  0  0  0  0  0  0  0  0
    9.4402    4.3574   22.2276 H   0  0  0  0  0  0  0  0  0  0  0  0
    9.5678    2.1695   22.9357 H   0  0  0  0  0  0  0  0  0  0  0  0
    8.5348    2.6290   25.5171 H   0  0  0  0  0  0  0  0  0  0  0  0
    9.8014    1.5011   25.1369 H   0  0  0  0  0  0  0  0  0  0  0  0
    8.3007   -0.1282   25.9067 H   0  0  0  0  0  0  0  0  0  0  0  0
    6.9277    0.9271   25.7328 H   0  0  0  0  0  0  0  0  0  0  0  0
    7.9972   -1.0337   23.7589 H   0  0  0  0  0  0  0  0  0  0  0  0
    6.4092   -0.2699   23.8094 H   0  0  0  0  0  0  0  0  0  0  0  0
  1  2  2  0
  2  3  1  0
  3  4  1  0
  4  5  2  0
  5  6  1  0
  6  7  2  0
  7  8  1  0
  8  9  2  0
  9 10  1  0
 10 11  2  0
 11 12  1  0
 12 13  2  0
 12 14  1  0
 11 15  1  0
 10 16  1  0
  9 17  1  0
  7 18  1  0
  5 19  1  0
  3 20  1  0
  3 21  1  0
  2 22  1  0
 22 23  1  0
 23 24  1  0
 24 25  1  0
 25 26  1  0
 26 27  1  0
 27 28  2  0
 28 29  1  0
 29 30  2  0
 30 31  1  0
 31 32  1  0
 31 33  2  0
 33 34  1  0
 30 35  1  0
 29 36  1  0
 28 37  1  0
 26 38  1  6
 25 39  1  0
 25 40  1  0
 24 41  1  0
 24 42  1  0
 23 43  1  0
 23 44  1  0
 13  4  1  0
 26 22  1  0
 33 27  1  0
 13  8  1  0
M  END
>  <cnnaffinities>  (34) 
[5.20795, 5.71287]

>  <score>  (34) 
5.20795

>  <index>  (34) 
33

>  <Smiles>  (34) 
O=C(C(c1c(nc(c2c(c(c(c(c12)[H])[H])[H])[H])[H])[H])([H])[H])N1C(C(C([C@@]1(c1c(c(c(c(F)c1[H])[H])[H])[H])[H])([H])[H])([H])[H])([H])[H]

>  <h>  (34) 
<NA>

>  <Training>  (34) 
True

>  <Success>  (34) 
True

>  <enamine_searched>  (34) 
False

>  <enamine_id>  (34) 
nan

$$$$

     RDKit          3D

 58 63  0  0  0  0  0  0  0  0999 V2000
    6.6996   -2.3077   23.6201 C   0  0  0  0  0  0  0  0  0  0  0  0
    7.7076   -1.8391   22.5536 C   0  0  1  0  0  0  0  0  0  0  0  0
    7.0349   -1.7951   21.1607 C   0  0  0  0  0  0  0  0  0  0  0  0
    6.8783   -0.3892   20.8714 N   0  0  0  0  0  0  0  0  0  0  0  0
    6.1293    0.1068   19.7754 C   0  0  0  0  0  0  0  0  0  0  0  0
    6.4450   -0.2279   18.4828 C   0  0  0  0  0  0  0  0  0  0  0  0
    5.7740    0.2190   17.3909 N   0  0  0  0  0  0  0  0  0  0  0  0
    4.7515    1.0158   17.5962 C   0  0  0  0  0  0  0  0  0  0  0  0
    4.2950    1.4198   18.8816 C   0  0  0  0  0  0  0  0  0  0  0  0
    3.1616    2.2594   19.0620 C   0  0  0  0  0  0  0  0  0  0  0  0
    2.7345    2.6026   20.3151 C   0  0  0  0  0  0  0  0  0  0  0  0
    3.4169    2.1150   21.4531 C   0  0  0  0  0  0  0  0  0  0  0  0
    4.5150    1.3076   21.3044 C   0  0  0  0  0  0  0  0  0  0  0  0
    4.9985    0.9503   20.0150 C   0  0  0  0  0  0  0  0  0  0  0  0
    5.0214    0.9237   22.1838 H   0  0  0  0  0  0  0  0  0  0  0  0
    3.0806    2.3939   22.4487 H   0  0  0  0  0  0  0  0  0  0  0  0
    1.8763    3.2564   20.4412 H   0  0  0  0  0  0  0  0  0  0  0  0
    2.6560    2.6353   18.1773 H   0  0  0  0  0  0  0  0  0  0  0  0
    4.2257    1.3798   16.7134 H   0  0  0  0  0  0  0  0  0  0  0  0
    7.2912   -0.8778   18.2629 H   0  0  0  0  0  0  0  0  0  0  0  0
    7.6845    0.4310   21.6287 C   0  0  0  0  0  0  0  0  0  0  0  0
    7.8673    1.6031   21.3980 O   0  0  0  0  0  0  0  0  0  0  0  0
    8.3386   -0.4178   22.7565 C   0  0  1  0  0  0  0  0  0  0  0  0
    8.0385    0.1647   24.1605 C   0  0  0  0  0  0  0  0  0  0  0  0
    8.7089    1.4272   24.4007 N   0  0  0  0  0  0  0  0  0  0  0  0
    7.9599    2.5635   24.9400 C   0  0  0  0  0  0  0  0  0  0  0  0
    7.5787    3.5947   23.9064 C   0  0  0  0  0  0  0  0  0  0  0  0
    8.3683    4.6239   23.3793 C   0  0  0  0  0  0  0  0  0  0  0  0
    7.6916    5.2374   22.4151 N   0  0  0  0  0  0  0  0  0  0  0  0
    6.5383    4.6037   22.3898 N   0  0  0  0  0  0  0  0  0  0  0  0
    5.5346    4.8799   21.3764 C   0  0  0  0  0  0  0  0  0  0  0  0
    4.5612    4.8481   21.8699 H   0  0  0  0  0  0  0  0  0  0  0  0
    5.7449    5.8785   20.9796 H   0  0  0  0  0  0  0  0  0  0  0  0
    5.5615    4.1185   20.5831 H   0  0  0  0  0  0  0  0  0  0  0  0
    6.3981    3.6257   23.2773 N   0  0  0  0  0  0  0  0  0  0  0  0
    9.3702    4.9276   23.6546 H   0  0  0  0  0  0  0  0  0  0  0  0
    8.5891    3.0310   25.7025 H   0  0  0  0  0  0  0  0  0  0  0  0
    7.0526    2.1781   25.4171 H   0  0  0  0  0  0  0  0  0  0  0  0
   10.0400    1.5922   24.1346 C   0  0  0  0  0  0  0  0  0  0  0  0
   10.6857    2.5291   24.5904 O   0  0  0  0  0  0  0  0  0  0  0  0
   10.6442    0.5697   23.2132 C   0  0  0  0  0  0  0  0  0  0  0  0
   12.0171    0.6364   22.9722 C   0  0  0  0  0  0  0  0  0  0  0  0
   12.6177   -0.2276   22.0786 C   0  0  0  0  0  0  0  0  0  0  0  0
   11.8173   -1.1461   21.4117 C   0  0  0  0  0  0  0  0  0  0  0  0
   12.3940   -1.9387   20.4926 F   0  0  0  0  0  0  0  0  0  0  0  0
   10.4541   -1.2219   21.6112 C   0  0  0  0  0  0  0  0  0  0  0  0
    9.8515   -0.3833   22.5582 C   0  0  0  0  0  0  0  0  0  0  0  0
    9.8831   -1.8950   20.9794 H   0  0  0  0  0  0  0  0  0  0  0  0
   13.6733   -0.1819   21.8409 H   0  0  0  0  0  0  0  0  0  0  0  0
   12.5859    1.3956   23.4971 H   0  0  0  0  0  0  0  0  0  0  0  0
    8.3386   -0.5813   24.9148 H   0  0  0  0  0  0  0  0  0  0  0  0
    6.9680    0.3567   24.2476 H   0  0  0  0  0  0  0  0  0  0  0  0
    6.0549   -2.2881   21.1540 H   0  0  0  0  0  0  0  0  0  0  0  0
    7.6656   -2.2727   20.4073 H   0  0  0  0  0  0  0  0  0  0  0  0
    8.5190   -2.5758   22.5534 H   0  0  0  0  0  0  0  0  0  0  0  0
    5.8366   -1.6347   23.6918 H   0  0  0  0  0  0  0  0  0  0  0  0
    6.3211   -3.3047   23.3623 H   0  0  0  0  0  0  0  0  0  0  0  0
    7.1573   -2.3827   24.6113 H   0  0  0  0  0  0  0  0  0  0  0  0
  1  2  1  0
  2  3  1  0
  3  4  1  0
  4  5  1  0
  5  6  2  0
  6  7  1  0
  7  8  2  0
  8  9  1  0
  9 10  2  0
 10 11  1  0
 11 12  2  0
 12 13  1  0
 13 14  2  0
 13 15  1  0
 12 16  1  0
 11 17  1  0
 10 18  1  0
  8 19  1  0
  6 20  1  0
  4 21  1  0
 21 22  2  0
 21 23  1  0
 23 24  1  1
 24 25  1  0
 25 26  1  0
 26 27  1  0
 27 28  1  0
 28 29  2  0
 29 30  1  0
 30 31  1  0
 31 32  1  0
 31 33  1  0
 31 34  1  0
 30 35  1  0
 28 36  1  0
 26 37  1  0
 26 38  1  0
 25 39  1  0
 39 40  2  0
 39 41  1  0
 41 42  2  0
 42 43  1  0
 43 44  2  0
 44 45  1  0
 44 46  1  0
 46 47  2  0
 46 48  1  0
 43 49  1  0
 42 50  1  0
 24 51  1  0
 24 52  1  0
  3 53  1  0
  3 54  1  0
  2 55  1  6
  1 56  1  0
  1 57  1  0
  1 58  1  0
 23  2  1  0
 35 27  2  0
 47 41  1  0
 14  5  1  0
 47 23  1  0
 14  9  1  0
M  END
>  <cnnaffinities>  (35) 
[6.5726, 6.40158, 6.31444, 6.27929, 6.38544, 6.41215]

>  <score>  (35) 
6.5726

>  <index>  (35) 
34

>  <Smiles>  (35) 
C([C@]1(C(N(c2c(nc(c3c(c(c(c(c23)[H])[H])[H])[H])[H])[H])C(=O)[C@]21C(N(C(c1c(nn(C([H])([H])[H])n1)[H])([H])[H])C(=O)c1c(c(c(F)c(c21)[H])[H])[H])([H])[H])([H])[H])[H])([H])([H])[H]

>  <h>  (35) 
<NA>

>  <Training>  (35) 
True

>  <Success>  (35) 
True

>  <enamine_searched>  (35) 
False

>  <enamine_id>  (35) 
nan

$$$$

     RDKit          3D

 51 54  0  0  0  0  0  0  0  0999 V2000
   13.7149    0.0699   22.3252 N   0  0  0  0  0  0  0  0  0  0  0  0
   13.1543   -0.6002   23.0825 C   0  0  0  0  0  0  0  0  0  0  0  0
   12.3898   -1.5176   23.9458 C   0  0  0  0  0  0  0  0  0  0  0  0
   10.9567   -1.6534   23.4468 C   0  0  0  0  0  0  0  0  0  0  0  0
    9.8247   -1.0944   24.0481 C   0  0  0  0  0  0  0  0  0  0  0  0
    8.5515   -1.3531   23.5300 C   0  0  0  0  0  0  0  0  0  0  0  0
    8.3937   -2.2428   22.4585 C   0  0  0  0  0  0  0  0  0  0  0  0
    7.1031   -2.6363   21.9832 N   0  0  0  0  0  0  0  0  0  0  0  0
    6.5758   -3.9461   22.3579 C   0  0  0  0  0  0  0  0  0  0  0  0
    6.0682   -3.9351   23.7756 C   0  0  0  0  0  0  0  0  0  0  0  0
    4.7068   -3.8937   24.0494 C   0  0  0  0  0  0  0  0  0  0  0  0
    4.2540   -3.8231   25.3619 C   0  0  0  0  0  0  0  0  0  0  0  0
    5.1595   -3.7294   26.4110 C   0  0  0  0  0  0  0  0  0  0  0  0
    6.5216   -3.7293   26.1307 C   0  0  0  0  0  0  0  0  0  0  0  0
    7.6753   -3.7273   27.4376 Cl  0  0  0  0  0  0  0  0  0  0  0  0
    6.9815   -3.8199   24.8247 C   0  0  0  0  0  0  0  0  0  0  0  0
    8.0411   -3.7653   24.6197 H   0  0  0  0  0  0  0  0  0  0  0  0
    4.8152   -3.6620   27.4349 H   0  0  0  0  0  0  0  0  0  0  0  0
    3.1873   -3.7676   25.5586 H   0  0  0  0  0  0  0  0  0  0  0  0
    4.0067   -3.8745   23.2225 H   0  0  0  0  0  0  0  0  0  0  0  0
    5.7802   -4.1942   21.6516 H   0  0  0  0  0  0  0  0  0  0  0  0
    7.3892   -4.6749   22.2622 H   0  0  0  0  0  0  0  0  0  0  0  0
    6.2498   -1.7662   21.3524 C   0  0  0  0  0  0  0  0  0  0  0  0
    5.0757   -2.0338   21.1693 O   0  0  0  0  0  0  0  0  0  0  0  0
    6.8998   -0.4799   20.8492 C   0  0  0  0  0  0  0  0  0  0  0  0
    6.1199    0.1095   19.7315 C   0  0  0  0  0  0  0  0  0  0  0  0
    6.4369   -0.2120   18.4405 C   0  0  0  0  0  0  0  0  0  0  0  0
    5.7710    0.2276   17.3443 N   0  0  0  0  0  0  0  0  0  0  0  0
    4.7377    1.0078   17.5618 C   0  0  0  0  0  0  0  0  0  0  0  0
    4.2798    1.3922   18.8512 C   0  0  0  0  0  0  0  0  0  0  0  0
    3.1600    2.2384   19.0350 C   0  0  0  0  0  0  0  0  0  0  0  0
    2.7549    2.5911   20.2927 C   0  0  0  0  0  0  0  0  0  0  0  0
    3.4395    2.1004   21.4257 C   0  0  0  0  0  0  0  0  0  0  0  0
    4.5225    1.2723   21.2770 C   0  0  0  0  0  0  0  0  0  0  0  0
    4.9793    0.9159   19.9798 C   0  0  0  0  0  0  0  0  0  0  0  0
    5.0245    0.8779   22.1551 H   0  0  0  0  0  0  0  0  0  0  0  0
    3.1112    2.3930   22.4184 H   0  0  0  0  0  0  0  0  0  0  0  0
    1.9106    3.2605   20.4251 H   0  0  0  0  0  0  0  0  0  0  0  0
    2.6537    2.6203   18.1535 H   0  0  0  0  0  0  0  0  0  0  0  0
    4.2075    1.3758   16.6833 H   0  0  0  0  0  0  0  0  0  0  0  0
    7.2867   -0.8660   18.2397 H   0  0  0  0  0  0  0  0  0  0  0  0
    7.0136    0.2135   21.6910 H   0  0  0  0  0  0  0  0  0  0  0  0
    7.9164   -0.7257   20.5279 H   0  0  0  0  0  0  0  0  0  0  0  0
    9.5235   -2.7815   21.8520 C   0  0  0  0  0  0  0  0  0  0  0  0
   10.7844   -2.4230   22.2983 C   0  0  0  0  0  0  0  0  0  0  0  0
   11.6652   -2.7339   21.7490 H   0  0  0  0  0  0  0  0  0  0  0  0
    9.4240   -3.4736   21.0195 H   0  0  0  0  0  0  0  0  0  0  0  0
    7.6672   -0.9265   24.0152 H   0  0  0  0  0  0  0  0  0  0  0  0
    9.9075   -0.4688   24.9360 H   0  0  0  0  0  0  0  0  0  0  0  0
   12.8764   -2.4997   23.8541 H   0  0  0  0  0  0  0  0  0  0  0  0
   12.4556   -1.2207   24.9988 H   0  0  0  0  0  0  0  0  0  0  0  0
  1  2  3  0
  2  3  1  0
  3  4  1  0
  4  5  2  0
  5  6  1  0
  6  7  2  0
  7  8  1  0
  8  9  1  0
  9 10  1  0
 10 11  2  0
 11 12  1  0
 12 13  2  0
 13 14  1  0
 14 15  1  0
 14 16  2  0
 16 17  1  0
 13 18  1  0
 12 19  1  0
 11 20  1  0
  9 21  1  0
  9 22  1  0
  8 23  1  0
 23 24  2  0
 23 25  1  0
 25 26  1  0
 26 27  2  0
 27 28  1  0
 28 29  2  0
 29 30  1  0
 30 31  2  0
 31 32  1  0
 32 33  2  0
 33 34  1  0
 34 35  2  0
 34 36  1  0
 33 37  1  0
 32 38  1  0
 31 39  1  0
 29 40  1  0
 27 41  1  0
 25 42  1  0
 25 43  1  0
  7 44  1  0
 44 45  2  0
 45 46  1  0
 44 47  1  0
  6 48  1  0
  5 49  1  0
  3 50  1  0
  3 51  1  0
 45  4  1  0
 16 10  1  0
 35 26  1  0
 35 30  1  0
M  END
>  <cnnaffinities>  (36) 
[6.16306, 6.02587, 5.37499, 5.37856]

>  <score>  (36) 
6.16306

>  <index>  (36) 
35

>  <Smiles>  (36) 
N#CC(c1c(c(c(N(C(c2c(c(c(c(Cl)c2[H])[H])[H])[H])([H])[H])C(=O)C(c2c(nc(c3c(c(c(c(c23)[H])[H])[H])[H])[H])[H])([H])[H])c(c1[H])[H])[H])[H])([H])[H]

>  <h>  (36) 
<NA>

>  <Training>  (36) 
True

>  <Success>  (36) 
True

>  <enamine_searched>  (36) 
False

>  <enamine_id>  (36) 
nan

$$$$

     RDKit          3D

 59 64  0  0  0  0  0  0  0  0999 V2000
    7.7421   -3.0259   23.2824 C   0  0  0  0  0  0  0  0  0  0  0  0
    7.9991   -1.9266   22.2648 C   0  0  1  0  0  0  0  0  0  0  0  0
    6.8571   -1.7812   21.2526 C   0  0  0  0  0  0  0  0  0  0  0  0
    6.9529   -0.3971   20.8405 N   0  0  0  0  0  0  0  0  0  0  0  0
    6.1587    0.1181   19.7891 C   0  0  0  0  0  0  0  0  0  0  0  0
    6.4583   -0.2320   18.4978 C   0  0  0  0  0  0  0  0  0  0  0  0
    5.7906    0.2030   17.4026 N   0  0  0  0  0  0  0  0  0  0  0  0
    4.7685    0.9978   17.6098 C   0  0  0  0  0  0  0  0  0  0  0  0
    4.3160    1.3957   18.8976 C   0  0  0  0  0  0  0  0  0  0  0  0
    3.1838    2.2359   19.0534 C   0  0  0  0  0  0  0  0  0  0  0  0
    2.7480    2.5875   20.2980 C   0  0  0  0  0  0  0  0  0  0  0  0
    3.4127    2.1067   21.4476 C   0  0  0  0  0  0  0  0  0  0  0  0
    4.5149    1.2965   21.3240 C   0  0  0  0  0  0  0  0  0  0  0  0
    5.0102    0.9352   20.0388 C   0  0  0  0  0  0  0  0  0  0  0  0
    5.0145    0.9421   22.2199 H   0  0  0  0  0  0  0  0  0  0  0  0
    3.0476    2.3845   22.4299 H   0  0  0  0  0  0  0  0  0  0  0  0
    1.8865    3.2388   20.4096 H   0  0  0  0  0  0  0  0  0  0  0  0
    2.6886    2.6011   18.1576 H   0  0  0  0  0  0  0  0  0  0  0  0
    4.2304    1.3589   16.7330 H   0  0  0  0  0  0  0  0  0  0  0  0
    7.3037   -0.8907   18.3097 H   0  0  0  0  0  0  0  0  0  0  0  0
    7.6868    0.3981   21.6954 C   0  0  0  0  0  0  0  0  0  0  0  0
    7.8343    1.5958   21.5592 O   0  0  0  0  0  0  0  0  0  0  0  0
    8.2352   -0.4798   22.8398 C   0  0  1  0  0  0  0  0  0  0  0  0
    7.4068   -0.1131   24.0995 C   0  0  0  0  0  0  0  0  0  0  0  0
    7.9890   -0.5826   25.3499 N   0  0  0  0  0  0  0  0  0  0  0  0
    7.1410   -0.8504   26.4989 C   0  0  0  0  0  0  0  0  0  0  0  0
    6.8878   -2.3127   26.7031 C   0  0  0  0  0  0  0  0  0  0  0  0
    7.7421   -3.3185   27.2076 C   0  0  0  0  0  0  0  0  0  0  0  0
    6.9544   -4.4430   27.2489 C   0  0  0  0  0  0  0  0  0  0  0  0
    5.7476   -4.0955   26.7591 N   0  0  0  0  0  0  0  0  0  0  0  0
    4.5987   -4.9292   26.4825 C   0  0  0  0  0  0  0  0  0  0  0  0
    4.5380   -5.1162   25.4069 H   0  0  0  0  0  0  0  0  0  0  0  0
    4.7120   -5.8766   27.0168 H   0  0  0  0  0  0  0  0  0  0  0  0
    3.7017   -4.3909   26.8063 H   0  0  0  0  0  0  0  0  0  0  0  0
    5.6876   -2.8020   26.4219 N   0  0  0  0  0  0  0  0  0  0  0  0
    7.1449   -5.4735   27.5378 H   0  0  0  0  0  0  0  0  0  0  0  0
    8.7846   -3.2183   27.4883 H   0  0  0  0  0  0  0  0  0  0  0  0
    7.6570   -0.4395   27.3729 H   0  0  0  0  0  0  0  0  0  0  0  0
    6.1951   -0.3145   26.3657 H   0  0  0  0  0  0  0  0  0  0  0  0
    9.3314   -0.6222   25.5909 C   0  0  0  0  0  0  0  0  0  0  0  0
    9.7992   -0.9303   26.6796 O   0  0  0  0  0  0  0  0  0  0  0  0
   10.2031   -0.2838   24.4462 C   0  0  0  0  0  0  0  0  0  0  0  0
   11.5592   -0.1165   24.7224 C   0  0  0  0  0  0  0  0  0  0  0  0
   12.4616    0.0886   23.7016 C   0  0  0  0  0  0  0  0  0  0  0  0
   11.9668    0.0918   22.4038 C   0  0  0  0  0  0  0  0  0  0  0  0
   12.8535    0.1305   21.4047 F   0  0  0  0  0  0  0  0  0  0  0  0
   10.6161   -0.0011   22.1153 C   0  0  0  0  0  0  0  0  0  0  0  0
    9.6995   -0.2078   23.1463 C   0  0  0  0  0  0  0  0  0  0  0  0
   10.2518    0.0862   21.1028 H   0  0  0  0  0  0  0  0  0  0  0  0
   13.5233    0.2209   23.8787 H   0  0  0  0  0  0  0  0  0  0  0  0
   11.8856   -0.1931   25.7535 H   0  0  0  0  0  0  0  0  0  0  0  0
    7.3184    0.9827   24.1207 H   0  0  0  0  0  0  0  0  0  0  0  0
    6.3942   -0.5290   24.0141 H   0  0  0  0  0  0  0  0  0  0  0  0
    6.9646   -2.4356   20.3852 H   0  0  0  0  0  0  0  0  0  0  0  0
    5.8760   -2.0081   21.7038 H   0  0  0  0  0  0  0  0  0  0  0  0
    8.9123   -2.1653   21.6977 H   0  0  0  0  0  0  0  0  0  0  0  0
    7.7046   -4.0012   22.7837 H   0  0  0  0  0  0  0  0  0  0  0  0
    6.7847   -2.8563   23.7881 H   0  0  0  0  0  0  0  0  0  0  0  0
    8.5321   -3.0405   24.0393 H   0  0  0  0  0  0  0  0  0  0  0  0
  1  2  1  0
  2  3  1  0
  3  4  1  0
  4  5  1  0
  5  6  2  0
  6  7  1  0
  7  8  2  0
  8  9  1  0
  9 10  2  0
 10 11  1  0
 11 12  2  0
 12 13  1  0
 13 14  2  0
 13 15  1  0
 12 16  1  0
 11 17  1  0
 10 18  1  0
  8 19  1  0
  6 20  1  0
  4 21  1  0
 21 22  2  0
 21 23  1  0
 23 24  1  1
 24 25  1  0
 25 26  1  0
 26 27  1  0
 27 28  1  0
 28 29  2  0
 29 30  1  0
 30 31  1  0
 31 32  1  0
 31 33  1  0
 31 34  1  0
 30 35  1  0
 29 36  1  0
 28 37  1  0
 26 38  1  0
 26 39  1  0
 25 40  1  0
 40 41  2  0
 40 42  1  0
 42 43  2  0
 43 44  1  0
 44 45  2  0
 45 46  1  0
 45 47  1  0
 47 48  2  0
 47 49  1  0
 44 50  1  0
 43 51  1  0
 24 52  1  0
 24 53  1  0
  3 54  1  0
  3 55  1  0
  2 56  1  6
  1 57  1  0
  1 58  1  0
  1 59  1  0
 23  2  1  0
 35 27  2  0
 48 42  1  0
 14  5  1  0
 48 23  1  0
 14  9  1  0
M  END
>  <cnnaffinities>  (37) 
[6.45123, 6.38095, 6.13661]

>  <score>  (37) 
6.45123

>  <index>  (37) 
36

>  <Smiles>  (37) 
C([C@]1(C(N(c2c(nc(c3c(c(c(c(c23)[H])[H])[H])[H])[H])[H])C(=O)[C@]21C(N(C(c1c(c(n(C([H])([H])[H])n1)[H])[H])([H])[H])C(=O)c1c(c(c(F)c(c21)[H])[H])[H])([H])[H])([H])[H])[H])([H])([H])[H]

>  <h>  (37) 
<NA>

>  <Training>  (37) 
True

>  <Success>  (37) 
True

>  <enamine_searched>  (37) 
False

>  <enamine_id>  (37) 
nan

$$$$

     RDKit          3D

 48 51  0  0  0  0  0  0  0  0999 V2000
   13.3772   -1.3213   24.3370 N   0  0  0  0  0  0  0  0  0  0  0  0
   12.2500   -1.3903   24.0767 C   0  0  0  0  0  0  0  0  0  0  0  0
   10.8965   -1.5870   23.6215 C   0  0  0  0  0  0  0  0  0  0  0  0
    9.7537   -0.9641   24.1288 C   0  0  0  0  0  0  0  0  0  0  0  0
    8.5121   -1.2667   23.5759 C   0  0  0  0  0  0  0  0  0  0  0  0
    8.3862   -2.2220   22.5613 C   0  0  0  0  0  0  0  0  0  0  0  0
    7.1113   -2.6226   22.0694 N   0  0  0  0  0  0  0  0  0  0  0  0
    6.5775   -3.9112   22.4811 C   0  0  0  0  0  0  0  0  0  0  0  0
    6.0190   -3.8428   23.8804 C   0  0  0  0  0  0  0  0  0  0  0  0
    6.8802   -3.7975   24.9751 C   0  0  0  0  0  0  0  0  0  0  0  0
    6.3630   -3.7192   26.2589 C   0  0  0  0  0  0  0  0  0  0  0  0
    4.9889   -3.6401   26.4610 C   0  0  0  0  0  0  0  0  0  0  0  0
    4.1458   -3.6474   25.3598 C   0  0  0  0  0  0  0  0  0  0  0  0
    2.4292   -3.4989   25.5888 Cl  0  0  0  0  0  0  0  0  0  0  0  0
    4.6443   -3.7720   24.0730 C   0  0  0  0  0  0  0  0  0  0  0  0
    3.9617   -3.8021   23.2268 H   0  0  0  0  0  0  0  0  0  0  0  0
    4.5698   -3.6066   27.4597 H   0  0  0  0  0  0  0  0  0  0  0  0
    7.0329   -3.7076   27.1119 H   0  0  0  0  0  0  0  0  0  0  0  0
    7.9592   -3.8359   24.8161 H   0  0  0  0  0  0  0  0  0  0  0  0
    7.3806   -4.6568   22.4136 H   0  0  0  0  0  0  0  0  0  0  0  0
    5.7941   -4.1387   21.7572 H   0  0  0  0  0  0  0  0  0  0  0  0
    6.2605   -1.7808   21.3952 C   0  0  0  0  0  0  0  0  0  0  0  0
    5.0883   -2.0575   21.1996 O   0  0  0  0  0  0  0  0  0  0  0  0
    6.9138   -0.5055   20.8660 C   0  0  0  0  0  0  0  0  0  0  0  0
    6.1237    0.0829   19.7465 C   0  0  0  0  0  0  0  0  0  0  0  0
    6.4407   -0.2216   18.4494 C   0  0  0  0  0  0  0  0  0  0  0  0
    5.7769    0.2208   17.3508 N   0  0  0  0  0  0  0  0  0  0  0  0
    4.7449    1.0017   17.5702 C   0  0  0  0  0  0  0  0  0  0  0  0
    4.2882    1.3782   18.8619 C   0  0  0  0  0  0  0  0  0  0  0  0
    3.1709    2.2302   19.0409 C   0  0  0  0  0  0  0  0  0  0  0  0
    2.7610    2.5880   20.2963 C   0  0  0  0  0  0  0  0  0  0  0  0
    3.4433    2.0984   21.4316 C   0  0  0  0  0  0  0  0  0  0  0  0
    4.5243    1.2638   21.2877 C   0  0  0  0  0  0  0  0  0  0  0  0
    4.9838    0.8975   19.9921 C   0  0  0  0  0  0  0  0  0  0  0  0
    5.0303    0.8814   22.1694 H   0  0  0  0  0  0  0  0  0  0  0  0
    3.1164    2.3990   22.4235 H   0  0  0  0  0  0  0  0  0  0  0  0
    1.9158    3.2583   20.4275 H   0  0  0  0  0  0  0  0  0  0  0  0
    2.6688    2.6161   18.1588 H   0  0  0  0  0  0  0  0  0  0  0  0
    4.2082    1.3804   16.7000 H   0  0  0  0  0  0  0  0  0  0  0  0
    7.2922   -0.8692   18.2413 H   0  0  0  0  0  0  0  0  0  0  0  0
    7.9231   -0.7801   20.5296 H   0  0  0  0  0  0  0  0  0  0  0  0
    7.0332    0.2052   21.6998 H   0  0  0  0  0  0  0  0  0  0  0  0
    9.5255   -2.8307   22.0591 C   0  0  0  0  0  0  0  0  0  0  0  0
   10.7634   -2.4933   22.5703 C   0  0  0  0  0  0  0  0  0  0  0  0
   11.6560   -2.9376   22.1679 H   0  0  0  0  0  0  0  0  0  0  0  0
    9.4439   -3.5623   21.2636 H   0  0  0  0  0  0  0  0  0  0  0  0
    7.6187   -0.8046   23.9890 H   0  0  0  0  0  0  0  0  0  0  0  0
    9.8318   -0.2398   24.9327 H   0  0  0  0  0  0  0  0  0  0  0  0
  1  2  3  0
  2  3  1  0
  3  4  2  0
  4  5  1  0
  5  6  2  0
  6  7  1  0
  7  8  1  0
  8  9  1  0
  9 10  2  0
 10 11  1  0
 11 12  2  0
 12 13  1  0
 13 14  1  0
 13 15  2  0
 15 16  1  0
 12 17  1  0
 11 18  1  0
 10 19  1  0
  8 20  1  0
  8 21  1  0
  7 22  1  0
 22 23  2  0
 22 24  1  0
 24 25  1  0
 25 26  2  0
 26 27  1  0
 27 28  2  0
 28 29  1  0
 29 30  2  0
 30 31  1  0
 31 32  2  0
 32 33  1  0
 33 34  2  0
 33 35  1  0
 32 36  1  0
 31 37  1  0
 30 38  1  0
 28 39  1  0
 26 40  1  0
 24 41  1  0
 24 42  1  0
  6 43  1  0
 43 44  2  0
 44 45  1  0
 43 46  1  0
  5 47  1  0
  4 48  1  0
 44  3  1  0
 15  9  1  0
 34 25  1  0
 34 29  1  0
M  END
>  <cnnaffinities>  (38) 
[5.66995, 6.10471, 5.10711]

>  <score>  (38) 
5.66995

>  <index>  (38) 
37

>  <Smiles>  (38) 
N#Cc1c(c(c(N(C(c2c(c(c(c(Cl)c2[H])[H])[H])[H])([H])[H])C(=O)C(c2c(nc(c3c(c(c(c(c23)[H])[H])[H])[H])[H])[H])([H])[H])c(c1[H])[H])[H])[H]

>  <h>  (38) 
<NA>

>  <Training>  (38) 
True

>  <Success>  (38) 
True

>  <enamine_searched>  (38) 
False

>  <enamine_id>  (38) 
nan

$$$$

     RDKit          3D

 72 77  0  0  0  0  0  0  0  0999 V2000
    4.8836   -7.1892   19.8480 C   0  0  0  0  0  0  0  0  0  0  0  0
    5.0395   -5.6888   19.7442 N   0  0  0  0  0  4  0  0  0  0  0  0
    5.0393   -4.9511   21.0830 C   0  0  0  0  0  0  0  0  0  0  0  0
    6.2490   -5.2160   21.9992 C   0  0  0  0  0  0  0  0  0  0  0  0
    6.4610   -4.0844   22.8692 N   0  0  0  0  0  0  0  0  0  0  0  0
    7.5629   -3.2033   22.5731 C   0  0  0  0  0  0  0  0  0  0  0  0
    7.2082   -1.7244   22.8321 C   0  0  2  0  0  0  0  0  0  0  0  0
    6.1376   -1.2885   21.8022 C   0  0  0  0  0  0  0  0  0  0  0  0
    4.9840   -1.6681   21.7467 O   0  0  0  0  0  0  0  0  0  0  0  0
    6.7128   -0.4270   20.8928 N   0  0  0  0  0  0  0  0  0  0  0  0
    6.0152    0.0950   19.7833 C   0  0  0  0  0  0  0  0  0  0  0  0
    6.4233   -0.1765   18.5000 C   0  0  0  0  0  0  0  0  0  0  0  0
    5.7796    0.2423   17.3824 N   0  0  0  0  0  0  0  0  0  0  0  0
    4.7122    0.9878   17.5513 C   0  0  0  0  0  0  0  0  0  0  0  0
    4.2135    1.3886   18.8239 C   0  0  0  0  0  0  0  0  0  0  0  0
    3.0765    2.2298   18.9498 C   0  0  0  0  0  0  0  0  0  0  0  0
    2.6620    2.6515   20.1831 C   0  0  0  0  0  0  0  0  0  0  0  0
    3.3577    2.2524   21.3457 C   0  0  0  0  0  0  0  0  0  0  0  0
    4.4495    1.4275   21.2524 C   0  0  0  0  0  0  0  0  0  0  0  0
    4.8902    0.9571   19.9819 C   0  0  0  0  0  0  0  0  0  0  0  0
    4.9867    1.1252   22.1457 H   0  0  0  0  0  0  0  0  0  0  0  0
    3.0280    2.6060   22.3178 H   0  0  0  0  0  0  0  0  0  0  0  0
    1.8050    3.3114   20.2750 H   0  0  0  0  0  0  0  0  0  0  0  0
    2.5683    2.5530   18.0458 H   0  0  0  0  0  0  0  0  0  0  0  0
    4.1905    1.3222   16.6538 H   0  0  0  0  0  0  0  0  0  0  0  0
    7.3031   -0.7950   18.3293 H   0  0  0  0  0  0  0  0  0  0  0  0
    8.1502   -0.3086   21.0356 C   0  0  0  0  0  0  0  0  0  0  0  0
    8.4142   -0.8297   22.4618 C   0  0  2  0  0  0  0  0  0  0  0  0
    9.7869   -1.4925   22.5658 C   0  0  0  0  0  0  0  0  0  0  0  0
   10.7989   -0.5305   22.5170 O   0  0  0  0  0  0  0  0  0  0  0  0
   11.1500   -0.0849   23.8055 C   0  0  0  0  0  0  0  0  0  0  0  0
   11.7194    1.2282   23.5008 C   0  0  0  0  0  0  0  0  0  0  0  0
   10.6842    2.2701   23.1701 C   0  0  0  0  0  0  0  0  0  0  0  0
   10.2980    3.7929   24.0803 S   0  0  0  0  0  0  0  0  0  0  0  0
   11.3652    4.7822   24.0156 O   0  0  0  0  0  0  0  0  0  0  0  0
    9.5491    3.5034   25.2987 O   0  0  0  0  0  0  0  0  0  0  0  0
   11.9319    1.3776   23.8091 C   0  0  0  0  0  0  0  0  0  0  0  0
   13.1170    2.1267   24.0677 H   0  0  0  0  0  0  0  0  0  0  0  0
   11.8192    1.5566   25.0030 H   0  0  0  0  0  0  0  0  0  0  0  0
   10.8499    2.5812   22.1369 H   0  0  0  0  0  0  0  0  0  0  0  0
    9.7239    1.7446   23.1373 H   0  0  0  0  0  0  0  0  0  0  0  0
   12.4885    1.1226   22.6826 H   0  0  0  0  0  0  0  0  0  0  0  0
   10.2317   -0.0392   24.4269 H   0  0  0  0  0  0  0  0  0  0  0  0
   11.8397   -0.8369   24.2527 H   0  0  0  0  0  0  0  0  0  0  0  0
    9.9229   -2.1727   21.7141 H   0  0  0  0  0  0  0  0  0  0  0  0
    9.8773   -2.1010   23.4808 H   0  0  0  0  0  0  0  0  0  0  0  0
    8.3823    0.0343   23.1277 H   0  0  0  0  0  0  0  0  0  0  0  0
    8.4609    0.7337   20.9048 H   0  0  0  0  0  0  0  0  0  0  0  0
    8.6746   -0.9095   20.2803 H   0  0  0  0  0  0  0  0  0  0  0  0
    6.7220   -1.6491   24.2741 C   0  0  0  0  0  0  0  0  0  0  0  0
    6.9377   -0.5377   25.1031 C   0  0  0  0  0  0  0  0  0  0  0  0
    6.6128   -0.5998   26.4480 C   0  0  0  0  0  0  0  0  0  0  0  0
    7.0142    0.7519   27.4792 Cl  0  0  0  0  0  0  0  0  0  0  0  0
    5.9945   -1.7141   27.0095 C   0  0  0  0  0  0  0  0  0  0  0  0
    5.6827   -2.7741   26.1772 C   0  0  0  0  0  0  0  0  0  0  0  0
    6.0483   -2.7519   24.8316 C   0  0  0  0  0  0  0  0  0  0  0  0
    5.7124   -3.9523   23.9955 C   0  0  0  0  0  0  0  0  0  0  0  0
    4.8523   -4.7668   24.3152 O   0  0  0  0  0  0  0  0  0  0  0  0
    5.1683   -3.6503   26.5595 H   0  0  0  0  0  0  0  0  0  0  0  0
    5.7669   -1.7328   28.0719 H   0  0  0  0  0  0  0  0  0  0  0  0
    7.3260    0.3973   24.7181 H   0  0  0  0  0  0  0  0  0  0  0  0
    8.4281   -3.4775   23.1893 H   0  0  0  0  0  0  0  0  0  0  0  0
    7.8319   -3.3183   21.5195 H   0  0  0  0  0  0  0  0  0  0  0  0
    7.2008   -5.3073   21.4638 H   0  0  0  0  0  0  0  0  0  0  0  0
    6.1105   -6.1178   22.6050 H   0  0  0  0  0  0  0  0  0  0  0  0
    4.1344   -5.2109   21.6369 H   0  0  0  0  0  0  0  0  0  0  0  0
    4.9959   -3.8934   20.8431 H   0  0  0  0  0  0  0  0  0  0  0  0
    5.9783   -5.4931   19.3191 H   0  0  0  0  0  0  0  0  0  0  0  0
    4.2905   -5.3052   19.1401 H   0  0  0  0  0  0  0  0  0  0  0  0
    4.7661   -7.4696   20.8918 H   0  0  0  0  0  0  0  0  0  0  0  0
    4.0112   -7.5293   19.2970 H   0  0  0  0  0  0  0  0  0  0  0  0
    5.7498   -7.6973   19.4333 H   0  0  0  0  0  0  0  0  0  0  0  0
  1  2  1  0
  2  3  1  0
  3  4  1  0
  4  5  1  0
  5  6  1  0
  7  6  1  6
  7  8  1  0
  8  9  2  0
  8 10  1  0
 10 11  1  0
 11 12  2  0
 12 13  1  0
 13 14  2  0
 14 15  1  0
 15 16  2  0
 16 17  1  0
 17 18  2  0
 18 19  1  0
 19 20  2  0
 19 21  1  0
 18 22  1  0
 17 23  1  0
 16 24  1  0
 14 25  1  0
 12 26  1  0
 10 27  1  0
 27 28  1  0
 28 29  1  0
 29 30  1  0
 30 31  1  0
 31 32  1  0
 32 33  1  0
 33 34  1  0
 34 35  2  0
 34 36  2  0
 34 37  1  0
 37 38  1  0
 37 39  1  0
 33 40  1  0
 33 41  1  0
 32 42  1  0
 31 43  1  0
 31 44  1  0
 29 45  1  0
 29 46  1  0
 28 47  1  1
 27 48  1  0
 27 49  1  0
  7 50  1  0
 50 51  2  0
 51 52  1  0
 52 53  1  0
 52 54  2  0
 54 55  1  0
 55 56  2  0
 56 57  1  0
 57 58  2  0
 55 59  1  0
 54 60  1  0
 51 61  1  0
  6 62  1  0
  6 63  1  0
  4 64  1  0
  4 65  1  0
  3 66  1  0
  3 67  1  0
  2 68  1  0
  2 69  1  0
  1 70  1  0
  1 71  1  0
  1 72  1  0
 57  5  1  0
 28  7  1  0
 37 32  1  0
 56 50  1  0
 20 11  1  0
 20 15  1  0
M  CHG  1   2   1
M  END
>  <cnnaffinities>  (39) 
[6.33589]

>  <score>  (39) 
6.33589

>  <index>  (39) 
38

>  <Smiles>  (39) 
C([N+](C(C(N1C([C@@]2(C(=O)N(c3c(nc(c4c(c(c(c(c34)[H])[H])[H])[H])[H])[H])C([C@@]2(C(OC(C2(C(S(=O)(=O)C2([H])[H])([H])[H])[H])([H])[H])([H])[H])[H])([H])[H])c2c(c(Cl)c(c(c2C1=O)[H])[H])[H])([H])[H])([H])[H])([H])[H])([H])[H])([H])([H])[H]

>  <h>  (39) 
<NA>

>  <Training>  (39) 
True

>  <Success>  (39) 
True

>  <enamine_searched>  (39) 
False

>  <enamine_id>  (39) 
nan

$$$$

     RDKit          3D

 60 64  0  0  0  0  0  0  0  0999 V2000
    8.1759   -4.5260   24.1465 C   0  0  0  0  0  0  0  0  0  0  0  0
    8.2985   -3.0463   24.4676 C   0  0  0  0  0  0  0  0  0  0  0  0
    7.3148   -2.3257   23.7360 O   0  0  0  0  0  0  0  0  0  0  0  0
    7.7826   -1.7840   22.5208 C   0  0  1  0  0  0  0  0  0  0  0  0
    6.6006   -1.6141   21.5632 C   0  0  0  0  0  0  0  0  0  0  0  0
    6.9254   -0.4069   20.8346 N   0  0  0  0  0  0  0  0  0  0  0  0
    6.1453    0.1091   19.7623 C   0  0  0  0  0  0  0  0  0  0  0  0
    6.4576   -0.2125   18.4674 C   0  0  0  0  0  0  0  0  0  0  0  0
    5.7722    0.2244   17.3789 N   0  0  0  0  0  0  0  0  0  0  0  0
    4.7466    1.0135   17.5918 C   0  0  0  0  0  0  0  0  0  0  0  0
    4.2955    1.4156   18.8806 C   0  0  0  0  0  0  0  0  0  0  0  0
    3.1691    2.2653   19.0645 C   0  0  0  0  0  0  0  0  0  0  0  0
    2.7609    2.6287   20.3182 C   0  0  0  0  0  0  0  0  0  0  0  0
    3.4577    2.1530   21.4525 C   0  0  0  0  0  0  0  0  0  0  0  0
    4.5498    1.3320   21.3011 C   0  0  0  0  0  0  0  0  0  0  0  0
    5.0109    0.9476   20.0112 C   0  0  0  0  0  0  0  0  0  0  0  0
    5.0768    0.9783   22.1834 H   0  0  0  0  0  0  0  0  0  0  0  0
    3.1521    2.4552   22.4486 H   0  0  0  0  0  0  0  0  0  0  0  0
    1.9138    3.2976   20.4441 H   0  0  0  0  0  0  0  0  0  0  0  0
    2.6621    2.6416   18.1795 H   0  0  0  0  0  0  0  0  0  0  0  0
    4.2171    1.3780   16.7107 H   0  0  0  0  0  0  0  0  0  0  0  0
    7.2996   -0.8673   18.2542 H   0  0  0  0  0  0  0  0  0  0  0  0
    7.9312    0.3468   21.3962 C   0  0  0  0  0  0  0  0  0  0  0  0
    8.3111    1.4072   20.9495 O   0  0  0  0  0  0  0  0  0  0  0  0
    8.4660   -0.3896   22.6508 C   0  0  1  0  0  0  0  0  0  0  0  0
    8.0108    0.3266   23.9481 C   0  0  0  0  0  0  0  0  0  0  0  0
    8.6949    1.5942   24.1327 N   0  0  0  0  0  0  0  0  0  0  0  0
    7.9261    2.7375   24.5893 C   0  0  0  0  0  0  0  0  0  0  0  0
    6.9971    3.3384   23.5208 C   0  0  0  0  0  0  0  0  0  0  0  0
    5.7813    3.2100   23.6047 O   0  0  0  0  0  0  0  0  0  0  0  0
    7.5823    4.0261   22.5125 N   0  0  0  0  0  0  0  0  0  0  0  0
    6.7394    4.4676   21.4153 C   0  0  0  0  0  0  0  0  0  0  0  0
    6.2207    3.6089   20.9606 H   0  0  0  0  0  0  0  0  0  0  0  0
    7.3508    4.9846   20.6799 H   0  0  0  0  0  0  0  0  0  0  0  0
    5.9843    5.1698   21.7863 H   0  0  0  0  0  0  0  0  0  0  0  0
    8.5867    3.9778   22.4126 H   0  0  0  0  0  0  0  0  0  0  0  0
    7.2583    2.4524   25.4119 H   0  0  0  0  0  0  0  0  0  0  0  0
    8.6693    3.4529   24.9556 H   0  0  0  0  0  0  0  0  0  0  0  0
   10.0629    1.6649   24.0921 C   0  0  0  0  0  0  0  0  0  0  0  0
   10.6985    2.5797   24.5986 O   0  0  0  0  0  0  0  0  0  0  0  0
   10.7288    0.5545   23.3321 C   0  0  0  0  0  0  0  0  0  0  0  0
   12.1221    0.5463   23.2829 C   0  0  0  0  0  0  0  0  0  0  0  0
   12.7855   -0.3568   22.4781 C   0  0  0  0  0  0  0  0  0  0  0  0
   12.0420   -1.2347   21.6909 C   0  0  0  0  0  0  0  0  0  0  0  0
   12.8922   -2.2622   20.5747 Cl  0  0  0  0  0  0  0  0  0  0  0  0
   10.6609   -1.2618   21.7483 C   0  0  0  0  0  0  0  0  0  0  0  0
    9.9835   -0.3950   22.6167 C   0  0  0  0  0  0  0  0  0  0  0  0
   10.1233   -1.9187   21.0731 H   0  0  0  0  0  0  0  0  0  0  0  0
   13.8666   -0.3707   22.4164 H   0  0  0  0  0  0  0  0  0  0  0  0
   12.6488    1.2909   23.8701 H   0  0  0  0  0  0  0  0  0  0  0  0
    8.1759   -0.3464   24.8043 H   0  0  0  0  0  0  0  0  0  0  0  0
    6.9424    0.5401   23.8765 H   0  0  0  0  0  0  0  0  0  0  0  0
    6.4927   -2.4593   20.8754 H   0  0  0  0  0  0  0  0  0  0  0  0
    5.6687   -1.5266   22.1381 H   0  0  0  0  0  0  0  0  0  0  0  0
    8.5109   -2.4710   22.0794 H   0  0  0  0  0  0  0  0  0  0  0  0
    8.0782   -2.8729   25.5295 H   0  0  0  0  0  0  0  0  0  0  0  0
    9.3062   -2.6443   24.2586 H   0  0  0  0  0  0  0  0  0  0  0  0
    8.3816   -4.7331   23.0912 H   0  0  0  0  0  0  0  0  0  0  0  0
    8.8518   -5.1352   24.7561 H   0  0  0  0  0  0  0  0  0  0  0  0
    7.1391   -4.8016   24.3446 H   0  0  0  0  0  0  0  0  0  0  0  0
  1  2  1  0
  2  3  1  0
  3  4  1  0
  4  5  1  0
  5  6  1  0
  6  7  1  0
  7  8  2  0
  8  9  1  0
  9 10  2  0
 10 11  1  0
 11 12  2  0
 12 13  1  0
 13 14  2  0
 14 15  1  0
 15 16  2  0
 15 17  1  0
 14 18  1  0
 13 19  1  0
 12 20  1  0
 10 21  1  0
  8 22  1  0
  6 23  1  0
 23 24  2  0
 23 25  1  0
 25 26  1  1
 26 27  1  0
 27 28  1  0
 28 29  1  0
 29 30  2  0
 29 31  1  0
 31 32  1  0
 32 33  1  0
 32 34  1  0
 32 35  1  0
 31 36  1  0
 28 37  1  0
 28 38  1  0
 27 39  1  0
 39 40  2  0
 39 41  1  0
 41 42  2  0
 42 43  1  0
 43 44  2  0
 44 45  1  0
 44 46  1  0
 46 47  2  0
 46 48  1  0
 43 49  1  0
 42 50  1  0
 26 51  1  0
 26 52  1  0
  5 53  1  0
  5 54  1  0
  4 55  1  6
  2 56  1  0
  2 57  1  0
  1 58  1  0
  1 59  1  0
  1 60  1  0
 25  4  1  0
 47 41  1  0
 16  7  1  0
 47 25  1  0
 16 11  1  0
M  END
>  <cnnaffinities>  (40) 
[6.47797, 6.25509]

>  <score>  (40) 
6.47797

>  <index>  (40) 
39

>  <Smiles>  (40) 
C(C(O[C@]1(C(N(c2c(nc(c3c(c(c(c(c23)[H])[H])[H])[H])[H])[H])C(=O)[C@]21C(N(C(C(=O)N(C([H])([H])[H])[H])([H])[H])C(=O)c1c(c(c(Cl)c(c21)[H])[H])[H])([H])[H])([H])[H])[H])([H])[H])([H])([H])[H]

>  <h>  (40) 
<NA>

>  <Training>  (40) 
True

>  <Success>  (40) 
True

>  <enamine_searched>  (40) 
False

>  <enamine_id>  (40) 
nan

$$$$

     RDKit          3D

 57 61  0  0  0  0  0  0  0  0999 V2000
    6.7365    4.3856   21.2905 C   0  0  0  0  0  0  0  0  0  0  0  0
    7.6750    3.9991   22.3278 N   0  0  0  0  0  0  0  0  0  0  0  0
    7.1496    3.3313   23.3866 C   0  0  0  0  0  0  0  0  0  0  0  0
    5.9402    3.1958   23.5156 O   0  0  0  0  0  0  0  0  0  0  0  0
    8.0975    2.7676   24.4310 C   0  0  0  0  0  0  0  0  0  0  0  0
    8.8186    1.5976   23.9813 N   0  0  0  0  0  0  0  0  0  0  0  0
    8.1005    0.3424   23.8477 C   0  0  0  0  0  0  0  0  0  0  0  0
    8.5292   -0.4263   22.5767 C   0  0  2  0  0  0  0  0  0  0  0  0
    8.0011    0.2893   21.3145 C   0  0  0  0  0  0  0  0  0  0  0  0
    8.4396    1.3013   20.8071 O   0  0  0  0  0  0  0  0  0  0  0  0
    6.9209   -0.4117   20.8281 N   0  0  0  0  0  0  0  0  0  0  0  0
    6.1340    0.0969   19.7601 C   0  0  0  0  0  0  0  0  0  0  0  0
    6.4630   -0.2140   18.4643 C   0  0  0  0  0  0  0  0  0  0  0  0
    5.7845    0.2272   17.3772 N   0  0  0  0  0  0  0  0  0  0  0  0
    4.7522    1.0088   17.5916 C   0  0  0  0  0  0  0  0  0  0  0  0
    4.2987    1.4062   18.8810 C   0  0  0  0  0  0  0  0  0  0  0  0
    3.1782    2.2601   19.0625 C   0  0  0  0  0  0  0  0  0  0  0  0
    2.7737    2.6279   20.3178 C   0  0  0  0  0  0  0  0  0  0  0  0
    3.4708    2.1579   21.4548 C   0  0  0  0  0  0  0  0  0  0  0  0
    4.5590    1.3299   21.3066 C   0  0  0  0  0  0  0  0  0  0  0  0
    5.0045    0.9350   20.0137 C   0  0  0  0  0  0  0  0  0  0  0  0
    5.0996    0.9992   22.1885 H   0  0  0  0  0  0  0  0  0  0  0  0
    3.1661    2.4731   22.4486 H   0  0  0  0  0  0  0  0  0  0  0  0
    1.9255    3.2985   20.4430 H   0  0  0  0  0  0  0  0  0  0  0  0
    2.6647    2.6323   18.1799 H   0  0  0  0  0  0  0  0  0  0  0  0
    4.2127    1.3695   16.7154 H   0  0  0  0  0  0  0  0  0  0  0  0
    7.3214   -0.8548   18.2661 H   0  0  0  0  0  0  0  0  0  0  0  0
    6.5799   -1.5894   21.5974 C   0  0  0  0  0  0  0  0  0  0  0  0
    7.8157   -1.8094   22.4895 C   0  0  2  0  0  0  0  0  0  0  0  0
    7.4557   -2.4967   23.8255 C   0  0  0  0  0  0  0  0  0  0  0  0
    6.9149   -3.8405   23.5810 C   0  0  0  0  0  0  0  0  0  0  0  0
    6.4735   -4.8820   23.3477 N   0  0  0  0  0  0  0  0  0  0  0  0
    8.3312   -2.5855   24.4794 H   0  0  0  0  0  0  0  0  0  0  0  0
    6.6910   -1.9261   24.3656 H   0  0  0  0  0  0  0  0  0  0  0  0
    8.4957   -2.4887   21.9716 H   0  0  0  0  0  0  0  0  0  0  0  0
    6.3836   -2.4430   20.9379 H   0  0  0  0  0  0  0  0  0  0  0  0
    5.6782   -1.4123   22.2028 H   0  0  0  0  0  0  0  0  0  0  0  0
   10.0502   -0.4691   22.5319 C   0  0  0  0  0  0  0  0  0  0  0  0
   10.7102   -1.3645   21.6773 C   0  0  0  0  0  0  0  0  0  0  0  0
   12.0932   -1.3435   21.5932 C   0  0  0  0  0  0  0  0  0  0  0  0
   12.9176   -2.3557   20.4338 Cl  0  0  0  0  0  0  0  0  0  0  0  0
   12.8562   -0.4723   22.3748 C   0  0  0  0  0  0  0  0  0  0  0  0
   12.2165    0.4570   23.1702 C   0  0  0  0  0  0  0  0  0  0  0  0
   10.8231    0.4825   23.2132 C   0  0  0  0  0  0  0  0  0  0  0  0
   10.1873    1.6327   23.9315 C   0  0  0  0  0  0  0  0  0  0  0  0
   10.8581    2.5451   24.3977 O   0  0  0  0  0  0  0  0  0  0  0  0
   12.7548    1.2136   23.7379 H   0  0  0  0  0  0  0  0  0  0  0  0
   13.9358   -0.5122   22.3116 H   0  0  0  0  0  0  0  0  0  0  0  0
   10.1489   -2.0544   21.0549 H   0  0  0  0  0  0  0  0  0  0  0  0
    7.0304    0.5756   23.8114 H   0  0  0  0  0  0  0  0  0  0  0  0
    8.3023   -0.2950   24.7214 H   0  0  0  0  0  0  0  0  0  0  0  0
    7.4576    2.5179   25.2798 H   0  0  0  0  0  0  0  0  0  0  0  0
    8.8625    3.4872   24.7235 H   0  0  0  0  0  0  0  0  0  0  0  0
    8.6526    3.9171   22.0865 H   0  0  0  0  0  0  0  0  0  0  0  0
    5.9733    5.0384   21.7122 H   0  0  0  0  0  0  0  0  0  0  0  0
    7.2405    4.8848   20.4698 H   0  0  0  0  0  0  0  0  0  0  0  0
    6.1963    3.5113   20.9196 H   0  0  0  0  0  0  0  0  0  0  0  0
  1  2  1  0
  2  3  1  0
  3  4  2  0
  3  5  1  0
  5  6  1  0
  6  7  1  0
  8  7  1  1
  8  9  1  0
  9 10  2  0
  9 11  1  0
 11 12  1  0
 12 13  2  0
 13 14  1  0
 14 15  2  0
 15 16  1  0
 16 17  2  0
 17 18  1  0
 18 19  2  0
 19 20  1  0
 20 21  2  0
 20 22  1  0
 19 23  1  0
 18 24  1  0
 17 25  1  0
 15 26  1  0
 13 27  1  0
 11 28  1  0
 28 29  1  0
 29 30  1  0
 30 31  1  0
 31 32  3  0
 30 33  1  0
 30 34  1  0
 29 35  1  6
 28 36  1  0
 28 37  1  0
  8 38  1  0
 38 39  2  0
 39 40  1  0
 40 41  1  0
 40 42  2  0
 42 43  1  0
 43 44  2  0
 44 45  1  0
 45 46  2  0
 43 47  1  0
 42 48  1  0
 39 49  1  0
  7 50  1  0
  7 51  1  0
  5 52  1  0
  5 53  1  0
  2 54  1  0
  1 55  1  0
  1 56  1  0
  1 57  1  0
 45  6  1  0
 29  8  1  0
 44 38  1  0
 21 12  1  0
 21 16  1  0
M  END
>  <cnnaffinities>  (41) 
[6.46922]

>  <score>  (41) 
6.46922

>  <index>  (41) 
40

>  <Smiles>  (41) 
C(N(C(=O)C(N1C([C@@]2(C(=O)N(c3c(nc(c4c(c(c(c(c34)[H])[H])[H])[H])[H])[H])C([C@@]2(C(C#N)([H])[H])[H])([H])[H])c2c(c(Cl)c(c(c2C1=O)[H])[H])[H])([H])[H])([H])[H])[H])([H])([H])[H]

>  <h>  (41) 
<NA>

>  <Training>  (41) 
True

>  <Success>  (41) 
True

>  <enamine_searched>  (41) 
False

>  <enamine_id>  (41) 
nan

$$$$

     RDKit          3D

 68 73  0  0  0  0  0  0  0  0999 V2000
    7.1017   -2.4542   23.4493 C   0  0  0  0  0  0  0  0  0  0  0  0
    7.9836   -1.7757   22.3970 C   0  0  1  0  0  0  0  0  0  0  0  0
    7.3089   -1.6906   21.0160 C   0  0  0  0  0  0  0  0  0  0  0  0
    6.9444   -0.2978   20.8710 N   0  0  0  0  0  0  0  0  0  0  0  0
    6.1547    0.1451   19.7948 C   0  0  0  0  0  0  0  0  0  0  0  0
    6.4527   -0.2319   18.5081 C   0  0  0  0  0  0  0  0  0  0  0  0
    5.7820    0.1940   17.4119 N   0  0  0  0  0  0  0  0  0  0  0  0
    4.7637    0.9967   17.6147 C   0  0  0  0  0  0  0  0  0  0  0  0
    4.3128    1.4075   18.9016 C   0  0  0  0  0  0  0  0  0  0  0  0
    3.1855    2.2540   19.0617 C   0  0  0  0  0  0  0  0  0  0  0  0
    2.7496    2.6057   20.3094 C   0  0  0  0  0  0  0  0  0  0  0  0
    3.4115    2.1206   21.4595 C   0  0  0  0  0  0  0  0  0  0  0  0
    4.5127    1.3116   21.3332 C   0  0  0  0  0  0  0  0  0  0  0  0
    5.0076    0.9565   20.0419 C   0  0  0  0  0  0  0  0  0  0  0  0
    5.0172    0.9486   22.2238 H   0  0  0  0  0  0  0  0  0  0  0  0
    3.0595    2.4121   22.4463 H   0  0  0  0  0  0  0  0  0  0  0  0
    1.8961    3.2669   20.4225 H   0  0  0  0  0  0  0  0  0  0  0  0
    2.6955    2.6287   18.1686 H   0  0  0  0  0  0  0  0  0  0  0  0
    4.2314    1.3572   16.7351 H   0  0  0  0  0  0  0  0  0  0  0  0
    7.2975   -0.8930   18.3166 H   0  0  0  0  0  0  0  0  0  0  0  0
    7.6534    0.5479   21.6924 C   0  0  0  0  0  0  0  0  0  0  0  0
    7.6481    1.7624   21.6243 O   0  0  0  0  0  0  0  0  0  0  0  0
    8.4438   -0.3158   22.7044 C   0  0  1  0  0  0  0  0  0  0  0  0
    8.0989    0.1291   24.1398 C   0  0  0  0  0  0  0  0  0  0  0  0
    8.5986    1.4571   24.4311 N   0  0  0  0  0  0  0  0  0  0  0  0
    7.7742    2.3160   25.2519 C   0  0  0  0  0  0  0  0  0  0  0  0
    6.7405    3.0823   24.4328 C   0  0  0  0  0  0  0  0  0  0  0  0
    7.3661    4.1466   23.5782 N   0  0  0  0  0  4  0  0  0  0  0  0
    7.9324    5.2722   24.4330 C   0  0  0  0  0  0  0  0  0  0  0  0
    8.0272    6.6053   23.7006 C   0  0  0  0  0  0  0  0  0  0  0  0
    6.4075    7.2489   23.2607 S   0  0  0  0  0  0  0  0  0  0  0  0
    5.8247    7.8716   24.4474 O   0  0  0  0  0  0  0  0  0  0  0  0
    6.5438    8.0045   22.0190 O   0  0  0  0  0  0  0  0  0  0  0  0
    5.4952    5.7398   22.9199 C   0  0  0  0  0  0  0  0  0  0  0  0
    6.4357    4.6232   22.4814 C   0  0  0  0  0  0  0  0  0  0  0  0
    5.8580    3.7628   22.1415 H   0  0  0  0  0  0  0  0  0  0  0  0
    7.0514    4.9458   21.6384 H   0  0  0  0  0  0  0  0  0  0  0  0
    4.7793    6.0094   22.1416 H   0  0  0  0  0  0  0  0  0  0  0  0
    4.9514    5.4868   23.8346 H   0  0  0  0  0  0  0  0  0  0  0  0
    8.6068    6.5356   22.7763 H   0  0  0  0  0  0  0  0  0  0  0  0
    8.4615    7.3841   24.3312 H   0  0  0  0  0  0  0  0  0  0  0  0
    7.2988    5.3873   25.3178 H   0  0  0  0  0  0  0  0  0  0  0  0
    8.9293    4.9776   24.7641 H   0  0  0  0  0  0  0  0  0  0  0  0
    8.1508    3.6898   23.0812 H   0  0  0  0  0  0  0  0  0  0  0  0
    6.2165    2.3931   23.7618 H   0  0  0  0  0  0  0  0  0  0  0  0
    5.9991    3.5360   25.0990 H   0  0  0  0  0  0  0  0  0  0  0  0
    8.4553    2.9863   25.7737 H   0  0  0  0  0  0  0  0  0  0  0  0
    7.2706    1.6835   25.9873 H   0  0  0  0  0  0  0  0  0  0  0  0
    9.8538    1.8534   24.0922 C   0  0  0  0  0  0  0  0  0  0  0  0
   10.3600    2.8989   24.4954 O   0  0  0  0  0  0  0  0  0  0  0  0
   10.6018    0.9311   23.1813 C   0  0  0  0  0  0  0  0  0  0  0  0
   11.9713    1.1234   23.0414 C   0  0  0  0  0  0  0  0  0  0  0  0
   12.7348    0.2484   22.2850 C   0  0  0  0  0  0  0  0  0  0  0  0
   12.0752   -0.7831   21.6155 C   0  0  0  0  0  0  0  0  0  0  0  0
   12.9612   -1.8748   20.5826 Cl  0  0  0  0  0  0  0  0  0  0  0  0
   10.7050   -0.9440   21.7063 C   0  0  0  0  0  0  0  0  0  0  0  0
    9.9428   -0.1136   22.5290 C   0  0  0  0  0  0  0  0  0  0  0  0
   10.2270   -1.7129   21.1189 H   0  0  0  0  0  0  0  0  0  0  0  0
   13.8074    0.3708   22.1901 H   0  0  0  0  0  0  0  0  0  0  0  0
   12.3941    1.9961   23.5306 H   0  0  0  0  0  0  0  0  0  0  0  0
    8.5345   -0.5926   24.8439 H   0  0  0  0  0  0  0  0  0  0  0  0
    7.0160    0.1296   24.2865 H   0  0  0  0  0  0  0  0  0  0  0  0
    6.4139   -2.3149   20.9361 H   0  0  0  0  0  0  0  0  0  0  0  0
    8.0078   -1.9849   20.2237 H   0  0  0  0  0  0  0  0  0  0  0  0
    8.8675   -2.4134   22.3373 H   0  0  0  0  0  0  0  0  0  0  0  0
    7.6271   -2.5283   24.4062 H   0  0  0  0  0  0  0  0  0  0  0  0
    6.8737   -3.4762   23.1330 H   0  0  0  0  0  0  0  0  0  0  0  0
    6.1557   -1.9306   23.6153 H   0  0  0  0  0  0  0  0  0  0  0  0
  1  2  1  0
  2  3  1  0
  3  4  1  0
  4  5  1  0
  5  6  2  0
  6  7  1  0
  7  8  2  0
  8  9  1  0
  9 10  2  0
 10 11  1  0
 11 12  2  0
 12 13  1  0
 13 14  2  0
 13 15  1  0
 12 16  1  0
 11 17  1  0
 10 18  1  0
  8 19  1  0
  6 20  1  0
  4 21  1  0
 21 22  2  0
 21 23  1  0
 23 24  1  1
 24 25  1  0
 25 26  1  0
 26 27  1  0
 27 28  1  0
 28 29  1  0
 29 30  1  0
 30 31  1  0
 31 32  2  0
 31 33  2  0
 31 34  1  0
 34 35  1  0
 35 36  1  0
 35 37  1  0
 34 38  1  0
 34 39  1  0
 30 40  1  0
 30 41  1  0
 29 42  1  0
 29 43  1  0
 28 44  1  0
 27 45  1  0
 27 46  1  0
 26 47  1  0
 26 48  1  0
 25 49  1  0
 49 50  2  0
 49 51  1  0
 51 52  2  0
 52 53  1  0
 53 54  2  0
 54 55  1  0
 54 56  1  0
 56 57  2  0
 56 58  1  0
 53 59  1  0
 52 60  1  0
 24 61  1  0
 24 62  1  0
  3 63  1  0
  3 64  1  0
  2 65  1  6
  1 66  1  0
  1 67  1  0
  1 68  1  0
 23  2  1  0
 35 28  1  0
 57 51  1  0
 14  5  1  0
 57 23  1  0
 14  9  1  0
M  CHG  1  28   1
M  END
>  <cnnaffinities>  (42) 
[6.79079, 7.3171]

>  <score>  (42) 
6.79079

>  <index>  (42) 
41

>  <Smiles>  (42) 
C([C@]1(C(N(c2c(nc(c3c(c(c(c(c23)[H])[H])[H])[H])[H])[H])C(=O)[C@]21C(N(C(C([N+]1(C(C(S(=O)(=O)C(C1([H])[H])([H])[H])([H])[H])([H])[H])[H])([H])[H])([H])[H])C(=O)c1c(c(c(Cl)c(c21)[H])[H])[H])([H])[H])([H])[H])[H])([H])([H])[H]

>  <h>  (42) 
<NA>

>  <Training>  (42) 
True

>  <Success>  (42) 
True

>  <enamine_searched>  (42) 
False

>  <enamine_id>  (42) 
nan

$$$$

     RDKit          3D

 60 65  0  0  0  0  0  0  0  0999 V2000
    6.6934    4.3710   21.3001 C   0  0  0  0  0  0  0  0  0  0  0  0
    7.6657    3.9935   22.3062 N   0  0  0  0  0  0  0  0  0  0  0  0
    7.1771    3.3252   23.3868 C   0  0  0  0  0  0  0  0  0  0  0  0
    5.9760    3.1603   23.5372 O   0  0  0  0  0  0  0  0  0  0  0  0
    8.1589    2.7912   24.4196 C   0  0  0  0  0  0  0  0  0  0  0  0
    8.8533    1.6172   23.9362 N   0  0  0  0  0  0  0  0  0  0  0  0
    8.1172    0.3727   23.8133 C   0  0  0  0  0  0  0  0  0  0  0  0
    8.5427   -0.4237   22.5611 C   0  0  2  0  0  0  0  0  0  0  0  0
    8.0136    0.2624   21.2839 C   0  0  0  0  0  0  0  0  0  0  0  0
    8.4626    1.2568   20.7508 O   0  0  0  0  0  0  0  0  0  0  0  0
    6.9208   -0.4407   20.8269 N   0  0  0  0  0  0  0  0  0  0  0  0
    6.1256    0.0683   19.7699 C   0  0  0  0  0  0  0  0  0  0  0  0
    6.4648   -0.2252   18.4743 C   0  0  0  0  0  0  0  0  0  0  0  0
    5.7972    0.2232   17.3831 N   0  0  0  0  0  0  0  0  0  0  0  0
    4.7610    1.0014   17.5930 C   0  0  0  0  0  0  0  0  0  0  0  0
    4.3025    1.3911   18.8840 C   0  0  0  0  0  0  0  0  0  0  0  0
    3.1844    2.2484   19.0611 C   0  0  0  0  0  0  0  0  0  0  0  0
    2.7836    2.6223   20.3151 C   0  0  0  0  0  0  0  0  0  0  0  0
    3.4795    2.1605   21.4549 C   0  0  0  0  0  0  0  0  0  0  0  0
    4.5629    1.3255   21.3125 C   0  0  0  0  0  0  0  0  0  0  0  0
    5.0002    0.9134   20.0211 C   0  0  0  0  0  0  0  0  0  0  0  0
    5.1123    1.0108   22.1961 H   0  0  0  0  0  0  0  0  0  0  0  0
    3.1726    2.4811   22.4463 H   0  0  0  0  0  0  0  0  0  0  0  0
    1.9317    3.2846   20.4410 H   0  0  0  0  0  0  0  0  0  0  0  0
    2.6674    2.6157   18.1786 H   0  0  0  0  0  0  0  0  0  0  0  0
    4.2133    1.3607   16.7196 H   0  0  0  0  0  0  0  0  0  0  0  0
    7.3350   -0.8505   18.2849 H   0  0  0  0  0  0  0  0  0  0  0  0
    6.5778   -1.5893   21.6336 C   0  0  0  0  0  0  0  0  0  0  0  0
    7.8220   -1.7899   22.5110 C   0  0  2  0  0  0  0  0  0  0  0  0
    7.4541   -2.4945   23.8238 C   0  0  0  0  0  0  0  0  0  0  0  0
    6.8536   -3.8053   23.4325 C   0  0  0  0  0  0  0  0  0  0  0  0
    5.5777   -4.1221   23.5840 N   0  0  0  0  0  0  0  0  0  0  0  0
    5.4532   -5.3166   23.0114 N   0  0  0  0  0  0  0  0  0  0  0  0
    6.6099   -5.6940   22.5326 N   0  0  0  0  0  2  0  0  0  0  0  0
    7.5147   -4.7500   22.7763 N   0  0  0  0  0  0  0  0  0  0  0  0
    6.7088   -1.9352   24.3966 H   0  0  0  0  0  0  0  0  0  0  0  0
    8.3318   -2.6399   24.4603 H   0  0  0  0  0  0  0  0  0  0  0  0
    8.4772   -2.4956   21.9952 H   0  0  0  0  0  0  0  0  0  0  0  0
    6.3755   -2.4844   21.0357 H   0  0  0  0  0  0  0  0  0  0  0  0
    5.6819   -1.3952   22.2448 H   0  0  0  0  0  0  0  0  0  0  0  0
   10.0585   -0.4785   22.5146 C   0  0  0  0  0  0  0  0  0  0  0  0
   10.7181   -1.3735   21.6638 C   0  0  0  0  0  0  0  0  0  0  0  0
   12.1010   -1.3530   21.5707 C   0  0  0  0  0  0  0  0  0  0  0  0
   12.8789   -2.3663   20.3879 Cl  0  0  0  0  0  0  0  0  0  0  0  0
   12.8831   -0.4999   22.3544 C   0  0  0  0  0  0  0  0  0  0  0  0
   12.2347    0.4176   23.1548 C   0  0  0  0  0  0  0  0  0  0  0  0
   10.8419    0.4613   23.1942 C   0  0  0  0  0  0  0  0  0  0  0  0
   10.2199    1.6251   23.8987 C   0  0  0  0  0  0  0  0  0  0  0  0
   10.8905    2.5338   24.3647 O   0  0  0  0  0  0  0  0  0  0  0  0
   12.7794    1.1572   23.7321 H   0  0  0  0  0  0  0  0  0  0  0  0
   13.9679   -0.5423   22.3074 H   0  0  0  0  0  0  0  0  0  0  0  0
   10.1594   -2.0826   21.0607 H   0  0  0  0  0  0  0  0  0  0  0  0
    7.0441    0.5876   23.7839 H   0  0  0  0  0  0  0  0  0  0  0  0
    8.3071   -0.2494   24.6957 H   0  0  0  0  0  0  0  0  0  0  0  0
    7.5543    2.5460   25.3016 H   0  0  0  0  0  0  0  0  0  0  0  0
    8.9172    3.5377   24.6733 H   0  0  0  0  0  0  0  0  0  0  0  0
    8.6177    3.8859   21.9844 H   0  0  0  0  0  0  0  0  0  0  0  0
    6.1930    3.4908   20.8778 H   0  0  0  0  0  0  0  0  0  0  0  0
    5.9357    5.0122   21.7505 H   0  0  0  0  0  0  0  0  0  0  0  0
    7.1767    4.9197   20.4974 H   0  0  0  0  0  0  0  0  0  0  0  0
  1  2  1  0
  2  3  1  0
  3  4  2  0
  3  5  1  0
  5  6  1  0
  6  7  1  0
  8  7  1  1
  8  9  1  0
  9 10  2  0
  9 11  1  0
 11 12  1  0
 12 13  2  0
 13 14  1  0
 14 15  2  0
 15 16  1  0
 16 17  2  0
 17 18  1  0
 18 19  2  0
 19 20  1  0
 20 21  2  0
 20 22  1  0
 19 23  1  0
 18 24  1  0
 17 25  1  0
 15 26  1  0
 13 27  1  0
 11 28  1  0
 28 29  1  0
 29 30  1  0
 30 31  1  0
 31 32  1  0
 32 33  2  0
 33 34  1  0
 34 35  1  0
 30 36  1  0
 30 37  1  0
 29 38  1  6
 28 39  1  0
 28 40  1  0
  8 41  1  0
 41 42  2  0
 42 43  1  0
 43 44  1  0
 43 45  2  0
 45 46  1  0
 46 47  2  0
 47 48  1  0
 48 49  2  0
 46 50  1  0
 45 51  1  0
 42 52  1  0
  7 53  1  0
  7 54  1  0
  5 55  1  0
  5 56  1  0
  2 57  1  0
  1 58  1  0
  1 59  1  0
  1 60  1  0
 48  6  1  0
 29  8  1  0
 35 31  2  0
 47 41  1  0
 21 12  1  0
 21 16  1  0
M  CHG  1  34  -1
M  END
>  <cnnaffinities>  (43) 
[6.95266, 6.95232]

>  <score>  (43) 
6.95266

>  <index>  (43) 
42

>  <Smiles>  (43) 
C(N(C(=O)C(N1C([C@@]2(C(=O)N(c3c(nc(c4c(c(c(c(c34)[H])[H])[H])[H])[H])[H])C([C@@]2(C(c2nn[n-]n2)([H])[H])[H])([H])[H])c2c(c(Cl)c(c(c2C1=O)[H])[H])[H])([H])[H])([H])[H])[H])([H])([H])[H]

>  <h>  (43) 
<NA>

>  <Training>  (43) 
True

>  <Success>  (43) 
True

>  <enamine_searched>  (43) 
False

>  <enamine_id>  (43) 
nan

$$$$

     RDKit          3D

 62 67  0  0  0  0  0  0  0  0999 V2000
    4.5216    3.3907   24.9954 C   0  0  0  0  0  0  0  0  0  0  0  0
    5.6626    4.3189   25.4204 C   0  0  0  0  0  0  0  0  0  0  0  0
    6.7133    3.6353   26.1666 N   0  0  0  0  0  0  0  0  0  0  0  0
    6.6135    3.5819   27.5050 N   0  0  0  0  0  0  0  0  0  0  0  0
    7.6378    2.8454   27.9073 C   0  0  0  0  0  0  0  0  0  0  0  0
    8.4110    2.4095   26.8141 C   0  0  0  0  0  0  0  0  0  0  0  0
    7.7812    2.9249   25.7043 C   0  0  0  0  0  0  0  0  0  0  0  0
    8.1802    2.8070   24.2561 C   0  0  0  0  0  0  0  0  0  0  0  0
    8.8544    1.5680   23.9417 N   0  0  0  0  0  0  0  0  0  0  0  0
    8.0900    0.3443   23.8767 C   0  0  0  0  0  0  0  0  0  0  0  0
    8.4681   -0.4820   22.6263 C   0  0  2  0  0  0  0  0  0  0  0  0
    7.9650    0.2552   21.3600 C   0  0  0  0  0  0  0  0  0  0  0  0
    8.3873    1.2974   20.8998 O   0  0  0  0  0  0  0  0  0  0  0  0
    6.9100   -0.4460   20.8253 N   0  0  0  0  0  0  0  0  0  0  0  0
    6.1364    0.0991   19.7620 C   0  0  0  0  0  0  0  0  0  0  0  0
    6.4550   -0.2124   18.4685 C   0  0  0  0  0  0  0  0  0  0  0  0
    5.7711    0.2277   17.3812 N   0  0  0  0  0  0  0  0  0  0  0  0
    4.7443    1.0119   17.5947 C   0  0  0  0  0  0  0  0  0  0  0  0
    4.2923    1.4088   18.8846 C   0  0  0  0  0  0  0  0  0  0  0  0
    3.1661    2.2569   19.0642 C   0  0  0  0  0  0  0  0  0  0  0  0
    2.7603    2.6231   20.3163 C   0  0  0  0  0  0  0  0  0  0  0  0
    3.4614    2.1536   21.4530 C   0  0  0  0  0  0  0  0  0  0  0  0
    4.5533    1.3344   21.3057 C   0  0  0  0  0  0  0  0  0  0  0  0
    5.0042    0.9409   20.0141 C   0  0  0  0  0  0  0  0  0  0  0  0
    5.0863    0.9803   22.1842 H   0  0  0  0  0  0  0  0  0  0  0  0
    3.1370    2.4515   22.4471 H   0  0  0  0  0  0  0  0  0  0  0  0
    1.9097    3.2881   20.4409 H   0  0  0  0  0  0  0  0  0  0  0  0
    2.6559    2.6305   18.1791 H   0  0  0  0  0  0  0  0  0  0  0  0
    4.2153    1.3785   16.7128 H   0  0  0  0  0  0  0  0  0  0  0  0
    7.3004   -0.8642   18.2588 H   0  0  0  0  0  0  0  0  0  0  0  0
    6.5130   -1.6098   21.5929 C   0  0  0  0  0  0  0  0  0  0  0  0
    7.6913   -1.8422   22.5655 C   0  0  2  0  0  0  0  0  0  0  0  0
    7.2209   -2.4472   23.8981 C   0  0  0  0  0  0  0  0  0  0  0  0
    6.7427   -3.4224   23.7358 H   0  0  0  0  0  0  0  0  0  0  0  0
    8.0496   -2.5989   24.6005 H   0  0  0  0  0  0  0  0  0  0  0  0
    6.4823   -1.8022   24.3929 H   0  0  0  0  0  0  0  0  0  0  0  0
    8.3763   -2.5562   22.1007 H   0  0  0  0  0  0  0  0  0  0  0  0
    5.5739   -1.4304   22.1398 H   0  0  0  0  0  0  0  0  0  0  0  0
    6.3392   -2.4621   20.9254 H   0  0  0  0  0  0  0  0  0  0  0  0
    9.9867   -0.5919   22.5803 C   0  0  0  0  0  0  0  0  0  0  0  0
   10.6010   -1.5209   21.7305 C   0  0  0  0  0  0  0  0  0  0  0  0
   11.9785   -1.5604   21.6589 C   0  0  0  0  0  0  0  0  0  0  0  0
   12.5753   -2.3854   20.7842 F   0  0  0  0  0  0  0  0  0  0  0  0
   12.7933   -0.7464   22.4362 C   0  0  0  0  0  0  0  0  0  0  0  0
   12.1975    0.2201   23.2179 C   0  0  0  0  0  0  0  0  0  0  0  0
   10.8061    0.3308   23.2510 C   0  0  0  0  0  0  0  0  0  0  0  0
   10.2190    1.5247   23.9440 C   0  0  0  0  0  0  0  0  0  0  0  0
   10.9069    2.4023   24.4456 O   0  0  0  0  0  0  0  0  0  0  0  0
   12.7841    0.9414   23.7775 H   0  0  0  0  0  0  0  0  0  0  0  0
   13.8671   -0.8689   22.3610 H   0  0  0  0  0  0  0  0  0  0  0  0
   10.0325   -2.1809   21.0839 H   0  0  0  0  0  0  0  0  0  0  0  0
    8.2657   -0.2655   24.7791 H   0  0  0  0  0  0  0  0  0  0  0  0
    7.0346    0.6189   23.8371 H   0  0  0  0  0  0  0  0  0  0  0  0
    7.3064    2.8815   23.5926 H   0  0  0  0  0  0  0  0  0  0  0  0
    8.8788    3.6088   23.9929 H   0  0  0  0  0  0  0  0  0  0  0  0
    9.3152    1.8203   26.7921 H   0  0  0  0  0  0  0  0  0  0  0  0
    7.7743    2.6597   28.9682 H   0  0  0  0  0  0  0  0  0  0  0  0
    5.2954    5.1116   26.0832 H   0  0  0  0  0  0  0  0  0  0  0  0
    6.1296    4.7949   24.5501 H   0  0  0  0  0  0  0  0  0  0  0  0
    3.7779    3.9550   24.4213 H   0  0  0  0  0  0  0  0  0  0  0  0
    4.8876    2.5751   24.3568 H   0  0  0  0  0  0  0  0  0  0  0  0
    4.0276    2.9559   25.8715 H   0  0  0  0  0  0  0  0  0  0  0  0
  1  2  1  0
  2  3  1  0
  3  4  1  0
  4  5  2  0
  5  6  1  0
  6  7  2  0
  7  8  1  0
  8  9  1  0
  9 10  1  0
 11 10  1  1
 11 12  1  0
 12 13  2  0
 12 14  1  0
 14 15  1  0
 15 16  2  0
 16 17  1  0
 17 18  2  0
 18 19  1  0
 19 20  2  0
 20 21  1  0
 21 22  2  0
 22 23  1  0
 23 24  2  0
 23 25  1  0
 22 26  1  0
 21 27  1  0
 20 28  1  0
 18 29  1  0
 16 30  1  0
 14 31  1  0
 31 32  1  0
 32 33  1  0
 33 34  1  0
 33 35  1  0
 33 36  1  0
 32 37  1  6
 31 38  1  0
 31 39  1  0
 11 40  1  0
 40 41  2  0
 41 42  1  0
 42 43  1  0
 42 44  2  0
 44 45  1  0
 45 46  2  0
 46 47  1  0
 47 48  2  0
 45 49  1  0
 44 50  1  0
 41 51  1  0
 10 52  1  0
 10 53  1  0
  8 54  1  0
  8 55  1  0
  6 56  1  0
  5 57  1  0
  2 58  1  0
  2 59  1  0
  1 60  1  0
  1 61  1  0
  1 62  1  0
  7  3  1  0
 47  9  1  0
 32 11  1  0
 46 40  1  0
 24 15  1  0
 24 19  1  0
M  END
>  <cnnaffinities>  (44) 
[6.33562, 6.70988, 6.82152, 6.35699, 6.83623, 6.65814]

>  <score>  (44) 
6.33562

>  <index>  (44) 
43

>  <Smiles>  (44) 
C(C(n1nc(c(c1C(N1C([C@@]2(C(=O)N(c3c(nc(c4c(c(c(c(c34)[H])[H])[H])[H])[H])[H])C([C@@]2(C([H])([H])[H])[H])([H])[H])c2c(c(F)c(c(c2C1=O)[H])[H])[H])([H])[H])([H])[H])[H])[H])([H])[H])([H])([H])[H]

>  <h>  (44) 
<NA>

>  <Training>  (44) 
True

>  <Success>  (44) 
True

>  <enamine_searched>  (44) 
False

>  <enamine_id>  (44) 
nan

$$$$

     RDKit          3D

 56 60  0  0  0  0  0  0  0  0999 V2000
    6.6986    4.3564   21.2855 C   0  0  0  0  0  0  0  0  0  0  0  0
    7.6918    3.9791   22.2774 N   0  0  0  0  0  0  0  0  0  0  0  0
    7.2082    3.3078   23.3613 C   0  0  0  0  0  0  0  0  0  0  0  0
    6.0063    3.1548   23.5276 O   0  0  0  0  0  0  0  0  0  0  0  0
    8.1916    2.7533   24.3900 C   0  0  0  0  0  0  0  0  0  0  0  0
    8.8848    1.5820   23.8968 N   0  0  0  0  0  0  0  0  0  0  0  0
    8.1565    0.3276   23.7870 C   0  0  0  0  0  0  0  0  0  0  0  0
    8.5705   -0.4610   22.5244 C   0  0  2  0  0  0  0  0  0  0  0  0
    8.0442    0.2496   21.2591 C   0  0  0  0  0  0  0  0  0  0  0  0
    8.5108    1.2329   20.7211 O   0  0  0  0  0  0  0  0  0  0  0  0
    6.9257   -0.4175   20.8217 N   0  0  0  0  0  0  0  0  0  0  0  0
    6.1366    0.0919   19.7623 C   0  0  0  0  0  0  0  0  0  0  0  0
    6.4688   -0.2139   18.4684 C   0  0  0  0  0  0  0  0  0  0  0  0
    5.7926    0.2255   17.3798 N   0  0  0  0  0  0  0  0  0  0  0  0
    4.7569    1.0038   17.5908 C   0  0  0  0  0  0  0  0  0  0  0  0
    4.3012    1.3956   18.8817 C   0  0  0  0  0  0  0  0  0  0  0  0
    3.1825    2.2513   19.0613 C   0  0  0  0  0  0  0  0  0  0  0  0
    2.7823    2.6253   20.3152 C   0  0  0  0  0  0  0  0  0  0  0  0
    3.4786    2.1616   21.4548 C   0  0  0  0  0  0  0  0  0  0  0  0
    4.5627    1.3279   21.3096 C   0  0  0  0  0  0  0  0  0  0  0  0
    5.0033    0.9233   20.0172 C   0  0  0  0  0  0  0  0  0  0  0  0
    5.1123    1.0130   22.1928 H   0  0  0  0  0  0  0  0  0  0  0  0
    3.1742    2.4821   22.4473 H   0  0  0  0  0  0  0  0  0  0  0  0
    1.9333    3.2913   20.4415 H   0  0  0  0  0  0  0  0  0  0  0  0
    2.6681    2.6218   18.1790 H   0  0  0  0  0  0  0  0  0  0  0  0
    4.2104    1.3621   16.7165 H   0  0  0  0  0  0  0  0  0  0  0  0
    7.3331   -0.8464   18.2746 H   0  0  0  0  0  0  0  0  0  0  0  0
    6.5668   -1.5667   21.6201 C   0  0  0  0  0  0  0  0  0  0  0  0
    7.8400   -1.8322   22.4446 C   0  0  2  0  0  0  0  0  0  0  0  0
    7.4724   -2.5428   23.7432 C   0  0  0  0  0  0  0  0  0  0  0  0
    8.8920   -3.0326   24.7085 Cl  0  0  0  0  0  0  0  0  0  0  0  0
    6.8494   -1.9123   24.3827 H   0  0  0  0  0  0  0  0  0  0  0  0
    6.9154   -3.4576   23.5360 H   0  0  0  0  0  0  0  0  0  0  0  0
    8.4770   -2.5088   21.8747 H   0  0  0  0  0  0  0  0  0  0  0  0
    5.7026   -1.3570   22.2707 H   0  0  0  0  0  0  0  0  0  0  0  0
    6.3058   -2.4136   20.9784 H   0  0  0  0  0  0  0  0  0  0  0  0
   10.0848   -0.5142   22.4840 C   0  0  0  0  0  0  0  0  0  0  0  0
   10.7493   -1.4092   21.6381 C   0  0  0  0  0  0  0  0  0  0  0  0
   12.1313   -1.3775   21.5433 C   0  0  0  0  0  0  0  0  0  0  0  0
   12.9097   -2.3830   20.3555 Cl  0  0  0  0  0  0  0  0  0  0  0  0
   12.9108   -0.5190   22.3220 C   0  0  0  0  0  0  0  0  0  0  0  0
   12.2579    0.3993   23.1157 C   0  0  0  0  0  0  0  0  0  0  0  0
   10.8680    0.4340   23.1555 C   0  0  0  0  0  0  0  0  0  0  0  0
   10.2480    1.6002   23.8473 C   0  0  0  0  0  0  0  0  0  0  0  0
   10.9170    2.5253   24.3004 O   0  0  0  0  0  0  0  0  0  0  0  0
   12.7907    1.1486   23.6891 H   0  0  0  0  0  0  0  0  0  0  0  0
   13.9950   -0.5596   22.2770 H   0  0  0  0  0  0  0  0  0  0  0  0
   10.2007   -2.1318   21.0422 H   0  0  0  0  0  0  0  0  0  0  0  0
    7.0837    0.5500   23.7719 H   0  0  0  0  0  0  0  0  0  0  0  0
    8.3666   -0.2921   24.6667 H   0  0  0  0  0  0  0  0  0  0  0  0
    7.5788    2.5093   25.2704 H   0  0  0  0  0  0  0  0  0  0  0  0
    8.9598    3.4923   24.6446 H   0  0  0  0  0  0  0  0  0  0  0  0
    8.6419    3.8493   21.9597 H   0  0  0  0  0  0  0  0  0  0  0  0
    5.9522    4.9983   21.7634 H   0  0  0  0  0  0  0  0  0  0  0  0
    7.1780    4.9014   20.4831 H   0  0  0  0  0  0  0  0  0  0  0  0
    6.1971    3.4626   20.8878 H   0  0  0  0  0  0  0  0  0  0  0  0
  1  2  1  0
  2  3  1  0
  3  4  2  0
  3  5  1  0
  5  6  1  0
  6  7  1  0
  8  7  1  1
  8  9  1  0
  9 10  2  0
  9 11  1  0
 11 12  1  0
 12 13  2  0
 13 14  1  0
 14 15  2  0
 15 16  1  0
 16 17  2  0
 17 18  1  0
 18 19  2  0
 19 20  1  0
 20 21  2  0
 20 22  1  0
 19 23  1  0
 18 24  1  0
 17 25  1  0
 15 26  1  0
 13 27  1  0
 11 28  1  0
 28 29  1  0
 29 30  1  0
 30 31  1  0
 30 32  1  0
 30 33  1  0
 29 34  1  6
 28 35  1  0
 28 36  1  0
  8 37  1  0
 37 38  2  0
 38 39  1  0
 39 40  1  0
 39 41  2  0
 41 42  1  0
 42 43  2  0
 43 44  1  0
 44 45  2  0
 42 46  1  0
 41 47  1  0
 38 48  1  0
  7 49  1  0
  7 50  1  0
  5 51  1  0
  5 52  1  0
  2 53  1  0
  1 54  1  0
  1 55  1  0
  1 56  1  0
 44  6  1  0
 29  8  1  0
 43 37  1  0
 21 12  1  0
 21 16  1  0
M  END
>  <cnnaffinities>  (45) 
[6.8763]

>  <score>  (45) 
6.8763

>  <index>  (45) 
44

>  <Smiles>  (45) 
C(N(C(=O)C(N1C([C@@]2(C(=O)N(c3c(nc(c4c(c(c(c(c34)[H])[H])[H])[H])[H])[H])C([C@@]2(C(Cl)([H])[H])[H])([H])[H])c2c(c(Cl)c(c(c2C1=O)[H])[H])[H])([H])[H])([H])[H])[H])([H])([H])[H]

>  <h>  (45) 
<NA>

>  <Training>  (45) 
True

>  <Success>  (45) 
True

>  <enamine_searched>  (45) 
False

>  <enamine_id>  (45) 
nan

$$$$

     RDKit          3D

 60 64  0  0  0  0  0  0  0  0999 V2000
    6.5075    4.4019   21.4389 C   0  0  0  0  0  0  0  0  0  0  0  0
    7.4676    4.0066   22.4558 N   0  0  0  0  0  0  0  0  0  0  0  0
    7.0091    3.3371   23.5544 C   0  0  0  0  0  0  0  0  0  0  0  0
    5.8195    3.1128   23.7420 O   0  0  0  0  0  0  0  0  0  0  0  0
    8.1069    2.8786   24.5272 C   0  0  0  0  0  0  0  0  0  0  0  0
    8.8482    1.7700   23.9409 N   0  0  0  0  0  0  0  0  0  0  0  0
    8.1212    0.5264   23.7345 C   0  0  0  0  0  0  0  0  0  0  0  0
    8.5792   -0.2395   22.4682 C   0  0  2  0  0  0  0  0  0  0  0  0
    8.0538    0.4620   21.1876 C   0  0  0  0  0  0  0  0  0  0  0  0
    8.4685    1.4732   20.6607 O   0  0  0  0  0  0  0  0  0  0  0  0
    6.9959   -0.2673   20.7049 N   0  0  0  0  0  0  0  0  0  0  0  0
    6.1708    0.2012   19.6643 C   0  0  0  0  0  0  0  0  0  0  0  0
    6.4697   -0.1482   18.3775 C   0  0  0  0  0  0  0  0  0  0  0  0
    5.7478    0.2412   17.3022 N   0  0  0  0  0  0  0  0  0  0  0  0
    4.7008    1.0017   17.5283 C   0  0  0  0  0  0  0  0  0  0  0  0
    4.2591    1.3981   18.8258 C   0  0  0  0  0  0  0  0  0  0  0  0
    3.1295    2.2368   19.0294 C   0  0  0  0  0  0  0  0  0  0  0  0
    2.7505    2.6058   20.2936 C   0  0  0  0  0  0  0  0  0  0  0  0
    3.4736    2.1521   21.4197 C   0  0  0  0  0  0  0  0  0  0  0  0
    4.5714    1.3402   21.2524 C   0  0  0  0  0  0  0  0  0  0  0  0
    5.0025    0.9660   19.9450 C   0  0  0  0  0  0  0  0  0  0  0  0
    5.1476    1.0258   22.1189 H   0  0  0  0  0  0  0  0  0  0  0  0
    3.1927    2.4775   22.4191 H   0  0  0  0  0  0  0  0  0  0  0  0
    1.8998    3.2686   20.4363 H   0  0  0  0  0  0  0  0  0  0  0  0
    2.6019    2.6047   18.1562 H   0  0  0  0  0  0  0  0  0  0  0  0
    4.1432    1.3452   16.6567 H   0  0  0  0  0  0  0  0  0  0  0  0
    7.3421   -0.7714   18.1863 H   0  0  0  0  0  0  0  0  0  0  0  0
    6.6390   -1.4247   21.4750 C   0  0  0  0  0  0  0  0  0  0  0  0
    7.8724   -1.6333   22.3593 C   0  0  2  0  0  0  0  0  0  0  0  0
    7.4366   -2.3111   23.6469 C   0  0  0  0  0  0  0  0  0  0  0  0
    6.6744   -3.4401   23.2972 O   0  0  0  0  0  0  0  0  0  0  0  0
    6.2244   -4.1071   24.4412 C   0  0  0  0  0  0  0  0  0  0  0  0
    7.0844   -4.3709   25.0754 H   0  0  0  0  0  0  0  0  0  0  0  0
    5.7080   -5.0137   24.1157 H   0  0  0  0  0  0  0  0  0  0  0  0
    5.5293   -3.5033   25.0506 H   0  0  0  0  0  0  0  0  0  0  0  0
    8.2988   -2.5813   24.2789 H   0  0  0  0  0  0  0  0  0  0  0  0
    6.8039   -1.6355   24.2438 H   0  0  0  0  0  0  0  0  0  0  0  0
    8.5458   -2.3098   21.8287 H   0  0  0  0  0  0  0  0  0  0  0  0
    6.4272   -2.2747   20.8207 H   0  0  0  0  0  0  0  0  0  0  0  0
    5.7310   -1.2543   22.0738 H   0  0  0  0  0  0  0  0  0  0  0  0
   10.0963   -0.2722   22.4682 C   0  0  0  0  0  0  0  0  0  0  0  0
   10.7727   -1.1814   21.6449 C   0  0  0  0  0  0  0  0  0  0  0  0
   12.1538   -1.1835   21.5970 C   0  0  0  0  0  0  0  0  0  0  0  0
   12.9458   -2.2418   20.4625 Cl  0  0  0  0  0  0  0  0  0  0  0  0
   12.9096   -0.3348   22.4044 C   0  0  0  0  0  0  0  0  0  0  0  0
   12.2513    0.5718   23.2116 C   0  0  0  0  0  0  0  0  0  0  0  0
   10.8593    0.6497   23.2043 C   0  0  0  0  0  0  0  0  0  0  0  0
   10.2173    1.7719   23.9732 C   0  0  0  0  0  0  0  0  0  0  0  0
   10.8689    2.6310   24.5526 O   0  0  0  0  0  0  0  0  0  0  0  0
   12.8020    1.2444   23.8596 H   0  0  0  0  0  0  0  0  0  0  0  0
   13.9915   -0.3782   22.3756 H   0  0  0  0  0  0  0  0  0  0  0  0
   10.2403   -1.8962   21.0264 H   0  0  0  0  0  0  0  0  0  0  0  0
    7.0569    0.7682   23.6586 H   0  0  0  0  0  0  0  0  0  0  0  0
    8.2719   -0.1261   24.6059 H   0  0  0  0  0  0  0  0  0  0  0  0
    8.8383    3.6612   24.7656 H   0  0  0  0  0  0  0  0  0  0  0  0
    7.6238    2.5881   25.4666 H   0  0  0  0  0  0  0  0  0  0  0  0
    8.3928    3.7741   22.1215 H   0  0  0  0  0  0  0  0  0  0  0  0
    5.6758    4.9287   21.9053 H   0  0  0  0  0  0  0  0  0  0  0  0
    6.0785    3.5416   20.9102 H   0  0  0  0  0  0  0  0  0  0  0  0
    6.9790    5.0674   20.7144 H   0  0  0  0  0  0  0  0  0  0  0  0
  1  2  1  0
  2  3  1  0
  3  4  2  0
  3  5  1  0
  5  6  1  0
  6  7  1  0
  8  7  1  1
  8  9  1  0
  9 10  2  0
  9 11  1  0
 11 12  1  0
 12 13  2  0
 13 14  1  0
 14 15  2  0
 15 16  1  0
 16 17  2  0
 17 18  1  0
 18 19  2  0
 19 20  1  0
 20 21  2  0
 20 22  1  0
 19 23  1  0
 18 24  1  0
 17 25  1  0
 15 26  1  0
 13 27  1  0
 11 28  1  0
 28 29  1  0
 29 30  1  0
 30 31  1  0
 31 32  1  0
 32 33  1  0
 32 34  1  0
 32 35  1  0
 30 36  1  0
 30 37  1  0
 29 38  1  6
 28 39  1  0
 28 40  1  0
  8 41  1  0
 41 42  2  0
 42 43  1  0
 43 44  1  0
 43 45  2  0
 45 46  1  0
 46 47  2  0
 47 48  1  0
 48 49  2  0
 46 50  1  0
 45 51  1  0
 42 52  1  0
  7 53  1  0
  7 54  1  0
  5 55  1  0
  5 56  1  0
  2 57  1  0
  1 58  1  0
  1 59  1  0
  1 60  1  0
 48  6  1  0
 29  8  1  0
 47 41  1  0
 21 12  1  0
 21 16  1  0
M  END
>  <cnnaffinities>  (46) 
[6.49301, 6.70811]

>  <score>  (46) 
6.49301

>  <index>  (46) 
45

>  <Smiles>  (46) 
C(N(C(=O)C(N1C([C@@]2(C(=O)N(c3c(nc(c4c(c(c(c(c34)[H])[H])[H])[H])[H])[H])C([C@@]2(C(OC([H])([H])[H])([H])[H])[H])([H])[H])c2c(c(Cl)c(c(c2C1=O)[H])[H])[H])([H])[H])([H])[H])[H])([H])([H])[H]

>  <h>  (46) 
<NA>

>  <Training>  (46) 
True

>  <Success>  (46) 
True

>  <enamine_searched>  (46) 
False

>  <enamine_id>  (46) 
nan

$$$$

     RDKit          3D

 64 68  0  0  0  0  0  0  0  0999 V2000
    9.1779   -3.6365   25.4128 C   0  0  0  0  0  0  0  0  0  0  0  0
    8.6034   -4.4599   24.2739 C   0  0  0  0  0  0  0  0  0  0  0  0
    6.9706   -3.9803   23.7069 S   0  0  0  0  0  0  0  0  0  0  0  0
    6.7572   -4.6495   22.4290 O   0  0  0  0  0  0  0  0  0  0  0  0
    5.9845   -4.1153   24.7645 O   0  0  0  0  0  0  0  0  0  0  0  0
    7.1512   -2.3303   23.5225 N   0  0  0  0  0  0  0  0  0  0  0  0
    7.9196   -1.7831   22.4079 C   0  0  1  0  0  0  0  0  0  0  0  0
    7.1501   -1.7321   21.0772 C   0  0  0  0  0  0  0  0  0  0  0  0
    6.9192   -0.3280   20.8527 N   0  0  0  0  0  0  0  0  0  0  0  0
    6.1330    0.1270   19.7798 C   0  0  0  0  0  0  0  0  0  0  0  0
    6.4441   -0.2260   18.4904 C   0  0  0  0  0  0  0  0  0  0  0  0
    5.7765    0.2069   17.3964 N   0  0  0  0  0  0  0  0  0  0  0  0
    4.7500    0.9995   17.6028 C   0  0  0  0  0  0  0  0  0  0  0  0
    4.2918    1.3961   18.8932 C   0  0  0  0  0  0  0  0  0  0  0  0
    3.1597    2.2356   19.0603 C   0  0  0  0  0  0  0  0  0  0  0  0
    2.7320    2.5860   20.3111 C   0  0  0  0  0  0  0  0  0  0  0  0
    3.4093    2.1110   21.4571 C   0  0  0  0  0  0  0  0  0  0  0  0
    4.5085    1.3008   21.3227 C   0  0  0  0  0  0  0  0  0  0  0  0
    4.9891    0.9389   20.0301 C   0  0  0  0  0  0  0  0  0  0  0  0
    5.0214    0.9548   22.2144 H   0  0  0  0  0  0  0  0  0  0  0  0
    3.0763    2.4058   22.4478 H   0  0  0  0  0  0  0  0  0  0  0  0
    1.8691    3.2323   20.4291 H   0  0  0  0  0  0  0  0  0  0  0  0
    2.6593    2.6069   18.1700 H   0  0  0  0  0  0  0  0  0  0  0  0
    4.2173    1.3637   16.7256 H   0  0  0  0  0  0  0  0  0  0  0  0
    7.3003   -0.8711   18.3013 H   0  0  0  0  0  0  0  0  0  0  0  0
    7.6902    0.5074   21.6277 C   0  0  0  0  0  0  0  0  0  0  0  0
    7.7540    1.7122   21.4930 O   0  0  0  0  0  0  0  0  0  0  0  0
    8.4384   -0.3481   22.6731 C   0  0  1  0  0  0  0  0  0  0  0  0
    8.1068    0.1662   24.0953 C   0  0  0  0  0  0  0  0  0  0  0  0
    8.7160    1.4629   24.3524 N   0  0  0  0  0  0  0  0  0  0  0  0
    7.9613    2.4603   25.0882 C   0  0  0  0  0  0  0  0  0  0  0  0
    6.8553    3.0731   24.2189 C   0  0  0  0  0  0  0  0  0  0  0  0
    5.7123    2.6469   24.2319 O   0  0  0  0  0  0  0  0  0  0  0  0
    7.2532    4.1193   23.4382 N   0  0  0  0  0  0  0  0  0  0  0  0
    6.3257    4.6228   22.4354 C   0  0  0  0  0  0  0  0  0  0  0  0
    5.4625    5.0838   22.9288 H   0  0  0  0  0  0  0  0  0  0  0  0
    5.9758    3.8084   21.7837 H   0  0  0  0  0  0  0  0  0  0  0  0
    6.8239    5.3813   21.8273 H   0  0  0  0  0  0  0  0  0  0  0  0
    8.2436    4.1983   23.2313 H   0  0  0  0  0  0  0  0  0  0  0  0
    7.4937    1.9914   25.9597 H   0  0  0  0  0  0  0  0  0  0  0  0
    8.6703    3.2207   25.4276 H   0  0  0  0  0  0  0  0  0  0  0  0
   10.0131    1.7389   24.0253 C   0  0  0  0  0  0  0  0  0  0  0  0
   10.5866    2.7414   24.4281 O   0  0  0  0  0  0  0  0  0  0  0  0
   10.6811    0.7568   23.1155 C   0  0  0  0  0  0  0  0  0  0  0  0
   12.0571    0.8789   22.9250 C   0  0  0  0  0  0  0  0  0  0  0  0
   12.7416   -0.0102   22.1206 C   0  0  0  0  0  0  0  0  0  0  0  0
   12.0043   -0.9962   21.4671 C   0  0  0  0  0  0  0  0  0  0  0  0
   12.8134   -2.1100   20.4045 Cl  0  0  0  0  0  0  0  0  0  0  0  0
   10.6334   -1.1049   21.6153 C   0  0  0  0  0  0  0  0  0  0  0  0
    9.9464   -0.2484   22.4834 C   0  0  0  0  0  0  0  0  0  0  0  0
   10.1062   -1.8404   21.0176 H   0  0  0  0  0  0  0  0  0  0  0  0
   13.8137    0.0692   21.9671 H   0  0  0  0  0  0  0  0  0  0  0  0
   12.5538    1.7102   23.4096 H   0  0  0  0  0  0  0  0  0  0  0  0
    7.0271    0.2742   24.2199 H   0  0  0  0  0  0  0  0  0  0  0  0
    8.4714   -0.5607   24.8291 H   0  0  0  0  0  0  0  0  0  0  0  0
    7.7762   -2.1321   20.2786 H   0  0  0  0  0  0  0  0  0  0  0  0
    6.2151   -2.3015   21.1108 H   0  0  0  0  0  0  0  0  0  0  0  0
    8.7772   -2.4458   22.3090 H   0  0  0  0  0  0  0  0  0  0  0  0
    6.2768   -1.8560   23.7340 H   0  0  0  0  0  0  0  0  0  0  0  0
    9.2361   -4.4399   23.3811 H   0  0  0  0  0  0  0  0  0  0  0  0
    8.5146   -5.5022   24.5734 H   0  0  0  0  0  0  0  0  0  0  0  0
    8.4674   -3.5754   26.2412 H   0  0  0  0  0  0  0  0  0  0  0  0
   10.0871   -4.1351   25.7638 H   0  0  0  0  0  0  0  0  0  0  0  0
    9.4505   -2.6281   25.0880 H   0  0  0  0  0  0  0  0  0  0  0  0
  1  2  1  0
  2  3  1  0
  3  4  2  0
  3  5  2  0
  3  6  1  0
  6  7  1  0
  7  8  1  0
  8  9  1  0
  9 10  1  0
 10 11  2  0
 11 12  1  0
 12 13  2  0
 13 14  1  0
 14 15  2  0
 15 16  1  0
 16 17  2  0
 17 18  1  0
 18 19  2  0
 18 20  1  0
 17 21  1  0
 16 22  1  0
 15 23  1  0
 13 24  1  0
 11 25  1  0
  9 26  1  0
 26 27  2  0
 26 28  1  0
 28 29  1  1
 29 30  1  0
 30 31  1  0
 31 32  1  0
 32 33  2  0
 32 34  1  0
 34 35  1  0
 35 36  1  0
 35 37  1  0
 35 38  1  0
 34 39  1  0
 31 40  1  0
 31 41  1  0
 30 42  1  0
 42 43  2  0
 42 44  1  0
 44 45  2  0
 45 46  1  0
 46 47  2  0
 47 48  1  0
 47 49  1  0
 49 50  2  0
 49 51  1  0
 46 52  1  0
 45 53  1  0
 29 54  1  0
 29 55  1  0
  8 56  1  0
  8 57  1  0
  7 58  1  6
  6 59  1  0
  2 60  1  0
  2 61  1  0
  1 62  1  0
  1 63  1  0
  1 64  1  0
 28  7  1  0
 50 44  1  0
 19 10  1  0
 50 28  1  0
 19 14  1  0
M  END
>  <cnnaffinities>  (47) 
[6.42712, 6.41103]

>  <score>  (47) 
6.42712

>  <index>  (47) 
46

>  <Smiles>  (47) 
C(C(S(=O)(=O)N([C@]1(C(N(c2c(nc(c3c(c(c(c(c23)[H])[H])[H])[H])[H])[H])C(=O)[C@]21C(N(C(C(=O)N(C([H])([H])[H])[H])([H])[H])C(=O)c1c(c(c(Cl)c(c21)[H])[H])[H])([H])[H])([H])[H])[H])[H])([H])[H])([H])([H])[H]

>  <h>  (47) 
<NA>

>  <Training>  (47) 
True

>  <Success>  (47) 
True

>  <enamine_searched>  (47) 
False

>  <enamine_id>  (47) 
nan

$$$$

     RDKit          3D

 56 60  0  0  0  0  0  0  0  0999 V2000
    6.7412    4.4461   21.3066 C   0  0  0  0  0  0  0  0  0  0  0  0
    7.6244    4.0371   22.3876 N   0  0  0  0  0  0  0  0  0  0  0  0
    7.0649    3.3706   23.4215 C   0  0  0  0  0  0  0  0  0  0  0  0
    5.8537    3.2379   23.5308 O   0  0  0  0  0  0  0  0  0  0  0  0
    8.0077    2.7962   24.4920 C   0  0  0  0  0  0  0  0  0  0  0  0
    8.7552    1.6287   24.0578 N   0  0  0  0  0  0  0  0  0  0  0  0
    8.0510    0.3662   23.9172 C   0  0  0  0  0  0  0  0  0  0  0  0
    8.4796   -0.3971   22.6392 C   0  0  2  0  0  0  0  0  0  0  0  0
    7.9513    0.3317   21.3748 C   0  0  0  0  0  0  0  0  0  0  0  0
    8.3524    1.3772   20.9079 O   0  0  0  0  0  0  0  0  0  0  0  0
    6.9295   -0.4085   20.8298 N   0  0  0  0  0  0  0  0  0  0  0  0
    6.1448    0.1088   19.7620 C   0  0  0  0  0  0  0  0  0  0  0  0
    6.4579   -0.2116   18.4667 C   0  0  0  0  0  0  0  0  0  0  0  0
    5.7737    0.2252   17.3803 N   0  0  0  0  0  0  0  0  0  0  0  0
    4.7464    1.0129   17.5911 C   0  0  0  0  0  0  0  0  0  0  0  0
    4.2943    1.4129   18.8814 C   0  0  0  0  0  0  0  0  0  0  0  0
    3.1698    2.2655   19.0640 C   0  0  0  0  0  0  0  0  0  0  0  0
    2.7653    2.6304   20.3187 C   0  0  0  0  0  0  0  0  0  0  0  0
    3.4621    2.1550   21.4518 C   0  0  0  0  0  0  0  0  0  0  0  0
    4.5521    1.3310   21.3019 C   0  0  0  0  0  0  0  0  0  0  0  0
    5.0089    0.9445   20.0105 C   0  0  0  0  0  0  0  0  0  0  0  0
    5.0845    0.9808   22.1812 H   0  0  0  0  0  0  0  0  0  0  0  0
    3.1564    2.4600   22.4481 H   0  0  0  0  0  0  0  0  0  0  0  0
    1.9181    3.3011   20.4454 H   0  0  0  0  0  0  0  0  0  0  0  0
    2.6614    2.6424   18.1803 H   0  0  0  0  0  0  0  0  0  0  0  0
    4.2165    1.3780   16.7109 H   0  0  0  0  0  0  0  0  0  0  0  0
    7.3028   -0.8641   18.2573 H   0  0  0  0  0  0  0  0  0  0  0  0
    6.5911   -1.6048   21.5733 C   0  0  0  0  0  0  0  0  0  0  0  0
    7.7811   -1.7966   22.5402 C   0  0  2  0  0  0  0  0  0  0  0  0
    7.3517   -2.4688   23.8518 C   0  0  0  0  0  0  0  0  0  0  0  0
    6.9343   -3.4641   23.6598 H   0  0  0  0  0  0  0  0  0  0  0  0
    6.5756   -1.8867   24.3638 H   0  0  0  0  0  0  0  0  0  0  0  0
    8.1883   -2.5909   24.5489 H   0  0  0  0  0  0  0  0  0  0  0  0
    8.5046   -2.4541   22.0531 H   0  0  0  0  0  0  0  0  0  0  0  0
    5.6449   -1.4809   22.1240 H   0  0  0  0  0  0  0  0  0  0  0  0
    6.4588   -2.4539   20.8924 H   0  0  0  0  0  0  0  0  0  0  0  0
   10.0001   -0.4147   22.5869 C   0  0  0  0  0  0  0  0  0  0  0  0
   10.6623   -1.3009   21.7277 C   0  0  0  0  0  0  0  0  0  0  0  0
   12.0401   -1.2890   21.6702 C   0  0  0  0  0  0  0  0  0  0  0  0
   12.6623   -2.1501   20.8491 F   0  0  0  0  0  0  0  0  0  0  0  0
   12.8132   -0.4090   22.4182 C   0  0  0  0  0  0  0  0  0  0  0  0
   12.1634    0.5172   23.2078 C   0  0  0  0  0  0  0  0  0  0  0  0
   10.7692    0.5401   23.2695 C   0  0  0  0  0  0  0  0  0  0  0  0
   10.1216    1.6765   24.0061 C   0  0  0  0  0  0  0  0  0  0  0  0
   10.7772    2.5920   24.4875 O   0  0  0  0  0  0  0  0  0  0  0  0
   12.7045    1.2650   23.7785 H   0  0  0  0  0  0  0  0  0  0  0  0
   13.8925   -0.4506   22.3400 H   0  0  0  0  0  0  0  0  0  0  0  0
   10.1318   -1.9796   21.0698 H   0  0  0  0  0  0  0  0  0  0  0  0
    6.9853    0.6002   23.8611 H   0  0  0  0  0  0  0  0  0  0  0  0
    8.2322   -0.2767   24.7945 H   0  0  0  0  0  0  0  0  0  0  0  0
    7.3558    2.5456   25.3375 H   0  0  0  0  0  0  0  0  0  0  0  0
    8.7621    3.5170   24.8205 H   0  0  0  0  0  0  0  0  0  0  0  0
    8.6248    3.9923   22.2571 H   0  0  0  0  0  0  0  0  0  0  0  0
    7.3034    4.9515   20.5265 H   0  0  0  0  0  0  0  0  0  0  0  0
    6.2152    3.5699   20.9041 H   0  0  0  0  0  0  0  0  0  0  0  0
    5.9922    5.1444   21.6890 H   0  0  0  0  0  0  0  0  0  0  0  0
  1  2  1  0
  2  3  1  0
  3  4  2  0
  3  5  1  0
  5  6  1  0
  6  7  1  0
  8  7  1  1
  8  9  1  0
  9 10  2  0
  9 11  1  0
 11 12  1  0
 12 13  2  0
 13 14  1  0
 14 15  2  0
 15 16  1  0
 16 17  2  0
 17 18  1  0
 18 19  2  0
 19 20  1  0
 20 21  2  0
 20 22  1  0
 19 23  1  0
 18 24  1  0
 17 25  1  0
 15 26  1  0
 13 27  1  0
 11 28  1  0
 28 29  1  0
 29 30  1  0
 30 31  1  0
 30 32  1  0
 30 33  1  0
 29 34  1  6
 28 35  1  0
 28 36  1  0
  8 37  1  0
 37 38  2  0
 38 39  1  0
 39 40  1  0
 39 41  2  0
 41 42  1  0
 42 43  2  0
 43 44  1  0
 44 45  2  0
 42 46  1  0
 41 47  1  0
 38 48  1  0
  7 49  1  0
  7 50  1  0
  5 51  1  0
  5 52  1  0
  2 53  1  0
  1 54  1  0
  1 55  1  0
  1 56  1  0
 44  6  1  0
 29  8  1  0
 43 37  1  0
 21 12  1  0
 21 16  1  0
M  END
>  <cnnaffinities>  (48) 
[6.5377]

>  <score>  (48) 
6.5377

>  <index>  (48) 
47

>  <Smiles>  (48) 
C(N(C(=O)C(N1C([C@@]2(C(=O)N(c3c(nc(c4c(c(c(c(c34)[H])[H])[H])[H])[H])[H])C([C@@]2(C([H])([H])[H])[H])([H])[H])c2c(c(F)c(c(c2C1=O)[H])[H])[H])([H])[H])([H])[H])[H])([H])([H])[H]

>  <h>  (48) 
<NA>

>  <Training>  (48) 
True

>  <Success>  (48) 
True

>  <enamine_searched>  (48) 
False

>  <enamine_id>  (48) 
nan

$$$$

     RDKit          3D

 41 43  0  0  0  0  0  0  0  0999 V2000
   12.3433   -1.3460   22.1011 C   0  0  0  0  0  0  0  0  0  0  0  0
   11.0294   -0.6331   22.3481 C   0  0  1  0  0  0  0  0  0  0  0  0
    9.9031   -1.6112   22.6939 C   0  0  0  0  0  0  0  0  0  0  0  0
    8.6663   -0.9409   23.3219 C   0  0  0  0  0  0  0  0  0  0  0  0
    8.3528    0.3964   22.8165 N   0  0  0  0  0  0  0  0  0  0  0  0
    7.8704    0.6134   21.5381 C   0  0  0  0  0  0  0  0  0  0  0  0
    8.1309    1.6327   20.9230 O   0  0  0  0  0  0  0  0  0  0  0  0
    6.9466   -0.4552   20.9116 C   0  0  0  0  0  0  0  0  0  0  0  0
    6.1144    0.0836   19.7698 C   0  0  0  0  0  0  0  0  0  0  0  0
    6.4269   -0.2076   18.4661 C   0  0  0  0  0  0  0  0  0  0  0  0
    5.7632    0.2407   17.3652 N   0  0  0  0  0  0  0  0  0  0  0  0
    4.7348    1.0275   17.5758 C   0  0  0  0  0  0  0  0  0  0  0  0
    4.2882    1.4210   18.8681 C   0  0  0  0  0  0  0  0  0  0  0  0
    3.1663    2.2731   19.0444 C   0  0  0  0  0  0  0  0  0  0  0  0
    2.7644    2.6443   20.2997 C   0  0  0  0  0  0  0  0  0  0  0  0
    3.4650    2.1709   21.4310 C   0  0  0  0  0  0  0  0  0  0  0  0
    4.5510    1.3408   21.2875 C   0  0  0  0  0  0  0  0  0  0  0  0
    4.9964    0.9440   19.9978 C   0  0  0  0  0  0  0  0  0  0  0  0
    5.0811    0.9906   22.1679 H   0  0  0  0  0  0  0  0  0  0  0  0
    3.1406    2.4709   22.4223 H   0  0  0  0  0  0  0  0  0  0  0  0
    1.9140    3.3079   20.4343 H   0  0  0  0  0  0  0  0  0  0  0  0
    2.6459    2.6479   18.1659 H   0  0  0  0  0  0  0  0  0  0  0  0
    4.1989    1.3982   16.6999 H   0  0  0  0  0  0  0  0  0  0  0  0
    7.2736   -0.8552   18.2445 H   0  0  0  0  0  0  0  0  0  0  0  0
    6.2914   -0.8955   21.6753 H   0  0  0  0  0  0  0  0  0  0  0  0
    7.5766   -1.2740   20.5362 H   0  0  0  0  0  0  0  0  0  0  0  0
    9.0758    1.4952   23.4621 C   0  0  0  0  0  0  0  0  0  0  0  0
   10.5753    1.5635   23.1569 C   0  0  0  0  0  0  0  0  0  0  0  0
   11.2442    0.3370   23.3655 O   0  0  0  0  0  0  0  0  0  0  0  0
   11.0613    2.2957   23.8207 H   0  0  0  0  0  0  0  0  0  0  0  0
   10.7287    1.9066   22.1237 H   0  0  0  0  0  0  0  0  0  0  0  0
    8.9597    1.3717   24.5431 H   0  0  0  0  0  0  0  0  0  0  0  0
    8.6040    2.4416   23.1862 H   0  0  0  0  0  0  0  0  0  0  0  0
    8.8276   -0.8428   24.3967 H   0  0  0  0  0  0  0  0  0  0  0  0
    7.7905   -1.5821   23.2013 H   0  0  0  0  0  0  0  0  0  0  0  0
   10.2853   -2.3824   23.3759 H   0  0  0  0  0  0  0  0  0  0  0  0
    9.6149   -2.1342   21.7720 H   0  0  0  0  0  0  0  0  0  0  0  0
   10.7363   -0.0996   21.4425 H   0  0  0  0  0  0  0  0  0  0  0  0
   13.1158   -0.6286   21.8107 H   0  0  0  0  0  0  0  0  0  0  0  0
   12.2327   -2.0795   21.2970 H   0  0  0  0  0  0  0  0  0  0  0  0
   12.6715   -1.8600   23.0087 H   0  0  0  0  0  0  0  0  0  0  0  0
  1  2  1  0
  2  3  1  0
  3  4  1  0
  4  5  1  0
  5  6  1  0
  6  7  2  0
  6  8  1  0
  8  9  1  0
  9 10  2  0
 10 11  1  0
 11 12  2  0
 12 13  1  0
 13 14  2  0
 14 15  1  0
 15 16  2  0
 16 17  1  0
 17 18  2  0
 17 19  1  0
 16 20  1  0
 15 21  1  0
 14 22  1  0
 12 23  1  0
 10 24  1  0
  8 25  1  0
  8 26  1  0
  5 27  1  0
 27 28  1  0
 28 29  1  0
 28 30  1  0
 28 31  1  0
 27 32  1  0
 27 33  1  0
  4 34  1  0
  4 35  1  0
  3 36  1  0
  3 37  1  0
  2 38  1  6
  1 39  1  0
  1 40  1  0
  1 41  1  0
 29  2  1  0
 18  9  1  0
 18 13  1  0
M  END
>  <cnnaffinities>  (49) 
[5.43462, 5.37311, 4.73613, 5.38391]

>  <score>  (49) 
5.43462

>  <index>  (49) 
48

>  <Smiles>  (49) 
C([C@]1(C(C(N(C(=O)C(c2c(nc(c3c(c(c(c(c23)[H])[H])[H])[H])[H])[H])([H])[H])C(C(O1)([H])[H])([H])[H])([H])[H])([H])[H])[H])([H])([H])[H]

>  <h>  (49) 
<NA>

>  <Training>  (49) 
True

>  <Success>  (49) 
True

>  <enamine_searched>  (49) 
False

>  <enamine_id>  (49) 
nan

$$$$

     RDKit          3D

 42 45  0  0  0  0  0  0  0  0999 V2000
    6.7966   -4.3187   21.6174 C   0  0  0  0  0  0  0  0  0  0  0  0
    7.3863   -3.1850   22.3114 N   0  0  0  0  0  0  0  0  0  0  0  0
    8.6947   -2.7201   21.8910 C   0  0  0  0  0  0  0  0  0  0  0  0
    8.8765   -1.2175   22.0743 C   0  0  1  0  0  0  0  0  0  0  0  0
    8.1971   -0.3187   21.0345 C   0  0  0  0  0  0  0  0  0  0  0  0
    8.8141    0.5601   20.4569 O   0  0  0  0  0  0  0  0  0  0  0  0
    6.8545   -0.5065   20.8598 N   0  0  0  0  0  0  0  0  0  0  0  0
    6.1304    0.0455   19.7819 C   0  0  0  0  0  0  0  0  0  0  0  0
    6.4836   -0.2344   18.4902 C   0  0  0  0  0  0  0  0  0  0  0  0
    5.8145    0.2111   17.3994 N   0  0  0  0  0  0  0  0  0  0  0  0
    4.7708    0.9755   17.6130 C   0  0  0  0  0  0  0  0  0  0  0  0
    4.3014    1.3511   18.8991 C   0  0  0  0  0  0  0  0  0  0  0  0
    3.1840    2.2048   19.0709 C   0  0  0  0  0  0  0  0  0  0  0  0
    2.7926    2.5814   20.3230 C   0  0  0  0  0  0  0  0  0  0  0  0
    3.4936    2.1207   21.4603 C   0  0  0  0  0  0  0  0  0  0  0  0
    4.5759    1.2833   21.3245 C   0  0  0  0  0  0  0  0  0  0  0  0
    4.9982    0.8785   20.0327 C   0  0  0  0  0  0  0  0  0  0  0  0
    5.1225    0.9377   22.1994 H   0  0  0  0  0  0  0  0  0  0  0  0
    3.1837    2.4525   22.4451 H   0  0  0  0  0  0  0  0  0  0  0  0
    1.9600    3.2682   20.4485 H   0  0  0  0  0  0  0  0  0  0  0  0
    2.6825    2.5782   18.1835 H   0  0  0  0  0  0  0  0  0  0  0  0
    4.2511    1.3456   16.7316 H   0  0  0  0  0  0  0  0  0  0  0  0
    7.3515   -0.8605   18.2916 H   0  0  0  0  0  0  0  0  0  0  0  0
    6.3915   -1.2108   21.4124 H   0  0  0  0  0  0  0  0  0  0  0  0
    8.4616   -0.8603   23.4758 C   0  0  0  0  0  0  0  0  0  0  0  0
    8.9824    0.2827   24.0766 C   0  0  0  0  0  0  0  0  0  0  0  0
    8.5480    0.6425   25.3424 C   0  0  0  0  0  0  0  0  0  0  0  0
    9.1872    2.0790   26.0835 Cl  0  0  0  0  0  0  0  0  0  0  0  0
    7.6044   -0.1231   26.0271 C   0  0  0  0  0  0  0  0  0  0  0  0
    7.1076   -1.2712   25.4375 C   0  0  0  0  0  0  0  0  0  0  0  0
    7.5258   -1.6338   24.1625 C   0  0  0  0  0  0  0  0  0  0  0  0
    6.9018   -2.8550   23.5488 C   0  0  0  0  0  0  0  0  0  0  0  0
    6.0097   -3.4855   24.0934 O   0  0  0  0  0  0  0  0  0  0  0  0
    6.3685   -1.9059   25.9168 H   0  0  0  0  0  0  0  0  0  0  0  0
    7.2613    0.1723   27.0095 H   0  0  0  0  0  0  0  0  0  0  0  0
    9.6977    0.8902   23.5327 H   0  0  0  0  0  0  0  0  0  0  0  0
    9.9316   -1.0087   21.9017 H   0  0  0  0  0  0  0  0  0  0  0  0
    9.5096   -3.2329   22.4343 H   0  0  0  0  0  0  0  0  0  0  0  0
    8.7943   -2.9536   20.8409 H   0  0  0  0  0  0  0  0  0  0  0  0
    7.5825   -4.9053   21.1341 H   0  0  0  0  0  0  0  0  0  0  0  0
    6.2842   -4.9480   22.3429 H   0  0  0  0  0  0  0  0  0  0  0  0
    6.0636   -4.0169   20.8603 H   0  0  0  0  0  0  0  0  0  0  0  0
  1  2  1  0
  2  3  1  0
  3  4  1  0
  4  5  1  0
  5  6  2  0
  5  7  1  0
  7  8  1  0
  8  9  2  0
  9 10  1  0
 10 11  2  0
 11 12  1  0
 12 13  2  0
 13 14  1  0
 14 15  2  0
 15 16  1  0
 16 17  2  0
 16 18  1  0
 15 19  1  0
 14 20  1  0
 13 21  1  0
 11 22  1  0
  9 23  1  0
  7 24  1  0
  4 25  1  0
 25 26  2  0
 26 27  1  0
 27 28  1  0
 27 29  2  0
 29 30  1  0
 30 31  2  0
 31 32  1  0
 32 33  2  0
 30 34  1  0
 29 35  1  0
 26 36  1  0
  4 37  1  1
  3 38  1  0
  3 39  1  0
  1 40  1  0
  1 41  1  0
  1 42  1  0
 32  2  1  0
 17  8  1  0
 31 25  1  0
 17 12  1  0
M  END
>  <cnnaffinities>  (50) 
[5.35398]

>  <score>  (50) 
5.35398

>  <index>  (50) 
49

>  <Smiles>  (50) 
C(N1C([C@@](C(=O)N(c2c(nc(c3c(c(c(c(c23)[H])[H])[H])[H])[H])[H])[H])(c2c(c(Cl)c(c(c2C1=O)[H])[H])[H])[H])([H])[H])([H])([H])[H]

>  <h>  (50) 
<NA>

>  <Training>  (50) 
True

>  <Success>  (50) 
True

>  <enamine_searched>  (50) 
False

>  <enamine_id>  (50) 
nan

$$$$

     RDKit          3D

 38 41  0  0  0  0  0  0  0  0999 V2000
    7.8617    1.7417   21.1704 O   0  0  0  0  0  0  0  0  0  0  0  0
    8.0093    0.5587   21.4162 C   0  0  0  0  0  0  0  0  0  0  0  0
    6.9695   -0.4692   20.8963 C   0  0  0  0  0  0  0  0  0  0  0  0
    6.1153    0.0813   19.7725 C   0  0  0  0  0  0  0  0  0  0  0  0
    6.4243   -0.2091   18.4678 C   0  0  0  0  0  0  0  0  0  0  0  0
    5.7638    0.2414   17.3674 N   0  0  0  0  0  0  0  0  0  0  0  0
    4.7345    1.0282   17.5769 C   0  0  0  0  0  0  0  0  0  0  0  0
    4.2885    1.4210   18.8688 C   0  0  0  0  0  0  0  0  0  0  0  0
    3.1662    2.2738   19.0429 C   0  0  0  0  0  0  0  0  0  0  0  0
    2.7655    2.6485   20.2979 C   0  0  0  0  0  0  0  0  0  0  0  0
    3.4676    2.1790   21.4292 C   0  0  0  0  0  0  0  0  0  0  0  0
    4.5530    1.3477   21.2865 C   0  0  0  0  0  0  0  0  0  0  0  0
    4.9972    0.9448   19.9991 C   0  0  0  0  0  0  0  0  0  0  0  0
    5.0927    1.0133   22.1655 H   0  0  0  0  0  0  0  0  0  0  0  0
    3.1461    2.4843   22.4199 H   0  0  0  0  0  0  0  0  0  0  0  0
    1.9153    3.3123   20.4309 H   0  0  0  0  0  0  0  0  0  0  0  0
    2.6452    2.6465   18.1637 H   0  0  0  0  0  0  0  0  0  0  0  0
    4.1991    1.3982   16.7004 H   0  0  0  0  0  0  0  0  0  0  0  0
    7.2713   -0.8553   18.2448 H   0  0  0  0  0  0  0  0  0  0  0  0
    6.3239   -0.7871   21.7266 H   0  0  0  0  0  0  0  0  0  0  0  0
    7.4808   -1.3737   20.5359 H   0  0  0  0  0  0  0  0  0  0  0  0
    9.1027    0.1045   22.1279 N   0  0  0  0  0  0  0  0  0  0  0  0
   10.3117    0.9323   22.1977 C   0  0  0  0  0  0  0  0  0  0  0  0
   10.8630    1.0271   23.6160 C   0  0  0  0  0  0  0  0  0  0  0  0
   10.9270   -0.3393   24.2240 C   0  0  0  0  0  0  0  0  0  0  0  0
   11.9146   -0.7817   25.5761 S   0  0  0  0  0  0  0  0  0  0  0  0
   11.2732   -2.3843   25.5672 C   0  0  0  0  0  0  0  0  0  0  0  0
   10.3570   -2.5620   24.5722 C   0  0  0  0  0  0  0  0  0  0  0  0
   10.1618   -1.3780   23.7961 C   0  0  0  0  0  0  0  0  0  0  0  0
    9.2121   -1.2563   22.6325 C   0  0  0  0  0  0  0  0  0  0  0  0
    9.5232   -1.9674   21.8514 H   0  0  0  0  0  0  0  0  0  0  0  0
    8.2305   -1.6038   22.9702 H   0  0  0  0  0  0  0  0  0  0  0  0
    9.8382   -3.5028   24.4029 H   0  0  0  0  0  0  0  0  0  0  0  0
   11.6044   -3.1084   26.3012 H   0  0  0  0  0  0  0  0  0  0  0  0
   10.2078    1.6642   24.2185 H   0  0  0  0  0  0  0  0  0  0  0  0
   11.8476    1.5074   23.6138 H   0  0  0  0  0  0  0  0  0  0  0  0
   11.0934    0.4989   21.5683 H   0  0  0  0  0  0  0  0  0  0  0  0
   10.0854    1.9234   21.8029 H   0  0  0  0  0  0  0  0  0  0  0  0
  1  2  2  0
  2  3  1  0
  3  4  1  0
  4  5  2  0
  5  6  1  0
  6  7  2  0
  7  8  1  0
  8  9  2  0
  9 10  1  0
 10 11  2  0
 11 12  1  0
 12 13  2  0
 12 14  1  0
 11 15  1  0
 10 16  1  0
  9 17  1  0
  7 18  1  0
  5 19  1  0
  3 20  1  0
  3 21  1  0
  2 22  1  0
 22 23  1  0
 23 24  1  0
 24 25  1  0
 25 26  1  0
 26 27  1  0
 27 28  2  0
 28 29  1  0
 29 30  1  0
 30 31  1  0
 30 32  1  0
 28 33  1  0
 27 34  1  0
 24 35  1  0
 24 36  1  0
 23 37  1  0
 23 38  1  0
 13  4  1  0
 30 22  1  0
 13  8  1  0
 29 25  2  0
M  END
>  <cnnaffinities>  (51) 
[5.48271]

>  <score>  (51) 
5.48271

>  <index>  (51) 
50

>  <Smiles>  (51) 
O=C(C(c1c(nc(c2c(c(c(c(c12)[H])[H])[H])[H])[H])[H])([H])[H])N1C(C(c2sc(c(c2C1([H])[H])[H])[H])([H])[H])([H])[H]

>  <h>  (51) 
<NA>

>  <Training>  (51) 
True

>  <Success>  (51) 
True

>  <enamine_searched>  (51) 
False

>  <enamine_id>  (51) 
nan

$$$$

     RDKit          3D

 67 73  0  0  0  0  0  0  0  0999 V2000
    7.1797    3.3475   29.5767 C   0  0  0  0  0  0  0  0  0  0  0  0
    6.7435    2.7475   28.2870 C   0  0  0  0  0  0  0  0  0  0  0  0
    5.7861    1.9141   28.0599 N   0  0  0  0  0  0  0  0  0  0  0  0
    5.7839    1.6819   26.6868 N   0  0  0  0  0  0  0  0  0  0  0  0
    6.7422    2.3869   26.2011 C   0  0  0  0  0  0  0  0  0  0  0  0
    7.1370    2.5032   24.7609 C   0  0  0  0  0  0  0  0  0  0  0  0
    8.0680    1.4802   24.3462 N   0  0  0  0  0  0  0  0  0  0  0  0
    7.5954    0.1454   24.0324 C   0  0  0  0  0  0  0  0  0  0  0  0
    8.2789   -0.4023   22.7503 C   0  0  2  0  0  0  0  0  0  0  0  0
    7.7785    0.3732   21.5129 C   0  0  0  0  0  0  0  0  0  0  0  0
    8.0545    1.5061   21.1855 O   0  0  0  0  0  0  0  0  0  0  0  0
    6.9217   -0.4428   20.8113 N   0  0  0  0  0  0  0  0  0  0  0  0
    6.1308    0.0767   19.7634 C   0  0  0  0  0  0  0  0  0  0  0  0
    6.4487   -0.2427   18.4702 C   0  0  0  0  0  0  0  0  0  0  0  0
    5.7814    0.2049   17.3791 N   0  0  0  0  0  0  0  0  0  0  0  0
    4.7569    0.9961   17.5939 C   0  0  0  0  0  0  0  0  0  0  0  0
    4.3112    1.3923   18.8877 C   0  0  0  0  0  0  0  0  0  0  0  0
    3.1854    2.2400   19.0532 C   0  0  0  0  0  0  0  0  0  0  0  0
    2.7660    2.6018   20.3025 C   0  0  0  0  0  0  0  0  0  0  0  0
    3.4473    2.1320   21.4466 C   0  0  0  0  0  0  0  0  0  0  0  0
    4.5445    1.3158   21.3151 C   0  0  0  0  0  0  0  0  0  0  0  0
    5.0085    0.9252   20.0215 C   0  0  0  0  0  0  0  0  0  0  0  0
    5.0598    0.9729   22.2091 H   0  0  0  0  0  0  0  0  0  0  0  0
    3.0960    2.4224   22.4325 H   0  0  0  0  0  0  0  0  0  0  0  0
    1.9071    3.2553   20.4210 H   0  0  0  0  0  0  0  0  0  0  0  0
    2.6794    2.6026   18.1629 H   0  0  0  0  0  0  0  0  0  0  0  0
    4.2111    1.3608   16.7224 H   0  0  0  0  0  0  0  0  0  0  0  0
    7.3055   -0.8868   18.2822 H   0  0  0  0  0  0  0  0  0  0  0  0
    6.6537   -1.7119   21.4465 C   0  0  0  0  0  0  0  0  0  0  0  0
    7.8313   -1.8594   22.4187 C   0  0  2  0  0  0  0  0  0  0  0  0
    7.5123   -2.7434   23.6385 C   0  0  0  0  0  0  0  0  0  0  0  0
    7.2952   -4.1457   23.3432 N   0  0  0  0  0  0  0  0  0  0  0  0
    6.1099   -4.6871   22.9465 C   0  0  0  0  0  0  0  0  0  0  0  0
    4.8540   -4.0854   23.1623 C   0  0  0  0  0  0  0  0  0  0  0  0
    3.7479   -4.7682   22.7014 C   0  0  0  0  0  0  0  0  0  0  0  0
    3.8261   -5.9186   22.0339 N   0  0  0  0  0  0  0  0  0  0  0  0
    5.0508   -6.4024   21.9020 C   0  0  0  0  0  0  0  0  0  0  0  0
    6.1926   -5.8839   22.3405 N   0  0  0  0  0  0  0  0  0  0  0  0
    5.1002   -7.3396   21.3502 H   0  0  0  0  0  0  0  0  0  0  0  0
    2.7438   -4.3761   22.8640 H   0  0  0  0  0  0  0  0  0  0  0  0
    4.7367   -3.1105   23.6173 H   0  0  0  0  0  0  0  0  0  0  0  0
    8.0920   -4.6943   23.0444 H   0  0  0  0  0  0  0  0  0  0  0  0
    6.6257   -2.3565   24.1531 H   0  0  0  0  0  0  0  0  0  0  0  0
    8.3355   -2.6776   24.3574 H   0  0  0  0  0  0  0  0  0  0  0  0
    8.6489   -2.3319   21.8640 H   0  0  0  0  0  0  0  0  0  0  0  0
    5.6846   -1.7055   21.9721 H   0  0  0  0  0  0  0  0  0  0  0  0
    6.6121   -2.5058   20.6982 H   0  0  0  0  0  0  0  0  0  0  0  0
    9.7710   -0.2082   22.9172 C   0  0  0  0  0  0  0  0  0  0  0  0
   10.6733   -0.9189   22.1209 C   0  0  0  0  0  0  0  0  0  0  0  0
   12.0326   -0.7196   22.2692 C   0  0  0  0  0  0  0  0  0  0  0  0
   13.1209   -1.6169   21.2570 Cl  0  0  0  0  0  0  0  0  0  0  0  0
   12.5516    0.1864   23.1929 C   0  0  0  0  0  0  0  0  0  0  0  0
   11.6612    0.9266   23.9398 C   0  0  0  0  0  0  0  0  0  0  0  0
   10.2901    0.7591   23.7841 C   0  0  0  0  0  0  0  0  0  0  0  0
    9.4039    1.7188   24.5059 C   0  0  0  0  0  0  0  0  0  0  0  0
    9.8401    2.6620   25.1476 O   0  0  0  0  0  0  0  0  0  0  0  0
   11.9856    1.6764   24.6454 H   0  0  0  0  0  0  0  0  0  0  0  0
   13.6225    0.3227   23.2968 H   0  0  0  0  0  0  0  0  0  0  0  0
   10.3331   -1.6242   21.3716 H   0  0  0  0  0  0  0  0  0  0  0  0
    7.8184   -0.5338   24.8685 H   0  0  0  0  0  0  0  0  0  0  0  0
    6.5064    0.1747   23.9200 H   0  0  0  0  0  0  0  0  0  0  0  0
    7.5923    3.4758   24.5614 H   0  0  0  0  0  0  0  0  0  0  0  0
    6.2329    2.4053   24.1499 H   0  0  0  0  0  0  0  0  0  0  0  0
    7.4107    3.0834   27.1504 O   0  0  0  0  0  0  0  0  0  0  0  0
    7.7099    4.2865   29.4052 H   0  0  0  0  0  0  0  0  0  0  0  0
    6.3156    3.5243   30.2205 H   0  0  0  0  0  0  0  0  0  0  0  0
    7.8493    2.6581   30.0997 H   0  0  0  0  0  0  0  0  0  0  0  0
  1  2  1  0
  2  3  2  0
  3  4  1  0
  4  5  2  0
  5  6  1  0
  6  7  1  0
  7  8  1  0
  9  8  1  1
  9 10  1  0
 10 11  2  0
 10 12  1  0
 12 13  1  0
 13 14  2  0
 14 15  1  0
 15 16  2  0
 16 17  1  0
 17 18  2  0
 18 19  1  0
 19 20  2  0
 20 21  1  0
 21 22  2  0
 21 23  1  0
 20 24  1  0
 19 25  1  0
 18 26  1  0
 16 27  1  0
 14 28  1  0
 12 29  1  0
 29 30  1  0
 30 31  1  0
 31 32  1  0
 32 33  1  0
 33 34  2  0
 34 35  1  0
 35 36  2  0
 36 37  1  0
 37 38  2  0
 37 39  1  0
 35 40  1  0
 34 41  1  0
 32 42  1  0
 31 43  1  0
 31 44  1  0
 30 45  1  6
 29 46  1  0
 29 47  1  0
  9 48  1  0
 48 49  2  0
 49 50  1  0
 50 51  1  0
 50 52  2  0
 52 53  1  0
 53 54  2  0
 54 55  1  0
 55 56  2  0
 53 57  1  0
 52 58  1  0
 49 59  1  0
  8 60  1  0
  8 61  1  0
  6 62  1  0
  6 63  1  0
  5 64  1  0
  1 65  1  0
  1 66  1  0
  1 67  1  0
 64  2  1  0
 55  7  1  0
 30  9  1  0
 38 33  1  0
 54 48  1  0
 22 13  1  0
 22 17  1  0
M  END
>  <cnnaffinities>  (52) 
[6.84036, 6.53746]

>  <score>  (52) 
6.84036

>  <index>  (52) 
51

>  <Smiles>  (52) 
C(c1nnc(C(N2C([C@@]3(C(=O)N(c4c(nc(c5c(c(c(c(c45)[H])[H])[H])[H])[H])[H])C([C@@]3(C(N(c3c(c(nc(n3)[H])[H])[H])[H])([H])[H])[H])([H])[H])c3c(c(Cl)c(c(c3C2=O)[H])[H])[H])([H])[H])([H])[H])o1)([H])([H])[H]

>  <h>  (52) 
<NA>

>  <Training>  (52) 
True

>  <Success>  (52) 
True

>  <enamine_searched>  (52) 
False

>  <enamine_id>  (52) 
nan

$$$$

     RDKit          3D

 66 71  0  0  0  0  0  0  0  0999 V2000
    6.5738    4.3587   21.3814 C   0  0  0  0  0  0  0  0  0  0  0  0
    7.5741    3.9057   22.3388 N   0  0  0  0  0  0  0  0  0  0  0  0
    7.1525    3.2380   23.4526 C   0  0  0  0  0  0  0  0  0  0  0  0
    5.9705    3.0603   23.6877 O   0  0  0  0  0  0  0  0  0  0  0  0
    8.2339    2.7222   24.4115 C   0  0  0  0  0  0  0  0  0  0  0  0
    8.9021    1.5468   23.8848 N   0  0  0  0  0  0  0  0  0  0  0  0
    8.1569    0.2995   23.7698 C   0  0  0  0  0  0  0  0  0  0  0  0
    8.5764   -0.5043   22.5120 C   0  0  2  0  0  0  0  0  0  0  0  0
    8.0687    0.2174   21.2373 C   0  0  0  0  0  0  0  0  0  0  0  0
    8.5756    1.1656   20.6741 O   0  0  0  0  0  0  0  0  0  0  0  0
    6.9129   -0.4036   20.8270 N   0  0  0  0  0  0  0  0  0  0  0  0
    6.1479    0.1071   19.7543 C   0  0  0  0  0  0  0  0  0  0  0  0
    6.4926   -0.1993   18.4635 C   0  0  0  0  0  0  0  0  0  0  0  0
    5.8050    0.2207   17.3748 N   0  0  0  0  0  0  0  0  0  0  0  0
    4.7556    0.9808   17.5891 C   0  0  0  0  0  0  0  0  0  0  0  0
    4.2947    1.3792   18.8769 C   0  0  0  0  0  0  0  0  0  0  0  0
    3.1698    2.2266   19.0558 C   0  0  0  0  0  0  0  0  0  0  0  0
    2.7748    2.6088   20.3099 C   0  0  0  0  0  0  0  0  0  0  0  0
    3.4856    2.1623   21.4479 C   0  0  0  0  0  0  0  0  0  0  0  0
    4.5756    1.3369   21.3030 C   0  0  0  0  0  0  0  0  0  0  0  0
    5.0086    0.9278   20.0098 C   0  0  0  0  0  0  0  0  0  0  0  0
    5.1401    1.0341   22.1812 H   0  0  0  0  0  0  0  0  0  0  0  0
    3.1922    2.4966   22.4389 H   0  0  0  0  0  0  0  0  0  0  0  0
    1.9246    3.2742   20.4327 H   0  0  0  0  0  0  0  0  0  0  0  0
    2.6555    2.5863   18.1701 H   0  0  0  0  0  0  0  0  0  0  0  0
    4.2136    1.3305   16.7120 H   0  0  0  0  0  0  0  0  0  0  0  0
    7.3663   -0.8209   18.2734 H   0  0  0  0  0  0  0  0  0  0  0  0
    6.5306   -1.5612   21.6044 C   0  0  0  0  0  0  0  0  0  0  0  0
    7.8057   -1.8674   22.4111 C   0  0  2  0  0  0  0  0  0  0  0  0
    7.4806   -2.6142   23.7215 C   0  0  0  0  0  0  0  0  0  0  0  0
    7.0353   -3.9783   23.4997 N   0  0  0  0  0  0  0  0  0  0  0  0
    5.7632   -4.4326   23.3195 C   0  0  0  0  0  0  0  0  0  0  0  0
    4.6116   -3.8285   23.8761 C   0  0  0  0  0  0  0  0  0  0  0  0
    3.4221   -4.5012   23.6476 C   0  0  0  0  0  0  0  0  0  0  0  0
    3.3219   -5.6181   22.9213 N   0  0  0  0  0  0  0  0  0  0  0  0
    4.4633   -6.0849   22.4364 C   0  0  0  0  0  0  0  0  0  0  0  0
    5.6770   -5.5715   22.6026 N   0  0  0  0  0  0  0  0  0  0  0  0
    4.3940   -6.9960   21.8349 H   0  0  0  0  0  0  0  0  0  0  0  0
    2.4774   -4.1352   24.0482 H   0  0  0  0  0  0  0  0  0  0  0  0
    4.6430   -2.9076   24.4644 H   0  0  0  0  0  0  0  0  0  0  0  0
    7.7269   -4.6053   23.1100 H   0  0  0  0  0  0  0  0  0  0  0  0
    6.6984   -2.0644   24.2591 H   0  0  0  0  0  0  0  0  0  0  0  0
    8.3753   -2.6402   24.3588 H   0  0  0  0  0  0  0  0  0  0  0  0
    8.4239   -2.5282   21.7969 H   0  0  0  0  0  0  0  0  0  0  0  0
    6.2152   -2.3870   20.9552 H   0  0  0  0  0  0  0  0  0  0  0  0
    5.6814   -1.3356   22.2690 H   0  0  0  0  0  0  0  0  0  0  0  0
   10.0973   -0.5608   22.4697 C   0  0  0  0  0  0  0  0  0  0  0  0
   10.7523   -1.4489   21.6057 C   0  0  0  0  0  0  0  0  0  0  0  0
   12.1329   -1.4210   21.4908 C   0  0  0  0  0  0  0  0  0  0  0  0
   12.9083   -2.4055   20.2781 Cl  0  0  0  0  0  0  0  0  0  0  0  0
   12.9110   -0.5626   22.2712 C   0  0  0  0  0  0  0  0  0  0  0  0
   12.2777    0.3294   23.1129 C   0  0  0  0  0  0  0  0  0  0  0  0
   10.8843    0.3794   23.1524 C   0  0  0  0  0  0  0  0  0  0  0  0
   10.2706    1.5470   23.8566 C   0  0  0  0  0  0  0  0  0  0  0  0
   10.9509    2.4475   24.3326 O   0  0  0  0  0  0  0  0  0  0  0  0
   12.8288    1.0317   23.7339 H   0  0  0  0  0  0  0  0  0  0  0  0
   13.9911   -0.5691   22.1847 H   0  0  0  0  0  0  0  0  0  0  0  0
   10.1938   -2.1392   20.9838 H   0  0  0  0  0  0  0  0  0  0  0  0
    8.3238   -0.3197   24.6640 H   0  0  0  0  0  0  0  0  0  0  0  0
    7.0933    0.5490   23.7155 H   0  0  0  0  0  0  0  0  0  0  0  0
    9.0289    3.4562   24.5705 H   0  0  0  0  0  0  0  0  0  0  0  0
    7.7560    2.5154   25.3806 H   0  0  0  0  0  0  0  0  0  0  0  0
    8.4925    3.6868   21.9779 H   0  0  0  0  0  0  0  0  0  0  0  0
    5.7541    4.8401   21.9239 H   0  0  0  0  0  0  0  0  0  0  0  0
    7.0131    5.0856   20.6896 H   0  0  0  0  0  0  0  0  0  0  0  0
    6.1524    3.5141   20.8164 H   0  0  0  0  0  0  0  0  0  0  0  0
  1  2  1  0
  2  3  1  0
  3  4  2  0
  3  5  1  0
  5  6  1  0
  6  7  1  0
  8  7  1  1
  8  9  1  0
  9 10  2  0
  9 11  1  0
 11 12  1  0
 12 13  2  0
 13 14  1  0
 14 15  2  0
 15 16  1  0
 16 17  2  0
 17 18  1  0
 18 19  2  0
 19 20  1  0
 20 21  2  0
 20 22  1  0
 19 23  1  0
 18 24  1  0
 17 25  1  0
 15 26  1  0
 13 27  1  0
 11 28  1  0
 28 29  1  0
 29 30  1  0
 30 31  1  0
 31 32  1  0
 32 33  2  0
 33 34  1  0
 34 35  2  0
 35 36  1  0
 36 37  2  0
 36 38  1  0
 34 39  1  0
 33 40  1  0
 31 41  1  0
 30 42  1  0
 30 43  1  0
 29 44  1  6
 28 45  1  0
 28 46  1  0
  8 47  1  0
 47 48  2  0
 48 49  1  0
 49 50  1  0
 49 51  2  0
 51 52  1  0
 52 53  2  0
 53 54  1  0
 54 55  2  0
 52 56  1  0
 51 57  1  0
 48 58  1  0
  7 59  1  0
  7 60  1  0
  5 61  1  0
  5 62  1  0
  2 63  1  0
  1 64  1  0
  1 65  1  0
  1 66  1  0
 54  6  1  0
 29  8  1  0
 37 32  1  0
 53 47  1  0
 21 12  1  0
 21 16  1  0
M  END
>  <cnnaffinities>  (53) 
[6.91673, 6.54409]

>  <score>  (53) 
6.91673

>  <index>  (53) 
52

>  <Smiles>  (53) 
C(N(C(=O)C(N1C([C@@]2(C(=O)N(c3c(nc(c4c(c(c(c(c34)[H])[H])[H])[H])[H])[H])C([C@@]2(C(N(c2c(c(nc(n2)[H])[H])[H])[H])([H])[H])[H])([H])[H])c2c(c(Cl)c(c(c2C1=O)[H])[H])[H])([H])[H])([H])[H])[H])([H])([H])[H]

>  <h>  (53) 
<NA>

>  <Training>  (53) 
True

>  <Success>  (53) 
True

>  <enamine_searched>  (53) 
False

>  <enamine_id>  (53) 
nan

$$$$

     RDKit          3D

 77 84  0  0  0  0  0  0  0  0999 V2000
   10.2523    2.7352   24.9552 O   0  0  0  0  0  0  0  0  0  0  0  0
    9.7466    1.7820   24.3740 C   0  0  0  0  0  0  0  0  0  0  0  0
   10.5738    0.8352   23.5501 C   0  0  0  0  0  0  0  0  0  0  0  0
   11.9613    1.0013   23.5548 C   0  0  0  0  0  0  0  0  0  0  0  0
   12.7723    0.2324   22.7360 C   0  0  0  0  0  0  0  0  0  0  0  0
   12.1751   -0.7041   21.8920 C   0  0  0  0  0  0  0  0  0  0  0  0
   13.1520   -1.6286   20.7757 Cl  0  0  0  0  0  0  0  0  0  0  0  0
   10.8034   -0.8922   21.8899 C   0  0  0  0  0  0  0  0  0  0  0  0
    9.9769   -0.1527   22.7514 C   0  0  0  0  0  0  0  0  0  0  0  0
    8.4669   -0.3154   22.7131 C   0  0  1  0  0  0  0  0  0  0  0  0
    7.8546    0.2427   24.0226 C   0  0  0  0  0  0  0  0  0  0  0  0
    8.4039    1.5339   24.3798 N   0  0  0  0  0  0  0  0  0  0  0  0
    7.4875    2.5238   24.9166 C   0  0  0  0  0  0  0  0  0  0  0  0
    6.7305    3.2449   23.8071 C   0  0  0  0  0  0  0  0  0  0  0  0
    7.6753    4.1006   23.0215 N   0  0  0  0  0  4  0  0  0  0  0  0
    8.2806    5.3034   23.8018 C   0  0  0  0  0  0  0  0  0  0  0  0
    7.7385    6.3078   22.7658 C   0  0  0  0  0  0  0  0  0  0  0  0
    8.6481    7.3008   22.0570 C   0  0  0  0  0  0  0  0  0  0  0  0
    7.7161    8.3680   22.2538 O   0  0  0  0  0  0  0  0  0  0  0  0
    6.8398    7.5233   23.0056 C   0  0  0  0  0  0  0  0  0  0  0  0
    5.8581    7.4375   22.5235 H   0  0  0  0  0  0  0  0  0  0  0  0
    6.7042    7.8836   24.0327 H   0  0  0  0  0  0  0  0  0  0  0  0
    8.8172    7.0667   21.0012 H   0  0  0  0  0  0  0  0  0  0  0  0
    9.6091    7.5004   22.5506 H   0  0  0  0  0  0  0  0  0  0  0  0
    7.1248    5.1018   22.0304 C   0  0  0  0  0  0  0  0  0  0  0  0
    6.0366    5.0821   22.0008 H   0  0  0  0  0  0  0  0  0  0  0  0
    7.5316    4.9145   21.0412 H   0  0  0  0  0  0  0  0  0  0  0  0
    9.3576    5.1994   23.8944 H   0  0  0  0  0  0  0  0  0  0  0  0
    7.8277    5.3646   24.7884 H   0  0  0  0  0  0  0  0  0  0  0  0
    8.3410    3.4796   22.5292 H   0  0  0  0  0  0  0  0  0  0  0  0
    5.9215    3.8656   24.2078 H   0  0  0  0  0  0  0  0  0  0  0  0
    6.3024    2.5206   23.1158 H   0  0  0  0  0  0  0  0  0  0  0  0
    6.7853    2.0242   25.5909 H   0  0  0  0  0  0  0  0  0  0  0  0
    8.0831    3.2102   25.5182 H   0  0  0  0  0  0  0  0  0  0  0  0
    6.7727    0.3449   23.8726 H   0  0  0  0  0  0  0  0  0  0  0  0
    8.0145   -0.4636   24.8455 H   0  0  0  0  0  0  0  0  0  0  0  0
    7.8571    0.4845   21.5428 C   0  0  0  0  0  0  0  0  0  0  0  0
    8.0182    1.6742   21.3216 O   0  0  0  0  0  0  0  0  0  0  0  0
    7.0317   -0.3573   20.8324 N   0  0  0  0  0  0  0  0  0  0  0  0
    6.2028    0.1080   19.7872 C   0  0  0  0  0  0  0  0  0  0  0  0
    6.4935   -0.2607   18.4996 C   0  0  0  0  0  0  0  0  0  0  0  0
    5.8054    0.1574   17.4118 N   0  0  0  0  0  0  0  0  0  0  0  0
    4.7826    0.9523   17.6210 C   0  0  0  0  0  0  0  0  0  0  0  0
    4.3491    1.3663   18.9128 C   0  0  0  0  0  0  0  0  0  0  0  0
    3.2332    2.2271   19.0723 C   0  0  0  0  0  0  0  0  0  0  0  0
    2.8116    2.5962   20.3198 C   0  0  0  0  0  0  0  0  0  0  0  0
    3.4784    2.1103   21.4643 C   0  0  0  0  0  0  0  0  0  0  0  0
    4.5616    1.2702   21.3369 C   0  0  0  0  0  0  0  0  0  0  0  0
    5.0484    0.9078   20.0455 C   0  0  0  0  0  0  0  0  0  0  0  0
    5.0444    0.8817   22.2285 H   0  0  0  0  0  0  0  0  0  0  0  0
    3.1342    2.4076   22.4499 H   0  0  0  0  0  0  0  0  0  0  0  0
    1.9615    3.2636   20.4322 H   0  0  0  0  0  0  0  0  0  0  0  0
    2.7379    2.5896   18.1790 H   0  0  0  0  0  0  0  0  0  0  0  0
    4.2365    1.3099   16.7470 H   0  0  0  0  0  0  0  0  0  0  0  0
    7.3473   -0.9094   18.3105 H   0  0  0  0  0  0  0  0  0  0  0  0
    6.7864   -1.6272   21.4920 C   0  0  0  0  0  0  0  0  0  0  0  0
    7.9794   -1.7655   22.4323 C   0  0  2  0  0  0  0  0  0  0  0  0
    7.6521   -2.6126   23.6543 C   0  0  0  0  0  0  0  0  0  0  0  0
    8.8019   -2.7217   24.5226 N   0  0  0  0  0  0  0  0  0  0  0  0
    8.7781   -3.4334   25.6717 C   0  0  0  0  0  0  0  0  0  0  0  0
    9.9530   -3.5945   26.3117 N   0  0  0  0  0  0  0  0  0  0  0  0
    9.9140   -4.3720   27.3859 C   0  0  0  0  0  0  0  0  0  0  0  0
    8.7413   -4.9525   27.8589 C   0  0  0  0  0  0  0  0  0  0  0  0
    7.5852   -4.6367   27.1616 C   0  0  0  0  0  0  0  0  0  0  0  0
    7.5751   -3.8922   26.0611 N   0  0  0  0  0  0  0  0  0  0  0  0
    6.6195   -5.0128   27.4930 H   0  0  0  0  0  0  0  0  0  0  0  0
    8.7385   -5.6361   28.6965 H   0  0  0  0  0  0  0  0  0  0  0  0
   10.8641   -4.5468   27.8926 H   0  0  0  0  0  0  0  0  0  0  0  0
    9.7099   -2.4394   24.1898 H   0  0  0  0  0  0  0  0  0  0  0  0
    7.2979   -3.6015   23.3450 H   0  0  0  0  0  0  0  0  0  0  0  0
    6.8292   -2.1618   24.2188 H   0  0  0  0  0  0  0  0  0  0  0  0
    8.7704   -2.2803   21.8844 H   0  0  0  0  0  0  0  0  0  0  0  0
    5.8471   -1.6323   22.0692 H   0  0  0  0  0  0  0  0  0  0  0  0
    6.7278   -2.4511   20.7756 H   0  0  0  0  0  0  0  0  0  0  0  0
   10.3902   -1.5904   21.1716 H   0  0  0  0  0  0  0  0  0  0  0  0
   13.8488    0.3709   22.7185 H   0  0  0  0  0  0  0  0  0  0  0  0
   12.3888    1.7620   24.2004 H   0  0  0  0  0  0  0  0  0  0  0  0
  1  2  2  0
  2  3  1  0
  3  4  2  0
  4  5  1  0
  5  6  2  0
  6  7  1  0
  6  8  1  0
  8  9  2  0
  9 10  1  0
 10 11  1  1
 11 12  1  0
 12 13  1  0
 13 14  1  0
 14 15  1  0
 15 16  1  0
 16 17  1  0
 17 18  1  0
 18 19  1  0
 19 20  1  0
 20 21  1  0
 20 22  1  0
 18 23  1  0
 18 24  1  0
 17 25  1  0
 25 26  1  0
 25 27  1  0
 16 28  1  0
 16 29  1  0
 15 30  1  0
 14 31  1  0
 14 32  1  0
 13 33  1  0
 13 34  1  0
 11 35  1  0
 11 36  1  0
 10 37  1  0
 37 38  2  0
 37 39  1  0
 39 40  1  0
 40 41  2  0
 41 42  1  0
 42 43  2  0
 43 44  1  0
 44 45  2  0
 45 46  1  0
 46 47  2  0
 47 48  1  0
 48 49  2  0
 48 50  1  0
 47 51  1  0
 46 52  1  0
 45 53  1  0
 43 54  1  0
 41 55  1  0
 39 56  1  0
 56 57  1  0
 57 58  1  0
 58 59  1  0
 59 60  1  0
 60 61  2  0
 61 62  1  0
 62 63  2  0
 63 64  1  0
 64 65  2  0
 64 66  1  0
 63 67  1  0
 62 68  1  0
 59 69  1  0
 58 70  1  0
 58 71  1  0
 57 72  1  6
 56 73  1  0
 56 74  1  0
  8 75  1  0
  5 76  1  0
  4 77  1  0
 12  2  1  0
 25 15  1  0
 49 40  1  0
 65 60  1  0
  9  3  1  0
 57 10  1  0
 20 17  1  0
 49 44  1  0
M  CHG  1  15   1
M  END
>  <cnnaffinities>  (54) 
[6.47346]

>  <score>  (54) 
6.47346

>  <index>  (54) 
53

>  <Smiles>  (54) 
O=C1c2c(c(c(Cl)c(c2[C@@]2(C(N1C(C([N+]1(C(C3(C(OC3([H])[H])([H])[H])C1([H])[H])([H])[H])[H])([H])[H])([H])[H])([H])[H])C(=O)N(c1c(nc(c3c(c(c(c(c13)[H])[H])[H])[H])[H])[H])C([C@@]2(C(N(c1nc(c(c(n1)[H])[H])[H])[H])([H])[H])[H])([H])[H])[H])[H])[H]

>  <h>  (54) 
<NA>

>  <Training>  (54) 
True

>  <Success>  (54) 
True

>  <enamine_searched>  (54) 
False

>  <enamine_id>  (54) 
nan

$$$$

     RDKit          3D

 66 71  0  0  0  0  0  0  0  0999 V2000
    6.6918    4.3684   21.2740 C   0  0  0  0  0  0  0  0  0  0  0  0
    7.7200    4.0090   22.2399 N   0  0  0  0  0  0  0  0  0  0  0  0
    7.2824    3.3255   23.3375 C   0  0  0  0  0  0  0  0  0  0  0  0
    6.0909    3.1229   23.5333 O   0  0  0  0  0  0  0  0  0  0  0  0
    8.3086    2.8146   24.3434 C   0  0  0  0  0  0  0  0  0  0  0  0
    8.9494    1.6061   23.8706 N   0  0  0  0  0  0  0  0  0  0  0  0
    8.1649    0.3845   23.7835 C   0  0  0  0  0  0  0  0  0  0  0  0
    8.5571   -0.4598   22.5473 C   0  0  2  0  0  0  0  0  0  0  0  0
    8.0518    0.2399   21.2658 C   0  0  0  0  0  0  0  0  0  0  0  0
    8.5368    1.2136   20.7259 O   0  0  0  0  0  0  0  0  0  0  0  0
    6.9346   -0.4242   20.8182 N   0  0  0  0  0  0  0  0  0  0  0  0
    6.1453    0.0924   19.7642 C   0  0  0  0  0  0  0  0  0  0  0  0
    6.4764   -0.2120   18.4698 C   0  0  0  0  0  0  0  0  0  0  0  0
    5.7973    0.2205   17.3803 N   0  0  0  0  0  0  0  0  0  0  0  0
    4.7606    0.9968   17.5946 C   0  0  0  0  0  0  0  0  0  0  0  0
    4.3064    1.3911   18.8868 C   0  0  0  0  0  0  0  0  0  0  0  0
    3.1871    2.2476   19.0634 C   0  0  0  0  0  0  0  0  0  0  0  0
    2.7917    2.6282   20.3168 C   0  0  0  0  0  0  0  0  0  0  0  0
    3.4907    2.1708   21.4565 C   0  0  0  0  0  0  0  0  0  0  0  0
    4.5749    1.3356   21.3140 C   0  0  0  0  0  0  0  0  0  0  0  0
    5.0127    0.9244   20.0218 C   0  0  0  0  0  0  0  0  0  0  0  0
    5.1248    1.0267   22.1983 H   0  0  0  0  0  0  0  0  0  0  0  0
    3.1843    2.4948   22.4471 H   0  0  0  0  0  0  0  0  0  0  0  0
    1.9427    3.2938   20.4402 H   0  0  0  0  0  0  0  0  0  0  0  0
    2.6744    2.6151   18.1782 H   0  0  0  0  0  0  0  0  0  0  0  0
    4.2153    1.3568   16.7209 H   0  0  0  0  0  0  0  0  0  0  0  0
    7.3388   -0.8475   18.2847 H   0  0  0  0  0  0  0  0  0  0  0  0
    6.5474   -1.5549   21.6276 C   0  0  0  0  0  0  0  0  0  0  0  0
    7.7833   -1.8158   22.4955 C   0  0  2  0  0  0  0  0  0  0  0  0
    7.3674   -2.4647   23.8136 C   0  0  0  0  0  0  0  0  0  0  0  0
    8.5192   -2.8867   24.5672 N   0  0  0  0  0  0  0  0  0  0  0  0
    8.4099   -3.3490   25.8462 C   0  0  0  0  0  0  0  0  0  0  0  0
    9.5676   -3.5580   26.6262 C   0  0  0  0  0  0  0  0  0  0  0  0
    9.5036   -3.8497   27.9059 N   0  0  0  0  0  0  0  0  0  0  0  0
    8.2764   -4.0290   28.4185 C   0  0  0  0  0  0  0  0  0  0  0  0
    7.1520   -3.9537   27.6260 C   0  0  0  0  0  0  0  0  0  0  0  0
    7.1952   -3.6020   26.3357 N   0  0  0  0  0  0  0  0  0  0  0  0
    6.1719   -4.1533   28.0501 H   0  0  0  0  0  0  0  0  0  0  0  0
    8.1970   -4.2381   29.4764 H   0  0  0  0  0  0  0  0  0  0  0  0
   10.5507   -3.4865   26.1628 H   0  0  0  0  0  0  0  0  0  0  0  0
    9.4251   -2.5853   24.2421 H   0  0  0  0  0  0  0  0  0  0  0  0
    6.7488   -3.3485   23.6271 H   0  0  0  0  0  0  0  0  0  0  0  0
    6.7441   -1.7747   24.4044 H   0  0  0  0  0  0  0  0  0  0  0  0
    8.4251   -2.5377   21.9783 H   0  0  0  0  0  0  0  0  0  0  0  0
    6.2971   -2.4167   21.0021 H   0  0  0  0  0  0  0  0  0  0  0  0
    5.6611   -1.3318   22.2442 H   0  0  0  0  0  0  0  0  0  0  0  0
   10.0715   -0.5563   22.4909 C   0  0  0  0  0  0  0  0  0  0  0  0
   10.6978   -1.4572   21.6237 C   0  0  0  0  0  0  0  0  0  0  0  0
   12.0761   -1.4474   21.4864 C   0  0  0  0  0  0  0  0  0  0  0  0
   12.7907   -2.4315   20.2468 Cl  0  0  0  0  0  0  0  0  0  0  0  0
   12.8957   -0.6258   22.2622 C   0  0  0  0  0  0  0  0  0  0  0  0
   12.2785    0.2913   23.0858 C   0  0  0  0  0  0  0  0  0  0  0  0
   10.8900    0.3714   23.1473 C   0  0  0  0  0  0  0  0  0  0  0  0
   10.3133    1.5687   23.8250 C   0  0  0  0  0  0  0  0  0  0  0  0
   11.0174    2.4735   24.2584 O   0  0  0  0  0  0  0  0  0  0  0  0
   12.8434    1.0083   23.6681 H   0  0  0  0  0  0  0  0  0  0  0  0
   13.9787   -0.6807   22.1940 H   0  0  0  0  0  0  0  0  0  0  0  0
   10.1252   -2.1480   21.0160 H   0  0  0  0  0  0  0  0  0  0  0  0
    7.1043    0.6508   23.7376 H   0  0  0  0  0  0  0  0  0  0  0  0
    8.3187   -0.2134   24.6906 H   0  0  0  0  0  0  0  0  0  0  0  0
    9.1009    3.5459   24.5288 H   0  0  0  0  0  0  0  0  0  0  0  0
    7.7632    2.6186   25.2774 H   0  0  0  0  0  0  0  0  0  0  0  0
    8.6594    3.8613   21.8894 H   0  0  0  0  0  0  0  0  0  0  0  0
    7.1180    4.9840   20.4821 H   0  0  0  0  0  0  0  0  0  0  0  0
    5.9349    4.9654   21.7926 H   0  0  0  0  0  0  0  0  0  0  0  0
    6.2325    3.4600   20.8484 H   0  0  0  0  0  0  0  0  0  0  0  0
  1  2  1  0
  2  3  1  0
  3  4  2  0
  3  5  1  0
  5  6  1  0
  6  7  1  0
  8  7  1  1
  8  9  1  0
  9 10  2  0
  9 11  1  0
 11 12  1  0
 12 13  2  0
 13 14  1  0
 14 15  2  0
 15 16  1  0
 16 17  2  0
 17 18  1  0
 18 19  2  0
 19 20  1  0
 20 21  2  0
 20 22  1  0
 19 23  1  0
 18 24  1  0
 17 25  1  0
 15 26  1  0
 13 27  1  0
 11 28  1  0
 28 29  1  0
 29 30  1  0
 30 31  1  0
 31 32  1  0
 32 33  2  0
 33 34  1  0
 34 35  2  0
 35 36  1  0
 36 37  2  0
 36 38  1  0
 35 39  1  0
 33 40  1  0
 31 41  1  0
 30 42  1  0
 30 43  1  0
 29 44  1  6
 28 45  1  0
 28 46  1  0
  8 47  1  0
 47 48  2  0
 48 49  1  0
 49 50  1  0
 49 51  2  0
 51 52  1  0
 52 53  2  0
 53 54  1  0
 54 55  2  0
 52 56  1  0
 51 57  1  0
 48 58  1  0
  7 59  1  0
  7 60  1  0
  5 61  1  0
  5 62  1  0
  2 63  1  0
  1 64  1  0
  1 65  1  0
  1 66  1  0
 54  6  1  0
 29  8  1  0
 37 32  1  0
 53 47  1  0
 21 12  1  0
 21 16  1  0
M  END
>  <cnnaffinities>  (55) 
[6.51584, 6.2488]

>  <score>  (55) 
6.51584

>  <index>  (55) 
54

>  <Smiles>  (55) 
C(N(C(=O)C(N1C([C@@]2(C(=O)N(c3c(nc(c4c(c(c(c(c34)[H])[H])[H])[H])[H])[H])C([C@@]2(C(N(c2c(nc(c(n2)[H])[H])[H])[H])([H])[H])[H])([H])[H])c2c(c(Cl)c(c(c2C1=O)[H])[H])[H])([H])[H])([H])[H])[H])([H])([H])[H]

>  <h>  (55) 
<NA>

>  <Training>  (55) 
True

>  <Success>  (55) 
True

>  <enamine_searched>  (55) 
False

>  <enamine_id>  (55) 
nan

$$$$

     RDKit          3D

 56 61  0  0  0  0  0  0  0  0999 V2000
    5.5661    4.8329   21.4543 C   0  0  0  0  0  0  0  0  0  0  0  0
    6.5802    4.5696   22.4608 N   0  0  0  0  0  0  0  0  0  0  0  0
    7.7844    5.1691   22.5686 C   0  0  0  0  0  0  0  0  0  0  0  0
    8.4641    4.5279   23.5759 C   0  0  0  0  0  0  0  0  0  0  0  0
    7.5855    3.5109   24.0083 C   0  0  0  0  0  0  0  0  0  0  0  0
    7.8916    2.4343   25.0238 C   0  0  0  0  0  0  0  0  0  0  0  0
    8.6651    1.3120   24.4824 N   0  0  0  0  0  0  0  0  0  0  0  0
    8.0012    0.0703   24.1465 C   0  0  0  0  0  0  0  0  0  0  0  0
    8.3668   -0.4394   22.7306 C   0  0  1  0  0  0  0  0  0  0  0  0
    7.7339   -1.8342   22.5269 C   0  0  0  0  0  0  0  0  0  0  0  0
    6.9811   -1.8107   21.1830 C   0  0  0  0  0  0  0  0  0  0  0  0
    6.8703   -0.3987   20.8791 N   0  0  0  0  0  0  0  0  0  0  0  0
    6.1294    0.1058   19.7797 C   0  0  0  0  0  0  0  0  0  0  0  0
    6.4483   -0.2269   18.4876 C   0  0  0  0  0  0  0  0  0  0  0  0
    5.7778    0.2190   17.3947 N   0  0  0  0  0  0  0  0  0  0  0  0
    4.7536    1.0129   17.5997 C   0  0  0  0  0  0  0  0  0  0  0  0
    4.2945    1.4168   18.8837 C   0  0  0  0  0  0  0  0  0  0  0  0
    3.1599    2.2550   19.0629 C   0  0  0  0  0  0  0  0  0  0  0  0
    2.7336    2.5983   20.3151 C   0  0  0  0  0  0  0  0  0  0  0  0
    3.4176    2.1141   21.4535 C   0  0  0  0  0  0  0  0  0  0  0  0
    4.5191    1.3111   21.3080 C   0  0  0  0  0  0  0  0  0  0  0  0
    5.0001    0.9507   20.0184 C   0  0  0  0  0  0  0  0  0  0  0  0
    5.0271    0.9378   22.1917 H   0  0  0  0  0  0  0  0  0  0  0  0
    3.0812    2.3933   22.4490 H   0  0  0  0  0  0  0  0  0  0  0  0
    1.8753    3.2523   20.4413 H   0  0  0  0  0  0  0  0  0  0  0  0
    2.6553    2.6311   18.1776 H   0  0  0  0  0  0  0  0  0  0  0  0
    4.2290    1.3764   16.7163 H   0  0  0  0  0  0  0  0  0  0  0  0
    7.2922   -0.8808   18.2679 H   0  0  0  0  0  0  0  0  0  0  0  0
    7.7096    0.4136   21.6099 C   0  0  0  0  0  0  0  0  0  0  0  0
    7.9031    1.5810   21.3694 O   0  0  0  0  0  0  0  0  0  0  0  0
    5.9808   -2.2588   21.2400 H   0  0  0  0  0  0  0  0  0  0  0  0
    7.5407   -2.3262   20.4006 H   0  0  0  0  0  0  0  0  0  0  0  0
    8.4882   -2.6240   22.5684 H   0  0  0  0  0  0  0  0  0  0  0  0
    7.0279   -2.0331   23.3409 H   0  0  0  0  0  0  0  0  0  0  0  0
    9.8722   -0.3939   22.5771 C   0  0  0  0  0  0  0  0  0  0  0  0
   10.4973   -1.1966   21.6143 C   0  0  0  0  0  0  0  0  0  0  0  0
   11.8692   -1.1282   21.4515 C   0  0  0  0  0  0  0  0  0  0  0  0
   12.6696   -2.0916   20.2433 Cl  0  0  0  0  0  0  0  0  0  0  0  0
   12.6380   -0.2352   22.1939 C   0  0  0  0  0  0  0  0  0  0  0  0
   12.0195    0.5860   23.1143 C   0  0  0  0  0  0  0  0  0  0  0  0
   10.6420    0.5145   23.3142 C   0  0  0  0  0  0  0  0  0  0  0  0
   10.0106    1.4779   24.2831 C   0  0  0  0  0  0  0  0  0  0  0  0
   10.6450    2.3726   24.8274 O   0  0  0  0  0  0  0  0  0  0  0  0
   12.5784    1.3105   23.6949 H   0  0  0  0  0  0  0  0  0  0  0  0
   13.7010   -0.1740   21.9991 H   0  0  0  0  0  0  0  0  0  0  0  0
    9.9188   -1.8383   20.9552 H   0  0  0  0  0  0  0  0  0  0  0  0
    8.2559   -0.7227   24.8721 H   0  0  0  0  0  0  0  0  0  0  0  0
    6.9241    0.2592   24.1787 H   0  0  0  0  0  0  0  0  0  0  0  0
    6.9580    2.0343   25.4404 H   0  0  0  0  0  0  0  0  0  0  0  0
    8.4886    2.8655   25.8329 H   0  0  0  0  0  0  0  0  0  0  0  0
    6.4308    3.5662   23.3486 N   0  0  0  0  0  0  0  0  0  0  0  0
    9.4552    4.7093   23.9643 H   0  0  0  0  0  0  0  0  0  0  0  0
    8.0559    5.9780   21.9016 H   0  0  0  0  0  0  0  0  0  0  0  0
    4.5848    4.7737   21.9327 H   0  0  0  0  0  0  0  0  0  0  0  0
    5.7350    5.8449   21.0689 H   0  0  0  0  0  0  0  0  0  0  0  0
    5.6084    4.0964   20.6383 H   0  0  0  0  0  0  0  0  0  0  0  0
  1  2  1  0
  2  3  1  0
  3  4  2  0
  4  5  1  0
  5  6  1  0
  6  7  1  0
  7  8  1  0
  9  8  1  1
  9 10  1  0
 10 11  1  0
 11 12  1  0
 12 13  1  0
 13 14  2  0
 14 15  1  0
 15 16  2  0
 16 17  1  0
 17 18  2  0
 18 19  1  0
 19 20  2  0
 20 21  1  0
 21 22  2  0
 21 23  1  0
 20 24  1  0
 19 25  1  0
 18 26  1  0
 16 27  1  0
 14 28  1  0
 12 29  1  0
 29 30  2  0
 11 31  1  0
 11 32  1  0
 10 33  1  0
 10 34  1  0
  9 35  1  0
 35 36  2  0
 36 37  1  0
 37 38  1  0
 37 39  2  0
 39 40  1  0
 40 41  2  0
 41 42  1  0
 42 43  2  0
 40 44  1  0
 39 45  1  0
 36 46  1  0
  8 47  1  0
  8 48  1  0
  6 49  1  0
  6 50  1  0
  5 51  2  0
  4 52  1  0
  3 53  1  0
  1 54  1  0
  1 55  1  0
  1 56  1  0
 51  2  1  0
 42  7  1  0
 29  9  1  0
 41 35  1  0
 22 13  1  0
 22 17  1  0
M  END
>  <cnnaffinities>  (56) 
[6.41187]

>  <score>  (56) 
6.41187

>  <index>  (56) 
55

>  <Smiles>  (56) 
C(n1c(c(c(C(N2C([C@]3(C(C(N(c4c(nc(c5c(c(c(c(c45)[H])[H])[H])[H])[H])[H])C3=O)([H])[H])([H])[H])c3c(c(Cl)c(c(c3C2=O)[H])[H])[H])([H])[H])([H])[H])n1)[H])[H])([H])([H])[H]

>  <h>  (56) 
<NA>

>  <Training>  (56) 
True

>  <Success>  (56) 
True

>  <enamine_searched>  (56) 
False

>  <enamine_id>  (56) 
nan

$$$$

     RDKit          3D

 41 43  0  0  0  0  0  0  0  0999 V2000
    8.0658    1.6442   20.9620 O   0  0  0  0  0  0  0  0  0  0  0  0
    7.8795    0.5928   21.5447 C   0  0  0  0  0  0  0  0  0  0  0  0
    6.9429   -0.4655   20.9167 C   0  0  0  0  0  0  0  0  0  0  0  0
    6.1161    0.0849   19.7737 C   0  0  0  0  0  0  0  0  0  0  0  0
    6.4278   -0.2074   18.4682 C   0  0  0  0  0  0  0  0  0  0  0  0
    5.7644    0.2402   17.3675 N   0  0  0  0  0  0  0  0  0  0  0  0
    4.7348    1.0280   17.5765 C   0  0  0  0  0  0  0  0  0  0  0  0
    4.2893    1.4211   18.8689 C   0  0  0  0  0  0  0  0  0  0  0  0
    3.1672    2.2727   19.0441 C   0  0  0  0  0  0  0  0  0  0  0  0
    2.7655    2.6443   20.3009 C   0  0  0  0  0  0  0  0  0  0  0  0
    3.4667    2.1717   21.4312 C   0  0  0  0  0  0  0  0  0  0  0  0
    4.5547    1.3411   21.2890 C   0  0  0  0  0  0  0  0  0  0  0  0
    4.9983    0.9447   19.9991 C   0  0  0  0  0  0  0  0  0  0  0  0
    5.0814    0.9904   22.1729 H   0  0  0  0  0  0  0  0  0  0  0  0
    3.1431    2.4719   22.4220 H   0  0  0  0  0  0  0  0  0  0  0  0
    1.9145    3.3077   20.4344 H   0  0  0  0  0  0  0  0  0  0  0  0
    2.6456    2.6473   18.1663 H   0  0  0  0  0  0  0  0  0  0  0  0
    4.1989    1.3982   16.7004 H   0  0  0  0  0  0  0  0  0  0  0  0
    7.2735   -0.8559   18.2486 H   0  0  0  0  0  0  0  0  0  0  0  0
    6.2877   -0.8984   21.6809 H   0  0  0  0  0  0  0  0  0  0  0  0
    7.5723   -1.2813   20.5324 H   0  0  0  0  0  0  0  0  0  0  0  0
    8.5085    0.3433   22.7605 N   0  0  0  0  0  0  0  0  0  0  0  0
    9.4054    1.3975   23.2650 C   0  0  0  0  0  0  0  0  0  0  0  0
   10.7754    1.4403   22.5897 C   0  0  0  0  0  0  0  0  0  0  0  0
   11.7187    0.3340   23.0382 C   0  0  0  0  0  0  0  0  0  0  0  0
   11.1428   -1.3503   22.6988 S   0  0  0  0  0  0  0  0  0  0  0  0
    9.8361   -1.4440   23.9465 C   0  0  0  0  0  0  0  0  0  0  0  0
    8.4752   -0.9370   23.4462 C   0  0  1  0  0  0  0  0  0  0  0  0
    7.4686   -0.8741   24.5924 C   0  0  0  0  0  0  0  0  0  0  0  0
    6.2776   -0.4319   24.1562 F   0  0  0  0  0  0  0  0  0  0  0  0
    7.2802   -2.0835   25.1500 F   0  0  0  0  0  0  0  0  0  0  0  0
    7.8751   -0.0484   25.5771 F   0  0  0  0  0  0  0  0  0  0  0  0
    8.0953   -1.7003   22.7632 H   0  0  0  0  0  0  0  0  0  0  0  0
   10.1701   -0.9057   24.8357 H   0  0  0  0  0  0  0  0  0  0  0  0
    9.7514   -2.4947   24.2412 H   0  0  0  0  0  0  0  0  0  0  0  0
   11.9029    0.3997   24.1158 H   0  0  0  0  0  0  0  0  0  0  0  0
   12.6906    0.4361   22.5443 H   0  0  0  0  0  0  0  0  0  0  0  0
   11.2583    2.4078   22.7959 H   0  0  0  0  0  0  0  0  0  0  0  0
   10.6270    1.3795   21.5126 H   0  0  0  0  0  0  0  0  0  0  0  0
    9.5272    1.2715   24.3405 H   0  0  0  0  0  0  0  0  0  0  0  0
    8.8993    2.3530   23.1229 H   0  0  0  0  0  0  0  0  0  0  0  0
  1  2  2  0
  2  3  1  0
  3  4  1  0
  4  5  2  0
  5  6  1  0
  6  7  2  0
  7  8  1  0
  8  9  2  0
  9 10  1  0
 10 11  2  0
 11 12  1  0
 12 13  2  0
 12 14  1  0
 11 15  1  0
 10 16  1  0
  9 17  1  0
  7 18  1  0
  5 19  1  0
  3 20  1  0
  3 21  1  0
  2 22  1  0
 22 23  1  0
 23 24  1  0
 24 25  1  0
 25 26  1  0
 26 27  1  0
 27 28  1  0
 28 29  1  0
 29 30  1  0
 29 31  1  0
 29 32  1  0
 28 33  1  6
 27 34  1  0
 27 35  1  0
 25 36  1  0
 25 37  1  0
 24 38  1  0
 24 39  1  0
 23 40  1  0
 23 41  1  0
 13  4  1  0
 28 22  1  0
 13  8  1  0
M  END
>  <cnnaffinities>  (57) 
[5.78669, 5.78666, 5.78667]

>  <score>  (57) 
5.78669

>  <index>  (57) 
56

>  <Smiles>  (57) 
O=C(C(c1c(nc(c2c(c(c(c(c12)[H])[H])[H])[H])[H])[H])([H])[H])N1C(C(C(SC([C@]1(C(F)(F)F)[H])([H])[H])([H])[H])([H])[H])([H])[H]

>  <h>  (57) 
<NA>

>  <Training>  (57) 
True

>  <Success>  (57) 
True

>  <enamine_searched>  (57) 
False

>  <enamine_id>  (57) 
nan

$$$$

     RDKit          3D

 67 72  0  0  0  0  0  0  0  0999 V2000
    6.6267    4.4151   21.3371 C   0  0  0  0  0  0  0  0  0  0  0  0
    7.6982    3.9946   22.2245 N   0  0  0  0  0  0  0  0  0  0  0  0
    7.3725    3.2878   23.3394 C   0  0  0  0  0  0  0  0  0  0  0  0
    6.2089    3.0253   23.6139 O   0  0  0  0  0  0  0  0  0  0  0  0
    8.5135    2.8277   24.2524 C   0  0  0  0  0  0  0  0  0  0  0  0
    9.1384    1.6224   23.7357 N   0  0  0  0  0  0  0  0  0  0  0  0
    8.3571    0.3926   23.6776 C   0  0  0  0  0  0  0  0  0  0  0  0
    8.6835   -0.4367   22.4049 C   0  0  2  0  0  0  0  0  0  0  0  0
    8.1262    0.2908   21.1567 C   0  0  0  0  0  0  0  0  0  0  0  0
    8.5922    1.2580   20.5978 O   0  0  0  0  0  0  0  0  0  0  0  0
    6.9707   -0.3478   20.7662 N   0  0  0  0  0  0  0  0  0  0  0  0
    6.1740    0.1441   19.7171 C   0  0  0  0  0  0  0  0  0  0  0  0
    6.4888   -0.1892   18.4254 C   0  0  0  0  0  0  0  0  0  0  0  0
    5.7815    0.2166   17.3473 N   0  0  0  0  0  0  0  0  0  0  0  0
    4.7373    0.9805   17.5730 C   0  0  0  0  0  0  0  0  0  0  0  0
    4.2968    1.3835   18.8675 C   0  0  0  0  0  0  0  0  0  0  0  0
    3.1725    2.2296   19.0548 C   0  0  0  0  0  0  0  0  0  0  0  0
    2.7884    2.6117   20.3121 C   0  0  0  0  0  0  0  0  0  0  0  0
    3.5080    2.1677   21.4436 C   0  0  0  0  0  0  0  0  0  0  0  0
    4.6056    1.3511   21.2913 C   0  0  0  0  0  0  0  0  0  0  0  0
    5.0277    0.9453   19.9911 C   0  0  0  0  0  0  0  0  0  0  0  0
    5.1736    1.0500   22.1669 H   0  0  0  0  0  0  0  0  0  0  0  0
    3.2126    2.4940   22.4369 H   0  0  0  0  0  0  0  0  0  0  0  0
    1.9410    3.2790   20.4425 H   0  0  0  0  0  0  0  0  0  0  0  0
    2.6524    2.5881   18.1734 H   0  0  0  0  0  0  0  0  0  0  0  0
    4.1839    1.3279   16.7025 H   0  0  0  0  0  0  0  0  0  0  0  0
    7.3560   -0.8181   18.2336 H   0  0  0  0  0  0  0  0  0  0  0  0
    6.5870   -1.4707   21.5808 C   0  0  0  0  0  0  0  0  0  0  0  0
    7.8712   -1.7730   22.3472 C   0  0  2  0  0  0  0  0  0  0  0  0
    7.5554   -2.4418   23.6672 C   0  0  0  0  0  0  0  0  0  0  0  0
    8.7819   -2.8098   24.3061 N   0  0  0  0  0  0  0  0  0  0  0  0
    8.7696   -3.2200   25.6072 C   0  0  0  0  0  0  0  0  0  0  0  0
    7.6963   -3.5357   26.3839 C   0  0  0  0  0  0  0  0  0  0  0  0
    7.9763   -4.0501   27.6286 N   0  0  0  0  0  0  0  0  0  0  0  0
    9.2564   -4.1170   27.8049 C   0  0  0  0  0  0  0  0  0  0  0  0
    9.9397   -4.6998   28.9769 C   0  0  0  0  0  0  0  0  0  0  0  0
   10.8065   -4.0976   29.2531 H   0  0  0  0  0  0  0  0  0  0  0  0
   10.2870   -5.7109   28.7310 H   0  0  0  0  0  0  0  0  0  0  0  0
    9.2486   -4.7608   29.8141 H   0  0  0  0  0  0  0  0  0  0  0  0
   10.2364   -3.5146   26.4903 S   0  0  0  0  0  0  0  0  0  0  0  0
    6.6680   -3.4195   26.0689 H   0  0  0  0  0  0  0  0  0  0  0  0
    9.6592   -2.5135   23.8997 H   0  0  0  0  0  0  0  0  0  0  0  0
    6.9749   -1.7557   24.3038 H   0  0  0  0  0  0  0  0  0  0  0  0
    6.9170   -3.3226   23.5148 H   0  0  0  0  0  0  0  0  0  0  0  0
    8.4562   -2.4788   21.7535 H   0  0  0  0  0  0  0  0  0  0  0  0
    6.2531   -2.3193   20.9712 H   0  0  0  0  0  0  0  0  0  0  0  0
    5.7608   -1.2140   22.2632 H   0  0  0  0  0  0  0  0  0  0  0  0
   10.2006   -0.5636   22.3041 C   0  0  0  0  0  0  0  0  0  0  0  0
   10.7943   -1.5210   21.4672 C   0  0  0  0  0  0  0  0  0  0  0  0
   12.1666   -1.5298   21.2721 C   0  0  0  0  0  0  0  0  0  0  0  0
   12.8747   -2.5966   20.0894 Cl  0  0  0  0  0  0  0  0  0  0  0  0
   13.0008   -0.6411   21.9503 C   0  0  0  0  0  0  0  0  0  0  0  0
   12.4311    0.3099   22.7731 C   0  0  0  0  0  0  0  0  0  0  0  0
   11.0453    0.3913   22.8993 C   0  0  0  0  0  0  0  0  0  0  0  0
   10.4997    1.5951   23.6071 C   0  0  0  0  0  0  0  0  0  0  0  0
   11.2269    2.4974   24.0058 O   0  0  0  0  0  0  0  0  0  0  0  0
   13.0374    1.0328   23.3129 H   0  0  0  0  0  0  0  0  0  0  0  0
   14.0704   -0.6682   21.7912 H   0  0  0  0  0  0  0  0  0  0  0  0
   10.1929   -2.2302   20.9113 H   0  0  0  0  0  0  0  0  0  0  0  0
    8.5493   -0.2106   24.5808 H   0  0  0  0  0  0  0  0  0  0  0  0
    7.3004    0.6719   23.6691 H   0  0  0  0  0  0  0  0  0  0  0  0
    9.3118    3.5695   24.3345 H   0  0  0  0  0  0  0  0  0  0  0  0
    8.1113    2.6602   25.2626 H   0  0  0  0  0  0  0  0  0  0  0  0
    8.6188    3.8654   21.8306 H   0  0  0  0  0  0  0  0  0  0  0  0
    5.8235    4.8542   21.9306 H   0  0  0  0  0  0  0  0  0  0  0  0
    6.9923    5.1731   20.6420 H   0  0  0  0  0  0  0  0  0  0  0  0
    6.2027    3.5618   20.7929 H   0  0  0  0  0  0  0  0  0  0  0  0
  1  2  1  0
  2  3  1  0
  3  4  2  0
  3  5  1  0
  5  6  1  0
  6  7  1  0
  8  7  1  1
  8  9  1  0
  9 10  2  0
  9 11  1  0
 11 12  1  0
 12 13  2  0
 13 14  1  0
 14 15  2  0
 15 16  1  0
 16 17  2  0
 17 18  1  0
 18 19  2  0
 19 20  1  0
 20 21  2  0
 20 22  1  0
 19 23  1  0
 18 24  1  0
 17 25  1  0
 15 26  1  0
 13 27  1  0
 11 28  1  0
 28 29  1  0
 29 30  1  0
 30 31  1  0
 31 32  1  0
 32 33  2  0
 33 34  1  0
 34 35  2  0
 35 36  1  0
 36 37  1  0
 36 38  1  0
 36 39  1  0
 35 40  1  0
 33 41  1  0
 31 42  1  0
 30 43  1  0
 30 44  1  0
 29 45  1  6
 28 46  1  0
 28 47  1  0
  8 48  1  0
 48 49  2  0
 49 50  1  0
 50 51  1  0
 50 52  2  0
 52 53  1  0
 53 54  2  0
 54 55  1  0
 55 56  2  0
 53 57  1  0
 52 58  1  0
 49 59  1  0
  7 60  1  0
  7 61  1  0
  5 62  1  0
  5 63  1  0
  2 64  1  0
  1 65  1  0
  1 66  1  0
  1 67  1  0
 55  6  1  0
 29  8  1  0
 40 32  1  0
 54 48  1  0
 21 12  1  0
 21 16  1  0
M  END
>  <cnnaffinities>  (58) 
[6.49597, 6.86496]

>  <score>  (58) 
6.49597

>  <index>  (58) 
57

>  <Smiles>  (58) 
C(N(C(=O)C(N1C([C@@]2(C(=O)N(c3c(nc(c4c(c(c(c(c34)[H])[H])[H])[H])[H])[H])C([C@@]2(C(N(c2c(nc(C([H])([H])[H])s2)[H])[H])([H])[H])[H])([H])[H])c2c(c(Cl)c(c(c2C1=O)[H])[H])[H])([H])[H])([H])[H])[H])([H])([H])[H]

>  <h>  (58) 
<NA>

>  <Training>  (58) 
True

>  <Success>  (58) 
True

>  <enamine_searched>  (58) 
False

>  <enamine_id>  (58) 
nan

$$$$

     RDKit          3D

 57 62  0  0  0  0  0  0  0  0999 V2000
    7.0102   -2.2900   23.6158 C   0  0  0  0  0  0  0  0  0  0  0  0
    7.8737   -1.8727   22.4184 C   0  0  1  0  0  0  0  0  0  0  0  0
    7.0197   -1.7872   21.1407 C   0  0  0  0  0  0  0  0  0  0  0  0
    6.8849   -0.3800   20.8786 N   0  0  0  0  0  0  0  0  0  0  0  0
    6.1257    0.1065   19.7873 C   0  0  0  0  0  0  0  0  0  0  0  0
    6.4447   -0.2325   18.4952 C   0  0  0  0  0  0  0  0  0  0  0  0
    5.7822    0.2165   17.3987 N   0  0  0  0  0  0  0  0  0  0  0  0
    4.7560    1.0082   17.6024 C   0  0  0  0  0  0  0  0  0  0  0  0
    4.2945    1.4014   18.8913 C   0  0  0  0  0  0  0  0  0  0  0  0
    3.1643    2.2428   19.0582 C   0  0  0  0  0  0  0  0  0  0  0  0
    2.7263    2.5810   20.3076 C   0  0  0  0  0  0  0  0  0  0  0  0
    3.3912    2.0872   21.4533 C   0  0  0  0  0  0  0  0  0  0  0  0
    4.5054    1.2956   21.3228 C   0  0  0  0  0  0  0  0  0  0  0  0
    4.9885    0.9356   20.0332 C   0  0  0  0  0  0  0  0  0  0  0  0
    5.0289    0.9463   22.2091 H   0  0  0  0  0  0  0  0  0  0  0  0
    3.0280    2.3556   22.4423 H   0  0  0  0  0  0  0  0  0  0  0  0
    1.8724    3.2398   20.4350 H   0  0  0  0  0  0  0  0  0  0  0  0
    2.6665    2.6237   18.1700 H   0  0  0  0  0  0  0  0  0  0  0  0
    4.2257    1.3737   16.7210 H   0  0  0  0  0  0  0  0  0  0  0  0
    7.2986   -0.8779   18.2842 H   0  0  0  0  0  0  0  0  0  0  0  0
    7.8210    0.3988   21.5235 C   0  0  0  0  0  0  0  0  0  0  0  0
    7.9754    1.5793   21.3159 O   0  0  0  0  0  0  0  0  0  0  0  0
    8.6007   -0.4922   22.5235 C   0  0  1  0  0  0  0  0  0  0  0  0
    8.5281    0.1027   23.9439 C   0  0  0  0  0  0  0  0  0  0  0  0
    9.2934    1.3256   24.0869 N   0  0  0  0  0  0  0  0  0  0  0  0
    8.7115    2.4498   24.7936 C   0  0  0  0  0  0  0  0  0  0  0  0
    8.0427    3.4217   23.8580 C   0  0  0  0  0  0  0  0  0  0  0  0
    8.8021    4.3677   23.1734 C   0  0  0  0  0  0  0  0  0  0  0  0
    8.1028    5.2248   22.3407 C   0  0  0  0  0  0  0  0  0  0  0  0
    6.7743    5.1760   22.2055 N   0  0  0  0  0  0  0  0  0  0  0  0
    6.1675    4.2202   22.8977 C   0  0  0  0  0  0  0  0  0  0  0  0
    6.7169    3.3173   23.7043 N   0  0  0  0  0  0  0  0  0  0  0  0
    5.0893    4.1613   22.7880 H   0  0  0  0  0  0  0  0  0  0  0  0
    8.6126    5.9905   21.7620 H   0  0  0  0  0  0  0  0  0  0  0  0
    9.8830    4.4220   23.3113 H   0  0  0  0  0  0  0  0  0  0  0  0
    9.5321    2.9151   25.3441 H   0  0  0  0  0  0  0  0  0  0  0  0
    7.9819    2.0556   25.5013 H   0  0  0  0  0  0  0  0  0  0  0  0
   10.5671    1.4497   23.6231 C   0  0  0  0  0  0  0  0  0  0  0  0
   11.2983    2.3898   23.9294 O   0  0  0  0  0  0  0  0  0  0  0  0
   10.9991    0.3688   22.6917 C   0  0  0  0  0  0  0  0  0  0  0  0
   12.3401    0.3651   22.3203 C   0  0  0  0  0  0  0  0  0  0  0  0
   12.8470   -0.6235   21.4966 C   0  0  0  0  0  0  0  0  0  0  0  0
   11.9374   -1.5533   21.0038 C   0  0  0  0  0  0  0  0  0  0  0  0
   12.3926   -2.5201   20.1889 F   0  0  0  0  0  0  0  0  0  0  0  0
   10.5773   -1.4913   21.2536 C   0  0  0  0  0  0  0  0  0  0  0  0
   10.0851   -0.5578   22.1693 C   0  0  0  0  0  0  0  0  0  0  0  0
    9.9178   -2.1699   20.7201 H   0  0  0  0  0  0  0  0  0  0  0  0
   13.8907   -0.6677   21.1953 H   0  0  0  0  0  0  0  0  0  0  0  0
   12.9533    1.1530   22.7395 H   0  0  0  0  0  0  0  0  0  0  0  0
    7.4904    0.3373   24.1863 H   0  0  0  0  0  0  0  0  0  0  0  0
    8.9097   -0.6632   24.6328 H   0  0  0  0  0  0  0  0  0  0  0  0
    7.5043   -2.2736   20.2958 H   0  0  0  0  0  0  0  0  0  0  0  0
    6.0337   -2.2445   21.2661 H   0  0  0  0  0  0  0  0  0  0  0  0
    8.6319   -2.6529   22.3168 H   0  0  0  0  0  0  0  0  0  0  0  0
    6.1986   -1.5814   23.8078 H   0  0  0  0  0  0  0  0  0  0  0  0
    6.5554   -3.2659   23.4202 H   0  0  0  0  0  0  0  0  0  0  0  0
    7.5971   -2.3934   24.5320 H   0  0  0  0  0  0  0  0  0  0  0  0
  1  2  1  0
  2  3  1  0
  3  4  1  0
  4  5  1  0
  5  6  2  0
  6  7  1  0
  7  8  2  0
  8  9  1  0
  9 10  2  0
 10 11  1  0
 11 12  2  0
 12 13  1  0
 13 14  2  0
 13 15  1  0
 12 16  1  0
 11 17  1  0
 10 18  1  0
  8 19  1  0
  6 20  1  0
  4 21  1  0
 21 22  2  0
 21 23  1  0
 23 24  1  1
 24 25  1  0
 25 26  1  0
 26 27  1  0
 27 28  2  0
 28 29  1  0
 29 30  2  0
 30 31  1  0
 31 32  2  0
 31 33  1  0
 29 34  1  0
 28 35  1  0
 26 36  1  0
 26 37  1  0
 25 38  1  0
 38 39  2  0
 38 40  1  0
 40 41  2  0
 41 42  1  0
 42 43  2  0
 43 44  1  0
 43 45  1  0
 45 46  2  0
 45 47  1  0
 42 48  1  0
 41 49  1  0
 24 50  1  0
 24 51  1  0
  3 52  1  0
  3 53  1  0
  2 54  1  6
  1 55  1  0
  1 56  1  0
  1 57  1  0
 23  2  1  0
 32 27  1  0
 46 40  1  0
 14  5  1  0
 46 23  1  0
 14  9  1  0
M  END
>  <cnnaffinities>  (59) 
[6.38423, 6.43201]

>  <score>  (59) 
6.38423

>  <index>  (59) 
58

>  <Smiles>  (59) 
C([C@]1(C(N(c2c(nc(c3c(c(c(c(c23)[H])[H])[H])[H])[H])[H])C(=O)[C@]21C(N(C(c1c(c(nc(n1)[H])[H])[H])([H])[H])C(=O)c1c(c(c(F)c(c21)[H])[H])[H])([H])[H])([H])[H])[H])([H])([H])[H]

>  <h>  (59) 
<NA>

>  <Training>  (59) 
True

>  <Success>  (59) 
True

>  <enamine_searched>  (59) 
False

>  <enamine_id>  (59) 
nan

$$$$

     RDKit          3D

 60 65  0  0  0  0  0  0  0  0999 V2000
    6.8951   -3.1251   25.7193 C   0  0  0  0  0  0  0  0  0  0  0  0
    7.7149   -2.7486   24.6427 O   0  0  0  0  0  0  0  0  0  0  0  0
    6.9752   -2.4361   23.4881 C   0  0  0  0  0  0  0  0  0  0  0  0
    7.9037   -1.8469   22.4221 C   0  0  1  0  0  0  0  0  0  0  0  0
    7.1655   -1.7671   21.0769 C   0  0  0  0  0  0  0  0  0  0  0  0
    6.8842   -0.3645   20.8943 N   0  0  0  0  0  0  0  0  0  0  0  0
    6.1237    0.1084   19.7994 C   0  0  0  0  0  0  0  0  0  0  0  0
    6.4436   -0.2356   18.5086 C   0  0  0  0  0  0  0  0  0  0  0  0
    5.7861    0.2104   17.4079 N   0  0  0  0  0  0  0  0  0  0  0  0
    4.7590    1.0049   17.6027 C   0  0  0  0  0  0  0  0  0  0  0  0
    4.2950    1.3990   18.8904 C   0  0  0  0  0  0  0  0  0  0  0  0
    3.1696    2.2491   19.0529 C   0  0  0  0  0  0  0  0  0  0  0  0
    2.7369    2.5981   20.3026 C   0  0  0  0  0  0  0  0  0  0  0  0
    3.3973    2.1043   21.4486 C   0  0  0  0  0  0  0  0  0  0  0  0
    4.4895    1.2838   21.3224 C   0  0  0  0  0  0  0  0  0  0  0  0
    4.9797    0.9310   20.0331 C   0  0  0  0  0  0  0  0  0  0  0  0
    4.9807    0.8987   22.2095 H   0  0  0  0  0  0  0  0  0  0  0  0
    3.0499    2.3917   22.4380 H   0  0  0  0  0  0  0  0  0  0  0  0
    1.8859    3.2614   20.4277 H   0  0  0  0  0  0  0  0  0  0  0  0
    2.6716    2.6291   18.1659 H   0  0  0  0  0  0  0  0  0  0  0  0
    4.2285    1.3697   16.7209 H   0  0  0  0  0  0  0  0  0  0  0  0
    7.3014   -0.8787   18.3105 H   0  0  0  0  0  0  0  0  0  0  0  0
    7.7264    0.4476   21.6261 C   0  0  0  0  0  0  0  0  0  0  0  0
    7.8508    1.6403   21.4572 O   0  0  0  0  0  0  0  0  0  0  0  0
    8.4828   -0.4157   22.6585 C   0  0  1  0  0  0  0  0  0  0  0  0
    8.2459    0.1061   24.0974 C   0  0  0  0  0  0  0  0  0  0  0  0
    8.8587    1.4009   24.3272 N   0  0  0  0  0  0  0  0  0  0  0  0
    8.1241    2.4351   25.0299 C   0  0  0  0  0  0  0  0  0  0  0  0
    7.4402    3.3714   24.0794 C   0  0  0  0  0  0  0  0  0  0  0  0
    6.1769    3.2907   23.7183 N   0  0  0  0  0  0  0  0  0  0  0  0
    6.0067    4.3174   22.8218 C   0  0  0  0  0  0  0  0  0  0  0  0
    7.1647    5.0252   22.6480 C   0  0  0  0  0  0  0  0  0  0  0  0
    8.0789    4.4015   23.4640 N   0  0  0  0  0  0  0  0  0  0  0  0
    9.0637    4.6144   23.5438 H   0  0  0  0  0  0  0  0  0  0  0  0
    7.4196    5.8715   22.0247 H   0  0  0  0  0  0  0  0  0  0  0  0
    5.0581    4.4713   22.3339 H   0  0  0  0  0  0  0  0  0  0  0  0
    8.8415    2.9871   25.6437 H   0  0  0  0  0  0  0  0  0  0  0  0
    7.3713    1.9648   25.6715 H   0  0  0  0  0  0  0  0  0  0  0  0
   10.1044    1.7133   23.8729 C   0  0  0  0  0  0  0  0  0  0  0  0
   10.6375    2.7909   24.1322 O   0  0  0  0  0  0  0  0  0  0  0  0
   10.7526    0.6909   23.0023 C   0  0  0  0  0  0  0  0  0  0  0  0
   12.1163    0.8254   22.7509 C   0  0  0  0  0  0  0  0  0  0  0  0
   12.7763   -0.1075   21.9695 C   0  0  0  0  0  0  0  0  0  0  0  0
   12.0151   -1.1050   21.3550 C   0  0  0  0  0  0  0  0  0  0  0  0
   12.7900   -2.2564   20.3014 Cl  0  0  0  0  0  0  0  0  0  0  0  0
   10.6384   -1.1730   21.5084 C   0  0  0  0  0  0  0  0  0  0  0  0
    9.9888   -0.3179   22.4007 C   0  0  0  0  0  0  0  0  0  0  0  0
   10.0831   -1.9142   20.9439 H   0  0  0  0  0  0  0  0  0  0  0  0
   13.8544   -0.0826   21.8386 H   0  0  0  0  0  0  0  0  0  0  0  0
   12.6174    1.6870   23.1854 H   0  0  0  0  0  0  0  0  0  0  0  0
    7.1792    0.1920   24.3123 H   0  0  0  0  0  0  0  0  0  0  0  0
    8.6720   -0.6152   24.7949 H   0  0  0  0  0  0  0  0  0  0  0  0
    7.7932   -2.1328   20.2619 H   0  0  0  0  0  0  0  0  0  0  0  0
    6.2321   -2.3373   21.0693 H   0  0  0  0  0  0  0  0  0  0  0  0
    8.7349   -2.5522   22.3818 H   0  0  0  0  0  0  0  0  0  0  0  0
    6.1485   -1.7451   23.7205 H   0  0  0  0  0  0  0  0  0  0  0  0
    6.5225   -3.3636   23.0983 H   0  0  0  0  0  0  0  0  0  0  0  0
    6.2556   -3.9826   25.4592 H   0  0  0  0  0  0  0  0  0  0  0  0
    7.5429   -3.4114   26.5516 H   0  0  0  0  0  0  0  0  0  0  0  0
    6.2542   -2.2905   26.0444 H   0  0  0  0  0  0  0  0  0  0  0  0
  1  2  1  0
  2  3  1  0
  3  4  1  0
  4  5  1  0
  5  6  1  0
  6  7  1  0
  7  8  2  0
  8  9  1  0
  9 10  2  0
 10 11  1  0
 11 12  2  0
 12 13  1  0
 13 14  2  0
 14 15  1  0
 15 16  2  0
 15 17  1  0
 14 18  1  0
 13 19  1  0
 12 20  1  0
 10 21  1  0
  8 22  1  0
  6 23  1  0
 23 24  2  0
 23 25  1  0
 25 26  1  1
 26 27  1  0
 27 28  1  0
 28 29  1  0
 29 30  2  0
 30 31  1  0
 31 32  2  0
 32 33  1  0
 33 34  1  0
 32 35  1  0
 31 36  1  0
 28 37  1  0
 28 38  1  0
 27 39  1  0
 39 40  2  0
 39 41  1  0
 41 42  2  0
 42 43  1  0
 43 44  2  0
 44 45  1  0
 44 46  1  0
 46 47  2  0
 46 48  1  0
 43 49  1  0
 42 50  1  0
 26 51  1  0
 26 52  1  0
  5 53  1  0
  5 54  1  0
  4 55  1  6
  3 56  1  0
  3 57  1  0
  1 58  1  0
  1 59  1  0
  1 60  1  0
 25  4  1  0
 33 29  1  0
 47 41  1  0
 16  7  1  0
 47 25  1  0
 16 11  1  0
M  END
>  <cnnaffinities>  (60) 
[6.72126, 6.49401, 6.2302, 6.31702]

>  <score>  (60) 
6.72126

>  <index>  (60) 
59

>  <Smiles>  (60) 
C(OC([C@]1(C(N(c2c(nc(c3c(c(c(c(c23)[H])[H])[H])[H])[H])[H])C(=O)[C@]21C(N(C(c1nc(c(n1[H])[H])[H])([H])[H])C(=O)c1c(c(c(Cl)c(c21)[H])[H])[H])([H])[H])([H])[H])[H])([H])[H])([H])([H])[H]

>  <h>  (60) 
<NA>

>  <Training>  (60) 
True

>  <Success>  (60) 
True

>  <enamine_searched>  (60) 
False

>  <enamine_id>  (60) 
nan

$$$$

     RDKit          3D

 38 41  0  0  0  0  0  0  0  0999 V2000
    7.8617    1.7417   21.1704 O   0  0  0  0  0  0  0  0  0  0  0  0
    8.0093    0.5587   21.4162 C   0  0  0  0  0  0  0  0  0  0  0  0
    6.9695   -0.4692   20.8963 C   0  0  0  0  0  0  0  0  0  0  0  0
    6.1153    0.0813   19.7725 C   0  0  0  0  0  0  0  0  0  0  0  0
    6.4243   -0.2091   18.4678 C   0  0  0  0  0  0  0  0  0  0  0  0
    5.7638    0.2414   17.3674 N   0  0  0  0  0  0  0  0  0  0  0  0
    4.7345    1.0282   17.5769 C   0  0  0  0  0  0  0  0  0  0  0  0
    4.2885    1.4210   18.8688 C   0  0  0  0  0  0  0  0  0  0  0  0
    3.1662    2.2738   19.0429 C   0  0  0  0  0  0  0  0  0  0  0  0
    2.7655    2.6485   20.2979 C   0  0  0  0  0  0  0  0  0  0  0  0
    3.4676    2.1790   21.4292 C   0  0  0  0  0  0  0  0  0  0  0  0
    4.5530    1.3477   21.2865 C   0  0  0  0  0  0  0  0  0  0  0  0
    4.9972    0.9448   19.9991 C   0  0  0  0  0  0  0  0  0  0  0  0
    5.0927    1.0133   22.1655 H   0  0  0  0  0  0  0  0  0  0  0  0
    3.1461    2.4843   22.4199 H   0  0  0  0  0  0  0  0  0  0  0  0
    1.9153    3.3123   20.4309 H   0  0  0  0  0  0  0  0  0  0  0  0
    2.6452    2.6465   18.1637 H   0  0  0  0  0  0  0  0  0  0  0  0
    4.1991    1.3982   16.7004 H   0  0  0  0  0  0  0  0  0  0  0  0
    7.2713   -0.8553   18.2448 H   0  0  0  0  0  0  0  0  0  0  0  0
    6.3239   -0.7871   21.7266 H   0  0  0  0  0  0  0  0  0  0  0  0
    7.4808   -1.3737   20.5359 H   0  0  0  0  0  0  0  0  0  0  0  0
    9.1027    0.1045   22.1279 N   0  0  0  0  0  0  0  0  0  0  0  0
   10.3117    0.9323   22.1977 C   0  0  0  0  0  0  0  0  0  0  0  0
   10.8630    1.0271   23.6160 C   0  0  0  0  0  0  0  0  0  0  0  0
   10.9270   -0.3393   24.2240 C   0  0  0  0  0  0  0  0  0  0  0  0
   11.9146   -0.7817   25.5761 S   0  0  0  0  0  0  0  0  0  0  0  0
   11.2732   -2.3843   25.5672 C   0  0  0  0  0  0  0  0  0  0  0  0
   10.3570   -2.5620   24.5722 C   0  0  0  0  0  0  0  0  0  0  0  0
   10.1618   -1.3780   23.7961 C   0  0  0  0  0  0  0  0  0  0  0  0
    9.2121   -1.2563   22.6325 C   0  0  0  0  0  0  0  0  0  0  0  0
    9.5232   -1.9674   21.8514 H   0  0  0  0  0  0  0  0  0  0  0  0
    8.2305   -1.6038   22.9702 H   0  0  0  0  0  0  0  0  0  0  0  0
    9.8382   -3.5028   24.4029 H   0  0  0  0  0  0  0  0  0  0  0  0
   11.6044   -3.1084   26.3012 H   0  0  0  0  0  0  0  0  0  0  0  0
   10.2078    1.6642   24.2185 H   0  0  0  0  0  0  0  0  0  0  0  0
   11.8476    1.5074   23.6138 H   0  0  0  0  0  0  0  0  0  0  0  0
   11.0934    0.4989   21.5683 H   0  0  0  0  0  0  0  0  0  0  0  0
   10.0854    1.9234   21.8029 H   0  0  0  0  0  0  0  0  0  0  0  0
  1  2  2  0
  2  3  1  0
  3  4  1  0
  4  5  2  0
  5  6  1  0
  6  7  2  0
  7  8  1  0
  8  9  2  0
  9 10  1  0
 10 11  2  0
 11 12  1  0
 12 13  2  0
 12 14  1  0
 11 15  1  0
 10 16  1  0
  9 17  1  0
  7 18  1  0
  5 19  1  0
  3 20  1  0
  3 21  1  0
  2 22  1  0
 22 23  1  0
 23 24  1  0
 24 25  1  0
 25 26  1  0
 26 27  1  0
 27 28  2  0
 28 29  1  0
 29 30  1  0
 30 31  1  0
 30 32  1  0
 28 33  1  0
 27 34  1  0
 24 35  1  0
 24 36  1  0
 23 37  1  0
 23 38  1  0
 13  4  1  0
 30 22  1  0
 13  8  1  0
 29 25  2  0
M  END
>  <cnnaffinities>  (61) 
[5.48271]

>  <score>  (61) 
5.48271

>  <index>  (61) 
60

>  <Smiles>  (61) 
O=C(C(c1c(nc(c2c(c(c(c(c12)[H])[H])[H])[H])[H])[H])([H])[H])N1C(C(c2sc(c(c2C1([H])[H])[H])[H])([H])[H])([H])[H]

>  <h>  (61) 
<NA>

>  <Training>  (61) 
True

>  <Success>  (61) 
True

>  <enamine_searched>  (61) 
False

>  <enamine_id>  (61) 
nan

$$$$

     RDKit          3D

 64 70  0  0  0  0  0  0  0  0999 V2000
    9.3781    2.5884   25.5151 O   0  0  0  0  0  0  0  0  0  0  0  0
    9.0627    1.6778   24.7604 C   0  0  0  0  0  0  0  0  0  0  0  0
   10.0775    0.8633   24.0087 C   0  0  0  0  0  0  0  0  0  0  0  0
   11.4192    1.1501   24.2262 C   0  0  0  0  0  0  0  0  0  0  0  0
   12.4066    0.5680   23.4583 C   0  0  0  0  0  0  0  0  0  0  0  0
   12.0236   -0.3032   22.4379 C   0  0  0  0  0  0  0  0  0  0  0  0
   13.2495   -0.9991   21.4140 Cl  0  0  0  0  0  0  0  0  0  0  0  0
   10.6930   -0.6209   22.2223 C   0  0  0  0  0  0  0  0  0  0  0  0
    9.6958   -0.0859   23.0516 C   0  0  0  0  0  0  0  0  0  0  0  0
    8.2287   -0.4144   22.8245 C   0  0  1  0  0  0  0  0  0  0  0  0
    7.4409   -0.0076   24.0988 C   0  0  0  0  0  0  0  0  0  0  0  0
    7.7663    1.3434   24.4997 N   0  0  0  0  0  0  0  0  0  0  0  0
    6.6851    2.2684   24.7869 C   0  0  0  0  0  0  0  0  0  0  0  0
    5.8688    1.8849   26.0070 C   0  0  0  0  0  0  0  0  0  0  0  0
    6.3548    2.0867   27.2804 C   0  0  0  0  0  0  0  0  0  0  0  0
    5.5621    1.6576   28.3438 C   0  0  0  0  0  0  0  0  0  0  0  0
    4.3763    1.0736   28.1925 N   0  0  0  0  0  0  0  0  0  0  0  0
    3.8925    0.8904   26.9737 N   0  0  0  0  0  0  0  0  0  0  0  0
    4.6061    1.2832   25.9215 C   0  0  0  0  0  0  0  0  0  0  0  0
    4.1259    1.0921   24.9616 H   0  0  0  0  0  0  0  0  0  0  0  0
    5.8865    1.7764   29.3766 H   0  0  0  0  0  0  0  0  0  0  0  0
    7.3250    2.5615   27.4395 H   0  0  0  0  0  0  0  0  0  0  0  0
    7.1533    3.2454   24.9362 H   0  0  0  0  0  0  0  0  0  0  0  0
    6.0364    2.3166   23.8981 H   0  0  0  0  0  0  0  0  0  0  0  0
    7.6781   -0.6975   24.9257 H   0  0  0  0  0  0  0  0  0  0  0  0
    6.3632   -0.0488   23.9100 H   0  0  0  0  0  0  0  0  0  0  0  0
    7.6911    0.4113   21.6308 C   0  0  0  0  0  0  0  0  0  0  0  0
    7.8725    1.5886   21.4227 O   0  0  0  0  0  0  0  0  0  0  0  0
    6.9253   -0.4128   20.8338 N   0  0  0  0  0  0  0  0  0  0  0  0
    6.1406    0.1031   19.7691 C   0  0  0  0  0  0  0  0  0  0  0  0
    6.4455   -0.2248   18.4734 C   0  0  0  0  0  0  0  0  0  0  0  0
    5.7691    0.2206   17.3858 N   0  0  0  0  0  0  0  0  0  0  0  0
    4.7464    1.0154   17.5962 C   0  0  0  0  0  0  0  0  0  0  0  0
    4.2968    1.4120   18.8872 C   0  0  0  0  0  0  0  0  0  0  0  0
    3.1671    2.2589   19.0631 C   0  0  0  0  0  0  0  0  0  0  0  0
    2.7472    2.6079   20.3173 C   0  0  0  0  0  0  0  0  0  0  0  0
    3.4270    2.1145   21.4521 C   0  0  0  0  0  0  0  0  0  0  0  0
    4.5192    1.2957   21.3086 C   0  0  0  0  0  0  0  0  0  0  0  0
    5.0013    0.9383   20.0155 C   0  0  0  0  0  0  0  0  0  0  0  0
    5.0319    0.9096   22.1837 H   0  0  0  0  0  0  0  0  0  0  0  0
    3.0853    2.3997   22.4437 H   0  0  0  0  0  0  0  0  0  0  0  0
    1.8971    3.2733   20.4425 H   0  0  0  0  0  0  0  0  0  0  0  0
    2.6622    2.6384   18.1788 H   0  0  0  0  0  0  0  0  0  0  0  0
    4.2186    1.3828   16.7159 H   0  0  0  0  0  0  0  0  0  0  0  0
    7.2901   -0.8796   18.2642 H   0  0  0  0  0  0  0  0  0  0  0  0
    6.7890   -1.7647   21.3403 C   0  0  0  0  0  0  0  0  0  0  0  0
    7.9180   -1.8767   22.3803 C   0  0  2  0  0  0  0  0  0  0  0  0
    7.5810   -2.8829   23.5012 C   0  0  0  0  0  0  0  0  0  0  0  0
    7.4530   -4.2417   23.0157 N   0  0  0  0  0  0  0  0  0  0  0  0
    6.2503   -4.8337   22.8321 C   0  0  0  0  0  0  0  0  0  0  0  0
    5.0888   -4.2323   22.8224 N   0  0  0  0  0  0  0  0  0  0  0  0
    4.0822   -5.0481   22.3734 N   0  0  0  0  0  0  0  0  0  0  0  0
    4.4847   -6.2481   22.1300 C   0  0  0  0  0  0  0  0  0  0  0  0
    6.1541   -6.5331   22.4692 S   0  0  0  0  0  0  0  0  0  0  0  0
    3.8662   -6.9919   21.6512 H   0  0  0  0  0  0  0  0  0  0  0  0
    8.2837   -4.7435   22.7393 H   0  0  0  0  0  0  0  0  0  0  0  0
    6.6246   -2.6317   23.9786 H   0  0  0  0  0  0  0  0  0  0  0  0
    8.3757   -2.8802   24.2553 H   0  0  0  0  0  0  0  0  0  0  0  0
    8.8183   -2.2401   21.8743 H   0  0  0  0  0  0  0  0  0  0  0  0
    5.8079   -1.9314   21.8104 H   0  0  0  0  0  0  0  0  0  0  0  0
    6.8831   -2.4897   20.5275 H   0  0  0  0  0  0  0  0  0  0  0  0
   10.4446   -1.2582   21.3795 H   0  0  0  0  0  0  0  0  0  0  0  0
   13.4534    0.7994   23.6158 H   0  0  0  0  0  0  0  0  0  0  0  0
   11.6234    1.8674   25.0011 H   0  0  0  0  0  0  0  0  0  0  0  0
  1  2  2  0
  2  3  1  0
  3  4  2  0
  4  5  1  0
  5  6  2  0
  6  7  1  0
  6  8  1  0
  8  9  2  0
  9 10  1  0
 10 11  1  1
 11 12  1  0
 12 13  1  0
 13 14  1  0
 14 15  2  0
 15 16  1  0
 16 17  2  0
 17 18  1  0
 18 19  2  0
 19 20  1  0
 16 21  1  0
 15 22  1  0
 13 23  1  0
 13 24  1  0
 11 25  1  0
 11 26  1  0
 10 27  1  0
 27 28  2  0
 27 29  1  0
 29 30  1  0
 30 31  2  0
 31 32  1  0
 32 33  2  0
 33 34  1  0
 34 35  2  0
 35 36  1  0
 36 37  2  0
 37 38  1  0
 38 39  2  0
 38 40  1  0
 37 41  1  0
 36 42  1  0
 35 43  1  0
 33 44  1  0
 31 45  1  0
 29 46  1  0
 46 47  1  0
 47 48  1  0
 48 49  1  0
 49 50  1  0
 50 51  2  0
 51 52  1  0
 52 53  2  0
 53 54  1  0
 53 55  1  0
 49 56  1  0
 48 57  1  0
 48 58  1  0
 47 59  1  6
 46 60  1  0
 46 61  1  0
  8 62  1  0
  5 63  1  0
  4 64  1  0
 12  2  1  0
 19 14  1  0
 39 30  1  0
 54 50  1  0
  9  3  1  0
 47 10  1  0
 39 34  1  0
M  END
>  <cnnaffinities>  (62) 
[6.70581, 6.91369, 6.747, 6.83972, 6.11571]

>  <score>  (62) 
6.70581

>  <index>  (62) 
61

>  <Smiles>  (62) 
O=C1c2c(c(c(Cl)c(c2[C@@]2(C(N1C(c1c(c(nnc1[H])[H])[H])([H])[H])([H])[H])C(=O)N(c1c(nc(c3c(c(c(c(c13)[H])[H])[H])[H])[H])[H])C([C@@]2(C(N(c1nnc(s1)[H])[H])([H])[H])[H])([H])[H])[H])[H])[H]

>  <h>  (62) 
<NA>

>  <Training>  (62) 
True

>  <Success>  (62) 
True

>  <enamine_searched>  (62) 
False

>  <enamine_id>  (62) 
nan

$$$$

     RDKit          3D

 70 76  0  0  0  0  0  0  0  0999 V2000
    7.5586   -2.5232   23.7847 C   0  0  0  0  0  0  0  0  0  0  0  0
    7.8924   -1.7159   22.5228 C   0  0  1  0  0  0  0  0  0  0  0  0
    6.6926   -1.6079   21.5552 C   0  0  0  0  0  0  0  0  0  0  0  0
    6.9558   -0.3793   20.8260 N   0  0  0  0  0  0  0  0  0  0  0  0
    6.1467    0.1112   19.7599 C   0  0  0  0  0  0  0  0  0  0  0  0
    6.4548   -0.2149   18.4664 C   0  0  0  0  0  0  0  0  0  0  0  0
    5.7655    0.2200   17.3801 N   0  0  0  0  0  0  0  0  0  0  0  0
    4.7447    1.0118   17.5945 C   0  0  0  0  0  0  0  0  0  0  0  0
    4.2962    1.4167   18.8822 C   0  0  0  0  0  0  0  0  0  0  0  0
    3.1743    2.2711   19.0643 C   0  0  0  0  0  0  0  0  0  0  0  0
    2.7634    2.6375   20.3148 C   0  0  0  0  0  0  0  0  0  0  0  0
    3.4535    2.1558   21.4510 C   0  0  0  0  0  0  0  0  0  0  0  0
    4.5395    1.3275   21.3011 C   0  0  0  0  0  0  0  0  0  0  0  0
    5.0099    0.9456   20.0130 C   0  0  0  0  0  0  0  0  0  0  0  0
    5.0516    0.9555   22.1837 H   0  0  0  0  0  0  0  0  0  0  0  0
    3.1334    2.4591   22.4448 H   0  0  0  0  0  0  0  0  0  0  0  0
    1.9170    3.3103   20.4367 H   0  0  0  0  0  0  0  0  0  0  0  0
    2.6693    2.6494   18.1788 H   0  0  0  0  0  0  0  0  0  0  0  0
    4.2150    1.3798   16.7129 H   0  0  0  0  0  0  0  0  0  0  0  0
    7.3000   -0.8668   18.2522 H   0  0  0  0  0  0  0  0  0  0  0  0
    7.9053    0.4248   21.4144 C   0  0  0  0  0  0  0  0  0  0  0  0
    8.2812    1.4846   20.9462 O   0  0  0  0  0  0  0  0  0  0  0  0
    8.3775   -0.2444   22.7294 C   0  0  1  0  0  0  0  0  0  0  0  0
    7.6659    0.4057   23.9469 C   0  0  0  0  0  0  0  0  0  0  0  0
    8.0537    1.7888   24.1190 N   0  0  0  0  0  0  0  0  0  0  0  0
    7.0471    2.8294   24.2869 C   0  0  0  0  0  0  0  0  0  0  0  0
    6.8584    3.6509   23.0060 C   0  0  0  0  0  0  0  0  0  0  0  0
    5.7179    4.6474   23.1227 N   0  0  2  0  0  4  0  0  0  0  0  0
    5.2627    5.1684   21.7779 C   0  0  0  0  0  0  0  0  0  0  0  0
    6.1412    6.3959   21.4759 C   0  0  0  0  0  0  0  0  0  0  0  0
    6.6680    6.8916   22.8302 C   0  0  0  0  0  0  0  0  0  0  0  0
    6.5085    8.3835   23.1782 C   0  0  0  0  0  0  0  0  0  0  0  0
    7.9274    8.5821   23.2396 O   0  0  0  0  0  0  0  0  0  0  0  0
    8.1757    7.2104   22.9099 C   0  0  0  0  0  0  0  0  0  0  0  0
    8.7279    6.6897   23.7069 H   0  0  0  0  0  0  0  0  0  0  0  0
    8.7348    7.1023   21.9690 H   0  0  0  0  0  0  0  0  0  0  0  0
    6.0329    9.0004   22.4024 H   0  0  0  0  0  0  0  0  0  0  0  0
    6.0224    8.5960   24.1409 H   0  0  0  0  0  0  0  0  0  0  0  0
    6.1126    5.9108   23.8711 C   0  0  0  0  0  0  0  0  0  0  0  0
    6.8492    5.6502   24.6320 H   0  0  0  0  0  0  0  0  0  0  0  0
    5.2271    6.3169   24.3678 H   0  0  0  0  0  0  0  0  0  0  0  0
    6.9798    6.1213   20.8244 H   0  0  0  0  0  0  0  0  0  0  0  0
    5.5741    7.1781   20.9581 H   0  0  0  0  0  0  0  0  0  0  0  0
    4.2074    5.4288   21.8589 H   0  0  0  0  0  0  0  0  0  0  0  0
    5.3559    4.3619   21.0475 H   0  0  0  0  0  0  0  0  0  0  0  0
    4.9313    4.1640   23.5863 H   0  0  0  0  0  0  0  0  0  0  0  0
    7.7784    4.1963   22.7703 H   0  0  0  0  0  0  0  0  0  0  0  0
    6.6392    2.9833   22.1695 H   0  0  0  0  0  0  0  0  0  0  0  0
    6.1031    2.3372   24.5485 H   0  0  0  0  0  0  0  0  0  0  0  0
    7.3528    3.4641   25.1246 H   0  0  0  0  0  0  0  0  0  0  0  0
    9.3723    2.1441   24.1320 C   0  0  0  0  0  0  0  0  0  0  0  0
    9.7559    3.2333   24.5365 O   0  0  0  0  0  0  0  0  0  0  0  0
   10.3307    1.1190   23.5800 C   0  0  0  0  0  0  0  0  0  0  0  0
   11.6945    1.3749   23.6963 C   0  0  0  0  0  0  0  0  0  0  0  0
   12.6208    0.5210   23.1352 C   0  0  0  0  0  0  0  0  0  0  0  0
   12.1639   -0.5847   22.4190 C   0  0  0  0  0  0  0  0  0  0  0  0
   13.3256   -1.6274   21.6523 Cl  0  0  0  0  0  0  0  0  0  0  0  0
   10.8131   -0.8564   22.2924 C   0  0  0  0  0  0  0  0  0  0  0  0
    9.8699   -0.0245   22.9066 C   0  0  0  0  0  0  0  0  0  0  0  0
   10.5140   -1.7066   21.6874 H   0  0  0  0  0  0  0  0  0  0  0  0
   13.6856    0.7068   23.2234 H   0  0  0  0  0  0  0  0  0  0  0  0
   11.9960    2.2745   24.2183 H   0  0  0  0  0  0  0  0  0  0  0  0
    7.9188   -0.1762   24.8497 H   0  0  0  0  0  0  0  0  0  0  0  0
    6.5821    0.3777   23.7961 H   0  0  0  0  0  0  0  0  0  0  0  0
    6.6257   -2.4557   20.8649 H   0  0  0  0  0  0  0  0  0  0  0  0
    5.7391   -1.5626   22.1076 H   0  0  0  0  0  0  0  0  0  0  0  0
    8.6922   -2.2307   21.9831 H   0  0  0  0  0  0  0  0  0  0  0  0
    8.3937   -2.5383   24.4959 H   0  0  0  0  0  0  0  0  0  0  0  0
    7.3148   -3.5641   23.5347 H   0  0  0  0  0  0  0  0  0  0  0  0
    6.6866   -2.1049   24.3062 H   0  0  0  0  0  0  0  0  0  0  0  0
  1  2  1  0
  2  3  1  0
  3  4  1  0
  4  5  1  0
  5  6  2  0
  6  7  1  0
  7  8  2  0
  8  9  1  0
  9 10  2  0
 10 11  1  0
 11 12  2  0
 12 13  1  0
 13 14  2  0
 13 15  1  0
 12 16  1  0
 11 17  1  0
 10 18  1  0
  8 19  1  0
  6 20  1  0
  4 21  1  0
 21 22  2  0
 21 23  1  0
 23 24  1  1
 24 25  1  0
 25 26  1  0
 26 27  1  0
 27 28  1  0
 28 29  1  0
 29 30  1  0
 30 31  1  0
 31 32  1  0
 32 33  1  0
 33 34  1  0
 34 35  1  0
 34 36  1  0
 32 37  1  0
 32 38  1  0
 31 39  1  0
 39 40  1  0
 39 41  1  0
 30 42  1  0
 30 43  1  0
 29 44  1  0
 29 45  1  0
 28 46  1  1
 27 47  1  0
 27 48  1  0
 26 49  1  0
 26 50  1  0
 25 51  1  0
 51 52  2  0
 51 53  1  0
 53 54  2  0
 54 55  1  0
 55 56  2  0
 56 57  1  0
 56 58  1  0
 58 59  2  0
 58 60  1  0
 55 61  1  0
 54 62  1  0
 24 63  1  0
 24 64  1  0
  3 65  1  0
  3 66  1  0
  2 67  1  6
  1 68  1  0
  1 69  1  0
  1 70  1  0
 23  2  1  0
 39 28  1  0
 59 53  1  0
 14  5  1  0
 59 23  1  0
 14  9  1  0
 34 31  1  0
M  CHG  1  28   1
M  END
>  <cnnaffinities>  (63) 
[7.33618]

>  <score>  (63) 
7.33618

>  <index>  (63) 
62

>  <Smiles>  (63) 
C([C@]1(C(N(c2c(nc(c3c(c(c(c(c23)[H])[H])[H])[H])[H])[H])C(=O)[C@]21C(N(C(C([N@@+]1(C(C(C3(C(OC3([H])[H])([H])[H])C1([H])[H])([H])[H])([H])[H])[H])([H])[H])([H])[H])C(=O)c1c(c(c(Cl)c(c21)[H])[H])[H])([H])[H])([H])[H])[H])([H])([H])[H]

>  <h>  (63) 
<NA>

>  <Training>  (63) 
True

>  <Success>  (63) 
True

>  <enamine_searched>  (63) 
False

>  <enamine_id>  (63) 
nan

$$$$

     RDKit          3D

 56 61  0  0  0  0  0  0  0  0999 V2000
    5.5661    4.8329   21.4543 C   0  0  0  0  0  0  0  0  0  0  0  0
    6.5802    4.5696   22.4608 N   0  0  0  0  0  0  0  0  0  0  0  0
    7.7844    5.1691   22.5686 C   0  0  0  0  0  0  0  0  0  0  0  0
    8.4641    4.5279   23.5759 C   0  0  0  0  0  0  0  0  0  0  0  0
    7.5855    3.5109   24.0083 C   0  0  0  0  0  0  0  0  0  0  0  0
    7.8916    2.4343   25.0238 C   0  0  0  0  0  0  0  0  0  0  0  0
    8.6651    1.3120   24.4824 N   0  0  0  0  0  0  0  0  0  0  0  0
    8.0012    0.0703   24.1465 C   0  0  0  0  0  0  0  0  0  0  0  0
    8.3668   -0.4394   22.7306 C   0  0  1  0  0  0  0  0  0  0  0  0
    7.7339   -1.8342   22.5269 C   0  0  0  0  0  0  0  0  0  0  0  0
    6.9811   -1.8107   21.1830 C   0  0  0  0  0  0  0  0  0  0  0  0
    6.8703   -0.3987   20.8791 N   0  0  0  0  0  0  0  0  0  0  0  0
    6.1294    0.1058   19.7797 C   0  0  0  0  0  0  0  0  0  0  0  0
    6.4483   -0.2269   18.4876 C   0  0  0  0  0  0  0  0  0  0  0  0
    5.7778    0.2190   17.3947 N   0  0  0  0  0  0  0  0  0  0  0  0
    4.7536    1.0129   17.5997 C   0  0  0  0  0  0  0  0  0  0  0  0
    4.2945    1.4168   18.8837 C   0  0  0  0  0  0  0  0  0  0  0  0
    3.1599    2.2550   19.0629 C   0  0  0  0  0  0  0  0  0  0  0  0
    2.7336    2.5983   20.3151 C   0  0  0  0  0  0  0  0  0  0  0  0
    3.4176    2.1141   21.4535 C   0  0  0  0  0  0  0  0  0  0  0  0
    4.5191    1.3111   21.3080 C   0  0  0  0  0  0  0  0  0  0  0  0
    5.0001    0.9507   20.0184 C   0  0  0  0  0  0  0  0  0  0  0  0
    5.0271    0.9378   22.1917 H   0  0  0  0  0  0  0  0  0  0  0  0
    3.0812    2.3933   22.4490 H   0  0  0  0  0  0  0  0  0  0  0  0
    1.8753    3.2523   20.4413 H   0  0  0  0  0  0  0  0  0  0  0  0
    2.6553    2.6311   18.1776 H   0  0  0  0  0  0  0  0  0  0  0  0
    4.2290    1.3764   16.7163 H   0  0  0  0  0  0  0  0  0  0  0  0
    7.2922   -0.8808   18.2679 H   0  0  0  0  0  0  0  0  0  0  0  0
    7.7096    0.4136   21.6099 C   0  0  0  0  0  0  0  0  0  0  0  0
    7.9031    1.5810   21.3694 O   0  0  0  0  0  0  0  0  0  0  0  0
    5.9808   -2.2588   21.2400 H   0  0  0  0  0  0  0  0  0  0  0  0
    7.5407   -2.3262   20.4006 H   0  0  0  0  0  0  0  0  0  0  0  0
    8.4882   -2.6240   22.5684 H   0  0  0  0  0  0  0  0  0  0  0  0
    7.0279   -2.0331   23.3409 H   0  0  0  0  0  0  0  0  0  0  0  0
    9.8722   -0.3939   22.5771 C   0  0  0  0  0  0  0  0  0  0  0  0
   10.4973   -1.1966   21.6143 C   0  0  0  0  0  0  0  0  0  0  0  0
   11.8692   -1.1282   21.4515 C   0  0  0  0  0  0  0  0  0  0  0  0
   12.6696   -2.0916   20.2433 Cl  0  0  0  0  0  0  0  0  0  0  0  0
   12.6380   -0.2352   22.1939 C   0  0  0  0  0  0  0  0  0  0  0  0
   12.0195    0.5860   23.1143 C   0  0  0  0  0  0  0  0  0  0  0  0
   10.6420    0.5145   23.3142 C   0  0  0  0  0  0  0  0  0  0  0  0
   10.0106    1.4779   24.2831 C   0  0  0  0  0  0  0  0  0  0  0  0
   10.6450    2.3726   24.8274 O   0  0  0  0  0  0  0  0  0  0  0  0
   12.5784    1.3105   23.6949 H   0  0  0  0  0  0  0  0  0  0  0  0
   13.7010   -0.1740   21.9991 H   0  0  0  0  0  0  0  0  0  0  0  0
    9.9188   -1.8383   20.9552 H   0  0  0  0  0  0  0  0  0  0  0  0
    8.2559   -0.7227   24.8721 H   0  0  0  0  0  0  0  0  0  0  0  0
    6.9241    0.2592   24.1787 H   0  0  0  0  0  0  0  0  0  0  0  0
    6.9580    2.0343   25.4404 H   0  0  0  0  0  0  0  0  0  0  0  0
    8.4886    2.8655   25.8329 H   0  0  0  0  0  0  0  0  0  0  0  0
    6.4308    3.5662   23.3486 N   0  0  0  0  0  0  0  0  0  0  0  0
    9.4552    4.7093   23.9643 H   0  0  0  0  0  0  0  0  0  0  0  0
    8.0559    5.9780   21.9016 H   0  0  0  0  0  0  0  0  0  0  0  0
    4.5848    4.7737   21.9327 H   0  0  0  0  0  0  0  0  0  0  0  0
    5.7350    5.8449   21.0689 H   0  0  0  0  0  0  0  0  0  0  0  0
    5.6084    4.0964   20.6383 H   0  0  0  0  0  0  0  0  0  0  0  0
  1  2  1  0
  2  3  1  0
  3  4  2  0
  4  5  1  0
  5  6  1  0
  6  7  1  0
  7  8  1  0
  9  8  1  1
  9 10  1  0
 10 11  1  0
 11 12  1  0
 12 13  1  0
 13 14  2  0
 14 15  1  0
 15 16  2  0
 16 17  1  0
 17 18  2  0
 18 19  1  0
 19 20  2  0
 20 21  1  0
 21 22  2  0
 21 23  1  0
 20 24  1  0
 19 25  1  0
 18 26  1  0
 16 27  1  0
 14 28  1  0
 12 29  1  0
 29 30  2  0
 11 31  1  0
 11 32  1  0
 10 33  1  0
 10 34  1  0
  9 35  1  0
 35 36  2  0
 36 37  1  0
 37 38  1  0
 37 39  2  0
 39 40  1  0
 40 41  2  0
 41 42  1  0
 42 43  2  0
 40 44  1  0
 39 45  1  0
 36 46  1  0
  8 47  1  0
  8 48  1  0
  6 49  1  0
  6 50  1  0
  5 51  2  0
  4 52  1  0
  3 53  1  0
  1 54  1  0
  1 55  1  0
  1 56  1  0
 51  2  1  0
 42  7  1  0
 29  9  1  0
 41 35  1  0
 22 13  1  0
 22 17  1  0
M  END
>  <cnnaffinities>  (64) 
[6.41187]

>  <score>  (64) 
6.41187

>  <index>  (64) 
63

>  <Smiles>  (64) 
C(n1c(c(c(C(N2C([C@]3(C(C(N(c4c(nc(c5c(c(c(c(c45)[H])[H])[H])[H])[H])[H])C3=O)([H])[H])([H])[H])c3c(c(Cl)c(c(c3C2=O)[H])[H])[H])([H])[H])([H])[H])n1)[H])[H])([H])([H])[H]

>  <h>  (64) 
<NA>

>  <Training>  (64) 
True

>  <Success>  (64) 
True

>  <enamine_searched>  (64) 
False

>  <enamine_id>  (64) 
nan

$$$$

     RDKit          3D

 66 71  0  0  0  0  0  0  0  0999 V2000
    7.6437   -2.6006   23.6669 C   0  0  0  0  0  0  0  0  0  0  0  0
    7.9968   -1.7529   22.4325 C   0  0  1  0  0  0  0  0  0  0  0  0
    6.8106   -1.6579   21.4447 C   0  0  0  0  0  0  0  0  0  0  0  0
    6.9757   -0.3559   20.8270 N   0  0  0  0  0  0  0  0  0  0  0  0
    6.1587    0.1223   19.7636 C   0  0  0  0  0  0  0  0  0  0  0  0
    6.4514   -0.2166   18.4662 C   0  0  0  0  0  0  0  0  0  0  0  0
    5.7617    0.2170   17.3845 N   0  0  0  0  0  0  0  0  0  0  0  0
    4.7446    1.0184   17.5930 C   0  0  0  0  0  0  0  0  0  0  0  0
    4.3019    1.4216   18.8863 C   0  0  0  0  0  0  0  0  0  0  0  0
    3.1813    2.2782   19.0678 C   0  0  0  0  0  0  0  0  0  0  0  0
    2.7733    2.6396   20.3239 C   0  0  0  0  0  0  0  0  0  0  0  0
    3.4545    2.1437   21.4578 C   0  0  0  0  0  0  0  0  0  0  0  0
    4.5354    1.3061   21.3053 C   0  0  0  0  0  0  0  0  0  0  0  0
    5.0144    0.9488   20.0117 C   0  0  0  0  0  0  0  0  0  0  0  0
    5.0327    0.9001   22.1801 H   0  0  0  0  0  0  0  0  0  0  0  0
    3.1234    2.4366   22.4522 H   0  0  0  0  0  0  0  0  0  0  0  0
    1.9310    3.3169   20.4512 H   0  0  0  0  0  0  0  0  0  0  0  0
    2.6748    2.6623   18.1874 H   0  0  0  0  0  0  0  0  0  0  0  0
    4.2171    1.3844   16.7129 H   0  0  0  0  0  0  0  0  0  0  0  0
    7.2923   -0.8735   18.2473 H   0  0  0  0  0  0  0  0  0  0  0  0
    7.8438    0.4762   21.4835 C   0  0  0  0  0  0  0  0  0  0  0  0
    8.0621    1.6327   21.1608 O   0  0  0  0  0  0  0  0  0  0  0  0
    8.4714   -0.2800   22.6783 C   0  0  1  0  0  0  0  0  0  0  0  0
    7.9156    0.2861   24.0070 C   0  0  0  0  0  0  0  0  0  0  0  0
    8.4042    1.6237   24.2863 N   0  0  0  0  0  0  0  0  0  0  0  0
    7.4826    2.5656   24.9145 C   0  0  0  0  0  0  0  0  0  0  0  0
    6.6309    3.3308   23.9013 C   0  0  0  0  0  0  0  0  0  0  0  0
    7.4494    4.2383   23.0304 N   0  0  0  0  0  4  0  0  0  0  0  0
    6.7625    4.5592   21.7232 C   0  0  0  0  0  0  0  0  0  0  0  0
    5.6497    5.5864   21.9039 C   0  0  0  0  0  0  0  0  0  0  0  0
    6.1444    6.7839   22.4743 O   0  0  0  0  0  0  0  0  0  0  0  0
    6.6868    6.5463   23.7593 C   0  0  0  0  0  0  0  0  0  0  0  0
    7.8447    5.5436   23.7089 C   0  0  0  0  0  0  0  0  0  0  0  0
    8.6605    5.9863   23.1344 H   0  0  0  0  0  0  0  0  0  0  0  0
    8.2091    5.3219   24.7162 H   0  0  0  0  0  0  0  0  0  0  0  0
    7.0444    7.5140   24.1218 H   0  0  0  0  0  0  0  0  0  0  0  0
    5.9029    6.1884   24.4466 H   0  0  0  0  0  0  0  0  0  0  0  0
    5.2188    5.8602   20.9366 H   0  0  0  0  0  0  0  0  0  0  0  0
    4.8505    5.1583   22.5333 H   0  0  0  0  0  0  0  0  0  0  0  0
    6.3820    3.6226   21.3037 H   0  0  0  0  0  0  0  0  0  0  0  0
    7.5179    4.9700   21.0524 H   0  0  0  0  0  0  0  0  0  0  0  0
    8.3023    3.7115   22.7789 H   0  0  0  0  0  0  0  0  0  0  0  0
    5.8742    3.9145   24.4303 H   0  0  0  0  0  0  0  0  0  0  0  0
    6.1096    2.6221   23.2466 H   0  0  0  0  0  0  0  0  0  0  0  0
    8.0779    3.2506   25.5209 H   0  0  0  0  0  0  0  0  0  0  0  0
    6.8060    2.0152   25.5810 H   0  0  0  0  0  0  0  0  0  0  0  0
    9.7422    1.8970   24.2508 C   0  0  0  0  0  0  0  0  0  0  0  0
   10.2333    2.8730   24.8002 O   0  0  0  0  0  0  0  0  0  0  0  0
   10.5724    0.9420   23.4276 C   0  0  0  0  0  0  0  0  0  0  0  0
   11.9517    1.1384   23.3867 C   0  0  0  0  0  0  0  0  0  0  0  0
   12.7526    0.3759   22.5602 C   0  0  0  0  0  0  0  0  0  0  0  0
   12.1451   -0.5715   21.7429 C   0  0  0  0  0  0  0  0  0  0  0  0
   13.1174   -1.4278   20.5803 Cl  0  0  0  0  0  0  0  0  0  0  0  0
   10.7777   -0.7801   21.7637 C   0  0  0  0  0  0  0  0  0  0  0  0
    9.9744   -0.0685   22.6625 C   0  0  0  0  0  0  0  0  0  0  0  0
   10.3490   -1.4424   21.0178 H   0  0  0  0  0  0  0  0  0  0  0  0
   13.8246    0.5296   22.4947 H   0  0  0  0  0  0  0  0  0  0  0  0
   12.3765    1.9149   24.0060 H   0  0  0  0  0  0  0  0  0  0  0  0
    6.8283    0.3388   23.9459 H   0  0  0  0  0  0  0  0  0  0  0  0
    8.1812   -0.3979   24.8295 H   0  0  0  0  0  0  0  0  0  0  0  0
    6.8244   -2.4448   20.6836 H   0  0  0  0  0  0  0  0  0  0  0  0
    5.8455   -1.7530   21.9709 H   0  0  0  0  0  0  0  0  0  0  0  0
    8.8182   -2.2581   21.9195 H   0  0  0  0  0  0  0  0  0  0  0  0
    7.3843   -3.6295   23.3781 H   0  0  0  0  0  0  0  0  0  0  0  0
    6.7797   -2.1916   24.2083 H   0  0  0  0  0  0  0  0  0  0  0  0
    8.4763   -2.6613   24.3783 H   0  0  0  0  0  0  0  0  0  0  0  0
  1  2  1  0
  2  3  1  0
  3  4  1  0
  4  5  1  0
  5  6  2  0
  6  7  1  0
  7  8  2  0
  8  9  1  0
  9 10  2  0
 10 11  1  0
 11 12  2  0
 12 13  1  0
 13 14  2  0
 13 15  1  0
 12 16  1  0
 11 17  1  0
 10 18  1  0
  8 19  1  0
  6 20  1  0
  4 21  1  0
 21 22  2  0
 21 23  1  0
 23 24  1  1
 24 25  1  0
 25 26  1  0
 26 27  1  0
 27 28  1  0
 28 29  1  0
 29 30  1  0
 30 31  1  0
 31 32  1  0
 32 33  1  0
 33 34  1  0
 33 35  1  0
 32 36  1  0
 32 37  1  0
 30 38  1  0
 30 39  1  0
 29 40  1  0
 29 41  1  0
 28 42  1  0
 27 43  1  0
 27 44  1  0
 26 45  1  0
 26 46  1  0
 25 47  1  0
 47 48  2  0
 47 49  1  0
 49 50  2  0
 50 51  1  0
 51 52  2  0
 52 53  1  0
 52 54  1  0
 54 55  2  0
 54 56  1  0
 51 57  1  0
 50 58  1  0
 24 59  1  0
 24 60  1  0
  3 61  1  0
  3 62  1  0
  2 63  1  6
  1 64  1  0
  1 65  1  0
  1 66  1  0
 23  2  1  0
 33 28  1  0
 55 49  1  0
 14  5  1  0
 55 23  1  0
 14  9  1  0
M  CHG  1  28   1
M  END
>  <cnnaffinities>  (65) 
[6.81315, 6.66004]

>  <score>  (65) 
6.81315

>  <index>  (65) 
64

>  <Smiles>  (65) 
C([C@]1(C(N(c2c(nc(c3c(c(c(c(c23)[H])[H])[H])[H])[H])[H])C(=O)[C@]21C(N(C(C([N+]1(C(C(OC(C1([H])[H])([H])[H])([H])[H])([H])[H])[H])([H])[H])([H])[H])C(=O)c1c(c(c(Cl)c(c21)[H])[H])[H])([H])[H])([H])[H])[H])([H])([H])[H]

>  <h>  (65) 
<NA>

>  <Training>  (65) 
True

>  <Success>  (65) 
True

>  <enamine_searched>  (65) 
False

>  <enamine_id>  (65) 
nan

$$$$

     RDKit          3D

 54 59  0  0  0  0  0  0  0  0999 V2000
   12.5240   -2.0160   20.7376 C   0  0  0  0  0  0  0  0  0  0  0  0
   12.2340   -2.0916   22.1693 N   0  0  0  0  0  0  0  0  0  0  0  0
   12.1545   -0.8780   22.7854 C   0  0  0  0  0  0  0  0  0  0  0  0
   12.4100    0.1479   22.1725 O   0  0  0  0  0  0  0  0  0  0  0  0
   11.6836   -0.8226   24.2372 C   0  0  0  0  0  0  0  0  0  0  0  0
   10.2360   -0.8511   24.3211 N   0  0  0  0  0  0  0  0  0  0  0  0
    9.5957   -1.4860   25.3830 C   0  0  0  0  0  0  0  0  0  0  0  0
   10.1236   -2.2639   26.1547 O   0  0  0  0  0  0  0  0  0  0  0  0
    8.1851   -0.9979   25.3588 C   0  0  0  0  0  0  0  0  0  0  0  0
    7.1815   -1.2817   26.2530 C   0  0  0  0  0  0  0  0  0  0  0  0
    5.9839   -0.5305   26.1729 C   0  0  0  0  0  0  0  0  0  0  0  0
    5.9012    0.5573   25.3418 C   0  0  0  0  0  0  0  0  0  0  0  0
    4.4627    1.5271   25.3136 Cl  0  0  0  0  0  0  0  0  0  0  0  0
    7.0638    1.0790   24.5811 C   0  0  0  0  0  0  0  0  0  0  0  0
    8.0292   -0.0454   24.2691 C   0  0  1  0  0  0  0  0  0  0  0  0
    9.3836    0.0941   23.6487 C   0  0  2  0  0  0  0  0  0  0  0  0
    8.2716   -0.4365   22.7823 C   0  0  2  0  0  0  0  0  0  0  0  0
    7.7247    0.4478   21.6667 C   0  0  0  0  0  0  0  0  0  0  0  0
    7.9039    1.6313   21.4777 O   0  0  0  0  0  0  0  0  0  0  0  0
    6.9417   -0.3607   20.8587 N   0  0  0  0  0  0  0  0  0  0  0  0
    6.1598    0.1282   19.7775 C   0  0  0  0  0  0  0  0  0  0  0  0
    6.4553   -0.2170   18.4811 C   0  0  0  0  0  0  0  0  0  0  0  0
    5.7763    0.2201   17.3906 N   0  0  0  0  0  0  0  0  0  0  0  0
    4.7517    1.0128   17.5984 C   0  0  0  0  0  0  0  0  0  0  0  0
    4.3017    1.4100   18.8887 C   0  0  0  0  0  0  0  0  0  0  0  0
    3.1707    2.2523   19.0654 C   0  0  0  0  0  0  0  0  0  0  0  0
    2.7485    2.5986   20.3190 C   0  0  0  0  0  0  0  0  0  0  0  0
    3.4256    2.1039   21.4584 C   0  0  0  0  0  0  0  0  0  0  0  0
    4.5182    1.2866   21.3129 C   0  0  0  0  0  0  0  0  0  0  0  0
    5.0062    0.9435   20.0206 C   0  0  0  0  0  0  0  0  0  0  0  0
    5.0153    0.8912   22.1944 H   0  0  0  0  0  0  0  0  0  0  0  0
    3.0944    2.3763   22.4580 H   0  0  0  0  0  0  0  0  0  0  0  0
    1.8971    3.2628   20.4431 H   0  0  0  0  0  0  0  0  0  0  0  0
    2.6664    2.6318   18.1803 H   0  0  0  0  0  0  0  0  0  0  0  0
    4.2203    1.3763   16.7184 H   0  0  0  0  0  0  0  0  0  0  0  0
    7.3016   -0.8698   18.2697 H   0  0  0  0  0  0  0  0  0  0  0  0
    7.0922   -1.7767   21.1386 C   0  0  0  0  0  0  0  0  0  0  0  0
    8.1277   -1.8080   22.2403 C   0  0  0  0  0  0  0  0  0  0  0  0
    8.7756   -2.9235   22.5887 C   0  0  0  0  0  0  0  0  0  0  0  0
    8.4680   -4.0995   22.0149 F   0  0  0  0  0  0  0  0  0  0  0  0
    9.5709   -3.0015   23.3208 H   0  0  0  0  0  0  0  0  0  0  0  0
    7.4112   -2.2968   20.2385 H   0  0  0  0  0  0  0  0  0  0  0  0
    6.1408   -2.2157   21.4640 H   0  0  0  0  0  0  0  0  0  0  0  0
    9.8031    1.0639   23.3907 H   0  0  0  0  0  0  0  0  0  0  0  0
    7.6008    1.8259   25.1997 H   0  0  0  0  0  0  0  0  0  0  0  0
    6.7493    1.6215   23.6794 H   0  0  0  0  0  0  0  0  0  0  0  0
    5.1442   -0.7702   26.8213 H   0  0  0  0  0  0  0  0  0  0  0  0
    7.3047   -2.0680   26.9932 H   0  0  0  0  0  0  0  0  0  0  0  0
   12.1010    0.1086   24.6407 H   0  0  0  0  0  0  0  0  0  0  0  0
   12.0367   -1.6647   24.8382 H   0  0  0  0  0  0  0  0  0  0  0  0
   12.0187   -2.9536   22.6580 H   0  0  0  0  0  0  0  0  0  0  0  0
   13.5173   -1.5706   20.5780 H   0  0  0  0  0  0  0  0  0  0  0  0
   12.4685   -2.9803   20.2288 H   0  0  0  0  0  0  0  0  0  0  0  0
   11.7804   -1.3565   20.2837 H   0  0  0  0  0  0  0  0  0  0  0  0
  1  2  1  0
  2  3  1  0
  3  4  2  0
  3  5  1  0
  5  6  1  0
  6  7  1  0
  7  8  2  0
  7  9  1  0
  9 10  2  0
 10 11  1  0
 11 12  2  0
 12 13  1  0
 12 14  1  0
 15 14  1  6
 15 16  1  0
 16 17  1  0
 17 18  1  6
 18 19  2  0
 18 20  1  0
 20 21  1  0
 21 22  2  0
 22 23  1  0
 23 24  2  0
 24 25  1  0
 25 26  2  0
 26 27  1  0
 27 28  2  0
 28 29  1  0
 29 30  2  0
 29 31  1  0
 28 32  1  0
 27 33  1  0
 26 34  1  0
 24 35  1  0
 22 36  1  0
 20 37  1  0
 37 38  1  0
 38 39  2  0
 39 40  1  0
 39 41  1  0
 37 42  1  0
 37 43  1  0
 16 44  1  6
 14 45  1  0
 14 46  1  0
 11 47  1  0
 10 48  1  0
  5 49  1  0
  5 50  1  0
  2 51  1  0
  1 52  1  0
  1 53  1  0
  1 54  1  0
 16  6  1  0
 38 17  1  0
 15  9  1  0
 30 21  1  0
 17 15  1  0
 30 25  1  0
M  END
>  <cnnaffinities>  (66) 
[5.99648]

>  <score>  (66) 
5.99648

>  <index>  (66) 
65

>  <Smiles>  (66) 
C(N(C(=O)C(N1C(=O)C2=C(C(=C(Cl)C([C@]32[C@@]1([C@@]13C(=O)N(c2c(nc(c3c(c(c(c(c23)[H])[H])[H])[H])[H])[H])C(/C/1=C(\F)/[H])([H])[H])[H])([H])[H])[H])[H])([H])[H])[H])([H])([H])[H]

>  <h>  (66) 
<NA>

>  <Training>  (66) 
True

>  <Success>  (66) 
True

>  <enamine_searched>  (66) 
False

>  <enamine_id>  (66) 
nan

$$$$

     RDKit          3D

 47 50  0  0  0  0  0  0  0  0999 V2000
    8.5959    1.2749   20.6659 O   0  0  0  0  0  0  0  0  0  0  0  0
    7.8824    0.6748   21.4446 C   0  0  0  0  0  0  0  0  0  0  0  0
    6.9514   -0.4372   20.9117 C   0  0  0  0  0  0  0  0  0  0  0  0
    6.1069    0.0809   19.7644 C   0  0  0  0  0  0  0  0  0  0  0  0
    6.4262   -0.2097   18.4638 C   0  0  0  0  0  0  0  0  0  0  0  0
    5.7622    0.2421   17.3639 N   0  0  0  0  0  0  0  0  0  0  0  0
    4.7342    1.0272   17.5772 C   0  0  0  0  0  0  0  0  0  0  0  0
    4.2850    1.4179   18.8665 C   0  0  0  0  0  0  0  0  0  0  0  0
    3.1676    2.2720   19.0451 C   0  0  0  0  0  0  0  0  0  0  0  0
    2.7641    2.6443   20.2986 C   0  0  0  0  0  0  0  0  0  0  0  0
    3.4625    2.1683   21.4318 C   0  0  0  0  0  0  0  0  0  0  0  0
    4.5464    1.3368   21.2878 C   0  0  0  0  0  0  0  0  0  0  0  0
    4.9899    0.9379   19.9983 C   0  0  0  0  0  0  0  0  0  0  0  0
    5.0680    0.9828   22.1747 H   0  0  0  0  0  0  0  0  0  0  0  0
    3.1350    2.4685   22.4229 H   0  0  0  0  0  0  0  0  0  0  0  0
    1.9159    3.3126   20.4314 H   0  0  0  0  0  0  0  0  0  0  0  0
    2.6522    2.6485   18.1647 H   0  0  0  0  0  0  0  0  0  0  0  0
    4.2002    1.3970   16.6989 H   0  0  0  0  0  0  0  0  0  0  0  0
    7.2744   -0.8569   18.2417 H   0  0  0  0  0  0  0  0  0  0  0  0
    7.5952   -1.2424   20.5357 H   0  0  0  0  0  0  0  0  0  0  0  0
    6.3166   -0.8605   21.7016 H   0  0  0  0  0  0  0  0  0  0  0  0
    7.8536    0.9840   22.8040 N   0  0  0  0  0  0  0  0  0  0  0  0
    7.7784    2.3918   23.1832 C   0  0  0  0  0  0  0  0  0  0  0  0
    8.6238    2.6841   24.4142 C   0  0  0  0  0  0  0  0  0  0  0  0
    8.3130    1.7431   25.5779 C   0  0  1  0  0  0  0  0  0  0  0  0
    6.9734    2.0490   26.2605 C   0  0  0  0  0  0  0  0  0  0  0  0
    6.7291    1.1210   27.4484 C   0  0  0  0  0  0  0  0  0  0  0  0
    6.8065   -0.3314   27.0269 C   0  0  0  0  0  0  0  0  0  0  0  0
    6.7077   -1.1357   28.1335 F   0  0  0  0  0  0  0  0  0  0  0  0
    5.7036   -0.6269   26.2548 F   0  0  0  0  0  0  0  0  0  0  0  0
    8.0716   -0.6807   26.2582 C   0  0  0  0  0  0  0  0  0  0  0  0
    8.3981    0.2832   25.1057 C   0  0  1  0  0  0  0  0  0  0  0  0
    7.5389    0.0323   23.8551 C   0  0  0  0  0  0  0  0  0  0  0  0
    6.4720    0.0359   24.1203 H   0  0  0  0  0  0  0  0  0  0  0  0
    7.7697   -0.9647   23.4776 H   0  0  0  0  0  0  0  0  0  0  0  0
    9.4366    0.0926   24.8098 H   0  0  0  0  0  0  0  0  0  0  0  0
    8.8826   -0.6704   26.9936 H   0  0  0  0  0  0  0  0  0  0  0  0
    7.9891   -1.7136   25.9068 H   0  0  0  0  0  0  0  0  0  0  0  0
    7.4967    1.2762   28.2121 H   0  0  0  0  0  0  0  0  0  0  0  0
    5.7551    1.3021   27.9140 H   0  0  0  0  0  0  0  0  0  0  0  0
    6.9608    3.0896   26.6015 H   0  0  0  0  0  0  0  0  0  0  0  0
    6.1498    1.9465   25.5473 H   0  0  0  0  0  0  0  0  0  0  0  0
    9.0886    1.8869   26.3430 H   0  0  0  0  0  0  0  0  0  0  0  0
    8.4721    3.7247   24.7260 H   0  0  0  0  0  0  0  0  0  0  0  0
    9.6818    2.5967   24.1439 H   0  0  0  0  0  0  0  0  0  0  0  0
    6.7312    2.6901   23.3692 H   0  0  0  0  0  0  0  0  0  0  0  0
    8.1265    2.9770   22.3312 H   0  0  0  0  0  0  0  0  0  0  0  0
  1  2  2  0
  2  3  1  0
  3  4  1  0
  4  5  2  0
  5  6  1  0
  6  7  2  0
  7  8  1  0
  8  9  2  0
  9 10  1  0
 10 11  2  0
 11 12  1  0
 12 13  2  0
 12 14  1  0
 11 15  1  0
 10 16  1  0
  9 17  1  0
  7 18  1  0
  5 19  1  0
  3 20  1  0
  3 21  1  0
  2 22  1  0
 22 23  1  0
 23 24  1  0
 24 25  1  0
 25 26  1  0
 26 27  1  0
 27 28  1  0
 28 29  1  0
 28 30  1  0
 28 31  1  0
 31 32  1  0
 32 33  1  0
 33 34  1  0
 33 35  1  0
 32 36  1  6
 31 37  1  0
 31 38  1  0
 27 39  1  0
 27 40  1  0
 26 41  1  0
 26 42  1  0
 25 43  1  1
 24 44  1  0
 24 45  1  0
 23 46  1  0
 23 47  1  0
 13  4  1  0
 33 22  1  0
 13  8  1  0
 32 25  1  0
M  END
>  <cnnaffinities>  (67) 
[5.53248, 5.52898, 5.87745, 5.66644, 5.66683, 5.41141, 5.41144]

>  <score>  (67) 
5.53248

>  <index>  (67) 
66

>  <Smiles>  (67) 
O=C(C(c1c(nc(c2c(c(c(c(c12)[H])[H])[H])[H])[H])[H])([H])[H])N1C(C([C@]2(C(C(C(F)(F)C([C@]2(C1([H])[H])[H])([H])[H])([H])[H])([H])[H])[H])([H])[H])([H])[H]

>  <h>  (67) 
<NA>

>  <Training>  (67) 
True

>  <Success>  (67) 
True

>  <enamine_searched>  (67) 
False

>  <enamine_id>  (67) 
nan

$$$$

     RDKit          3D

 69 74  0  0  0  0  0  0  0  0999 V2000
    7.3637    5.1925   21.6898 C   0  0  0  0  0  0  0  0  0  0  0  0
    7.9015    4.4322   22.8252 N   0  0  0  0  0  4  0  0  0  0  0  0
    6.8606    3.6222   23.5277 C   0  0  0  0  0  0  0  0  0  0  0  0
    7.4687    2.8332   24.6859 C   0  0  0  0  0  0  0  0  0  0  0  0
    8.3614    1.7669   24.2562 N   0  0  0  0  0  0  0  0  0  0  0  0
    7.7991    0.4460   24.0394 C   0  0  0  0  0  0  0  0  0  0  0  0
    8.3647   -0.2355   22.7655 C   0  0  2  0  0  0  0  0  0  0  0  0
    7.8254    0.4808   21.5011 C   0  0  0  0  0  0  0  0  0  0  0  0
    8.1033    1.6041   21.1320 O   0  0  0  0  0  0  0  0  0  0  0  0
    6.9599   -0.3628   20.8394 N   0  0  0  0  0  0  0  0  0  0  0  0
    6.1560    0.1212   19.7655 C   0  0  0  0  0  0  0  0  0  0  0  0
    6.4533   -0.2162   18.4711 C   0  0  0  0  0  0  0  0  0  0  0  0
    5.7639    0.2177   17.3838 N   0  0  0  0  0  0  0  0  0  0  0  0
    4.7434    1.0131   17.5945 C   0  0  0  0  0  0  0  0  0  0  0  0
    4.2991    1.4178   18.8852 C   0  0  0  0  0  0  0  0  0  0  0  0
    3.1744    2.2695   19.0653 C   0  0  0  0  0  0  0  0  0  0  0  0
    2.7670    2.6323   20.3179 C   0  0  0  0  0  0  0  0  0  0  0  0
    3.4531    2.1470   21.4543 C   0  0  0  0  0  0  0  0  0  0  0  0
    4.5411    1.3204   21.3061 C   0  0  0  0  0  0  0  0  0  0  0  0
    5.0138    0.9514   20.0135 C   0  0  0  0  0  0  0  0  0  0  0  0
    5.0520    0.9425   22.1881 H   0  0  0  0  0  0  0  0  0  0  0  0
    3.1250    2.4413   22.4463 H   0  0  0  0  0  0  0  0  0  0  0  0
    1.9231    3.3045   20.4457 H   0  0  0  0  0  0  0  0  0  0  0  0
    2.6660    2.6470   18.1811 H   0  0  0  0  0  0  0  0  0  0  0  0
    4.2144    1.3794   16.7132 H   0  0  0  0  0  0  0  0  0  0  0  0
    7.2953   -0.8700   18.2510 H   0  0  0  0  0  0  0  0  0  0  0  0
    6.7195   -1.6279   21.5156 C   0  0  0  0  0  0  0  0  0  0  0  0
    7.8284   -1.6970   22.5824 C   0  0  2  0  0  0  0  0  0  0  0  0
    7.4007   -2.4795   23.8294 C   0  0  0  0  0  0  0  0  0  0  0  0
    6.1711   -1.9832   24.3457 O   0  0  0  0  0  0  0  0  0  0  0  0
    5.8280   -2.5331   25.6088 C   0  0  0  0  0  0  0  0  0  0  0  0
    6.2972   -1.6719   26.7531 C   0  0  0  0  0  0  0  0  0  0  0  0
    7.6639   -1.8009   26.9438 F   0  0  0  0  0  0  0  0  0  0  0  0
    5.4354   -1.4416   27.9489 C   0  0  0  0  0  0  0  0  0  0  0  0
    5.7094   -0.3187   26.9488 C   0  0  0  0  0  0  0  0  0  0  0  0
    6.3819    0.4814   27.2558 H   0  0  0  0  0  0  0  0  0  0  0  0
    4.9264   -0.0189   26.2513 H   0  0  0  0  0  0  0  0  0  0  0  0
    5.8956   -1.3766   28.9336 H   0  0  0  0  0  0  0  0  0  0  0  0
    4.4469   -1.9044   27.9752 H   0  0  0  0  0  0  0  0  0  0  0  0
    6.2447   -3.5476   25.7239 H   0  0  0  0  0  0  0  0  0  0  0  0
    4.7322   -2.5888   25.6510 H   0  0  0  0  0  0  0  0  0  0  0  0
    7.2655   -3.5446   23.5776 H   0  0  0  0  0  0  0  0  0  0  0  0
    8.1820   -2.4289   24.6002 H   0  0  0  0  0  0  0  0  0  0  0  0
    8.6652   -2.2647   22.1712 H   0  0  0  0  0  0  0  0  0  0  0  0
    5.7251   -1.6608   21.9789 H   0  0  0  0  0  0  0  0  0  0  0  0
    6.7758   -2.4576   20.8017 H   0  0  0  0  0  0  0  0  0  0  0  0
    9.8802   -0.0933   22.7798 C   0  0  0  0  0  0  0  0  0  0  0  0
   10.6710   -0.8714   21.9219 C   0  0  0  0  0  0  0  0  0  0  0  0
   12.0464   -0.7316   21.9286 C   0  0  0  0  0  0  0  0  0  0  0  0
   13.0117   -1.7128   20.8647 Cl  0  0  0  0  0  0  0  0  0  0  0  0
   12.6792    0.2000   22.7488 C   0  0  0  0  0  0  0  0  0  0  0  0
   11.9004    1.0299   23.5304 C   0  0  0  0  0  0  0  0  0  0  0  0
   10.5101    0.9159   23.5259 C   0  0  0  0  0  0  0  0  0  0  0  0
    9.7111    1.9579   24.2643 C   0  0  0  0  0  0  0  0  0  0  0  0
   10.2408    2.9366   24.7810 O   0  0  0  0  0  0  0  0  0  0  0  0
   12.3442    1.8037   24.1453 H   0  0  0  0  0  0  0  0  0  0  0  0
   13.7596    0.2838   22.7364 H   0  0  0  0  0  0  0  0  0  0  0  0
   10.2345   -1.5610   21.2075 H   0  0  0  0  0  0  0  0  0  0  0  0
    6.7221    0.5682   23.9125 H   0  0  0  0  0  0  0  0  0  0  0  0
    7.9736   -0.2007   24.9167 H   0  0  0  0  0  0  0  0  0  0  0  0
    8.0388    3.4886   25.3472 H   0  0  0  0  0  0  0  0  0  0  0  0
    6.6546    2.3790   25.2640 H   0  0  0  0  0  0  0  0  0  0  0  0
    6.0727    4.2896   23.8907 H   0  0  0  0  0  0  0  0  0  0  0  0
    6.4074    2.9431   22.8006 H   0  0  0  0  0  0  0  0  0  0  0  0
    8.6297    3.7742   22.4722 H   0  0  0  0  0  0  0  0  0  0  0  0
    8.3430    5.0830   23.5194 H   0  0  0  0  0  0  0  0  0  0  0  0
    6.9621    4.4957   20.9499 H   0  0  0  0  0  0  0  0  0  0  0  0
    8.1432    5.7996   21.2362 H   0  0  0  0  0  0  0  0  0  0  0  0
    6.5507    5.8519   22.0043 H   0  0  0  0  0  0  0  0  0  0  0  0
  1  2  1  0
  2  3  1  0
  3  4  1  0
  4  5  1  0
  5  6  1  0
  7  6  1  1
  7  8  1  0
  8  9  2  0
  8 10  1  0
 10 11  1  0
 11 12  2  0
 12 13  1  0
 13 14  2  0
 14 15  1  0
 15 16  2  0
 16 17  1  0
 17 18  2  0
 18 19  1  0
 19 20  2  0
 19 21  1  0
 18 22  1  0
 17 23  1  0
 16 24  1  0
 14 25  1  0
 12 26  1  0
 10 27  1  0
 27 28  1  0
 28 29  1  0
 29 30  1  0
 30 31  1  0
 31 32  1  0
 32 33  1  0
 32 34  1  0
 34 35  1  0
 35 36  1  0
 35 37  1  0
 34 38  1  0
 34 39  1  0
 31 40  1  0
 31 41  1  0
 29 42  1  0
 29 43  1  0
 28 44  1  6
 27 45  1  0
 27 46  1  0
  7 47  1  0
 47 48  2  0
 48 49  1  0
 49 50  1  0
 49 51  2  0
 51 52  1  0
 52 53  2  0
 53 54  1  0
 54 55  2  0
 52 56  1  0
 51 57  1  0
 48 58  1  0
  6 59  1  0
  6 60  1  0
  4 61  1  0
  4 62  1  0
  3 63  1  0
  3 64  1  0
  2 65  1  0
  2 66  1  0
  1 67  1  0
  1 68  1  0
  1 69  1  0
 54  5  1  0
 28  7  1  0
 35 32  1  0
 53 47  1  0
 20 11  1  0
 20 15  1  0
M  CHG  1   2   1
M  END
>  <cnnaffinities>  (68) 
[6.8619]

>  <score>  (68) 
6.8619

>  <index>  (68) 
67

>  <Smiles>  (68) 
C([N+](C(C(N1C([C@@]2(C(=O)N(c3c(nc(c4c(c(c(c(c34)[H])[H])[H])[H])[H])[H])C([C@@]2(C(OC(C2(F)C(C2([H])[H])([H])[H])([H])[H])([H])[H])[H])([H])[H])c2c(c(Cl)c(c(c2C1=O)[H])[H])[H])([H])[H])([H])[H])([H])[H])([H])[H])([H])([H])[H]

>  <h>  (68) 
<NA>

>  <Training>  (68) 
True

>  <Success>  (68) 
True

>  <enamine_searched>  (68) 
False

>  <enamine_id>  (68) 
nan

$$$$

     RDKit          3D

 57 62  0  0  0  0  0  0  0  0999 V2000
    8.5516   -5.3800   27.8160 C   0  0  0  0  0  0  0  0  0  0  0  0
    7.7620   -4.1947   27.3521 C   0  0  0  0  0  0  0  0  0  0  0  0
    8.2403   -3.0308   27.0310 N   0  0  0  0  0  0  0  0  0  0  0  0
    7.1028   -2.3080   26.7623 C   0  0  0  0  0  0  0  0  0  0  0  0
    7.1590   -0.8350   26.4806 C   0  0  0  0  0  0  0  0  0  0  0  0
    7.9957   -0.5253   25.3323 N   0  0  0  0  0  0  0  0  0  0  0  0
    7.4040   -0.0911   24.0721 C   0  0  0  0  0  0  0  0  0  0  0  0
    8.2498   -0.4728   22.8257 C   0  0  2  0  0  0  0  0  0  0  0  0
    7.6974    0.3929   21.6787 C   0  0  0  0  0  0  0  0  0  0  0  0
    7.8427    1.5909   21.5392 O   0  0  0  0  0  0  0  0  0  0  0  0
    6.9486   -0.4053   20.8409 N   0  0  0  0  0  0  0  0  0  0  0  0
    6.1559    0.1113   19.7876 C   0  0  0  0  0  0  0  0  0  0  0  0
    6.4567   -0.2340   18.4952 C   0  0  0  0  0  0  0  0  0  0  0  0
    5.7897    0.2027   17.4001 N   0  0  0  0  0  0  0  0  0  0  0  0
    4.7665    0.9970   17.6082 C   0  0  0  0  0  0  0  0  0  0  0  0
    4.3158    1.3953   18.8974 C   0  0  0  0  0  0  0  0  0  0  0  0
    3.1846    2.2375   19.0515 C   0  0  0  0  0  0  0  0  0  0  0  0
    2.7483    2.5876   20.2982 C   0  0  0  0  0  0  0  0  0  0  0  0
    3.4148    2.1051   21.4452 C   0  0  0  0  0  0  0  0  0  0  0  0
    4.5155    1.2957   21.3238 C   0  0  0  0  0  0  0  0  0  0  0  0
    5.0097    0.9328   20.0368 C   0  0  0  0  0  0  0  0  0  0  0  0
    5.0192    0.9379   22.2168 H   0  0  0  0  0  0  0  0  0  0  0  0
    3.0495    2.3823   22.4292 H   0  0  0  0  0  0  0  0  0  0  0  0
    1.8864    3.2382   20.4110 H   0  0  0  0  0  0  0  0  0  0  0  0
    2.6877    2.6035   18.1575 H   0  0  0  0  0  0  0  0  0  0  0  0
    4.2305    1.3601   16.7312 H   0  0  0  0  0  0  0  0  0  0  0  0
    7.3041   -0.8918   18.3086 H   0  0  0  0  0  0  0  0  0  0  0  0
    6.8613   -1.7892   21.2616 C   0  0  0  0  0  0  0  0  0  0  0  0
    8.0103   -1.9273   22.2703 C   0  0  2  0  0  0  0  0  0  0  0  0
    7.7658   -3.0263   23.2988 C   0  0  0  0  0  0  0  0  0  0  0  0
    8.5663   -3.0544   24.0448 H   0  0  0  0  0  0  0  0  0  0  0  0
    6.8226   -2.8564   23.8313 H   0  0  0  0  0  0  0  0  0  0  0  0
    7.7100   -4.0024   22.8023 H   0  0  0  0  0  0  0  0  0  0  0  0
    8.9182   -2.1718   21.6994 H   0  0  0  0  0  0  0  0  0  0  0  0
    6.9677   -2.4495   20.3977 H   0  0  0  0  0  0  0  0  0  0  0  0
    5.8828   -2.0146   21.7177 H   0  0  0  0  0  0  0  0  0  0  0  0
    9.7148   -0.1849   23.1216 C   0  0  0  0  0  0  0  0  0  0  0  0
   10.6347    0.0087   22.0889 C   0  0  0  0  0  0  0  0  0  0  0  0
   11.9842    0.1085   22.3791 C   0  0  0  0  0  0  0  0  0  0  0  0
   12.8783    0.1571   21.3885 F   0  0  0  0  0  0  0  0  0  0  0  0
   12.4806    0.1146   23.6749 C   0  0  0  0  0  0  0  0  0  0  0  0
   11.5785   -0.0709   24.6961 C   0  0  0  0  0  0  0  0  0  0  0  0
   10.2204   -0.2191   24.4196 C   0  0  0  0  0  0  0  0  0  0  0  0
    9.3392   -0.4809   25.5738 C   0  0  0  0  0  0  0  0  0  0  0  0
    9.8113   -0.6707   26.6837 O   0  0  0  0  0  0  0  0  0  0  0  0
   11.9064   -0.1361   25.7270 H   0  0  0  0  0  0  0  0  0  0  0  0
   13.5380    0.2499   23.8631 H   0  0  0  0  0  0  0  0  0  0  0  0
   10.2789    0.0946   21.0738 H   0  0  0  0  0  0  0  0  0  0  0  0
    6.3976   -0.5256   23.9834 H   0  0  0  0  0  0  0  0  0  0  0  0
    7.2925    1.0043   24.0644 H   0  0  0  0  0  0  0  0  0  0  0  0
    7.6098   -0.3453   27.3531 H   0  0  0  0  0  0  0  0  0  0  0  0
    6.1595   -0.4268   26.3302 H   0  0  0  0  0  0  0  0  0  0  0  0
    5.9933   -2.9866   26.8583 N   0  0  0  0  0  0  0  0  0  0  0  0
    6.4325   -4.2535   27.2471 O   0  0  0  0  0  0  0  0  0  0  0  0
    7.9279   -6.0817   28.3710 H   0  0  0  0  0  0  0  0  0  0  0  0
    9.3697   -5.0547   28.4649 H   0  0  0  0  0  0  0  0  0  0  0  0
    9.0169   -5.8959   26.9671 H   0  0  0  0  0  0  0  0  0  0  0  0
  1  2  1  0
  2  3  2  0
  3  4  1  0
  4  5  1  0
  5  6  1  0
  6  7  1  0
  8  7  1  1
  8  9  1  0
  9 10  2  0
  9 11  1  0
 11 12  1  0
 12 13  2  0
 13 14  1  0
 14 15  2  0
 15 16  1  0
 16 17  2  0
 17 18  1  0
 18 19  2  0
 19 20  1  0
 20 21  2  0
 20 22  1  0
 19 23  1  0
 18 24  1  0
 17 25  1  0
 15 26  1  0
 13 27  1  0
 11 28  1  0
 28 29  1  0
 29 30  1  0
 30 31  1  0
 30 32  1  0
 30 33  1  0
 29 34  1  6
 28 35  1  0
 28 36  1  0
  8 37  1  0
 37 38  2  0
 38 39  1  0
 39 40  1  0
 39 41  2  0
 41 42  1  0
 42 43  2  0
 43 44  1  0
 44 45  2  0
 42 46  1  0
 41 47  1  0
 38 48  1  0
  7 49  1  0
  7 50  1  0
  5 51  1  0
  5 52  1  0
  4 53  2  0
 53 54  1  0
  1 55  1  0
  1 56  1  0
  1 57  1  0
 54  2  1  0
 44  6  1  0
 29  8  1  0
 43 37  1  0
 21 12  1  0
 21 16  1  0
M  END
>  <cnnaffinities>  (69) 
[6.41981, 6.4531, 6.27641]

>  <score>  (69) 
6.41981

>  <index>  (69) 
68

>  <Smiles>  (69) 
C(c1nc(C(N2C([C@@]3(C(=O)N(c4c(nc(c5c(c(c(c(c45)[H])[H])[H])[H])[H])[H])C([C@@]3(C([H])([H])[H])[H])([H])[H])c3c(c(F)c(c(c3C2=O)[H])[H])[H])([H])[H])([H])[H])no1)([H])([H])[H]

>  <h>  (69) 
<NA>

>  <Training>  (69) 
True

>  <Success>  (69) 
True

>  <enamine_searched>  (69) 
False

>  <enamine_id>  (69) 
nan

$$$$

     RDKit          3D

 64 68  0  0  0  0  0  0  0  0999 V2000
    1.1591   -1.2606   28.5126 C   0  0  0  0  0  0  0  0  0  0  0  0
    2.5948   -1.5807   28.0725 C   0  0  0  0  0  0  0  0  0  0  0  0
    2.6937   -2.0499   26.6221 C   0  0  0  0  0  0  0  0  0  0  0  0
    2.4466   -1.2764   25.7195 O   0  0  0  0  0  0  0  0  0  0  0  0
    3.1218   -3.3636   26.3887 N   0  0  0  0  0  0  0  0  0  0  0  0
    2.6408   -4.4669   27.2303 C   0  0  0  0  0  0  0  0  0  0  0  0
    2.2024   -5.6442   26.3623 C   0  0  0  0  0  0  0  0  0  0  0  0
    3.3938   -6.1284   25.5402 C   0  0  0  0  0  0  0  0  0  0  0  0
    4.1094   -4.9804   24.8555 C   0  0  0  0  0  0  0  0  0  0  0  0
    4.9547   -5.2361   23.7789 C   0  0  0  0  0  0  0  0  0  0  0  0
    5.6839   -4.2425   23.1427 C   0  0  0  0  0  0  0  0  0  0  0  0
    5.5709   -2.9297   23.5985 C   0  0  0  0  0  0  0  0  0  0  0  0
    6.3136   -1.8710   22.9777 N   0  0  0  0  0  0  0  0  0  0  0  0
    7.3233   -1.1866   23.7802 C   0  0  0  0  0  0  0  0  0  0  0  0
    8.7461   -1.5019   23.3528 C   0  0  0  0  0  0  0  0  0  0  0  0
    9.1882   -2.8210   23.4001 C   0  0  0  0  0  0  0  0  0  0  0  0
   10.4903   -3.1452   23.0543 C   0  0  0  0  0  0  0  0  0  0  0  0
   11.3685   -2.1734   22.5767 C   0  0  0  0  0  0  0  0  0  0  0  0
   10.9323   -0.8525   22.5570 C   0  0  0  0  0  0  0  0  0  0  0  0
   12.0445    0.4170   22.0953 Cl  0  0  0  0  0  0  0  0  0  0  0  0
    9.6402   -0.5086   22.9498 C   0  0  0  0  0  0  0  0  0  0  0  0
    9.3512    0.5403   22.9434 H   0  0  0  0  0  0  0  0  0  0  0  0
   12.3772   -2.4109   22.2513 H   0  0  0  0  0  0  0  0  0  0  0  0
   10.7888   -4.1719   23.2271 H   0  0  0  0  0  0  0  0  0  0  0  0
    8.5173   -3.6115   23.7310 H   0  0  0  0  0  0  0  0  0  0  0  0
    7.1578   -1.5478   24.8035 H   0  0  0  0  0  0  0  0  0  0  0  0
    7.1779   -0.0979   23.7626 H   0  0  0  0  0  0  0  0  0  0  0  0
    6.1225   -1.6626   21.6229 C   0  0  0  0  0  0  0  0  0  0  0  0
    5.3805   -2.3786   20.9746 O   0  0  0  0  0  0  0  0  0  0  0  0
    6.8787   -0.5054   20.9297 C   0  0  0  0  0  0  0  0  0  0  0  0
    6.1031    0.0777   19.7767 C   0  0  0  0  0  0  0  0  0  0  0  0
    6.4157   -0.2173   18.4763 C   0  0  0  0  0  0  0  0  0  0  0  0
    5.7595    0.2386   17.3744 N   0  0  0  0  0  0  0  0  0  0  0  0
    4.7321    1.0302   17.5753 C   0  0  0  0  0  0  0  0  0  0  0  0
    4.2900    1.4128   18.8687 C   0  0  0  0  0  0  0  0  0  0  0  0
    3.1751    2.2529   19.0757 C   0  0  0  0  0  0  0  0  0  0  0  0
    2.5332    2.6885   17.9770 F   0  0  0  0  0  0  0  0  0  0  0  0
    2.7418    2.6221   20.3134 C   0  0  0  0  0  0  0  0  0  0  0  0
    3.4374    2.1351   21.4420 C   0  0  0  0  0  0  0  0  0  0  0  0
    4.5241    1.3132   21.2937 C   0  0  0  0  0  0  0  0  0  0  0  0
    4.9822    0.9308   20.0063 C   0  0  0  0  0  0  0  0  0  0  0  0
    5.0450    0.9416   22.1714 H   0  0  0  0  0  0  0  0  0  0  0  0
    3.1071    2.4201   22.4378 H   0  0  0  0  0  0  0  0  0  0  0  0
    1.8887    3.2818   20.4094 H   0  0  0  0  0  0  0  0  0  0  0  0
    4.2015    1.3995   16.6990 H   0  0  0  0  0  0  0  0  0  0  0  0
    7.2608   -0.8668   18.2480 H   0  0  0  0  0  0  0  0  0  0  0  0
    7.8175   -0.9224   20.5446 H   0  0  0  0  0  0  0  0  0  0  0  0
    7.1622    0.2719   21.6477 H   0  0  0  0  0  0  0  0  0  0  0  0
    4.7476   -2.6461   24.6835 C   0  0  0  0  0  0  0  0  0  0  0  0
    3.9768   -3.6513   25.2967 C   0  0  0  0  0  0  0  0  0  0  0  0
    4.7049   -1.6191   25.0338 H   0  0  0  0  0  0  0  0  0  0  0  0
    6.3245   -4.4903   22.3039 H   0  0  0  0  0  0  0  0  0  0  0  0
    5.0319   -6.2635   23.4281 H   0  0  0  0  0  0  0  0  0  0  0  0
    4.1042   -6.6562   26.1986 H   0  0  0  0  0  0  0  0  0  0  0  0
    3.0787   -6.8685   24.7921 H   0  0  0  0  0  0  0  0  0  0  0  0
    1.3835   -5.3301   25.7022 H   0  0  0  0  0  0  0  0  0  0  0  0
    1.8204   -6.4508   26.9987 H   0  0  0  0  0  0  0  0  0  0  0  0
    3.4244   -4.7902   27.9363 H   0  0  0  0  0  0  0  0  0  0  0  0
    1.7970   -4.0805   27.8100 H   0  0  0  0  0  0  0  0  0  0  0  0
    3.1828   -0.6526   28.0879 H   0  0  0  0  0  0  0  0  0  0  0  0
    3.0928   -2.2851   28.7509 H   0  0  0  0  0  0  0  0  0  0  0  0
    0.5105   -2.1447   28.4907 H   0  0  0  0  0  0  0  0  0  0  0  0
    1.1581   -0.8649   29.5345 H   0  0  0  0  0  0  0  0  0  0  0  0
    0.7236   -0.4991   27.8577 H   0  0  0  0  0  0  0  0  0  0  0  0
  1  2  1  0
  2  3  1  0
  3  4  2  0
  3  5  1  0
  5  6  1  0
  6  7  1  0
  7  8  1  0
  8  9  1  0
  9 10  2  0
 10 11  1  0
 11 12  2  0
 12 13  1  0
 13 14  1  0
 14 15  1  0
 15 16  2  0
 16 17  1  0
 17 18  2  0
 18 19  1  0
 19 20  1  0
 19 21  2  0
 21 22  1  0
 18 23  1  0
 17 24  1  0
 16 25  1  0
 14 26  1  0
 14 27  1  0
 13 28  1  0
 28 29  2  0
 28 30  1  0
 30 31  1  0
 31 32  2  0
 32 33  1  0
 33 34  2  0
 34 35  1  0
 35 36  2  0
 36 37  1  0
 36 38  1  0
 38 39  2  0
 39 40  1  0
 40 41  2  0
 40 42  1  0
 39 43  1  0
 38 44  1  0
 34 45  1  0
 32 46  1  0
 30 47  1  0
 30 48  1  0
 12 49  1  0
 49 50  2  0
 49 51  1  0
 11 52  1  0
 10 53  1  0
  8 54  1  0
  8 55  1  0
  7 56  1  0
  7 57  1  0
  6 58  1  0
  6 59  1  0
  2 60  1  0
  2 61  1  0
  1 62  1  0
  1 63  1  0
  1 64  1  0
 50  5  1  0
 50  9  1  0
 21 15  1  0
 41 31  1  0
 41 35  1  0
M  END
>  <cnnaffinities>  (70) 
[5.79879, 6.94467]

>  <score>  (70) 
5.79879

>  <index>  (70) 
69

>  <Smiles>  (70) 
C(C(C(=O)N1C(C(C(c2c(c(c(N(C(c3c(c(c(c(Cl)c3[H])[H])[H])[H])([H])[H])C(=O)C(c3c(nc(c4c(F)c(c(c(c34)[H])[H])[H])[H])[H])([H])[H])c(c12)[H])[H])[H])([H])[H])([H])[H])([H])[H])([H])[H])([H])([H])[H]

>  <h>  (70) 
<NA>

>  <Training>  (70) 
True

>  <Success>  (70) 
True

>  <enamine_searched>  (70) 
False

>  <enamine_id>  (70) 
nan

$$$$

     RDKit          3D

 57 62  0  0  0  0  0  0  0  0999 V2000
    7.1822   -2.3529   23.5499 C   0  0  0  0  0  0  0  0  0  0  0  0
    7.9920   -1.8355   22.3560 C   0  0  1  0  0  0  0  0  0  0  0  0
    7.1593   -1.7626   21.0635 C   0  0  0  0  0  0  0  0  0  0  0  0
    6.8783   -0.3596   20.8902 N   0  0  0  0  0  0  0  0  0  0  0  0
    6.1214    0.1069   19.7886 C   0  0  0  0  0  0  0  0  0  0  0  0
    6.4440   -0.2343   18.4979 C   0  0  0  0  0  0  0  0  0  0  0  0
    5.7836    0.2081   17.3988 N   0  0  0  0  0  0  0  0  0  0  0  0
    4.7562    1.0020   17.5942 C   0  0  0  0  0  0  0  0  0  0  0  0
    4.2943    1.4033   18.8802 C   0  0  0  0  0  0  0  0  0  0  0  0
    3.1653    2.2492   19.0504 C   0  0  0  0  0  0  0  0  0  0  0  0
    2.7442    2.6068   20.3031 C   0  0  0  0  0  0  0  0  0  0  0  0
    3.4234    2.1331   21.4478 C   0  0  0  0  0  0  0  0  0  0  0  0
    4.5132    1.3074   21.3106 C   0  0  0  0  0  0  0  0  0  0  0  0
    4.9858    0.9380   20.0205 C   0  0  0  0  0  0  0  0  0  0  0  0
    5.0207    0.9183   22.1883 H   0  0  0  0  0  0  0  0  0  0  0  0
    3.1071    2.4411   22.4417 H   0  0  0  0  0  0  0  0  0  0  0  0
    1.8842    3.2609   20.4193 H   0  0  0  0  0  0  0  0  0  0  0  0
    2.6595    2.6197   18.1636 H   0  0  0  0  0  0  0  0  0  0  0  0
    4.2274    1.3639   16.7118 H   0  0  0  0  0  0  0  0  0  0  0  0
    7.3012   -0.8756   18.2940 H   0  0  0  0  0  0  0  0  0  0  0  0
    7.7943    0.4518   21.5316 C   0  0  0  0  0  0  0  0  0  0  0  0
    7.8920    1.6454   21.3384 O   0  0  0  0  0  0  0  0  0  0  0  0
    8.6346   -0.4161   22.5043 C   0  0  1  0  0  0  0  0  0  0  0  0
    8.5646    0.1329   23.9496 C   0  0  0  0  0  0  0  0  0  0  0  0
    9.2151    1.4236   24.0897 N   0  0  0  0  0  0  0  0  0  0  0  0
    8.5995    2.4236   24.9484 C   0  0  0  0  0  0  0  0  0  0  0  0
    7.3929    3.0479   24.3205 C   0  0  0  0  0  0  0  0  0  0  0  0
    6.1184    2.7374   24.6549 N   0  0  0  0  0  0  0  0  0  0  0  0
    5.3552    3.4334   23.8544 N   0  0  0  0  0  0  0  0  0  0  0  0
    6.1613    4.1373   23.0899 N   0  0  0  0  0  0  0  0  0  0  0  0
    5.6872    4.8821   21.9413 C   0  0  0  0  0  0  0  0  0  0  0  0
    6.3542    5.7307   21.7843 H   0  0  0  0  0  0  0  0  0  0  0  0
    4.6754    5.2351   22.1475 H   0  0  0  0  0  0  0  0  0  0  0  0
    5.6881    4.2267   21.0620 H   0  0  0  0  0  0  0  0  0  0  0  0
    7.4458    3.9445   23.3464 N   0  0  0  0  0  0  0  0  0  0  0  0
    8.2997    1.9586   25.8931 H   0  0  0  0  0  0  0  0  0  0  0  0
    9.3694    3.1775   25.1428 H   0  0  0  0  0  0  0  0  0  0  0  0
   10.4460    1.6730   23.5492 C   0  0  0  0  0  0  0  0  0  0  0  0
   11.1004    2.6700   23.8242 O   0  0  0  0  0  0  0  0  0  0  0  0
   10.9681    0.5960   22.6502 C   0  0  0  0  0  0  0  0  0  0  0  0
   12.3434    0.5428   22.4142 C   0  0  0  0  0  0  0  0  0  0  0  0
   12.8979   -0.4321   21.6028 C   0  0  0  0  0  0  0  0  0  0  0  0
   12.0384   -1.3890   21.0705 C   0  0  0  0  0  0  0  0  0  0  0  0
   12.5354   -2.3828   20.3149 F   0  0  0  0  0  0  0  0  0  0  0  0
   10.6723   -1.3591   21.2941 C   0  0  0  0  0  0  0  0  0  0  0  0
   10.1182   -0.3917   22.1414 C   0  0  0  0  0  0  0  0  0  0  0  0
   10.0558   -2.0712   20.7662 H   0  0  0  0  0  0  0  0  0  0  0  0
   13.9578   -0.4253   21.3652 H   0  0  0  0  0  0  0  0  0  0  0  0
   12.9682    1.2873   22.8922 H   0  0  0  0  0  0  0  0  0  0  0  0
    7.5343    0.2537   24.2783 H   0  0  0  0  0  0  0  0  0  0  0  0
    9.0458   -0.5980   24.6132 H   0  0  0  0  0  0  0  0  0  0  0  0
    6.2274   -2.3325   21.1152 H   0  0  0  0  0  0  0  0  0  0  0  0
    7.7353   -2.1316   20.2115 H   0  0  0  0  0  0  0  0  0  0  0  0
    8.7916   -2.5676   22.2326 H   0  0  0  0  0  0  0  0  0  0  0  0
    6.3196   -1.7187   23.7816 H   0  0  0  0  0  0  0  0  0  0  0  0
    7.8119   -2.4209   24.4434 H   0  0  0  0  0  0  0  0  0  0  0  0
    6.8138   -3.3640   23.3411 H   0  0  0  0  0  0  0  0  0  0  0  0
  1  2  1  0
  2  3  1  0
  3  4  1  0
  4  5  1  0
  5  6  2  0
  6  7  1  0
  7  8  2  0
  8  9  1  0
  9 10  2  0
 10 11  1  0
 11 12  2  0
 12 13  1  0
 13 14  2  0
 13 15  1  0
 12 16  1  0
 11 17  1  0
 10 18  1  0
  8 19  1  0
  6 20  1  0
  4 21  1  0
 21 22  2  0
 21 23  1  0
 23 24  1  1
 24 25  1  0
 25 26  1  0
 26 27  1  0
 27 28  1  0
 28 29  2  0
 29 30  1  0
 30 31  1  0
 31 32  1  0
 31 33  1  0
 31 34  1  0
 30 35  1  0
 26 36  1  0
 26 37  1  0
 25 38  1  0
 38 39  2  0
 38 40  1  0
 40 41  2  0
 41 42  1  0
 42 43  2  0
 43 44  1  0
 43 45  1  0
 45 46  2  0
 45 47  1  0
 42 48  1  0
 41 49  1  0
 24 50  1  0
 24 51  1  0
  3 52  1  0
  3 53  1  0
  2 54  1  6
  1 55  1  0
  1 56  1  0
  1 57  1  0
 23  2  1  0
 35 27  2  0
 46 40  1  0
 14  5  1  0
 46 23  1  0
 14  9  1  0
M  END
>  <cnnaffinities>  (71) 
[6.52665, 6.35031, 6.49875]

>  <score>  (71) 
6.52665

>  <index>  (71) 
70

>  <Smiles>  (71) 
C([C@]1(C(N(c2c(nc(c3c(c(c(c(c23)[H])[H])[H])[H])[H])[H])C(=O)[C@]21C(N(C(c1nnn(C([H])([H])[H])n1)([H])[H])C(=O)c1c(c(c(F)c(c21)[H])[H])[H])([H])[H])([H])[H])[H])([H])([H])[H]

>  <h>  (71) 
<NA>

>  <Training>  (71) 
True

>  <Success>  (71) 
True

>  <enamine_searched>  (71) 
False

>  <enamine_id>  (71) 
nan

$$$$

     RDKit          3D

 59 64  0  0  0  0  0  0  0  0999 V2000
    7.3922   -2.4406   23.8714 C   0  0  0  0  0  0  0  0  0  0  0  0
    7.7987   -1.7604   22.5548 C   0  0  1  0  0  0  0  0  0  0  0  0
    6.5982   -1.5846   21.5980 C   0  0  0  0  0  0  0  0  0  0  0  0
    6.9416   -0.4071   20.8225 N   0  0  0  0  0  0  0  0  0  0  0  0
    6.1460    0.1095   19.7629 C   0  0  0  0  0  0  0  0  0  0  0  0
    6.4540   -0.2109   18.4666 C   0  0  0  0  0  0  0  0  0  0  0  0
    5.7650    0.2223   17.3808 N   0  0  0  0  0  0  0  0  0  0  0  0
    4.7402    1.0126   17.5929 C   0  0  0  0  0  0  0  0  0  0  0  0
    4.2969    1.4154   18.8855 C   0  0  0  0  0  0  0  0  0  0  0  0
    3.1755    2.2704   19.0625 C   0  0  0  0  0  0  0  0  0  0  0  0
    2.7810    2.6485   20.3178 C   0  0  0  0  0  0  0  0  0  0  0  0
    3.4835    2.1797   21.4511 C   0  0  0  0  0  0  0  0  0  0  0  0
    4.5671    1.3489   21.3057 C   0  0  0  0  0  0  0  0  0  0  0  0
    5.0120    0.9517   20.0109 C   0  0  0  0  0  0  0  0  0  0  0  0
    5.0948    0.9947   22.1862 H   0  0  0  0  0  0  0  0  0  0  0  0
    3.1738    2.4928   22.4439 H   0  0  0  0  0  0  0  0  0  0  0  0
    1.9398    3.3245   20.4455 H   0  0  0  0  0  0  0  0  0  0  0  0
    2.6623    2.6421   18.1808 H   0  0  0  0  0  0  0  0  0  0  0  0
    4.2115    1.3786   16.7133 H   0  0  0  0  0  0  0  0  0  0  0  0
    7.2981   -0.8633   18.2565 H   0  0  0  0  0  0  0  0  0  0  0  0
    7.9504    0.3531   21.3712 C   0  0  0  0  0  0  0  0  0  0  0  0
    8.3307    1.4071   20.9080 O   0  0  0  0  0  0  0  0  0  0  0  0
    8.4643   -0.3461   22.6544 C   0  0  1  0  0  0  0  0  0  0  0  0
    7.9642    0.4336   23.8983 C   0  0  0  0  0  0  0  0  0  0  0  0
    8.6131    1.7235   24.0256 N   0  0  0  0  0  0  0  0  0  0  0  0
    7.7819    2.9233   24.0631 C   0  0  0  0  0  0  0  0  0  0  0  0
    6.7406    2.9101   25.1504 C   0  0  0  0  0  0  0  0  0  0  0  0
    5.4403    2.8234   24.9518 N   0  0  0  0  0  0  0  0  0  0  0  0
    4.8798    2.7861   26.2037 C   0  0  0  0  0  0  0  0  0  0  0  0
    5.8525    2.8551   27.1587 C   0  0  0  0  0  0  0  0  0  0  0  0
    7.0465    2.9421   26.4772 N   0  0  0  0  0  0  0  0  0  0  0  0
    8.3701    2.9966   27.0628 C   0  0  0  0  0  0  0  0  0  0  0  0
    8.2528    3.2227   28.1266 H   0  0  0  0  0  0  0  0  0  0  0  0
    8.8867    2.0378   26.9452 H   0  0  0  0  0  0  0  0  0  0  0  0
    8.9654    3.7869   26.5928 H   0  0  0  0  0  0  0  0  0  0  0  0
    5.8283    2.8402   28.2396 H   0  0  0  0  0  0  0  0  0  0  0  0
    3.8056    2.6908   26.3259 H   0  0  0  0  0  0  0  0  0  0  0  0
    7.2481    3.0266   23.1087 H   0  0  0  0  0  0  0  0  0  0  0  0
    8.4752    3.7646   24.1649 H   0  0  0  0  0  0  0  0  0  0  0  0
    9.9786    1.8150   24.0210 C   0  0  0  0  0  0  0  0  0  0  0  0
   10.5866    2.7649   24.4967 O   0  0  0  0  0  0  0  0  0  0  0  0
   10.6948    0.6722   23.3542 C   0  0  0  0  0  0  0  0  0  0  0  0
   12.0919    0.6864   23.3558 C   0  0  0  0  0  0  0  0  0  0  0  0
   12.8039   -0.2439   22.6250 C   0  0  0  0  0  0  0  0  0  0  0  0
   12.0908   -1.1686   21.8721 C   0  0  0  0  0  0  0  0  0  0  0  0
   12.7736   -2.0400   21.1107 F   0  0  0  0  0  0  0  0  0  0  0  0
   10.7116   -1.2192   21.8678 C   0  0  0  0  0  0  0  0  0  0  0  0
    9.9856   -0.3249   22.6657 C   0  0  0  0  0  0  0  0  0  0  0  0
   10.2335   -1.9362   21.2095 H   0  0  0  0  0  0  0  0  0  0  0  0
   13.8873   -0.2545   22.5971 H   0  0  0  0  0  0  0  0  0  0  0  0
   12.5925    1.4626   23.9234 H   0  0  0  0  0  0  0  0  0  0  0  0
    8.1568   -0.1622   24.8042 H   0  0  0  0  0  0  0  0  0  0  0  0
    6.8900    0.6162   23.8144 H   0  0  0  0  0  0  0  0  0  0  0  0
    5.6597   -1.4433   22.1603 H   0  0  0  0  0  0  0  0  0  0  0  0
    6.4518   -2.4475   20.9366 H   0  0  0  0  0  0  0  0  0  0  0  0
    8.5250   -2.4067   22.0548 H   0  0  0  0  0  0  0  0  0  0  0  0
    7.0029   -3.4510   23.6877 H   0  0  0  0  0  0  0  0  0  0  0  0
    8.2373   -2.5307   24.5650 H   0  0  0  0  0  0  0  0  0  0  0  0
    6.6013   -1.8762   24.3846 H   0  0  0  0  0  0  0  0  0  0  0  0
  1  2  1  0
  2  3  1  0
  3  4  1  0
  4  5  1  0
  5  6  2  0
  6  7  1  0
  7  8  2  0
  8  9  1  0
  9 10  2  0
 10 11  1  0
 11 12  2  0
 12 13  1  0
 13 14  2  0
 13 15  1  0
 12 16  1  0
 11 17  1  0
 10 18  1  0
  8 19  1  0
  6 20  1  0
  4 21  1  0
 21 22  2  0
 21 23  1  0
 23 24  1  1
 24 25  1  0
 25 26  1  0
 26 27  1  0
 27 28  2  0
 28 29  1  0
 29 30  2  0
 30 31  1  0
 31 32  1  0
 32 33  1  0
 32 34  1  0
 32 35  1  0
 30 36  1  0
 29 37  1  0
 26 38  1  0
 26 39  1  0
 25 40  1  0
 40 41  2  0
 40 42  1  0
 42 43  2  0
 43 44  1  0
 44 45  2  0
 45 46  1  0
 45 47  1  0
 47 48  2  0
 47 49  1  0
 44 50  1  0
 43 51  1  0
 24 52  1  0
 24 53  1  0
  3 54  1  0
  3 55  1  0
  2 56  1  6
  1 57  1  0
  1 58  1  0
  1 59  1  0
 23  2  1  0
 31 27  1  0
 48 42  1  0
 14  5  1  0
 48 23  1  0
 14  9  1  0
M  END
>  <cnnaffinities>  (72) 
[6.48623]

>  <score>  (72) 
6.48623

>  <index>  (72) 
71

>  <Smiles>  (72) 
C([C@]1(C(N(c2c(nc(c3c(c(c(c(c23)[H])[H])[H])[H])[H])[H])C(=O)[C@]21C(N(C(c1nc(c(n1C([H])([H])[H])[H])[H])([H])[H])C(=O)c1c(c(c(F)c(c21)[H])[H])[H])([H])[H])([H])[H])[H])([H])([H])[H]

>  <h>  (72) 
<NA>

>  <Training>  (72) 
True

>  <Success>  (72) 
True

>  <enamine_searched>  (72) 
False

>  <enamine_id>  (72) 
nan

$$$$

     RDKit          3D

 60 64  0  0  0  0  0  0  0  0999 V2000
    6.6846    4.4141   21.4064 C   0  0  0  0  0  0  0  0  0  0  0  0
    7.5965    4.0212   22.4655 N   0  0  0  0  0  0  0  0  0  0  0  0
    7.0495    3.3254   23.5007 C   0  0  0  0  0  0  0  0  0  0  0  0
    5.8423    3.1784   23.6043 O   0  0  0  0  0  0  0  0  0  0  0  0
    8.0056    2.7469   24.5327 C   0  0  0  0  0  0  0  0  0  0  0  0
    8.7455    1.6145   24.0312 N   0  0  0  0  0  0  0  0  0  0  0  0
    8.0427    0.3534   23.8838 C   0  0  0  0  0  0  0  0  0  0  0  0
    8.4875   -0.3978   22.6139 C   0  0  2  0  0  0  0  0  0  0  0  0
    7.9601    0.3009   21.3463 C   0  0  0  0  0  0  0  0  0  0  0  0
    8.3739    1.3288   20.8505 O   0  0  0  0  0  0  0  0  0  0  0  0
    6.9236   -0.4424   20.8358 N   0  0  0  0  0  0  0  0  0  0  0  0
    6.1330    0.0747   19.7743 C   0  0  0  0  0  0  0  0  0  0  0  0
    6.4696   -0.2282   18.4789 C   0  0  0  0  0  0  0  0  0  0  0  0
    5.7997    0.2191   17.3892 N   0  0  0  0  0  0  0  0  0  0  0  0
    4.7663    1.0003   17.6017 C   0  0  0  0  0  0  0  0  0  0  0  0
    4.3090    1.3941   18.8915 C   0  0  0  0  0  0  0  0  0  0  0  0
    3.1873    2.2482   19.0647 C   0  0  0  0  0  0  0  0  0  0  0  0
    2.7778    2.6201   20.3172 C   0  0  0  0  0  0  0  0  0  0  0  0
    3.4733    2.1582   21.4576 C   0  0  0  0  0  0  0  0  0  0  0  0
    4.5623    1.3294   21.3183 C   0  0  0  0  0  0  0  0  0  0  0  0
    5.0097    0.9235   20.0266 C   0  0  0  0  0  0  0  0  0  0  0  0
    5.0975    1.0038   22.2063 H   0  0  0  0  0  0  0  0  0  0  0  0
    3.1658    2.4744   22.4505 H   0  0  0  0  0  0  0  0  0  0  0  0
    1.9244    3.2828   20.4377 H   0  0  0  0  0  0  0  0  0  0  0  0
    2.6775    2.6156   18.1794 H   0  0  0  0  0  0  0  0  0  0  0  0
    4.2220    1.3585   16.7282 H   0  0  0  0  0  0  0  0  0  0  0  0
    7.3361   -0.8584   18.2829 H   0  0  0  0  0  0  0  0  0  0  0  0
    6.5974   -1.6225   21.6120 C   0  0  0  0  0  0  0  0  0  0  0  0
    7.8152   -1.8038   22.5293 C   0  0  2  0  0  0  0  0  0  0  0  0
    7.4557   -2.4615   23.7703 N   0  0  0  0  0  0  0  0  0  0  0  0
    8.3972   -3.0386   24.5835 C   0  0  0  0  0  0  0  0  0  0  0  0
    9.5622   -3.1399   24.2439 O   0  0  0  0  0  0  0  0  0  0  0  0
    7.8853   -3.5132   25.9242 C   0  0  0  0  0  0  0  0  0  0  0  0
    6.9764   -4.1038   25.8046 H   0  0  0  0  0  0  0  0  0  0  0  0
    8.6644   -4.1155   26.3934 H   0  0  0  0  0  0  0  0  0  0  0  0
    7.6541   -2.6605   26.5745 H   0  0  0  0  0  0  0  0  0  0  0  0
    6.5055   -2.3903   24.0992 H   0  0  0  0  0  0  0  0  0  0  0  0
    8.5408   -2.4539   22.0501 H   0  0  0  0  0  0  0  0  0  0  0  0
    6.4232   -2.4837   20.9579 H   0  0  0  0  0  0  0  0  0  0  0  0
    5.6948   -1.4531   22.2172 H   0  0  0  0  0  0  0  0  0  0  0  0
   10.0042   -0.4037   22.5803 C   0  0  0  0  0  0  0  0  0  0  0  0
   10.6840   -1.2757   21.7204 C   0  0  0  0  0  0  0  0  0  0  0  0
   12.0677   -1.2448   21.6610 C   0  0  0  0  0  0  0  0  0  0  0  0
   12.8989   -2.2690   20.5201 Cl  0  0  0  0  0  0  0  0  0  0  0  0
   12.8204   -0.3744   22.4537 C   0  0  0  0  0  0  0  0  0  0  0  0
   12.1555    0.5328   23.2554 C   0  0  0  0  0  0  0  0  0  0  0  0
   10.7626    0.5407   23.2849 C   0  0  0  0  0  0  0  0  0  0  0  0
   10.1113    1.6635   24.0207 C   0  0  0  0  0  0  0  0  0  0  0  0
   10.7570    2.5704   24.5329 O   0  0  0  0  0  0  0  0  0  0  0  0
   12.6790    1.2798   23.8458 H   0  0  0  0  0  0  0  0  0  0  0  0
   13.9038   -0.4049   22.3994 H   0  0  0  0  0  0  0  0  0  0  0  0
   10.1342   -1.9638   21.0867 H   0  0  0  0  0  0  0  0  0  0  0  0
    6.9716    0.5666   23.8377 H   0  0  0  0  0  0  0  0  0  0  0  0
    8.2354   -0.2824   24.7524 H   0  0  0  0  0  0  0  0  0  0  0  0
    8.7491    3.4782   24.8564 H   0  0  0  0  0  0  0  0  0  0  0  0
    7.3688    2.4465   25.3672 H   0  0  0  0  0  0  0  0  0  0  0  0
    8.5659    3.8991   22.2198 H   0  0  0  0  0  0  0  0  0  0  0  0
    5.9042    5.0550   21.8109 H   0  0  0  0  0  0  0  0  0  0  0  0
    7.2025    4.9548   20.6179 H   0  0  0  0  0  0  0  0  0  0  0  0
    6.1803    3.5477   20.9692 H   0  0  0  0  0  0  0  0  0  0  0  0
  1  2  1  0
  2  3  1  0
  3  4  2  0
  3  5  1  0
  5  6  1  0
  6  7  1  0
  8  7  1  1
  8  9  1  0
  9 10  2  0
  9 11  1  0
 11 12  1  0
 12 13  2  0
 13 14  1  0
 14 15  2  0
 15 16  1  0
 16 17  2  0
 17 18  1  0
 18 19  2  0
 19 20  1  0
 20 21  2  0
 20 22  1  0
 19 23  1  0
 18 24  1  0
 17 25  1  0
 15 26  1  0
 13 27  1  0
 11 28  1  0
 28 29  1  0
 29 30  1  0
 30 31  1  0
 31 32  2  0
 31 33  1  0
 33 34  1  0
 33 35  1  0
 33 36  1  0
 30 37  1  0
 29 38  1  6
 28 39  1  0
 28 40  1  0
  8 41  1  0
 41 42  2  0
 42 43  1  0
 43 44  1  0
 43 45  2  0
 45 46  1  0
 46 47  2  0
 47 48  1  0
 48 49  2  0
 46 50  1  0
 45 51  1  0
 42 52  1  0
  7 53  1  0
  7 54  1  0
  5 55  1  0
  5 56  1  0
  2 57  1  0
  1 58  1  0
  1 59  1  0
  1 60  1  0
 48  6  1  0
 29  8  1  0
 47 41  1  0
 21 12  1  0
 21 16  1  0
M  END
>  <cnnaffinities>  (73) 
[6.2955, 6.2277]

>  <score>  (73) 
6.2955

>  <index>  (73) 
72

>  <Smiles>  (73) 
C(N(C(=O)C(N1C([C@@]2(C(=O)N(c3c(nc(c4c(c(c(c(c34)[H])[H])[H])[H])[H])[H])C([C@@]2(N(C(=O)C([H])([H])[H])[H])[H])([H])[H])c2c(c(Cl)c(c(c2C1=O)[H])[H])[H])([H])[H])([H])[H])[H])([H])([H])[H]

>  <h>  (73) 
<NA>

>  <Training>  (73) 
True

>  <Success>  (73) 
True

>  <enamine_searched>  (73) 
False

>  <enamine_id>  (73) 
nan

$$$$

     RDKit          3D

 56 61  0  0  0  0  0  0  0  0999 V2000
    7.8678   -3.1240   23.2152 C   0  0  0  0  0  0  0  0  0  0  0  0
    7.9916   -1.9646   22.2393 C   0  0  1  0  0  0  0  0  0  0  0  0
    6.7868   -1.7572   21.3220 C   0  0  0  0  0  0  0  0  0  0  0  0
    6.9671   -0.3840   20.8847 N   0  0  0  0  0  0  0  0  0  0  0  0
    6.1994    0.1518   19.8190 C   0  0  0  0  0  0  0  0  0  0  0  0
    6.5023   -0.2194   18.5338 C   0  0  0  0  0  0  0  0  0  0  0  0
    5.8321    0.1885   17.4292 N   0  0  0  0  0  0  0  0  0  0  0  0
    4.7991    0.9756   17.6134 C   0  0  0  0  0  0  0  0  0  0  0  0
    4.3367    1.3963   18.8913 C   0  0  0  0  0  0  0  0  0  0  0  0
    3.1891    2.2210   19.0311 C   0  0  0  0  0  0  0  0  0  0  0  0
    2.7356    2.5686   20.2736 C   0  0  0  0  0  0  0  0  0  0  0  0
    3.3982    2.1035   21.4308 C   0  0  0  0  0  0  0  0  0  0  0  0
    4.5187    1.3186   21.3197 C   0  0  0  0  0  0  0  0  0  0  0  0
    5.0332    0.9590   20.0421 C   0  0  0  0  0  0  0  0  0  0  0  0
    5.0163    0.9598   22.2153 H   0  0  0  0  0  0  0  0  0  0  0  0
    3.0177    2.3719   22.4123 H   0  0  0  0  0  0  0  0  0  0  0  0
    1.8641    3.2070   20.3774 H   0  0  0  0  0  0  0  0  0  0  0  0
    2.6922    2.5790   18.1330 H   0  0  0  0  0  0  0  0  0  0  0  0
    4.2616    1.3040   16.7234 H   0  0  0  0  0  0  0  0  0  0  0  0
    7.3459   -0.8864   18.3596 H   0  0  0  0  0  0  0  0  0  0  0  0
    7.7835    0.3644   21.7171 C   0  0  0  0  0  0  0  0  0  0  0  0
    8.0636    1.5285   21.5468 O   0  0  0  0  0  0  0  0  0  0  0  0
    8.2467   -0.5538   22.8719 C   0  0  1  0  0  0  0  0  0  0  0  0
    7.3742   -0.2097   24.1027 C   0  0  0  0  0  0  0  0  0  0  0  0
    7.8902   -0.7617   25.3529 N   0  0  0  0  0  0  0  0  0  0  0  0
    6.9494   -1.4285   26.2687 C   0  0  0  0  0  0  0  0  0  0  0  0
    7.4050   -2.7964   26.8439 C   0  0  0  0  0  0  0  0  0  0  0  0
    7.7799   -2.1221   28.1351 N   0  0  0  0  0  4  0  0  0  0  0  0
    6.9359   -0.9347   27.7390 C   0  0  0  0  0  0  0  0  0  0  0  0
    7.4270    0.0143   27.9440 H   0  0  0  0  0  0  0  0  0  0  0  0
    5.9423   -0.9675   28.1876 H   0  0  0  0  0  0  0  0  0  0  0  0
    8.7626   -1.7929   27.9931 H   0  0  0  0  0  0  0  0  0  0  0  0
    7.7097   -2.5814   29.0540 H   0  0  0  0  0  0  0  0  0  0  0  0
    8.2577   -3.2697   26.3545 H   0  0  0  0  0  0  0  0  0  0  0  0
    6.5857   -3.5070   26.9605 H   0  0  0  0  0  0  0  0  0  0  0  0
    5.9781   -1.4246   25.7574 H   0  0  0  0  0  0  0  0  0  0  0  0
    9.2140   -0.6531   25.6779 C   0  0  0  0  0  0  0  0  0  0  0  0
    9.6566   -0.8977   26.8048 O   0  0  0  0  0  0  0  0  0  0  0  0
   10.1427   -0.3144   24.5577 C   0  0  0  0  0  0  0  0  0  0  0  0
   11.4989   -0.1430   24.8418 C   0  0  0  0  0  0  0  0  0  0  0  0
   12.4305   -0.1631   23.8290 C   0  0  0  0  0  0  0  0  0  0  0  0
   11.9906   -0.3649   22.5221 C   0  0  0  0  0  0  0  0  0  0  0  0
   13.1970   -0.6348   21.3083 Cl  0  0  0  0  0  0  0  0  0  0  0  0
   10.6514   -0.4846   22.2127 C   0  0  0  0  0  0  0  0  0  0  0  0
    9.7019   -0.3851   23.2327 C   0  0  0  0  0  0  0  0  0  0  0  0
   10.3241   -0.6807   21.1929 H   0  0  0  0  0  0  0  0  0  0  0  0
   13.4972   -0.0878   24.0145 H   0  0  0  0  0  0  0  0  0  0  0  0
   11.8256   -0.0917   25.8698 H   0  0  0  0  0  0  0  0  0  0  0  0
    6.3536   -0.5792   23.9505 H   0  0  0  0  0  0  0  0  0  0  0  0
    7.3213    0.8854   24.1666 H   0  0  0  0  0  0  0  0  0  0  0  0
    6.7821   -2.4236   20.4550 H   0  0  0  0  0  0  0  0  0  0  0  0
    5.8312   -1.9024   21.8598 H   0  0  0  0  0  0  0  0  0  0  0  0
    8.8591   -2.1435   21.5856 H   0  0  0  0  0  0  0  0  0  0  0  0
    8.7632   -3.1799   23.8450 H   0  0  0  0  0  0  0  0  0  0  0  0
    7.7622   -4.0733   22.6782 H   0  0  0  0  0  0  0  0  0  0  0  0
    6.9915   -2.9925   23.8625 H   0  0  0  0  0  0  0  0  0  0  0  0
  1  2  1  0
  2  3  1  0
  3  4  1  0
  4  5  1  0
  5  6  2  0
  6  7  1  0
  7  8  2  0
  8  9  1  0
  9 10  2  0
 10 11  1  0
 11 12  2  0
 12 13  1  0
 13 14  2  0
 13 15  1  0
 12 16  1  0
 11 17  1  0
 10 18  1  0
  8 19  1  0
  6 20  1  0
  4 21  1  0
 21 22  2  0
 21 23  1  0
 23 24  1  1
 24 25  1  0
 25 26  1  0
 26 27  1  0
 27 28  1  0
 28 29  1  0
 29 30  1  0
 29 31  1  0
 28 32  1  0
 28 33  1  0
 27 34  1  0
 27 35  1  0
 26 36  1  0
 25 37  1  0
 37 38  2  0
 37 39  1  0
 39 40  2  0
 40 41  1  0
 41 42  2  0
 42 43  1  0
 42 44  1  0
 44 45  2  0
 44 46  1  0
 41 47  1  0
 40 48  1  0
 24 49  1  0
 24 50  1  0
  3 51  1  0
  3 52  1  0
  2 53  1  6
  1 54  1  0
  1 55  1  0
  1 56  1  0
 23  2  1  0
 29 26  1  0
 45 39  1  0
 14  5  1  0
 45 23  1  0
 14  9  1  0
M  CHG  1  28   1
M  END
>  <cnnaffinities>  (74) 
[6.53403]

>  <score>  (74) 
6.53403

>  <index>  (74) 
73

>  <Smiles>  (74) 
C([C@]1(C(N(c2c(nc(c3c(c(c(c(c23)[H])[H])[H])[H])[H])[H])C(=O)[C@]21C(N(C1(C([N+](C1([H])[H])([H])[H])([H])[H])[H])C(=O)c1c(c(c(Cl)c(c21)[H])[H])[H])([H])[H])([H])[H])[H])([H])([H])[H]

>  <h>  (74) 
<NA>

>  <Training>  (74) 
True

>  <Success>  (74) 
True

>  <enamine_searched>  (74) 
False

>  <enamine_id>  (74) 
nan

$$$$

     RDKit          3D

 55 60  0  0  0  0  0  0  0  0999 V2000
    7.3276   -2.5921   23.7770 C   0  0  0  0  0  0  0  0  0  0  0  0
    7.7785   -1.8318   22.5164 C   0  0  1  0  0  0  0  0  0  0  0  0
    6.6189   -1.6605   21.5083 C   0  0  0  0  0  0  0  0  0  0  0  0
    6.9266   -0.4190   20.8283 N   0  0  0  0  0  0  0  0  0  0  0  0
    6.1434    0.1052   19.7620 C   0  0  0  0  0  0  0  0  0  0  0  0
    6.4540   -0.2158   18.4658 C   0  0  0  0  0  0  0  0  0  0  0  0
    5.7669    0.2234   17.3810 N   0  0  0  0  0  0  0  0  0  0  0  0
    4.7446    1.0155   17.5932 C   0  0  0  0  0  0  0  0  0  0  0  0
    4.2924    1.4107   18.8819 C   0  0  0  0  0  0  0  0  0  0  0  0
    3.1683    2.2632   19.0631 C   0  0  0  0  0  0  0  0  0  0  0  0
    2.7512    2.6159   20.3152 C   0  0  0  0  0  0  0  0  0  0  0  0
    3.4319    2.1146   21.4494 C   0  0  0  0  0  0  0  0  0  0  0  0
    4.5180    1.2839   21.2989 C   0  0  0  0  0  0  0  0  0  0  0  0
    4.9965    0.9294   20.0099 C   0  0  0  0  0  0  0  0  0  0  0  0
    5.0554    0.9466   22.1815 H   0  0  0  0  0  0  0  0  0  0  0  0
    3.1280    2.4272   22.4434 H   0  0  0  0  0  0  0  0  0  0  0  0
    1.9136    3.2979   20.4448 H   0  0  0  0  0  0  0  0  0  0  0  0
    2.6652    2.6442   18.1783 H   0  0  0  0  0  0  0  0  0  0  0  0
    4.2193    1.3802   16.7116 H   0  0  0  0  0  0  0  0  0  0  0  0
    7.2931   -0.8732   18.2473 H   0  0  0  0  0  0  0  0  0  0  0  0
    7.8753    0.3566   21.4625 C   0  0  0  0  0  0  0  0  0  0  0  0
    8.2329    1.4408   21.0652 O   0  0  0  0  0  0  0  0  0  0  0  0
    8.3858   -0.4031   22.7167 C   0  0  1  0  0  0  0  0  0  0  0  0
    7.8499    0.2482   24.0146 C   0  0  0  0  0  0  0  0  0  0  0  0
    8.4751    1.5201   24.2932 N   0  0  0  0  0  0  0  0  0  0  0  0
    7.6515    2.6765   24.5978 C   0  0  0  0  0  0  0  0  0  0  0  0
    7.4616    3.5599   23.3942 C   0  0  0  0  0  0  0  0  0  0  0  0
    8.3765    4.4976   22.8453 C   0  0  0  0  0  0  0  0  0  0  0  0
    7.6677    5.0828   21.8530 C   0  0  0  0  0  0  0  0  0  0  0  0
    6.4525    4.5300   21.7610 O   0  0  0  0  0  0  0  0  0  0  0  0
    6.3261    3.5685   22.7428 N   0  0  0  0  0  0  0  0  0  0  0  0
    7.8437    5.9016   21.1651 H   0  0  0  0  0  0  0  0  0  0  0  0
    9.3868    4.6603   23.1898 H   0  0  0  0  0  0  0  0  0  0  0  0
    6.6748    2.3369   24.9681 H   0  0  0  0  0  0  0  0  0  0  0  0
    8.1557    3.2445   25.3841 H   0  0  0  0  0  0  0  0  0  0  0  0
    9.8363    1.6711   24.2773 C   0  0  0  0  0  0  0  0  0  0  0  0
   10.3924    2.6188   24.8165 O   0  0  0  0  0  0  0  0  0  0  0  0
   10.5807    0.6206   23.5098 C   0  0  0  0  0  0  0  0  0  0  0  0
   11.9745    0.6746   23.5131 C   0  0  0  0  0  0  0  0  0  0  0  0
   12.7121   -0.1717   22.7114 C   0  0  0  0  0  0  0  0  0  0  0  0
   12.0268   -1.0515   21.8817 C   0  0  0  0  0  0  0  0  0  0  0  0
   12.7334   -1.8398   21.0541 F   0  0  0  0  0  0  0  0  0  0  0  0
   10.6511   -1.1369   21.8684 C   0  0  0  0  0  0  0  0  0  0  0  0
    9.9019   -0.3366   22.7407 C   0  0  0  0  0  0  0  0  0  0  0  0
   10.1946   -1.8050   21.1457 H   0  0  0  0  0  0  0  0  0  0  0  0
   13.7941   -0.1563   22.6859 H   0  0  0  0  0  0  0  0  0  0  0  0
   12.4473    1.4130   24.1492 H   0  0  0  0  0  0  0  0  0  0  0  0
    8.0163   -0.4395   24.8594 H   0  0  0  0  0  0  0  0  0  0  0  0
    6.7778    0.4368   23.8912 H   0  0  0  0  0  0  0  0  0  0  0  0
    6.5540   -2.4851   20.7860 H   0  0  0  0  0  0  0  0  0  0  0  0
    5.6444   -1.6102   22.0253 H   0  0  0  0  0  0  0  0  0  0  0  0
    8.5587   -2.4251   22.0324 H   0  0  0  0  0  0  0  0  0  0  0  0
    8.1396   -2.6986   24.5084 H   0  0  0  0  0  0  0  0  0  0  0  0
    6.9754   -3.6024   23.5232 H   0  0  0  0  0  0  0  0  0  0  0  0
    6.4962   -2.0765   24.2800 H   0  0  0  0  0  0  0  0  0  0  0  0
  1  2  1  0
  2  3  1  0
  3  4  1  0
  4  5  1  0
  5  6  2  0
  6  7  1  0
  7  8  2  0
  8  9  1  0
  9 10  2  0
 10 11  1  0
 11 12  2  0
 12 13  1  0
 13 14  2  0
 13 15  1  0
 12 16  1  0
 11 17  1  0
 10 18  1  0
  8 19  1  0
  6 20  1  0
  4 21  1  0
 21 22  2  0
 21 23  1  0
 23 24  1  1
 24 25  1  0
 25 26  1  0
 26 27  1  0
 27 28  1  0
 28 29  2  0
 29 30  1  0
 30 31  1  0
 29 32  1  0
 28 33  1  0
 26 34  1  0
 26 35  1  0
 25 36  1  0
 36 37  2  0
 36 38  1  0
 38 39  2  0
 39 40  1  0
 40 41  2  0
 41 42  1  0
 41 43  1  0
 43 44  2  0
 43 45  1  0
 40 46  1  0
 39 47  1  0
 24 48  1  0
 24 49  1  0
  3 50  1  0
  3 51  1  0
  2 52  1  6
  1 53  1  0
  1 54  1  0
  1 55  1  0
 23  2  1  0
 31 27  2  0
 44 38  1  0
 14  5  1  0
 44 23  1  0
 14  9  1  0
M  END
>  <cnnaffinities>  (75) 
[6.4879]

>  <score>  (75) 
6.4879

>  <index>  (75) 
74

>  <Smiles>  (75) 
C([C@]1(C(N(c2c(nc(c3c(c(c(c(c23)[H])[H])[H])[H])[H])[H])C(=O)[C@]21C(N(C(c1c(c(on1)[H])[H])([H])[H])C(=O)c1c(c(c(F)c(c21)[H])[H])[H])([H])[H])([H])[H])[H])([H])([H])[H]

>  <h>  (75) 
<NA>

>  <Training>  (75) 
True

>  <Success>  (75) 
True

>  <enamine_searched>  (75) 
False

>  <enamine_id>  (75) 
nan

$$$$

     RDKit          3D

 70 75  0  0  0  0  0  0  0  0999 V2000
   11.3842    5.9285   25.9205 C   0  0  0  0  0  0  0  0  0  0  0  0
   11.7564    5.3478   24.6947 O   0  0  0  0  0  0  0  0  0  0  0  0
   10.7651    4.8939   23.8860 C   0  0  0  0  0  0  0  0  0  0  0  0
   11.1922    4.1792   22.7665 C   0  0  0  0  0  0  0  0  0  0  0  0
   10.2617    3.7270   21.8580 C   0  0  0  0  0  0  0  0  0  0  0  0
    8.9017    3.9527   22.0498 C   0  0  0  0  0  0  0  0  0  0  0  0
    8.4723    4.6553   23.1683 C   0  0  0  0  0  0  0  0  0  0  0  0
    6.9781    4.7158   23.4278 C   0  0  0  0  0  0  0  0  0  0  0  0
    6.5283    3.3993   23.8576 N   0  0  0  0  0  0  0  0  0  0  0  0
    6.4249    3.1335   25.1933 C   0  0  0  0  0  0  0  0  0  0  0  0
    6.2237    3.9864   26.0415 O   0  0  0  0  0  0  0  0  0  0  0  0
    6.5385    1.6491   25.5677 C   0  0  0  0  0  0  0  0  0  0  0  0
    7.5485    0.9663   24.7723 N   0  0  0  0  0  0  0  0  0  0  0  0
    7.2521   -0.2914   24.0978 C   0  0  0  0  0  0  0  0  0  0  0  0
    8.0723   -0.5040   22.7864 C   0  0  2  0  0  0  0  0  0  0  0  0
    7.4009    0.3061   21.6520 C   0  0  0  0  0  0  0  0  0  0  0  0
    7.3473    1.5184   21.5740 O   0  0  0  0  0  0  0  0  0  0  0  0
    6.7794   -0.5534   20.7778 N   0  0  0  0  0  0  0  0  0  0  0  0
    5.9897   -0.0738   19.7010 C   0  0  0  0  0  0  0  0  0  0  0  0
    6.2947   -0.4182   18.4083 C   0  0  0  0  0  0  0  0  0  0  0  0
    5.6579    0.0700   17.3140 N   0  0  0  0  0  0  0  0  0  0  0  0
    4.6742    0.9166   17.5123 C   0  0  0  0  0  0  0  0  0  0  0  0
    4.2179    1.3104   18.8011 C   0  0  0  0  0  0  0  0  0  0  0  0
    3.1427    2.2226   18.9751 C   0  0  0  0  0  0  0  0  0  0  0  0
    2.7243    2.5802   20.2287 C   0  0  0  0  0  0  0  0  0  0  0  0
    3.3336    2.0080   21.3689 C   0  0  0  0  0  0  0  0  0  0  0  0
    4.3511    1.1004   21.2242 C   0  0  0  0  0  0  0  0  0  0  0  0
    4.8632    0.7754   19.9352 C   0  0  0  0  0  0  0  0  0  0  0  0
    4.7827    0.6200   22.0959 H   0  0  0  0  0  0  0  0  0  0  0  0
    3.0051    2.2978   22.3632 H   0  0  0  0  0  0  0  0  0  0  0  0
    1.9288    3.3103   20.3568 H   0  0  0  0  0  0  0  0  0  0  0  0
    2.6682    2.6398   18.0908 H   0  0  0  0  0  0  0  0  0  0  0  0
    4.1738    1.3233   16.6303 H   0  0  0  0  0  0  0  0  0  0  0  0
    7.1198   -1.1008   18.2076 H   0  0  0  0  0  0  0  0  0  0  0  0
    6.6694   -1.8893   21.3356 C   0  0  0  0  0  0  0  0  0  0  0  0
    7.9099   -1.9490   22.2295 C   0  0  2  0  0  0  0  0  0  0  0  0
    7.9781   -3.0688   23.2577 C   0  0  0  0  0  0  0  0  0  0  0  0
    7.1004   -3.0845   23.9127 H   0  0  0  0  0  0  0  0  0  0  0  0
    8.0509   -4.0468   22.7724 H   0  0  0  0  0  0  0  0  0  0  0  0
    8.8640   -2.9374   23.8914 H   0  0  0  0  0  0  0  0  0  0  0  0
    8.7403   -2.0883   21.5381 H   0  0  0  0  0  0  0  0  0  0  0  0
    6.6540   -2.6341   20.5410 H   0  0  0  0  0  0  0  0  0  0  0  0
    5.7446   -2.0160   21.9191 H   0  0  0  0  0  0  0  0  0  0  0  0
    9.5244   -0.1147   23.0399 C   0  0  0  0  0  0  0  0  0  0  0  0
   10.5725   -0.5896   22.2299 C   0  0  0  0  0  0  0  0  0  0  0  0
   11.8897   -0.2762   22.5129 C   0  0  0  0  0  0  0  0  0  0  0  0
   13.1715   -0.9329   21.5210 Cl  0  0  0  0  0  0  0  0  0  0  0  0
   12.2314    0.5448   23.5868 C   0  0  0  0  0  0  0  0  0  0  0  0
   11.2069    1.0496   24.3641 C   0  0  0  0  0  0  0  0  0  0  0  0
    9.8736    0.7402   24.0928 C   0  0  0  0  0  0  0  0  0  0  0  0
    8.8374    1.3978   24.9438 C   0  0  0  0  0  0  0  0  0  0  0  0
    9.1249    2.2971   25.7257 O   0  0  0  0  0  0  0  0  0  0  0  0
   11.4040    1.7137   25.1979 H   0  0  0  0  0  0  0  0  0  0  0  0
   13.2745    0.7866   23.7796 H   0  0  0  0  0  0  0  0  0  0  0  0
   10.3837   -1.1916   21.3489 H   0  0  0  0  0  0  0  0  0  0  0  0
    7.4460   -1.1169   24.7934 H   0  0  0  0  0  0  0  0  0  0  0  0
    6.1850   -0.3005   23.8547 H   0  0  0  0  0  0  0  0  0  0  0  0
    5.5784    1.1411   25.4145 H   0  0  0  0  0  0  0  0  0  0  0  0
    6.7666    1.6153   26.6414 H   0  0  0  0  0  0  0  0  0  0  0  0
    6.8036    2.6292   23.2502 H   0  0  0  0  0  0  0  0  0  0  0  0
    6.4144    4.9758   22.5217 H   0  0  0  0  0  0  0  0  0  0  0  0
    6.7184    5.4283   24.2148 H   0  0  0  0  0  0  0  0  0  0  0  0
    9.4025    5.1213   24.0986 C   0  0  0  0  0  0  0  0  0  0  0  0
    9.0596    5.6453   24.9874 H   0  0  0  0  0  0  0  0  0  0  0  0
    8.1765    3.5559   21.3487 H   0  0  0  0  0  0  0  0  0  0  0  0
   10.6078    3.1731   20.9937 H   0  0  0  0  0  0  0  0  0  0  0  0
   12.2554    4.0078   22.6121 H   0  0  0  0  0  0  0  0  0  0  0  0
   12.3174    6.1963   26.4135 H   0  0  0  0  0  0  0  0  0  0  0  0
   10.7800    6.8364   25.7912 H   0  0  0  0  0  0  0  0  0  0  0  0
   10.8301    5.2062   26.5315 H   0  0  0  0  0  0  0  0  0  0  0  0
  1  2  1  0
  2  3  1  0
  3  4  2  0
  4  5  1  0
  5  6  2  0
  6  7  1  0
  7  8  1  0
  8  9  1  0
  9 10  1  0
 10 11  2  0
 10 12  1  0
 12 13  1  0
 13 14  1  0
 15 14  1  1
 15 16  1  0
 16 17  2  0
 16 18  1  0
 18 19  1  0
 19 20  2  0
 20 21  1  0
 21 22  2  0
 22 23  1  0
 23 24  2  0
 24 25  1  0
 25 26  2  0
 26 27  1  0
 27 28  2  0
 27 29  1  0
 26 30  1  0
 25 31  1  0
 24 32  1  0
 22 33  1  0
 20 34  1  0
 18 35  1  0
 35 36  1  0
 36 37  1  0
 37 38  1  0
 37 39  1  0
 37 40  1  0
 36 41  1  6
 35 42  1  0
 35 43  1  0
 15 44  1  0
 44 45  2  0
 45 46  1  0
 46 47  1  0
 46 48  2  0
 48 49  1  0
 49 50  2  0
 50 51  1  0
 51 52  2  0
 49 53  1  0
 48 54  1  0
 45 55  1  0
 14 56  1  0
 14 57  1  0
 12 58  1  0
 12 59  1  0
  9 60  1  0
  8 61  1  0
  8 62  1  0
  7 63  2  0
 63 64  1  0
  6 65  1  0
  5 66  1  0
  4 67  1  0
  1 68  1  0
  1 69  1  0
  1 70  1  0
 63  3  1  0
 51 13  1  0
 36 15  1  0
 50 44  1  0
 28 19  1  0
 28 23  1  0
M  END
>  <cnnaffinities>  (76) 
[6.90236]

>  <score>  (76) 
6.90236

>  <index>  (76) 
75

>  <Smiles>  (76) 
C(Oc1c(c(c(c(C(N(C(=O)C(N2C([C@@]3(C(=O)N(c4c(nc(c5c(c(c(c(c45)[H])[H])[H])[H])[H])[H])C([C@@]3(C([H])([H])[H])[H])([H])[H])c3c(c(Cl)c(c(c3C2=O)[H])[H])[H])([H])[H])([H])[H])[H])([H])[H])c1[H])[H])[H])[H])([H])([H])[H]

>  <h>  (76) 
<NA>

>  <Training>  (76) 
True

>  <Success>  (76) 
True

>  <enamine_searched>  (76) 
False

>  <enamine_id>  (76) 
nan

$$$$

     RDKit          3D

 61 65  0  0  0  0  0  0  0  0999 V2000
    7.4839   -2.5214   23.7761 C   0  0  0  0  0  0  0  0  0  0  0  0
    7.8757   -1.7454   22.5102 C   0  0  1  0  0  0  0  0  0  0  0  0
    6.7006   -1.6174   21.5195 C   0  0  0  0  0  0  0  0  0  0  0  0
    6.9609   -0.3700   20.8256 N   0  0  0  0  0  0  0  0  0  0  0  0
    6.1548    0.1180   19.7605 C   0  0  0  0  0  0  0  0  0  0  0  0
    6.4542   -0.2188   18.4656 C   0  0  0  0  0  0  0  0  0  0  0  0
    5.7662    0.2163   17.3806 N   0  0  0  0  0  0  0  0  0  0  0  0
    4.7457    1.0118   17.5958 C   0  0  0  0  0  0  0  0  0  0  0  0
    4.3053    1.4190   18.8879 C   0  0  0  0  0  0  0  0  0  0  0  0
    3.1831    2.2742   19.0668 C   0  0  0  0  0  0  0  0  0  0  0  0
    2.7797    2.6415   20.3202 C   0  0  0  0  0  0  0  0  0  0  0  0
    3.4652    2.1589   21.4547 C   0  0  0  0  0  0  0  0  0  0  0  0
    4.5502    1.3267   21.3095 C   0  0  0  0  0  0  0  0  0  0  0  0
    5.0180    0.9513   20.0154 C   0  0  0  0  0  0  0  0  0  0  0  0
    5.0582    0.9499   22.1925 H   0  0  0  0  0  0  0  0  0  0  0  0
    3.1391    2.4583   22.4478 H   0  0  0  0  0  0  0  0  0  0  0  0
    1.9371    3.3198   20.4440 H   0  0  0  0  0  0  0  0  0  0  0  0
    2.6749    2.6488   18.1824 H   0  0  0  0  0  0  0  0  0  0  0  0
    4.2139    1.3767   16.7164 H   0  0  0  0  0  0  0  0  0  0  0  0
    7.2981   -0.8725   18.2493 H   0  0  0  0  0  0  0  0  0  0  0  0
    7.8633    0.4496   21.4584 C   0  0  0  0  0  0  0  0  0  0  0  0
    8.1493    1.5740   21.0888 O   0  0  0  0  0  0  0  0  0  0  0  0
    8.4245   -0.2891   22.6974 C   0  0  1  0  0  0  0  0  0  0  0  0
    7.8700    0.3651   23.9823 C   0  0  0  0  0  0  0  0  0  0  0  0
    8.4320    1.6810   24.2160 N   0  0  0  0  0  0  0  0  0  0  0  0
    7.5493    2.7150   24.7249 C   0  0  0  0  0  0  0  0  0  0  0  0
    6.8804    3.5205   23.6167 C   0  0  0  0  0  0  0  0  0  0  0  0
    7.8525    4.3413   22.8239 N   0  0  0  0  0  4  0  0  0  0  0  0
    8.3747    5.5140   23.5835 C   0  0  0  0  0  0  0  0  0  0  0  0
    8.9548    5.1963   24.4495 H   0  0  0  0  0  0  0  0  0  0  0  0
    7.5332    6.1393   23.9097 H   0  0  0  0  0  0  0  0  0  0  0  0
    9.0099    6.1162   22.9276 H   0  0  0  0  0  0  0  0  0  0  0  0
    7.1995    4.8394   21.5869 C   0  0  0  0  0  0  0  0  0  0  0  0
    6.9431    3.9831   20.9635 H   0  0  0  0  0  0  0  0  0  0  0  0
    7.8815    5.5127   21.0632 H   0  0  0  0  0  0  0  0  0  0  0  0
    6.2900    5.4018   21.8350 H   0  0  0  0  0  0  0  0  0  0  0  0
    8.6258    3.7102   22.5482 H   0  0  0  0  0  0  0  0  0  0  0  0
    6.1300    4.1989   24.0385 H   0  0  0  0  0  0  0  0  0  0  0  0
    6.3776    2.8514   22.9102 H   0  0  0  0  0  0  0  0  0  0  0  0
    6.7717    2.2331   25.3255 H   0  0  0  0  0  0  0  0  0  0  0  0
    8.1486    3.3536   25.3736 H   0  0  0  0  0  0  0  0  0  0  0  0
    9.7815    1.8744   24.2173 C   0  0  0  0  0  0  0  0  0  0  0  0
   10.3159    2.8472   24.7405 O   0  0  0  0  0  0  0  0  0  0  0  0
   10.5749    0.8439   23.4607 C   0  0  0  0  0  0  0  0  0  0  0  0
   11.9653    0.9591   23.4535 C   0  0  0  0  0  0  0  0  0  0  0  0
   12.7321    0.1301   22.6572 C   0  0  0  0  0  0  0  0  0  0  0  0
   12.0927   -0.8039   21.8425 C   0  0  0  0  0  0  0  0  0  0  0  0
   13.0437   -1.7839   20.7636 Cl  0  0  0  0  0  0  0  0  0  0  0  0
   10.7169   -0.9426   21.8495 C   0  0  0  0  0  0  0  0  0  0  0  0
    9.9380   -0.1564   22.7089 C   0  0  0  0  0  0  0  0  0  0  0  0
   10.2650   -1.6362   21.1487 H   0  0  0  0  0  0  0  0  0  0  0  0
   13.8115    0.2160   22.6281 H   0  0  0  0  0  0  0  0  0  0  0  0
   12.4094    1.7342   24.0703 H   0  0  0  0  0  0  0  0  0  0  0  0
    6.7857    0.4783   23.8865 H   0  0  0  0  0  0  0  0  0  0  0  0
    8.0879   -0.3016   24.8323 H   0  0  0  0  0  0  0  0  0  0  0  0
    6.6505   -2.4485   20.8078 H   0  0  0  0  0  0  0  0  0  0  0  0
    5.7379   -1.5919   22.0566 H   0  0  0  0  0  0  0  0  0  0  0  0
    8.6733   -2.3012   22.0127 H   0  0  0  0  0  0  0  0  0  0  0  0
    6.6394   -2.0454   24.2900 H   0  0  0  0  0  0  0  0  0  0  0  0
    7.1726   -3.5419   23.5261 H   0  0  0  0  0  0  0  0  0  0  0  0
    8.3091   -2.5970   24.4940 H   0  0  0  0  0  0  0  0  0  0  0  0
  1  2  1  0
  2  3  1  0
  3  4  1  0
  4  5  1  0
  5  6  2  0
  6  7  1  0
  7  8  2  0
  8  9  1  0
  9 10  2  0
 10 11  1  0
 11 12  2  0
 12 13  1  0
 13 14  2  0
 13 15  1  0
 12 16  1  0
 11 17  1  0
 10 18  1  0
  8 19  1  0
  6 20  1  0
  4 21  1  0
 21 22  2  0
 21 23  1  0
 23 24  1  1
 24 25  1  0
 25 26  1  0
 26 27  1  0
 27 28  1  0
 28 29  1  0
 29 30  1  0
 29 31  1  0
 29 32  1  0
 28 33  1  0
 33 34  1  0
 33 35  1  0
 33 36  1  0
 28 37  1  0
 27 38  1  0
 27 39  1  0
 26 40  1  0
 26 41  1  0
 25 42  1  0
 42 43  2  0
 42 44  1  0
 44 45  2  0
 45 46  1  0
 46 47  2  0
 47 48  1  0
 47 49  1  0
 49 50  2  0
 49 51  1  0
 46 52  1  0
 45 53  1  0
 24 54  1  0
 24 55  1  0
  3 56  1  0
  3 57  1  0
  2 58  1  6
  1 59  1  0
  1 60  1  0
  1 61  1  0
 23  2  1  0
 50 44  1  0
 14  5  1  0
 50 23  1  0
 14  9  1  0
M  CHG  1  28   1
M  END
>  <cnnaffinities>  (77) 
[6.67944]

>  <score>  (77) 
6.67944

>  <index>  (77) 
76

>  <Smiles>  (77) 
C([C@]1(C(N(c2c(nc(c3c(c(c(c(c23)[H])[H])[H])[H])[H])[H])C(=O)[C@]21C(N(C(C([N+](C([H])([H])[H])(C([H])([H])[H])[H])([H])[H])([H])[H])C(=O)c1c(c(c(Cl)c(c21)[H])[H])[H])([H])[H])([H])[H])[H])([H])([H])[H]

>  <h>  (77) 
<NA>

>  <Training>  (77) 
True

>  <Success>  (77) 
True

>  <enamine_searched>  (77) 
False

>  <enamine_id>  (77) 
nan

$$$$

     RDKit          3D

 57 60  0  0  0  0  0  0  0  0999 V2000
    2.8421   -6.0304   26.7677 C   0  0  0  0  0  0  0  0  0  0  0  0
    3.3426   -6.4028   25.3561 C   0  0  0  0  0  0  0  0  0  0  0  0
    2.1490   -6.6237   24.3896 C   0  0  0  0  0  0  0  0  0  0  0  0
    2.5216   -6.9195   23.3979 H   0  0  0  0  0  0  0  0  0  0  0  0
    1.5198   -7.4270   24.7929 H   0  0  0  0  0  0  0  0  0  0  0  0
    1.5522   -5.7080   24.2853 H   0  0  0  0  0  0  0  0  0  0  0  0
    3.9537   -7.7466   25.4893 C   0  0  0  0  0  0  0  0  0  0  0  0
    4.3293   -8.8364   25.6120 N   0  0  0  0  0  0  0  0  0  0  0  0
    4.2958   -5.3298   24.7979 C   0  0  0  0  0  0  0  0  0  0  0  0
    5.0909   -5.5502   23.6672 C   0  0  0  0  0  0  0  0  0  0  0  0
    5.7703   -4.4982   23.0558 C   0  0  0  0  0  0  0  0  0  0  0  0
    5.6836   -3.2012   23.5696 C   0  0  0  0  0  0  0  0  0  0  0  0
    6.3572   -2.1048   22.9354 N   0  0  0  0  0  0  0  0  0  0  0  0
    7.2549   -1.2480   23.7177 C   0  0  0  0  0  0  0  0  0  0  0  0
    8.7304   -1.4220   23.3706 C   0  0  0  0  0  0  0  0  0  0  0  0
    9.2400   -2.7187   23.4565 C   0  0  0  0  0  0  0  0  0  0  0  0
   10.5662   -2.9797   23.1607 C   0  0  0  0  0  0  0  0  0  0  0  0
   11.4320   -1.9593   22.7871 C   0  0  0  0  0  0  0  0  0  0  0  0
   10.9252   -0.6661   22.6898 C   0  0  0  0  0  0  0  0  0  0  0  0
   12.0082    0.5999   22.1681 Cl  0  0  0  0  0  0  0  0  0  0  0  0
    9.5859   -0.3860   22.9743 C   0  0  0  0  0  0  0  0  0  0  0  0
    9.2231    0.6377   22.8792 H   0  0  0  0  0  0  0  0  0  0  0  0
   12.4771   -2.1702   22.5835 H   0  0  0  0  0  0  0  0  0  0  0  0
   10.9266   -3.9964   23.2588 H   0  0  0  0  0  0  0  0  0  0  0  0
    8.5925   -3.5280   23.7944 H   0  0  0  0  0  0  0  0  0  0  0  0
    7.1131   -1.5492   24.7580 H   0  0  0  0  0  0  0  0  0  0  0  0
    6.9317   -0.2029   23.6271 H   0  0  0  0  0  0  0  0  0  0  0  0
    6.0565   -1.8494   21.6060 C   0  0  0  0  0  0  0  0  0  0  0  0
    5.2791   -2.5421   20.9764 O   0  0  0  0  0  0  0  0  0  0  0  0
    6.7686   -0.6525   20.9595 C   0  0  0  0  0  0  0  0  0  0  0  0
    6.0415   -0.0311   19.8100 C   0  0  0  0  0  0  0  0  0  0  0  0
    6.4199   -0.2977   18.5230 C   0  0  0  0  0  0  0  0  0  0  0  0
    5.8071    0.1835   17.4100 N   0  0  0  0  0  0  0  0  0  0  0  0
    4.7758    0.9704   17.5982 C   0  0  0  0  0  0  0  0  0  0  0  0
    4.2853    1.3553   18.8760 C   0  0  0  0  0  0  0  0  0  0  0  0
    3.1689    2.2166   19.0287 C   0  0  0  0  0  0  0  0  0  0  0  0
    2.7450    2.5942   20.2729 C   0  0  0  0  0  0  0  0  0  0  0  0
    3.4183    2.1266   21.4225 C   0  0  0  0  0  0  0  0  0  0  0  0
    4.4917    1.2806   21.3023 C   0  0  0  0  0  0  0  0  0  0  0  0
    4.9489    0.8606   20.0227 C   0  0  0  0  0  0  0  0  0  0  0  0
    4.9889    0.9347   22.2026 H   0  0  0  0  0  0  0  0  0  0  0  0
    3.0809    2.4432   22.4062 H   0  0  0  0  0  0  0  0  0  0  0  0
    1.8969    3.2633   20.3880 H   0  0  0  0  0  0  0  0  0  0  0  0
    2.6679    2.5881   18.1387 H   0  0  0  0  0  0  0  0  0  0  0  0
    4.2691    1.3433   16.7065 H   0  0  0  0  0  0  0  0  0  0  0  0
    7.2857   -0.9332   18.3308 H   0  0  0  0  0  0  0  0  0  0  0  0
    6.9698    0.1138   21.7062 H   0  0  0  0  0  0  0  0  0  0  0  0
    7.7457   -1.0167   20.6233 H   0  0  0  0  0  0  0  0  0  0  0  0
    4.9607   -2.9896   24.7443 C   0  0  0  0  0  0  0  0  0  0  0  0
    4.2919   -4.0461   25.3443 C   0  0  0  0  0  0  0  0  0  0  0  0
    3.7897   -3.8512   26.2836 H   0  0  0  0  0  0  0  0  0  0  0  0
    4.9116   -2.0021   25.1980 H   0  0  0  0  0  0  0  0  0  0  0  0
    6.3725   -4.6875   22.1707 H   0  0  0  0  0  0  0  0  0  0  0  0
    5.2131   -6.5583   23.2750 H   0  0  0  0  0  0  0  0  0  0  0  0
    2.1656   -5.1667   26.7181 H   0  0  0  0  0  0  0  0  0  0  0  0
    2.3003   -6.8805   27.1947 H   0  0  0  0  0  0  0  0  0  0  0  0
    3.6921   -5.7792   27.4187 H   0  0  0  0  0  0  0  0  0  0  0  0
  1  2  1  0
  2  3  1  0
  3  4  1  0
  3  5  1  0
  3  6  1  0
  2  7  1  0
  7  8  3  0
  2  9  1  0
  9 10  2  0
 10 11  1  0
 11 12  2  0
 12 13  1  0
 13 14  1  0
 14 15  1  0
 15 16  2  0
 16 17  1  0
 17 18  2  0
 18 19  1  0
 19 20  1  0
 19 21  2  0
 21 22  1  0
 18 23  1  0
 17 24  1  0
 16 25  1  0
 14 26  1  0
 14 27  1  0
 13 28  1  0
 28 29  2  0
 28 30  1  0
 30 31  1  0
 31 32  2  0
 32 33  1  0
 33 34  2  0
 34 35  1  0
 35 36  2  0
 36 37  1  0
 37 38  2  0
 38 39  1  0
 39 40  2  0
 39 41  1  0
 38 42  1  0
 37 43  1  0
 36 44  1  0
 34 45  1  0
 32 46  1  0
 30 47  1  0
 30 48  1  0
 12 49  1  0
 49 50  2  0
 50 51  1  0
 49 52  1  0
 11 53  1  0
 10 54  1  0
  1 55  1  0
  1 56  1  0
  1 57  1  0
 50  9  1  0
 21 15  1  0
 40 31  1  0
 40 35  1  0
M  END
>  <cnnaffinities>  (78) 
[5.7132, 5.64558, 6.05181, 6.16844, 6.18059, 6.17639, 6.29272, 6.29689, 6.16082, 6.28865, 6.03053, 6.28316]

>  <score>  (78) 
5.7132

>  <index>  (78) 
77

>  <Smiles>  (78) 
C(C(C([H])([H])[H])(C#N)c1c(c(c(N(C(c2c(c(c(c(Cl)c2[H])[H])[H])[H])([H])[H])C(=O)C(c2c(nc(c3c(c(c(c(c23)[H])[H])[H])[H])[H])[H])([H])[H])c(c1[H])[H])[H])[H])([H])([H])[H]

>  <h>  (78) 
<NA>

>  <Training>  (78) 
True

>  <Success>  (78) 
True

>  <enamine_searched>  (78) 
False

>  <enamine_id>  (78) 
nan

$$$$

     RDKit          3D

 40 42  0  0  0  0  0  0  0  0999 V2000
    5.9605    2.7187   26.3092 C   0  0  0  0  0  0  0  0  0  0  0  0
    6.9759    2.2435   25.2722 C   0  0  0  0  0  0  0  0  0  0  0  0
    6.9148    3.0752   23.9959 C   0  0  0  0  0  0  0  0  0  0  0  0
    7.9018    2.5777   22.9441 C   0  0  0  0  0  0  0  0  0  0  0  0
    7.6796    1.1595   22.6881 N   0  0  0  0  0  0  0  0  0  0  0  0
    7.8935    0.6867   21.3900 C   0  0  0  0  0  0  0  0  0  0  0  0
    8.7039    1.1855   20.6395 O   0  0  0  0  0  0  0  0  0  0  0  0
    6.9608   -0.4375   20.9063 C   0  0  0  0  0  0  0  0  0  0  0  0
    6.1077    0.0791   19.7651 C   0  0  0  0  0  0  0  0  0  0  0  0
    6.4270   -0.2100   18.4640 C   0  0  0  0  0  0  0  0  0  0  0  0
    5.7625    0.2418   17.3653 N   0  0  0  0  0  0  0  0  0  0  0  0
    4.7343    1.0270   17.5781 C   0  0  0  0  0  0  0  0  0  0  0  0
    4.2866    1.4179   18.8676 C   0  0  0  0  0  0  0  0  0  0  0  0
    3.1698    2.2726   19.0470 C   0  0  0  0  0  0  0  0  0  0  0  0
    2.7668    2.6475   20.2998 C   0  0  0  0  0  0  0  0  0  0  0  0
    3.4652    2.1709   21.4328 C   0  0  0  0  0  0  0  0  0  0  0  0
    4.5465    1.3365   21.2862 C   0  0  0  0  0  0  0  0  0  0  0  0
    4.9929    0.9394   19.9981 C   0  0  0  0  0  0  0  0  0  0  0  0
    5.0624    0.9750   22.1689 H   0  0  0  0  0  0  0  0  0  0  0  0
    3.1369    2.4699   22.4243 H   0  0  0  0  0  0  0  0  0  0  0  0
    1.9207    3.3178   20.4302 H   0  0  0  0  0  0  0  0  0  0  0  0
    2.6557    2.6498   18.1664 H   0  0  0  0  0  0  0  0  0  0  0  0
    4.2013    1.3959   16.6991 H   0  0  0  0  0  0  0  0  0  0  0  0
    7.2737   -0.8570   18.2400 H   0  0  0  0  0  0  0  0  0  0  0  0
    6.3373   -0.8225   21.7239 H   0  0  0  0  0  0  0  0  0  0  0  0
    7.5867   -1.2568   20.5338 H   0  0  0  0  0  0  0  0  0  0  0  0
    7.7582    0.3049   23.8678 C   0  0  0  0  0  0  0  0  0  0  0  0
    6.7787    0.7699   24.9344 C   0  0  0  0  0  0  0  0  0  0  0  0
    5.7574    0.6147   24.5702 H   0  0  0  0  0  0  0  0  0  0  0  0
    6.8848    0.1586   25.8375 H   0  0  0  0  0  0  0  0  0  0  0  0
    7.5568   -0.7218   23.5680 H   0  0  0  0  0  0  0  0  0  0  0  0
    8.7750    0.3093   24.2993 H   0  0  0  0  0  0  0  0  0  0  0  0
    8.9321    2.7877   23.2701 H   0  0  0  0  0  0  0  0  0  0  0  0
    7.7606    3.1061   22.0018 H   0  0  0  0  0  0  0  0  0  0  0  0
    5.8989    3.0357   23.5820 H   0  0  0  0  0  0  0  0  0  0  0  0
    7.1059    4.1286   24.2245 H   0  0  0  0  0  0  0  0  0  0  0  0
    7.9818    2.3605   25.6982 H   0  0  0  0  0  0  0  0  0  0  0  0
    4.9388    2.6177   25.9241 H   0  0  0  0  0  0  0  0  0  0  0  0
    6.1102    3.7727   26.5691 H   0  0  0  0  0  0  0  0  0  0  0  0
    6.0215    2.1292   27.2313 H   0  0  0  0  0  0  0  0  0  0  0  0
  1  2  1  0
  2  3  1  0
  3  4  1  0
  4  5  1  0
  5  6  1  0
  6  7  2  0
  6  8  1  0
  8  9  1  0
  9 10  2  0
 10 11  1  0
 11 12  2  0
 12 13  1  0
 13 14  2  0
 14 15  1  0
 15 16  2  0
 16 17  1  0
 17 18  2  0
 17 19  1  0
 16 20  1  0
 15 21  1  0
 14 22  1  0
 12 23  1  0
 10 24  1  0
  8 25  1  0
  8 26  1  0
  5 27  1  0
 27 28  1  0
 28 29  1  0
 28 30  1  0
 27 31  1  0
 27 32  1  0
  4 33  1  0
  4 34  1  0
  3 35  1  0
  3 36  1  0
  2 37  1  0
  1 38  1  0
  1 39  1  0
  1 40  1  0
 28  2  1  0
 18  9  1  0
 18 13  1  0
M  END
>  <cnnaffinities>  (79) 
[4.72427, 4.72406, 4.61243, 4.61227, 4.55154, 4.55354, 5.32737, 5.32672]

>  <score>  (79) 
4.72427

>  <index>  (79) 
79

>  <Smiles>  (79) 
C(C1(C(C(N(C(=O)C(c2c(nc(c3c(c(c(c(c23)[H])[H])[H])[H])[H])[H])([H])[H])C(C1([H])[H])([H])[H])([H])[H])([H])[H])[H])([H])([H])[H]

>  <h>  (79) 
<NA>

>  <Training>  (79) 
True

>  <Success>  (79) 
True

>  <enamine_searched>  (79) 
False

>  <enamine_id>  (79) 
nan

$$$$

     RDKit          3D

 59 64  0  0  0  0  0  0  0  0999 V2000
    7.3850   -2.6034   23.7679 C   0  0  0  0  0  0  0  0  0  0  0  0
    7.8003   -1.8260   22.5080 C   0  0  1  0  0  0  0  0  0  0  0  0
    6.6188   -1.6507   21.5270 C   0  0  0  0  0  0  0  0  0  0  0  0
    6.9298   -0.4192   20.8299 N   0  0  0  0  0  0  0  0  0  0  0  0
    6.1431    0.1027   19.7640 C   0  0  0  0  0  0  0  0  0  0  0  0
    6.4514   -0.2168   18.4654 C   0  0  0  0  0  0  0  0  0  0  0  0
    5.7653    0.2244   17.3815 N   0  0  0  0  0  0  0  0  0  0  0  0
    4.7415    1.0159   17.5917 C   0  0  0  0  0  0  0  0  0  0  0  0
    4.2930    1.4117   18.8839 C   0  0  0  0  0  0  0  0  0  0  0  0
    3.1703    2.2641   19.0624 C   0  0  0  0  0  0  0  0  0  0  0  0
    2.7617    2.6284   20.3169 C   0  0  0  0  0  0  0  0  0  0  0  0
    3.4536    2.1447   21.4519 C   0  0  0  0  0  0  0  0  0  0  0  0
    4.5440    1.3176   21.3021 C   0  0  0  0  0  0  0  0  0  0  0  0
    5.0049    0.9393   20.0096 C   0  0  0  0  0  0  0  0  0  0  0  0
    5.0643    0.9596   22.1845 H   0  0  0  0  0  0  0  0  0  0  0  0
    3.1282    2.4391   22.4434 H   0  0  0  0  0  0  0  0  0  0  0  0
    1.9167    3.2983   20.4482 H   0  0  0  0  0  0  0  0  0  0  0  0
    2.6617    2.6437   18.1811 H   0  0  0  0  0  0  0  0  0  0  0  0
    4.2157    1.3831   16.7117 H   0  0  0  0  0  0  0  0  0  0  0  0
    7.2925   -0.8708   18.2485 H   0  0  0  0  0  0  0  0  0  0  0  0
    7.9009    0.3408   21.4409 C   0  0  0  0  0  0  0  0  0  0  0  0
    8.2913    1.4091   21.0119 O   0  0  0  0  0  0  0  0  0  0  0  0
    8.3980   -0.3925   22.7126 C   0  0  1  0  0  0  0  0  0  0  0  0
    7.8273    0.2685   23.9945 C   0  0  0  0  0  0  0  0  0  0  0  0
    8.4180    1.5667   24.2623 N   0  0  0  0  0  0  0  0  0  0  0  0
    7.6123    2.6426   24.8307 C   0  0  0  0  0  0  0  0  0  0  0  0
    7.5152    3.8379   23.9295 C   0  0  0  0  0  0  0  0  0  0  0  0
    6.9785    3.9194   22.6634 C   0  0  0  0  0  0  0  0  0  0  0  0
    7.1562    5.2589   22.2776 C   0  0  0  0  0  0  0  0  0  0  0  0
    7.7303    5.9607   23.2517 N   0  0  0  0  0  0  0  0  0  0  0  0
    7.9306    5.0873   24.2468 N   0  0  0  0  0  0  0  0  0  0  0  0
    8.5000    5.5370   25.5047 C   0  0  0  0  0  0  0  0  0  0  0  0
    9.3981    4.9526   25.7250 H   0  0  0  0  0  0  0  0  0  0  0  0
    8.7352    6.5967   25.3787 H   0  0  0  0  0  0  0  0  0  0  0  0
    7.7703    5.4210   26.3165 H   0  0  0  0  0  0  0  0  0  0  0  0
    6.9066    5.7442   21.3413 H   0  0  0  0  0  0  0  0  0  0  0  0
    6.5608    3.0952   22.1070 H   0  0  0  0  0  0  0  0  0  0  0  0
    7.9928    2.9105   25.8259 H   0  0  0  0  0  0  0  0  0  0  0  0
    6.6073    2.2331   24.9610 H   0  0  0  0  0  0  0  0  0  0  0  0
    9.7722    1.7362   24.2513 C   0  0  0  0  0  0  0  0  0  0  0  0
   10.2981    2.7027   24.7934 O   0  0  0  0  0  0  0  0  0  0  0  0
   10.5569    0.6882   23.5136 C   0  0  0  0  0  0  0  0  0  0  0  0
   11.9504    0.7700   23.5403 C   0  0  0  0  0  0  0  0  0  0  0  0
   12.7233   -0.0859   22.7810 C   0  0  0  0  0  0  0  0  0  0  0  0
   12.0708   -1.0045   21.9687 C   0  0  0  0  0  0  0  0  0  0  0  0
   12.8100   -1.8057   21.1826 F   0  0  0  0  0  0  0  0  0  0  0  0
   10.6963   -1.1183   21.9302 C   0  0  0  0  0  0  0  0  0  0  0  0
    9.9130   -0.3079   22.7619 C   0  0  0  0  0  0  0  0  0  0  0  0
   10.2681   -1.8196   21.2211 H   0  0  0  0  0  0  0  0  0  0  0  0
   13.8065   -0.0475   22.7783 H   0  0  0  0  0  0  0  0  0  0  0  0
   12.4057    1.5336   24.1569 H   0  0  0  0  0  0  0  0  0  0  0  0
    7.9911   -0.4086   24.8501 H   0  0  0  0  0  0  0  0  0  0  0  0
    6.7497    0.4032   23.8556 H   0  0  0  0  0  0  0  0  0  0  0  0
    6.5309   -2.4791   20.8132 H   0  0  0  0  0  0  0  0  0  0  0  0
    5.6564   -1.5871   22.0646 H   0  0  0  0  0  0  0  0  0  0  0  0
    8.5697   -2.4109   21.9956 H   0  0  0  0  0  0  0  0  0  0  0  0
    6.5497   -2.1110   24.2877 H   0  0  0  0  0  0  0  0  0  0  0  0
    8.2112   -2.6950   24.4847 H   0  0  0  0  0  0  0  0  0  0  0  0
    7.0519   -3.6204   23.5125 H   0  0  0  0  0  0  0  0  0  0  0  0
  1  2  1  0
  2  3  1  0
  3  4  1  0
  4  5  1  0
  5  6  2  0
  6  7  1  0
  7  8  2  0
  8  9  1  0
  9 10  2  0
 10 11  1  0
 11 12  2  0
 12 13  1  0
 13 14  2  0
 13 15  1  0
 12 16  1  0
 11 17  1  0
 10 18  1  0
  8 19  1  0
  6 20  1  0
  4 21  1  0
 21 22  2  0
 21 23  1  0
 23 24  1  1
 24 25  1  0
 25 26  1  0
 26 27  1  0
 27 28  2  0
 28 29  1  0
 29 30  2  0
 30 31  1  0
 31 32  1  0
 32 33  1  0
 32 34  1  0
 32 35  1  0
 29 36  1  0
 28 37  1  0
 26 38  1  0
 26 39  1  0
 25 40  1  0
 40 41  2  0
 40 42  1  0
 42 43  2  0
 43 44  1  0
 44 45  2  0
 45 46  1  0
 45 47  1  0
 47 48  2  0
 47 49  1  0
 44 50  1  0
 43 51  1  0
 24 52  1  0
 24 53  1  0
  3 54  1  0
  3 55  1  0
  2 56  1  6
  1 57  1  0
  1 58  1  0
  1 59  1  0
 23  2  1  0
 31 27  1  0
 48 42  1  0
 14  5  1  0
 48 23  1  0
 14  9  1  0
M  END
>  <cnnaffinities>  (80) 
[6.93933, 6.83943]

>  <score>  (80) 
6.93933

>  <index>  (80) 
80

>  <Smiles>  (80) 
C([C@]1(C(N(c2c(nc(c3c(c(c(c(c23)[H])[H])[H])[H])[H])[H])C(=O)[C@]21C(N(C(c1c(c(nn1C([H])([H])[H])[H])[H])([H])[H])C(=O)c1c(c(c(F)c(c21)[H])[H])[H])([H])[H])([H])[H])[H])([H])([H])[H]

>  <h>  (80) 
<NA>

>  <Training>  (80) 
True

>  <Success>  (80) 
True

>  <enamine_searched>  (80) 
False

>  <enamine_id>  (80) 
nan

$$$$

     RDKit          3D

 58 63  0  0  0  0  0  0  0  0999 V2000
    4.7639   -5.1878   26.8430 C   0  0  0  0  0  0  0  0  0  0  0  0
    5.7920   -4.1074   26.8774 C   0  0  0  0  0  0  0  0  0  0  0  0
    5.6748   -2.8671   26.5295 N   0  0  0  0  0  0  0  0  0  0  0  0
    6.9322   -2.3173   26.7524 C   0  0  0  0  0  0  0  0  0  0  0  0
    7.1831   -0.8659   26.5010 C   0  0  0  0  0  0  0  0  0  0  0  0
    8.0213   -0.5892   25.3477 N   0  0  0  0  0  0  0  0  0  0  0  0
    7.4322   -0.1059   24.1078 C   0  0  0  0  0  0  0  0  0  0  0  0
    8.2380   -0.4743   22.8400 C   0  0  2  0  0  0  0  0  0  0  0  0
    7.6799    0.3983   21.6957 C   0  0  0  0  0  0  0  0  0  0  0  0
    7.8153    1.5951   21.5557 O   0  0  0  0  0  0  0  0  0  0  0  0
    6.9513   -0.4035   20.8440 N   0  0  0  0  0  0  0  0  0  0  0  0
    6.1565    0.1119   19.7907 C   0  0  0  0  0  0  0  0  0  0  0  0
    6.4535   -0.2329   18.4967 C   0  0  0  0  0  0  0  0  0  0  0  0
    5.7869    0.2078   17.4023 N   0  0  0  0  0  0  0  0  0  0  0  0
    4.7642    1.0045   17.6050 C   0  0  0  0  0  0  0  0  0  0  0  0
    4.3124    1.3984   18.8960 C   0  0  0  0  0  0  0  0  0  0  0  0
    3.1806    2.2410   19.0540 C   0  0  0  0  0  0  0  0  0  0  0  0
    2.7472    2.5927   20.3025 C   0  0  0  0  0  0  0  0  0  0  0  0
    3.4149    2.1081   21.4481 C   0  0  0  0  0  0  0  0  0  0  0  0
    4.5127    1.2949   21.3212 C   0  0  0  0  0  0  0  0  0  0  0  0
    5.0079    0.9339   20.0344 C   0  0  0  0  0  0  0  0  0  0  0  0
    5.0154    0.9348   22.2126 H   0  0  0  0  0  0  0  0  0  0  0  0
    3.0558    2.3852   22.4345 H   0  0  0  0  0  0  0  0  0  0  0  0
    1.8883    3.2462   20.4188 H   0  0  0  0  0  0  0  0  0  0  0  0
    2.6818    2.6118   18.1630 H   0  0  0  0  0  0  0  0  0  0  0  0
    4.2245    1.3671   16.7281 H   0  0  0  0  0  0  0  0  0  0  0  0
    7.2998   -0.8877   18.2982 H   0  0  0  0  0  0  0  0  0  0  0  0
    6.8694   -1.7876   21.2598 C   0  0  0  0  0  0  0  0  0  0  0  0
    7.9997   -1.9265   22.2866 C   0  0  2  0  0  0  0  0  0  0  0  0
    7.7375   -3.0133   23.3206 C   0  0  0  0  0  0  0  0  0  0  0  0
    6.7849   -2.8471   23.8347 H   0  0  0  0  0  0  0  0  0  0  0  0
    8.5237   -3.0286   24.0814 H   0  0  0  0  0  0  0  0  0  0  0  0
    7.6949   -3.9943   22.8372 H   0  0  0  0  0  0  0  0  0  0  0  0
    8.9177   -2.1780   21.7347 H   0  0  0  0  0  0  0  0  0  0  0  0
    6.9977   -2.4382   20.3953 H   0  0  0  0  0  0  0  0  0  0  0  0
    5.8853   -2.0292   21.6915 H   0  0  0  0  0  0  0  0  0  0  0  0
    9.7008   -0.1974   23.1271 C   0  0  0  0  0  0  0  0  0  0  0  0
   10.5973    0.0190   22.0817 C   0  0  0  0  0  0  0  0  0  0  0  0
   11.9478    0.1258   22.3667 C   0  0  0  0  0  0  0  0  0  0  0  0
   12.8343    0.1820   21.3733 F   0  0  0  0  0  0  0  0  0  0  0  0
   12.4741    0.1197   23.6476 C   0  0  0  0  0  0  0  0  0  0  0  0
   11.5848   -0.1002   24.6743 C   0  0  0  0  0  0  0  0  0  0  0  0
   10.2238   -0.2710   24.4205 C   0  0  0  0  0  0  0  0  0  0  0  0
    9.3655   -0.6197   25.5754 C   0  0  0  0  0  0  0  0  0  0  0  0
    9.8331   -0.9420   26.6627 O   0  0  0  0  0  0  0  0  0  0  0  0
   11.9326   -0.1803   25.6929 H   0  0  0  0  0  0  0  0  0  0  0  0
   13.5437    0.2627   23.7929 H   0  0  0  0  0  0  0  0  0  0  0  0
   10.2208    0.0940   21.0699 H   0  0  0  0  0  0  0  0  0  0  0  0
    6.4203   -0.5134   24.0293 H   0  0  0  0  0  0  0  0  0  0  0  0
    7.3369    0.9871   24.1262 H   0  0  0  0  0  0  0  0  0  0  0  0
    7.6846   -0.4392   27.3743 H   0  0  0  0  0  0  0  0  0  0  0  0
    6.2225   -0.3707   26.3589 H   0  0  0  0  0  0  0  0  0  0  0  0
    7.7519   -3.2824   27.2308 C   0  0  0  0  0  0  0  0  0  0  0  0
    7.0260   -4.4374   27.3176 O   0  0  0  0  0  0  0  0  0  0  0  0
    8.7979   -3.3577   27.4867 H   0  0  0  0  0  0  0  0  0  0  0  0
    5.2105   -6.1212   27.1856 H   0  0  0  0  0  0  0  0  0  0  0  0
    3.9236   -4.9280   27.4922 H   0  0  0  0  0  0  0  0  0  0  0  0
    4.4128   -5.3109   25.8139 H   0  0  0  0  0  0  0  0  0  0  0  0
  1  2  1  0
  2  3  2  0
  3  4  1  0
  4  5  1  0
  5  6  1  0
  6  7  1  0
  8  7  1  1
  8  9  1  0
  9 10  2  0
  9 11  1  0
 11 12  1  0
 12 13  2  0
 13 14  1  0
 14 15  2  0
 15 16  1  0
 16 17  2  0
 17 18  1  0
 18 19  2  0
 19 20  1  0
 20 21  2  0
 20 22  1  0
 19 23  1  0
 18 24  1  0
 17 25  1  0
 15 26  1  0
 13 27  1  0
 11 28  1  0
 28 29  1  0
 29 30  1  0
 30 31  1  0
 30 32  1  0
 30 33  1  0
 29 34  1  6
 28 35  1  0
 28 36  1  0
  8 37  1  0
 37 38  2  0
 38 39  1  0
 39 40  1  0
 39 41  2  0
 41 42  1  0
 42 43  2  0
 43 44  1  0
 44 45  2  0
 42 46  1  0
 41 47  1  0
 38 48  1  0
  7 49  1  0
  7 50  1  0
  5 51  1  0
  5 52  1  0
  4 53  2  0
 53 54  1  0
 53 55  1  0
  1 56  1  0
  1 57  1  0
  1 58  1  0
 54  2  1  0
 44  6  1  0
 29  8  1  0
 43 37  1  0
 21 12  1  0
 21 16  1  0
M  END
>  <cnnaffinities>  (81) 
[6.3875, 6.47239, 6.37962]

>  <score>  (81) 
6.3875

>  <index>  (81) 
81

>  <Smiles>  (81) 
C(c1nc(C(N2C([C@@]3(C(=O)N(c4c(nc(c5c(c(c(c(c45)[H])[H])[H])[H])[H])[H])C([C@@]3(C([H])([H])[H])[H])([H])[H])c3c(c(F)c(c(c3C2=O)[H])[H])[H])([H])[H])([H])[H])c(o1)[H])([H])([H])[H]

>  <h>  (81) 
<NA>

>  <Training>  (81) 
True

>  <Success>  (81) 
True

>  <enamine_searched>  (81) 
False

>  <enamine_id>  (81) 
nan

$$$$

     RDKit          3D

 55 60  0  0  0  0  0  0  0  0999 V2000
    7.3935   -2.5939   23.7607 C   0  0  0  0  0  0  0  0  0  0  0  0
    7.8139   -1.8116   22.5066 C   0  0  1  0  0  0  0  0  0  0  0  0
    6.6496   -1.6566   21.5039 C   0  0  0  0  0  0  0  0  0  0  0  0
    6.9316   -0.4060   20.8266 N   0  0  0  0  0  0  0  0  0  0  0  0
    6.1415    0.1061   19.7597 C   0  0  0  0  0  0  0  0  0  0  0  0
    6.4522   -0.2186   18.4650 C   0  0  0  0  0  0  0  0  0  0  0  0
    5.7679    0.2215   17.3796 N   0  0  0  0  0  0  0  0  0  0  0  0
    4.7462    1.0141   17.5928 C   0  0  0  0  0  0  0  0  0  0  0  0
    4.2965    1.4160   18.8832 C   0  0  0  0  0  0  0  0  0  0  0  0
    3.1697    2.2653   19.0661 C   0  0  0  0  0  0  0  0  0  0  0  0
    2.7565    2.6175   20.3196 C   0  0  0  0  0  0  0  0  0  0  0  0
    3.4428    2.1272   21.4535 C   0  0  0  0  0  0  0  0  0  0  0  0
    4.5339    1.3042   21.3022 C   0  0  0  0  0  0  0  0  0  0  0  0
    5.0036    0.9393   20.0103 C   0  0  0  0  0  0  0  0  0  0  0  0
    5.0597    0.9453   22.1824 H   0  0  0  0  0  0  0  0  0  0  0  0
    3.1288    2.4320   22.4465 H   0  0  0  0  0  0  0  0  0  0  0  0
    1.9122    3.2910   20.4464 H   0  0  0  0  0  0  0  0  0  0  0  0
    2.6635    2.6442   18.1814 H   0  0  0  0  0  0  0  0  0  0  0  0
    4.2177    1.3795   16.7115 H   0  0  0  0  0  0  0  0  0  0  0  0
    7.2945   -0.8730   18.2499 H   0  0  0  0  0  0  0  0  0  0  0  0
    7.8486    0.3939   21.4723 C   0  0  0  0  0  0  0  0  0  0  0  0
    8.1549    1.5050   21.0986 O   0  0  0  0  0  0  0  0  0  0  0  0
    8.3811   -0.3670   22.7175 C   0  0  1  0  0  0  0  0  0  0  0  0
    7.8131    0.2701   24.0098 C   0  0  0  0  0  0  0  0  0  0  0  0
    8.3797    1.5770   24.2629 N   0  0  0  0  0  0  0  0  0  0  0  0
    7.5185    2.7081   24.5448 C   0  0  0  0  0  0  0  0  0  0  0  0
    7.3608    3.6112   23.3556 C   0  0  0  0  0  0  0  0  0  0  0  0
    8.1958    4.5057   22.9561 N   0  0  0  0  0  0  0  0  0  0  0  0
    7.5910    5.0745   21.8449 C   0  0  0  0  0  0  0  0  0  0  0  0
    6.4050    4.4685   21.6304 C   0  0  0  0  0  0  0  0  0  0  0  0
    6.2368    3.5316   22.6129 O   0  0  0  0  0  0  0  0  0  0  0  0
    5.6237    4.5435   20.8927 H   0  0  0  0  0  0  0  0  0  0  0  0
    8.0798    5.8881   21.3238 H   0  0  0  0  0  0  0  0  0  0  0  0
    7.9961    3.2793   25.3450 H   0  0  0  0  0  0  0  0  0  0  0  0
    6.5402    2.3442   24.8677 H   0  0  0  0  0  0  0  0  0  0  0  0
    9.7372    1.7602   24.2906 C   0  0  0  0  0  0  0  0  0  0  0  0
   10.2676    2.7098   24.8539 O   0  0  0  0  0  0  0  0  0  0  0  0
   10.5302    0.7307   23.5406 C   0  0  0  0  0  0  0  0  0  0  0  0
   11.9211    0.8370   23.5672 C   0  0  0  0  0  0  0  0  0  0  0  0
   12.6998    0.0037   22.7897 C   0  0  0  0  0  0  0  0  0  0  0  0
   12.0610   -0.9131   21.9635 C   0  0  0  0  0  0  0  0  0  0  0  0
   12.8097   -1.6894   21.1632 F   0  0  0  0  0  0  0  0  0  0  0  0
   10.6895   -1.0460   21.9260 C   0  0  0  0  0  0  0  0  0  0  0  0
    9.8971   -0.2545   22.7663 C   0  0  0  0  0  0  0  0  0  0  0  0
   10.2681   -1.7429   21.2098 H   0  0  0  0  0  0  0  0  0  0  0  0
   13.7803    0.0602   22.7854 H   0  0  0  0  0  0  0  0  0  0  0  0
   12.3543    1.6047   24.1997 H   0  0  0  0  0  0  0  0  0  0  0  0
    8.0164   -0.4029   24.8593 H   0  0  0  0  0  0  0  0  0  0  0  0
    6.7307    0.3905   23.8906 H   0  0  0  0  0  0  0  0  0  0  0  0
    5.6801   -1.6237   22.0279 H   0  0  0  0  0  0  0  0  0  0  0  0
    6.5986   -2.4784   20.7806 H   0  0  0  0  0  0  0  0  0  0  0  0
    8.6088   -2.3724   22.0106 H   0  0  0  0  0  0  0  0  0  0  0  0
    8.2087   -2.6816   24.4888 H   0  0  0  0  0  0  0  0  0  0  0  0
    6.5476   -2.1109   24.2669 H   0  0  0  0  0  0  0  0  0  0  0  0
    7.0738   -3.6094   23.4977 H   0  0  0  0  0  0  0  0  0  0  0  0
  1  2  1  0
  2  3  1  0
  3  4  1  0
  4  5  1  0
  5  6  2  0
  6  7  1  0
  7  8  2  0
  8  9  1  0
  9 10  2  0
 10 11  1  0
 11 12  2  0
 12 13  1  0
 13 14  2  0
 13 15  1  0
 12 16  1  0
 11 17  1  0
 10 18  1  0
  8 19  1  0
  6 20  1  0
  4 21  1  0
 21 22  2  0
 21 23  1  0
 23 24  1  1
 24 25  1  0
 25 26  1  0
 26 27  1  0
 27 28  2  0
 28 29  1  0
 29 30  2  0
 30 31  1  0
 30 32  1  0
 29 33  1  0
 26 34  1  0
 26 35  1  0
 25 36  1  0
 36 37  2  0
 36 38  1  0
 38 39  2  0
 39 40  1  0
 40 41  2  0
 41 42  1  0
 41 43  1  0
 43 44  2  0
 43 45  1  0
 40 46  1  0
 39 47  1  0
 24 48  1  0
 24 49  1  0
  3 50  1  0
  3 51  1  0
  2 52  1  6
  1 53  1  0
  1 54  1  0
  1 55  1  0
 23  2  1  0
 31 27  1  0
 44 38  1  0
 14  5  1  0
 44 23  1  0
 14  9  1  0
M  END
>  <cnnaffinities>  (82) 
[6.4952, 6.62085]

>  <score>  (82) 
6.4952

>  <index>  (82) 
82

>  <Smiles>  (82) 
C([C@]1(C(N(c2c(nc(c3c(c(c(c(c23)[H])[H])[H])[H])[H])[H])C(=O)[C@]21C(N(C(c1nc(c(o1)[H])[H])([H])[H])C(=O)c1c(c(c(F)c(c21)[H])[H])[H])([H])[H])([H])[H])[H])([H])([H])[H]

>  <h>  (82) 
<NA>

>  <Training>  (82) 
True

>  <Success>  (82) 
True

>  <enamine_searched>  (82) 
False

>  <enamine_id>  (82) 
nan

$$$$

     RDKit          3D

 72 77  0  0  0  0  0  0  0  0999 V2000
    9.5846    5.8565   23.8194 C   0  0  0  0  0  0  0  0  0  0  0  0
    8.4651    5.9853   22.7913 C   0  0  2  0  0  0  0  0  0  0  0  0
    7.7911    7.3490   22.8943 C   0  0  0  0  0  0  0  0  0  0  0  0
    7.0921    7.4912   24.1108 O   0  0  0  0  0  0  0  0  0  0  0  0
    6.0032    6.5975   24.1459 C   0  0  0  0  0  0  0  0  0  0  0  0
    6.4281    5.1288   24.0995 C   0  0  1  0  0  0  0  0  0  0  0  0
    5.1935    4.2463   23.9574 C   0  0  0  0  0  0  0  0  0  0  0  0
    4.6473    4.5092   23.0399 H   0  0  0  0  0  0  0  0  0  0  0  0
    4.5196    4.3952   24.8081 H   0  0  0  0  0  0  0  0  0  0  0  0
    5.4362    3.1806   23.9020 H   0  0  0  0  0  0  0  0  0  0  0  0
    7.3886    4.9104   22.9375 N   0  0  0  0  0  4  0  0  0  0  0  0
    7.9257    3.5119   22.7707 C   0  0  0  0  0  0  0  0  0  0  0  0
    8.3544    2.7883   24.0589 C   0  0  0  0  0  0  0  0  0  0  0  0
    9.0407    1.5402   23.7683 N   0  0  0  0  0  0  0  0  0  0  0  0
    8.2966    0.2999   23.7210 C   0  0  0  0  0  0  0  0  0  0  0  0
    8.6424   -0.5383   22.4645 C   0  0  2  0  0  0  0  0  0  0  0  0
    8.1117    0.1775   21.1972 C   0  0  0  0  0  0  0  0  0  0  0  0
    8.6150    1.1204   20.6230 O   0  0  0  0  0  0  0  0  0  0  0  0
    6.9315   -0.4199   20.8213 N   0  0  0  0  0  0  0  0  0  0  0  0
    6.1471    0.1041   19.7624 C   0  0  0  0  0  0  0  0  0  0  0  0
    6.4614   -0.2109   18.4616 C   0  0  0  0  0  0  0  0  0  0  0  0
    5.7726    0.2247   17.3789 N   0  0  0  0  0  0  0  0  0  0  0  0
    4.7436    1.0096   17.5954 C   0  0  0  0  0  0  0  0  0  0  0  0
    4.2973    1.4073   18.8896 C   0  0  0  0  0  0  0  0  0  0  0  0
    3.1726    2.2560   19.0651 C   0  0  0  0  0  0  0  0  0  0  0  0
    2.7707    2.6278   20.3198 C   0  0  0  0  0  0  0  0  0  0  0  0
    3.4755    2.1657   21.4533 C   0  0  0  0  0  0  0  0  0  0  0  0
    4.5730    1.3476   21.3113 C   0  0  0  0  0  0  0  0  0  0  0  0
    5.0131    0.9437   20.0177 C   0  0  0  0  0  0  0  0  0  0  0  0
    5.1070    1.0103   22.1948 H   0  0  0  0  0  0  0  0  0  0  0  0
    3.1628    2.4840   22.4442 H   0  0  0  0  0  0  0  0  0  0  0  0
    1.9246    3.2975   20.4463 H   0  0  0  0  0  0  0  0  0  0  0  0
    2.6624    2.6285   18.1819 H   0  0  0  0  0  0  0  0  0  0  0  0
    4.2100    1.3741   16.7192 H   0  0  0  0  0  0  0  0  0  0  0  0
    7.3069   -0.8620   18.2527 H   0  0  0  0  0  0  0  0  0  0  0  0
    6.5507   -1.5578   21.6370 C   0  0  0  0  0  0  0  0  0  0  0  0
    7.8312   -1.8767   22.4433 C   0  0  2  0  0  0  0  0  0  0  0  0
    7.5126   -2.5244   23.7988 C   0  0  0  0  0  0  0  0  0  0  0  0
    6.8360   -1.8947   24.3929 H   0  0  0  0  0  0  0  0  0  0  0  0
    7.0123   -3.4922   23.6653 H   0  0  0  0  0  0  0  0  0  0  0  0
    8.4145   -2.6972   24.3993 H   0  0  0  0  0  0  0  0  0  0  0  0
    8.4243   -2.5842   21.8557 H   0  0  0  0  0  0  0  0  0  0  0  0
    5.7059   -1.3139   22.3025 H   0  0  0  0  0  0  0  0  0  0  0  0
    6.2298   -2.3936   21.0029 H   0  0  0  0  0  0  0  0  0  0  0  0
   10.1556   -0.6524   22.3800 C   0  0  0  0  0  0  0  0  0  0  0  0
   10.7629   -1.6148   21.5566 C   0  0  0  0  0  0  0  0  0  0  0  0
   12.1434   -1.6265   21.4183 C   0  0  0  0  0  0  0  0  0  0  0  0
   12.9172   -2.6036   20.1997 Cl  0  0  0  0  0  0  0  0  0  0  0  0
   12.9595   -0.7541   22.1348 C   0  0  0  0  0  0  0  0  0  0  0  0
   12.3657    0.2269   22.8985 C   0  0  0  0  0  0  0  0  0  0  0  0
   10.9780    0.3103   22.9849 C   0  0  0  0  0  0  0  0  0  0  0  0
   10.3974    1.5406   23.6268 C   0  0  0  0  0  0  0  0  0  0  0  0
   11.0987    2.4918   23.9539 O   0  0  0  0  0  0  0  0  0  0  0  0
   12.9335    0.9878   23.4174 H   0  0  0  0  0  0  0  0  0  0  0  0
   14.0383   -0.8427   22.0785 H   0  0  0  0  0  0  0  0  0  0  0  0
   10.1868   -2.3584   21.0158 H   0  0  0  0  0  0  0  0  0  0  0  0
    8.5134   -0.3116   24.6122 H   0  0  0  0  0  0  0  0  0  0  0  0
    7.2315    0.5529   23.7077 H   0  0  0  0  0  0  0  0  0  0  0  0
    9.0418    3.3940   24.6513 H   0  0  0  0  0  0  0  0  0  0  0  0
    7.4768    2.5581   24.6752 H   0  0  0  0  0  0  0  0  0  0  0  0
    7.1621    2.9039   22.2669 H   0  0  0  0  0  0  0  0  0  0  0  0
    8.7874    3.5739   22.0963 H   0  0  0  0  0  0  0  0  0  0  0  0
    6.7891    5.0500   22.0971 H   0  0  0  0  0  0  0  0  0  0  0  0
    6.9648    4.9045   25.0263 H   0  0  0  0  0  0  0  0  0  0  0  0
    5.4686    6.8000   25.0800 H   0  0  0  0  0  0  0  0  0  0  0  0
    5.3200    6.8036   23.3005 H   0  0  0  0  0  0  0  0  0  0  0  0
    7.1014    7.4800   22.0439 H   0  0  0  0  0  0  0  0  0  0  0  0
    8.5347    8.1528   22.8698 H   0  0  0  0  0  0  0  0  0  0  0  0
    8.8746    5.8801   21.7777 H   0  0  0  0  0  0  0  0  0  0  0  0
   10.2374    6.7344   23.7639 H   0  0  0  0  0  0  0  0  0  0  0  0
    9.1655    5.8205   24.8308 H   0  0  0  0  0  0  0  0  0  0  0  0
   10.2007    4.9677   23.6456 H   0  0  0  0  0  0  0  0  0  0  0  0
  1  2  1  0
  2  3  1  0
  3  4  1  0
  4  5  1  0
  5  6  1  0
  6  7  1  0
  7  8  1  0
  7  9  1  0
  7 10  1  0
  6 11  1  0
 11 12  1  0
 12 13  1  0
 13 14  1  0
 14 15  1  0
 16 15  1  1
 16 17  1  0
 17 18  2  0
 17 19  1  0
 19 20  1  0
 20 21  2  0
 21 22  1  0
 22 23  2  0
 23 24  1  0
 24 25  2  0
 25 26  1  0
 26 27  2  0
 27 28  1  0
 28 29  2  0
 28 30  1  0
 27 31  1  0
 26 32  1  0
 25 33  1  0
 23 34  1  0
 21 35  1  0
 19 36  1  0
 36 37  1  0
 37 38  1  0
 38 39  1  0
 38 40  1  0
 38 41  1  0
 37 42  1  6
 36 43  1  0
 36 44  1  0
 16 45  1  0
 45 46  2  0
 46 47  1  0
 47 48  1  0
 47 49  2  0
 49 50  1  0
 50 51  2  0
 51 52  1  0
 52 53  2  0
 50 54  1  0
 49 55  1  0
 46 56  1  0
 15 57  1  0
 15 58  1  0
 13 59  1  0
 13 60  1  0
 12 61  1  0
 12 62  1  0
 11 63  1  0
  6 64  1  1
  5 65  1  0
  5 66  1  0
  3 67  1  0
  3 68  1  0
  2 69  1  6
  1 70  1  0
  1 71  1  0
  1 72  1  0
 11  2  1  0
 52 14  1  0
 37 16  1  0
 51 45  1  0
 29 20  1  0
 29 24  1  0
M  CHG  1  11   1
M  END
>  <cnnaffinities>  (83) 
[6.94579, 6.80215, 6.80901, 6.92665]

>  <score>  (83) 
6.94579

>  <index>  (83) 
83

>  <Smiles>  (83) 
C([C@@]1(C(OC([C@@](C([H])([H])[H])([N+]1(C(C(N1C([C@@]2(C(=O)N(c3c(nc(c4c(c(c(c(c34)[H])[H])[H])[H])[H])[H])C([C@@]2(C([H])([H])[H])[H])([H])[H])c2c(c(Cl)c(c(c2C1=O)[H])[H])[H])([H])[H])([H])[H])([H])[H])[H])[H])([H])[H])([H])[H])[H])([H])([H])[H]

>  <h>  (83) 
<NA>

>  <Training>  (83) 
True

>  <Success>  (83) 
True

>  <enamine_searched>  (83) 
False

>  <enamine_id>  (83) 
nan

$$$$

     RDKit          3D

 60 65  0  0  0  0  0  0  0  0999 V2000
    6.8194    1.9877   28.6337 C   0  0  0  0  0  0  0  0  0  0  0  0
    7.3975    1.9897   27.2891 N   0  0  0  0  0  0  0  0  0  0  0  0
    6.6965    2.4926   26.2403 C   0  0  0  0  0  0  0  0  0  0  0  0
    5.5754    2.9614   26.3697 O   0  0  0  0  0  0  0  0  0  0  0  0
    7.3704    2.5325   24.8668 C   0  0  0  0  0  0  0  0  0  0  0  0
    8.2390    1.4709   24.4559 N   0  0  0  0  0  0  0  0  0  0  0  0
    7.6442    0.2070   24.0635 C   0  0  0  0  0  0  0  0  0  0  0  0
    8.2762   -0.3955   22.7821 C   0  0  2  0  0  0  0  0  0  0  0  0
    7.7865    0.3705   21.5328 C   0  0  0  0  0  0  0  0  0  0  0  0
    8.0800    1.4987   21.2066 O   0  0  0  0  0  0  0  0  0  0  0  0
    6.9242   -0.4349   20.8214 N   0  0  0  0  0  0  0  0  0  0  0  0
    6.1355    0.0869   19.7615 C   0  0  0  0  0  0  0  0  0  0  0  0
    6.4486   -0.2326   18.4667 C   0  0  0  0  0  0  0  0  0  0  0  0
    5.7746    0.2185   17.3787 N   0  0  0  0  0  0  0  0  0  0  0  0
    4.7510    1.0107   17.5923 C   0  0  0  0  0  0  0  0  0  0  0  0
    4.3029    1.4042   18.8853 C   0  0  0  0  0  0  0  0  0  0  0  0
    3.1810    2.2561   19.0620 C   0  0  0  0  0  0  0  0  0  0  0  0
    2.7672    2.6152   20.3149 C   0  0  0  0  0  0  0  0  0  0  0  0
    3.4476    2.1253   21.4523 C   0  0  0  0  0  0  0  0  0  0  0  0
    4.5299    1.2913   21.3088 C   0  0  0  0  0  0  0  0  0  0  0  0
    5.0034    0.9242   20.0155 C   0  0  0  0  0  0  0  0  0  0  0  0
    5.0338    0.9133   22.1943 H   0  0  0  0  0  0  0  0  0  0  0  0
    3.1133    2.4167   22.4442 H   0  0  0  0  0  0  0  0  0  0  0  0
    1.9190    3.2816   20.4417 H   0  0  0  0  0  0  0  0  0  0  0  0
    2.6732    2.6326   18.1775 H   0  0  0  0  0  0  0  0  0  0  0  0
    4.2118    1.3790   16.7180 H   0  0  0  0  0  0  0  0  0  0  0  0
    7.2997   -0.8793   18.2613 H   0  0  0  0  0  0  0  0  0  0  0  0
    6.6305   -1.6960   21.4633 C   0  0  0  0  0  0  0  0  0  0  0  0
    7.7464   -1.8460   22.5127 C   0  0  2  0  0  0  0  0  0  0  0  0
    7.2807   -2.6614   23.7220 C   0  0  0  0  0  0  0  0  0  0  0  0
    6.4077   -2.1986   24.1984 H   0  0  0  0  0  0  0  0  0  0  0  0
    6.9832   -3.6707   23.4154 H   0  0  0  0  0  0  0  0  0  0  0  0
    8.0643   -2.7643   24.4812 H   0  0  0  0  0  0  0  0  0  0  0  0
    8.5669   -2.3961   22.0487 H   0  0  0  0  0  0  0  0  0  0  0  0
    5.6368   -1.6843   21.9416 H   0  0  0  0  0  0  0  0  0  0  0  0
    6.6307   -2.5053   20.7243 H   0  0  0  0  0  0  0  0  0  0  0  0
    9.7882   -0.2758   22.8802 C   0  0  0  0  0  0  0  0  0  0  0  0
   10.6059   -1.0153   22.0141 C   0  0  0  0  0  0  0  0  0  0  0  0
   11.9825   -0.9033   22.0897 C   0  0  0  0  0  0  0  0  0  0  0  0
   12.9715   -1.8480   21.0112 Cl  0  0  0  0  0  0  0  0  0  0  0  0
   12.5961   -0.0443   23.0018 C   0  0  0  0  0  0  0  0  0  0  0  0
   11.7954    0.7376   23.8101 C   0  0  0  0  0  0  0  0  0  0  0  0
   10.4038    0.6479   23.7390 C   0  0  0  0  0  0  0  0  0  0  0  0
    9.6045    1.6095   24.5588 C   0  0  0  0  0  0  0  0  0  0  0  0
   10.1195    2.4851   25.2423 O   0  0  0  0  0  0  0  0  0  0  0  0
   12.2245    1.4515   24.5032 H   0  0  0  0  0  0  0  0  0  0  0  0
   13.6783    0.0146   23.0475 H   0  0  0  0  0  0  0  0  0  0  0  0
   10.1835   -1.6720   21.2602 H   0  0  0  0  0  0  0  0  0  0  0  0
    6.5757    0.3715   23.9104 H   0  0  0  0  0  0  0  0  0  0  0  0
    7.7785   -0.5131   24.8793 H   0  0  0  0  0  0  0  0  0  0  0  0
    7.6040    3.9383   24.3677 C   0  0  0  0  0  0  0  0  0  0  0  0
    6.4629    3.1402   23.8268 C   0  0  0  0  0  0  0  0  0  0  0  0
    6.5447    2.7522   22.8155 H   0  0  0  0  0  0  0  0  0  0  0  0
    5.4759    3.3608   24.2242 H   0  0  0  0  0  0  0  0  0  0  0  0
    7.4079    4.7266   25.0918 H   0  0  0  0  0  0  0  0  0  0  0  0
    8.4652    4.0986   23.7213 H   0  0  0  0  0  0  0  0  0  0  0  0
    8.3637    1.7397   27.1232 H   0  0  0  0  0  0  0  0  0  0  0  0
    6.7644    0.9766   29.0415 H   0  0  0  0  0  0  0  0  0  0  0  0
    5.7902    2.3506   28.5551 H   0  0  0  0  0  0  0  0  0  0  0  0
    7.3929    2.6320   29.3151 H   0  0  0  0  0  0  0  0  0  0  0  0
  1  2  1  0
  2  3  1  0
  3  4  2  0
  3  5  1  0
  5  6  1  0
  6  7  1  0
  8  7  1  1
  8  9  1  0
  9 10  2  0
  9 11  1  0
 11 12  1  0
 12 13  2  0
 13 14  1  0
 14 15  2  0
 15 16  1  0
 16 17  2  0
 17 18  1  0
 18 19  2  0
 19 20  1  0
 20 21  2  0
 20 22  1  0
 19 23  1  0
 18 24  1  0
 17 25  1  0
 15 26  1  0
 13 27  1  0
 11 28  1  0
 28 29  1  0
 29 30  1  0
 30 31  1  0
 30 32  1  0
 30 33  1  0
 29 34  1  6
 28 35  1  0
 28 36  1  0
  8 37  1  0
 37 38  2  0
 38 39  1  0
 39 40  1  0
 39 41  2  0
 41 42  1  0
 42 43  2  0
 43 44  1  0
 44 45  2  0
 42 46  1  0
 41 47  1  0
 38 48  1  0
  7 49  1  0
  7 50  1  0
  5 51  1  0
 51 52  1  0
 52 53  1  0
 52 54  1  0
 51 55  1  0
 51 56  1  0
  2 57  1  0
  1 58  1  0
  1 59  1  0
  1 60  1  0
 52  5  1  0
 44  6  1  0
 29  8  1  0
 43 37  1  0
 21 12  1  0
 21 16  1  0
M  END
>  <cnnaffinities>  (84) 
[6.85369, 6.56053, 6.66559]

>  <score>  (84) 
6.85369

>  <index>  (84) 
84

>  <Smiles>  (84) 
C(N(C(=O)C1(N2C([C@@]3(C(=O)N(c4c(nc(c5c(c(c(c(c45)[H])[H])[H])[H])[H])[H])C([C@@]3(C([H])([H])[H])[H])([H])[H])c3c(c(Cl)c(c(c3C2=O)[H])[H])[H])([H])[H])C(C1([H])[H])([H])[H])[H])([H])([H])[H]

>  <h>  (84) 
<NA>

>  <Training>  (84) 
True

>  <Success>  (84) 
True

>  <enamine_searched>  (84) 
False

>  <enamine_id>  (84) 
nan

$$$$

     RDKit          3D

 55 60  0  0  0  0  0  0  0  0999 V2000
    7.3237   -2.5606   23.7851 C   0  0  0  0  0  0  0  0  0  0  0  0
    7.7600   -1.8477   22.4995 C   0  0  1  0  0  0  0  0  0  0  0  0
    6.5773   -1.6474   21.5332 C   0  0  0  0  0  0  0  0  0  0  0  0
    6.9089   -0.4350   20.8222 N   0  0  0  0  0  0  0  0  0  0  0  0
    6.1297    0.0903   19.7611 C   0  0  0  0  0  0  0  0  0  0  0  0
    6.4551   -0.2212   18.4684 C   0  0  0  0  0  0  0  0  0  0  0  0
    5.7807    0.2245   17.3789 N   0  0  0  0  0  0  0  0  0  0  0  0
    4.7514    1.0085   17.5926 C   0  0  0  0  0  0  0  0  0  0  0  0
    4.2991    1.4014   18.8847 C   0  0  0  0  0  0  0  0  0  0  0  0
    3.1726    2.2475   19.0595 C   0  0  0  0  0  0  0  0  0  0  0  0
    2.7550    2.6027   20.3109 C   0  0  0  0  0  0  0  0  0  0  0  0
    3.4431    2.1269   21.4506 C   0  0  0  0  0  0  0  0  0  0  0  0
    4.5374    1.3078   21.3095 C   0  0  0  0  0  0  0  0  0  0  0  0
    5.0002    0.9279   20.0171 C   0  0  0  0  0  0  0  0  0  0  0  0
    5.0640    0.9619   22.1959 H   0  0  0  0  0  0  0  0  0  0  0  0
    3.1028    2.4251   22.4396 H   0  0  0  0  0  0  0  0  0  0  0  0
    1.9057    3.2675   20.4410 H   0  0  0  0  0  0  0  0  0  0  0  0
    2.6655    2.6208   18.1738 H   0  0  0  0  0  0  0  0  0  0  0  0
    4.2099    1.3725   16.7171 H   0  0  0  0  0  0  0  0  0  0  0  0
    7.3129   -0.8611   18.2677 H   0  0  0  0  0  0  0  0  0  0  0  0
    7.9054    0.3129   21.4008 C   0  0  0  0  0  0  0  0  0  0  0  0
    8.2836    1.3799   20.9682 O   0  0  0  0  0  0  0  0  0  0  0  0
    8.4300   -0.4422   22.6476 C   0  0  1  0  0  0  0  0  0  0  0  0
    7.9658    0.2470   23.9474 C   0  0  0  0  0  0  0  0  0  0  0  0
    8.6588    1.4907   24.1967 N   0  0  0  0  0  0  0  0  0  0  0  0
    7.8797    2.6549   24.5493 C   0  0  0  0  0  0  0  0  0  0  0  0
    7.5360    3.5330   23.3816 C   0  0  0  0  0  0  0  0  0  0  0  0
    6.3617    3.7819   22.7614 C   0  0  0  0  0  0  0  0  0  0  0  0
    6.5272    4.8450   21.9287 O   0  0  0  0  0  0  0  0  0  0  0  0
    7.8267    5.1769   22.0782 C   0  0  0  0  0  0  0  0  0  0  0  0
    8.4722    4.4506   22.9219 N   0  0  0  0  0  0  0  0  0  0  0  0
    8.1833    6.0146   21.4982 H   0  0  0  0  0  0  0  0  0  0  0  0
    5.3674    3.3809   22.8543 H   0  0  0  0  0  0  0  0  0  0  0  0
    6.9827    2.3119   25.0846 H   0  0  0  0  0  0  0  0  0  0  0  0
    8.5037    3.2399   25.2300 H   0  0  0  0  0  0  0  0  0  0  0  0
   10.0229    1.5788   24.1540 C   0  0  0  0  0  0  0  0  0  0  0  0
   10.6547    2.4848   24.6864 O   0  0  0  0  0  0  0  0  0  0  0  0
   10.6927    0.4955   23.3735 C   0  0  0  0  0  0  0  0  0  0  0  0
   12.0870    0.5020   23.3418 C   0  0  0  0  0  0  0  0  0  0  0  0
   12.7687   -0.3873   22.5356 C   0  0  0  0  0  0  0  0  0  0  0  0
   12.0198   -1.2557   21.7469 C   0  0  0  0  0  0  0  0  0  0  0  0
   12.6668   -2.0935   20.9195 F   0  0  0  0  0  0  0  0  0  0  0  0
   10.6408   -1.2898   21.7714 C   0  0  0  0  0  0  0  0  0  0  0  0
    9.9480   -0.4368   22.6360 C   0  0  0  0  0  0  0  0  0  0  0  0
   10.1254   -1.9672   21.0989 H   0  0  0  0  0  0  0  0  0  0  0  0
   13.8511   -0.4108   22.4798 H   0  0  0  0  0  0  0  0  0  0  0  0
   12.5985    1.2404   23.9515 H   0  0  0  0  0  0  0  0  0  0  0  0
    8.1256   -0.4409   24.7886 H   0  0  0  0  0  0  0  0  0  0  0  0
    6.8962    0.4673   23.8759 H   0  0  0  0  0  0  0  0  0  0  0  0
    5.6284   -1.5428   22.0814 H   0  0  0  0  0  0  0  0  0  0  0  0
    6.4626   -2.4805   20.8329 H   0  0  0  0  0  0  0  0  0  0  0  0
    8.4937   -2.4876   22.0066 H   0  0  0  0  0  0  0  0  0  0  0  0
    8.1508   -2.6950   24.4922 H   0  0  0  0  0  0  0  0  0  0  0  0
    6.9204   -3.5542   23.5573 H   0  0  0  0  0  0  0  0  0  0  0  0
    6.5312   -2.0020   24.2990 H   0  0  0  0  0  0  0  0  0  0  0  0
  1  2  1  0
  2  3  1  0
  3  4  1  0
  4  5  1  0
  5  6  2  0
  6  7  1  0
  7  8  2  0
  8  9  1  0
  9 10  2  0
 10 11  1  0
 11 12  2  0
 12 13  1  0
 13 14  2  0
 13 15  1  0
 12 16  1  0
 11 17  1  0
 10 18  1  0
  8 19  1  0
  6 20  1  0
  4 21  1  0
 21 22  2  0
 21 23  1  0
 23 24  1  1
 24 25  1  0
 25 26  1  0
 26 27  1  0
 27 28  2  0
 28 29  1  0
 29 30  1  0
 30 31  2  0
 30 32  1  0
 28 33  1  0
 26 34  1  0
 26 35  1  0
 25 36  1  0
 36 37  2  0
 36 38  1  0
 38 39  2  0
 39 40  1  0
 40 41  2  0
 41 42  1  0
 41 43  1  0
 43 44  2  0
 43 45  1  0
 40 46  1  0
 39 47  1  0
 24 48  1  0
 24 49  1  0
  3 50  1  0
  3 51  1  0
  2 52  1  6
  1 53  1  0
  1 54  1  0
  1 55  1  0
 23  2  1  0
 31 27  1  0
 44 38  1  0
 14  5  1  0
 44 23  1  0
 14  9  1  0
M  END
>  <cnnaffinities>  (85) 
[6.37231, 6.2121]

>  <score>  (85) 
6.37231

>  <index>  (85) 
85

>  <Smiles>  (85) 
C([C@]1(C(N(c2c(nc(c3c(c(c(c(c23)[H])[H])[H])[H])[H])[H])C(=O)[C@]21C(N(C(c1c(oc(n1)[H])[H])([H])[H])C(=O)c1c(c(c(F)c(c21)[H])[H])[H])([H])[H])([H])[H])[H])([H])([H])[H]

>  <h>  (85) 
<NA>

>  <Training>  (85) 
True

>  <Success>  (85) 
True

>  <enamine_searched>  (85) 
False

>  <enamine_id>  (85) 
nan

$$$$

     RDKit          3D

 65 70  0  0  0  0  0  0  0  0999 V2000
    6.5640    4.3688   21.3733 C   0  0  0  0  0  0  0  0  0  0  0  0
    7.5525    3.9495   22.3569 N   0  0  0  0  0  0  0  0  0  0  0  0
    7.1036    3.2785   23.4579 C   0  0  0  0  0  0  0  0  0  0  0  0
    5.9123    3.0910   23.6589 O   0  0  0  0  0  0  0  0  0  0  0  0
    8.1522    2.7636   24.4478 C   0  0  0  0  0  0  0  0  0  0  0  0
    8.8278    1.5874   23.9287 N   0  0  0  0  0  0  0  0  0  0  0  0
    8.0886    0.3360   23.8107 C   0  0  0  0  0  0  0  0  0  0  0  0
    8.5225   -0.4778   22.5645 C   0  0  2  0  0  0  0  0  0  0  0  0
    8.0197    0.2301   21.2807 C   0  0  0  0  0  0  0  0  0  0  0  0
    8.4997    1.2055   20.7377 O   0  0  0  0  0  0  0  0  0  0  0  0
    6.9020   -0.4335   20.8342 N   0  0  0  0  0  0  0  0  0  0  0  0
    6.1333    0.0831   19.7651 C   0  0  0  0  0  0  0  0  0  0  0  0
    6.4856   -0.2092   18.4727 C   0  0  0  0  0  0  0  0  0  0  0  0
    5.8080    0.2213   17.3817 N   0  0  0  0  0  0  0  0  0  0  0  0
    4.7599    0.9831   17.5916 C   0  0  0  0  0  0  0  0  0  0  0  0
    4.2949    1.3752   18.8800 C   0  0  0  0  0  0  0  0  0  0  0  0
    3.1728    2.2272   19.0562 C   0  0  0  0  0  0  0  0  0  0  0  0
    2.7760    2.6075   20.3094 C   0  0  0  0  0  0  0  0  0  0  0  0
    3.4810    2.1581   21.4489 C   0  0  0  0  0  0  0  0  0  0  0  0
    4.5677    1.3270   21.3069 C   0  0  0  0  0  0  0  0  0  0  0  0
    5.0002    0.9139   20.0151 C   0  0  0  0  0  0  0  0  0  0  0  0
    5.1308    1.0252   22.1857 H   0  0  0  0  0  0  0  0  0  0  0  0
    3.1851    2.4931   22.4384 H   0  0  0  0  0  0  0  0  0  0  0  0
    1.9251    3.2717   20.4328 H   0  0  0  0  0  0  0  0  0  0  0  0
    2.6606    2.5915   18.1707 H   0  0  0  0  0  0  0  0  0  0  0  0
    4.2209    1.3382   16.7133 H   0  0  0  0  0  0  0  0  0  0  0  0
    7.3618   -0.8267   18.2871 H   0  0  0  0  0  0  0  0  0  0  0  0
    6.5199   -1.5854   21.6228 C   0  0  0  0  0  0  0  0  0  0  0  0
    7.7709   -1.8540   22.4757 C   0  0  2  0  0  0  0  0  0  0  0  0
    7.3963   -2.5650   23.7919 C   0  0  0  0  0  0  0  0  0  0  0  0
    6.9102   -3.9183   23.5644 N   0  0  0  0  0  0  0  0  0  0  0  0
    5.6244   -4.3260   23.6343 C   0  0  0  0  0  0  0  0  0  0  0  0
    4.7197   -3.5555   24.2711 N   0  0  0  0  0  0  0  0  0  0  0  0
    3.5217   -4.1138   24.3754 C   0  0  0  0  0  0  0  0  0  0  0  0
    3.1171   -5.2560   23.8261 N   0  0  0  0  0  0  0  0  0  0  0  0
    4.0919   -5.9030   23.1752 C   0  0  0  0  0  0  0  0  0  0  0  0
    5.3548   -5.5294   23.0764 N   0  0  0  0  0  0  0  0  0  0  0  0
    3.8219   -6.8424   22.6891 H   0  0  0  0  0  0  0  0  0  0  0  0
    2.7761   -3.5628   24.9523 H   0  0  0  0  0  0  0  0  0  0  0  0
    7.5296   -4.5771   23.1245 H   0  0  0  0  0  0  0  0  0  0  0  0
    6.5988   -2.0164   24.3007 H   0  0  0  0  0  0  0  0  0  0  0  0
    8.2645   -2.5848   24.4624 H   0  0  0  0  0  0  0  0  0  0  0  0
    8.4195   -2.5207   21.8986 H   0  0  0  0  0  0  0  0  0  0  0  0
    6.2536   -2.4299   20.9782 H   0  0  0  0  0  0  0  0  0  0  0  0
    5.6432   -1.3787   22.2572 H   0  0  0  0  0  0  0  0  0  0  0  0
   10.0432   -0.5159   22.5251 C   0  0  0  0  0  0  0  0  0  0  0  0
   10.7122   -1.3896   21.6598 C   0  0  0  0  0  0  0  0  0  0  0  0
   12.0929   -1.3531   21.5569 C   0  0  0  0  0  0  0  0  0  0  0  0
   12.8739   -2.3363   20.3500 Cl  0  0  0  0  0  0  0  0  0  0  0  0
   12.8639   -0.5007   22.3505 C   0  0  0  0  0  0  0  0  0  0  0  0
   12.2125    0.3887   23.1785 C   0  0  0  0  0  0  0  0  0  0  0  0
   10.8205    0.4292   23.2114 C   0  0  0  0  0  0  0  0  0  0  0  0
   10.1951    1.5896   23.9156 C   0  0  0  0  0  0  0  0  0  0  0  0
   10.8653    2.4910   24.4023 O   0  0  0  0  0  0  0  0  0  0  0  0
   12.7531    1.1030   23.7921 H   0  0  0  0  0  0  0  0  0  0  0  0
   13.9457   -0.5107   22.2878 H   0  0  0  0  0  0  0  0  0  0  0  0
   10.1679   -2.0837   21.0301 H   0  0  0  0  0  0  0  0  0  0  0  0
    8.2501   -0.2763   24.7085 H   0  0  0  0  0  0  0  0  0  0  0  0
    7.0222    0.5710   23.7502 H   0  0  0  0  0  0  0  0  0  0  0  0
    8.9356    3.5046   24.6412 H   0  0  0  0  0  0  0  0  0  0  0  0
    7.6491    2.5431   25.3997 H   0  0  0  0  0  0  0  0  0  0  0  0
    8.4778    3.7393   22.0081 H   0  0  0  0  0  0  0  0  0  0  0  0
    5.7606    4.9050   21.8872 H   0  0  0  0  0  0  0  0  0  0  0  0
    7.0299    5.0461   20.6538 H   0  0  0  0  0  0  0  0  0  0  0  0
    6.1335    3.4974   20.8561 H   0  0  0  0  0  0  0  0  0  0  0  0
  1  2  1  0
  2  3  1  0
  3  4  2  0
  3  5  1  0
  5  6  1  0
  6  7  1  0
  8  7  1  1
  8  9  1  0
  9 10  2  0
  9 11  1  0
 11 12  1  0
 12 13  2  0
 13 14  1  0
 14 15  2  0
 15 16  1  0
 16 17  2  0
 17 18  1  0
 18 19  2  0
 19 20  1  0
 20 21  2  0
 20 22  1  0
 19 23  1  0
 18 24  1  0
 17 25  1  0
 15 26  1  0
 13 27  1  0
 11 28  1  0
 28 29  1  0
 29 30  1  0
 30 31  1  0
 31 32  1  0
 32 33  2  0
 33 34  1  0
 34 35  2  0
 35 36  1  0
 36 37  2  0
 36 38  1  0
 34 39  1  0
 31 40  1  0
 30 41  1  0
 30 42  1  0
 29 43  1  6
 28 44  1  0
 28 45  1  0
  8 46  1  0
 46 47  2  0
 47 48  1  0
 48 49  1  0
 48 50  2  0
 50 51  1  0
 51 52  2  0
 52 53  1  0
 53 54  2  0
 51 55  1  0
 50 56  1  0
 47 57  1  0
  7 58  1  0
  7 59  1  0
  5 60  1  0
  5 61  1  0
  2 62  1  0
  1 63  1  0
  1 64  1  0
  1 65  1  0
 53  6  1  0
 29  8  1  0
 37 32  1  0
 52 46  1  0
 21 12  1  0
 21 16  1  0
M  END
>  <cnnaffinities>  (86) 
[6.5609]

>  <score>  (86) 
6.5609

>  <index>  (86) 
86

>  <Smiles>  (86) 
C(N(C(=O)C(N1C([C@@]2(C(=O)N(c3c(nc(c4c(c(c(c(c34)[H])[H])[H])[H])[H])[H])C([C@@]2(C(N(c2nc(nc(n2)[H])[H])[H])([H])[H])[H])([H])[H])c2c(c(Cl)c(c(c2C1=O)[H])[H])[H])([H])[H])([H])[H])[H])([H])([H])[H]

>  <h>  (86) 
<NA>

>  <Training>  (86) 
True

>  <Success>  (86) 
True

>  <enamine_searched>  (86) 
False

>  <enamine_id>  (86) 
nan

$$$$

     RDKit          3D

 63 68  0  0  0  0  0  0  0  0999 V2000
    6.6337    4.3730   21.3250 C   0  0  0  0  0  0  0  0  0  0  0  0
    7.6239    3.9929   22.3188 N   0  0  0  0  0  0  0  0  0  0  0  0
    7.1524    3.3169   23.4049 C   0  0  0  0  0  0  0  0  0  0  0  0
    5.9535    3.1364   23.5684 O   0  0  0  0  0  0  0  0  0  0  0  0
    8.1568    2.7921   24.4247 C   0  0  0  0  0  0  0  0  0  0  0  0
    8.8400    1.6132   23.9361 N   0  0  0  0  0  0  0  0  0  0  0  0
    8.1095    0.3616   23.8128 C   0  0  0  0  0  0  0  0  0  0  0  0
    8.5384   -0.4259   22.5503 C   0  0  2  0  0  0  0  0  0  0  0  0
    8.0292    0.2890   21.2737 C   0  0  0  0  0  0  0  0  0  0  0  0
    8.4874    1.2807   20.7416 O   0  0  0  0  0  0  0  0  0  0  0  0
    6.9291   -0.3987   20.8137 N   0  0  0  0  0  0  0  0  0  0  0  0
    6.1390    0.1012   19.7582 C   0  0  0  0  0  0  0  0  0  0  0  0
    6.4727   -0.2102   18.4671 C   0  0  0  0  0  0  0  0  0  0  0  0
    5.7942    0.2197   17.3773 N   0  0  0  0  0  0  0  0  0  0  0  0
    4.7563    0.9954   17.5907 C   0  0  0  0  0  0  0  0  0  0  0  0
    4.2979    1.3875   18.8818 C   0  0  0  0  0  0  0  0  0  0  0  0
    3.1796    2.2429   19.0598 C   0  0  0  0  0  0  0  0  0  0  0  0
    2.7826    2.6201   20.3139 C   0  0  0  0  0  0  0  0  0  0  0  0
    3.4800    2.1611   21.4538 C   0  0  0  0  0  0  0  0  0  0  0  0
    4.5643    1.3269   21.3100 C   0  0  0  0  0  0  0  0  0  0  0  0
    5.0020    0.9220   20.0166 C   0  0  0  0  0  0  0  0  0  0  0  0
    5.1172    1.0160   22.1917 H   0  0  0  0  0  0  0  0  0  0  0  0
    3.1754    2.4865   22.4436 H   0  0  0  0  0  0  0  0  0  0  0  0
    1.9314    3.2820   20.4378 H   0  0  0  0  0  0  0  0  0  0  0  0
    2.6683    2.6116   18.1753 H   0  0  0  0  0  0  0  0  0  0  0  0
    4.2148    1.3550   16.7152 H   0  0  0  0  0  0  0  0  0  0  0  0
    7.3384   -0.8422   18.2863 H   0  0  0  0  0  0  0  0  0  0  0  0
    6.5647   -1.5505   21.5966 C   0  0  0  0  0  0  0  0  0  0  0  0
    7.8088   -1.7962   22.4530 C   0  0  2  0  0  0  0  0  0  0  0  0
    7.4049   -2.5048   23.7532 C   0  0  0  0  0  0  0  0  0  0  0  0
    6.7639   -3.7716   23.4565 N   0  0  0  0  0  0  0  0  0  0  0  0
    5.4495   -4.0756   23.5215 C   0  0  0  0  0  0  0  0  0  0  0  0
    5.3067   -5.3461   23.0110 C   0  0  0  0  0  0  0  0  0  0  0  0
    6.6167   -5.7087   22.6196 C   0  0  0  0  0  0  0  0  0  0  0  0
    7.4892   -4.7499   22.9031 N   0  0  0  0  0  0  0  0  0  0  0  0
    6.9834   -6.6176   22.1629 H   0  0  0  0  0  0  0  0  0  0  0  0
    4.3898   -5.9125   22.9304 H   0  0  0  0  0  0  0  0  0  0  0  0
    4.7207   -3.3589   23.8889 H   0  0  0  0  0  0  0  0  0  0  0  0
    8.2674   -2.7128   24.3864 H   0  0  0  0  0  0  0  0  0  0  0  0
    6.6873   -1.8898   24.3081 H   0  0  0  0  0  0  0  0  0  0  0  0
    8.4762   -2.4716   21.9126 H   0  0  0  0  0  0  0  0  0  0  0  0
    5.6747   -1.3662   22.2246 H   0  0  0  0  0  0  0  0  0  0  0  0
    6.3335   -2.4096   20.9635 H   0  0  0  0  0  0  0  0  0  0  0  0
   10.0524   -0.4842   22.5227 C   0  0  0  0  0  0  0  0  0  0  0  0
   10.7224   -1.3675   21.6711 C   0  0  0  0  0  0  0  0  0  0  0  0
   12.1024   -1.3359   21.5774 C   0  0  0  0  0  0  0  0  0  0  0  0
   12.8671   -2.3325   20.3814 Cl  0  0  0  0  0  0  0  0  0  0  0  0
   12.8834   -0.4943   22.3703 C   0  0  0  0  0  0  0  0  0  0  0  0
   12.2221    0.4061   23.1773 C   0  0  0  0  0  0  0  0  0  0  0  0
   10.8307    0.4555   23.2086 C   0  0  0  0  0  0  0  0  0  0  0  0
   10.2057    1.6189   23.9095 C   0  0  0  0  0  0  0  0  0  0  0  0
   10.8730    2.5301   24.3823 O   0  0  0  0  0  0  0  0  0  0  0  0
   12.7560    1.1314   23.7768 H   0  0  0  0  0  0  0  0  0  0  0  0
   13.9692   -0.5233   22.3339 H   0  0  0  0  0  0  0  0  0  0  0  0
   10.1855   -2.0781   21.0545 H   0  0  0  0  0  0  0  0  0  0  0  0
    7.0385    0.5818   23.7744 H   0  0  0  0  0  0  0  0  0  0  0  0
    8.2909   -0.2646   24.6983 H   0  0  0  0  0  0  0  0  0  0  0  0
    8.9268    3.5274   24.6748 H   0  0  0  0  0  0  0  0  0  0  0  0
    7.5909    2.5540   25.3304 H   0  0  0  0  0  0  0  0  0  0  0  0
    8.5673    3.8409   21.9808 H   0  0  0  0  0  0  0  0  0  0  0  0
    5.8708    4.9943   21.8028 H   0  0  0  0  0  0  0  0  0  0  0  0
    7.1159    4.9733   20.5492 H   0  0  0  0  0  0  0  0  0  0  0  0
    6.1596    3.4789   20.8855 H   0  0  0  0  0  0  0  0  0  0  0  0
  1  2  1  0
  2  3  1  0
  3  4  2  0
  3  5  1  0
  5  6  1  0
  6  7  1  0
  8  7  1  1
  8  9  1  0
  9 10  2  0
  9 11  1  0
 11 12  1  0
 12 13  2  0
 13 14  1  0
 14 15  2  0
 15 16  1  0
 16 17  2  0
 17 18  1  0
 18 19  2  0
 19 20  1  0
 20 21  2  0
 20 22  1  0
 19 23  1  0
 18 24  1  0
 17 25  1  0
 15 26  1  0
 13 27  1  0
 11 28  1  0
 28 29  1  0
 29 30  1  0
 30 31  1  0
 31 32  1  0
 32 33  2  0
 33 34  1  0
 34 35  2  0
 34 36  1  0
 33 37  1  0
 32 38  1  0
 30 39  1  0
 30 40  1  0
 29 41  1  6
 28 42  1  0
 28 43  1  0
  8 44  1  0
 44 45  2  0
 45 46  1  0
 46 47  1  0
 46 48  2  0
 48 49  1  0
 49 50  2  0
 50 51  1  0
 51 52  2  0
 49 53  1  0
 48 54  1  0
 45 55  1  0
  7 56  1  0
  7 57  1  0
  5 58  1  0
  5 59  1  0
  2 60  1  0
  1 61  1  0
  1 62  1  0
  1 63  1  0
 51  6  1  0
 29  8  1  0
 35 31  1  0
 50 44  1  0
 21 12  1  0
 21 16  1  0
M  END
>  <cnnaffinities>  (87) 
[6.76873]

>  <score>  (87) 
6.76873

>  <index>  (87) 
87

>  <Smiles>  (87) 
C(N(C(=O)C(N1C([C@@]2(C(=O)N(c3c(nc(c4c(c(c(c(c34)[H])[H])[H])[H])[H])[H])C([C@@]2(C(n2c(c(c(n2)[H])[H])[H])([H])[H])[H])([H])[H])c2c(c(Cl)c(c(c2C1=O)[H])[H])[H])([H])[H])([H])[H])[H])([H])([H])[H]

>  <h>  (87) 
<NA>

>  <Training>  (87) 
True

>  <Success>  (87) 
True

>  <enamine_searched>  (87) 
False

>  <enamine_id>  (87) 
nan

$$$$

     RDKit          3D

 64 68  0  0  0  0  0  0  0  0999 V2000
    2.1984   -2.0293   26.9431 C   0  0  0  0  0  0  0  0  0  0  0  0
    2.9965   -2.9889   27.8426 C   0  0  0  0  0  0  0  0  0  0  0  0
    4.2248   -3.5026   27.0817 C   0  0  0  0  0  0  0  0  0  0  0  0
    5.2243   -2.7934   27.0616 O   0  0  0  0  0  0  0  0  0  0  0  0
    4.0956   -4.5978   26.2292 N   0  0  0  0  0  0  0  0  0  0  0  0
    3.1300   -5.6431   26.5725 C   0  0  0  0  0  0  0  0  0  0  0  0
    3.6081   -6.9994   26.0464 C   0  0  0  0  0  0  0  0  0  0  0  0
    3.7549   -6.9438   24.5194 C   0  0  0  0  0  0  0  0  0  0  0  0
    4.5528   -5.7290   24.0962 C   0  0  0  0  0  0  0  0  0  0  0  0
    5.1285   -5.7075   22.8190 C   0  0  0  0  0  0  0  0  0  0  0  0
    5.8079   -4.5698   22.3699 C   0  0  0  0  0  0  0  0  0  0  0  0
    5.9201   -3.4417   23.1944 C   0  0  0  0  0  0  0  0  0  0  0  0
    6.4833   -2.2524   22.7156 N   0  0  0  0  0  0  0  0  0  0  0  0
    7.2298   -1.3780   23.6212 C   0  0  0  0  0  0  0  0  0  0  0  0
    8.7010   -1.5454   23.3577 C   0  0  0  0  0  0  0  0  0  0  0  0
    9.3221   -2.7819   23.6210 C   0  0  0  0  0  0  0  0  0  0  0  0
   10.7007   -2.9403   23.4048 C   0  0  0  0  0  0  0  0  0  0  0  0
   11.4761   -1.8545   22.9855 C   0  0  0  0  0  0  0  0  0  0  0  0
   10.8627   -0.6125   22.7655 C   0  0  0  0  0  0  0  0  0  0  0  0
   11.8986    0.9129   22.3144 Br  0  0  0  0  0  0  0  0  0  0  0  0
    9.4788   -0.4747   22.9049 C   0  0  0  0  0  0  0  0  0  0  0  0
    9.0195    0.4804   22.6541 H   0  0  0  0  0  0  0  0  0  0  0  0
   12.5557   -1.9568   22.8762 H   0  0  0  0  0  0  0  0  0  0  0  0
   11.1715   -3.9053   23.5530 H   0  0  0  0  0  0  0  0  0  0  0  0
    8.7337   -3.6154   23.9965 H   0  0  0  0  0  0  0  0  0  0  0  0
    7.0336   -1.6234   24.6710 H   0  0  0  0  0  0  0  0  0  0  0  0
    6.9249   -0.3331   23.4845 H   0  0  0  0  0  0  0  0  0  0  0  0
    6.2400   -1.8551   21.4053 C   0  0  0  0  0  0  0  0  0  0  0  0
    5.4979   -2.5244   20.6864 O   0  0  0  0  0  0  0  0  0  0  0  0
    6.8786   -0.5721   20.8388 C   0  0  0  0  0  0  0  0  0  0  0  0
    6.0961    0.0355   19.6766 C   0  0  0  0  0  0  0  0  0  0  0  0
    6.4567   -0.2449   18.3438 C   0  0  0  0  0  0  0  0  0  0  0  0
    5.8005    0.2468   17.2762 N   0  0  0  0  0  0  0  0  0  0  0  0
    4.7438    1.0477   17.5054 C   0  0  0  0  0  0  0  0  0  0  0  0
    4.2940    1.3734   18.7914 C   0  0  0  0  0  0  0  0  0  0  0  0
    3.1854    2.2117   18.9883 C   0  0  0  0  0  0  0  0  0  0  0  0
    2.7698    2.5432   20.2815 C   0  0  0  0  0  0  0  0  0  0  0  0
    3.4463    2.0272   21.3889 C   0  0  0  0  0  0  0  0  0  0  0  0
    4.5414    1.1787   21.1961 C   0  0  0  0  0  0  0  0  0  0  0  0
    4.9823    0.8563   19.9029 C   0  0  0  0  0  0  0  0  0  0  0  0
    5.0598    0.7751   22.0588 H   0  0  0  0  0  0  0  0  0  0  0  0
    3.1303    2.2975   22.3933 H   0  0  0  0  0  0  0  0  0  0  0  0
    1.9306    3.2161   20.4248 H   0  0  0  0  0  0  0  0  0  0  0  0
    2.6523    2.6328   18.1414 H   0  0  0  0  0  0  0  0  0  0  0  0
    4.2181    1.4713   16.6535 H   0  0  0  0  0  0  0  0  0  0  0  0
    7.3039   -0.9010   18.1658 H   0  0  0  0  0  0  0  0  0  0  0  0
    7.8961   -0.8079   20.5195 H   0  0  0  0  0  0  0  0  0  0  0  0
    6.9625    0.1686   21.6401 H   0  0  0  0  0  0  0  0  0  0  0  0
    5.3747   -3.4848   24.4745 C   0  0  0  0  0  0  0  0  0  0  0  0
    4.6934   -4.6126   24.9512 C   0  0  0  0  0  0  0  0  0  0  0  0
    5.4322   -2.5956   25.0857 H   0  0  0  0  0  0  0  0  0  0  0  0
    6.2231   -4.5572   21.3673 H   0  0  0  0  0  0  0  0  0  0  0  0
    5.0153   -6.5769   22.1755 H   0  0  0  0  0  0  0  0  0  0  0  0
    4.2448   -7.8600   24.1684 H   0  0  0  0  0  0  0  0  0  0  0  0
    2.7648   -6.8945   24.0510 H   0  0  0  0  0  0  0  0  0  0  0  0
    2.8881   -7.7829   26.3115 H   0  0  0  0  0  0  0  0  0  0  0  0
    4.5710   -7.2429   26.5134 H   0  0  0  0  0  0  0  0  0  0  0  0
    3.0294   -5.7071   27.6647 H   0  0  0  0  0  0  0  0  0  0  0  0
    2.1540   -5.4031   26.1351 H   0  0  0  0  0  0  0  0  0  0  0  0
    2.3640   -3.8288   28.1456 H   0  0  0  0  0  0  0  0  0  0  0  0
    3.3196   -2.4693   28.7493 H   0  0  0  0  0  0  0  0  0  0  0  0
    1.3288   -1.6277   27.4749 H   0  0  0  0  0  0  0  0  0  0  0  0
    2.8280   -1.1882   26.6298 H   0  0  0  0  0  0  0  0  0  0  0  0
    1.8488   -2.5531   26.0452 H   0  0  0  0  0  0  0  0  0  0  0  0
  1  2  1  0
  2  3  1  0
  3  4  2  0
  3  5  1  0
  5  6  1  0
  6  7  1  0
  7  8  1  0
  8  9  1  0
  9 10  2  0
 10 11  1  0
 11 12  2  0
 12 13  1  0
 13 14  1  0
 14 15  1  0
 15 16  2  0
 16 17  1  0
 17 18  2  0
 18 19  1  0
 19 20  1  0
 19 21  2  0
 21 22  1  0
 18 23  1  0
 17 24  1  0
 16 25  1  0
 14 26  1  0
 14 27  1  0
 13 28  1  0
 28 29  2  0
 28 30  1  0
 30 31  1  0
 31 32  2  0
 32 33  1  0
 33 34  2  0
 34 35  1  0
 35 36  2  0
 36 37  1  0
 37 38  2  0
 38 39  1  0
 39 40  2  0
 39 41  1  0
 38 42  1  0
 37 43  1  0
 36 44  1  0
 34 45  1  0
 32 46  1  0
 30 47  1  0
 30 48  1  0
 12 49  1  0
 49 50  2  0
 49 51  1  0
 11 52  1  0
 10 53  1  0
  8 54  1  0
  8 55  1  0
  7 56  1  0
  7 57  1  0
  6 58  1  0
  6 59  1  0
  2 60  1  0
  2 61  1  0
  1 62  1  0
  1 63  1  0
  1 64  1  0
 50  5  1  0
 50  9  1  0
 21 15  1  0
 40 31  1  0
 40 35  1  0
M  END
>  <cnnaffinities>  (88) 
[6.00565]

>  <score>  (88) 
6.00565

>  <index>  (88) 
88

>  <Smiles>  (88) 
C(C(C(=O)N1C(C(C(c2c(c(c(N(C(c3c(c(c(c(Br)c3[H])[H])[H])[H])([H])[H])C(=O)C(c3c(nc(c4c(c(c(c(c34)[H])[H])[H])[H])[H])[H])([H])[H])c(c12)[H])[H])[H])([H])[H])([H])[H])([H])[H])([H])[H])([H])([H])[H]

>  <h>  (88) 
<NA>

>  <Training>  (88) 
True

>  <Success>  (88) 
True

>  <enamine_searched>  (88) 
False

>  <enamine_id>  (88) 
nan

$$$$

     RDKit          3D

 38 40  0  0  0  0  0  0  0  0999 V2000
    8.0578    1.6747   20.9652 O   0  0  0  0  0  0  0  0  0  0  0  0
    7.8868    0.6108   21.5301 C   0  0  0  0  0  0  0  0  0  0  0  0
    6.9511   -0.4558   20.9122 C   0  0  0  0  0  0  0  0  0  0  0  0
    6.1176    0.0869   19.7718 C   0  0  0  0  0  0  0  0  0  0  0  0
    6.4285   -0.2077   18.4702 C   0  0  0  0  0  0  0  0  0  0  0  0
    5.7644    0.2409   17.3696 N   0  0  0  0  0  0  0  0  0  0  0  0
    4.7361    1.0269   17.5781 C   0  0  0  0  0  0  0  0  0  0  0  0
    4.2894    1.4199   18.8677 C   0  0  0  0  0  0  0  0  0  0  0  0
    3.1678    2.2712   19.0451 C   0  0  0  0  0  0  0  0  0  0  0  0
    2.7655    2.6432   20.2993 C   0  0  0  0  0  0  0  0  0  0  0  0
    3.4670    2.1715   21.4311 C   0  0  0  0  0  0  0  0  0  0  0  0
    4.5539    1.3432   21.2872 C   0  0  0  0  0  0  0  0  0  0  0  0
    4.9984    0.9443   19.9990 C   0  0  0  0  0  0  0  0  0  0  0  0
    5.0844    0.9934   22.1673 H   0  0  0  0  0  0  0  0  0  0  0  0
    3.1422    2.4728   22.4226 H   0  0  0  0  0  0  0  0  0  0  0  0
    1.9148    3.3085   20.4335 H   0  0  0  0  0  0  0  0  0  0  0  0
    2.6481    2.6457   18.1657 H   0  0  0  0  0  0  0  0  0  0  0  0
    4.2004    1.3964   16.7002 H   0  0  0  0  0  0  0  0  0  0  0  0
    7.2743   -0.8560   18.2448 H   0  0  0  0  0  0  0  0  0  0  0  0
    6.2991   -0.8842   21.6867 H   0  0  0  0  0  0  0  0  0  0  0  0
    7.5685   -1.2874   20.5388 H   0  0  0  0  0  0  0  0  0  0  0  0
    8.4987    0.3261   22.7408 N   0  0  0  0  0  0  0  0  0  0  0  0
    8.8164   -1.0454   23.1440 C   0  0  0  0  0  0  0  0  0  0  0  0
    9.9944   -1.6541   22.4089 C   0  0  0  0  0  0  0  0  0  0  0  0
   11.2168   -1.1281   22.4431 C   0  0  0  0  0  0  0  0  0  0  0  0
   11.5862    0.1025   23.2417 C   0  0  0  0  0  0  0  0  0  0  0  0
   10.8028    1.3672   22.8533 C   0  0  0  0  0  0  0  0  0  0  0  0
    9.3463    1.3711   23.3234 C   0  0  0  0  0  0  0  0  0  0  0  0
    9.3355    1.2321   24.4093 H   0  0  0  0  0  0  0  0  0  0  0  0
    8.8842    2.3375   23.1148 H   0  0  0  0  0  0  0  0  0  0  0  0
   10.8167    1.4894   21.7675 H   0  0  0  0  0  0  0  0  0  0  0  0
   11.3142    2.2484   23.2700 H   0  0  0  0  0  0  0  0  0  0  0  0
   12.6585    0.2955   23.1286 H   0  0  0  0  0  0  0  0  0  0  0  0
   11.4262   -0.0890   24.3131 H   0  0  0  0  0  0  0  0  0  0  0  0
   11.9956   -1.5789   21.8290 H   0  0  0  0  0  0  0  0  0  0  0  0
    9.8119   -2.5478   21.8089 H   0  0  0  0  0  0  0  0  0  0  0  0
    9.0344   -1.0183   24.2170 H   0  0  0  0  0  0  0  0  0  0  0  0
    7.9271   -1.6680   23.0336 H   0  0  0  0  0  0  0  0  0  0  0  0
  1  2  2  0
  2  3  1  0
  3  4  1  0
  4  5  2  0
  5  6  1  0
  6  7  2  0
  7  8  1  0
  8  9  2  0
  9 10  1  0
 10 11  2  0
 11 12  1  0
 12 13  2  0
 12 14  1  0
 11 15  1  0
 10 16  1  0
  9 17  1  0
  7 18  1  0
  5 19  1  0
  3 20  1  0
  3 21  1  0
  2 22  1  0
 22 23  1  0
 23 24  1  0
 24 25  2  0
 25 26  1  0
 26 27  1  0
 27 28  1  0
 28 29  1  0
 28 30  1  0
 27 31  1  0
 27 32  1  0
 26 33  1  0
 26 34  1  0
 25 35  1  0
 24 36  1  0
 23 37  1  0
 23 38  1  0
 13  4  1  0
 28 22  1  0
 13  8  1  0
M  END
>  <cnnaffinities>  (89) 
[5.52389, 5.11191, 4.40877]

>  <score>  (89) 
5.52389

>  <index>  (89) 
89

>  <Smiles>  (89) 
O=C(C(c1c(nc(c2c(c(c(c(c12)[H])[H])[H])[H])[H])[H])([H])[H])N1C(C(=C(C(C(C1([H])[H])([H])[H])([H])[H])[H])[H])([H])[H]

>  <h>  (89) 
<NA>

>  <Training>  (89) 
True

>  <Success>  (89) 
True

>  <enamine_searched>  (89) 
False

>  <enamine_id>  (89) 
nan

$$$$

     RDKit          3D

 62 67  0  0  0  0  0  0  0  0999 V2000
    7.5586   -2.7225   23.6094 C   0  0  0  0  0  0  0  0  0  0  0  0
    7.9375   -1.8266   22.4247 C   0  0  1  0  0  0  0  0  0  0  0  0
    6.7901   -1.7056   21.4019 C   0  0  0  0  0  0  0  0  0  0  0  0
    6.9567   -0.3822   20.8340 N   0  0  0  0  0  0  0  0  0  0  0  0
    6.1513    0.1174   19.7681 C   0  0  0  0  0  0  0  0  0  0  0  0
    6.4411   -0.2197   18.4725 C   0  0  0  0  0  0  0  0  0  0  0  0
    5.7601    0.2249   17.3843 N   0  0  0  0  0  0  0  0  0  0  0  0
    4.7402    1.0236   17.5869 C   0  0  0  0  0  0  0  0  0  0  0  0
    4.2925    1.4171   18.8786 C   0  0  0  0  0  0  0  0  0  0  0  0
    3.1689    2.2704   19.0609 C   0  0  0  0  0  0  0  0  0  0  0  0
    2.7614    2.6254   20.3168 C   0  0  0  0  0  0  0  0  0  0  0  0
    3.4432    2.1305   21.4512 C   0  0  0  0  0  0  0  0  0  0  0  0
    4.5253    1.2977   21.2991 C   0  0  0  0  0  0  0  0  0  0  0  0
    5.0011    0.9400   20.0090 C   0  0  0  0  0  0  0  0  0  0  0  0
    5.0362    0.9035   22.1715 H   0  0  0  0  0  0  0  0  0  0  0  0
    3.1112    2.4123   22.4463 H   0  0  0  0  0  0  0  0  0  0  0  0
    1.9128    3.2923   20.4531 H   0  0  0  0  0  0  0  0  0  0  0  0
    2.6553    2.6558   18.1824 H   0  0  0  0  0  0  0  0  0  0  0  0
    4.2084    1.3924   16.7046 H   0  0  0  0  0  0  0  0  0  0  0  0
    7.2860   -0.8711   18.2526 H   0  0  0  0  0  0  0  0  0  0  0  0
    7.7920    0.4343   21.5596 C   0  0  0  0  0  0  0  0  0  0  0  0
    8.0059    1.6026   21.2998 O   0  0  0  0  0  0  0  0  0  0  0  0
    8.3779   -0.3584   22.7483 C   0  0  1  0  0  0  0  0  0  0  0  0
    7.7499    0.1550   24.0711 C   0  0  0  0  0  0  0  0  0  0  0  0
    8.2194    1.4752   24.4496 N   0  0  0  0  0  0  0  0  0  0  0  0
    7.2576    2.4547   24.9557 C   0  0  0  0  0  0  0  0  0  0  0  0
    6.6862    3.3432   23.8612 C   0  0  0  0  0  0  0  0  0  0  0  0
    7.7285    4.2395   23.2925 N   0  0  0  0  0  4  0  0  0  0  0  0
    8.1485    5.4520   24.1687 C   0  0  0  0  0  0  0  0  0  0  0  0
    7.6293    6.4624   23.0948 C   0  0  0  0  0  0  0  0  0  0  0  0
    7.2505    5.2198   22.2253 C   0  0  0  0  0  0  0  0  0  0  0  0
    6.1906    5.0654   22.0237 H   0  0  0  0  0  0  0  0  0  0  0  0
    7.8107    5.0755   21.3067 H   0  0  0  0  0  0  0  0  0  0  0  0
    6.7706    7.0629   23.4168 H   0  0  0  0  0  0  0  0  0  0  0  0
    8.3846    7.1273   22.6656 H   0  0  0  0  0  0  0  0  0  0  0  0
    9.2185    5.4232   24.3488 H   0  0  0  0  0  0  0  0  0  0  0  0
    7.6087    5.4364   25.1140 H   0  0  0  0  0  0  0  0  0  0  0  0
    8.5120    3.6627   22.9513 H   0  0  0  0  0  0  0  0  0  0  0  0
    5.8842    3.9747   24.2583 H   0  0  0  0  0  0  0  0  0  0  0  0
    6.2751    2.7489   23.0440 H   0  0  0  0  0  0  0  0  0  0  0  0
    6.4220    1.9238   25.4311 H   0  0  0  0  0  0  0  0  0  0  0  0
    7.7426    3.0570   25.7307 H   0  0  0  0  0  0  0  0  0  0  0  0
    9.5621    1.7309   24.5152 C   0  0  0  0  0  0  0  0  0  0  0  0
   10.0282    2.6588   25.1597 O   0  0  0  0  0  0  0  0  0  0  0  0
   10.4345    0.8355   23.6627 C   0  0  0  0  0  0  0  0  0  0  0  0
   11.8178    1.0378   23.6863 C   0  0  0  0  0  0  0  0  0  0  0  0
   12.6651    0.3611   22.8305 C   0  0  0  0  0  0  0  0  0  0  0  0
   12.0937   -0.5130   21.9098 C   0  0  0  0  0  0  0  0  0  0  0  0
   13.1250   -1.3057   20.7540 Cl  0  0  0  0  0  0  0  0  0  0  0  0
   10.7270   -0.7358   21.8675 C   0  0  0  0  0  0  0  0  0  0  0  0
    9.8780   -0.1184   22.7968 C   0  0  0  0  0  0  0  0  0  0  0  0
   10.3346   -1.3585   21.0701 H   0  0  0  0  0  0  0  0  0  0  0  0
   13.7431    0.5163   22.8378 H   0  0  0  0  0  0  0  0  0  0  0  0
   12.2352    1.7548   24.3778 H   0  0  0  0  0  0  0  0  0  0  0  0
    7.9636   -0.5516   24.8836 H   0  0  0  0  0  0  0  0  0  0  0  0
    6.6662    0.1972   23.9584 H   0  0  0  0  0  0  0  0  0  0  0  0
    6.8482   -2.4656   20.6200 H   0  0  0  0  0  0  0  0  0  0  0  0
    5.8078   -1.8370   21.8822 H   0  0  0  0  0  0  0  0  0  0  0  0
    8.7830   -2.3066   21.9264 H   0  0  0  0  0  0  0  0  0  0  0  0
    7.3381   -3.7428   23.2745 H   0  0  0  0  0  0  0  0  0  0  0  0
    8.3643   -2.7896   24.3474 H   0  0  0  0  0  0  0  0  0  0  0  0
    6.6675   -2.3580   24.1332 H   0  0  0  0  0  0  0  0  0  0  0  0
  1  2  1  0
  2  3  1  0
  3  4  1  0
  4  5  1  0
  5  6  2  0
  6  7  1  0
  7  8  2  0
  8  9  1  0
  9 10  2  0
 10 11  1  0
 11 12  2  0
 12 13  1  0
 13 14  2  0
 13 15  1  0
 12 16  1  0
 11 17  1  0
 10 18  1  0
  8 19  1  0
  6 20  1  0
  4 21  1  0
 21 22  2  0
 21 23  1  0
 23 24  1  1
 24 25  1  0
 25 26  1  0
 26 27  1  0
 27 28  1  0
 28 29  1  0
 29 30  1  0
 30 31  1  0
 31 32  1  0
 31 33  1  0
 30 34  1  0
 30 35  1  0
 29 36  1  0
 29 37  1  0
 28 38  1  0
 27 39  1  0
 27 40  1  0
 26 41  1  0
 26 42  1  0
 25 43  1  0
 43 44  2  0
 43 45  1  0
 45 46  2  0
 46 47  1  0
 47 48  2  0
 48 49  1  0
 48 50  1  0
 50 51  2  0
 50 52  1  0
 47 53  1  0
 46 54  1  0
 24 55  1  0
 24 56  1  0
  3 57  1  0
  3 58  1  0
  2 59  1  6
  1 60  1  0
  1 61  1  0
  1 62  1  0
 23  2  1  0
 31 28  1  0
 51 45  1  0
 14  5  1  0
 51 23  1  0
 14  9  1  0
M  CHG  1  28   1
M  END
>  <cnnaffinities>  (90) 
[6.75033, 6.90193]

>  <score>  (90) 
6.75033

>  <index>  (90) 
90

>  <Smiles>  (90) 
C([C@]1(C(N(c2c(nc(c3c(c(c(c(c23)[H])[H])[H])[H])[H])[H])C(=O)[C@]21C(N(C(C([N+]1(C(C(C1([H])[H])([H])[H])([H])[H])[H])([H])[H])([H])[H])C(=O)c1c(c(c(Cl)c(c21)[H])[H])[H])([H])[H])([H])[H])[H])([H])([H])[H]

>  <h>  (90) 
<NA>

>  <Training>  (90) 
True

>  <Success>  (90) 
True

>  <enamine_searched>  (90) 
False

>  <enamine_id>  (90) 
nan

$$$$

     RDKit          3D

 56 61  0  0  0  0  0  0  0  0999 V2000
    7.7587   -3.0178   23.3041 C   0  0  0  0  0  0  0  0  0  0  0  0
    8.0050   -1.9200   22.2805 C   0  0  1  0  0  0  0  0  0  0  0  0
    6.8567   -1.7783   21.2726 C   0  0  0  0  0  0  0  0  0  0  0  0
    6.9557   -0.3969   20.8493 N   0  0  0  0  0  0  0  0  0  0  0  0
    6.1639    0.1173   19.7941 C   0  0  0  0  0  0  0  0  0  0  0  0
    6.4627   -0.2348   18.5015 C   0  0  0  0  0  0  0  0  0  0  0  0
    5.7939    0.1982   17.4048 N   0  0  0  0  0  0  0  0  0  0  0  0
    4.7706    0.9924   17.6128 C   0  0  0  0  0  0  0  0  0  0  0  0
    4.3204    1.3931   18.9007 C   0  0  0  0  0  0  0  0  0  0  0  0
    3.1879    2.2344   19.0513 C   0  0  0  0  0  0  0  0  0  0  0  0
    2.7489    2.5854   20.2972 C   0  0  0  0  0  0  0  0  0  0  0  0
    3.4140    2.1053   21.4460 C   0  0  0  0  0  0  0  0  0  0  0  0
    4.5180    1.2973   21.3278 C   0  0  0  0  0  0  0  0  0  0  0  0
    5.0138    0.9348   20.0408 C   0  0  0  0  0  0  0  0  0  0  0  0
    5.0192    0.9411   22.2218 H   0  0  0  0  0  0  0  0  0  0  0  0
    3.0471    2.3824   22.4287 H   0  0  0  0  0  0  0  0  0  0  0  0
    1.8864    3.2352   20.4076 H   0  0  0  0  0  0  0  0  0  0  0  0
    2.6926    2.5975   18.1562 H   0  0  0  0  0  0  0  0  0  0  0  0
    4.2350    1.3535   16.7357 H   0  0  0  0  0  0  0  0  0  0  0  0
    7.3083   -0.8946   18.3168 H   0  0  0  0  0  0  0  0  0  0  0  0
    7.7086    0.3978   21.6912 C   0  0  0  0  0  0  0  0  0  0  0  0
    7.8620    1.5937   21.5458 O   0  0  0  0  0  0  0  0  0  0  0  0
    8.2522   -0.4699   22.8437 C   0  0  1  0  0  0  0  0  0  0  0  0
    7.4136   -0.0871   24.0968 C   0  0  0  0  0  0  0  0  0  0  0  0
    8.0029   -0.5352   25.3561 N   0  0  0  0  0  0  0  0  0  0  0  0
    7.1651   -0.8077   26.5222 C   0  0  0  0  0  0  0  0  0  0  0  0
    6.9330   -2.2768   26.7814 C   0  0  0  0  0  0  0  0  0  0  0  0
    5.7228   -2.9894   26.6711 C   0  0  0  0  0  0  0  0  0  0  0  0
    5.8559   -4.2722   26.9907 N   0  0  0  0  0  0  0  0  0  0  0  0
    7.1606   -4.3894   27.2819 N   0  0  0  0  0  0  0  0  0  0  0  0
    7.8538   -3.2287   27.1728 C   0  0  0  0  0  0  0  0  0  0  0  0
    8.9183   -3.1702   27.3764 H   0  0  0  0  0  0  0  0  0  0  0  0
    7.5214   -5.2758   27.5969 H   0  0  0  0  0  0  0  0  0  0  0  0
    4.7607   -2.6053   26.3495 H   0  0  0  0  0  0  0  0  0  0  0  0
    6.2136   -0.2790   26.3946 H   0  0  0  0  0  0  0  0  0  0  0  0
    7.6738   -0.3728   27.3905 H   0  0  0  0  0  0  0  0  0  0  0  0
    9.3480   -0.6154   25.5806 C   0  0  0  0  0  0  0  0  0  0  0  0
    9.8111   -0.9534   26.6634 O   0  0  0  0  0  0  0  0  0  0  0  0
   10.2279   -0.2761   24.4432 C   0  0  0  0  0  0  0  0  0  0  0  0
   11.5850   -0.1121   24.7179 C   0  0  0  0  0  0  0  0  0  0  0  0
   12.4848    0.0813   23.6940 C   0  0  0  0  0  0  0  0  0  0  0  0
   11.9962    0.0739   22.3944 C   0  0  0  0  0  0  0  0  0  0  0  0
   12.8867    0.0971   21.3977 F   0  0  0  0  0  0  0  0  0  0  0  0
   10.6429   -0.0097   22.1100 C   0  0  0  0  0  0  0  0  0  0  0  0
    9.7238   -0.2027   23.1442 C   0  0  0  0  0  0  0  0  0  0  0  0
   10.2910    0.0822   21.0942 H   0  0  0  0  0  0  0  0  0  0  0  0
   13.5412    0.2063   23.8876 H   0  0  0  0  0  0  0  0  0  0  0  0
   11.9104   -0.1769   25.7510 H   0  0  0  0  0  0  0  0  0  0  0  0
    7.3186    1.0096   24.1024 H   0  0  0  0  0  0  0  0  0  0  0  0
    6.4009   -0.5106   24.0117 H   0  0  0  0  0  0  0  0  0  0  0  0
    5.8760   -1.9930   21.7306 H   0  0  0  0  0  0  0  0  0  0  0  0
    6.9577   -2.4458   20.4116 H   0  0  0  0  0  0  0  0  0  0  0  0
    8.9106   -2.1648   21.7065 H   0  0  0  0  0  0  0  0  0  0  0  0
    7.7062   -3.9935   22.8072 H   0  0  0  0  0  0  0  0  0  0  0  0
    6.8108   -2.8443   23.8244 H   0  0  0  0  0  0  0  0  0  0  0  0
    8.5604   -3.0415   24.0477 H   0  0  0  0  0  0  0  0  0  0  0  0
  1  2  1  0
  2  3  1  0
  3  4  1  0
  4  5  1  0
  5  6  2  0
  6  7  1  0
  7  8  2  0
  8  9  1  0
  9 10  2  0
 10 11  1  0
 11 12  2  0
 12 13  1  0
 13 14  2  0
 13 15  1  0
 12 16  1  0
 11 17  1  0
 10 18  1  0
  8 19  1  0
  6 20  1  0
  4 21  1  0
 21 22  2  0
 21 23  1  0
 23 24  1  1
 24 25  1  0
 25 26  1  0
 26 27  1  0
 27 28  1  0
 28 29  2  0
 29 30  1  0
 30 31  1  0
 31 32  1  0
 30 33  1  0
 28 34  1  0
 26 35  1  0
 26 36  1  0
 25 37  1  0
 37 38  2  0
 37 39  1  0
 39 40  2  0
 40 41  1  0
 41 42  2  0
 42 43  1  0
 42 44  1  0
 44 45  2  0
 44 46  1  0
 41 47  1  0
 40 48  1  0
 24 49  1  0
 24 50  1  0
  3 51  1  0
  3 52  1  0
  2 53  1  6
  1 54  1  0
  1 55  1  0
  1 56  1  0
 23  2  1  0
 31 27  2  0
 45 39  1  0
 14  5  1  0
 45 23  1  0
 14  9  1  0
M  END
>  <cnnaffinities>  (91) 
[6.46077]

>  <score>  (91) 
6.46077

>  <index>  (91) 
91

>  <Smiles>  (91) 
C([C@]1(C(N(c2c(nc(c3c(c(c(c(c23)[H])[H])[H])[H])[H])[H])C(=O)[C@]21C(N(C(c1c(nn(c1[H])[H])[H])([H])[H])C(=O)c1c(c(c(F)c(c21)[H])[H])[H])([H])[H])([H])[H])[H])([H])([H])[H]

>  <h>  (91) 
<NA>

>  <Training>  (91) 
True

>  <Success>  (91) 
True

>  <enamine_searched>  (91) 
False

>  <enamine_id>  (91) 
nan

$$$$

     RDKit          3D

 47 50  0  0  0  0  0  0  0  0999 V2000
    9.3251   -0.8011   20.6775 O   0  0  0  0  0  0  0  0  0  0  0  0
    8.4177   -0.0812   21.0474 C   0  0  0  0  0  0  0  0  0  0  0  0
    6.9457   -0.4636   20.9216 C   0  0  0  0  0  0  0  0  0  0  0  0
    6.1703    0.1414   19.7655 C   0  0  0  0  0  0  0  0  0  0  0  0
    6.5009   -0.1605   18.4644 C   0  0  0  0  0  0  0  0  0  0  0  0
    5.8294    0.2730   17.3667 N   0  0  0  0  0  0  0  0  0  0  0  0
    4.7801    1.0348   17.5685 C   0  0  0  0  0  0  0  0  0  0  0  0
    4.3184    1.4334   18.8512 C   0  0  0  0  0  0  0  0  0  0  0  0
    3.1735    2.2598   19.0127 C   0  0  0  0  0  0  0  0  0  0  0  0
    2.7470    2.6196   20.2607 C   0  0  0  0  0  0  0  0  0  0  0  0
    3.4334    2.1581   21.4018 C   0  0  0  0  0  0  0  0  0  0  0  0
    4.5321    1.3438   21.2677 C   0  0  0  0  0  0  0  0  0  0  0  0
    5.0230    0.9672   19.9886 C   0  0  0  0  0  0  0  0  0  0  0  0
    5.0208    0.9927   22.1692 H   0  0  0  0  0  0  0  0  0  0  0  0
    3.0859    2.4433   22.3920 H   0  0  0  0  0  0  0  0  0  0  0  0
    1.8839    3.2678   20.3818 H   0  0  0  0  0  0  0  0  0  0  0  0
    2.6518    2.6125   18.1244 H   0  0  0  0  0  0  0  0  0  0  0  0
    4.2155    1.3557   16.6904 H   0  0  0  0  0  0  0  0  0  0  0  0
    7.3625   -0.7932   18.2531 H   0  0  0  0  0  0  0  0  0  0  0  0
    6.4790   -0.2098   21.8749 H   0  0  0  0  0  0  0  0  0  0  0  0
    6.9494   -1.5518   20.8192 H   0  0  0  0  0  0  0  0  0  0  0  0
    8.6442    1.1096   21.7198 N   0  0  0  0  0  0  0  0  0  0  0  0
    7.6489    2.0981   21.7585 C   0  0  0  0  0  0  0  0  0  0  0  0
    7.1256    2.6041   22.8933 C   0  0  0  0  0  0  0  0  0  0  0  0
    7.6337    2.4123   24.2411 C   0  0  0  0  0  0  0  0  0  0  0  0
    8.8873    2.6445   24.6950 C   0  0  0  0  0  0  0  0  0  0  0  0
    9.9767    3.1817   23.8817 C   0  0  0  0  0  0  0  0  0  0  0  0
   10.2686    2.7838   22.6370 C   0  0  0  0  0  0  0  0  0  0  0  0
   10.0481    1.3795   22.1143 C   0  0  1  0  0  0  0  0  0  0  0  0
   10.6700    0.2802   22.9815 C   0  0  0  0  0  0  0  0  0  0  0  0
   12.0336    0.0765   22.7741 C   0  0  0  0  0  0  0  0  0  0  0  0
   12.7278   -0.9337   23.4256 C   0  0  0  0  0  0  0  0  0  0  0  0
   12.0429   -1.7733   24.2978 C   0  0  0  0  0  0  0  0  0  0  0  0
   10.6823   -1.5694   24.5275 C   0  0  0  0  0  0  0  0  0  0  0  0
    9.9983   -0.5279   23.8938 C   0  0  0  0  0  0  0  0  0  0  0  0
    8.9345   -0.3873   24.0901 H   0  0  0  0  0  0  0  0  0  0  0  0
   10.1584   -2.2466   25.1941 H   0  0  0  0  0  0  0  0  0  0  0  0
   12.5796   -2.5756   24.7981 H   0  0  0  0  0  0  0  0  0  0  0  0
   13.7841   -1.0742   23.2140 H   0  0  0  0  0  0  0  0  0  0  0  0
   12.5365    0.7153   22.0510 H   0  0  0  0  0  0  0  0  0  0  0  0
   10.6263    1.2917   21.2046 H   0  0  0  0  0  0  0  0  0  0  0  0
   10.7622    3.4826   21.9555 H   0  0  0  0  0  0  0  0  0  0  0  0
   10.5740    3.9713   24.3471 H   0  0  0  0  0  0  0  0  0  0  0  0
    9.0905    2.5671   25.7637 H   0  0  0  0  0  0  0  0  0  0  0  0
    6.8815    2.1515   24.9840 H   0  0  0  0  0  0  0  0  0  0  0  0
    6.1828    3.1443   22.7802 H   0  0  0  0  0  0  0  0  0  0  0  0
    7.2863    2.4081   20.7812 H   0  0  0  0  0  0  0  0  0  0  0  0
  1  2  2  0
  2  3  1  0
  3  4  1  0
  4  5  2  0
  5  6  1  0
  6  7  2  0
  7  8  1  0
  8  9  2  0
  9 10  1  0
 10 11  2  0
 11 12  1  0
 12 13  2  0
 12 14  1  0
 11 15  1  0
 10 16  1  0
  9 17  1  0
  7 18  1  0
  5 19  1  0
  3 20  1  0
  3 21  1  0
  2 22  1  0
 22 23  1  0
 23 24  2  3
 24 25  1  0
 25 26  2  3
 26 27  1  0
 27 28  2  3
 28 29  1  0
 29 30  1  0
 30 31  2  0
 31 32  1  0
 32 33  2  0
 33 34  1  0
 34 35  2  0
 35 36  1  0
 34 37  1  0
 33 38  1  0
 32 39  1  0
 31 40  1  0
 29 41  1  6
 28 42  1  0
 27 43  1  0
 26 44  1  0
 25 45  1  0
 24 46  1  0
 23 47  1  0
 13  4  1  0
 29 22  1  0
 35 30  1  0
 13  8  1  0
M  END
>  <cnnaffinities>  (92) 
[6.22975, 6.22406]

>  <score>  (92) 
6.22975

>  <index>  (92) 
92

>  <Smiles>  (92) 
O=C(C(c1c(nc(c2c(c(c(c(c12)[H])[H])[H])[H])[H])[H])([H])[H])N1C(=C(C(=C(C(=C([C@]1(c1c(c(c(c(c1[H])[H])[H])[H])[H])[H])[H])[H])[H])[H])[H])[H]

>  <h>  (92) 
<NA>

>  <Training>  (92) 
True

>  <Success>  (92) 
True

>  <enamine_searched>  (92) 
False

>  <enamine_id>  (92) 
nan

$$$$

     RDKit          3D

 58 62  0  0  0  0  0  0  0  0999 V2000
    6.5884    4.5895   21.4528 C   0  0  0  0  0  0  0  0  0  0  0  0
    6.8116    3.6023   22.5138 N   0  0  0  0  0  4  0  0  0  0  0  0
    7.9617    3.9376   23.4062 C   0  0  0  0  0  0  0  0  0  0  0  0
    8.2146    2.8309   24.4305 C   0  0  0  0  0  0  0  0  0  0  0  0
    8.8688    1.6527   23.8710 N   0  0  0  0  0  0  0  0  0  0  0  0
    8.1558    0.3917   23.7987 C   0  0  0  0  0  0  0  0  0  0  0  0
    8.5624   -0.4390   22.5559 C   0  0  2  0  0  0  0  0  0  0  0  0
    8.0465    0.2554   21.2685 C   0  0  0  0  0  0  0  0  0  0  0  0
    8.4960    1.2542   20.7420 O   0  0  0  0  0  0  0  0  0  0  0  0
    6.9346   -0.4192   20.8197 N   0  0  0  0  0  0  0  0  0  0  0  0
    6.1434    0.1055   19.7589 C   0  0  0  0  0  0  0  0  0  0  0  0
    6.4601   -0.2101   18.4639 C   0  0  0  0  0  0  0  0  0  0  0  0
    5.7714    0.2248   17.3799 N   0  0  0  0  0  0  0  0  0  0  0  0
    4.7463    1.0122   17.5976 C   0  0  0  0  0  0  0  0  0  0  0  0
    4.3004    1.4172   18.8875 C   0  0  0  0  0  0  0  0  0  0  0  0
    3.1796    2.2733   19.0677 C   0  0  0  0  0  0  0  0  0  0  0  0
    2.7818    2.6520   20.3205 C   0  0  0  0  0  0  0  0  0  0  0  0
    3.4804    2.1823   21.4532 C   0  0  0  0  0  0  0  0  0  0  0  0
    4.5660    1.3493   21.3077 C   0  0  0  0  0  0  0  0  0  0  0  0
    5.0163    0.9487   20.0169 C   0  0  0  0  0  0  0  0  0  0  0  0
    5.0754    0.9815   22.1942 H   0  0  0  0  0  0  0  0  0  0  0  0
    3.1626    2.4878   22.4478 H   0  0  0  0  0  0  0  0  0  0  0  0
    1.9355    3.3240   20.4443 H   0  0  0  0  0  0  0  0  0  0  0  0
    2.6691    2.6423   18.1822 H   0  0  0  0  0  0  0  0  0  0  0  0
    4.2153    1.3765   16.7176 H   0  0  0  0  0  0  0  0  0  0  0  0
    7.3055   -0.8627   18.2557 H   0  0  0  0  0  0  0  0  0  0  0  0
    6.5512   -1.5518   21.6405 C   0  0  0  0  0  0  0  0  0  0  0  0
    7.7946   -1.8008   22.5244 C   0  0  2  0  0  0  0  0  0  0  0  0
    7.4266   -2.4322   23.8767 C   0  0  0  0  0  0  0  0  0  0  0  0
    6.9642   -3.4190   23.7397 H   0  0  0  0  0  0  0  0  0  0  0  0
    8.3020   -2.5631   24.5257 H   0  0  0  0  0  0  0  0  0  0  0  0
    6.7019   -1.8108   24.4218 H   0  0  0  0  0  0  0  0  0  0  0  0
    8.4436   -2.4962   21.9865 H   0  0  0  0  0  0  0  0  0  0  0  0
    6.3008   -2.4129   21.0084 H   0  0  0  0  0  0  0  0  0  0  0  0
    5.6607   -1.3295   22.2520 H   0  0  0  0  0  0  0  0  0  0  0  0
   10.0801   -0.5240   22.5166 C   0  0  0  0  0  0  0  0  0  0  0  0
   10.7337   -1.5155   21.7698 C   0  0  0  0  0  0  0  0  0  0  0  0
   12.1118   -1.5015   21.6988 C   0  0  0  0  0  0  0  0  0  0  0  0
   12.7542   -2.4002   20.9363 F   0  0  0  0  0  0  0  0  0  0  0  0
   12.8870   -0.5619   22.3649 C   0  0  0  0  0  0  0  0  0  0  0  0
   12.2515    0.4520   23.0468 C   0  0  0  0  0  0  0  0  0  0  0  0
   10.8576    0.4941   23.0941 C   0  0  0  0  0  0  0  0  0  0  0  0
   10.2247    1.7004   23.7231 C   0  0  0  0  0  0  0  0  0  0  0  0
   10.8874    2.6715   24.0675 O   0  0  0  0  0  0  0  0  0  0  0  0
   12.8036    1.2535   23.5274 H   0  0  0  0  0  0  0  0  0  0  0  0
   13.9628   -0.6420   22.2909 H   0  0  0  0  0  0  0  0  0  0  0  0
   10.1947   -2.2696   21.2067 H   0  0  0  0  0  0  0  0  0  0  0  0
    8.3404   -0.2137   24.7008 H   0  0  0  0  0  0  0  0  0  0  0  0
    7.0860    0.6207   23.7369 H   0  0  0  0  0  0  0  0  0  0  0  0
    7.2621    2.5059   24.8659 H   0  0  0  0  0  0  0  0  0  0  0  0
    8.8584    3.2167   25.2247 H   0  0  0  0  0  0  0  0  0  0  0  0
    8.8568    4.0811   22.7916 H   0  0  0  0  0  0  0  0  0  0  0  0
    7.7567    4.8799   23.9260 H   0  0  0  0  0  0  0  0  0  0  0  0
    5.9372    3.5143   23.0858 H   0  0  0  0  0  0  0  0  0  0  0  0
    7.0217    2.6826   22.0660 H   0  0  0  0  0  0  0  0  0  0  0  0
    5.7247    4.2891   20.8576 H   0  0  0  0  0  0  0  0  0  0  0  0
    7.4720    4.6473   20.8133 H   0  0  0  0  0  0  0  0  0  0  0  0
    6.4228    5.5912   21.8664 H   0  0  0  0  0  0  0  0  0  0  0  0
  1  2  1  0
  2  3  1  0
  3  4  1  0
  4  5  1  0
  5  6  1  0
  7  6  1  1
  7  8  1  0
  8  9  2  0
  8 10  1  0
 10 11  1  0
 11 12  2  0
 12 13  1  0
 13 14  2  0
 14 15  1  0
 15 16  2  0
 16 17  1  0
 17 18  2  0
 18 19  1  0
 19 20  2  0
 19 21  1  0
 18 22  1  0
 17 23  1  0
 16 24  1  0
 14 25  1  0
 12 26  1  0
 10 27  1  0
 27 28  1  0
 28 29  1  0
 29 30  1  0
 29 31  1  0
 29 32  1  0
 28 33  1  6
 27 34  1  0
 27 35  1  0
  7 36  1  0
 36 37  2  0
 37 38  1  0
 38 39  1  0
 38 40  2  0
 40 41  1  0
 41 42  2  0
 42 43  1  0
 43 44  2  0
 41 45  1  0
 40 46  1  0
 37 47  1  0
  6 48  1  0
  6 49  1  0
  4 50  1  0
  4 51  1  0
  3 52  1  0
  3 53  1  0
  2 54  1  0
  2 55  1  0
  1 56  1  0
  1 57  1  0
  1 58  1  0
 43  5  1  0
 28  7  1  0
 42 36  1  0
 20 11  1  0
 20 15  1  0
M  CHG  1   2   1
M  END
>  <cnnaffinities>  (93) 
[6.5023]

>  <score>  (93) 
6.5023

>  <index>  (93) 
93

>  <Smiles>  (93) 
C([N+](C(C(N1C([C@@]2(C(=O)N(c3c(nc(c4c(c(c(c(c34)[H])[H])[H])[H])[H])[H])C([C@@]2(C([H])([H])[H])[H])([H])[H])c2c(c(F)c(c(c2C1=O)[H])[H])[H])([H])[H])([H])[H])([H])[H])([H])[H])([H])([H])[H]

>  <h>  (93) 
<NA>

>  <Training>  (93) 
True

>  <Success>  (93) 
True

>  <enamine_searched>  (93) 
False

>  <enamine_id>  (93) 
nan

$$$$

     RDKit          3D

 65 69  0  0  0  0  0  0  0  0999 V2000
   11.5479   -4.4644   27.8463 C   0  0  0  0  0  0  0  0  0  0  0  0
   10.0743   -4.1432   27.5730 C   0  0  0  0  0  0  0  0  0  0  0  0
    9.9758   -2.9584   26.6466 C   0  0  0  0  0  0  0  0  0  0  0  0
   10.3979   -1.8652   26.9138 O   0  0  0  0  0  0  0  0  0  0  0  0
    9.3361   -3.2034   25.2723 N   0  0  2  0  0  4  0  0  0  0  0  0
   10.3969   -3.4378   24.1506 C   0  0  0  0  0  0  0  0  0  0  0  0
   10.9920   -2.1026   23.7415 C   0  0  0  0  0  0  0  0  0  0  0  0
    9.9134   -1.1840   23.1579 C   0  0  0  0  0  0  0  0  0  0  0  0
    8.6270   -1.1369   23.9707 C   0  0  0  0  0  0  0  0  0  0  0  0
    7.6748   -0.1139   23.7858 C   0  0  0  0  0  0  0  0  0  0  0  0
    7.9214    0.8964   22.8011 N   0  0  0  0  0  0  0  0  0  0  0  0
    8.2922    2.2494   23.2340 C   0  0  0  0  0  0  0  0  0  0  0  0
    7.1713    3.2472   23.0104 C   0  0  0  0  0  0  0  0  0  0  0  0
    7.0319    3.8841   21.7788 C   0  0  0  0  0  0  0  0  0  0  0  0
    5.9722    4.7524   21.5472 C   0  0  0  0  0  0  0  0  0  0  0  0
    5.0330    5.0035   22.5423 C   0  0  0  0  0  0  0  0  0  0  0  0
    5.1838    4.3699   23.7682 C   0  0  0  0  0  0  0  0  0  0  0  0
    3.9970    4.6416   25.0141 Cl  0  0  0  0  0  0  0  0  0  0  0  0
    6.2387    3.5006   24.0142 C   0  0  0  0  0  0  0  0  0  0  0  0
    6.3179    3.0264   24.9889 H   0  0  0  0  0  0  0  0  0  0  0  0
    4.1844    5.6618   22.3729 H   0  0  0  0  0  0  0  0  0  0  0  0
    5.8588    5.2261   20.5748 H   0  0  0  0  0  0  0  0  0  0  0  0
    7.7468    3.6646   20.9917 H   0  0  0  0  0  0  0  0  0  0  0  0
    9.1825    2.5625   22.6692 H   0  0  0  0  0  0  0  0  0  0  0  0
    8.5319    2.1818   24.2986 H   0  0  0  0  0  0  0  0  0  0  0  0
    7.9029    0.6594   21.4379 C   0  0  0  0  0  0  0  0  0  0  0  0
    8.6137    1.2878   20.6684 O   0  0  0  0  0  0  0  0  0  0  0  0
    6.9485   -0.4263   20.9083 C   0  0  0  0  0  0  0  0  0  0  0  0
    6.1083    0.0870   19.7655 C   0  0  0  0  0  0  0  0  0  0  0  0
    6.4282   -0.2089   18.4658 C   0  0  0  0  0  0  0  0  0  0  0  0
    5.7652    0.2418   17.3660 N   0  0  0  0  0  0  0  0  0  0  0  0
    4.7368    1.0264   17.5761 C   0  0  0  0  0  0  0  0  0  0  0  0
    4.2816    1.4161   18.8671 C   0  0  0  0  0  0  0  0  0  0  0  0
    3.1652    2.2698   19.0481 C   0  0  0  0  0  0  0  0  0  0  0  0
    2.7592    2.6310   20.3023 C   0  0  0  0  0  0  0  0  0  0  0  0
    3.4489    2.1477   21.4377 C   0  0  0  0  0  0  0  0  0  0  0  0
    4.5432    1.3314   21.2890 C   0  0  0  0  0  0  0  0  0  0  0  0
    4.9879    0.9418   19.9976 C   0  0  0  0  0  0  0  0  0  0  0  0
    5.0727    0.9797   22.1716 H   0  0  0  0  0  0  0  0  0  0  0  0
    3.1161    2.4366   22.4327 H   0  0  0  0  0  0  0  0  0  0  0  0
    1.9122    3.3011   20.4271 H   0  0  0  0  0  0  0  0  0  0  0  0
    2.6571    2.6486   18.1660 H   0  0  0  0  0  0  0  0  0  0  0  0
    4.2031    1.3939   16.6976 H   0  0  0  0  0  0  0  0  0  0  0  0
    7.2744   -0.8572   18.2385 H   0  0  0  0  0  0  0  0  0  0  0  0
    7.5798   -1.2414   20.5353 H   0  0  0  0  0  0  0  0  0  0  0  0
    6.3417   -0.8302   21.7277 H   0  0  0  0  0  0  0  0  0  0  0  0
    6.5091   -0.0614   24.5450 C   0  0  0  0  0  0  0  0  0  0  0  0
    6.2333   -1.0596   25.4781 C   0  0  0  0  0  0  0  0  0  0  0  0
    7.1492   -2.0880   25.6558 C   0  0  0  0  0  0  0  0  0  0  0  0
    8.3292   -2.1138   24.9129 C   0  0  0  0  0  0  0  0  0  0  0  0
    6.9888   -2.8718   26.3887 H   0  0  0  0  0  0  0  0  0  0  0  0
    5.3175   -1.0359   26.0637 H   0  0  0  0  0  0  0  0  0  0  0  0
    5.8098    0.7554   24.3737 H   0  0  0  0  0  0  0  0  0  0  0  0
    9.6570   -1.5385   22.1507 H   0  0  0  0  0  0  0  0  0  0  0  0
   10.3027   -0.1668   23.0284 H   0  0  0  0  0  0  0  0  0  0  0  0
   11.7757   -2.2710   22.9958 H   0  0  0  0  0  0  0  0  0  0  0  0
   11.4522   -1.6305   24.6155 H   0  0  0  0  0  0  0  0  0  0  0  0
    9.8896   -3.9085   23.3068 H   0  0  0  0  0  0  0  0  0  0  0  0
   11.1635   -4.1242   24.5231 H   0  0  0  0  0  0  0  0  0  0  0  0
    8.7877   -4.0781   25.3558 H   0  0  0  0  0  0  0  0  0  0  0  0
    9.5451   -4.9995   27.1431 H   0  0  0  0  0  0  0  0  0  0  0  0
    9.5637   -3.8591   28.5013 H   0  0  0  0  0  0  0  0  0  0  0  0
   12.0602   -4.7399   26.9157 H   0  0  0  0  0  0  0  0  0  0  0  0
   11.6456   -5.2902   28.5589 H   0  0  0  0  0  0  0  0  0  0  0  0
   12.0535   -3.5841   28.2531 H   0  0  0  0  0  0  0  0  0  0  0  0
  1  2  1  0
  2  3  1  0
  3  4  2  0
  3  5  1  0
  5  6  1  0
  6  7  1  0
  7  8  1  0
  8  9  1  0
  9 10  2  0
 10 11  1  0
 11 12  1  0
 12 13  1  0
 13 14  2  0
 14 15  1  0
 15 16  2  0
 16 17  1  0
 17 18  1  0
 17 19  2  0
 19 20  1  0
 16 21  1  0
 15 22  1  0
 14 23  1  0
 12 24  1  0
 12 25  1  0
 11 26  1  0
 26 27  2  0
 26 28  1  0
 28 29  1  0
 29 30  2  0
 30 31  1  0
 31 32  2  0
 32 33  1  0
 33 34  2  0
 34 35  1  0
 35 36  2  0
 36 37  1  0
 37 38  2  0
 37 39  1  0
 36 40  1  0
 35 41  1  0
 34 42  1  0
 32 43  1  0
 30 44  1  0
 28 45  1  0
 28 46  1  0
 10 47  1  0
 47 48  2  0
 48 49  1  0
 49 50  2  0
 49 51  1  0
 48 52  1  0
 47 53  1  0
  8 54  1  0
  8 55  1  0
  7 56  1  0
  7 57  1  0
  6 58  1  0
  6 59  1  0
  5 60  1  1
  2 61  1  0
  2 62  1  0
  1 63  1  0
  1 64  1  0
  1 65  1  0
 50  5  1  0
 50  9  1  0
 19 13  1  0
 38 29  1  0
 38 33  1  0
M  CHG  1   5   1
M  END
>  <cnnaffinities>  (94) 
[6.50145]

>  <score>  (94) 
6.50145

>  <index>  (94) 
94

>  <Smiles>  (94) 
C(C(C(=O)[N@@+]1(C(C(C(c2c(N(C(c3c(c(c(c(Cl)c3[H])[H])[H])[H])([H])[H])C(=O)C(c3c(nc(c4c(c(c(c(c34)[H])[H])[H])[H])[H])[H])([H])[H])c(c(c(c12)[H])[H])[H])([H])[H])([H])[H])([H])[H])[H])([H])[H])([H])([H])[H]

>  <h>  (94) 
<NA>

>  <Training>  (94) 
True

>  <Success>  (94) 
True

>  <enamine_searched>  (94) 
False

>  <enamine_id>  (94) 
nan

$$$$

     RDKit          3D

 67 71  0  0  0  0  0  0  0  0999 V2000
    6.4484    4.5363   21.4922 C   0  0  0  0  0  0  0  0  0  0  0  0
    6.7973    3.8818   22.7421 N   0  0  0  0  0  0  0  0  0  0  0  0
    8.0949    3.9292   23.1483 C   0  0  0  0  0  0  0  0  0  0  0  0
    8.9152    4.6539   22.6043 O   0  0  0  0  0  0  0  0  0  0  0  0
    8.4740    3.0586   24.3530 C   0  0  0  0  0  0  0  0  0  0  0  0
    9.0153    1.7588   23.9854 N   0  0  0  0  0  0  0  0  0  0  0  0
    8.1622    0.5829   24.0397 C   0  0  0  0  0  0  0  0  0  0  0  0
    8.3094   -0.3042   22.7808 C   0  0  2  0  0  0  0  0  0  0  0  0
    7.7888    0.4321   21.5222 C   0  0  0  0  0  0  0  0  0  0  0  0
    8.1075    1.5340   21.1306 O   0  0  0  0  0  0  0  0  0  0  0  0
    6.9087   -0.3859   20.8550 N   0  0  0  0  0  0  0  0  0  0  0  0
    6.1374    0.1178   19.7713 C   0  0  0  0  0  0  0  0  0  0  0  0
    6.4471   -0.2181   18.4776 C   0  0  0  0  0  0  0  0  0  0  0  0
    5.7677    0.2212   17.3888 N   0  0  0  0  0  0  0  0  0  0  0  0
    4.7454    1.0178   17.5939 C   0  0  0  0  0  0  0  0  0  0  0  0
    4.2965    1.4267   18.8838 C   0  0  0  0  0  0  0  0  0  0  0  0
    3.1624    2.2656   19.0643 C   0  0  0  0  0  0  0  0  0  0  0  0
    2.7483    2.6147   20.3219 C   0  0  0  0  0  0  0  0  0  0  0  0
    3.4361    2.1349   21.4582 C   0  0  0  0  0  0  0  0  0  0  0  0
    4.5381    1.3290   21.3065 C   0  0  0  0  0  0  0  0  0  0  0  0
    5.0096    0.9636   20.0124 C   0  0  0  0  0  0  0  0  0  0  0  0
    5.0494    0.9385   22.1819 H   0  0  0  0  0  0  0  0  0  0  0  0
    3.1011    2.4188   22.4524 H   0  0  0  0  0  0  0  0  0  0  0  0
    1.8933    3.2716   20.4527 H   0  0  0  0  0  0  0  0  0  0  0  0
    2.6487    2.6381   18.1827 H   0  0  0  0  0  0  0  0  0  0  0  0
    4.2160    1.3792   16.7120 H   0  0  0  0  0  0  0  0  0  0  0  0
    7.2902   -0.8722   18.2631 H   0  0  0  0  0  0  0  0  0  0  0  0
    6.6998   -1.6824   21.4552 C   0  0  0  0  0  0  0  0  0  0  0  0
    7.4254   -1.6024   22.8250 C   0  0  2  0  0  0  0  0  0  0  0  0
    6.3966   -1.7020   23.9902 C   0  0  0  0  0  0  0  0  0  0  0  0
    5.8028   -3.3916   24.1812 S   0  0  0  0  0  0  0  0  0  0  0  0
    5.2793   -3.8739   22.9114 O   0  0  0  0  0  0  0  0  0  0  0  0
    6.9147   -4.0765   24.8307 O   0  0  0  0  0  0  0  0  0  0  0  0
    4.4737   -3.3659   25.2384 N   0  0  0  0  0  0  0  0  0  0  0  0
    4.7840   -2.8080   26.5531 C   0  0  0  0  0  0  0  0  0  0  0  0
    3.8688   -2.8681   27.1467 H   0  0  0  0  0  0  0  0  0  0  0  0
    5.0442   -1.7502   26.4661 H   0  0  0  0  0  0  0  0  0  0  0  0
    5.5893   -3.3569   27.0606 H   0  0  0  0  0  0  0  0  0  0  0  0
    3.8754   -4.7114   25.3785 C   0  0  0  0  0  0  0  0  0  0  0  0
    3.5643   -5.0919   24.4035 H   0  0  0  0  0  0  0  0  0  0  0  0
    2.9862   -4.6124   26.0078 H   0  0  0  0  0  0  0  0  0  0  0  0
    4.5605   -5.4309   25.8536 H   0  0  0  0  0  0  0  0  0  0  0  0
    6.8852   -1.5004   24.9477 H   0  0  0  0  0  0  0  0  0  0  0  0
    5.5297   -1.0453   23.8566 H   0  0  0  0  0  0  0  0  0  0  0  0
    8.0903   -2.4619   22.9699 H   0  0  0  0  0  0  0  0  0  0  0  0
    5.6289   -1.8783   21.5674 H   0  0  0  0  0  0  0  0  0  0  0  0
    7.1052   -2.4887   20.8332 H   0  0  0  0  0  0  0  0  0  0  0  0
    9.8043   -0.5571   22.5760 C   0  0  0  0  0  0  0  0  0  0  0  0
   10.2299   -1.5970   21.7426 C   0  0  0  0  0  0  0  0  0  0  0  0
   11.5710   -1.7027   21.4367 C   0  0  0  0  0  0  0  0  0  0  0  0
   11.9751   -2.5766   20.5015 F   0  0  0  0  0  0  0  0  0  0  0  0
   12.5383   -0.8904   22.0071 C   0  0  0  0  0  0  0  0  0  0  0  0
   12.1185    0.1668   22.7824 C   0  0  0  0  0  0  0  0  0  0  0  0
   10.7597    0.3654   23.0287 C   0  0  0  0  0  0  0  0  0  0  0  0
   10.3494    1.6539   23.6903 C   0  0  0  0  0  0  0  0  0  0  0  0
   11.1503    2.5470   23.9264 O   0  0  0  0  0  0  0  0  0  0  0  0
   12.8192    0.9006   23.1554 H   0  0  0  0  0  0  0  0  0  0  0  0
   13.5807   -1.0991   21.8068 H   0  0  0  0  0  0  0  0  0  0  0  0
    9.5407   -2.3162   21.3132 H   0  0  0  0  0  0  0  0  0  0  0  0
    8.4187   -0.0230   24.9256 H   0  0  0  0  0  0  0  0  0  0  0  0
    7.1312    0.9387   24.1297 H   0  0  0  0  0  0  0  0  0  0  0  0
    9.2506    3.5961   24.8999 H   0  0  0  0  0  0  0  0  0  0  0  0
    7.6124    2.9014   25.0135 H   0  0  0  0  0  0  0  0  0  0  0  0
    6.1512    3.2077   23.1251 H   0  0  0  0  0  0  0  0  0  0  0  0
    6.5736    5.6234   21.5749 H   0  0  0  0  0  0  0  0  0  0  0  0
    5.4099    4.2949   21.2404 H   0  0  0  0  0  0  0  0  0  0  0  0
    7.1203    4.1771   20.7087 H   0  0  0  0  0  0  0  0  0  0  0  0
  1  2  1  0
  2  3  1  0
  3  4  2  0
  3  5  1  0
  5  6  1  0
  6  7  1  0
  8  7  1  1
  8  9  1  0
  9 10  2  0
  9 11  1  0
 11 12  1  0
 12 13  2  0
 13 14  1  0
 14 15  2  0
 15 16  1  0
 16 17  2  0
 17 18  1  0
 18 19  2  0
 19 20  1  0
 20 21  2  0
 20 22  1  0
 19 23  1  0
 18 24  1  0
 17 25  1  0
 15 26  1  0
 13 27  1  0
 11 28  1  0
 28 29  1  0
 29 30  1  0
 30 31  1  0
 31 32  2  0
 31 33  2  0
 31 34  1  0
 34 35  1  0
 35 36  1  0
 35 37  1  0
 35 38  1  0
 34 39  1  0
 39 40  1  0
 39 41  1  0
 39 42  1  0
 30 43  1  0
 30 44  1  0
 29 45  1  1
 28 46  1  0
 28 47  1  0
  8 48  1  0
 48 49  2  0
 49 50  1  0
 50 51  1  0
 50 52  2  0
 52 53  1  0
 53 54  2  0
 54 55  1  0
 55 56  2  0
 53 57  1  0
 52 58  1  0
 49 59  1  0
  7 60  1  0
  7 61  1  0
  5 62  1  0
  5 63  1  0
  2 64  1  0
  1 65  1  0
  1 66  1  0
  1 67  1  0
 55  6  1  0
 29  8  1  0
 54 48  1  0
 21 12  1  0
 21 16  1  0
M  END
>  <cnnaffinities>  (95) 
[6.04345]

>  <score>  (95) 
6.04345

>  <index>  (95) 
95

>  <Smiles>  (95) 
C(N(C(=O)C(N1C([C@@]2(C(=O)N(c3c(nc(c4c(c(c(c(c34)[H])[H])[H])[H])[H])[H])C([C@@]2(C(S(=O)(=O)N(C([H])([H])[H])C([H])([H])[H])([H])[H])[H])([H])[H])c2c(c(F)c(c(c2C1=O)[H])[H])[H])([H])[H])([H])[H])[H])([H])([H])[H]

>  <h>  (95) 
<NA>

>  <Training>  (95) 
True

>  <Success>  (95) 
True

>  <enamine_searched>  (95) 
False

>  <enamine_id>  (95) 
nan

$$$$
