
     RDKit          3D

 63 69  0  0  0  0  0  0  0  0999 V2000
    9.5322    2.5709   25.3653 O   0  0  0  0  0  0  0  0  0  0  0  0
    9.1977    1.6029   24.7006 C   0  0  0  0  0  0  0  0  0  0  0  0
   10.1806    0.7722   23.9285 C   0  0  0  0  0  0  0  0  0  0  0  0
   11.5328    1.0598   24.0762 C   0  0  0  0  0  0  0  0  0  0  0  0
   12.4729    0.5383   23.2137 C   0  0  0  0  0  0  0  0  0  0  0  0
   12.0156   -0.2387   22.1496 C   0  0  0  0  0  0  0  0  0  0  0  0
   13.0944   -0.6123   20.8338 Cl  0  0  0  0  0  0  0  0  0  0  0  0
   10.6931   -0.6297   22.0534 C   0  0  0  0  0  0  0  0  0  0  0  0
    9.7525   -0.1577   22.9747 C   0  0  0  0  0  0  0  0  0  0  0  0
    8.2803   -0.4682   22.7886 C   0  0  1  0  0  0  0  0  0  0  0  0
    7.5397   -0.0941   24.0973 C   0  0  0  0  0  0  0  0  0  0  0  0
    7.8861    1.2407   24.5487 N   0  0  0  0  0  0  0  0  0  0  0  0
    6.8655    2.1800   24.9571 C   0  0  0  0  0  0  0  0  0  0  0  0
    6.6204    3.2643   23.9536 C   0  0  0  0  0  0  0  0  0  0  0  0
    5.4682    3.7345   23.6005 N   0  0  0  0  0  0  0  0  0  0  0  0
    5.7280    4.7355   22.6680 N   0  0  0  0  0  0  0  0  0  0  0  0
    7.0060    4.7862   22.5548 C   0  0  0  0  0  0  0  0  0  0  0  0
    7.6414    3.8930   23.3451 O   0  0  0  0  0  0  0  0  0  0  0  0
    7.6072    5.4392   21.9371 H   0  0  0  0  0  0  0  0  0  0  0  0
    7.1575    2.6246   25.9148 H   0  0  0  0  0  0  0  0  0  0  0  0
    5.9199    1.6514   25.0916 H   0  0  0  0  0  0  0  0  0  0  0  0
    7.7967   -0.8270   24.8779 H   0  0  0  0  0  0  0  0  0  0  0  0
    6.4575   -0.1238   23.9198 H   0  0  0  0  0  0  0  0  0  0  0  0
    7.7215    0.3807   21.6164 C   0  0  0  0  0  0  0  0  0  0  0  0
    7.9171    1.5578   21.4031 O   0  0  0  0  0  0  0  0  0  0  0  0
    6.9229   -0.4210   20.8295 N   0  0  0  0  0  0  0  0  0  0  0  0
    6.1377    0.1003   19.7668 C   0  0  0  0  0  0  0  0  0  0  0  0
    6.4435   -0.2264   18.4698 C   0  0  0  0  0  0  0  0  0  0  0  0
    5.7696    0.2229   17.3815 N   0  0  0  0  0  0  0  0  0  0  0  0
    4.7469    1.0172   17.5896 C   0  0  0  0  0  0  0  0  0  0  0  0
    4.2948    1.4123   18.8797 C   0  0  0  0  0  0  0  0  0  0  0  0
    3.1642    2.2583   19.0535 C   0  0  0  0  0  0  0  0  0  0  0  0
    2.7309    2.5930   20.3050 C   0  0  0  0  0  0  0  0  0  0  0  0
    3.4074    2.0940   21.4423 C   0  0  0  0  0  0  0  0  0  0  0  0
    4.5124    1.2910   21.3005 C   0  0  0  0  0  0  0  0  0  0  0  0
    4.9950    0.9343   20.0114 C   0  0  0  0  0  0  0  0  0  0  0  0
    5.0361    0.9215   22.1787 H   0  0  0  0  0  0  0  0  0  0  0  0
    3.0758    2.3796   22.4363 H   0  0  0  0  0  0  0  0  0  0  0  0
    1.8761    3.2535   20.4335 H   0  0  0  0  0  0  0  0  0  0  0  0
    2.6599    2.6359   18.1673 H   0  0  0  0  0  0  0  0  0  0  0  0
    4.2179    1.3836   16.7097 H   0  0  0  0  0  0  0  0  0  0  0  0
    7.2893   -0.8799   18.2606 H   0  0  0  0  0  0  0  0  0  0  0  0
    6.7877   -1.7771   21.3184 C   0  0  0  0  0  0  0  0  0  0  0  0
    7.9477   -1.9189   22.3179 C   0  0  2  0  0  0  0  0  0  0  0  0
    7.6487   -2.9738   23.4076 C   0  0  0  0  0  0  0  0  0  0  0  0
    7.5178   -4.3203   22.8771 N   0  0  0  0  0  0  0  0  0  0  0  0
    6.3584   -4.9183   22.5626 C   0  0  0  0  0  0  0  0  0  0  0  0
    5.1984   -4.3009   22.8701 N   0  0  0  0  0  0  0  0  0  0  0  0
    4.1214   -5.0135   22.5664 C   0  0  0  0  0  0  0  0  0  0  0  0
    4.0989   -6.2055   21.9812 N   0  0  0  0  0  0  0  0  0  0  0  0
    5.3083   -6.6904   21.6819 C   0  0  0  0  0  0  0  0  0  0  0  0
    6.4676   -6.1166   21.9393 N   0  0  0  0  0  0  0  0  0  0  0  0
    5.3244   -7.6514   21.1616 H   0  0  0  0  0  0  0  0  0  0  0  0
    3.1578   -4.5730   22.8112 H   0  0  0  0  0  0  0  0  0  0  0  0
    8.3376   -4.8435   22.6091 H   0  0  0  0  0  0  0  0  0  0  0  0
    6.7095   -2.7436   23.9256 H   0  0  0  0  0  0  0  0  0  0  0  0
    8.4614   -2.9979   24.1403 H   0  0  0  0  0  0  0  0  0  0  0  0
    8.8329   -2.2645   21.7779 H   0  0  0  0  0  0  0  0  0  0  0  0
    6.8428   -2.4947   20.4949 H   0  0  0  0  0  0  0  0  0  0  0  0
    5.8202   -1.9325   21.8182 H   0  0  0  0  0  0  0  0  0  0  0  0
   10.4026   -1.2785   21.2353 H   0  0  0  0  0  0  0  0  0  0  0  0
   13.5306    0.7451   23.3300 H   0  0  0  0  0  0  0  0  0  0  0  0
   11.8051    1.7613   24.8428 H   0  0  0  0  0  0  0  0  0  0  0  0
  1  2  2  0
  2  3  1  0
  3  4  2  0
  4  5  1  0
  5  6  2  0
  6  7  1  0
  6  8  1  0
  8  9  2  0
  9 10  1  0
 10 11  1  1
 11 12  1  0
 12 13  1  0
 13 14  1  0
 14 15  2  0
 15 16  1  0
 16 17  2  0
 17 18  1  0
 17 19  1  0
 13 20  1  0
 13 21  1  0
 11 22  1  0
 11 23  1  0
 10 24  1  0
 24 25  2  0
 24 26  1  0
 26 27  1  0
 27 28  2  0
 28 29  1  0
 29 30  2  0
 30 31  1  0
 31 32  2  0
 32 33  1  0
 33 34  2  0
 34 35  1  0
 35 36  2  0
 35 37  1  0
 34 38  1  0
 33 39  1  0
 32 40  1  0
 30 41  1  0
 28 42  1  0
 26 43  1  0
 43 44  1  0
 44 45  1  0
 45 46  1  0
 46 47  1  0
 47 48  2  0
 48 49  1  0
 49 50  2  0
 50 51  1  0
 51 52  2  0
 51 53  1  0
 49 54  1  0
 46 55  1  0
 45 56  1  0
 45 57  1  0
 44 58  1  6
 43 59  1  0
 43 60  1  0
  8 61  1  0
  5 62  1  0
  4 63  1  0
 12  2  1  0
 18 14  1  0
 36 27  1  0
 52 47  1  0
  9  3  1  0
 44 10  1  0
 36 31  1  0
M  END
>  <cnnaffinities>  (1) 
[6.73205, 7.07238, 6.69831, 6.5503]

>  <score>  (1) 
6.73205

>  <index>  (1) 
0

>  <Smiles>  (1) 
O=C1c2c(c(c(Cl)c(c2[C@@]2(C(N1C(c1nnc(o1)[H])([H])[H])([H])[H])C(=O)N(c1c(nc(c3c(c(c(c(c13)[H])[H])[H])[H])[H])[H])C([C@@]2(C(N(c1nc(nc(n1)[H])[H])[H])([H])[H])[H])([H])[H])[H])[H])[H]

>  <h>  (1) 
<NA>

>  <Training>  (1) 
True

>  <Success>  (1) 
True

>  <enamine_searched>  (1) 
False

>  <enamine_id>  (1) 
nan

$$$$

     RDKit          3D

 51 54  0  0  0  0  0  0  0  0999 V2000
    1.2187   -4.8413   25.7559 C   0  0  0  0  0  0  0  0  0  0  0  0
    1.7997   -3.6051   26.1190 O   0  0  0  0  0  0  0  0  0  0  0  0
    2.8098   -3.1476   25.3285 C   0  0  0  0  0  0  0  0  0  0  0  0
    3.5445   -3.9558   24.4679 C   0  0  0  0  0  0  0  0  0  0  0  0
    4.4732   -3.3912   23.6002 C   0  0  0  0  0  0  0  0  0  0  0  0
    4.7825   -2.0358   23.6772 C   0  0  0  0  0  0  0  0  0  0  0  0
    5.8514   -1.4516   22.9115 N   0  0  0  0  0  0  0  0  0  0  0  0
    7.0758   -1.1481   23.6561 C   0  0  0  0  0  0  0  0  0  0  0  0
    7.8784   -2.3629   24.0526 C   0  0  0  0  0  0  0  0  0  0  0  0
    8.9209   -2.9497   23.3389 C   0  0  0  0  0  0  0  0  0  0  0  0
    9.5324   -4.1262   24.2372 C   0  0  0  0  0  0  0  0  0  0  0  0
    9.5064   -4.4579   24.0943 C   0  0  0  0  0  0  0  0  0  0  0  0
    8.4698   -4.0171   25.6625 C   0  0  0  0  0  0  0  0  0  0  0  0
    8.7870   -4.7229   27.2242 Cl  0  0  0  0  0  0  0  0  0  0  0  0
    7.6764   -2.9721   25.3603 C   0  0  0  0  0  0  0  0  0  0  0  0
    6.9522   -2.5615   26.0475 H   0  0  0  0  0  0  0  0  0  0  0  0
    9.0183   -5.4132   23.6831 H   0  0  0  0  0  0  0  0  0  0  0  0
   10.7157   -4.5845   24.3507 H   0  0  0  0  0  0  0  0  0  0  0  0
    9.6884   -2.3050   22.9061 H   0  0  0  0  0  0  0  0  0  0  0  0
    7.6858   -0.4346   23.0947 H   0  0  0  0  0  0  0  0  0  0  0  0
    6.7650   -0.6226   24.5645 H   0  0  0  0  0  0  0  0  0  0  0  0
    5.7735   -1.5238   21.5258 C   0  0  0  0  0  0  0  0  0  0  0  0
    4.9570   -2.2251   20.9614 O   0  0  0  0  0  0  0  0  0  0  0  0
    6.7143   -0.6211   20.7066 C   0  0  0  0  0  0  0  0  0  0  0  0
    5.9899    0.0366   19.5580 C   0  0  0  0  0  0  0  0  0  0  0  0
    6.3196   -0.2195   18.2539 C   0  0  0  0  0  0  0  0  0  0  0  0
    5.6800    0.2906   17.1678 N   0  0  0  0  0  0  0  0  0  0  0  0
    4.6642    1.0873   17.3968 C   0  0  0  0  0  0  0  0  0  0  0  0
    4.2138    1.4523   18.6947 C   0  0  0  0  0  0  0  0  0  0  0  0
    3.1011    2.3116   18.8945 C   0  0  0  0  0  0  0  0  0  0  0  0
    2.7188    2.6709   20.1582 C   0  0  0  0  0  0  0  0  0  0  0  0
    3.4426    2.2001   21.2770 C   0  0  0  0  0  0  0  0  0  0  0  0
    4.5171    1.3642   21.1071 C   0  0  0  0  0  0  0  0  0  0  0  0
    4.9138    0.9401   19.8093 C   0  0  0  0  0  0  0  0  0  0  0  0
    5.0728    1.0292   21.9766 H   0  0  0  0  0  0  0  0  0  0  0  0
    3.1496    2.5038   22.2775 H   0  0  0  0  0  0  0  0  0  0  0  0
    1.8662    3.3262   20.3117 H   0  0  0  0  0  0  0  0  0  0  0  0
    2.5674    2.6833   18.0231 H   0  0  0  0  0  0  0  0  0  0  0  0
    4.1478    1.4951   16.5269 H   0  0  0  0  0  0  0  0  0  0  0  0
    7.1545   -0.8802   18.0216 H   0  0  0  0  0  0  0  0  0  0  0  0
    7.1661    0.1423   21.3449 H   0  0  0  0  0  0  0  0  0  0  0  0
    7.5343   -1.2507   20.3356 H   0  0  0  0  0  0  0  0  0  0  0  0
    4.0670   -1.2382   24.5750 C   0  0  0  0  0  0  0  0  0  0  0  0
    3.0772   -1.7795   25.3803 C   0  0  0  0  0  0  0  0  0  0  0  0
    2.5048   -1.1625   26.0660 H   0  0  0  0  0  0  0  0  0  0  0  0
    4.2676   -0.1682   24.6149 H   0  0  0  0  0  0  0  0  0  0  0  0
    4.8968   -4.0157   22.8201 H   0  0  0  0  0  0  0  0  0  0  0  0
    3.3649   -5.0247   24.4255 H   0  0  0  0  0  0  0  0  0  0  0  0
    1.8661   -5.6875   26.0230 H   0  0  0  0  0  0  0  0  0  0  0  0
    0.2770   -4.9212   26.3038 H   0  0  0  0  0  0  0  0  0  0  0  0
    1.0168   -4.8737   24.6775 H   0  0  0  0  0  0  0  0  0  0  0  0
  1  2  1  0
  2  3  1  0
  3  4  2  0
  4  5  1  0
  5  6  2  0
  6  7  1  0
  7  8  1  0
  8  9  1  0
  9 10  2  0
 10 11  1  0
 11 12  2  0
 12 13  1  0
 13 14  1  0
 13 15  2  0
 15 16  1  0
 12 17  1  0
 11 18  1  0
 10 19  1  0
  8 20  1  0
  8 21  1  0
  7 22  1  0
 22 23  2  0
 22 24  1  0
 24 25  1  0
 25 26  2  0
 26 27  1  0
 27 28  2  0
 28 29  1  0
 29 30  2  0
 30 31  1  0
 31 32  2  0
 32 33  1  0
 33 34  2  0
 33 35  1  0
 32 36  1  0
 31 37  1  0
 30 38  1  0
 28 39  1  0
 26 40  1  0
 24 41  1  0
 24 42  1  0
  6 43  1  0
 43 44  2  0
 44 45  1  0
 43 46  1  0
  5 47  1  0
  4 48  1  0
  1 49  1  0
  1 50  1  0
  1 51  1  0
 44  3  1  0
 15  9  1  0
 34 25  1  0
 34 29  1  0
M  END
>  <cnnaffinities>  (2) 
[5.13777]

>  <score>  (2) 
5.13777

>  <index>  (2) 
1

>  <Smiles>  (2) 
C(Oc1c(c(c(N(C(c2c(c(c(c(Cl)c2[H])[H])[H])[H])([H])[H])C(=O)C(c2c(nc(c3c(c(c(c(c23)[H])[H])[H])[H])[H])[H])([H])[H])c(c1[H])[H])[H])[H])([H])([H])[H]

>  <h>  (2) 
<NA>

>  <Training>  (2) 
True

>  <Success>  (2) 
True

>  <enamine_searched>  (2) 
False

>  <enamine_id>  (2) 
nan

$$$$

     RDKit          3D

 56 60  0  0  0  0  0  0  0  0999 V2000
    2.5337   -5.5754   22.5513 C   0  0  0  0  0  0  0  0  0  0  0  0
    3.7212   -5.4274   23.3658 N   0  0  0  0  0  0  0  0  0  0  0  0
    4.9356   -5.2958   22.7724 C   0  0  0  0  0  0  0  0  0  0  0  0
    5.0859   -5.3026   21.5596 O   0  0  0  0  0  0  0  0  0  0  0  0
    6.1391   -5.1125   23.7102 C   0  0  0  0  0  0  0  0  0  0  0  0
    6.4036   -3.6933   23.8990 N   0  0  0  0  0  0  0  0  0  0  0  0
    7.5359   -3.1049   23.2026 C   0  0  0  0  0  0  0  0  0  0  0  0
    7.3428   -1.6042   22.8781 C   0  0  2  0  0  0  0  0  0  0  0  0
    6.3385   -1.4041   21.7157 C   0  0  0  0  0  0  0  0  0  0  0  0
    5.2556   -1.9212   21.5860 O   0  0  0  0  0  0  0  0  0  0  0  0
    6.8637   -0.4808   20.8414 N   0  0  0  0  0  0  0  0  0  0  0  0
    6.1071    0.0618   19.7770 C   0  0  0  0  0  0  0  0  0  0  0  0
    6.4642   -0.2107   18.4810 C   0  0  0  0  0  0  0  0  0  0  0  0
    5.8012    0.2416   17.3881 N   0  0  0  0  0  0  0  0  0  0  0  0
    4.7607    1.0122   17.5974 C   0  0  0  0  0  0  0  0  0  0  0  0
    4.3051    1.4037   18.8887 C   0  0  0  0  0  0  0  0  0  0  0  0
    3.1888    2.2656   19.0472 C   0  0  0  0  0  0  0  0  0  0  0  0
    2.7883    2.6565   20.2940 C   0  0  0  0  0  0  0  0  0  0  0  0
    3.4857    2.2064   21.4392 C   0  0  0  0  0  0  0  0  0  0  0  0
    4.5671    1.3685   21.3183 C   0  0  0  0  0  0  0  0  0  0  0  0
    4.9950    0.9306   20.0273 C   0  0  0  0  0  0  0  0  0  0  0  0
    5.1021    1.0420   22.2129 H   0  0  0  0  0  0  0  0  0  0  0  0
    3.1615    2.5339   22.4229 H   0  0  0  0  0  0  0  0  0  0  0  0
    1.9383    3.3230   20.4141 H   0  0  0  0  0  0  0  0  0  0  0  0
    2.6773    2.6154   18.1543 H   0  0  0  0  0  0  0  0  0  0  0  0
    4.2238    1.3805   16.7218 H   0  0  0  0  0  0  0  0  0  0  0  0
    7.3196   -0.8555   18.2812 H   0  0  0  0  0  0  0  0  0  0  0  0
    8.2078   -0.0468   21.1499 C   0  0  0  0  0  0  0  0  0  0  0  0
    8.6419   -0.9425   22.3256 C   0  0  2  0  0  0  0  0  0  0  0  0
    9.6794   -1.9449   21.8374 N   0  0  0  0  0  4  0  0  0  0  0  0
    9.3095   -2.4986   21.0431 H   0  0  0  0  0  0  0  0  0  0  0  0
   10.5330   -1.4505   21.5244 H   0  0  0  0  0  0  0  0  0  0  0  0
    9.9509   -2.5799   22.6016 H   0  0  0  0  0  0  0  0  0  0  0  0
    9.1252   -0.3658   23.1095 H   0  0  0  0  0  0  0  0  0  0  0  0
    8.8743   -0.2044   20.3048 H   0  0  0  0  0  0  0  0  0  0  0  0
    8.2297    1.0208   21.4002 H   0  0  0  0  0  0  0  0  0  0  0  0
    6.7946   -0.8949   24.1131 C   0  0  0  0  0  0  0  0  0  0  0  0
    6.9836    0.4762   24.3312 C   0  0  0  0  0  0  0  0  0  0  0  0
    6.4535    1.0783   25.4621 C   0  0  0  0  0  0  0  0  0  0  0  0
    6.7013    2.7831   25.7175 Cl  0  0  0  0  0  0  0  0  0  0  0  0
    5.7114    0.3588   26.3964 C   0  0  0  0  0  0  0  0  0  0  0  0
    5.4733   -0.9775   26.1564 C   0  0  0  0  0  0  0  0  0  0  0  0
    5.9897   -1.5930   25.0186 C   0  0  0  0  0  0  0  0  0  0  0  0
    5.6264   -3.0194   24.7804 C   0  0  0  0  0  0  0  0  0  0  0  0
    4.6757   -3.5641   25.3485 O   0  0  0  0  0  0  0  0  0  0  0  0
    4.8884   -1.5762   26.8458 H   0  0  0  0  0  0  0  0  0  0  0  0
    5.3190    0.8505   27.2789 H   0  0  0  0  0  0  0  0  0  0  0  0
    7.5385    1.0915   23.6311 H   0  0  0  0  0  0  0  0  0  0  0  0
    7.6319   -3.6717   22.2731 H   0  0  0  0  0  0  0  0  0  0  0  0
    8.4324   -3.2426   23.8231 H   0  0  0  0  0  0  0  0  0  0  0  0
    6.9897   -5.5579   23.1851 H   0  0  0  0  0  0  0  0  0  0  0  0
    6.0113   -5.6065   24.6858 H   0  0  0  0  0  0  0  0  0  0  0  0
    3.6041   -5.0398   24.2912 H   0  0  0  0  0  0  0  0  0  0  0  0
    2.5513   -6.5165   22.0054 H   0  0  0  0  0  0  0  0  0  0  0  0
    2.4376   -4.7809   21.8072 H   0  0  0  0  0  0  0  0  0  0  0  0
    1.6710   -5.5640   23.2234 H   0  0  0  0  0  0  0  0  0  0  0  0
  1  2  1  0
  2  3  1  0
  3  4  2  0
  3  5  1  0
  5  6  1  0
  6  7  1  0
  8  7  1  1
  8  9  1  0
  9 10  2  0
  9 11  1  0
 11 12  1  0
 12 13  2  0
 13 14  1  0
 14 15  2  0
 15 16  1  0
 16 17  2  0
 17 18  1  0
 18 19  2  0
 19 20  1  0
 20 21  2  0
 20 22  1  0
 19 23  1  0
 18 24  1  0
 17 25  1  0
 15 26  1  0
 13 27  1  0
 11 28  1  0
 28 29  1  0
 29 30  1  0
 30 31  1  0
 30 32  1  0
 30 33  1  0
 29 34  1  1
 28 35  1  0
 28 36  1  0
  8 37  1  0
 37 38  2  0
 38 39  1  0
 39 40  1  0
 39 41  2  0
 41 42  1  0
 42 43  2  0
 43 44  1  0
 44 45  2  0
 42 46  1  0
 41 47  1  0
 38 48  1  0
  7 49  1  0
  7 50  1  0
  5 51  1  0
  5 52  1  0
  2 53  1  0
  1 54  1  0
  1 55  1  0
  1 56  1  0
 44  6  1  0
 29  8  1  0
 43 37  1  0
 21 12  1  0
 21 16  1  0
M  CHG  1  30   1
M  END
>  <cnnaffinities>  (3) 
[6.33857, 6.36145, 6.25088]

>  <score>  (3) 
6.33857

>  <index>  (3) 
2

>  <Smiles>  (3) 
C(N(C(=O)C(N1C([C@@]2(C(=O)N(c3c(nc(c4c(c(c(c(c34)[H])[H])[H])[H])[H])[H])C([C@@]2([N+]([H])([H])[H])[H])([H])[H])c2c(c(Cl)c(c(c2C1=O)[H])[H])[H])([H])[H])([H])[H])[H])([H])([H])[H]

>  <h>  (3) 
<NA>

>  <Training>  (3) 
True

>  <Success>  (3) 
True

>  <enamine_searched>  (3) 
False

>  <enamine_id>  (3) 
nan

$$$$

     RDKit          3D

 67 73  0  0  0  0  0  0  0  0999 V2000
    9.2470    2.5421   25.5185 O   0  0  0  0  0  0  0  0  0  0  0  0
    8.9795    1.5845   24.8115 C   0  0  0  0  0  0  0  0  0  0  0  0
   10.0235    0.7819   24.0902 C   0  0  0  0  0  0  0  0  0  0  0  0
   11.3580    1.0843   24.3302 C   0  0  0  0  0  0  0  0  0  0  0  0
   12.3532    0.6168   23.4971 C   0  0  0  0  0  0  0  0  0  0  0  0
   11.9720   -0.1261   22.3767 C   0  0  0  0  0  0  0  0  0  0  0  0
   13.1204   -0.4020   21.0929 Cl  0  0  0  0  0  0  0  0  0  0  0  0
   10.6661   -0.5540   22.2054 C   0  0  0  0  0  0  0  0  0  0  0  0
    9.6688   -0.1310   23.0918 C   0  0  0  0  0  0  0  0  0  0  0  0
    8.2110   -0.4748   22.8333 C   0  0  1  0  0  0  0  0  0  0  0  0
    7.3989   -0.1333   24.1085 C   0  0  0  0  0  0  0  0  0  0  0  0
    7.6935    1.2090   24.5565 N   0  0  0  0  0  0  0  0  0  0  0  0
    6.6021    2.1021   24.8945 C   0  0  0  0  0  0  0  0  0  0  0  0
    5.8125    1.6508   26.1049 C   0  0  0  0  0  0  0  0  0  0  0  0
    6.3037    1.8080   27.3827 C   0  0  0  0  0  0  0  0  0  0  0  0
    5.5303    1.3135   28.4312 C   0  0  0  0  0  0  0  0  0  0  0  0
    4.3571    0.7090   28.2598 N   0  0  0  0  0  0  0  0  0  0  0  0
    3.8726    0.5636   27.0366 N   0  0  0  0  0  0  0  0  0  0  0  0
    4.5704    1.0161   25.9977 C   0  0  0  0  0  0  0  0  0  0  0  0
    4.0931    0.8566   25.0318 H   0  0  0  0  0  0  0  0  0  0  0  0
    5.8567    1.3980   29.4664 H   0  0  0  0  0  0  0  0  0  0  0  0
    7.2619    2.2986   27.5627 H   0  0  0  0  0  0  0  0  0  0  0  0
    5.9473    2.1847   24.0137 H   0  0  0  0  0  0  0  0  0  0  0  0
    7.0672    3.0723   25.0836 H   0  0  0  0  0  0  0  0  0  0  0  0
    6.3206   -0.1952   23.9142 H   0  0  0  0  0  0  0  0  0  0  0  0
    7.6500   -0.8467   24.9102 H   0  0  0  0  0  0  0  0  0  0  0  0
    7.6671    0.3803   21.6627 C   0  0  0  0  0  0  0  0  0  0  0  0
    7.8277    1.5702   21.4937 O   0  0  0  0  0  0  0  0  0  0  0  0
    6.9212   -0.4256   20.8293 N   0  0  0  0  0  0  0  0  0  0  0  0
    6.1384    0.1004   19.7683 C   0  0  0  0  0  0  0  0  0  0  0  0
    6.4428   -0.2265   18.4707 C   0  0  0  0  0  0  0  0  0  0  0  0
    5.7692    0.2238   17.3834 N   0  0  0  0  0  0  0  0  0  0  0  0
    4.7472    1.0189   17.5940 C   0  0  0  0  0  0  0  0  0  0  0  0
    4.2990    1.4168   18.8859 C   0  0  0  0  0  0  0  0  0  0  0  0
    3.1718    2.2674   19.0600 C   0  0  0  0  0  0  0  0  0  0  0  0
    2.7463    2.6086   20.3151 C   0  0  0  0  0  0  0  0  0  0  0  0
    3.4213    2.1098   21.4510 C   0  0  0  0  0  0  0  0  0  0  0  0
    4.5132    1.2913   21.3076 C   0  0  0  0  0  0  0  0  0  0  0  0
    4.9987    0.9372   20.0149 C   0  0  0  0  0  0  0  0  0  0  0  0
    5.0266    0.9069   22.1824 H   0  0  0  0  0  0  0  0  0  0  0  0
    3.0778    2.3870   22.4440 H   0  0  0  0  0  0  0  0  0  0  0  0
    1.8911    3.2677   20.4425 H   0  0  0  0  0  0  0  0  0  0  0  0
    2.6625    2.6404   18.1750 H   0  0  0  0  0  0  0  0  0  0  0  0
    4.2172    1.3853   16.7142 H   0  0  0  0  0  0  0  0  0  0  0  0
    7.2894   -0.8799   18.2636 H   0  0  0  0  0  0  0  0  0  0  0  0
    6.8137   -1.7970   21.2876 C   0  0  0  0  0  0  0  0  0  0  0  0
    7.9414   -1.9202   22.3270 C   0  0  2  0  0  0  0  0  0  0  0  0
    7.6419   -2.9926   23.3970 C   0  0  0  0  0  0  0  0  0  0  0  0
    7.5880   -4.3305   22.8403 N   0  0  0  0  0  0  0  0  0  0  0  0
    6.4555   -4.9702   22.4585 C   0  0  0  0  0  0  0  0  0  0  0  0
    6.5422   -6.2079   21.7789 C   0  0  0  0  0  0  0  0  0  0  0  0
    5.3520   -6.8263   21.4866 C   0  0  0  0  0  0  0  0  0  0  0  0
    4.1598   -6.3180   21.8394 N   0  0  0  0  0  0  0  0  0  0  0  0
    4.1924   -5.1326   22.4223 C   0  0  0  0  0  0  0  0  0  0  0  0
    5.2686   -4.4105   22.7400 N   0  0  0  0  0  0  0  0  0  0  0  0
    3.2233   -4.6869   22.6501 H   0  0  0  0  0  0  0  0  0  0  0  0
    5.3274   -7.7631   20.9254 H   0  0  0  0  0  0  0  0  0  0  0  0
    7.4998   -6.6545   21.5211 H   0  0  0  0  0  0  0  0  0  0  0  0
    8.4613   -4.7722   22.5971 H   0  0  0  0  0  0  0  0  0  0  0  0
    6.6772   -2.7949   23.8808 H   0  0  0  0  0  0  0  0  0  0  0  0
    8.4269   -2.9832   24.1633 H   0  0  0  0  0  0  0  0  0  0  0  0
    8.8547   -2.2285   21.8097 H   0  0  0  0  0  0  0  0  0  0  0  0
    5.8355   -1.9915   21.7499 H   0  0  0  0  0  0  0  0  0  0  0  0
    6.9221   -2.4979   20.4557 H   0  0  0  0  0  0  0  0  0  0  0  0
   10.4331   -1.1785   21.3509 H   0  0  0  0  0  0  0  0  0  0  0  0
   13.3952    0.8505   23.6656 H   0  0  0  0  0  0  0  0  0  0  0  0
   11.5464    1.7681   25.1385 H   0  0  0  0  0  0  0  0  0  0  0  0
  1  2  2  0
  2  3  1  0
  3  4  2  0
  4  5  1  0
  5  6  2  0
  6  7  1  0
  6  8  1  0
  8  9  2  0
  9 10  1  0
 10 11  1  1
 11 12  1  0
 12 13  1  0
 13 14  1  0
 14 15  2  0
 15 16  1  0
 16 17  2  0
 17 18  1  0
 18 19  2  0
 19 20  1  0
 16 21  1  0
 15 22  1  0
 13 23  1  0
 13 24  1  0
 11 25  1  0
 11 26  1  0
 10 27  1  0
 27 28  2  0
 27 29  1  0
 29 30  1  0
 30 31  2  0
 31 32  1  0
 32 33  2  0
 33 34  1  0
 34 35  2  0
 35 36  1  0
 36 37  2  0
 37 38  1  0
 38 39  2  0
 38 40  1  0
 37 41  1  0
 36 42  1  0
 35 43  1  0
 33 44  1  0
 31 45  1  0
 29 46  1  0
 46 47  1  0
 47 48  1  0
 48 49  1  0
 49 50  1  0
 50 51  2  0
 51 52  1  0
 52 53  2  0
 53 54  1  0
 54 55  2  0
 54 56  1  0
 52 57  1  0
 51 58  1  0
 49 59  1  0
 48 60  1  0
 48 61  1  0
 47 62  1  6
 46 63  1  0
 46 64  1  0
  8 65  1  0
  5 66  1  0
  4 67  1  0
 12  2  1  0
 19 14  1  0
 39 30  1  0
 55 50  1  0
  9  3  1  0
 47 10  1  0
 39 34  1  0
M  END
>  <cnnaffinities>  (4) 
[6.82703, 6.85668]

>  <score>  (4) 
6.82703

>  <index>  (4) 
3

>  <Smiles>  (4) 
O=C1c2c(c(c(Cl)c(c2[C@@]2(C(N1C(c1c(c(nnc1[H])[H])[H])([H])[H])([H])[H])C(=O)N(c1c(nc(c3c(c(c(c(c13)[H])[H])[H])[H])[H])[H])C([C@@]2(C(N(c1c(c(nc(n1)[H])[H])[H])[H])([H])[H])[H])([H])[H])[H])[H])[H]

>  <h>  (4) 
<NA>

>  <Training>  (4) 
True

>  <Success>  (4) 
True

>  <enamine_searched>  (4) 
False

>  <enamine_id>  (4) 
nan

$$$$

     RDKit          3D

 41 44  0  0  0  0  0  0  0  0999 V2000
    9.0967    2.1664   23.9919 C   0  0  0  0  0  0  0  0  0  0  0  0
    9.7503    1.2153   22.9809 C   0  0  1  0  0  0  0  0  0  0  0  0
   10.9904    0.6113   23.5550 C   0  0  0  0  0  0  0  0  0  0  0  0
   12.2990    1.1937   23.6249 C   0  0  0  0  0  0  0  0  0  0  0  0
   13.1785    0.3747   24.2550 C   0  0  0  0  0  0  0  0  0  0  0  0
   12.4181   -1.0475   24.8565 S   0  0  0  0  0  0  0  0  0  0  0  0
   10.9154   -0.5891   24.1729 C   0  0  0  0  0  0  0  0  0  0  0  0
    9.6451   -1.3557   24.2766 C   0  0  0  0  0  0  0  0  0  0  0  0
    8.8178   -1.1896   23.0082 C   0  0  0  0  0  0  0  0  0  0  0  0
    8.8009    0.1859   22.5018 N   0  0  0  0  0  0  0  0  0  0  0  0
    7.9532    0.5849   21.5009 C   0  0  0  0  0  0  0  0  0  0  0  0
    7.9810    1.7284   21.0679 O   0  0  0  0  0  0  0  0  0  0  0  0
    6.9621   -0.4533   20.9125 C   0  0  0  0  0  0  0  0  0  0  0  0
    6.1271    0.0909   19.7772 C   0  0  0  0  0  0  0  0  0  0  0  0
    6.4352   -0.2091   18.4765 C   0  0  0  0  0  0  0  0  0  0  0  0
    5.7692    0.2403   17.3787 N   0  0  0  0  0  0  0  0  0  0  0  0
    4.7428    1.0252   17.5842 C   0  0  0  0  0  0  0  0  0  0  0  0
    4.2956    1.4214   18.8730 C   0  0  0  0  0  0  0  0  0  0  0  0
    3.1779    2.2762   19.0465 C   0  0  0  0  0  0  0  0  0  0  0  0
    2.7714    2.6451   20.2971 C   0  0  0  0  0  0  0  0  0  0  0  0
    3.4723    2.1721   21.4332 C   0  0  0  0  0  0  0  0  0  0  0  0
    4.5603    1.3470   21.2901 C   0  0  0  0  0  0  0  0  0  0  0  0
    5.0036    0.9465   20.0023 C   0  0  0  0  0  0  0  0  0  0  0  0
    5.1003    0.9980   22.1664 H   0  0  0  0  0  0  0  0  0  0  0  0
    3.1460    2.4752   22.4231 H   0  0  0  0  0  0  0  0  0  0  0  0
    1.9202    3.3086   20.4284 H   0  0  0  0  0  0  0  0  0  0  0  0
    2.6624    2.6361   18.1586 H   0  0  0  0  0  0  0  0  0  0  0  0
    4.2097    1.3862   16.7030 H   0  0  0  0  0  0  0  0  0  0  0  0
    7.2776   -0.8593   18.2395 H   0  0  0  0  0  0  0  0  0  0  0  0
    6.3159   -0.8468   21.7112 H   0  0  0  0  0  0  0  0  0  0  0  0
    7.5422   -1.3131   20.5485 H   0  0  0  0  0  0  0  0  0  0  0  0
    9.1972   -1.8737   22.2353 H   0  0  0  0  0  0  0  0  0  0  0  0
    7.7903   -1.4825   23.2396 H   0  0  0  0  0  0  0  0  0  0  0  0
    9.8344   -2.4148   24.4545 H   0  0  0  0  0  0  0  0  0  0  0  0
    9.0771   -0.9700   25.1339 H   0  0  0  0  0  0  0  0  0  0  0  0
   14.2541    0.4214   24.3021 H   0  0  0  0  0  0  0  0  0  0  0  0
   12.5656    2.1687   23.2236 H   0  0  0  0  0  0  0  0  0  0  0  0
   10.0171    1.7907   22.0890 H   0  0  0  0  0  0  0  0  0  0  0  0
    8.7922    1.6019   24.8811 H   0  0  0  0  0  0  0  0  0  0  0  0
    9.8393    2.9081   24.3046 H   0  0  0  0  0  0  0  0  0  0  0  0
    8.2342    2.6798   23.5567 H   0  0  0  0  0  0  0  0  0  0  0  0
  1  2  1  0
  2  3  1  0
  3  4  1  0
  4  5  2  0
  5  6  1  0
  6  7  1  0
  7  8  1  0
  8  9  1  0
  9 10  1  0
 10 11  1  0
 11 12  2  0
 11 13  1  0
 13 14  1  0
 14 15  2  0
 15 16  1  0
 16 17  2  0
 17 18  1  0
 18 19  2  0
 19 20  1  0
 20 21  2  0
 21 22  1  0
 22 23  2  0
 22 24  1  0
 21 25  1  0
 20 26  1  0
 19 27  1  0
 17 28  1  0
 15 29  1  0
 13 30  1  0
 13 31  1  0
  9 32  1  0
  9 33  1  0
  8 34  1  0
  8 35  1  0
  5 36  1  0
  4 37  1  0
  2 38  1  6
  1 39  1  0
  1 40  1  0
  1 41  1  0
 10  2  1  0
 23 14  1  0
  7  3  2  0
 23 18  1  0
M  END
>  <cnnaffinities>  (5) 
[5.95581]

>  <score>  (5) 
5.95581

>  <index>  (5) 
4

>  <Smiles>  (5) 
C([C@]1(c2c(c(sc2C(C(N1C(=O)C(c1c(nc(c2c(c(c(c(c12)[H])[H])[H])[H])[H])[H])([H])[H])([H])[H])([H])[H])[H])[H])[H])([H])([H])[H]

>  <h>  (5) 
<NA>

>  <Training>  (5) 
True

>  <Success>  (5) 
True

>  <enamine_searched>  (5) 
False

>  <enamine_id>  (5) 
nan

$$$$

     RDKit          3D

 50 54  0  0  0  0  0  0  0  0999 V2000
   10.0246   -1.5465   22.4128 C   0  0  0  0  0  0  0  0  0  0  0  0
    8.6096   -0.9470   22.3633 C   0  0  1  0  0  0  0  0  0  0  0  0
    8.2940   -0.3537   20.9728 C   0  0  0  0  0  0  0  0  0  0  0  0
    6.8502   -0.4709   20.8602 N   0  0  0  0  0  0  0  0  0  0  0  0
    6.1031    0.0636   19.7785 C   0  0  0  0  0  0  0  0  0  0  0  0
    6.4397   -0.2237   18.4793 C   0  0  0  0  0  0  0  0  0  0  0  0
    5.7764    0.2404   17.3896 N   0  0  0  0  0  0  0  0  0  0  0  0
    4.7447    1.0219   17.5919 C   0  0  0  0  0  0  0  0  0  0  0  0
    4.2924    1.4191   18.8788 C   0  0  0  0  0  0  0  0  0  0  0  0
    3.1760    2.2809   19.0533 C   0  0  0  0  0  0  0  0  0  0  0  0
    2.7790    2.6575   20.3064 C   0  0  0  0  0  0  0  0  0  0  0  0
    3.4860    2.2000   21.4426 C   0  0  0  0  0  0  0  0  0  0  0  0
    4.5693    1.3725   21.2981 C   0  0  0  0  0  0  0  0  0  0  0  0
    4.9891    0.9392   20.0102 C   0  0  0  0  0  0  0  0  0  0  0  0
    5.1117    1.0216   22.1711 H   0  0  0  0  0  0  0  0  0  0  0  0
    3.1680    2.5091   22.4358 H   0  0  0  0  0  0  0  0  0  0  0  0
    1.9262    3.3217   20.4399 H   0  0  0  0  0  0  0  0  0  0  0  0
    2.6547    2.6405   18.1703 H   0  0  0  0  0  0  0  0  0  0  0  0
    4.2159    1.3835   16.7112 H   0  0  0  0  0  0  0  0  0  0  0  0
    7.2812   -0.8789   18.2535 H   0  0  0  0  0  0  0  0  0  0  0  0
    6.3155   -1.3981   21.7336 C   0  0  0  0  0  0  0  0  0  0  0  0
    5.1631   -1.7717   21.7125 O   0  0  0  0  0  0  0  0  0  0  0  0
    7.4225   -1.9002   22.6933 C   0  0  1  0  0  0  0  0  0  0  0  0
    7.7412   -3.3688   22.3403 C   0  0  0  0  0  0  0  0  0  0  0  0
    6.6207   -4.2214   22.6754 N   0  0  0  0  0  0  0  0  0  0  0  0
    6.1543   -5.2282   21.7475 C   0  0  0  0  0  0  0  0  0  0  0  0
    6.7553   -6.5627   21.9590 C   0  0  0  0  0  0  0  0  0  0  0  0
    7.2116   -7.6062   22.1513 N   0  0  0  0  0  0  0  0  0  0  0  0
    5.0674   -5.3308   21.8304 H   0  0  0  0  0  0  0  0  0  0  0  0
    6.3717   -4.8951   20.7241 H   0  0  0  0  0  0  0  0  0  0  0  0
    6.1486   -4.2496   23.9613 C   0  0  0  0  0  0  0  0  0  0  0  0
    5.5443   -5.2196   24.3951 O   0  0  0  0  0  0  0  0  0  0  0  0
    6.3753   -2.9910   24.7417 C   0  0  0  0  0  0  0  0  0  0  0  0
    5.9203   -2.9441   26.0601 C   0  0  0  0  0  0  0  0  0  0  0  0
    5.9194   -1.7620   26.7684 C   0  0  0  0  0  0  0  0  0  0  0  0
    6.3616   -0.6217   26.1095 C   0  0  0  0  0  0  0  0  0  0  0  0
    6.3150    0.5507   26.7650 F   0  0  0  0  0  0  0  0  0  0  0  0
    6.8402   -0.6392   24.8156 C   0  0  0  0  0  0  0  0  0  0  0  0
    6.9169   -1.8541   24.1229 C   0  0  0  0  0  0  0  0  0  0  0  0
    7.1149    0.3094   24.3658 H   0  0  0  0  0  0  0  0  0  0  0  0
    5.5689   -1.6861   27.7928 H   0  0  0  0  0  0  0  0  0  0  0  0
    5.5378   -3.8501   26.5104 H   0  0  0  0  0  0  0  0  0  0  0  0
    7.9081   -3.4362   21.2688 H   0  0  0  0  0  0  0  0  0  0  0  0
    8.6568   -3.7045   22.8539 H   0  0  0  0  0  0  0  0  0  0  0  0
    8.6000    0.6961   20.8915 H   0  0  0  0  0  0  0  0  0  0  0  0
    8.8149   -0.9087   20.1757 H   0  0  0  0  0  0  0  0  0  0  0  0
    8.5711   -0.1314   23.0913 H   0  0  0  0  0  0  0  0  0  0  0  0
   10.2390   -2.0107   23.3842 H   0  0  0  0  0  0  0  0  0  0  0  0
   10.7913   -0.7758   22.2392 H   0  0  0  0  0  0  0  0  0  0  0  0
   10.1649   -2.3216   21.6445 H   0  0  0  0  0  0  0  0  0  0  0  0
  1  2  1  0
  2  3  1  0
  3  4  1  0
  4  5  1  0
  5  6  2  0
  6  7  1  0
  7  8  2  0
  8  9  1  0
  9 10  2  0
 10 11  1  0
 11 12  2  0
 12 13  1  0
 13 14  2  0
 13 15  1  0
 12 16  1  0
 11 17  1  0
 10 18  1  0
  8 19  1  0
  6 20  1  0
  4 21  1  0
 21 22  2  0
 21 23  1  0
 23 24  1  6
 24 25  1  0
 25 26  1  0
 26 27  1  0
 27 28  3  0
 26 29  1  0
 26 30  1  0
 25 31  1  0
 31 32  2  0
 31 33  1  0
 33 34  2  0
 34 35  1  0
 35 36  2  0
 36 37  1  0
 36 38  1  0
 38 39  2  0
 38 40  1  0
 35 41  1  0
 34 42  1  0
 24 43  1  0
 24 44  1  0
  3 45  1  0
  3 46  1  0
  2 47  1  1
  1 48  1  0
  1 49  1  0
  1 50  1  0
 23  2  1  0
 39 33  1  0
 14  5  1  0
 39 23  1  0
 14  9  1  0
M  END
>  <cnnaffinities>  (6) 
[6.22526, 6.4071, 6.18001, 6.07859, 6.372]

>  <score>  (6) 
6.22526

>  <index>  (6) 
5

>  <Smiles>  (6) 
C([C@]1(C(N(c2c(nc(c3c(c(c(c(c23)[H])[H])[H])[H])[H])[H])C(=O)[C@]21C(N(C(C#N)([H])[H])C(=O)c1c(c(c(F)c(c21)[H])[H])[H])([H])[H])([H])[H])[H])([H])([H])[H]

>  <h>  (6) 
<NA>

>  <Training>  (6) 
True

>  <Success>  (6) 
True

>  <enamine_searched>  (6) 
False

>  <enamine_id>  (6) 
nan

$$$$

     RDKit          3D

 65 69  0  0  0  0  0  0  0  0999 V2000
    4.1952   -4.9166   26.0180 C   0  0  0  0  0  0  0  0  0  0  0  0
    5.6515   -5.3335   25.7562 C   0  0  0  0  0  0  0  0  0  0  0  0
    6.2693   -4.3443   24.8077 C   0  0  0  0  0  0  0  0  0  0  0  0
    5.9631   -4.2249   23.6607 O   0  0  0  0  0  0  0  0  0  0  0  0
    7.4239   -3.4077   25.4006 N   0  0  1  0  0  4  0  0  0  0  0  0
    8.8013   -3.9029   25.0119 C   0  0  0  0  0  0  0  0  0  0  0  0
    9.1291   -3.5642   23.5742 C   0  0  0  0  0  0  0  0  0  0  0  0
    9.1707   -2.0507   23.4022 C   0  0  0  0  0  0  0  0  0  0  0  0
    7.9850   -1.3607   24.0710 C   0  0  0  0  0  0  0  0  0  0  0  0
    7.6256   -0.0467   23.7421 C   0  0  0  0  0  0  0  0  0  0  0  0
    8.3399    0.6097   22.6977 N   0  0  0  0  0  0  0  0  0  0  0  0
    9.4058    1.5203   23.1122 C   0  0  0  0  0  0  0  0  0  0  0  0
    8.8707    2.8666   23.5581 C   0  0  0  0  0  0  0  0  0  0  0  0
    8.8073    3.2115   24.9099 C   0  0  0  0  0  0  0  0  0  0  0  0
    8.2658    4.4300   25.3111 C   0  0  0  0  0  0  0  0  0  0  0  0
    7.7826    5.3242   24.3601 C   0  0  0  0  0  0  0  0  0  0  0  0
    7.8604    4.9774   23.0150 C   0  0  0  0  0  0  0  0  0  0  0  0
    7.2597    6.0895   21.8142 Cl  0  0  0  0  0  0  0  0  0  0  0  0
    8.3960    3.7636   22.6022 C   0  0  0  0  0  0  0  0  0  0  0  0
    8.4484    3.5126   21.5458 H   0  0  0  0  0  0  0  0  0  0  0  0
    7.3474    6.2778   24.6432 H   0  0  0  0  0  0  0  0  0  0  0  0
    8.2071    4.6793   26.3681 H   0  0  0  0  0  0  0  0  0  0  0  0
    9.1654    2.5026   25.6513 H   0  0  0  0  0  0  0  0  0  0  0  0
   10.0602    1.6299   22.2406 H   0  0  0  0  0  0  0  0  0  0  0  0
    9.9502    1.0483   23.9414 H   0  0  0  0  0  0  0  0  0  0  0  0
    8.0429    0.5350   21.3542 C   0  0  0  0  0  0  0  0  0  0  0  0
    8.6739    1.1795   20.5285 O   0  0  0  0  0  0  0  0  0  0  0  0
    6.9425   -0.4440   20.9023 C   0  0  0  0  0  0  0  0  0  0  0  0
    6.1072    0.0896   19.7678 C   0  0  0  0  0  0  0  0  0  0  0  0
    6.4247   -0.2102   18.4690 C   0  0  0  0  0  0  0  0  0  0  0  0
    5.7612    0.2401   17.3689 N   0  0  0  0  0  0  0  0  0  0  0  0
    4.7360    1.0284   17.5784 C   0  0  0  0  0  0  0  0  0  0  0  0
    4.2860    1.4244   18.8663 C   0  0  0  0  0  0  0  0  0  0  0  0
    3.1766    2.2880   19.0397 C   0  0  0  0  0  0  0  0  0  0  0  0
    2.7818    2.6644   20.2934 C   0  0  0  0  0  0  0  0  0  0  0  0
    3.4816    2.1972   21.4290 C   0  0  0  0  0  0  0  0  0  0  0  0
    4.5588    1.3578   21.2894 C   0  0  0  0  0  0  0  0  0  0  0  0
    4.9897    0.9467   19.9988 C   0  0  0  0  0  0  0  0  0  0  0  0
    5.0868    1.0089   22.1751 H   0  0  0  0  0  0  0  0  0  0  0  0
    3.1615    2.5072   22.4198 H   0  0  0  0  0  0  0  0  0  0  0  0
    1.9353    3.3303   20.4260 H   0  0  0  0  0  0  0  0  0  0  0  0
    2.6605    2.6469   18.1526 H   0  0  0  0  0  0  0  0  0  0  0  0
    4.2040    1.3916   16.6975 H   0  0  0  0  0  0  0  0  0  0  0  0
    7.2712   -0.8580   18.2429 H   0  0  0  0  0  0  0  0  0  0  0  0
    6.3333   -0.7525   21.7592 H   0  0  0  0  0  0  0  0  0  0  0  0
    7.4635   -1.3469   20.5513 H   0  0  0  0  0  0  0  0  0  0  0  0
    6.6146    0.6310   24.4188 C   0  0  0  0  0  0  0  0  0  0  0  0
    5.9014    0.0007   25.4385 C   0  0  0  0  0  0  0  0  0  0  0  0
    6.2164   -1.3122   25.7572 C   0  0  0  0  0  0  0  0  0  0  0  0
    7.2370   -1.9747   25.0744 C   0  0  0  0  0  0  0  0  0  0  0  0
    5.6803   -1.8618   26.5257 H   0  0  0  0  0  0  0  0  0  0  0  0
    5.1135    0.5262   25.9721 H   0  0  0  0  0  0  0  0  0  0  0  0
    6.4145    1.6637   24.1407 H   0  0  0  0  0  0  0  0  0  0  0  0
    9.2119   -1.7727   22.3419 H   0  0  0  0  0  0  0  0  0  0  0  0
   10.0975   -1.6735   23.8612 H   0  0  0  0  0  0  0  0  0  0  0  0
   10.0920   -4.0119   23.3085 H   0  0  0  0  0  0  0  0  0  0  0  0
    8.3626   -4.0095   22.9322 H   0  0  0  0  0  0  0  0  0  0  0  0
    9.5544   -3.4873   25.6937 H   0  0  0  0  0  0  0  0  0  0  0  0
    8.7163   -4.9516   25.1270 H   0  0  0  0  0  0  0  0  0  0  0  0
    7.3157   -3.4985   26.4274 H   0  0  0  0  0  0  0  0  0  0  0  0
    5.6983   -6.3041   25.2543 H   0  0  0  0  0  0  0  0  0  0  0  0
    6.2458   -5.4051   26.6728 H   0  0  0  0  0  0  0  0  0  0  0  0
    4.1659   -3.9404   26.5158 H   0  0  0  0  0  0  0  0  0  0  0  0
    3.6571   -5.6408   26.6360 H   0  0  0  0  0  0  0  0  0  0  0  0
    3.6752   -4.8122   25.0613 H   0  0  0  0  0  0  0  0  0  0  0  0
  1  2  1  0
  2  3  1  0
  3  4  2  0
  3  5  1  0
  5  6  1  0
  6  7  1  0
  7  8  1  0
  8  9  1  0
  9 10  2  0
 10 11  1  0
 11 12  1  0
 12 13  1  0
 13 14  2  0
 14 15  1  0
 15 16  2  0
 16 17  1  0
 17 18  1  0
 17 19  2  0
 19 20  1  0
 16 21  1  0
 15 22  1  0
 14 23  1  0
 12 24  1  0
 12 25  1  0
 11 26  1  0
 26 27  2  0
 26 28  1  0
 28 29  1  0
 29 30  2  0
 30 31  1  0
 31 32  2  0
 32 33  1  0
 33 34  2  0
 34 35  1  0
 35 36  2  0
 36 37  1  0
 37 38  2  0
 37 39  1  0
 36 40  1  0
 35 41  1  0
 34 42  1  0
 32 43  1  0
 30 44  1  0
 28 45  1  0
 28 46  1  0
 10 47  1  0
 47 48  2  0
 48 49  1  0
 49 50  2  0
 49 51  1  0
 48 52  1  0
 47 53  1  0
  8 54  1  0
  8 55  1  0
  7 56  1  0
  7 57  1  0
  6 58  1  0
  6 59  1  0
  5 60  1  1
  2 61  1  0
  2 62  1  0
  1 63  1  0
  1 64  1  0
  1 65  1  0
 50  5  1  0
 50  9  1  0
 19 13  1  0
 38 29  1  0
 38 33  1  0
M  CHG  1   5   1
M  END
>  <cnnaffinities>  (7) 
[6.62067]

>  <score>  (7) 
6.62067

>  <index>  (7) 
6

>  <Smiles>  (7) 
C(C(C(=O)[N@+]1(C(C(C(c2c(N(C(c3c(c(c(c(Cl)c3[H])[H])[H])[H])([H])[H])C(=O)C(c3c(nc(c4c(c(c(c(c34)[H])[H])[H])[H])[H])[H])([H])[H])c(c(c(c12)[H])[H])[H])([H])[H])([H])[H])([H])[H])[H])([H])[H])([H])([H])[H]

>  <h>  (7) 
<NA>

>  <Training>  (7) 
True

>  <Success>  (7) 
True

>  <enamine_searched>  (7) 
False

>  <enamine_id>  (7) 
nan

$$$$

     RDKit          3D

 37 39  0  0  0  0  0  0  0  0999 V2000
    8.1849    1.6791   20.8417 O   0  0  0  0  0  0  0  0  0  0  0  0
    8.1775    0.5336   21.2703 C   0  0  0  0  0  0  0  0  0  0  0  0
    7.0426   -0.4377   20.8964 C   0  0  0  0  0  0  0  0  0  0  0  0
    6.1674    0.0781   19.7869 C   0  0  0  0  0  0  0  0  0  0  0  0
    6.4759   -0.2319   18.4892 C   0  0  0  0  0  0  0  0  0  0  0  0
    5.8110    0.2025   17.3839 N   0  0  0  0  0  0  0  0  0  0  0  0
    4.7857    0.9903   17.5939 C   0  0  0  0  0  0  0  0  0  0  0  0
    4.3397    1.3997   18.8788 C   0  0  0  0  0  0  0  0  0  0  0  0
    3.2176    2.2503   19.0445 C   0  0  0  0  0  0  0  0  0  0  0  0
    2.8077    2.6170   20.2954 C   0  0  0  0  0  0  0  0  0  0  0  0
    3.5066    2.1600   21.4313 C   0  0  0  0  0  0  0  0  0  0  0  0
    4.6074    1.3512   21.2993 C   0  0  0  0  0  0  0  0  0  0  0  0
    5.0499    0.9378   20.0147 C   0  0  0  0  0  0  0  0  0  0  0  0
    5.1462    1.0248   22.1830 H   0  0  0  0  0  0  0  0  0  0  0  0
    3.1666    2.4595   22.4196 H   0  0  0  0  0  0  0  0  0  0  0  0
    1.9492    3.2727   20.4197 H   0  0  0  0  0  0  0  0  0  0  0  0
    2.6975    2.6043   18.1577 H   0  0  0  0  0  0  0  0  0  0  0  0
    4.2457    1.3512   16.7175 H   0  0  0  0  0  0  0  0  0  0  0  0
    7.3269   -0.8830   18.2903 H   0  0  0  0  0  0  0  0  0  0  0  0
    7.5154   -1.3751   20.5655 H   0  0  0  0  0  0  0  0  0  0  0  0
    6.4536   -0.6624   21.7983 H   0  0  0  0  0  0  0  0  0  0  0  0
    9.1663    0.0332   22.0876 N   0  0  0  0  0  0  0  0  0  0  0  0
   10.2996    0.8794   22.4530 C   0  0  0  0  0  0  0  0  0  0  0  0
   11.5839    0.0909   22.1797 C   0  0  0  0  0  0  0  0  0  0  0  0
   11.6688   -1.1226   23.0964 C   0  0  0  0  0  0  0  0  0  0  0  0
   10.4536   -1.9884   22.7443 C   0  0  0  0  0  0  0  0  0  0  0  0
    9.1424   -1.1995   22.8890 C   0  0  0  0  0  0  0  0  0  0  0  0
    8.9959   -0.9097   23.9427 H   0  0  0  0  0  0  0  0  0  0  0  0
    8.2951   -1.8435   22.6393 H   0  0  0  0  0  0  0  0  0  0  0  0
   10.5671   -2.2917   21.6913 H   0  0  0  0  0  0  0  0  0  0  0  0
   10.4120   -2.9081   23.3378 H   0  0  0  0  0  0  0  0  0  0  0  0
   11.6651   -0.8122   24.1509 H   0  0  0  0  0  0  0  0  0  0  0  0
   12.6127   -1.6575   22.9287 H   0  0  0  0  0  0  0  0  0  0  0  0
   12.4483    0.7553   22.2283 H   0  0  0  0  0  0  0  0  0  0  0  0
   11.5554   -0.3400   21.1679 H   0  0  0  0  0  0  0  0  0  0  0  0
   10.2120    1.1321   23.5281 H   0  0  0  0  0  0  0  0  0  0  0  0
   10.2531    1.8237   21.9093 H   0  0  0  0  0  0  0  0  0  0  0  0
  1  2  2  0
  2  3  1  0
  3  4  1  0
  4  5  2  0
  5  6  1  0
  6  7  2  0
  7  8  1  0
  8  9  2  0
  9 10  1  0
 10 11  2  0
 11 12  1  0
 12 13  2  0
 12 14  1  0
 11 15  1  0
 10 16  1  0
  9 17  1  0
  7 18  1  0
  5 19  1  0
  3 20  1  0
  3 21  1  0
  2 22  1  0
 22 23  1  0
 23 24  1  0
 24 25  1  0
 25 26  1  0
 26 27  1  0
 27 28  1  0
 27 29  1  0
 26 30  1  0
 26 31  1  0
 25 32  1  0
 25 33  1  0
 24 34  1  0
 24 35  1  0
 23 36  1  0
 23 37  1  0
 13  4  1  0
 27 22  1  0
 13  8  1  0
M  END
>  <cnnaffinities>  (8) 
[5.20003, 5.19553]

>  <score>  (8) 
5.20003

>  <index>  (8) 
7

>  <Smiles>  (8) 
O=C(C(c1c(nc(c2c(c(c(c(c12)[H])[H])[H])[H])[H])[H])([H])[H])N1C(C(C(C(C1([H])[H])([H])[H])([H])[H])([H])[H])([H])[H]

>  <h>  (8) 
<NA>

>  <Training>  (8) 
True

>  <Success>  (8) 
True

>  <enamine_searched>  (8) 
False

>  <enamine_id>  (8) 
nan

$$$$

     RDKit          3D

 66 71  0  0  0  0  0  0  0  0999 V2000
    7.7644   -3.0063   23.3191 C   0  0  0  0  0  0  0  0  0  0  0  0
    8.0373   -1.9128   22.2773 C   0  0  1  0  0  0  0  0  0  0  0  0
    6.9153   -1.8044   21.2245 C   0  0  0  0  0  0  0  0  0  0  0  0
    6.9315   -0.4106   20.8244 N   0  0  0  0  0  0  0  0  0  0  0  0
    6.1414    0.1057   19.7666 C   0  0  0  0  0  0  0  0  0  0  0  0
    6.4433   -0.2237   18.4696 C   0  0  0  0  0  0  0  0  0  0  0  0
    5.7673    0.2230   17.3826 N   0  0  0  0  0  0  0  0  0  0  0  0
    4.7464    1.0185   17.5939 C   0  0  0  0  0  0  0  0  0  0  0  0
    4.2971    1.4158   18.8846 C   0  0  0  0  0  0  0  0  0  0  0  0
    3.1700    2.2662   19.0572 C   0  0  0  0  0  0  0  0  0  0  0  0
    2.7419    2.6084   20.3103 C   0  0  0  0  0  0  0  0  0  0  0  0
    3.4150    2.1072   21.4483 C   0  0  0  0  0  0  0  0  0  0  0  0
    4.5064    1.2885   21.3053 C   0  0  0  0  0  0  0  0  0  0  0  0
    4.9976    0.9369   20.0144 C   0  0  0  0  0  0  0  0  0  0  0  0
    5.0190    0.9133   22.1870 H   0  0  0  0  0  0  0  0  0  0  0  0
    3.0712    2.3870   22.4396 H   0  0  0  0  0  0  0  0  0  0  0  0
    1.8879    3.2681   20.4385 H   0  0  0  0  0  0  0  0  0  0  0  0
    2.6636    2.6391   18.1702 H   0  0  0  0  0  0  0  0  0  0  0  0
    4.2189    1.3846   16.7138 H   0  0  0  0  0  0  0  0  0  0  0  0
    7.2875   -0.8789   18.2603 H   0  0  0  0  0  0  0  0  0  0  0  0
    7.6392    0.4063   21.6770 C   0  0  0  0  0  0  0  0  0  0  0  0
    7.7446    1.6059   21.5451 O   0  0  0  0  0  0  0  0  0  0  0  0
    8.2361   -0.4619   22.8123 C   0  0  1  0  0  0  0  0  0  0  0  0
    7.4278   -0.2149   24.1160 C   0  0  0  0  0  0  0  0  0  0  0  0
    7.6530    1.1194   24.6228 N   0  0  0  0  0  0  0  0  0  0  0  0
    6.5462    1.8971   25.1355 C   0  0  0  0  0  0  0  0  0  0  0  0
    6.0088    1.4067   26.4837 C   0  0  0  0  0  0  0  0  0  0  0  0
    5.1240    0.5583   26.5362 O   0  0  0  0  0  0  0  0  0  0  0  0
    6.5463    2.0011   27.5798 N   0  0  0  0  0  0  0  0  0  0  0  0
    6.1400    1.6338   28.9325 C   0  0  0  0  0  0  0  0  0  0  0  0
    5.5024    2.7710   29.6775 C   0  0  0  0  0  0  0  0  0  0  0  0
    6.0455    3.6454   30.5951 C   0  0  0  0  0  0  0  0  0  0  0  0
    5.0180    4.5722   30.8592 C   0  0  0  0  0  0  0  0  0  0  0  0
    3.9232    4.2937   30.1626 N   0  0  0  0  0  0  0  0  0  0  0  0
    4.2315    3.1950   29.4522 N   0  0  0  0  0  0  0  0  0  0  0  0
    3.2611    2.6304   28.5325 C   0  0  0  0  0  0  0  0  0  0  0  0
    2.3059    3.1115   28.7529 H   0  0  0  0  0  0  0  0  0  0  0  0
    3.5548    2.8259   27.4941 H   0  0  0  0  0  0  0  0  0  0  0  0
    3.1843    1.5473   28.6822 H   0  0  0  0  0  0  0  0  0  0  0  0
    5.0249    5.4430   31.5062 H   0  0  0  0  0  0  0  0  0  0  0  0
    7.0586    3.6096   30.9751 H   0  0  0  0  0  0  0  0  0  0  0  0
    5.4641    0.7745   28.8423 H   0  0  0  0  0  0  0  0  0  0  0  0
    7.0204    1.3135   29.4970 H   0  0  0  0  0  0  0  0  0  0  0  0
    7.2856    2.6839   27.4548 H   0  0  0  0  0  0  0  0  0  0  0  0
    5.7153    1.8189   24.4284 H   0  0  0  0  0  0  0  0  0  0  0  0
    6.8834    2.9365   25.1806 H   0  0  0  0  0  0  0  0  0  0  0  0
    8.9189    1.5677   24.8431 C   0  0  0  0  0  0  0  0  0  0  0  0
    9.1338    2.5086   25.5957 O   0  0  0  0  0  0  0  0  0  0  0  0
    9.9949    0.8694   24.0575 C   0  0  0  0  0  0  0  0  0  0  0  0
   11.3138    1.2396   24.2896 C   0  0  0  0  0  0  0  0  0  0  0  0
   12.3317    0.7843   23.4718 C   0  0  0  0  0  0  0  0  0  0  0  0
   12.0204   -0.0485   22.3913 C   0  0  0  0  0  0  0  0  0  0  0  0
   10.7074   -0.4460   22.1812 C   0  0  0  0  0  0  0  0  0  0  0  0
    9.6795   -0.0468   23.0481 C   0  0  0  0  0  0  0  0  0  0  0  0
   10.4803   -1.0562   21.3092 H   0  0  0  0  0  0  0  0  0  0  0  0
   12.8049   -0.3959   21.7193 H   0  0  0  0  0  0  0  0  0  0  0  0
   13.3591    1.0898   23.6452 H   0  0  0  0  0  0  0  0  0  0  0  0
   11.4556    1.9153   25.1165 H   0  0  0  0  0  0  0  0  0  0  0  0
    6.3530   -0.3216   23.9318 H   0  0  0  0  0  0  0  0  0  0  0  0
    7.7304   -0.9499   24.8794 H   0  0  0  0  0  0  0  0  0  0  0  0
    5.9405   -2.0860   21.6525 H   0  0  0  0  0  0  0  0  0  0  0  0
    7.0875   -2.4436   20.3552 H   0  0  0  0  0  0  0  0  0  0  0  0
    8.9641   -2.1684   21.7570 H   0  0  0  0  0  0  0  0  0  0  0  0
    7.7167   -3.9936   22.8438 H   0  0  0  0  0  0  0  0  0  0  0  0
    6.8053   -2.8408   23.8272 H   0  0  0  0  0  0  0  0  0  0  0  0
    8.5442   -3.0456   24.0900 H   0  0  0  0  0  0  0  0  0  0  0  0
  1  2  1  0
  2  3  1  0
  3  4  1  0
  4  5  1  0
  5  6  2  0
  6  7  1  0
  7  8  2  0
  8  9  1  0
  9 10  2  0
 10 11  1  0
 11 12  2  0
 12 13  1  0
 13 14  2  0
 13 15  1  0
 12 16  1  0
 11 17  1  0
 10 18  1  0
  8 19  1  0
  6 20  1  0
  4 21  1  0
 21 22  2  0
 21 23  1  0
 23 24  1  1
 24 25  1  0
 25 26  1  0
 26 27  1  0
 27 28  2  0
 27 29  1  0
 29 30  1  0
 30 31  1  0
 31 32  2  0
 32 33  1  0
 33 34  2  0
 34 35  1  0
 35 36  1  0
 36 37  1  0
 36 38  1  0
 36 39  1  0
 33 40  1  0
 32 41  1  0
 30 42  1  0
 30 43  1  0
 29 44  1  0
 26 45  1  0
 26 46  1  0
 25 47  1  0
 47 48  2  0
 47 49  1  0
 49 50  2  0
 50 51  1  0
 51 52  2  0
 52 53  1  0
 53 54  2  0
 53 55  1  0
 52 56  1  0
 51 57  1  0
 50 58  1  0
 24 59  1  0
 24 60  1  0
  3 61  1  0
  3 62  1  0
  2 63  1  6
  1 64  1  0
  1 65  1  0
  1 66  1  0
 23  2  1  0
 35 31  1  0
 54 49  1  0
 14  5  1  0
 54 23  1  0
 14  9  1  0
M  END
>  <cnnaffinities>  (9) 
[6.68164, 6.59813, 6.74493]

>  <score>  (9) 
6.68164

>  <index>  (9) 
8

>  <Smiles>  (9) 
C([C@]1(C(N(c2c(nc(c3c(c(c(c(c23)[H])[H])[H])[H])[H])[H])C(=O)[C@]21C(N(C(C(=O)N(C(c1c(c(nn1C([H])([H])[H])[H])[H])([H])[H])[H])([H])[H])C(=O)c1c(c(c(c(c21)[H])[H])[H])[H])([H])[H])([H])[H])[H])([H])([H])[H]

>  <h>  (9) 
<NA>

>  <Training>  (9) 
True

>  <Success>  (9) 
True

>  <enamine_searched>  (9) 
False

>  <enamine_id>  (9) 
nan

$$$$

     RDKit          3D

 58 63  0  0  0  0  0  0  0  0999 V2000
    5.4537    5.0328   21.9974 C   0  0  0  0  0  0  0  0  0  0  0  0
    6.0426    4.1956   23.0905 C   0  0  0  0  0  0  0  0  0  0  0  0
    7.4271    4.0008   23.3436 C   0  0  0  0  0  0  0  0  0  0  0  0
    7.4526    3.1017   24.3559 C   0  0  0  0  0  0  0  0  0  0  0  0
    8.5786    2.3770   25.0307 C   0  0  0  0  0  0  0  0  0  0  0  0
    9.2152    1.4140   24.1536 N   0  0  0  0  0  0  0  0  0  0  0  0
    8.5836    0.1233   23.9618 C   0  0  0  0  0  0  0  0  0  0  0  0
    8.6528   -0.3694   22.5085 C   0  0  2  0  0  0  0  0  0  0  0  0
    7.7870    0.4817   21.5487 C   0  0  0  0  0  0  0  0  0  0  0  0
    7.8568    1.6774   21.3672 O   0  0  0  0  0  0  0  0  0  0  0  0
    6.9003   -0.3448   20.8858 N   0  0  0  0  0  0  0  0  0  0  0  0
    6.1307    0.1131   19.7869 C   0  0  0  0  0  0  0  0  0  0  0  0
    6.4473   -0.2320   18.4950 C   0  0  0  0  0  0  0  0  0  0  0  0
    5.7841    0.2134   17.3962 N   0  0  0  0  0  0  0  0  0  0  0  0
    4.7609    1.0100   17.5925 C   0  0  0  0  0  0  0  0  0  0  0  0
    4.3023    1.4136   18.8785 C   0  0  0  0  0  0  0  0  0  0  0  0
    3.1778    2.2646   19.0464 C   0  0  0  0  0  0  0  0  0  0  0  0
    2.7449    2.6082   20.2982 C   0  0  0  0  0  0  0  0  0  0  0  0
    3.4108    2.1170   21.4450 C   0  0  0  0  0  0  0  0  0  0  0  0
    4.5051    1.2972   21.3115 C   0  0  0  0  0  0  0  0  0  0  0  0
    4.9893    0.9422   20.0204 C   0  0  0  0  0  0  0  0  0  0  0  0
    5.0087    0.8950   22.1864 H   0  0  0  0  0  0  0  0  0  0  0  0
    3.0614    2.3984   22.4356 H   0  0  0  0  0  0  0  0  0  0  0  0
    1.8838    3.2627   20.4188 H   0  0  0  0  0  0  0  0  0  0  0  0
    2.6726    2.6362   18.1593 H   0  0  0  0  0  0  0  0  0  0  0  0
    4.2291    1.3705   16.7107 H   0  0  0  0  0  0  0  0  0  0  0  0
    7.3034   -0.8755   18.2851 H   0  0  0  0  0  0  0  0  0  0  0  0
    7.1981   -1.7444   21.0641 C   0  0  0  0  0  0  0  0  0  0  0  0
    8.0585   -1.8035   22.3417 C   0  0  2  0  0  0  0  0  0  0  0  0
    7.2419   -2.3468   23.5220 C   0  0  0  0  0  0  0  0  0  0  0  0
    6.8814   -3.3554   23.2933 H   0  0  0  0  0  0  0  0  0  0  0  0
    7.8463   -2.4287   24.4301 H   0  0  0  0  0  0  0  0  0  0  0  0
    6.3688   -1.7230   23.7437 H   0  0  0  0  0  0  0  0  0  0  0  0
    8.8798   -2.5120   22.2093 H   0  0  0  0  0  0  0  0  0  0  0  0
    7.7450   -2.1214   20.1977 H   0  0  0  0  0  0  0  0  0  0  0  0
    6.2705   -2.3199   21.1533 H   0  0  0  0  0  0  0  0  0  0  0  0
   10.1289   -0.2693   22.1359 C   0  0  0  0  0  0  0  0  0  0  0  0
   10.6832   -1.1281   21.1905 C   0  0  0  0  0  0  0  0  0  0  0  0
   12.0177   -1.0021   20.8541 C   0  0  0  0  0  0  0  0  0  0  0  0
   12.5392   -1.9077   20.0103 F   0  0  0  0  0  0  0  0  0  0  0  0
   12.8249    0.0459   21.2950 C   0  0  0  0  0  0  0  0  0  0  0  0
   12.2540    0.9383   22.1823 C   0  0  0  0  0  0  0  0  0  0  0  0
   10.9508    0.7532   22.6345 C   0  0  0  0  0  0  0  0  0  0  0  0
   10.4259    1.7402   23.6159 C   0  0  0  0  0  0  0  0  0  0  0  0
   11.0161    2.7750   23.9103 O   0  0  0  0  0  0  0  0  0  0  0  0
   12.7862    1.7935   22.5819 H   0  0  0  0  0  0  0  0  0  0  0  0
   13.8375    0.1567   20.9215 H   0  0  0  0  0  0  0  0  0  0  0  0
   10.0924   -1.8916   20.6980 H   0  0  0  0  0  0  0  0  0  0  0  0
    7.5481    0.2112   24.2900 H   0  0  0  0  0  0  0  0  0  0  0  0
    9.0941   -0.6310   24.5746 H   0  0  0  0  0  0  0  0  0  0  0  0
    9.3798    3.0752   25.2905 H   0  0  0  0  0  0  0  0  0  0  0  0
    8.2232    1.8652   25.9302 H   0  0  0  0  0  0  0  0  0  0  0  0
    6.1984    2.8101   24.7334 O   0  0  0  0  0  0  0  0  0  0  0  0
    5.3051    3.5045   23.9368 N   0  0  0  0  0  0  0  0  0  0  0  0
    8.2621    4.4252   22.8032 H   0  0  0  0  0  0  0  0  0  0  0  0
    6.0374    5.9481   21.8653 H   0  0  0  0  0  0  0  0  0  0  0  0
    4.4147    5.3054   22.1945 H   0  0  0  0  0  0  0  0  0  0  0  0
    5.4823    4.4831   21.0492 H   0  0  0  0  0  0  0  0  0  0  0  0
  1  2  1  0
  2  3  1  0
  3  4  2  0
  4  5  1  0
  5  6  1  0
  6  7  1  0
  8  7  1  1
  8  9  1  0
  9 10  2  0
  9 11  1  0
 11 12  1  0
 12 13  2  0
 13 14  1  0
 14 15  2  0
 15 16  1  0
 16 17  2  0
 17 18  1  0
 18 19  2  0
 19 20  1  0
 20 21  2  0
 20 22  1  0
 19 23  1  0
 18 24  1  0
 17 25  1  0
 15 26  1  0
 13 27  1  0
 11 28  1  0
 28 29  1  0
 29 30  1  0
 30 31  1  0
 30 32  1  0
 30 33  1  0
 29 34  1  6
 28 35  1  0
 28 36  1  0
  8 37  1  0
 37 38  2  0
 38 39  1  0
 39 40  1  0
 39 41  2  0
 41 42  1  0
 42 43  2  0
 43 44  1  0
 44 45  2  0
 42 46  1  0
 41 47  1  0
 38 48  1  0
  7 49  1  0
  7 50  1  0
  5 51  1  0
  5 52  1  0
  4 53  1  0
 53 54  1  0
  3 55  1  0
  1 56  1  0
  1 57  1  0
  1 58  1  0
 54  2  2  0
 44  6  1  0
 29  8  1  0
 43 37  1  0
 21 12  1  0
 21 16  1  0
M  END
>  <cnnaffinities>  (10) 
[6.79074]

>  <score>  (10) 
6.79074

>  <index>  (10) 
9

>  <Smiles>  (10) 
C(c1c(c(C(N2C([C@@]3(C(=O)N(c4c(nc(c5c(c(c(c(c45)[H])[H])[H])[H])[H])[H])C([C@@]3(C([H])([H])[H])[H])([H])[H])c3c(c(F)c(c(c3C2=O)[H])[H])[H])([H])[H])([H])[H])on1)[H])([H])([H])[H]

>  <h>  (10) 
<NA>

>  <Training>  (10) 
True

>  <Success>  (10) 
True

>  <enamine_searched>  (10) 
False

>  <enamine_id>  (10) 
nan

$$$$

     RDKit          3D

 72 77  0  0  0  0  0  0  0  0999 V2000
    5.8791    5.1841   21.4962 C   0  0  0  0  0  0  0  0  0  0  0  0
    5.4051    5.9037   22.7642 C   0  0  1  0  0  0  0  0  0  0  0  0
    5.1160    4.9794   23.9527 C   0  0  0  0  0  0  0  0  0  0  0  0
    6.3482    4.5191   24.6966 N   0  0  0  0  0  4  0  0  0  0  0  0
    7.1067    3.3830   24.0508 C   0  0  0  0  0  0  0  0  0  0  0  0
    7.7627    2.4544   25.0806 C   0  0  0  0  0  0  0  0  0  0  0  0
    8.6047    1.4505   24.4348 N   0  0  0  0  0  0  0  0  0  0  0  0
    8.0727    0.1330   24.1550 C   0  0  0  0  0  0  0  0  0  0  0  0
    8.4011   -0.3667   22.7238 C   0  0  2  0  0  0  0  0  0  0  0  0
    7.6462    0.4663   21.6609 C   0  0  0  0  0  0  0  0  0  0  0  0
    7.6998    1.6744   21.5191 O   0  0  0  0  0  0  0  0  0  0  0  0
    6.9024   -0.3698   20.8676 N   0  0  0  0  0  0  0  0  0  0  0  0
    6.1365    0.1116   19.7773 C   0  0  0  0  0  0  0  0  0  0  0  0
    6.4431   -0.2248   18.4807 C   0  0  0  0  0  0  0  0  0  0  0  0
    5.7677    0.2220   17.3937 N   0  0  0  0  0  0  0  0  0  0  0  0
    4.7480    1.0205   17.5948 C   0  0  0  0  0  0  0  0  0  0  0  0
    4.2970    1.4238   18.8845 C   0  0  0  0  0  0  0  0  0  0  0  0
    3.1671    2.2711   19.0570 C   0  0  0  0  0  0  0  0  0  0  0  0
    2.7365    2.6048   20.3130 C   0  0  0  0  0  0  0  0  0  0  0  0
    3.4121    2.1063   21.4484 C   0  0  0  0  0  0  0  0  0  0  0  0
    4.5113    1.2986   21.3066 C   0  0  0  0  0  0  0  0  0  0  0  0
    4.9986    0.9504   20.0131 C   0  0  0  0  0  0  0  0  0  0  0  0
    5.0253    0.9136   22.1804 H   0  0  0  0  0  0  0  0  0  0  0  0
    3.0575    2.3726   22.4425 H   0  0  0  0  0  0  0  0  0  0  0  0
    1.8781    3.2588   20.4457 H   0  0  0  0  0  0  0  0  0  0  0  0
    2.6579    2.6433   18.1734 H   0  0  0  0  0  0  0  0  0  0  0  0
    4.2197    1.3842   16.7141 H   0  0  0  0  0  0  0  0  0  0  0  0
    7.2902   -0.8721   18.2535 H   0  0  0  0  0  0  0  0  0  0  0  0
    7.2061   -1.7712   21.0728 C   0  0  0  0  0  0  0  0  0  0  0  0
    7.8959   -1.8255   22.4577 C   0  0  2  0  0  0  0  0  0  0  0  0
    6.9430   -2.4309   23.5050 C   0  0  0  0  0  0  0  0  0  0  0  0
    7.4091   -2.5053   24.4927 H   0  0  0  0  0  0  0  0  0  0  0  0
    6.0226   -1.8443   23.6092 H   0  0  0  0  0  0  0  0  0  0  0  0
    6.6522   -3.4482   23.2098 H   0  0  0  0  0  0  0  0  0  0  0  0
    8.7636   -2.4935   22.4177 H   0  0  0  0  0  0  0  0  0  0  0  0
    7.8712   -2.1407   20.2887 H   0  0  0  0  0  0  0  0  0  0  0  0
    6.2855   -2.3628   21.0437 H   0  0  0  0  0  0  0  0  0  0  0  0
    9.8960   -0.1740   22.5003 C   0  0  0  0  0  0  0  0  0  0  0  0
   10.5675   -0.9183   21.5236 C   0  0  0  0  0  0  0  0  0  0  0  0
   11.9123   -0.6938   21.2877 C   0  0  0  0  0  0  0  0  0  0  0  0
   12.7371   -1.6140   20.0653 Cl  0  0  0  0  0  0  0  0  0  0  0  0
   12.6155    0.2924   21.9730 C   0  0  0  0  0  0  0  0  0  0  0  0
   11.9400    1.0642   22.8978 C   0  0  0  0  0  0  0  0  0  0  0  0
   10.5877    0.8494   23.1587 C   0  0  0  0  0  0  0  0  0  0  0  0
    9.8846    1.7869   24.1131 C   0  0  0  0  0  0  0  0  0  0  0  0
   10.4137    2.8028   24.5435 O   0  0  0  0  0  0  0  0  0  0  0  0
   12.4499    1.8558   23.4293 H   0  0  0  0  0  0  0  0  0  0  0  0
   13.6659    0.4505   21.7506 H   0  0  0  0  0  0  0  0  0  0  0  0
   10.0550   -1.6526   20.9086 H   0  0  0  0  0  0  0  0  0  0  0  0
    6.9941    0.1880   24.2848 H   0  0  0  0  0  0  0  0  0  0  0  0
    8.4761   -0.5958   24.8757 H   0  0  0  0  0  0  0  0  0  0  0  0
    6.9860    1.9398   25.6562 H   0  0  0  0  0  0  0  0  0  0  0  0
    8.3859    3.0224   25.7782 H   0  0  0  0  0  0  0  0  0  0  0  0
    7.8872    3.8041   23.4197 H   0  0  0  0  0  0  0  0  0  0  0  0
    6.4127    2.8154   23.4211 H   0  0  0  0  0  0  0  0  0  0  0  0
    7.2227    5.7261   24.9843 C   0  0  0  0  0  0  0  0  0  0  0  0
    7.4879    6.5516   23.7271 C   0  0  2  0  0  0  0  0  0  0  0  0
    8.3114    7.7866   24.0508 C   0  0  0  0  0  0  0  0  0  0  0  0
    9.2722    7.4981   24.4947 H   0  0  0  0  0  0  0  0  0  0  0  0
    8.5144    8.3762   23.1503 H   0  0  0  0  0  0  0  0  0  0  0  0
    7.7803    8.4231   24.7682 H   0  0  0  0  0  0  0  0  0  0  0  0
    6.2575    6.9751   23.1564 O   0  0  0  0  0  0  0  0  0  0  0  0
    8.0403    5.9266   23.0068 H   0  0  0  0  0  0  0  0  0  0  0  0
    6.7153    6.3626   25.7135 H   0  0  0  0  0  0  0  0  0  0  0  0
    8.1723    5.3844   25.4092 H   0  0  0  0  0  0  0  0  0  0  0  0
    6.0244    4.1639   25.6115 H   0  0  0  0  0  0  0  0  0  0  0  0
    4.4897    5.5188   24.6644 H   0  0  0  0  0  0  0  0  0  0  0  0
    4.5749    4.0931   23.6063 H   0  0  0  0  0  0  0  0  0  0  0  0
    4.4625    6.4073   22.5166 H   0  0  0  0  0  0  0  0  0  0  0  0
    6.8273    4.6494   21.6283 H   0  0  0  0  0  0  0  0  0  0  0  0
    6.0081    5.9164   20.6908 H   0  0  0  0  0  0  0  0  0  0  0  0
    5.1389    4.4365   21.1766 H   0  0  0  0  0  0  0  0  0  0  0  0
  1  2  1  0
  2  3  1  0
  3  4  1  0
  4  5  1  0
  5  6  1  0
  6  7  1  0
  7  8  1  0
  9  8  1  1
  9 10  1  0
 10 11  2  0
 10 12  1  0
 12 13  1  0
 13 14  2  0
 14 15  1  0
 15 16  2  0
 16 17  1  0
 17 18  2  0
 18 19  1  0
 19 20  2  0
 20 21  1  0
 21 22  2  0
 21 23  1  0
 20 24  1  0
 19 25  1  0
 18 26  1  0
 16 27  1  0
 14 28  1  0
 12 29  1  0
 29 30  1  0
 30 31  1  0
 31 32  1  0
 31 33  1  0
 31 34  1  0
 30 35  1  6
 29 36  1  0
 29 37  1  0
  9 38  1  0
 38 39  2  0
 39 40  1  0
 40 41  1  0
 40 42  2  0
 42 43  1  0
 43 44  2  0
 44 45  1  0
 45 46  2  0
 43 47  1  0
 42 48  1  0
 39 49  1  0
  8 50  1  0
  8 51  1  0
  6 52  1  0
  6 53  1  0
  5 54  1  0
  5 55  1  0
  4 56  1  0
 56 57  1  0
 57 58  1  0
 58 59  1  0
 58 60  1  0
 58 61  1  0
 57 62  1  0
 57 63  1  6
 56 64  1  0
 56 65  1  0
  4 66  1  0
  3 67  1  0
  3 68  1  0
  2 69  1  6
  1 70  1  0
  1 71  1  0
  1 72  1  0
 62  2  1  0
 45  7  1  0
 30  9  1  0
 44 38  1  0
 22 13  1  0
 22 17  1  0
M  CHG  1   4   1
M  END
>  <cnnaffinities>  (11) 
[6.80787]

>  <score>  (11) 
6.80787

>  <index>  (11) 
10

>  <Smiles>  (11) 
C([C@]1(C([N+](C(C(N2C([C@@]3(C(=O)N(c4c(nc(c5c(c(c(c(c45)[H])[H])[H])[H])[H])[H])C([C@@]3(C([H])([H])[H])[H])([H])[H])c3c(c(Cl)c(c(c3C2=O)[H])[H])[H])([H])[H])([H])[H])([H])[H])(C([C@](C([H])([H])[H])(O1)[H])([H])[H])[H])([H])[H])[H])([H])([H])[H]

>  <h>  (11) 
<NA>

>  <Training>  (11) 
True

>  <Success>  (11) 
True

>  <enamine_searched>  (11) 
False

>  <enamine_id>  (11) 
nan

$$$$

     RDKit          3D

 54 57  0  0  0  0  0  0  0  0999 V2000
    4.8803    1.9208   25.3040 C   0  0  0  0  0  0  0  0  0  0  0  0
    6.1333    1.9650   24.6599 O   0  0  0  0  0  0  0  0  0  0  0  0
    6.4398    2.9887   23.8096 C   0  0  0  0  0  0  0  0  0  0  0  0
    5.5509    4.0281   23.5125 C   0  0  0  0  0  0  0  0  0  0  0  0
    5.9384    5.0312   22.6255 C   0  0  0  0  0  0  0  0  0  0  0  0
    7.1981    5.0139   22.0459 C   0  0  0  0  0  0  0  0  0  0  0  0
    8.0727    3.9806   22.3674 C   0  0  0  0  0  0  0  0  0  0  0  0
    7.7272    2.9596   23.2400 C   0  0  0  0  0  0  0  0  0  0  0  0
    8.6460    1.7768   23.5243 C   0  0  2  0  0  0  0  0  0  0  0  0
   10.1502    2.0333   23.3615 C   0  0  0  0  0  0  0  0  0  0  0  0
   10.9908    0.8465   23.8413 C   0  0  2  0  0  0  0  0  0  0  0  0
   12.4856    1.0793   23.6110 C   0  0  0  0  0  0  0  0  0  0  0  0
   12.8388    1.9814   24.1220 H   0  0  0  0  0  0  0  0  0  0  0  0
   13.0858    0.2321   23.9670 H   0  0  0  0  0  0  0  0  0  0  0  0
   12.7074    1.2069   22.5435 H   0  0  0  0  0  0  0  0  0  0  0  0
   10.5193   -0.4288   23.1418 C   0  0  0  0  0  0  0  0  0  0  0  0
    8.9985   -0.6097   23.2639 C   0  0  0  0  0  0  0  0  0  0  0  0
    8.2602    0.5605   22.7872 N   0  0  0  0  0  0  0  0  0  0  0  0
    7.9307    0.6541   21.4239 C   0  0  0  0  0  0  0  0  0  0  0  0
    8.3424    1.5308   20.6946 O   0  0  0  0  0  0  0  0  0  0  0  0
    6.9762   -0.4299   20.8954 C   0  0  0  0  0  0  0  0  0  0  0  0
    6.1112    0.0831   19.7646 C   0  0  0  0  0  0  0  0  0  0  0  0
    6.4263   -0.2093   18.4646 C   0  0  0  0  0  0  0  0  0  0  0  0
    5.7612    0.2409   17.3651 N   0  0  0  0  0  0  0  0  0  0  0  0
    4.7347    1.0265   17.5765 C   0  0  0  0  0  0  0  0  0  0  0  0
    4.2887    1.4222   18.8649 C   0  0  0  0  0  0  0  0  0  0  0  0
    3.1743    2.2806   19.0432 C   0  0  0  0  0  0  0  0  0  0  0  0
    2.7664    2.6457   20.2967 C   0  0  0  0  0  0  0  0  0  0  0  0
    3.4652    2.1640   21.4305 C   0  0  0  0  0  0  0  0  0  0  0  0
    4.5478    1.3321   21.2890 C   0  0  0  0  0  0  0  0  0  0  0  0
    4.9934    0.9378   19.9998 C   0  0  0  0  0  0  0  0  0  0  0  0
    5.0730    0.9779   22.1740 H   0  0  0  0  0  0  0  0  0  0  0  0
    3.1370    2.4671   22.4234 H   0  0  0  0  0  0  0  0  0  0  0  0
    1.9124    3.3090   20.4267 H   0  0  0  0  0  0  0  0  0  0  0  0
    2.6546    2.6496   18.1603 H   0  0  0  0  0  0  0  0  0  0  0  0
    4.2011    1.3956   16.6967 H   0  0  0  0  0  0  0  0  0  0  0  0
    7.2750   -0.8538   18.2391 H   0  0  0  0  0  0  0  0  0  0  0  0
    6.3704   -0.8305   21.7211 H   0  0  0  0  0  0  0  0  0  0  0  0
    7.5891   -1.2643   20.5239 H   0  0  0  0  0  0  0  0  0  0  0  0
    8.6689   -1.4849   22.6987 H   0  0  0  0  0  0  0  0  0  0  0  0
    8.7405   -0.7785   24.3185 H   0  0  0  0  0  0  0  0  0  0  0  0
   10.7974   -0.3844   22.0805 H   0  0  0  0  0  0  0  0  0  0  0  0
   11.0503   -1.2970   23.5530 H   0  0  0  0  0  0  0  0  0  0  0  0
   10.8282    0.7281   24.9215 H   0  0  0  0  0  0  0  0  0  0  0  0
   10.4553    2.9435   23.8988 H   0  0  0  0  0  0  0  0  0  0  0  0
   10.3350    2.1593   22.2943 H   0  0  0  0  0  0  0  0  0  0  0  0
    8.5027    1.5122   24.5749 H   0  0  0  0  0  0  0  0  0  0  0  0
    9.0405    3.9577   21.8792 H   0  0  0  0  0  0  0  0  0  0  0  0
    7.5016    5.7832   21.3392 H   0  0  0  0  0  0  0  0  0  0  0  0
    5.2510    5.8346   22.3802 H   0  0  0  0  0  0  0  0  0  0  0  0
    4.5617    4.0696   23.9633 H   0  0  0  0  0  0  0  0  0  0  0  0
    4.6969    2.7758   25.9655 H   0  0  0  0  0  0  0  0  0  0  0  0
    4.9077    1.0242   25.9176 H   0  0  0  0  0  0  0  0  0  0  0  0
    4.0297    1.8267   24.6165 H   0  0  0  0  0  0  0  0  0  0  0  0
  1  2  1  0
  2  3  1  0
  3  4  2  0
  4  5  1  0
  5  6  2  0
  6  7  1  0
  7  8  2  0
  8  9  1  0
  9 10  1  0
 10 11  1  0
 11 12  1  0
 12 13  1  0
 12 14  1  0
 12 15  1  0
 11 16  1  0
 16 17  1  0
 17 18  1  0
 18 19  1  0
 19 20  2  0
 19 21  1  0
 21 22  1  0
 22 23  2  0
 23 24  1  0
 24 25  2  0
 25 26  1  0
 26 27  2  0
 27 28  1  0
 28 29  2  0
 29 30  1  0
 30 31  2  0
 30 32  1  0
 29 33  1  0
 28 34  1  0
 27 35  1  0
 25 36  1  0
 23 37  1  0
 21 38  1  0
 21 39  1  0
 17 40  1  0
 17 41  1  0
 16 42  1  0
 16 43  1  0
 11 44  1  1
 10 45  1  0
 10 46  1  0
  9 47  1  1
  7 48  1  0
  6 49  1  0
  5 50  1  0
  4 51  1  0
  1 52  1  0
  1 53  1  0
  1 54  1  0
  8  3  1  0
 18  9  1  0
 31 22  1  0
 31 26  1  0
M  END
>  <cnnaffinities>  (12) 
[5.96345, 6.04961, 5.97214]

>  <score>  (12) 
5.96345

>  <index>  (12) 
11

>  <Smiles>  (12) 
C(Oc1c(c(c(c(c1[C@@]1(C([C@](C([H])([H])[H])(C(C(N1C(=O)C(c1c(nc(c2c(c(c(c(c12)[H])[H])[H])[H])[H])[H])([H])[H])([H])[H])([H])[H])[H])([H])[H])[H])[H])[H])[H])[H])([H])([H])[H]

>  <h>  (12) 
<NA>

>  <Training>  (12) 
True

>  <Success>  (12) 
True

>  <enamine_searched>  (12) 
False

>  <enamine_id>  (12) 
nan

$$$$

     RDKit          3D

 47 50  0  0  0  0  0  0  0  0999 V2000
    5.5450   -2.4550   20.9568 O   0  0  0  0  0  0  0  0  0  0  0  0
    6.1673   -1.6440   21.6244 C   0  0  0  0  0  0  0  0  0  0  0  0
    6.9105   -0.4841   20.9210 C   0  0  0  0  0  0  0  0  0  0  0  0
    6.1145    0.0890   19.7691 C   0  0  0  0  0  0  0  0  0  0  0  0
    6.4212   -0.2153   18.4646 C   0  0  0  0  0  0  0  0  0  0  0  0
    5.7591    0.2376   17.3638 N   0  0  0  0  0  0  0  0  0  0  0  0
    4.7345    1.0292   17.5744 C   0  0  0  0  0  0  0  0  0  0  0  0
    4.2868    1.4231   18.8682 C   0  0  0  0  0  0  0  0  0  0  0  0
    3.1647    2.2754   19.0423 C   0  0  0  0  0  0  0  0  0  0  0  0
    2.7499    2.6277   20.2999 C   0  0  0  0  0  0  0  0  0  0  0  0
    3.4408    2.1402   21.4315 C   0  0  0  0  0  0  0  0  0  0  0  0
    4.5314    1.3160   21.2895 C   0  0  0  0  0  0  0  0  0  0  0  0
    4.9889    0.9396   19.9965 C   0  0  0  0  0  0  0  0  0  0  0  0
    5.0473    0.9532   22.1736 H   0  0  0  0  0  0  0  0  0  0  0  0
    3.1066    2.4271   22.4227 H   0  0  0  0  0  0  0  0  0  0  0  0
    1.8937    3.2822   20.4362 H   0  0  0  0  0  0  0  0  0  0  0  0
    2.6424    2.6450   18.1634 H   0  0  0  0  0  0  0  0  0  0  0  0
    4.1990    1.3987   16.6989 H   0  0  0  0  0  0  0  0  0  0  0  0
    7.2661   -0.8668   18.2471 H   0  0  0  0  0  0  0  0  0  0  0  0
    7.8389   -0.9054   20.5147 H   0  0  0  0  0  0  0  0  0  0  0  0
    7.2143    0.3126   21.6105 H   0  0  0  0  0  0  0  0  0  0  0  0
    6.2155   -1.7447   22.9849 N   0  0  0  0  0  0  0  0  0  0  0  0
    5.5850   -2.8741   23.6648 C   0  0  0  0  0  0  0  0  0  0  0  0
    6.1463   -2.8377   25.0890 C   0  0  2  0  0  0  0  0  0  0  0  0
    5.2454   -3.5372   26.0962 C   0  0  0  0  0  0  0  0  0  0  0  0
    5.8448   -3.6120   27.3485 F   0  0  0  0  0  0  0  0  0  0  0  0
    5.0247   -4.5659   25.7822 H   0  0  0  0  0  0  0  0  0  0  0  0
    4.2913   -3.0229   26.2298 H   0  0  0  0  0  0  0  0  0  0  0  0
    6.5068   -1.3479   25.3347 C   0  0  0  0  0  0  0  0  0  0  0  0
    5.3400   -0.5007   25.8755 C   0  0  0  0  0  0  0  0  0  0  0  0
    5.4571   -0.4789   27.4084 C   0  0  0  0  0  0  0  0  0  0  0  0
    6.9364   -0.7523   27.7281 C   0  0  0  0  0  0  0  0  0  0  0  0
    7.6005   -1.1479   26.3935 C   0  0  0  0  0  0  0  0  0  0  0  0
    8.2867   -0.3575   26.0713 H   0  0  0  0  0  0  0  0  0  0  0  0
    8.1927   -2.0575   26.5001 H   0  0  0  0  0  0  0  0  0  0  0  0
    7.0353   -1.5440   28.4730 H   0  0  0  0  0  0  0  0  0  0  0  0
    7.4271    0.1352   28.1402 H   0  0  0  0  0  0  0  0  0  0  0  0
    5.1312    0.4842   27.8104 H   0  0  0  0  0  0  0  0  0  0  0  0
    4.8245   -1.2448   27.8600 H   0  0  0  0  0  0  0  0  0  0  0  0
    5.4364    0.5203   25.4947 H   0  0  0  0  0  0  0  0  0  0  0  0
    4.3692   -0.8633   25.5291 H   0  0  0  0  0  0  0  0  0  0  0  0
    6.9481   -0.9065   23.9201 C   0  0  0  0  0  0  0  0  0  0  0  0
    6.7158    0.1491   23.7653 H   0  0  0  0  0  0  0  0  0  0  0  0
    8.0319   -1.0249   23.7979 H   0  0  0  0  0  0  0  0  0  0  0  0
    7.0884   -3.3991   25.1062 H   0  0  0  0  0  0  0  0  0  0  0  0
    5.8200   -3.8148   23.1653 H   0  0  0  0  0  0  0  0  0  0  0  0
    4.4939   -2.7778   23.6641 H   0  0  0  0  0  0  0  0  0  0  0  0
  1  2  2  0
  2  3  1  0
  3  4  1  0
  4  5  2  0
  5  6  1  0
  6  7  2  0
  7  8  1  0
  8  9  2  0
  9 10  1  0
 10 11  2  0
 11 12  1  0
 12 13  2  0
 12 14  1  0
 11 15  1  0
 10 16  1  0
  9 17  1  0
  7 18  1  0
  5 19  1  0
  3 20  1  0
  3 21  1  0
  2 22  1  0
 22 23  1  0
 23 24  1  0
 24 25  1  0
 25 26  1  0
 25 27  1  0
 25 28  1  0
 24 29  1  0
 29 30  1  0
 30 31  1  0
 31 32  1  0
 32 33  1  0
 33 34  1  0
 33 35  1  0
 32 36  1  0
 32 37  1  0
 31 38  1  0
 31 39  1  0
 30 40  1  0
 30 41  1  0
 29 42  1  0
 42 43  1  0
 42 44  1  0
 24 45  1  6
 23 46  1  0
 23 47  1  0
 13  4  1  0
 42 22  1  0
 13  8  1  0
 33 29  1  0
M  END
>  <cnnaffinities>  (13) 
[5.66586, 5.66583, 5.48046, 5.68005, 5.65715]

>  <score>  (13) 
5.66586

>  <index>  (13) 
12

>  <Smiles>  (13) 
O=C(C(c1c(nc(c2c(c(c(c(c12)[H])[H])[H])[H])[H])[H])([H])[H])N1C([C@](C(F)([H])[H])(C2(C(C(C(C2([H])[H])([H])[H])([H])[H])([H])[H])C1([H])[H])[H])([H])[H]

>  <h>  (13) 
<NA>

>  <Training>  (13) 
True

>  <Success>  (13) 
True

>  <enamine_searched>  (13) 
False

>  <enamine_id>  (13) 
nan

$$$$

     RDKit          3D

 67 72  0  0  0  0  0  0  0  0999 V2000
    6.5848    4.2447   21.3995 C   0  0  0  0  0  0  0  0  0  0  0  0
    7.5061    3.7678   22.4118 N   0  0  0  0  0  0  0  0  0  0  0  0
    7.0522    3.2534   23.5842 C   0  0  0  0  0  0  0  0  0  0  0  0
    5.8662    3.1959   23.8812 O   0  0  0  0  0  0  0  0  0  0  0  0
    8.1507    2.7439   24.5261 C   0  0  0  0  0  0  0  0  0  0  0  0
    8.8583    1.6117   23.9556 N   0  0  0  0  0  0  0  0  0  0  0  0
    8.1229    0.3671   23.7812 C   0  0  0  0  0  0  0  0  0  0  0  0
    8.5352   -0.3813   22.4900 C   0  0  2  0  0  0  0  0  0  0  0  0
    7.9512    0.3185   21.2402 C   0  0  0  0  0  0  0  0  0  0  0  0
    8.3515    1.3387   20.7115 O   0  0  0  0  0  0  0  0  0  0  0  0
    6.8897   -0.4204   20.7785 N   0  0  0  0  0  0  0  0  0  0  0  0
    6.0975    0.0696   19.7119 C   0  0  0  0  0  0  0  0  0  0  0  0
    6.4276   -0.2446   18.4194 C   0  0  0  0  0  0  0  0  0  0  0  0
    5.7462    0.1923   17.3336 N   0  0  0  0  0  0  0  0  0  0  0  0
    4.7148    0.9756   17.5450 C   0  0  0  0  0  0  0  0  0  0  0  0
    4.2737    1.3876   18.8364 C   0  0  0  0  0  0  0  0  0  0  0  0
    3.1609    2.2527   19.0176 C   0  0  0  0  0  0  0  0  0  0  0  0
    2.7801    2.6444   20.2729 C   0  0  0  0  0  0  0  0  0  0  0  0
    3.4941    2.1961   21.4077 C   0  0  0  0  0  0  0  0  0  0  0  0
    4.5710    1.3537   21.2604 C   0  0  0  0  0  0  0  0  0  0  0  0
    4.9847    0.9231   19.9668 C   0  0  0  0  0  0  0  0  0  0  0  0
    5.1347    1.0484   22.1374 H   0  0  0  0  0  0  0  0  0  0  0  0
    3.2117    2.5346   22.4002 H   0  0  0  0  0  0  0  0  0  0  0  0
    1.9302    3.3104   20.4019 H   0  0  0  0  0  0  0  0  0  0  0  0
    2.6296    2.6008   18.1356 H   0  0  0  0  0  0  0  0  0  0  0  0
    4.1722    1.3338   16.6679 H   0  0  0  0  0  0  0  0  0  0  0  0
    7.2885   -0.8801   18.2251 H   0  0  0  0  0  0  0  0  0  0  0  0
    6.5598   -1.5479   21.6248 C   0  0  0  0  0  0  0  0  0  0  0  0
    7.8661   -1.7931   22.3898 C   0  0  2  0  0  0  0  0  0  0  0  0
    7.6064   -2.5657   23.6875 C   0  0  0  0  0  0  0  0  0  0  0  0
    8.7728   -2.8273   24.4065 O   0  0  0  0  0  0  0  0  0  0  0  0
    9.4662   -4.0045   24.0223 C   0  0  0  0  0  0  0  0  0  0  0  0
   10.6048   -4.3062   25.2077 C   0  0  0  0  0  0  0  0  0  0  0  0
   11.4948   -3.1264   24.7341 C   0  0  0  0  0  0  0  0  0  0  0  0
   10.4981   -3.9072   25.1757 C   0  0  0  0  0  0  0  0  0  0  0  0
   10.9904   -5.1433   26.3471 H   0  0  0  0  0  0  0  0  0  0  0  0
   11.0565   -5.2656   24.6422 H   0  0  0  0  0  0  0  0  0  0  0  0
   12.2770   -2.6233   25.3674 H   0  0  0  0  0  0  0  0  0  0  0  0
   10.9522   -2.3869   24.1457 H   0  0  0  0  0  0  0  0  0  0  0  0
    9.8047   -3.8638   26.0704 H   0  0  0  0  0  0  0  0  0  0  0  0
    8.7383   -4.8525   23.9667 H   0  0  0  0  0  0  0  0  0  0  0  0
    9.8897   -3.8538   22.9972 H   0  0  0  0  0  0  0  0  0  0  0  0
    7.1075   -3.5230   23.4594 H   0  0  0  0  0  0  0  0  0  0  0  0
    6.9353   -1.9802   24.3342 H   0  0  0  0  0  0  0  0  0  0  0  0
    8.5206   -2.4059   21.7599 H   0  0  0  0  0  0  0  0  0  0  0  0
    5.7372   -1.3031   22.3185 H   0  0  0  0  0  0  0  0  0  0  0  0
    6.2414   -2.4104   21.0333 H   0  0  0  0  0  0  0  0  0  0  0  0
   10.0471   -0.3569   22.3703 C   0  0  0  0  0  0  0  0  0  0  0  0
   10.6521   -1.1487   21.3891 C   0  0  0  0  0  0  0  0  0  0  0  0
   12.0230   -1.1287   21.2246 C   0  0  0  0  0  0  0  0  0  0  0  0
   12.7480   -2.1595   20.0210 Cl  0  0  0  0  0  0  0  0  0  0  0  0
   12.8308   -0.2886   21.9924 C   0  0  0  0  0  0  0  0  0  0  0  0
   12.2327    0.5540   22.9091 C   0  0  0  0  0  0  0  0  0  0  0  0
   10.8473    0.5492   23.0768 C   0  0  0  0  0  0  0  0  0  0  0  0
   10.2316    1.6259   23.9221 C   0  0  0  0  0  0  0  0  0  0  0  0
   10.9023    2.4816   24.4815 O   0  0  0  0  0  0  0  0  0  0  0  0
   12.8195    1.2627   23.4847 H   0  0  0  0  0  0  0  0  0  0  0  0
   13.9061   -0.2889   21.8482 H   0  0  0  0  0  0  0  0  0  0  0  0
   10.0454   -1.7508   20.7235 H   0  0  0  0  0  0  0  0  0  0  0  0
    8.3000   -0.2907   24.6426 H   0  0  0  0  0  0  0  0  0  0  0  0
    7.0557    0.6114   23.7507 H   0  0  0  0  0  0  0  0  0  0  0  0
    8.9059    3.5157   24.7076 H   0  0  0  0  0  0  0  0  0  0  0  0
    7.6859    2.4888   25.4846 H   0  0  0  0  0  0  0  0  0  0  0  0
    8.4319    3.5008   22.1079 H   0  0  0  0  0  0  0  0  0  0  0  0
    6.2558    3.4337   20.7328 H   0  0  0  0  0  0  0  0  0  0  0  0
    7.0578    5.0362   20.8102 H   0  0  0  0  0  0  0  0  0  0  0  0
    5.7009    4.6533   21.8948 H   0  0  0  0  0  0  0  0  0  0  0  0
  1  2  1  0
  2  3  1  0
  3  4  2  0
  3  5  1  0
  5  6  1  0
  6  7  1  0
  8  7  1  1
  8  9  1  0
  9 10  2  0
  9 11  1  0
 11 12  1  0
 12 13  2  0
 13 14  1  0
 14 15  2  0
 15 16  1  0
 16 17  2  0
 17 18  1  0
 18 19  2  0
 19 20  1  0
 20 21  2  0
 20 22  1  0
 19 23  1  0
 18 24  1  0
 17 25  1  0
 15 26  1  0
 13 27  1  0
 11 28  1  0
 28 29  1  0
 29 30  1  0
 30 31  1  0
 31 32  1  0
 32 33  1  0
 33 34  1  0
 34 35  1  0
 35 36  1  0
 35 37  1  0
 34 38  1  0
 34 39  1  0
 33 40  1  0
 32 41  1  0
 32 42  1  0
 30 43  1  0
 30 44  1  0
 29 45  1  6
 28 46  1  0
 28 47  1  0
  8 48  1  0
 48 49  2  0
 49 50  1  0
 50 51  1  0
 50 52  2  0
 52 53  1  0
 53 54  2  0
 54 55  1  0
 55 56  2  0
 53 57  1  0
 52 58  1  0
 49 59  1  0
  7 60  1  0
  7 61  1  0
  5 62  1  0
  5 63  1  0
  2 64  1  0
  1 65  1  0
  1 66  1  0
  1 67  1  0
 55  6  1  0
 29  8  1  0
 35 33  1  0
 54 48  1  0
 21 12  1  0
 21 16  1  0
M  END
>  <cnnaffinities>  (14) 
[6.86401]

>  <score>  (14) 
6.86401

>  <index>  (14) 
13

>  <Smiles>  (14) 
C(N(C(=O)C(N1C([C@@]2(C(=O)N(c3c(nc(c4c(c(c(c(c34)[H])[H])[H])[H])[H])[H])C([C@@]2(C(OC(C2(C(C2([H])[H])([H])[H])[H])([H])[H])([H])[H])[H])([H])[H])c2c(c(Cl)c(c(c2C1=O)[H])[H])[H])([H])[H])([H])[H])[H])([H])([H])[H]

>  <h>  (14) 
<NA>

>  <Training>  (14) 
True

>  <Success>  (14) 
True

>  <enamine_searched>  (14) 
False

>  <enamine_id>  (14) 
nan

$$$$

     RDKit          3D

 67 73  0  0  0  0  0  0  0  0999 V2000
    7.1741   -2.4506   23.4389 C   0  0  0  0  0  0  0  0  0  0  0  0
    8.0339   -1.7577   22.3774 C   0  0  1  0  0  0  0  0  0  0  0  0
    7.3198   -1.6925   21.0144 C   0  0  0  0  0  0  0  0  0  0  0  0
    6.9373   -0.3065   20.8624 N   0  0  0  0  0  0  0  0  0  0  0  0
    6.1489    0.1375   19.7838 C   0  0  0  0  0  0  0  0  0  0  0  0
    6.4457   -0.2311   18.4943 C   0  0  0  0  0  0  0  0  0  0  0  0
    5.7756    0.2068   17.3994 N   0  0  0  0  0  0  0  0  0  0  0  0
    4.7583    1.0116   17.5999 C   0  0  0  0  0  0  0  0  0  0  0  0
    4.3111    1.4180   18.8897 C   0  0  0  0  0  0  0  0  0  0  0  0
    3.1903    2.2749   19.0540 C   0  0  0  0  0  0  0  0  0  0  0  0
    2.7568    2.6207   20.3062 C   0  0  0  0  0  0  0  0  0  0  0  0
    3.4180    2.1250   21.4522 C   0  0  0  0  0  0  0  0  0  0  0  0
    4.5110    1.3051   21.3213 C   0  0  0  0  0  0  0  0  0  0  0  0
    5.0035    0.9547   20.0276 C   0  0  0  0  0  0  0  0  0  0  0  0
    5.0093    0.9231   22.2071 H   0  0  0  0  0  0  0  0  0  0  0  0
    3.0695    2.4093   22.4436 H   0  0  0  0  0  0  0  0  0  0  0  0
    1.9036    3.2817   20.4323 H   0  0  0  0  0  0  0  0  0  0  0  0
    2.6883    2.6477   18.1672 H   0  0  0  0  0  0  0  0  0  0  0  0
    4.2210    1.3724   16.7212 H   0  0  0  0  0  0  0  0  0  0  0  0
    7.2964   -0.8836   18.2952 H   0  0  0  0  0  0  0  0  0  0  0  0
    7.6366    0.5468   21.6846 C   0  0  0  0  0  0  0  0  0  0  0  0
    7.5932    1.7633   21.6310 O   0  0  0  0  0  0  0  0  0  0  0  0
    8.4673   -0.2911   22.6732 C   0  0  1  0  0  0  0  0  0  0  0  0
    8.1742    0.1447   24.1165 C   0  0  0  0  0  0  0  0  0  0  0  0
    8.6564    1.4825   24.3958 N   0  0  0  0  0  0  0  0  0  0  0  0
    7.8353    2.3244   25.2427 C   0  0  0  0  0  0  0  0  0  0  0  0
    6.7380    3.0479   24.4594 C   0  0  0  0  0  0  0  0  0  0  0  0
    7.2830    4.1106   23.5814 N   0  0  2  0  0  4  0  0  0  0  0  0
    7.7510    5.3691   24.3375 C   0  0  0  0  0  0  0  0  0  0  0  0
    6.9406    6.4986   23.6711 C   0  0  2  0  0  0  0  0  0  0  0  0
    5.5951    5.8304   23.3936 C   0  0  0  0  0  0  0  0  0  0  0  0
    6.2626    4.7056   22.6024 C   0  0  1  0  0  0  0  0  0  0  0  0
    7.1101    5.5232   21.6303 C   0  0  0  0  0  0  0  0  0  0  0  0
    7.4599    6.7115   22.3578 O   0  0  0  0  0  0  0  0  0  0  0  0
    6.6150    5.7701   20.6832 H   0  0  0  0  0  0  0  0  0  0  0  0
    8.0109    4.9538   21.4334 H   0  0  0  0  0  0  0  0  0  0  0  0
    5.6417    3.9195   22.1711 H   0  0  0  0  0  0  0  0  0  0  0  0
    4.9472    6.4554   22.7782 H   0  0  0  0  0  0  0  0  0  0  0  0
    5.0344    5.5161   24.2762 H   0  0  0  0  0  0  0  0  0  0  0  0
    6.9551    7.4495   24.1974 H   0  0  0  0  0  0  0  0  0  0  0  0
    8.8263    5.5019   24.2238 H   0  0  0  0  0  0  0  0  0  0  0  0
    7.4878    5.2729   25.3929 H   0  0  0  0  0  0  0  0  0  0  0  0
    8.0379    3.6687   23.0225 H   0  0  0  0  0  0  0  0  0  0  0  0
    6.0055    3.4669   25.1582 H   0  0  0  0  0  0  0  0  0  0  0  0
    6.2129    2.3295   23.8201 H   0  0  0  0  0  0  0  0  0  0  0  0
    7.3686    1.6847   26.0006 H   0  0  0  0  0  0  0  0  0  0  0  0
    8.5113    3.0248   25.7381 H   0  0  0  0  0  0  0  0  0  0  0  0
    9.9222    1.8702   24.0609 C   0  0  0  0  0  0  0  0  0  0  0  0
   10.4493    2.8911   24.4932 O   0  0  0  0  0  0  0  0  0  0  0  0
   10.6247    0.9886   23.0771 C   0  0  0  0  0  0  0  0  0  0  0  0
   11.9551    1.2822   22.7780 C   0  0  0  0  0  0  0  0  0  0  0  0
   12.6535    0.4974   21.8779 C   0  0  0  0  0  0  0  0  0  0  0  0
   11.9922   -0.5711   21.2707 C   0  0  0  0  0  0  0  0  0  0  0  0
   12.8302   -1.5751   20.1185 Cl  0  0  0  0  0  0  0  0  0  0  0  0
   10.6465   -0.8093   21.4835 C   0  0  0  0  0  0  0  0  0  0  0  0
    9.9491   -0.0517   22.4279 C   0  0  0  0  0  0  0  0  0  0  0  0
   10.1558   -1.5772   20.8941 H   0  0  0  0  0  0  0  0  0  0  0  0
   13.6854    0.7043   21.6117 H   0  0  0  0  0  0  0  0  0  0  0  0
   12.4155    2.1411   23.2579 H   0  0  0  0  0  0  0  0  0  0  0  0
    7.0993    0.1206   24.3056 H   0  0  0  0  0  0  0  0  0  0  0  0
    8.6531   -0.5780   24.7897 H   0  0  0  0  0  0  0  0  0  0  0  0
    6.4332   -2.3322   20.9749 H   0  0  0  0  0  0  0  0  0  0  0  0
    7.9902   -1.9925   20.2028 H   0  0  0  0  0  0  0  0  0  0  0  0
    8.9330   -2.3719   22.2975 H   0  0  0  0  0  0  0  0  0  0  0  0
    6.2279   -1.9273   23.6064 H   0  0  0  0  0  0  0  0  0  0  0  0
    7.7011   -2.5261   24.3954 H   0  0  0  0  0  0  0  0  0  0  0  0
    6.9431   -3.4740   23.1242 H   0  0  0  0  0  0  0  0  0  0  0  0
  1  2  1  0
  2  3  1  0
  3  4  1  0
  4  5  1  0
  5  6  2  0
  6  7  1  0
  7  8  2  0
  8  9  1  0
  9 10  2  0
 10 11  1  0
 11 12  2  0
 12 13  1  0
 13 14  2  0
 13 15  1  0
 12 16  1  0
 11 17  1  0
 10 18  1  0
  8 19  1  0
  6 20  1  0
  4 21  1  0
 21 22  2  0
 21 23  1  0
 23 24  1  1
 24 25  1  0
 25 26  1  0
 26 27  1  0
 27 28  1  0
 28 29  1  0
 29 30  1  0
 30 31  1  0
 31 32  1  0
 32 33  1  0
 33 34  1  0
 33 35  1  0
 33 36  1  0
 32 37  1  6
 31 38  1  0
 31 39  1  0
 30 40  1  1
 29 41  1  0
 29 42  1  0
 28 43  1  6
 27 44  1  0
 27 45  1  0
 26 46  1  0
 26 47  1  0
 25 48  1  0
 48 49  2  0
 48 50  1  0
 50 51  2  0
 51 52  1  0
 52 53  2  0
 53 54  1  0
 53 55  1  0
 55 56  2  0
 55 57  1  0
 52 58  1  0
 51 59  1  0
 24 60  1  0
 24 61  1  0
  3 62  1  0
  3 63  1  0
  2 64  1  6
  1 65  1  0
  1 66  1  0
  1 67  1  0
 23  2  1  0
 32 28  1  0
 56 50  1  0
 14  5  1  0
 56 23  1  0
 14  9  1  0
 34 30  1  0
M  CHG  1  28   1
M  END
>  <cnnaffinities>  (15) 
[6.7661]

>  <score>  (15) 
6.7661

>  <index>  (15) 
14

>  <Smiles>  (15) 
C([C@]1(C(N(c2c(nc(c3c(c(c(c(c23)[H])[H])[H])[H])[H])[H])C(=O)[C@]21C(N(C(C([N@@+]1(C([C@@]3(C([C@]1(C(O3)([H])[H])[H])([H])[H])[H])([H])[H])[H])([H])[H])([H])[H])C(=O)c1c(c(c(Cl)c(c21)[H])[H])[H])([H])[H])([H])[H])[H])([H])([H])[H]

>  <h>  (15) 
<NA>

>  <Training>  (15) 
True

>  <Success>  (15) 
True

>  <enamine_searched>  (15) 
False

>  <enamine_id>  (15) 
nan

$$$$

     RDKit          3D

 72 77  0  0  0  0  0  0  0  0999 V2000
    5.4454    5.7521   21.2355 C   0  0  0  0  0  0  0  0  0  0  0  0
    5.8681    4.7457   22.2811 C   0  0  1  0  0  0  0  0  0  0  0  0
    7.2132    5.0937   22.9210 C   0  0  0  0  0  0  0  0  0  0  0  0
    7.5664    4.1230   24.0076 N   0  0  2  0  0  4  0  0  0  0  0  0
    8.0739    2.8364   23.4622 C   0  0  0  0  0  0  0  0  0  0  0  0
    8.7972    2.0597   24.5519 C   0  0  0  0  0  0  0  0  0  0  0  0
    9.3771    0.8686   23.9853 N   0  0  0  0  0  0  0  0  0  0  0  0
    8.5609   -0.2978   23.7232 C   0  0  0  0  0  0  0  0  0  0  0  0
    8.7376   -0.8633   22.2908 C   0  0  2  0  0  0  0  0  0  0  0  0
    8.1311    0.0594   21.1872 C   0  0  0  0  0  0  0  0  0  0  0  0
    8.6297    1.0465   20.6858 O   0  0  0  0  0  0  0  0  0  0  0  0
    6.8945   -0.4450   20.8388 N   0  0  0  0  0  0  0  0  0  0  0  0
    6.1358    0.0886   19.7658 C   0  0  0  0  0  0  0  0  0  0  0  0
    6.4760   -0.2029   18.4657 C   0  0  0  0  0  0  0  0  0  0  0  0
    5.7962    0.2413   17.3793 N   0  0  0  0  0  0  0  0  0  0  0  0
    4.7575    1.0097   17.6004 C   0  0  0  0  0  0  0  0  0  0  0  0
    4.2961    1.3891   18.8933 C   0  0  0  0  0  0  0  0  0  0  0  0
    3.1758    2.2415   19.0645 C   0  0  0  0  0  0  0  0  0  0  0  0
    2.7570    2.5911   20.3190 C   0  0  0  0  0  0  0  0  0  0  0  0
    3.4374    2.1099   21.4567 C   0  0  0  0  0  0  0  0  0  0  0  0
    4.5227    1.2737   21.3195 C   0  0  0  0  0  0  0  0  0  0  0  0
    4.9890    0.9017   20.0261 C   0  0  0  0  0  0  0  0  0  0  0  0
    5.0315    0.8988   22.2037 H   0  0  0  0  0  0  0  0  0  0  0  0
    3.1140    2.4293   22.4438 H   0  0  0  0  0  0  0  0  0  0  0  0
    1.8953    3.2408   20.4405 H   0  0  0  0  0  0  0  0  0  0  0  0
    2.6777    2.6142   18.1752 H   0  0  0  0  0  0  0  0  0  0  0  0
    4.2199    1.3829   16.7293 H   0  0  0  0  0  0  0  0  0  0  0  0
    7.3376   -0.8355   18.2602 H   0  0  0  0  0  0  0  0  0  0  0  0
    6.5514   -1.6859   21.4997 C   0  0  0  0  0  0  0  0  0  0  0  0
    7.9024   -2.1552   22.0639 C   0  0  2  0  0  0  0  0  0  0  0  0
    7.7748   -3.1164   23.2395 C   0  0  0  0  0  0  0  0  0  0  0  0
    8.7551   -3.4245   23.6193 H   0  0  0  0  0  0  0  0  0  0  0  0
    7.2287   -4.0156   22.9406 H   0  0  0  0  0  0  0  0  0  0  0  0
    7.2233   -2.6633   24.0714 H   0  0  0  0  0  0  0  0  0  0  0  0
    8.4064   -2.6645   21.2389 H   0  0  0  0  0  0  0  0  0  0  0  0
    5.7944   -1.5404   22.2884 H   0  0  0  0  0  0  0  0  0  0  0  0
    6.1349   -2.4029   20.7835 H   0  0  0  0  0  0  0  0  0  0  0  0
   10.2369   -0.9956   22.0874 C   0  0  0  0  0  0  0  0  0  0  0  0
   10.8134   -1.9869   21.2904 C   0  0  0  0  0  0  0  0  0  0  0  0
   12.0932   -1.7815   20.8143 C   0  0  0  0  0  0  0  0  0  0  0  0
   12.7583   -2.9151   19.7066 Cl  0  0  0  0  0  0  0  0  0  0  0  0
   12.8789   -0.6756   21.1311 C   0  0  0  0  0  0  0  0  0  0  0  0
   12.3892    0.1967   22.0675 C   0  0  0  0  0  0  0  0  0  0  0  0
   11.1032    0.0033   22.5609 C   0  0  0  0  0  0  0  0  0  0  0  0
   10.6844    0.9519   23.6208 C   0  0  0  0  0  0  0  0  0  0  0  0
   11.4510    1.7823   24.0878 O   0  0  0  0  0  0  0  0  0  0  0  0
   12.9770    1.0170   22.4674 H   0  0  0  0  0  0  0  0  0  0  0  0
   13.8734   -0.6030   20.7104 H   0  0  0  0  0  0  0  0  0  0  0  0
   10.3044   -2.9015   20.9986 H   0  0  0  0  0  0  0  0  0  0  0  0
    7.5225   -0.0278   23.9217 H   0  0  0  0  0  0  0  0  0  0  0  0
    8.8406   -1.0889   24.4318 H   0  0  0  0  0  0  0  0  0  0  0  0
    8.1310    1.7994   25.3818 H   0  0  0  0  0  0  0  0  0  0  0  0
    9.6192    2.6521   24.9553 H   0  0  0  0  0  0  0  0  0  0  0  0
    7.2603    2.2307   23.0479 H   0  0  0  0  0  0  0  0  0  0  0  0
    8.7637    3.0409   22.6336 H   0  0  0  0  0  0  0  0  0  0  0  0
    6.4120    3.9849   25.0044 C   0  0  1  0  0  0  0  0  0  0  0  0
    6.3495    5.2319   25.8744 C   0  0  0  0  0  0  0  0  0  0  0  0
    6.0593    6.1071   25.2897 H   0  0  0  0  0  0  0  0  0  0  0  0
    7.3279    5.4219   26.3307 H   0  0  0  0  0  0  0  0  0  0  0  0
    5.6206    5.0998   26.6772 H   0  0  0  0  0  0  0  0  0  0  0  0
    5.1138    3.7174   24.2468 C   0  0  0  0  0  0  0  0  0  0  0  0
    4.8536    4.7110   23.2782 O   0  0  0  0  0  0  0  0  0  0  0  0
    5.1587    2.7217   23.7737 H   0  0  0  0  0  0  0  0  0  0  0  0
    4.2680    3.7271   24.9446 H   0  0  0  0  0  0  0  0  0  0  0  0
    6.6223    3.1158   25.6324 H   0  0  0  0  0  0  0  0  0  0  0  0
    8.3640    4.5262   24.5323 H   0  0  0  0  0  0  0  0  0  0  0  0
    8.0044    5.0851   22.1601 H   0  0  0  0  0  0  0  0  0  0  0  0
    7.1777    6.0991   23.3459 H   0  0  0  0  0  0  0  0  0  0  0  0
    5.9487    3.7489   21.8162 H   0  0  0  0  0  0  0  0  0  0  0  0
    6.1655    5.7869   20.4109 H   0  0  0  0  0  0  0  0  0  0  0  0
    5.3650    6.7490   21.6788 H   0  0  0  0  0  0  0  0  0  0  0  0
    4.4703    5.4711   20.8324 H   0  0  0  0  0  0  0  0  0  0  0  0
  1  2  1  0
  2  3  1  0
  3  4  1  0
  4  5  1  0
  5  6  1  0
  6  7  1  0
  7  8  1  0
  9  8  1  1
  9 10  1  0
 10 11  2  0
 10 12  1  0
 12 13  1  0
 13 14  2  0
 14 15  1  0
 15 16  2  0
 16 17  1  0
 17 18  2  0
 18 19  1  0
 19 20  2  0
 20 21  1  0
 21 22  2  0
 21 23  1  0
 20 24  1  0
 19 25  1  0
 18 26  1  0
 16 27  1  0
 14 28  1  0
 12 29  1  0
 29 30  1  0
 30 31  1  0
 31 32  1  0
 31 33  1  0
 31 34  1  0
 30 35  1  6
 29 36  1  0
 29 37  1  0
  9 38  1  0
 38 39  2  0
 39 40  1  0
 40 41  1  0
 40 42  2  0
 42 43  1  0
 43 44  2  0
 44 45  1  0
 45 46  2  0
 43 47  1  0
 42 48  1  0
 39 49  1  0
  8 50  1  0
  8 51  1  0
  6 52  1  0
  6 53  1  0
  5 54  1  0
  5 55  1  0
  4 56  1  0
 56 57  1  0
 57 58  1  0
 57 59  1  0
 57 60  1  0
 56 61  1  0
 61 62  1  0
 61 63  1  0
 61 64  1  0
 56 65  1  1
  4 66  1  1
  3 67  1  0
  3 68  1  0
  2 69  1  6
  1 70  1  0
  1 71  1  0
  1 72  1  0
 62  2  1  0
 45  7  1  0
 30  9  1  0
 44 38  1  0
 22 13  1  0
 22 17  1  0
M  CHG  1   4   1
M  END
>  <cnnaffinities>  (16) 
[7.01359, 6.8573]

>  <score>  (16) 
7.01359

>  <index>  (16) 
15

>  <Smiles>  (16) 
C([C@]1(C([N@+](C(C(N2C([C@@]3(C(=O)N(c4c(nc(c5c(c(c(c(c45)[H])[H])[H])[H])[H])[H])C([C@@]3(C([H])([H])[H])[H])([H])[H])c3c(c(Cl)c(c(c3C2=O)[H])[H])[H])([H])[H])([H])[H])([H])[H])([C@@](C([H])([H])[H])(C(O1)([H])[H])[H])[H])([H])[H])[H])([H])([H])[H]

>  <h>  (16) 
<NA>

>  <Training>  (16) 
True

>  <Success>  (16) 
True

>  <enamine_searched>  (16) 
False

>  <enamine_id>  (16) 
nan

$$$$

     RDKit          3D

 47 50  0  0  0  0  0  0  0  0999 V2000
    7.1215   -4.7439   25.2887 C   0  0  0  0  0  0  0  0  0  0  0  0
    6.6061   -3.3774   24.8597 C   0  0  1  0  0  0  0  0  0  0  0  0
    7.6749   -2.2835   24.9355 C   0  0  0  0  0  0  0  0  0  0  0  0
    7.3651   -1.2928   23.8001 C   0  0  2  0  0  0  0  0  0  0  0  0
    6.6576   -0.0456   24.2975 C   0  0  0  0  0  0  0  0  0  0  0  0
    7.3504    1.1606   24.3874 C   0  0  0  0  0  0  0  0  0  0  0  0
    6.7194    2.3093   24.8527 C   0  0  0  0  0  0  0  0  0  0  0  0
    5.3873    2.2591   25.2520 C   0  0  0  0  0  0  0  0  0  0  0  0
    4.6990    1.0500   25.1980 C   0  0  0  0  0  0  0  0  0  0  0  0
    5.3324   -0.0932   24.7295 C   0  0  0  0  0  0  0  0  0  0  0  0
    4.7796   -1.0278   24.7007 H   0  0  0  0  0  0  0  0  0  0  0  0
    3.6606    0.9983   25.5112 H   0  0  0  0  0  0  0  0  0  0  0  0
    4.8877    3.1561   25.6018 H   0  0  0  0  0  0  0  0  0  0  0  0
    7.2671    3.2450   24.8877 H   0  0  0  0  0  0  0  0  0  0  0  0
    8.3931    1.2012   24.0789 H   0  0  0  0  0  0  0  0  0  0  0  0
    6.5612   -2.0640   22.8605 N   0  0  0  0  0  0  0  0  0  0  0  0
    6.2352   -1.7221   21.5758 C   0  0  0  0  0  0  0  0  0  0  0  0
    5.4447   -2.3978   20.9320 O   0  0  0  0  0  0  0  0  0  0  0  0
    6.9127   -0.4911   20.9222 C   0  0  0  0  0  0  0  0  0  0  0  0
    6.1133    0.0837   19.7713 C   0  0  0  0  0  0  0  0  0  0  0  0
    6.4210   -0.2159   18.4680 C   0  0  0  0  0  0  0  0  0  0  0  0
    5.7584    0.2384   17.3657 N   0  0  0  0  0  0  0  0  0  0  0  0
    4.7353    1.0288   17.5761 C   0  0  0  0  0  0  0  0  0  0  0  0
    4.2859    1.4227   18.8681 C   0  0  0  0  0  0  0  0  0  0  0  0
    3.1662    2.2760   19.0446 C   0  0  0  0  0  0  0  0  0  0  0  0
    2.7521    2.6291   20.2980 C   0  0  0  0  0  0  0  0  0  0  0  0
    3.4463    2.1373   21.4296 C   0  0  0  0  0  0  0  0  0  0  0  0
    4.5338    1.3114   21.2935 C   0  0  0  0  0  0  0  0  0  0  0  0
    4.9888    0.9359   20.0008 C   0  0  0  0  0  0  0  0  0  0  0  0
    5.0490    0.9486   22.1836 H   0  0  0  0  0  0  0  0  0  0  0  0
    3.1117    2.4274   22.4197 H   0  0  0  0  0  0  0  0  0  0  0  0
    1.8966    3.2863   20.4381 H   0  0  0  0  0  0  0  0  0  0  0  0
    2.6447    2.6464   18.1631 H   0  0  0  0  0  0  0  0  0  0  0  0
    4.1999    1.3985   16.6977 H   0  0  0  0  0  0  0  0  0  0  0  0
    7.2656   -0.8668   18.2448 H   0  0  0  0  0  0  0  0  0  0  0  0
    7.8756   -0.8361   20.5201 H   0  0  0  0  0  0  0  0  0  0  0  0
    7.1530    0.2915   21.6532 H   0  0  0  0  0  0  0  0  0  0  0  0
    6.1056   -3.3374   23.4115 C   0  0  0  0  0  0  0  0  0  0  0  0
    6.5202   -4.1588   22.8217 H   0  0  0  0  0  0  0  0  0  0  0  0
    5.0179   -3.4448   23.3487 H   0  0  0  0  0  0  0  0  0  0  0  0
    8.2988   -0.9959   23.3151 H   0  0  0  0  0  0  0  0  0  0  0  0
    8.6698   -2.7188   24.8040 H   0  0  0  0  0  0  0  0  0  0  0  0
    7.6900   -1.7969   25.9122 H   0  0  0  0  0  0  0  0  0  0  0  0
    5.7846   -3.1112   25.5305 H   0  0  0  0  0  0  0  0  0  0  0  0
    7.4996   -4.7436   26.3167 H   0  0  0  0  0  0  0  0  0  0  0  0
    7.9476   -5.0451   24.6411 H   0  0  0  0  0  0  0  0  0  0  0  0
    6.3537   -5.5195   25.2198 H   0  0  0  0  0  0  0  0  0  0  0  0
  1  2  1  0
  2  3  1  0
  3  4  1  0
  4  5  1  0
  5  6  2  0
  6  7  1  0
  7  8  2  0
  8  9  1  0
  9 10  2  0
 10 11  1  0
  9 12  1  0
  8 13  1  0
  7 14  1  0
  6 15  1  0
  4 16  1  0
 16 17  1  0
 17 18  2  0
 17 19  1  0
 19 20  1  0
 20 21  2  0
 21 22  1  0
 22 23  2  0
 23 24  1  0
 24 25  2  0
 25 26  1  0
 26 27  2  0
 27 28  1  0
 28 29  2  0
 28 30  1  0
 27 31  1  0
 26 32  1  0
 25 33  1  0
 23 34  1  0
 21 35  1  0
 19 36  1  0
 19 37  1  0
 16 38  1  0
 38 39  1  0
 38 40  1  0
  4 41  1  6
  3 42  1  0
  3 43  1  0
  2 44  1  1
  1 45  1  0
  1 46  1  0
  1 47  1  0
 38  2  1  0
 10  5  1  0
 29 20  1  0
 29 24  1  0
M  END
>  <cnnaffinities>  (17) 
[5.63558, 5.68955, 5.93483, 5.93575, 5.64847, 5.6466]

>  <score>  (17) 
5.63558

>  <index>  (17) 
16

>  <Smiles>  (17) 
C([C@]1(C([C@](c2c(c(c(c(c2[H])[H])[H])[H])[H])(N(C(=O)C(c2c(nc(c3c(c(c(c(c23)[H])[H])[H])[H])[H])[H])([H])[H])C1([H])[H])[H])([H])[H])[H])([H])([H])[H]

>  <h>  (17) 
<NA>

>  <Training>  (17) 
True

>  <Success>  (17) 
True

>  <enamine_searched>  (17) 
False

>  <enamine_id>  (17) 
nan

$$$$

     RDKit          3D

 58 63  0  0  0  0  0  0  0  0999 V2000
    7.1873   -2.3563   23.5306 C   0  0  0  0  0  0  0  0  0  0  0  0
    8.0185   -1.8272   22.3512 C   0  0  1  0  0  0  0  0  0  0  0  0
    7.1596   -1.7446   21.0726 C   0  0  0  0  0  0  0  0  0  0  0  0
    6.9058   -0.3328   20.8941 N   0  0  0  0  0  0  0  0  0  0  0  0
    6.1328    0.1253   19.7998 C   0  0  0  0  0  0  0  0  0  0  0  0
    6.4517   -0.2260   18.5110 C   0  0  0  0  0  0  0  0  0  0  0  0
    5.7893    0.2037   17.4090 N   0  0  0  0  0  0  0  0  0  0  0  0
    4.7626    0.9988   17.5999 C   0  0  0  0  0  0  0  0  0  0  0  0
    4.2996    1.4049   18.8839 C   0  0  0  0  0  0  0  0  0  0  0  0
    3.1764    2.2580   19.0428 C   0  0  0  0  0  0  0  0  0  0  0  0
    2.7478    2.6063   20.2934 C   0  0  0  0  0  0  0  0  0  0  0  0
    3.4056    2.1158   21.4434 C   0  0  0  0  0  0  0  0  0  0  0  0
    4.4966    1.2909   21.3165 C   0  0  0  0  0  0  0  0  0  0  0  0
    4.9825    0.9408   20.0268 C   0  0  0  0  0  0  0  0  0  0  0  0
    4.9927    0.8931   22.1970 H   0  0  0  0  0  0  0  0  0  0  0  0
    3.0468    2.4056   22.4268 H   0  0  0  0  0  0  0  0  0  0  0  0
    1.8886    3.2584   20.4096 H   0  0  0  0  0  0  0  0  0  0  0  0
    2.6758    2.6259   18.1521 H   0  0  0  0  0  0  0  0  0  0  0  0
    4.2356    1.3604   16.7185 H   0  0  0  0  0  0  0  0  0  0  0  0
    7.3056   -0.8743   18.3209 H   0  0  0  0  0  0  0  0  0  0  0  0
    7.8040    0.4763   21.5667 C   0  0  0  0  0  0  0  0  0  0  0  0
    7.9138    1.6718   21.4056 O   0  0  0  0  0  0  0  0  0  0  0  0
    8.6507   -0.4028   22.5226 C   0  0  1  0  0  0  0  0  0  0  0  0
    8.5442    0.1076   23.9796 C   0  0  0  0  0  0  0  0  0  0  0  0
    9.2203    1.3784   24.1801 N   0  0  0  0  0  0  0  0  0  0  0  0
    8.5907    2.3795   25.0186 C   0  0  0  0  0  0  0  0  0  0  0  0
    7.4812    3.0744   24.2941 C   0  0  0  0  0  0  0  0  0  0  0  0
    6.2109    2.8312   24.5015 N   0  0  0  0  0  0  0  0  0  0  0  0
    5.4951    3.6500   23.6656 N   0  0  0  0  0  0  0  0  0  0  0  0
    6.3597    4.3453   22.9797 C   0  0  0  0  0  0  0  0  0  0  0  0
    7.6401    4.0320   23.3360 N   0  0  0  0  0  0  0  0  0  0  0  0
    8.8768    4.6148   22.8113 C   0  0  0  0  0  0  0  0  0  0  0  0
    9.5623    4.8338   23.6373 H   0  0  0  0  0  0  0  0  0  0  0  0
    8.6269    5.5535   22.3069 H   0  0  0  0  0  0  0  0  0  0  0  0
    9.3518    3.9471   22.0828 H   0  0  0  0  0  0  0  0  0  0  0  0
    6.1159    5.0832   22.2313 H   0  0  0  0  0  0  0  0  0  0  0  0
    9.3759    3.0698   25.3416 H   0  0  0  0  0  0  0  0  0  0  0  0
    8.1713    1.8822   25.8981 H   0  0  0  0  0  0  0  0  0  0  0  0
   10.4766    1.6125   23.7115 C   0  0  0  0  0  0  0  0  0  0  0  0
   11.1588    2.5612   24.0885 O   0  0  0  0  0  0  0  0  0  0  0  0
   10.9747    0.6562   22.6855 C   0  0  0  0  0  0  0  0  0  0  0  0
   12.3016    0.7898   22.2773 C   0  0  0  0  0  0  0  0  0  0  0  0
   12.8566   -0.0958   21.3765 C   0  0  0  0  0  0  0  0  0  0  0  0
   12.0369   -1.1080   20.8921 C   0  0  0  0  0  0  0  0  0  0  0  0
   12.5595   -2.0557   20.0944 F   0  0  0  0  0  0  0  0  0  0  0  0
   10.7032   -1.2146   21.2290 C   0  0  0  0  0  0  0  0  0  0  0  0
   10.1336   -0.3267   22.1442 C   0  0  0  0  0  0  0  0  0  0  0  0
   10.1299   -2.0107   20.7767 H   0  0  0  0  0  0  0  0  0  0  0  0
   13.8930   -0.0359   21.0657 H   0  0  0  0  0  0  0  0  0  0  0  0
   12.8874    1.6021   22.6911 H   0  0  0  0  0  0  0  0  0  0  0  0
    8.9940   -0.6548   24.6300 H   0  0  0  0  0  0  0  0  0  0  0  0
    7.4970    0.2362   24.2656 H   0  0  0  0  0  0  0  0  0  0  0  0
    6.2084   -2.2843   21.1650 H   0  0  0  0  0  0  0  0  0  0  0  0
    7.6945   -2.1450   20.2062 H   0  0  0  0  0  0  0  0  0  0  0  0
    8.8204   -2.5570   22.2152 H   0  0  0  0  0  0  0  0  0  0  0  0
    7.8009   -2.4544   24.4330 H   0  0  0  0  0  0  0  0  0  0  0  0
    6.3336   -1.7039   23.7535 H   0  0  0  0  0  0  0  0  0  0  0  0
    6.8015   -3.3540   23.2846 H   0  0  0  0  0  0  0  0  0  0  0  0
  1  2  1  0
  2  3  1  0
  3  4  1  0
  4  5  1  0
  5  6  2  0
  6  7  1  0
  7  8  2  0
  8  9  1  0
  9 10  2  0
 10 11  1  0
 11 12  2  0
 12 13  1  0
 13 14  2  0
 13 15  1  0
 12 16  1  0
 11 17  1  0
 10 18  1  0
  8 19  1  0
  6 20  1  0
  4 21  1  0
 21 22  2  0
 21 23  1  0
 23 24  1  1
 24 25  1  0
 25 26  1  0
 26 27  1  0
 27 28  2  0
 28 29  1  0
 29 30  2  0
 30 31  1  0
 31 32  1  0
 32 33  1  0
 32 34  1  0
 32 35  1  0
 30 36  1  0
 26 37  1  0
 26 38  1  0
 25 39  1  0
 39 40  2  0
 39 41  1  0
 41 42  2  0
 42 43  1  0
 43 44  2  0
 44 45  1  0
 44 46  1  0
 46 47  2  0
 46 48  1  0
 43 49  1  0
 42 50  1  0
 24 51  1  0
 24 52  1  0
  3 53  1  0
  3 54  1  0
  2 55  1  6
  1 56  1  0
  1 57  1  0
  1 58  1  0
 23  2  1  0
 31 27  1  0
 47 41  1  0
 14  5  1  0
 47 23  1  0
 14  9  1  0
M  END
>  <cnnaffinities>  (18) 
[6.75892]

>  <score>  (18) 
6.75892

>  <index>  (18) 
17

>  <Smiles>  (18) 
C([C@]1(C(N(c2c(nc(c3c(c(c(c(c23)[H])[H])[H])[H])[H])[H])C(=O)[C@]21C(N(C(c1nnc(n1C([H])([H])[H])[H])([H])[H])C(=O)c1c(c(c(F)c(c21)[H])[H])[H])([H])[H])([H])[H])[H])([H])([H])[H]

>  <h>  (18) 
<NA>

>  <Training>  (18) 
True

>  <Success>  (18) 
True

>  <enamine_searched>  (18) 
False

>  <enamine_id>  (18) 
nan

$$$$

     RDKit          3D

 50 53  0  0  0  0  0  0  0  0999 V2000
    3.9011   -1.8263   29.3972 C   0  0  0  0  0  0  0  0  0  0  0  0
    3.9692   -2.1646   27.9151 C   0  0  1  0  0  0  0  0  0  0  0  0
    4.0172   -0.9053   27.0490 C   0  0  0  0  0  0  0  0  0  0  0  0
    4.1265   -1.2247   25.5558 C   0  0  0  0  0  0  0  0  0  0  0  0
    5.2864   -2.1855   25.1953 C   0  0  2  0  0  0  0  0  0  0  0  0
    6.6533   -1.4729   25.2925 C   0  0  0  0  0  0  0  0  0  0  0  0
    6.9250   -0.8668   23.9099 C   0  0  0  0  0  0  0  0  0  0  0  0
    6.0972   -1.6403   22.9918 N   0  0  0  0  0  0  0  0  0  0  0  0
    6.1479   -1.6295   21.6262 C   0  0  0  0  0  0  0  0  0  0  0  0
    5.5828   -2.4819   20.9595 O   0  0  0  0  0  0  0  0  0  0  0  0
    6.9101   -0.4853   20.9189 C   0  0  0  0  0  0  0  0  0  0  0  0
    6.1153    0.0912   19.7663 C   0  0  0  0  0  0  0  0  0  0  0  0
    6.4217   -0.2147   18.4636 C   0  0  0  0  0  0  0  0  0  0  0  0
    5.7585    0.2380   17.3634 N   0  0  0  0  0  0  0  0  0  0  0  0
    4.7345    1.0295   17.5745 C   0  0  0  0  0  0  0  0  0  0  0  0
    4.2864    1.4240   18.8672 C   0  0  0  0  0  0  0  0  0  0  0  0
    3.1635    2.2751   19.0425 C   0  0  0  0  0  0  0  0  0  0  0  0
    2.7492    2.6265   20.2998 C   0  0  0  0  0  0  0  0  0  0  0  0
    3.4403    2.1407   21.4317 C   0  0  0  0  0  0  0  0  0  0  0  0
    4.5321    1.3190   21.2878 C   0  0  0  0  0  0  0  0  0  0  0  0
    4.9894    0.9413   19.9955 C   0  0  0  0  0  0  0  0  0  0  0  0
    5.0491    0.9571   22.1723 H   0  0  0  0  0  0  0  0  0  0  0  0
    3.1055    2.4266   22.4237 H   0  0  0  0  0  0  0  0  0  0  0  0
    1.8918    3.2799   20.4364 H   0  0  0  0  0  0  0  0  0  0  0  0
    2.6401    2.6444   18.1637 H   0  0  0  0  0  0  0  0  0  0  0  0
    4.1980    1.3992   16.6993 H   0  0  0  0  0  0  0  0  0  0  0  0
    7.2667   -0.8679   18.2481 H   0  0  0  0  0  0  0  0  0  0  0  0
    7.8368   -0.9158   20.5174 H   0  0  0  0  0  0  0  0  0  0  0  0
    7.2122    0.3113   21.6091 H   0  0  0  0  0  0  0  0  0  0  0  0
    5.2286   -2.5793   23.6996 C   0  0  0  0  0  0  0  0  0  0  0  0
    5.5662   -3.6118   23.5488 H   0  0  0  0  0  0  0  0  0  0  0  0
    4.2089   -2.5258   23.3095 H   0  0  0  0  0  0  0  0  0  0  0  0
    7.9833   -0.9520   23.6509 H   0  0  0  0  0  0  0  0  0  0  0  0
    6.6510    0.1940   23.8880 H   0  0  0  0  0  0  0  0  0  0  0  0
    6.6764   -0.7048   26.0702 H   0  0  0  0  0  0  0  0  0  0  0  0
    7.4350   -2.1941   25.5540 H   0  0  0  0  0  0  0  0  0  0  0  0
    5.2164   -3.4246   26.1116 C   0  0  0  0  0  0  0  0  0  0  0  0
    5.1543   -3.0771   27.5989 C   0  0  0  0  0  0  0  0  0  0  0  0
    5.0913   -3.9944   28.1990 H   0  0  0  0  0  0  0  0  0  0  0  0
    6.0868   -2.5833   27.9018 H   0  0  0  0  0  0  0  0  0  0  0  0
    4.3268   -4.0144   25.8508 H   0  0  0  0  0  0  0  0  0  0  0  0
    6.0770   -4.0778   25.9186 H   0  0  0  0  0  0  0  0  0  0  0  0
    3.1805   -1.6850   25.2421 H   0  0  0  0  0  0  0  0  0  0  0  0
    4.2221   -0.2973   24.9775 H   0  0  0  0  0  0  0  0  0  0  0  0
    3.1210   -0.2974   27.2313 H   0  0  0  0  0  0  0  0  0  0  0  0
    4.8639   -0.2821   27.3638 H   0  0  0  0  0  0  0  0  0  0  0  0
    3.0560   -2.7118   27.6475 H   0  0  0  0  0  0  0  0  0  0  0  0
    3.0366   -1.1950   29.6231 H   0  0  0  0  0  0  0  0  0  0  0  0
    3.8335   -2.7310   30.0088 H   0  0  0  0  0  0  0  0  0  0  0  0
    4.8001   -1.2837   29.7065 H   0  0  0  0  0  0  0  0  0  0  0  0
  1  2  1  0
  2  3  1  0
  3  4  1  0
  5  4  1  1
  5  6  1  0
  6  7  1  0
  7  8  1  0
  8  9  1  0
  9 10  2  0
  9 11  1  0
 11 12  1  0
 12 13  2  0
 13 14  1  0
 14 15  2  0
 15 16  1  0
 16 17  2  0
 17 18  1  0
 18 19  2  0
 19 20  1  0
 20 21  2  0
 20 22  1  0
 19 23  1  0
 18 24  1  0
 17 25  1  0
 15 26  1  0
 13 27  1  0
 11 28  1  0
 11 29  1  0
  8 30  1  0
 30 31  1  0
 30 32  1  0
  7 33  1  0
  7 34  1  0
  6 35  1  0
  6 36  1  0
  5 37  1  0
 37 38  1  0
 38 39  1  0
 38 40  1  0
 37 41  1  0
 37 42  1  0
  4 43  1  0
  4 44  1  0
  3 45  1  0
  3 46  1  0
  2 47  1  6
  1 48  1  0
  1 49  1  0
  1 50  1  0
 38  2  1  0
 30  5  1  0
 21 12  1  0
 21 16  1  0
M  END
>  <cnnaffinities>  (19) 
[5.63626]

>  <score>  (19) 
5.63626

>  <index>  (19) 
18

>  <Smiles>  (19) 
C([C@]1(C(C([C@@]2(C(C(N(C(=O)C(c3c(nc(c4c(c(c(c(c34)[H])[H])[H])[H])[H])[H])([H])[H])C2([H])[H])([H])[H])([H])[H])C(C1([H])[H])([H])[H])([H])[H])([H])[H])[H])([H])([H])[H]

>  <h>  (19) 
<NA>

>  <Training>  (19) 
True

>  <Success>  (19) 
True

>  <enamine_searched>  (19) 
False

>  <enamine_id>  (19) 
nan

$$$$

     RDKit          3D

 67 71  0  0  0  0  0  0  0  0999 V2000
    3.6700   -4.6152   23.2646 O   0  0  0  0  0  0  0  0  0  0  0  0
    4.5504   -4.9518   24.0450 C   0  0  0  0  0  0  0  0  0  0  0  0
    5.9955   -5.0504   23.5585 C   0  0  0  0  0  0  0  0  0  0  0  0
    6.4907   -3.6892   23.2281 N   0  0  1  0  0  4  0  0  0  0  0  0
    6.6503   -2.8709   24.4981 C   0  0  0  0  0  0  0  0  0  0  0  0
    7.4682   -1.5975   24.3623 C   0  0  0  0  0  0  0  0  0  0  0  0
    7.5513   -0.6966   25.4265 C   0  0  0  0  0  0  0  0  0  0  0  0
    8.3936    0.4073   25.3735 C   0  0  0  0  0  0  0  0  0  0  0  0
    9.1923    0.5976   24.2517 C   0  0  0  0  0  0  0  0  0  0  0  0
   10.2926    1.9444   24.1973 Cl  0  0  0  0  0  0  0  0  0  0  0  0
    9.1208   -0.2806   23.1789 C   0  0  0  0  0  0  0  0  0  0  0  0
    8.2324   -1.3592   23.2251 C   0  0  0  0  0  0  0  0  0  0  0  0
    8.0279   -2.2571   22.0266 C   0  0  2  0  0  0  0  0  0  0  0  0
    6.8068   -1.7837   21.2192 C   0  0  0  0  0  0  0  0  0  0  0  0
    5.8759   -2.5194   20.9290 O   0  0  0  0  0  0  0  0  0  0  0  0
    6.8203   -0.4634   20.8581 N   0  0  0  0  0  0  0  0  0  0  0  0
    6.0837    0.0540   19.7696 C   0  0  0  0  0  0  0  0  0  0  0  0
    6.4280   -0.2514   18.4800 C   0  0  0  0  0  0  0  0  0  0  0  0
    5.7856    0.2270   17.3841 N   0  0  0  0  0  0  0  0  0  0  0  0
    4.7750    1.0357   17.5859 C   0  0  0  0  0  0  0  0  0  0  0  0
    4.3172    1.4327   18.8710 C   0  0  0  0  0  0  0  0  0  0  0  0
    3.1972    2.2839   19.0498 C   0  0  0  0  0  0  0  0  0  0  0  0
    2.7820    2.6178   20.3056 C   0  0  0  0  0  0  0  0  0  0  0  0
    3.4531    2.1232   21.4479 C   0  0  0  0  0  0  0  0  0  0  0  0
    4.5387    1.2949   21.3045 C   0  0  0  0  0  0  0  0  0  0  0  0
    4.9898    0.9357   20.0087 C   0  0  0  0  0  0  0  0  0  0  0  0
    5.0519    0.9034   22.1794 H   0  0  0  0  0  0  0  0  0  0  0  0
    3.0992    2.3839   22.4410 H   0  0  0  0  0  0  0  0  0  0  0  0
    1.9144    3.2568   20.4457 H   0  0  0  0  0  0  0  0  0  0  0  0
    2.6790    2.6504   18.1667 H   0  0  0  0  0  0  0  0  0  0  0  0
    4.2463    1.4093   16.7079 H   0  0  0  0  0  0  0  0  0  0  0  0
    7.2794   -0.9021   18.2864 H   0  0  0  0  0  0  0  0  0  0  0  0
    7.3647    0.1873   21.4004 H   0  0  0  0  0  0  0  0  0  0  0  0
    7.7668   -3.6991   22.4439 C   0  0  0  0  0  0  0  0  0  0  0  0
    8.5811   -4.1036   23.0590 H   0  0  0  0  0  0  0  0  0  0  0  0
    7.6424   -4.3290   21.5567 H   0  0  0  0  0  0  0  0  0  0  0  0
    8.9133   -2.1938   21.3837 H   0  0  0  0  0  0  0  0  0  0  0  0
    9.7557   -0.1174   22.3118 H   0  0  0  0  0  0  0  0  0  0  0  0
    8.4531    1.0980   26.2079 H   0  0  0  0  0  0  0  0  0  0  0  0
    6.9692   -0.8660   26.3285 H   0  0  0  0  0  0  0  0  0  0  0  0
    5.6554   -2.6348   24.8877 H   0  0  0  0  0  0  0  0  0  0  0  0
    7.1412   -3.5172   25.2398 H   0  0  0  0  0  0  0  0  0  0  0  0
    5.7727   -3.2705   22.5959 H   0  0  0  0  0  0  0  0  0  0  0  0
    6.6390   -5.5295   24.3023 H   0  0  0  0  0  0  0  0  0  0  0  0
    6.0301   -5.6730   22.6591 H   0  0  0  0  0  0  0  0  0  0  0  0
    4.3265   -5.1806   25.3662 N   0  0  0  0  0  0  0  0  0  0  0  0
    2.9861   -5.2090   25.9361 C   0  0  0  0  0  0  0  0  0  0  0  0
    2.2586   -6.5319   25.6317 C   0  0  0  0  0  0  0  0  0  0  0  0
    0.8790   -6.6340   26.2315 C   0  0  0  0  0  0  0  0  0  0  0  0
   -0.2314   -6.1480   25.5408 C   0  0  0  0  0  0  0  0  0  0  0  0
   -1.5039   -6.2028   26.0948 C   0  0  0  0  0  0  0  0  0  0  0  0
   -1.6897   -6.7517   27.3620 C   0  0  0  0  0  0  0  0  0  0  0  0
   -3.0573   -6.7899   27.9782 C   0  0  0  0  0  0  0  0  0  0  0  0
   -3.9778   -7.2467   27.0797 F   0  0  0  0  0  0  0  0  0  0  0  0
   -3.4584   -5.5363   28.3395 F   0  0  0  0  0  0  0  0  0  0  0  0
   -3.1131   -7.4279   28.8663 H   0  0  0  0  0  0  0  0  0  0  0  0
   -0.5911   -7.2484   28.0582 C   0  0  0  0  0  0  0  0  0  0  0  0
    0.6797   -7.1927   27.4950 C   0  0  0  0  0  0  0  0  0  0  0  0
    1.5220   -7.6059   28.0437 H   0  0  0  0  0  0  0  0  0  0  0  0
   -0.7214   -7.6946   29.0445 H   0  0  0  0  0  0  0  0  0  0  0  0
   -2.3576   -5.8265   25.5385 H   0  0  0  0  0  0  0  0  0  0  0  0
   -0.1110   -5.7306   24.5447 H   0  0  0  0  0  0  0  0  0  0  0  0
    2.2074   -6.6283   24.5407 H   0  0  0  0  0  0  0  0  0  0  0  0
    2.8811   -7.3553   25.9991 H   0  0  0  0  0  0  0  0  0  0  0  0
    3.0828   -5.0645   27.0178 H   0  0  0  0  0  0  0  0  0  0  0  0
    2.4210   -4.3656   25.5266 H   0  0  0  0  0  0  0  0  0  0  0  0
    5.1049   -5.4576   25.9413 H   0  0  0  0  0  0  0  0  0  0  0  0
  1  2  2  0
  2  3  1  0
  3  4  1  0
  4  5  1  0
  5  6  1  0
  6  7  2  0
  7  8  1  0
  8  9  2  0
  9 10  1  0
  9 11  1  0
 11 12  2  0
 12 13  1  0
 13 14  1  0
 14 15  2  0
 14 16  1  0
 16 17  1  0
 17 18  2  0
 18 19  1  0
 19 20  2  0
 20 21  1  0
 21 22  2  0
 22 23  1  0
 23 24  2  0
 24 25  1  0
 25 26  2  0
 25 27  1  0
 24 28  1  0
 23 29  1  0
 22 30  1  0
 20 31  1  0
 18 32  1  0
 16 33  1  0
 13 34  1  0
 34 35  1  0
 34 36  1  0
 13 37  1  6
 11 38  1  0
  8 39  1  0
  7 40  1  0
  5 41  1  0
  5 42  1  0
  4 43  1  6
  3 44  1  0
  3 45  1  0
  2 46  1  0
 46 47  1  0
 47 48  1  0
 48 49  1  0
 49 50  2  0
 50 51  1  0
 51 52  2  0
 52 53  1  0
 53 54  1  0
 53 55  1  0
 53 56  1  0
 52 57  1  0
 57 58  2  0
 58 59  1  0
 57 60  1  0
 51 61  1  0
 50 62  1  0
 48 63  1  0
 48 64  1  0
 47 65  1  0
 47 66  1  0
 46 67  1  0
 34  4  1  0
 58 49  1  0
 12  6  1  0
 26 17  1  0
 26 21  1  0
M  CHG  1   4   1
M  END
>  <cnnaffinities>  (20) 
[6.59658, 6.1058, 5.75878]

>  <score>  (20) 
6.59658

>  <index>  (20) 
19

>  <Smiles>  (20) 
O=C(C([N@+]1(C(c2c(c(c(Cl)c(c2[C@](C(=O)N(c2c(nc(c3c(c(c(c(c23)[H])[H])[H])[H])[H])[H])[H])(C1([H])[H])[H])[H])[H])[H])([H])[H])[H])([H])[H])N(C(C(c1c(c(c(C(F)(F)[H])c(c1[H])[H])[H])[H])([H])[H])([H])[H])[H]

>  <h>  (20) 
<NA>

>  <Training>  (20) 
True

>  <Success>  (20) 
True

>  <enamine_searched>  (20) 
False

>  <enamine_id>  (20) 
nan

$$$$

     RDKit          3D

 66 70  0  0  0  0  0  0  0  0999 V2000
   10.8502   -4.6398   25.0567 C   0  0  0  0  0  0  0  0  0  0  0  0
    9.7096   -4.2344   24.1269 C   0  0  0  0  0  0  0  0  0  0  0  0
    9.2706   -2.8444   24.5029 C   0  0  0  0  0  0  0  0  0  0  0  0
    9.9719   -1.8871   24.2235 O   0  0  0  0  0  0  0  0  0  0  0  0
    8.0690   -2.6903   25.1865 N   0  0  0  0  0  0  0  0  0  0  0  0
    7.4346   -3.7470   25.9655 C   0  0  0  0  0  0  0  0  0  0  0  0
    6.9620   -3.2042   27.3101 C   0  0  0  0  0  0  0  0  0  0  0  0
    6.0298   -1.9992   27.1385 C   0  0  0  0  0  0  0  0  0  0  0  0
    6.4484   -1.0656   26.0212 C   0  0  0  0  0  0  0  0  0  0  0  0
    5.8981    0.2145   25.9006 C   0  0  0  0  0  0  0  0  0  0  0  0
    6.1645    1.0266   24.7993 C   0  0  0  0  0  0  0  0  0  0  0  0
    6.9822    0.5229   23.7767 C   0  0  0  0  0  0  0  0  0  0  0  0
    7.3513    1.3109   22.6503 N   0  0  0  0  0  0  0  0  0  0  0  0
    7.7186    0.8135   21.3926 C   0  0  0  0  0  0  0  0  0  0  0  0
    8.5321    1.3918   20.7009 O   0  0  0  0  0  0  0  0  0  0  0  0
    6.9787   -0.4179   20.8693 C   0  0  0  0  0  0  0  0  0  0  0  0
    6.1084    0.0304   19.7215 C   0  0  0  0  0  0  0  0  0  0  0  0
    6.4495   -0.2404   18.4242 C   0  0  0  0  0  0  0  0  0  0  0  0
    5.7911    0.2221   17.3292 N   0  0  0  0  0  0  0  0  0  0  0  0
    4.7636    1.0076   17.5470 C   0  0  0  0  0  0  0  0  0  0  0  0
    4.3042    1.3870   18.8383 C   0  0  0  0  0  0  0  0  0  0  0  0
    3.2071    2.2658   19.0205 C   0  0  0  0  0  0  0  0  0  0  0  0
    2.7972    2.6238   20.2750 C   0  0  0  0  0  0  0  0  0  0  0  0
    3.4833    2.1336   21.4062 C   0  0  0  0  0  0  0  0  0  0  0  0
    4.5620    1.2985   21.2535 C   0  0  0  0  0  0  0  0  0  0  0  0
    4.9945    0.8835   19.9635 C   0  0  0  0  0  0  0  0  0  0  0  0
    5.1164    0.9967   22.1378 H   0  0  0  0  0  0  0  0  0  0  0  0
    3.1718    2.4411   22.4033 H   0  0  0  0  0  0  0  0  0  0  0  0
    1.9549    3.2971   20.4087 H   0  0  0  0  0  0  0  0  0  0  0  0
    2.7140    2.6587   18.1347 H   0  0  0  0  0  0  0  0  0  0  0  0
    4.2301    1.3910   16.6751 H   0  0  0  0  0  0  0  0  0  0  0  0
    7.3186   -0.8684   18.2225 H   0  0  0  0  0  0  0  0  0  0  0  0
    6.3951   -0.9291   21.6425 H   0  0  0  0  0  0  0  0  0  0  0  0
    7.7434   -1.1073   20.4957 H   0  0  0  0  0  0  0  0  0  0  0  0
    7.5031    2.6681   22.8622 N   0  0  0  0  0  0  0  0  0  0  0  0
    6.9126    3.5415   21.8618 C   0  0  0  0  0  0  0  0  0  0  0  0
    7.5601    4.4048   21.6983 H   0  0  0  0  0  0  0  0  0  0  0  0
    5.9098    3.8681   22.1651 H   0  0  0  0  0  0  0  0  0  0  0  0
    6.8208    3.0153   20.9080 H   0  0  0  0  0  0  0  0  0  0  0  0
    8.6055    3.0604   23.6350 C   0  0  0  0  0  0  0  0  0  0  0  0
    9.6744    2.1901   23.8655 C   0  0  0  0  0  0  0  0  0  0  0  0
   10.7216    2.5788   24.6864 C   0  0  0  0  0  0  0  0  0  0  0  0
   10.7159    3.8149   25.3307 C   0  0  0  0  0  0  0  0  0  0  0  0
    9.6581    4.6739   25.0862 C   0  0  0  0  0  0  0  0  0  0  0  0
    9.6895    6.2650   25.7984 Cl  0  0  0  0  0  0  0  0  0  0  0  0
    8.6171    4.3227   24.2355 C   0  0  0  0  0  0  0  0  0  0  0  0
    7.7866    4.9915   24.0612 H   0  0  0  0  0  0  0  0  0  0  0  0
   11.4825    4.1207   26.0355 H   0  0  0  0  0  0  0  0  0  0  0  0
   11.5449    1.8847   24.8207 H   0  0  0  0  0  0  0  0  0  0  0  0
    9.6899    1.2105   23.3993 H   0  0  0  0  0  0  0  0  0  0  0  0
    7.5479   -0.7328   23.8872 C   0  0  0  0  0  0  0  0  0  0  0  0
    7.3661   -1.4806   25.0474 C   0  0  0  0  0  0  0  0  0  0  0  0
    8.1925   -1.1112   23.1039 H   0  0  0  0  0  0  0  0  0  0  0  0
    5.7551    2.0311   24.7185 H   0  0  0  0  0  0  0  0  0  0  0  0
    5.2377    0.5884   26.6846 H   0  0  0  0  0  0  0  0  0  0  0  0
    5.9825   -1.4259   28.0740 H   0  0  0  0  0  0  0  0  0  0  0  0
    5.0052   -2.3531   26.9357 H   0  0  0  0  0  0  0  0  0  0  0  0
    6.4382   -4.0104   27.8370 H   0  0  0  0  0  0  0  0  0  0  0  0
    7.8335   -2.9220   27.9114 H   0  0  0  0  0  0  0  0  0  0  0  0
    8.1858   -4.5222   26.1224 H   0  0  0  0  0  0  0  0  0  0  0  0
    6.5922   -4.1759   25.3983 H   0  0  0  0  0  0  0  0  0  0  0  0
   10.0698   -4.1861   23.0943 H   0  0  0  0  0  0  0  0  0  0  0  0
    8.8538   -4.9128   24.1420 H   0  0  0  0  0  0  0  0  0  0  0  0
   10.5184   -4.6274   26.0985 H   0  0  0  0  0  0  0  0  0  0  0  0
   11.6630   -3.9146   24.9443 H   0  0  0  0  0  0  0  0  0  0  0  0
   11.2194   -5.6434   24.8374 H   0  0  0  0  0  0  0  0  0  0  0  0
  1  2  1  0
  2  3  1  0
  3  4  2  0
  3  5  1  0
  5  6  1  0
  6  7  1  0
  7  8  1  0
  8  9  1  0
  9 10  2  0
 10 11  1  0
 11 12  2  0
 12 13  1  0
 13 14  1  0
 14 15  2  0
 14 16  1  0
 16 17  1  0
 17 18  2  0
 18 19  1  0
 19 20  2  0
 20 21  1  0
 21 22  2  0
 22 23  1  0
 23 24  2  0
 24 25  1  0
 25 26  2  0
 25 27  1  0
 24 28  1  0
 23 29  1  0
 22 30  1  0
 20 31  1  0
 18 32  1  0
 16 33  1  0
 16 34  1  0
 13 35  1  0
 35 36  1  0
 36 37  1  0
 36 38  1  0
 36 39  1  0
 35 40  1  0
 40 41  2  0
 41 42  1  0
 42 43  2  0
 43 44  1  0
 44 45  1  0
 44 46  2  0
 46 47  1  0
 43 48  1  0
 42 49  1  0
 41 50  1  0
 12 51  1  0
 51 52  2  0
 51 53  1  0
 11 54  1  0
 10 55  1  0
  8 56  1  0
  8 57  1  0
  7 58  1  0
  7 59  1  0
  6 60  1  0
  6 61  1  0
  2 62  1  0
  2 63  1  0
  1 64  1  0
  1 65  1  0
  1 66  1  0
 52  5  1  0
 52  9  1  0
 26 17  1  0
 46 40  1  0
 26 21  1  0
M  END
>  <cnnaffinities>  (21) 
[6.875, 6.99216]

>  <score>  (21) 
6.875

>  <index>  (21) 
20

>  <Smiles>  (21) 
C(C(C(=O)N1C(C(C(c2c(c(c(N(C(=O)C(c3c(nc(c4c(c(c(c(c34)[H])[H])[H])[H])[H])[H])([H])[H])N(C([H])([H])[H])c3c(c(c(c(Cl)c3[H])[H])[H])[H])c(c12)[H])[H])[H])([H])[H])([H])[H])([H])[H])([H])[H])([H])([H])[H]

>  <h>  (21) 
<NA>

>  <Training>  (21) 
True

>  <Success>  (21) 
True

>  <enamine_searched>  (21) 
False

>  <enamine_id>  (21) 
nan

$$$$

     RDKit          3D

 59 64  0  0  0  0  0  0  0  0999 V2000
    6.8039   -2.2578   23.6475 C   0  0  0  0  0  0  0  0  0  0  0  0
    7.7743   -1.8283   22.5286 C   0  0  1  0  0  0  0  0  0  0  0  0
    7.0331   -1.7929   21.1689 C   0  0  0  0  0  0  0  0  0  0  0  0
    6.8894   -0.3881   20.8671 N   0  0  0  0  0  0  0  0  0  0  0  0
    6.1315    0.1067   19.7749 C   0  0  0  0  0  0  0  0  0  0  0  0
    6.4445   -0.2263   18.4786 C   0  0  0  0  0  0  0  0  0  0  0  0
    5.7697    0.2211   17.3909 N   0  0  0  0  0  0  0  0  0  0  0  0
    4.7471    1.0189   17.5942 C   0  0  0  0  0  0  0  0  0  0  0  0
    4.2953    1.4232   18.8819 C   0  0  0  0  0  0  0  0  0  0  0  0
    3.1690    2.2714   19.0605 C   0  0  0  0  0  0  0  0  0  0  0  0
    2.7436    2.6136   20.3187 C   0  0  0  0  0  0  0  0  0  0  0  0
    3.4258    2.1201   21.4539 C   0  0  0  0  0  0  0  0  0  0  0  0
    4.5228    1.3076   21.3041 C   0  0  0  0  0  0  0  0  0  0  0  0
    4.9998    0.9517   20.0114 C   0  0  0  0  0  0  0  0  0  0  0  0
    5.0346    0.9149   22.1750 H   0  0  0  0  0  0  0  0  0  0  0  0
    3.0767    2.3907   22.4475 H   0  0  0  0  0  0  0  0  0  0  0  0
    1.8816    3.2611   20.4480 H   0  0  0  0  0  0  0  0  0  0  0  0
    2.6549    2.6408   18.1800 H   0  0  0  0  0  0  0  0  0  0  0  0
    4.2210    1.3825   16.7137 H   0  0  0  0  0  0  0  0  0  0  0  0
    7.2906   -0.8754   18.2560 H   0  0  0  0  0  0  0  0  0  0  0  0
    7.7208    0.4268   21.6007 C   0  0  0  0  0  0  0  0  0  0  0  0
    7.8704    1.6105   21.3772 O   0  0  0  0  0  0  0  0  0  0  0  0
    8.4418   -0.4160   22.6825 C   0  0  1  0  0  0  0  0  0  0  0  0
    8.2473    0.1773   24.1024 C   0  0  0  0  0  0  0  0  0  0  0  0
    8.9581    1.4250   24.3035 N   0  0  0  0  0  0  0  0  0  0  0  0
    8.2769    2.5745   24.9060 C   0  0  0  0  0  0  0  0  0  0  0  0
    7.7564    3.5803   23.9035 C   0  0  0  0  0  0  0  0  0  0  0  0
    8.4805    4.5951   23.2428 C   0  0  0  0  0  0  0  0  0  0  0  0
    7.7406    5.2159   22.3299 N   0  0  0  0  0  0  0  0  0  0  0  0
    6.5463    4.6250   22.3927 N   0  0  0  0  0  0  0  0  0  0  0  0
    5.4941    4.9492   21.4552 C   0  0  0  0  0  0  0  0  0  0  0  0
    5.4699    4.2372   20.6177 H   0  0  0  0  0  0  0  0  0  0  0  0
    5.6634    5.9667   21.0935 H   0  0  0  0  0  0  0  0  0  0  0  0
    4.5460    4.8827   21.9942 H   0  0  0  0  0  0  0  0  0  0  0  0
    6.5017    3.6552   23.3333 C   0  0  0  0  0  0  0  0  0  0  0  0
    5.5971    3.0673   23.4520 H   0  0  0  0  0  0  0  0  0  0  0  0
    9.5228    4.8673   23.3683 H   0  0  0  0  0  0  0  0  0  0  0  0
    8.9872    3.0432   25.5950 H   0  0  0  0  0  0  0  0  0  0  0  0
    7.4475    2.1873   25.5076 H   0  0  0  0  0  0  0  0  0  0  0  0
   10.2622    1.5764   23.9240 C   0  0  0  0  0  0  0  0  0  0  0  0
   10.9411    2.5231   24.3070 O   0  0  0  0  0  0  0  0  0  0  0  0
   10.7826    0.5416   22.9706 C   0  0  0  0  0  0  0  0  0  0  0  0
   12.1358    0.5977   22.6357 C   0  0  0  0  0  0  0  0  0  0  0  0
   12.6631   -0.2683   21.7037 C   0  0  0  0  0  0  0  0  0  0  0  0
   11.8168   -1.1841   21.0990 C   0  0  0  0  0  0  0  0  0  0  0  0
   12.3677   -2.0232   20.2058 F   0  0  0  0  0  0  0  0  0  0  0  0
   10.4672   -1.2538   21.3914 C   0  0  0  0  0  0  0  0  0  0  0  0
    9.9377   -0.4057   22.3755 C   0  0  0  0  0  0  0  0  0  0  0  0
    9.8500   -1.9562   20.8388 H   0  0  0  0  0  0  0  0  0  0  0  0
   13.7091   -0.2761   21.4210 H   0  0  0  0  0  0  0  0  0  0  0  0
   12.7627    1.3330   23.1214 H   0  0  0  0  0  0  0  0  0  0  0  0
    7.1899    0.3851   24.2592 H   0  0  0  0  0  0  0  0  0  0  0  0
    8.5759   -0.5685   24.8453 H   0  0  0  0  0  0  0  0  0  0  0  0
    7.6064   -2.3030   20.3900 H   0  0  0  0  0  0  0  0  0  0  0  0
    6.0443   -2.2661   21.2198 H   0  0  0  0  0  0  0  0  0  0  0  0
    8.5659   -2.5873   22.5040 H   0  0  0  0  0  0  0  0  0  0  0  0
    7.3037   -2.3296   24.6195 H   0  0  0  0  0  0  0  0  0  0  0  0
    6.3868   -3.2504   23.4253 H   0  0  0  0  0  0  0  0  0  0  0  0
    5.9608   -1.5625   23.7505 H   0  0  0  0  0  0  0  0  0  0  0  0
  1  2  1  0
  2  3  1  0
  3  4  1  0
  4  5  1  0
  5  6  2  0
  6  7  1  0
  7  8  2  0
  8  9  1  0
  9 10  2  0
 10 11  1  0
 11 12  2  0
 12 13  1  0
 13 14  2  0
 13 15  1  0
 12 16  1  0
 11 17  1  0
 10 18  1  0
  8 19  1  0
  6 20  1  0
  4 21  1  0
 21 22  2  0
 21 23  1  0
 23 24  1  1
 24 25  1  0
 25 26  1  0
 26 27  1  0
 27 28  1  0
 28 29  2  0
 29 30  1  0
 30 31  1  0
 31 32  1  0
 31 33  1  0
 31 34  1  0
 30 35  1  0
 35 36  1  0
 28 37  1  0
 26 38  1  0
 26 39  1  0
 25 40  1  0
 40 41  2  0
 40 42  1  0
 42 43  2  0
 43 44  1  0
 44 45  2  0
 45 46  1  0
 45 47  1  0
 47 48  2  0
 47 49  1  0
 44 50  1  0
 43 51  1  0
 24 52  1  0
 24 53  1  0
  3 54  1  0
  3 55  1  0
  2 56  1  6
  1 57  1  0
  1 58  1  0
  1 59  1  0
 23  2  1  0
 35 27  2  0
 48 42  1  0
 14  5  1  0
 48 23  1  0
 14  9  1  0
M  END
>  <cnnaffinities>  (22) 
[6.81447, 6.83331]

>  <score>  (22) 
6.81447

>  <index>  (22) 
21

>  <Smiles>  (22) 
C([C@]1(C(N(c2c(nc(c3c(c(c(c(c23)[H])[H])[H])[H])[H])[H])C(=O)[C@]21C(N(C(c1c(nn(C([H])([H])[H])c1[H])[H])([H])[H])C(=O)c1c(c(c(F)c(c21)[H])[H])[H])([H])[H])([H])[H])[H])([H])([H])[H]

>  <h>  (22) 
<NA>

>  <Training>  (22) 
True

>  <Success>  (22) 
True

>  <enamine_searched>  (22) 
False

>  <enamine_id>  (22) 
nan

$$$$

     RDKit          3D

 41 44  0  0  0  0  0  0  0  0999 V2000
    8.0385    1.7590   21.0096 O   0  0  0  0  0  0  0  0  0  0  0  0
    8.0885    0.5829   21.3312 C   0  0  0  0  0  0  0  0  0  0  0  0
    7.0220   -0.4185   20.8853 C   0  0  0  0  0  0  0  0  0  0  0  0
    6.1592    0.0903   19.7704 C   0  0  0  0  0  0  0  0  0  0  0  0
    6.4643   -0.2246   18.4717 C   0  0  0  0  0  0  0  0  0  0  0  0
    5.7984    0.2146   17.3714 N   0  0  0  0  0  0  0  0  0  0  0  0
    4.7711    1.0038   17.5844 C   0  0  0  0  0  0  0  0  0  0  0  0
    4.3308    1.4066   18.8743 C   0  0  0  0  0  0  0  0  0  0  0  0
    3.2093    2.2582   19.0413 C   0  0  0  0  0  0  0  0  0  0  0  0
    2.8001    2.6250   20.2958 C   0  0  0  0  0  0  0  0  0  0  0  0
    3.4996    2.1621   21.4320 C   0  0  0  0  0  0  0  0  0  0  0  0
    4.5986    1.3490   21.2945 C   0  0  0  0  0  0  0  0  0  0  0  0
    5.0388    0.9434   20.0037 C   0  0  0  0  0  0  0  0  0  0  0  0
    5.1414    1.0211   22.1747 H   0  0  0  0  0  0  0  0  0  0  0  0
    3.1629    2.4594   22.4217 H   0  0  0  0  0  0  0  0  0  0  0  0
    1.9443    3.2815   20.4214 H   0  0  0  0  0  0  0  0  0  0  0  0
    2.6924    2.6125   18.1542 H   0  0  0  0  0  0  0  0  0  0  0  0
    4.2284    1.3654   16.7122 H   0  0  0  0  0  0  0  0  0  0  0  0
    7.3085   -0.8806   18.2562 H   0  0  0  0  0  0  0  0  0  0  0  0
    6.4154   -0.7045   21.7560 H   0  0  0  0  0  0  0  0  0  0  0  0
    7.5380   -1.3249   20.5481 H   0  0  0  0  0  0  0  0  0  0  0  0
    9.0994    0.0738   22.0953 N   0  0  0  0  0  0  0  0  0  0  0  0
    9.1583   -1.3174   22.5517 C   0  0  0  0  0  0  0  0  0  0  0  0
    9.9957   -1.4423   23.8202 C   0  0  0  0  0  0  0  0  0  0  0  0
   11.3554   -0.8468   23.5904 C   0  0  0  0  0  0  0  0  0  0  0  0
   12.5630   -1.3817   24.0271 C   0  0  0  0  0  0  0  0  0  0  0  0
   12.5756   -2.8167   25.0120 Cl  0  0  0  0  0  0  0  0  0  0  0  0
   13.7770   -0.7894   23.7094 C   0  0  0  0  0  0  0  0  0  0  0  0
   13.7935    0.3656   22.9412 C   0  0  0  0  0  0  0  0  0  0  0  0
   12.5975    0.9743   22.5960 C   0  0  0  0  0  0  0  0  0  0  0  0
   11.3935    0.3690   22.9113 C   0  0  0  0  0  0  0  0  0  0  0  0
   10.1074    1.0301   22.5274 C   0  0  0  0  0  0  0  0  0  0  0  0
    9.7096    1.6469   23.3406 H   0  0  0  0  0  0  0  0  0  0  0  0
   10.2835    1.7522   21.7334 H   0  0  0  0  0  0  0  0  0  0  0  0
   12.5714    1.9304   22.0912 H   0  0  0  0  0  0  0  0  0  0  0  0
   14.7175    0.8043   22.5894 H   0  0  0  0  0  0  0  0  0  0  0  0
   14.6929   -1.2353   24.0748 H   0  0  0  0  0  0  0  0  0  0  0  0
   10.0515   -2.4805   24.1503 H   0  0  0  0  0  0  0  0  0  0  0  0
    9.5034   -0.8902   24.6268 H   0  0  0  0  0  0  0  0  0  0  0  0
    9.5678   -1.9675   21.7687 H   0  0  0  0  0  0  0  0  0  0  0  0
    8.1527   -1.6899   22.7540 H   0  0  0  0  0  0  0  0  0  0  0  0
  1  2  2  0
  2  3  1  0
  3  4  1  0
  4  5  2  0
  5  6  1  0
  6  7  2  0
  7  8  1  0
  8  9  2  0
  9 10  1  0
 10 11  2  0
 11 12  1  0
 12 13  2  0
 12 14  1  0
 11 15  1  0
 10 16  1  0
  9 17  1  0
  7 18  1  0
  5 19  1  0
  3 20  1  0
  3 21  1  0
  2 22  1  0
 22 23  1  0
 23 24  1  0
 24 25  1  0
 25 26  2  0
 26 27  1  0
 26 28  1  0
 28 29  2  0
 29 30  1  0
 30 31  2  0
 31 32  1  0
 32 33  1  0
 32 34  1  0
 30 35  1  0
 29 36  1  0
 28 37  1  0
 24 38  1  0
 24 39  1  0
 23 40  1  0
 23 41  1  0
 13  4  1  0
 32 22  1  0
 13  8  1  0
 31 25  1  0
M  END
>  <cnnaffinities>  (23) 
[6.00898]

>  <score>  (23) 
6.00898

>  <index>  (23) 
22

>  <Smiles>  (23) 
O=C(C(c1c(nc(c2c(c(c(c(c12)[H])[H])[H])[H])[H])[H])([H])[H])N1C(C(c2c(Cl)c(c(c(c2C1([H])[H])[H])[H])[H])([H])[H])([H])[H]

>  <h>  (23) 
<NA>

>  <Training>  (23) 
True

>  <Success>  (23) 
True

>  <enamine_searched>  (23) 
False

>  <enamine_id>  (23) 
nan

$$$$

     RDKit          3D

 69 74  0  0  0  0  0  0  0  0999 V2000
    7.9206    7.7487   22.5637 C   0  0  0  0  0  0  0  0  0  0  0  0
    7.7500    6.4246   21.8446 C   0  0  1  0  0  0  0  0  0  0  0  0
    8.6375    5.2676   22.3573 C   0  0  0  0  0  0  0  0  0  0  0  0
    7.9777    3.9009   22.2210 N   0  0  1  0  0  4  0  0  0  0  0  0
    7.3324    3.4379   23.4914 C   0  0  0  0  0  0  0  0  0  0  0  0
    8.3570    2.8335   24.4532 C   0  0  0  0  0  0  0  0  0  0  0  0
    9.0223    1.6648   23.8825 N   0  0  0  0  0  0  0  0  0  0  0  0
    8.2861    0.4220   23.7653 C   0  0  0  0  0  0  0  0  0  0  0  0
    8.6272   -0.3847   22.4834 C   0  0  2  0  0  0  0  0  0  0  0  0
    8.0404    0.3365   21.2457 C   0  0  0  0  0  0  0  0  0  0  0  0
    8.4559    1.3781   20.7650 O   0  0  0  0  0  0  0  0  0  0  0  0
    6.9467   -0.3643   20.7992 N   0  0  0  0  0  0  0  0  0  0  0  0
    6.1449    0.1176   19.7320 C   0  0  0  0  0  0  0  0  0  0  0  0
    6.4871   -0.1785   18.4380 C   0  0  0  0  0  0  0  0  0  0  0  0
    5.7906    0.2470   17.3556 N   0  0  0  0  0  0  0  0  0  0  0  0
    4.7498    1.0148   17.5704 C   0  0  0  0  0  0  0  0  0  0  0  0
    4.2933    1.4081   18.8617 C   0  0  0  0  0  0  0  0  0  0  0  0
    3.1906    2.2833   19.0474 C   0  0  0  0  0  0  0  0  0  0  0  0
    2.7981    2.6561   20.3044 C   0  0  0  0  0  0  0  0  0  0  0  0
    3.4781    2.1639   21.4381 C   0  0  0  0  0  0  0  0  0  0  0  0
    4.5409    1.3036   21.2861 C   0  0  0  0  0  0  0  0  0  0  0  0
    4.9942    0.9225   19.9906 C   0  0  0  0  0  0  0  0  0  0  0  0
    5.0789    0.9580   22.1640 H   0  0  0  0  0  0  0  0  0  0  0  0
    3.1699    2.4774   22.4304 H   0  0  0  0  0  0  0  0  0  0  0  0
    1.9679    3.3442   20.4388 H   0  0  0  0  0  0  0  0  0  0  0  0
    2.6892    2.6677   18.1650 H   0  0  0  0  0  0  0  0  0  0  0  0
    4.2050    1.3748   16.6956 H   0  0  0  0  0  0  0  0  0  0  0  0
    7.3577   -0.7986   18.2285 H   0  0  0  0  0  0  0  0  0  0  0  0
    6.5507   -1.4382   21.6873 C   0  0  0  0  0  0  0  0  0  0  0  0
    7.8553   -1.7402   22.4468 C   0  0  2  0  0  0  0  0  0  0  0  0
    7.6173   -2.4415   23.7841 C   0  0  0  0  0  0  0  0  0  0  0  0
    6.9748   -1.8371   24.4373 H   0  0  0  0  0  0  0  0  0  0  0  0
    8.5597   -2.6300   24.3131 H   0  0  0  0  0  0  0  0  0  0  0  0
    7.1123   -3.4045   23.6401 H   0  0  0  0  0  0  0  0  0  0  0  0
    8.4326   -2.4094   21.8045 H   0  0  0  0  0  0  0  0  0  0  0  0
    5.7429   -1.1390   22.3778 H   0  0  0  0  0  0  0  0  0  0  0  0
    6.1840   -2.2977   21.1168 H   0  0  0  0  0  0  0  0  0  0  0  0
   10.1354   -0.4611   22.3340 C   0  0  0  0  0  0  0  0  0  0  0  0
   10.7320   -1.4155   21.4988 C   0  0  0  0  0  0  0  0  0  0  0  0
   12.0621   -1.3041   21.1388 C   0  0  0  0  0  0  0  0  0  0  0  0
   12.6967   -2.4856   20.0189 Cl  0  0  0  0  0  0  0  0  0  0  0  0
   12.8670   -0.2808   21.6440 C   0  0  0  0  0  0  0  0  0  0  0  0
   12.3000    0.6156   22.5277 C   0  0  0  0  0  0  0  0  0  0  0  0
   10.9454    0.5579   22.8580 C   0  0  0  0  0  0  0  0  0  0  0  0
   10.3717    1.6970   23.6651 C   0  0  0  0  0  0  0  0  0  0  0  0
   11.0719    2.6385   24.0270 O   0  0  0  0  0  0  0  0  0  0  0  0
   12.9004    1.3852   22.9943 H   0  0  0  0  0  0  0  0  0  0  0  0
   13.9093   -0.2003   21.3456 H   0  0  0  0  0  0  0  0  0  0  0  0
   10.1787   -2.2482   21.0778 H   0  0  0  0  0  0  0  0  0  0  0  0
    8.4860   -0.2120   24.6393 H   0  0  0  0  0  0  0  0  0  0  0  0
    7.2216    0.6639   23.7512 H   0  0  0  0  0  0  0  0  0  0  0  0
    9.1555    3.5415   24.6660 H   0  0  0  0  0  0  0  0  0  0  0  0
    7.8740    2.5876   25.4092 H   0  0  0  0  0  0  0  0  0  0  0  0
    6.8004    4.2760   23.9441 H   0  0  0  0  0  0  0  0  0  0  0  0
    6.5856    2.6807   23.2206 H   0  0  0  0  0  0  0  0  0  0  0  0
    7.0307    3.8792   21.0606 C   0  0  0  0  0  0  0  0  0  0  0  0
    6.0883    5.0949   20.9822 C   0  0  0  0  0  0  0  0  0  0  0  0
    6.3846    6.0617   21.9569 O   0  0  0  0  0  0  0  0  0  0  0  0
    6.1697    5.5762   19.9934 H   0  0  0  0  0  0  0  0  0  0  0  0
    5.0409    4.8028   21.1086 H   0  0  0  0  0  0  0  0  0  0  0  0
    6.4457    2.9664   21.1012 H   0  0  0  0  0  0  0  0  0  0  0  0
    7.6468    3.7972   20.1659 H   0  0  0  0  0  0  0  0  0  0  0  0
    8.6755    3.1821   21.9708 H   0  0  0  0  0  0  0  0  0  0  0  0
    8.8737    5.4228   23.4115 H   0  0  0  0  0  0  0  0  0  0  0  0
    9.5807    5.2521   21.8047 H   0  0  0  0  0  0  0  0  0  0  0  0
    7.9958    6.5886   20.7847 H   0  0  0  0  0  0  0  0  0  0  0  0
    7.6464    7.6485   23.6177 H   0  0  0  0  0  0  0  0  0  0  0  0
    7.2450    8.4760   22.1001 H   0  0  0  0  0  0  0  0  0  0  0  0
    8.9454    8.1280   22.4753 H   0  0  0  0  0  0  0  0  0  0  0  0
  1  2  1  0
  2  3  1  0
  3  4  1  0
  4  5  1  0
  5  6  1  0
  6  7  1  0
  7  8  1  0
  9  8  1  1
  9 10  1  0
 10 11  2  0
 10 12  1  0
 12 13  1  0
 13 14  2  0
 14 15  1  0
 15 16  2  0
 16 17  1  0
 17 18  2  0
 18 19  1  0
 19 20  2  0
 20 21  1  0
 21 22  2  0
 21 23  1  0
 20 24  1  0
 19 25  1  0
 18 26  1  0
 16 27  1  0
 14 28  1  0
 12 29  1  0
 29 30  1  0
 30 31  1  0
 31 32  1  0
 31 33  1  0
 31 34  1  0
 30 35  1  6
 29 36  1  0
 29 37  1  0
  9 38  1  0
 38 39  2  0
 39 40  1  0
 40 41  1  0
 40 42  2  0
 42 43  1  0
 43 44  2  0
 44 45  1  0
 45 46  2  0
 43 47  1  0
 42 48  1  0
 39 49  1  0
  8 50  1  0
  8 51  1  0
  6 52  1  0
  6 53  1  0
  5 54  1  0
  5 55  1  0
  4 56  1  0
 56 57  1  0
 57 58  1  0
 57 59  1  0
 57 60  1  0
 56 61  1  0
 56 62  1  0
  4 63  1  6
  3 64  1  0
  3 65  1  0
  2 66  1  6
  1 67  1  0
  1 68  1  0
  1 69  1  0
 58  2  1  0
 45  7  1  0
 30  9  1  0
 44 38  1  0
 22 13  1  0
 22 17  1  0
M  CHG  1   4   1
M  END
>  <cnnaffinities>  (24) 
[6.64799]

>  <score>  (24) 
6.64799

>  <index>  (24) 
23

>  <Smiles>  (24) 
C([C@]1(C([N@@+](C(C(N2C([C@@]3(C(=O)N(c4c(nc(c5c(c(c(c(c45)[H])[H])[H])[H])[H])[H])C([C@@]3(C([H])([H])[H])[H])([H])[H])c3c(c(Cl)c(c(c3C2=O)[H])[H])[H])([H])[H])([H])[H])([H])[H])(C(C(O1)([H])[H])([H])[H])[H])([H])[H])[H])([H])([H])[H]

>  <h>  (24) 
<NA>

>  <Training>  (24) 
True

>  <Success>  (24) 
True

>  <enamine_searched>  (24) 
False

>  <enamine_id>  (24) 
nan

$$$$

     RDKit          3D

 70 75  0  0  0  0  0  0  0  0999 V2000
    4.6046   -7.8529   24.1744 C   0  0  0  0  0  0  0  0  0  0  0  0
    5.9685   -7.5344   23.6932 N   0  0  0  0  0  4  0  0  0  0  0  0
    6.4448   -6.1653   24.0807 C   0  0  0  0  0  0  0  0  0  0  0  0
    5.7249   -5.0296   23.3372 C   0  0  0  0  0  0  0  0  0  0  0  0
    6.2293   -3.7210   23.7217 N   0  0  0  0  0  0  0  0  0  0  0  0
    7.4620   -3.2089   23.1338 C   0  0  0  0  0  0  0  0  0  0  0  0
    7.3387   -1.7067   22.7771 C   0  0  2  0  0  0  0  0  0  0  0  0
    6.4190   -1.5411   21.5463 C   0  0  0  0  0  0  0  0  0  0  0  0
    5.4012   -2.1463   21.2900 O   0  0  0  0  0  0  0  0  0  0  0  0
    6.9466   -0.5537   20.7494 N   0  0  0  0  0  0  0  0  0  0  0  0
    6.1983    0.0243   19.6969 C   0  0  0  0  0  0  0  0  0  0  0  0
    6.5711   -0.2003   18.3988 C   0  0  0  0  0  0  0  0  0  0  0  0
    5.9005    0.2669   17.3179 N   0  0  0  0  0  0  0  0  0  0  0  0
    4.8427    1.0088   17.5462 C   0  0  0  0  0  0  0  0  0  0  0  0
    4.3787    1.3638   18.8464 C   0  0  0  0  0  0  0  0  0  0  0  0
    3.2603    2.2181   19.0345 C   0  0  0  0  0  0  0  0  0  0  0  0
    2.8700    2.5772   20.2943 C   0  0  0  0  0  0  0  0  0  0  0  0
    3.5730    2.0979   21.4239 C   0  0  0  0  0  0  0  0  0  0  0  0
    4.6512    1.2608   21.2756 C   0  0  0  0  0  0  0  0  0  0  0  0
    5.0756    0.8674   19.9704 C   0  0  0  0  0  0  0  0  0  0  0  0
    5.1925    0.9092   22.1558 H   0  0  0  0  0  0  0  0  0  0  0  0
    3.2567    2.4034   22.4166 H   0  0  0  0  0  0  0  0  0  0  0  0
    2.0243    3.2447   20.4367 H   0  0  0  0  0  0  0  0  0  0  0  0
    2.7384    2.5908   18.1567 H   0  0  0  0  0  0  0  0  0  0  0  0
    4.3012    1.3782   16.6750 H   0  0  0  0  0  0  0  0  0  0  0  0
    7.4501   -0.8102   18.1938 H   0  0  0  0  0  0  0  0  0  0  0  0
    8.2189   -0.0345   21.1913 C   0  0  0  0  0  0  0  0  0  0  0  0
    8.6569   -0.9975   22.3108 C   0  0  2  0  0  0  0  0  0  0  0  0
    9.8232   -1.8974   21.8744 C   0  0  0  0  0  0  0  0  0  0  0  0
   10.5437   -2.4342   22.9502 O   0  0  0  0  0  0  0  0  0  0  0  0
   11.3216   -1.4771   23.6474 C   0  0  0  0  0  0  0  0  0  0  0  0
   12.0236   -2.0701   24.8816 C   0  0  0  0  0  0  0  0  0  0  0  0
   12.1074   -2.2275   24.6666 C   0  0  0  0  0  0  0  0  0  0  0  0
   13.9658   -3.3565   24.2615 O   0  0  0  0  0  0  0  0  0  0  0  0
   13.5729   -2.0960   24.8128 C   0  0  0  0  0  0  0  0  0  0  0  0
   13.9468   -1.9822   25.8396 H   0  0  0  0  0  0  0  0  0  0  0  0
   14.1177   -1.2942   24.2640 H   0  0  0  0  0  0  0  0  0  0  0  0
   11.9469   -3.2885   25.3351 H   0  0  0  0  0  0  0  0  0  0  0  0
   12.9124   -3.3010   24.1239 H   0  0  0  0  0  0  0  0  0  0  0  0
   11.6573   -1.3621   25.8244 H   0  0  0  0  0  0  0  0  0  0  0  0
   11.8624   -0.8521   22.9064 H   0  0  0  0  0  0  0  0  0  0  0  0
   10.6177   -0.7704   24.1233 H   0  0  0  0  0  0  0  0  0  0  0  0
   10.5095   -1.3321   21.2167 H   0  0  0  0  0  0  0  0  0  0  0  0
    9.4474   -2.7317   21.2746 H   0  0  0  0  0  0  0  0  0  0  0  0
    9.0480   -0.4335   23.1571 H   0  0  0  0  0  0  0  0  0  0  0  0
    8.9224   -0.0173   20.3603 H   0  0  0  0  0  0  0  0  0  0  0  0
    8.1220    1.0069   21.5335 H   0  0  0  0  0  0  0  0  0  0  0  0
    6.7595   -0.9773   23.9927 C   0  0  0  0  0  0  0  0  0  0  0  0
    6.9644    0.3995   24.1734 C   0  0  0  0  0  0  0  0  0  0  0  0
    6.5026    1.0386   25.3112 C   0  0  0  0  0  0  0  0  0  0  0  0
    6.8288    2.7377   25.5141 Cl  0  0  0  0  0  0  0  0  0  0  0  0
    5.8034    0.3505   26.2980 C   0  0  0  0  0  0  0  0  0  0  0  0
    5.5480   -0.9926   26.0996 C   0  0  0  0  0  0  0  0  0  0  0  0
    6.0059   -1.6506   24.9577 C   0  0  0  0  0  0  0  0  0  0  0  0
    5.6428   -3.0945   24.7832 C   0  0  0  0  0  0  0  0  0  0  0  0
    4.8439   -3.6579   25.5223 O   0  0  0  0  0  0  0  0  0  0  0  0
    4.9858   -1.5691   26.8255 H   0  0  0  0  0  0  0  0  0  0  0  0
    5.4661    0.8712   27.1875 H   0  0  0  0  0  0  0  0  0  0  0  0
    7.4974    1.0001   23.4457 H   0  0  0  0  0  0  0  0  0  0  0  0
    7.6663   -3.7859   22.2320 H   0  0  0  0  0  0  0  0  0  0  0  0
    8.3050   -3.3431   23.8260 H   0  0  0  0  0  0  0  0  0  0  0  0
    5.8344   -5.1231   22.2469 H   0  0  0  0  0  0  0  0  0  0  0  0
    4.6552   -5.0376   23.5697 H   0  0  0  0  0  0  0  0  0  0  0  0
    7.5154   -6.1287   23.8921 H   0  0  0  0  0  0  0  0  0  0  0  0
    6.2836   -6.0341   25.1521 H   0  0  0  0  0  0  0  0  0  0  0  0
    5.9621   -7.5853   22.6469 H   0  0  0  0  0  0  0  0  0  0  0  0
    6.6225   -8.2508   24.0683 H   0  0  0  0  0  0  0  0  0  0  0  0
    4.4617   -7.4557   25.1802 H   0  0  0  0  0  0  0  0  0  0  0  0
    3.8441   -7.4116   23.5293 H   0  0  0  0  0  0  0  0  0  0  0  0
    4.4569   -8.9302   24.1917 H   0  0  0  0  0  0  0  0  0  0  0  0
  1  2  1  0
  2  3  1  0
  3  4  1  0
  4  5  1  0
  5  6  1  0
  7  6  1  1
  7  8  1  0
  8  9  2  0
  8 10  1  0
 10 11  1  0
 11 12  2  0
 12 13  1  0
 13 14  2  0
 14 15  1  0
 15 16  2  0
 16 17  1  0
 17 18  2  0
 18 19  1  0
 19 20  2  0
 19 21  1  0
 18 22  1  0
 17 23  1  0
 16 24  1  0
 14 25  1  0
 12 26  1  0
 10 27  1  0
 27 28  1  0
 28 29  1  0
 29 30  1  0
 30 31  1  0
 31 32  1  0
 32 33  1  0
 33 34  1  0
 34 35  1  0
 35 36  1  0
 35 37  1  0
 33 38  1  0
 33 39  1  0
 32 40  1  0
 31 41  1  0
 31 42  1  0
 29 43  1  0
 29 44  1  0
 28 45  1  1
 27 46  1  0
 27 47  1  0
  7 48  1  0
 48 49  2  0
 49 50  1  0
 50 51  1  0
 50 52  2  0
 52 53  1  0
 53 54  2  0
 54 55  1  0
 55 56  2  0
 53 57  1  0
 52 58  1  0
 49 59  1  0
  6 60  1  0
  6 61  1  0
  4 62  1  0
  4 63  1  0
  3 64  1  0
  3 65  1  0
  2 66  1  0
  2 67  1  0
  1 68  1  0
  1 69  1  0
  1 70  1  0
 55  5  1  0
 28  7  1  0
 35 32  1  0
 54 48  1  0
 20 11  1  0
 20 15  1  0
M  CHG  1   2   1
M  END
>  <cnnaffinities>  (25) 
[6.78791]

>  <score>  (25) 
6.78791

>  <index>  (25) 
24

>  <Smiles>  (25) 
C([N+](C(C(N1C([C@@]2(C(=O)N(c3c(nc(c4c(c(c(c(c34)[H])[H])[H])[H])[H])[H])C([C@@]2(C(OC(C2(C(OC2([H])[H])([H])[H])[H])([H])[H])([H])[H])[H])([H])[H])c2c(c(Cl)c(c(c2C1=O)[H])[H])[H])([H])[H])([H])[H])([H])[H])([H])[H])([H])([H])[H]

>  <h>  (25) 
<NA>

>  <Training>  (25) 
True

>  <Success>  (25) 
True

>  <enamine_searched>  (25) 
False

>  <enamine_id>  (25) 
nan

$$$$

     RDKit          3D

 68 73  0  0  0  0  0  0  0  0999 V2000
    6.5550    4.3998   21.4110 C   0  0  0  0  0  0  0  0  0  0  0  0
    7.5012    3.9817   22.4376 N   0  0  0  0  0  0  0  0  0  0  0  0
    7.0139    3.3182   23.5270 C   0  0  0  0  0  0  0  0  0  0  0  0
    5.8168    3.1363   23.7066 O   0  0  0  0  0  0  0  0  0  0  0  0
    8.0572    2.8115   24.5323 C   0  0  0  0  0  0  0  0  0  0  0  0
    8.7481    1.6356   24.0193 N   0  0  0  0  0  0  0  0  0  0  0  0
    7.9844    0.4075   23.8433 C   0  0  0  0  0  0  0  0  0  0  0  0
    8.4245   -0.3922   22.5889 C   0  0  2  0  0  0  0  0  0  0  0  0
    7.9472    0.3339   21.3071 C   0  0  0  0  0  0  0  0  0  0  0  0
    8.3948    1.3562   20.8317 O   0  0  0  0  0  0  0  0  0  0  0  0
    6.9096   -0.3779   20.7597 N   0  0  0  0  0  0  0  0  0  0  0  0
    6.1387    0.1400   19.6971 C   0  0  0  0  0  0  0  0  0  0  0  0
    6.4689   -0.1750   18.4088 C   0  0  0  0  0  0  0  0  0  0  0  0
    5.7745    0.2480   17.3253 N   0  0  0  0  0  0  0  0  0  0  0  0
    4.7325    1.0145   17.5437 C   0  0  0  0  0  0  0  0  0  0  0  0
    4.2835    1.4165   18.8353 C   0  0  0  0  0  0  0  0  0  0  0  0
    3.1630    2.2672   19.0298 C   0  0  0  0  0  0  0  0  0  0  0  0
    2.7747    2.6328   20.2896 C   0  0  0  0  0  0  0  0  0  0  0  0
    3.4867    2.1715   21.4215 C   0  0  0  0  0  0  0  0  0  0  0  0
    4.5748    1.3486   21.2615 C   0  0  0  0  0  0  0  0  0  0  0  0
    5.0033    0.9575   19.9618 C   0  0  0  0  0  0  0  0  0  0  0  0
    5.1406    1.0301   22.1338 H   0  0  0  0  0  0  0  0  0  0  0  0
    3.1965    2.4927   22.4174 H   0  0  0  0  0  0  0  0  0  0  0  0
    1.9216    3.2911   20.4288 H   0  0  0  0  0  0  0  0  0  0  0  0
    2.6373    2.6309   18.1510 H   0  0  0  0  0  0  0  0  0  0  0  0
    4.1832    1.3630   16.6689 H   0  0  0  0  0  0  0  0  0  0  0  0
    7.3383   -0.8014   18.2174 H   0  0  0  0  0  0  0  0  0  0  0  0
    6.4949   -1.5254   21.5222 C   0  0  0  0  0  0  0  0  0  0  0  0
    7.6851   -1.7683   22.4576 C   0  0  2  0  0  0  0  0  0  0  0  0
    7.2217   -2.4921   23.7187 C   0  0  0  0  0  0  0  0  0  0  0  0
    8.3452   -3.0154   24.4599 N   0  0  0  0  0  0  0  0  0  0  0  0
    8.1058   -3.5447   25.7337 C   0  0  0  0  0  0  0  0  0  0  0  0
    9.0768   -4.1227   26.5937 C   0  0  0  0  0  0  0  0  0  0  0  0
    8.5344   -4.5705   27.7136 N   0  0  0  0  0  0  0  0  0  0  0  0
    7.2302   -4.3143   27.6070 N   0  0  0  0  0  0  0  0  0  0  0  0
    6.3818   -4.7122   28.7067 C   0  0  0  0  0  0  0  0  0  0  0  0
    5.3402   -4.5076   28.4652 H   0  0  0  0  0  0  0  0  0  0  0  0
    6.6441   -4.1532   29.6092 H   0  0  0  0  0  0  0  0  0  0  0  0
    6.5125   -5.7817   28.9021 H   0  0  0  0  0  0  0  0  0  0  0  0
    6.9150   -3.7038   26.4245 C   0  0  0  0  0  0  0  0  0  0  0  0
    5.8948   -3.4605   26.1455 H   0  0  0  0  0  0  0  0  0  0  0  0
   10.1348   -4.2811   26.4411 H   0  0  0  0  0  0  0  0  0  0  0  0
    9.2036   -2.4808   24.3738 H   0  0  0  0  0  0  0  0  0  0  0  0
    6.5795   -3.3349   23.4312 H   0  0  0  0  0  0  0  0  0  0  0  0
    6.5788   -1.8238   24.3208 H   0  0  0  0  0  0  0  0  0  0  0  0
    8.3781   -2.4449   21.9493 H   0  0  0  0  0  0  0  0  0  0  0  0
    6.3060   -2.3788   20.8602 H   0  0  0  0  0  0  0  0  0  0  0  0
    5.5625   -1.3270   22.0792 H   0  0  0  0  0  0  0  0  0  0  0  0
    9.9421   -0.4476   22.5337 C   0  0  0  0  0  0  0  0  0  0  0  0
   10.5712   -1.2885   21.6055 C   0  0  0  0  0  0  0  0  0  0  0  0
   11.9401   -1.2336   21.4255 C   0  0  0  0  0  0  0  0  0  0  0  0
   12.6429   -2.2129   20.1678 Cl  0  0  0  0  0  0  0  0  0  0  0  0
   12.7360   -0.3839   22.1952 C   0  0  0  0  0  0  0  0  0  0  0  0
   12.1220    0.4581   23.0988 C   0  0  0  0  0  0  0  0  0  0  0  0
   10.7328    0.4823   23.2218 C   0  0  0  0  0  0  0  0  0  0  0  0
   10.1190    1.6176   23.9930 C   0  0  0  0  0  0  0  0  0  0  0  0
   10.8013    2.4953   24.5048 O   0  0  0  0  0  0  0  0  0  0  0  0
   12.6984    1.1440   23.7077 H   0  0  0  0  0  0  0  0  0  0  0  0
   13.8115   -0.3551   22.0660 H   0  0  0  0  0  0  0  0  0  0  0  0
   10.0134   -1.9627   20.9669 H   0  0  0  0  0  0  0  0  0  0  0  0
    8.0977   -0.2181   24.7407 H   0  0  0  0  0  0  0  0  0  0  0  0
    6.9293    0.6810   23.7491 H   0  0  0  0  0  0  0  0  0  0  0  0
    7.5357    2.5948   25.4749 H   0  0  0  0  0  0  0  0  0  0  0  0
    8.8263    3.5642   24.7406 H   0  0  0  0  0  0  0  0  0  0  0  0
    8.4411    3.7533   22.1332 H   0  0  0  0  0  0  0  0  0  0  0  0
    5.7166    4.9080   21.8967 H   0  0  0  0  0  0  0  0  0  0  0  0
    6.1590    3.5408   20.8456 H   0  0  0  0  0  0  0  0  0  0  0  0
    7.0373    5.1010   20.7254 H   0  0  0  0  0  0  0  0  0  0  0  0
  1  2  1  0
  2  3  1  0
  3  4  2  0
  3  5  1  0
  5  6  1  0
  6  7  1  0
  8  7  1  1
  8  9  1  0
  9 10  2  0
  9 11  1  0
 11 12  1  0
 12 13  2  0
 13 14  1  0
 14 15  2  0
 15 16  1  0
 16 17  2  0
 17 18  1  0
 18 19  2  0
 19 20  1  0
 20 21  2  0
 20 22  1  0
 19 23  1  0
 18 24  1  0
 17 25  1  0
 15 26  1  0
 13 27  1  0
 11 28  1  0
 28 29  1  0
 29 30  1  0
 30 31  1  0
 31 32  1  0
 32 33  1  0
 33 34  2  0
 34 35  1  0
 35 36  1  0
 36 37  1  0
 36 38  1  0
 36 39  1  0
 35 40  1  0
 40 41  1  0
 33 42  1  0
 31 43  1  0
 30 44  1  0
 30 45  1  0
 29 46  1  6
 28 47  1  0
 28 48  1  0
  8 49  1  0
 49 50  2  0
 50 51  1  0
 51 52  1  0
 51 53  2  0
 53 54  1  0
 54 55  2  0
 55 56  1  0
 56 57  2  0
 54 58  1  0
 53 59  1  0
 50 60  1  0
  7 61  1  0
  7 62  1  0
  5 63  1  0
  5 64  1  0
  2 65  1  0
  1 66  1  0
  1 67  1  0
  1 68  1  0
 56  6  1  0
 29  8  1  0
 40 32  2  0
 55 49  1  0
 21 12  1  0
 21 16  1  0
M  END
>  <cnnaffinities>  (26) 
[6.61632]

>  <score>  (26) 
6.61632

>  <index>  (26) 
25

>  <Smiles>  (26) 
C(N(C(=O)C(N1C([C@@]2(C(=O)N(c3c(nc(c4c(c(c(c(c34)[H])[H])[H])[H])[H])[H])C([C@@]2(C(N(c2c(nn(C([H])([H])[H])c2[H])[H])[H])([H])[H])[H])([H])[H])c2c(c(Cl)c(c(c2C1=O)[H])[H])[H])([H])[H])([H])[H])[H])([H])([H])[H]

>  <h>  (26) 
<NA>

>  <Training>  (26) 
True

>  <Success>  (26) 
True

>  <enamine_searched>  (26) 
False

>  <enamine_id>  (26) 
nan

$$$$

     RDKit          3D

 43 47  0  0  0  0  0  0  0  0999 V2000
    8.9501    0.4885   20.5999 O   0  0  0  0  0  0  0  0  0  0  0  0
    8.2636   -0.4033   21.0315 C   0  0  0  0  0  0  0  0  0  0  0  0
    8.6346   -1.4460   21.8324 N   0  0  0  0  0  0  0  0  0  0  0  0
    7.5187   -2.1059   22.4737 C   0  0  1  0  0  0  0  0  0  0  0  0
    7.5521   -3.6411   22.5169 C   0  0  0  0  0  0  0  0  0  0  0  0
    7.5895   -3.6249   24.0753 C   0  0  2  0  0  0  0  0  0  0  0  0
    6.4856   -4.3780   24.7798 C   0  0  0  0  0  0  0  0  0  0  0  0
    5.7268   -3.7913   25.7965 C   0  0  0  0  0  0  0  0  0  0  0  0
    4.6927   -4.4765   26.4210 C   0  0  0  0  0  0  0  0  0  0  0  0
    4.3974   -5.7865   26.0483 C   0  0  0  0  0  0  0  0  0  0  0  0
    5.1642   -6.4117   25.0691 C   0  0  0  0  0  0  0  0  0  0  0  0
    6.2056   -5.7135   24.4686 C   0  0  0  0  0  0  0  0  0  0  0  0
    7.1993   -6.5543   23.2997 Cl  0  0  0  0  0  0  0  0  0  0  0  0
    4.9738   -7.4373   24.7658 H   0  0  0  0  0  0  0  0  0  0  0  0
    3.5914   -6.3315   26.5321 H   0  0  0  0  0  0  0  0  0  0  0  0
    4.1210   -3.9785   27.1999 H   0  0  0  0  0  0  0  0  0  0  0  0
    5.9658   -2.7714   26.0887 H   0  0  0  0  0  0  0  0  0  0  0  0
    7.4719   -2.0713   24.0260 C   0  0  0  0  0  0  0  0  0  0  0  0
    8.3082   -1.5299   24.4812 H   0  0  0  0  0  0  0  0  0  0  0  0
    6.5367   -1.6523   24.4112 H   0  0  0  0  0  0  0  0  0  0  0  0
    8.5688   -3.9595   24.4539 H   0  0  0  0  0  0  0  0  0  0  0  0
    8.4412   -4.0596   22.0360 H   0  0  0  0  0  0  0  0  0  0  0  0
    6.6491   -4.0792   22.0840 H   0  0  0  0  0  0  0  0  0  0  0  0
    6.3339   -1.4973   21.7345 C   0  0  0  0  0  0  0  0  0  0  0  0
    5.1615   -1.7514   21.8929 O   0  0  0  0  0  0  0  0  0  0  0  0
    6.8617   -0.5541   20.8409 N   0  0  0  0  0  0  0  0  0  0  0  0
    6.1235    0.0529   19.7796 C   0  0  0  0  0  0  0  0  0  0  0  0
    6.4613   -0.2304   18.4772 C   0  0  0  0  0  0  0  0  0  0  0  0
    5.7866    0.2316   17.3948 N   0  0  0  0  0  0  0  0  0  0  0  0
    4.7599    1.0132   17.6137 C   0  0  0  0  0  0  0  0  0  0  0  0
    4.3133    1.4128   18.9002 C   0  0  0  0  0  0  0  0  0  0  0  0
    3.1926    2.2707   19.0618 C   0  0  0  0  0  0  0  0  0  0  0  0
    2.7855    2.6504   20.3089 C   0  0  0  0  0  0  0  0  0  0  0  0
    3.4917    2.1913   21.4443 C   0  0  0  0  0  0  0  0  0  0  0  0
    4.5793    1.3620   21.3137 C   0  0  0  0  0  0  0  0  0  0  0  0
    5.0156    0.9317   20.0299 C   0  0  0  0  0  0  0  0  0  0  0  0
    5.1057    1.0181   22.1989 H   0  0  0  0  0  0  0  0  0  0  0  0
    3.1672    2.5010   22.4311 H   0  0  0  0  0  0  0  0  0  0  0  0
    1.9310    3.3114   20.4350 H   0  0  0  0  0  0  0  0  0  0  0  0
    2.6771    2.6218   18.1717 H   0  0  0  0  0  0  0  0  0  0  0  0
    4.2261    1.3737   16.7357 H   0  0  0  0  0  0  0  0  0  0  0  0
    7.3035   -0.8806   18.2568 H   0  0  0  0  0  0  0  0  0  0  0  0
    9.5935   -1.6008   22.0985 H   0  0  0  0  0  0  0  0  0  0  0  0
  1  2  2  0
  2  3  1  0
  4  3  1  6
  4  5  1  0
  5  6  1  0
  6  7  1  0
  7  8  2  0
  8  9  1  0
  9 10  2  0
 10 11  1  0
 11 12  2  0
 12 13  1  0
 11 14  1  0
 10 15  1  0
  9 16  1  0
  8 17  1  0
  6 18  1  0
 18 19  1  0
 18 20  1  0
  6 21  1  6
  5 22  1  0
  5 23  1  0
  4 24  1  0
 24 25  2  0
 24 26  1  0
 26 27  1  0
 27 28  2  0
 28 29  1  0
 29 30  2  0
 30 31  1  0
 31 32  2  0
 32 33  1  0
 33 34  2  0
 34 35  1  0
 35 36  2  0
 35 37  1  0
 34 38  1  0
 33 39  1  0
 32 40  1  0
 30 41  1  0
 28 42  1  0
  3 43  1  0
 26  2  1  0
 36 27  1  0
 18  4  1  0
 36 31  1  0
 12  7  1  0
M  END
>  <cnnaffinities>  (27) 
[6.087, 6.10925]

>  <score>  (27) 
6.087

>  <index>  (27) 
26

>  <Smiles>  (27) 
O=C1N([C@]2(C([C@](c3c(c(c(c(c3Cl)[H])[H])[H])[H])(C2([H])[H])[H])([H])[H])C(=O)N1c1c(nc(c2c(c(c(c(c12)[H])[H])[H])[H])[H])[H])[H]

>  <h>  (27) 
<NA>

>  <Training>  (27) 
True

>  <Success>  (27) 
True

>  <enamine_searched>  (27) 
False

>  <enamine_id>  (27) 
nan

$$$$

     RDKit          3D

 46 48  0  0  0  0  0  0  0  0999 V2000
    6.8332    3.9221   21.3968 C   0  0  0  0  0  0  0  0  0  0  0  0
    7.1943    3.3884   22.7856 C   0  0  0  0  0  0  0  0  0  0  0  0
    8.4671    2.5040   22.7873 C   0  0  1  0  0  0  0  0  0  0  0  0
    9.3499    2.7066   24.0171 C   0  0  0  0  0  0  0  0  0  0  0  0
    8.9383    1.9323   25.2630 C   0  0  1  0  0  0  0  0  0  0  0  0
    7.8545    2.5944   26.0974 C   0  0  0  0  0  0  0  0  0  0  0  0
    7.7497    1.9906   27.2991 F   0  0  0  0  0  0  0  0  0  0  0  0
    6.6299    2.5323   25.5236 F   0  0  0  0  0  0  0  0  0  0  0  0
    8.1253    3.8962   26.3228 F   0  0  0  0  0  0  0  0  0  0  0  0
    8.6379    0.4832   24.9215 C   0  0  0  0  0  0  0  0  0  0  0  0
    7.6845    0.3236   23.7409 C   0  0  0  0  0  0  0  0  0  0  0  0
    8.1648    1.0808   22.5976 N   0  0  0  0  0  0  0  0  0  0  0  0
    8.0418    0.6573   21.2938 C   0  0  0  0  0  0  0  0  0  0  0  0
    8.7381    1.1311   20.4132 O   0  0  0  0  0  0  0  0  0  0  0  0
    6.9784   -0.3966   20.9157 C   0  0  0  0  0  0  0  0  0  0  0  0
    6.1161    0.0936   19.7711 C   0  0  0  0  0  0  0  0  0  0  0  0
    6.4318   -0.2112   18.4669 C   0  0  0  0  0  0  0  0  0  0  0  0
    5.7641    0.2363   17.3709 N   0  0  0  0  0  0  0  0  0  0  0  0
    4.7382    1.0244   17.5770 C   0  0  0  0  0  0  0  0  0  0  0  0
    4.2852    1.4232   18.8649 C   0  0  0  0  0  0  0  0  0  0  0  0
    3.1773    2.2892   19.0450 C   0  0  0  0  0  0  0  0  0  0  0  0
    2.7743    2.6631   20.2983 C   0  0  0  0  0  0  0  0  0  0  0  0
    3.4690    2.1863   21.4336 C   0  0  0  0  0  0  0  0  0  0  0  0
    4.5486    1.3459   21.2835 C   0  0  0  0  0  0  0  0  0  0  0  0
    4.9909    0.9400   19.9980 C   0  0  0  0  0  0  0  0  0  0  0  0
    5.0681    0.9940   22.1717 H   0  0  0  0  0  0  0  0  0  0  0  0
    3.1483    2.4846   22.4268 H   0  0  0  0  0  0  0  0  0  0  0  0
    1.9270    3.3294   20.4286 H   0  0  0  0  0  0  0  0  0  0  0  0
    2.6632    2.6537   18.1591 H   0  0  0  0  0  0  0  0  0  0  0  0
    4.2076    1.3897   16.6953 H   0  0  0  0  0  0  0  0  0  0  0  0
    7.2810   -0.8530   18.2385 H   0  0  0  0  0  0  0  0  0  0  0  0
    7.5297   -1.2782   20.5708 H   0  0  0  0  0  0  0  0  0  0  0  0
    6.3644   -0.7027   21.7714 H   0  0  0  0  0  0  0  0  0  0  0  0
    6.6702    0.6309   24.0355 H   0  0  0  0  0  0  0  0  0  0  0  0
    7.6697   -0.7259   23.4465 H   0  0  0  0  0  0  0  0  0  0  0  0
    8.2434   -0.0271   25.8037 H   0  0  0  0  0  0  0  0  0  0  0  0
    9.5945    0.0137   24.6625 H   0  0  0  0  0  0  0  0  0  0  0  0
    9.8127    1.8937   25.9100 H   0  0  0  0  0  0  0  0  0  0  0  0
    9.4043    3.7734   24.2516 H   0  0  0  0  0  0  0  0  0  0  0  0
   10.3615    2.3767   23.7539 H   0  0  0  0  0  0  0  0  0  0  0  0
    9.0707    2.7670   21.9150 H   0  0  0  0  0  0  0  0  0  0  0  0
    6.3546    2.8194   23.2054 H   0  0  0  0  0  0  0  0  0  0  0  0
    7.3734    4.2324   23.4693 H   0  0  0  0  0  0  0  0  0  0  0  0
    7.5750    4.6562   21.0875 H   0  0  0  0  0  0  0  0  0  0  0  0
    6.7913    3.1227   20.6440 H   0  0  0  0  0  0  0  0  0  0  0  0
    5.8742    4.4492   21.3883 H   0  0  0  0  0  0  0  0  0  0  0  0
  1  2  1  0
  2  3  1  0
  3  4  1  0
  4  5  1  0
  5  6  1  0
  6  7  1  0
  6  8  1  0
  6  9  1  0
  5 10  1  0
 10 11  1  0
 11 12  1  0
 12 13  1  0
 13 14  2  0
 13 15  1  0
 15 16  1  0
 16 17  2  0
 17 18  1  0
 18 19  2  0
 19 20  1  0
 20 21  2  0
 21 22  1  0
 22 23  2  0
 23 24  1  0
 24 25  2  0
 24 26  1  0
 23 27  1  0
 22 28  1  0
 21 29  1  0
 19 30  1  0
 17 31  1  0
 15 32  1  0
 15 33  1  0
 11 34  1  0
 11 35  1  0
 10 36  1  0
 10 37  1  0
  5 38  1  1
  4 39  1  0
  4 40  1  0
  3 41  1  6
  2 42  1  0
  2 43  1  0
  1 44  1  0
  1 45  1  0
  1 46  1  0
 12  3  1  0
 25 16  1  0
 25 20  1  0
M  END
>  <cnnaffinities>  (28) 
[5.54779, 5.54766, 5.69066]

>  <score>  (28) 
5.54779

>  <index>  (28) 
27

>  <Smiles>  (28) 
C(C([C@]1(C([C@@](C(F)(F)F)(C(C(N1C(=O)C(c1c(nc(c2c(c(c(c(c12)[H])[H])[H])[H])[H])[H])([H])[H])([H])[H])([H])[H])[H])([H])[H])[H])([H])[H])([H])([H])[H]

>  <h>  (28) 
<NA>

>  <Training>  (28) 
True

>  <Success>  (28) 
True

>  <enamine_searched>  (28) 
False

>  <enamine_id>  (28) 
nan

$$$$

     RDKit          3D

 70 75  0  0  0  0  0  0  0  0999 V2000
    6.5743    4.4722   21.3973 C   0  0  0  0  0  0  0  0  0  0  0  0
    6.9498    3.4728   22.3983 N   0  0  0  0  0  4  0  0  0  0  0  0
    7.9657    3.9105   23.3784 C   0  0  0  0  0  0  0  0  0  0  0  0
    8.1612    2.8641   24.4763 C   0  0  0  0  0  0  0  0  0  0  0  0
    8.7825    1.6481   23.9741 N   0  0  0  0  0  0  0  0  0  0  0  0
    8.0466    0.4069   23.8492 C   0  0  0  0  0  0  0  0  0  0  0  0
    8.4382   -0.3983   22.5825 C   0  0  2  0  0  0  0  0  0  0  0  0
    7.8406    0.3233   21.3680 C   0  0  0  0  0  0  0  0  0  0  0  0
    8.0725    1.4718   21.0180 O   0  0  0  0  0  0  0  0  0  0  0  0
    6.8896   -0.4649   20.7959 N   0  0  0  0  0  0  0  0  0  0  0  0
    6.1132    0.0723   19.7364 C   0  0  0  0  0  0  0  0  0  0  0  0
    6.4634   -0.2177   18.4445 C   0  0  0  0  0  0  0  0  0  0  0  0
    5.7851    0.2303   17.3609 N   0  0  0  0  0  0  0  0  0  0  0  0
    4.7564    1.0108   17.5864 C   0  0  0  0  0  0  0  0  0  0  0  0
    4.3235    1.4258   18.8794 C   0  0  0  0  0  0  0  0  0  0  0  0
    3.2182    2.2978   19.0624 C   0  0  0  0  0  0  0  0  0  0  0  0
    2.8286    2.6814   20.3155 C   0  0  0  0  0  0  0  0  0  0  0  0
    3.5284    2.2188   21.4525 C   0  0  0  0  0  0  0  0  0  0  0  0
    4.6080    1.3780   21.3035 C   0  0  0  0  0  0  0  0  0  0  0  0
    5.0296    0.9527   20.0085 C   0  0  0  0  0  0  0  0  0  0  0  0
    5.1259    1.0153   22.1902 H   0  0  0  0  0  0  0  0  0  0  0  0
    3.2108    2.5341   22.4432 H   0  0  0  0  0  0  0  0  0  0  0  0
    1.9820    3.3494   20.4443 H   0  0  0  0  0  0  0  0  0  0  0  0
    2.6980    2.6489   18.1749 H   0  0  0  0  0  0  0  0  0  0  0  0
    4.1990    1.3657   16.7177 H   0  0  0  0  0  0  0  0  0  0  0  0
    7.3384   -0.8355   18.2500 H   0  0  0  0  0  0  0  0  0  0  0  0
    6.4751   -1.5669   21.6481 C   0  0  0  0  0  0  0  0  0  0  0  0
    7.7225   -1.7754   22.5219 C   0  0  2  0  0  0  0  0  0  0  0  0
    7.4395   -2.4172   23.8701 C   0  0  0  0  0  0  0  0  0  0  0  0
    6.8615   -3.6875   23.6593 O   0  0  0  0  0  0  0  0  0  0  0  0
    6.5328   -4.3094   24.8771 C   0  0  0  0  0  0  0  0  0  0  0  0
    5.8796   -5.6421   24.5976 C   0  0  0  0  0  0  0  0  0  0  0  0
    5.5144   -6.1582   25.8251 F   0  0  0  0  0  0  0  0  0  0  0  0
    4.7676   -5.7212   23.5540 C   0  0  0  0  0  0  0  0  0  0  0  0
    5.5841   -6.5332   22.6998 O   0  0  0  0  0  0  0  0  0  0  0  0
    6.6238   -6.6182   23.6836 C   0  0  0  0  0  0  0  0  0  0  0  0
    6.7233   -7.6233   24.1104 H   0  0  0  0  0  0  0  0  0  0  0  0
    7.5879   -6.2819   23.2877 H   0  0  0  0  0  0  0  0  0  0  0  0
    4.4648   -4.7916   23.0625 H   0  0  0  0  0  0  0  0  0  0  0  0
    3.8877   -6.2561   23.9326 H   0  0  0  0  0  0  0  0  0  0  0  0
    7.4366   -4.4806   25.4869 H   0  0  0  0  0  0  0  0  0  0  0  0
    5.8301   -3.6909   25.4601 H   0  0  0  0  0  0  0  0  0  0  0  0
    8.3775   -2.5069   24.4477 H   0  0  0  0  0  0  0  0  0  0  0  0
    6.7456   -1.7823   24.4464 H   0  0  0  0  0  0  0  0  0  0  0  0
    8.3674   -2.4554   21.9729 H   0  0  0  0  0  0  0  0  0  0  0  0
    6.2106   -2.4423   21.0487 H   0  0  0  0  0  0  0  0  0  0  0  0
    5.6022   -1.2907   22.2584 H   0  0  0  0  0  0  0  0  0  0  0  0
    9.9495   -0.4561   22.4677 C   0  0  0  0  0  0  0  0  0  0  0  0
   10.5800   -1.3693   21.6095 C   0  0  0  0  0  0  0  0  0  0  0  0
   11.9359   -1.2626   21.3569 C   0  0  0  0  0  0  0  0  0  0  0  0
   12.6567   -2.2557   20.1150 Cl  0  0  0  0  0  0  0  0  0  0  0  0
   12.7218   -0.3280   22.0331 C   0  0  0  0  0  0  0  0  0  0  0  0
   12.1194    0.5313   22.9217 C   0  0  0  0  0  0  0  0  0  0  0  0
   10.7362    0.5246   23.0801 C   0  0  0  0  0  0  0  0  0  0  0  0
   10.1353    1.6810   23.8159 C   0  0  0  0  0  0  0  0  0  0  0  0
   10.8231    2.6241   24.1965 O   0  0  0  0  0  0  0  0  0  0  0  0
   12.7032    1.2341   23.5057 H   0  0  0  0  0  0  0  0  0  0  0  0
   13.7881   -0.2782   21.8487 H   0  0  0  0  0  0  0  0  0  0  0  0
   10.0346   -2.1638   21.1104 H   0  0  0  0  0  0  0  0  0  0  0  0
    8.2419   -0.2081   24.7335 H   0  0  0  0  0  0  0  0  0  0  0  0
    6.9726    0.6194   23.8079 H   0  0  0  0  0  0  0  0  0  0  0  0
    7.2028    2.6023   24.9365 H   0  0  0  0  0  0  0  0  0  0  0  0
    8.8277    3.2568   25.2457 H   0  0  0  0  0  0  0  0  0  0  0  0
    8.9197    4.0658   22.8654 H   0  0  0  0  0  0  0  0  0  0  0  0
    7.6735    4.8676   23.8200 H   0  0  0  0  0  0  0  0  0  0  0  0
    7.3043    2.6299   21.9158 H   0  0  0  0  0  0  0  0  0  0  0  0
    6.0891    3.2046   22.9022 H   0  0  0  0  0  0  0  0  0  0  0  0
    5.6825    4.1348   20.8634 H   0  0  0  0  0  0  0  0  0  0  0  0
    7.3844    4.6080   20.6795 H   0  0  0  0  0  0  0  0  0  0  0  0
    6.3617    5.4379   21.8641 H   0  0  0  0  0  0  0  0  0  0  0  0
  1  2  1  0
  2  3  1  0
  3  4  1  0
  4  5  1  0
  5  6  1  0
  7  6  1  1
  7  8  1  0
  8  9  2  0
  8 10  1  0
 10 11  1  0
 11 12  2  0
 12 13  1  0
 13 14  2  0
 14 15  1  0
 15 16  2  0
 16 17  1  0
 17 18  2  0
 18 19  1  0
 19 20  2  0
 19 21  1  0
 18 22  1  0
 17 23  1  0
 16 24  1  0
 14 25  1  0
 12 26  1  0
 10 27  1  0
 27 28  1  0
 28 29  1  0
 29 30  1  0
 30 31  1  0
 31 32  1  0
 32 33  1  0
 32 34  1  0
 34 35  1  0
 35 36  1  0
 36 37  1  0
 36 38  1  0
 34 39  1  0
 34 40  1  0
 31 41  1  0
 31 42  1  0
 29 43  1  0
 29 44  1  0
 28 45  1  6
 27 46  1  0
 27 47  1  0
  7 48  1  0
 48 49  2  0
 49 50  1  0
 50 51  1  0
 50 52  2  0
 52 53  1  0
 53 54  2  0
 54 55  1  0
 55 56  2  0
 53 57  1  0
 52 58  1  0
 49 59  1  0
  6 60  1  0
  6 61  1  0
  4 62  1  0
  4 63  1  0
  3 64  1  0
  3 65  1  0
  2 66  1  0
  2 67  1  0
  1 68  1  0
  1 69  1  0
  1 70  1  0
 55  5  1  0
 28  7  1  0
 36 32  1  0
 54 48  1  0
 20 11  1  0
 20 15  1  0
M  CHG  1   2   1
M  END
>  <cnnaffinities>  (29) 
[6.8727, 6.55244]

>  <score>  (29) 
6.8727

>  <index>  (29) 
28

>  <Smiles>  (29) 
C([N+](C(C(N1C([C@@]2(C(=O)N(c3c(nc(c4c(c(c(c(c34)[H])[H])[H])[H])[H])[H])C([C@@]2(C(OC(C2(F)C(OC2([H])[H])([H])[H])([H])[H])([H])[H])[H])([H])[H])c2c(c(Cl)c(c(c2C1=O)[H])[H])[H])([H])[H])([H])[H])([H])[H])([H])[H])([H])([H])[H]

>  <h>  (29) 
<NA>

>  <Training>  (29) 
True

>  <Success>  (29) 
True

>  <enamine_searched>  (29) 
False

>  <enamine_id>  (29) 
nan

$$$$

     RDKit          3D

 67 72  0  0  0  0  0  0  0  0999 V2000
    6.6155    4.3728   21.3152 C   0  0  0  0  0  0  0  0  0  0  0  0
    6.9987    3.3955   22.3369 N   0  0  0  0  0  4  0  0  0  0  0  0
    8.0514    3.8465   23.2722 C   0  0  0  0  0  0  0  0  0  0  0  0
    8.2463    2.8283   24.4027 C   0  0  0  0  0  0  0  0  0  0  0  0
    8.8770    1.5940   23.9416 N   0  0  0  0  0  0  0  0  0  0  0  0
    8.1419    0.3490   23.8075 C   0  0  0  0  0  0  0  0  0  0  0  0
    8.5234   -0.4338   22.5201 C   0  0  2  0  0  0  0  0  0  0  0  0
    7.8982    0.3060   21.3247 C   0  0  0  0  0  0  0  0  0  0  0  0
    8.1673    1.4381   20.9501 O   0  0  0  0  0  0  0  0  0  0  0  0
    6.8825   -0.4433   20.8066 N   0  0  0  0  0  0  0  0  0  0  0  0
    6.1080    0.0805   19.7385 C   0  0  0  0  0  0  0  0  0  0  0  0
    6.4597   -0.2104   18.4456 C   0  0  0  0  0  0  0  0  0  0  0  0
    5.7796    0.2308   17.3616 N   0  0  0  0  0  0  0  0  0  0  0  0
    4.7497    1.0135   17.5822 C   0  0  0  0  0  0  0  0  0  0  0  0
    4.3141    1.4323   18.8731 C   0  0  0  0  0  0  0  0  0  0  0  0
    3.2083    2.3050   19.0579 C   0  0  0  0  0  0  0  0  0  0  0  0
    2.8282    2.6911   20.3151 C   0  0  0  0  0  0  0  0  0  0  0  0
    3.5285    2.2277   21.4482 C   0  0  0  0  0  0  0  0  0  0  0  0
    4.6034    1.3823   21.2944 C   0  0  0  0  0  0  0  0  0  0  0  0
    5.0201    0.9599   19.9996 C   0  0  0  0  0  0  0  0  0  0  0  0
    5.1290    1.0193   22.1734 H   0  0  0  0  0  0  0  0  0  0  0  0
    3.2211    2.5480   22.4403 H   0  0  0  0  0  0  0  0  0  0  0  0
    1.9857    3.3625   20.4460 H   0  0  0  0  0  0  0  0  0  0  0  0
    2.6850    2.6618   18.1763 H   0  0  0  0  0  0  0  0  0  0  0  0
    4.2043    1.3673   16.7080 H   0  0  0  0  0  0  0  0  0  0  0  0
    7.3290   -0.8373   18.2548 H   0  0  0  0  0  0  0  0  0  0  0  0
    6.4921   -1.5420   21.6723 C   0  0  0  0  0  0  0  0  0  0  0  0
    7.8099   -1.8096   22.4164 C   0  0  2  0  0  0  0  0  0  0  0  0
    7.6308   -2.5815   23.7233 C   0  0  0  0  0  0  0  0  0  0  0  0
    7.0554   -3.8954   23.5124 N   0  0  0  0  0  0  0  0  0  0  0  0
    5.7643   -4.1965   23.7364 C   0  0  0  0  0  0  0  0  0  0  0  0
    4.9788   -3.2642   24.3173 N   0  0  0  0  0  0  0  0  0  0  0  0
    3.7570   -3.6868   24.5968 C   0  0  0  0  0  0  0  0  0  0  0  0
    3.2319   -4.8726   24.2985 N   0  0  0  0  0  0  0  0  0  0  0  0
    4.0867   -5.6781   23.6575 C   0  0  0  0  0  0  0  0  0  0  0  0
    5.3462   -5.4239   23.3556 N   0  0  0  0  0  0  0  0  0  0  0  0
    3.7070   -6.6527   23.3469 H   0  0  0  0  0  0  0  0  0  0  0  0
    3.1216   -2.9813   25.1324 H   0  0  0  0  0  0  0  0  0  0  0  0
    7.6424   -4.6609   23.2205 H   0  0  0  0  0  0  0  0  0  0  0  0
    6.9440   -2.0391   24.3757 H   0  0  0  0  0  0  0  0  0  0  0  0
    8.5936   -2.6867   24.2375 H   0  0  0  0  0  0  0  0  0  0  0  0
    8.4119   -2.4300   21.7501 H   0  0  0  0  0  0  0  0  0  0  0  0
    5.6840   -1.2625   22.3750 H   0  0  0  0  0  0  0  0  0  0  0  0
    6.1482   -2.3962   21.0836 H   0  0  0  0  0  0  0  0  0  0  0  0
   10.0340   -0.4917   22.3934 C   0  0  0  0  0  0  0  0  0  0  0  0
   10.6655   -1.4258   21.5569 C   0  0  0  0  0  0  0  0  0  0  0  0
   12.0055   -1.2906   21.2480 C   0  0  0  0  0  0  0  0  0  0  0  0
   12.6916   -2.3792   20.0663 Cl  0  0  0  0  0  0  0  0  0  0  0  0
   12.7940   -0.3094   21.8492 C   0  0  0  0  0  0  0  0  0  0  0  0
   12.2010    0.5516   22.7440 C   0  0  0  0  0  0  0  0  0  0  0  0
   10.8271    0.5061   22.9700 C   0  0  0  0  0  0  0  0  0  0  0  0
   10.2262    1.6423   23.7396 C   0  0  0  0  0  0  0  0  0  0  0  0
   10.9092    2.5894   24.1125 O   0  0  0  0  0  0  0  0  0  0  0  0
   12.7815    1.3035   23.2624 H   0  0  0  0  0  0  0  0  0  0  0  0
   13.8468   -0.2282   21.6096 H   0  0  0  0  0  0  0  0  0  0  0  0
   10.1363   -2.2537   21.0968 H   0  0  0  0  0  0  0  0  0  0  0  0
    7.0691    0.5709   23.7725 H   0  0  0  0  0  0  0  0  0  0  0  0
    8.3442   -0.2864   24.6790 H   0  0  0  0  0  0  0  0  0  0  0  0
    8.9014    3.2524   25.1670 H   0  0  0  0  0  0  0  0  0  0  0  0
    7.2843    2.5836   24.8696 H   0  0  0  0  0  0  0  0  0  0  0  0
    9.0010    3.9653   22.7370 H   0  0  0  0  0  0  0  0  0  0  0  0
    7.7864    4.8272   23.6895 H   0  0  0  0  0  0  0  0  0  0  0  0
    7.3450    2.5425   21.8582 H   0  0  0  0  0  0  0  0  0  0  0  0
    6.1524    3.1424   22.8746 H   0  0  0  0  0  0  0  0  0  0  0  0
    7.3917    4.4339   20.5492 H   0  0  0  0  0  0  0  0  0  0  0  0
    6.4765    5.3677   21.7544 H   0  0  0  0  0  0  0  0  0  0  0  0
    5.6798    4.0529   20.8492 H   0  0  0  0  0  0  0  0  0  0  0  0
  1  2  1  0
  2  3  1  0
  3  4  1  0
  4  5  1  0
  5  6  1  0
  7  6  1  1
  7  8  1  0
  8  9  2  0
  8 10  1  0
 10 11  1  0
 11 12  2  0
 12 13  1  0
 13 14  2  0
 14 15  1  0
 15 16  2  0
 16 17  1  0
 17 18  2  0
 18 19  1  0
 19 20  2  0
 19 21  1  0
 18 22  1  0
 17 23  1  0
 16 24  1  0
 14 25  1  0
 12 26  1  0
 10 27  1  0
 27 28  1  0
 28 29  1  0
 29 30  1  0
 30 31  1  0
 31 32  2  0
 32 33  1  0
 33 34  2  0
 34 35  1  0
 35 36  2  0
 35 37  1  0
 33 38  1  0
 30 39  1  0
 29 40  1  0
 29 41  1  0
 28 42  1  6
 27 43  1  0
 27 44  1  0
  7 45  1  0
 45 46  2  0
 46 47  1  0
 47 48  1  0
 47 49  2  0
 49 50  1  0
 50 51  2  0
 51 52  1  0
 52 53  2  0
 50 54  1  0
 49 55  1  0
 46 56  1  0
  6 57  1  0
  6 58  1  0
  4 59  1  0
  4 60  1  0
  3 61  1  0
  3 62  1  0
  2 63  1  0
  2 64  1  0
  1 65  1  0
  1 66  1  0
  1 67  1  0
 52  5  1  0
 28  7  1  0
 36 31  1  0
 51 45  1  0
 20 11  1  0
 20 15  1  0
M  CHG  1   2   1
M  END
>  <cnnaffinities>  (30) 
[6.84396, 6.8406]

>  <score>  (30) 
6.84396

>  <index>  (30) 
29

>  <Smiles>  (30) 
C([N+](C(C(N1C([C@@]2(C(=O)N(c3c(nc(c4c(c(c(c(c34)[H])[H])[H])[H])[H])[H])C([C@@]2(C(N(c2nc(nc(n2)[H])[H])[H])([H])[H])[H])([H])[H])c2c(c(Cl)c(c(c2C1=O)[H])[H])[H])([H])[H])([H])[H])([H])[H])([H])[H])([H])([H])[H]

>  <h>  (30) 
<NA>

>  <Training>  (30) 
True

>  <Success>  (30) 
True

>  <enamine_searched>  (30) 
False

>  <enamine_id>  (30) 
nan

$$$$

     RDKit          3D

 66 71  0  0  0  0  0  0  0  0999 V2000
    6.5914    4.3815   21.3751 C   0  0  0  0  0  0  0  0  0  0  0  0
    7.5787    3.9636   22.3605 N   0  0  0  0  0  0  0  0  0  0  0  0
    7.1079    3.3075   23.4673 C   0  0  0  0  0  0  0  0  0  0  0  0
    5.9147    3.1064   23.6470 O   0  0  0  0  0  0  0  0  0  0  0  0
    8.1479    2.8105   24.4667 C   0  0  0  0  0  0  0  0  0  0  0  0
    8.8140    1.6273   23.9579 N   0  0  0  0  0  0  0  0  0  0  0  0
    8.0578    0.3854   23.8331 C   0  0  0  0  0  0  0  0  0  0  0  0
    8.4758   -0.4160   22.5681 C   0  0  2  0  0  0  0  0  0  0  0  0
    7.9778    0.2720   21.2747 C   0  0  0  0  0  0  0  0  0  0  0  0
    8.4566    1.2423   20.7209 O   0  0  0  0  0  0  0  0  0  0  0  0
    6.8840   -0.4214   20.8122 N   0  0  0  0  0  0  0  0  0  0  0  0
    6.1186    0.0906   19.7407 C   0  0  0  0  0  0  0  0  0  0  0  0
    6.4698   -0.2028   18.4488 C   0  0  0  0  0  0  0  0  0  0  0  0
    5.7917    0.2318   17.3596 N   0  0  0  0  0  0  0  0  0  0  0  0
    4.7516    1.0022   17.5765 C   0  0  0  0  0  0  0  0  0  0  0  0
    4.2988    1.4048   18.8663 C   0  0  0  0  0  0  0  0  0  0  0  0
    3.1857    2.2667   19.0467 C   0  0  0  0  0  0  0  0  0  0  0  0
    2.7893    2.6359   20.3029 C   0  0  0  0  0  0  0  0  0  0  0  0
    3.4899    2.1745   21.4402 C   0  0  0  0  0  0  0  0  0  0  0  0
    4.5732    1.3408   21.2944 C   0  0  0  0  0  0  0  0  0  0  0  0
    4.9993    0.9336   19.9979 C   0  0  0  0  0  0  0  0  0  0  0  0
    5.1312    1.0300   22.1736 H   0  0  0  0  0  0  0  0  0  0  0  0
    3.1882    2.4985   22.4312 H   0  0  0  0  0  0  0  0  0  0  0  0
    1.9344    3.2937   20.4305 H   0  0  0  0  0  0  0  0  0  0  0  0
    2.6713    2.6288   18.1618 H   0  0  0  0  0  0  0  0  0  0  0  0
    4.2110    1.3575   16.7012 H   0  0  0  0  0  0  0  0  0  0  0  0
    7.3411   -0.8283   18.2683 H   0  0  0  0  0  0  0  0  0  0  0  0
    6.4965   -1.5530   21.6285 C   0  0  0  0  0  0  0  0  0  0  0  0
    7.7544   -1.7988   22.4767 C   0  0  2  0  0  0  0  0  0  0  0  0
    7.4731   -2.5348   23.7984 C   0  0  0  0  0  0  0  0  0  0  0  0
    6.9442   -3.9378   23.5830 C   0  0  0  0  0  0  0  0  0  0  0  0
    5.5686   -4.1914   23.5423 C   0  0  0  0  0  0  0  0  0  0  0  0
    5.0823   -5.4798   23.3311 C   0  0  0  0  0  0  0  0  0  0  0  0
    5.9678   -6.5392   23.1470 C   0  0  0  0  0  0  0  0  0  0  0  0
    7.3397   -6.3022   23.1883 C   0  0  0  0  0  0  0  0  0  0  0  0
    7.8214   -5.0124   23.4002 C   0  0  0  0  0  0  0  0  0  0  0  0
    8.8988   -4.8456   23.4368 H   0  0  0  0  0  0  0  0  0  0  0  0
    8.0394   -7.1273   23.0670 H   0  0  0  0  0  0  0  0  0  0  0  0
    5.5900   -7.5468   22.9823 H   0  0  0  0  0  0  0  0  0  0  0  0
    4.0088   -5.6602   23.3196 H   0  0  0  0  0  0  0  0  0  0  0  0
    4.8653   -3.3703   23.6877 H   0  0  0  0  0  0  0  0  0  0  0  0
    6.7469   -1.9618   24.3948 H   0  0  0  0  0  0  0  0  0  0  0  0
    8.4093   -2.5811   24.3731 H   0  0  0  0  0  0  0  0  0  0  0  0
    8.4018   -2.4557   21.8862 H   0  0  0  0  0  0  0  0  0  0  0  0
    5.6113   -1.3257   22.2476 H   0  0  0  0  0  0  0  0  0  0  0  0
    6.2482   -2.4230   21.0078 H   0  0  0  0  0  0  0  0  0  0  0  0
    9.9870   -0.4769   22.5047 C   0  0  0  0  0  0  0  0  0  0  0  0
   10.6058   -1.3650   21.6116 C   0  0  0  0  0  0  0  0  0  0  0  0
   11.9687   -1.2906   21.3982 C   0  0  0  0  0  0  0  0  0  0  0  0
   12.6748   -2.2723   20.1415 Cl  0  0  0  0  0  0  0  0  0  0  0  0
   12.7732   -0.4123   22.1296 C   0  0  0  0  0  0  0  0  0  0  0  0
   12.1729    0.4347   23.0387 C   0  0  0  0  0  0  0  0  0  0  0  0
   10.7844    0.4674   23.1635 C   0  0  0  0  0  0  0  0  0  0  0  0
   10.1818    1.6204   23.9089 C   0  0  0  0  0  0  0  0  0  0  0  0
   10.8714    2.5146   24.3871 O   0  0  0  0  0  0  0  0  0  0  0  0
   12.7532    1.1306   23.6344 H   0  0  0  0  0  0  0  0  0  0  0  0
   13.8408   -0.3689   21.9395 H   0  0  0  0  0  0  0  0  0  0  0  0
   10.0450   -2.0978   21.0385 H   0  0  0  0  0  0  0  0  0  0  0  0
    8.2324   -0.2429   24.7213 H   0  0  0  0  0  0  0  0  0  0  0  0
    6.9900    0.6312   23.7921 H   0  0  0  0  0  0  0  0  0  0  0  0
    8.9275    3.5480   24.6737 H   0  0  0  0  0  0  0  0  0  0  0  0
    7.6428    2.5962   25.4110 H   0  0  0  0  0  0  0  0  0  0  0  0
    8.4901    3.7261   21.9852 H   0  0  0  0  0  0  0  0  0  0  0  0
    5.7592    4.8578   21.8986 H   0  0  0  0  0  0  0  0  0  0  0  0
    6.1885    3.5221   20.8185 H   0  0  0  0  0  0  0  0  0  0  0  0
    7.0184    5.1072   20.6774 H   0  0  0  0  0  0  0  0  0  0  0  0
  1  2  1  0
  2  3  1  0
  3  4  2  0
  3  5  1  0
  5  6  1  0
  6  7  1  0
  8  7  1  1
  8  9  1  0
  9 10  2  0
  9 11  1  0
 11 12  1  0
 12 13  2  0
 13 14  1  0
 14 15  2  0
 15 16  1  0
 16 17  2  0
 17 18  1  0
 18 19  2  0
 19 20  1  0
 20 21  2  0
 20 22  1  0
 19 23  1  0
 18 24  1  0
 17 25  1  0
 15 26  1  0
 13 27  1  0
 11 28  1  0
 28 29  1  0
 29 30  1  0
 30 31  1  0
 31 32  2  0
 32 33  1  0
 33 34  2  0
 34 35  1  0
 35 36  2  0
 36 37  1  0
 35 38  1  0
 34 39  1  0
 33 40  1  0
 32 41  1  0
 30 42  1  0
 30 43  1  0
 29 44  1  6
 28 45  1  0
 28 46  1  0
  8 47  1  0
 47 48  2  0
 48 49  1  0
 49 50  1  0
 49 51  2  0
 51 52  1  0
 52 53  2  0
 53 54  1  0
 54 55  2  0
 52 56  1  0
 51 57  1  0
 48 58  1  0
  7 59  1  0
  7 60  1  0
  5 61  1  0
  5 62  1  0
  2 63  1  0
  1 64  1  0
  1 65  1  0
  1 66  1  0
 54  6  1  0
 29  8  1  0
 36 31  1  0
 53 47  1  0
 21 12  1  0
 21 16  1  0
M  END
>  <cnnaffinities>  (31) 
[7.08882, 7.10088, 7.3328, 7.33558]

>  <score>  (31) 
7.08882

>  <index>  (31) 
30

>  <Smiles>  (31) 
C(N(C(=O)C(N1C([C@@]2(C(=O)N(c3c(nc(c4c(c(c(c(c34)[H])[H])[H])[H])[H])[H])C([C@@]2(C(c2c(c(c(c(c2[H])[H])[H])[H])[H])([H])[H])[H])([H])[H])c2c(c(Cl)c(c(c2C1=O)[H])[H])[H])([H])[H])([H])[H])[H])([H])([H])[H]

>  <h>  (31) 
<NA>

>  <Training>  (31) 
True

>  <Success>  (31) 
True

>  <enamine_searched>  (31) 
False

>  <enamine_id>  (31) 
nan

$$$$

     RDKit          3D

 64 70  0  0  0  0  0  0  0  0999 V2000
   10.6432    2.6574   24.4604 O   0  0  0  0  0  0  0  0  0  0  0  0
   10.0141    1.7318   23.9778 C   0  0  0  0  0  0  0  0  0  0  0  0
   10.6962    0.6034   23.2534 C   0  0  0  0  0  0  0  0  0  0  0  0
   12.0916    0.6159   23.1481 C   0  0  0  0  0  0  0  0  0  0  0  0
   12.7409   -0.2385   22.2756 C   0  0  0  0  0  0  0  0  0  0  0  0
   11.9713   -1.0954   21.4829 C   0  0  0  0  0  0  0  0  0  0  0  0
   12.6922   -1.9837   20.1616 Cl  0  0  0  0  0  0  0  0  0  0  0  0
   10.6044   -1.1885   21.6554 C   0  0  0  0  0  0  0  0  0  0  0  0
    9.9468   -0.3513   22.5627 C   0  0  0  0  0  0  0  0  0  0  0  0
    8.4356   -0.3649   22.6049 C   0  0  1  0  0  0  0  0  0  0  0  0
    7.9584    0.4094   23.8610 C   0  0  0  0  0  0  0  0  0  0  0  0
    8.6390    1.6829   23.9960 N   0  0  0  0  0  0  0  0  0  0  0  0
    7.9100    2.8877   24.3390 C   0  0  0  0  0  0  0  0  0  0  0  0
    7.5735    3.7498   23.1673 C   0  0  0  0  0  0  0  0  0  0  0  0
    7.9706    4.9457   22.8812 N   0  0  0  0  0  0  0  0  0  0  0  0
    7.2124    5.3554   21.7915 N   0  0  0  0  0  0  0  0  0  0  0  0
    6.4263    4.3770   21.5123 C   0  0  0  0  0  0  0  0  0  0  0  0
    6.5936    3.3165   22.3406 O   0  0  0  0  0  0  0  0  0  0  0  0
    5.6505    4.3415   20.7589 H   0  0  0  0  0  0  0  0  0  0  0  0
    8.5107    3.4654   25.0442 H   0  0  0  0  0  0  0  0  0  0  0  0
    6.9665    2.6113   24.8210 H   0  0  0  0  0  0  0  0  0  0  0  0
    6.8810    0.5947   23.7959 H   0  0  0  0  0  0  0  0  0  0  0  0
    8.1486   -0.1912   24.7603 H   0  0  0  0  0  0  0  0  0  0  0  0
    7.9012    0.3268   21.3390 C   0  0  0  0  0  0  0  0  0  0  0  0
    8.2776    1.3751   20.8630 O   0  0  0  0  0  0  0  0  0  0  0  0
    6.8790   -0.4399   20.8278 N   0  0  0  0  0  0  0  0  0  0  0  0
    6.1038    0.0594   19.7562 C   0  0  0  0  0  0  0  0  0  0  0  0
    6.4619   -0.2235   18.4657 C   0  0  0  0  0  0  0  0  0  0  0  0
    5.7942    0.2249   17.3743 N   0  0  0  0  0  0  0  0  0  0  0  0
    4.7591    1.0015   17.5852 C   0  0  0  0  0  0  0  0  0  0  0  0
    4.3021    1.3960   18.8766 C   0  0  0  0  0  0  0  0  0  0  0  0
    3.1975    2.2703   19.0535 C   0  0  0  0  0  0  0  0  0  0  0  0
    2.7827    2.6169   20.3082 C   0  0  0  0  0  0  0  0  0  0  0  0
    3.4476    2.1108   21.4472 C   0  0  0  0  0  0  0  0  0  0  0  0
    4.5316    1.2771   21.3054 C   0  0  0  0  0  0  0  0  0  0  0  0
    4.9814    0.8993   20.0088 C   0  0  0  0  0  0  0  0  0  0  0  0
    5.0601    0.9278   22.1887 H   0  0  0  0  0  0  0  0  0  0  0  0
    3.1077    2.4001   22.4376 H   0  0  0  0  0  0  0  0  0  0  0  0
    1.9360    3.2854   20.4376 H   0  0  0  0  0  0  0  0  0  0  0  0
    2.6981    2.6524   18.1675 H   0  0  0  0  0  0  0  0  0  0  0  0
    4.2220    1.3690   16.7094 H   0  0  0  0  0  0  0  0  0  0  0  0
    7.3392   -0.8392   18.2793 H   0  0  0  0  0  0  0  0  0  0  0  0
    6.5505   -1.6055   21.6210 C   0  0  0  0  0  0  0  0  0  0  0  0
    7.7907   -1.7724   22.5095 C   0  0  2  0  0  0  0  0  0  0  0  0
    7.5254   -2.4484   23.8522 C   0  0  0  0  0  0  0  0  0  0  0  0
    7.1257   -3.8216   23.6616 N   0  0  0  0  0  0  0  0  0  0  0  0
    6.6048   -4.5901   24.6525 C   0  0  0  0  0  0  0  0  0  0  0  0
    6.6872   -4.2297   26.0128 C   0  0  0  0  0  0  0  0  0  0  0  0
    6.0468   -5.0625   26.9060 C   0  0  0  0  0  0  0  0  0  0  0  0
    5.4088   -6.1849   26.5419 N   0  0  0  0  0  0  0  0  0  0  0  0
    5.4362   -6.4410   25.2376 C   0  0  0  0  0  0  0  0  0  0  0  0
    5.9842   -5.7172   24.2676 N   0  0  0  0  0  0  0  0  0  0  0  0
    4.9270   -7.3510   24.9153 H   0  0  0  0  0  0  0  0  0  0  0  0
    6.0310   -4.8123   27.9692 H   0  0  0  0  0  0  0  0  0  0  0  0
    7.2058   -3.3323   26.3438 H   0  0  0  0  0  0  0  0  0  0  0  0
    7.0202   -4.1916   22.7294 H   0  0  0  0  0  0  0  0  0  0  0  0
    8.4436   -2.4048   24.4592 H   0  0  0  0  0  0  0  0  0  0  0  0
    6.7382   -1.9002   24.3970 H   0  0  0  0  0  0  0  0  0  0  0  0
    8.4837   -2.4238   21.9728 H   0  0  0  0  0  0  0  0  0  0  0  0
    5.6419   -1.4480   22.2230 H   0  0  0  0  0  0  0  0  0  0  0  0
    6.3770   -2.4698   20.9728 H   0  0  0  0  0  0  0  0  0  0  0  0
   10.0613   -1.9014   21.0472 H   0  0  0  0  0  0  0  0  0  0  0  0
   13.8234   -0.2260   22.1771 H   0  0  0  0  0  0  0  0  0  0  0  0
   12.6469    1.3326   23.7438 H   0  0  0  0  0  0  0  0  0  0  0  0
  1  2  2  0
  2  3  1  0
  3  4  2  0
  4  5  1  0
  5  6  2  0
  6  7  1  0
  6  8  1  0
  8  9  2  0
  9 10  1  0
 10 11  1  1
 11 12  1  0
 12 13  1  0
 13 14  1  0
 14 15  2  0
 15 16  1  0
 16 17  2  0
 17 18  1  0
 17 19  1  0
 13 20  1  0
 13 21  1  0
 11 22  1  0
 11 23  1  0
 10 24  1  0
 24 25  2  0
 24 26  1  0
 26 27  1  0
 27 28  2  0
 28 29  1  0
 29 30  2  0
 30 31  1  0
 31 32  2  0
 32 33  1  0
 33 34  2  0
 34 35  1  0
 35 36  2  0
 35 37  1  0
 34 38  1  0
 33 39  1  0
 32 40  1  0
 30 41  1  0
 28 42  1  0
 26 43  1  0
 43 44  1  0
 44 45  1  0
 45 46  1  0
 46 47  1  0
 47 48  2  0
 48 49  1  0
 49 50  2  0
 50 51  1  0
 51 52  2  0
 51 53  1  0
 49 54  1  0
 48 55  1  0
 46 56  1  0
 45 57  1  0
 45 58  1  0
 44 59  1  6
 43 60  1  0
 43 61  1  0
  8 62  1  0
  5 63  1  0
  4 64  1  0
 12  2  1  0
 18 14  1  0
 36 27  1  0
 52 47  1  0
  9  3  1  0
 44 10  1  0
 36 31  1  0
M  END
>  <cnnaffinities>  (32) 
[6.70412, 6.8093]

>  <score>  (32) 
6.70412

>  <index>  (32) 
31

>  <Smiles>  (32) 
O=C1c2c(c(c(Cl)c(c2[C@@]2(C(N1C(c1nnc(o1)[H])([H])[H])([H])[H])C(=O)N(c1c(nc(c3c(c(c(c(c13)[H])[H])[H])[H])[H])[H])C([C@@]2(C(N(c1c(c(nc(n1)[H])[H])[H])[H])([H])[H])[H])([H])[H])[H])[H])[H]

>  <h>  (32) 
<NA>

>  <Training>  (32) 
True

>  <Success>  (32) 
True

>  <enamine_searched>  (32) 
False

>  <enamine_id>  (32) 
nan

$$$$

     RDKit          3D

 72 77  0  0  0  0  0  0  0  0999 V2000
    6.9423   -2.5022   23.4512 C   0  0  0  0  0  0  0  0  0  0  0  0
    7.9028   -1.8471   22.4431 C   0  0  1  0  0  0  0  0  0  0  0  0
    7.2413   -1.7763   21.0465 C   0  0  0  0  0  0  0  0  0  0  0  0
    6.9014   -0.3800   20.8681 N   0  0  0  0  0  0  0  0  0  0  0  0
    6.1352    0.1070   19.7784 C   0  0  0  0  0  0  0  0  0  0  0  0
    6.4390   -0.2244   18.4795 C   0  0  0  0  0  0  0  0  0  0  0  0
    5.7653    0.2265   17.3921 N   0  0  0  0  0  0  0  0  0  0  0  0
    4.7441    1.0239   17.5911 C   0  0  0  0  0  0  0  0  0  0  0  0
    4.2943    1.4194   18.8818 C   0  0  0  0  0  0  0  0  0  0  0  0
    3.1704    2.2745   19.0553 C   0  0  0  0  0  0  0  0  0  0  0  0
    2.7478    2.6159   20.3109 C   0  0  0  0  0  0  0  0  0  0  0  0
    3.4178    2.1108   21.4463 C   0  0  0  0  0  0  0  0  0  0  0  0
    4.5039    1.2847   21.3042 C   0  0  0  0  0  0  0  0  0  0  0  0
    4.9912    0.9406   20.0115 C   0  0  0  0  0  0  0  0  0  0  0  0
    5.0206    0.8954   22.1751 H   0  0  0  0  0  0  0  0  0  0  0  0
    3.0699    2.3853   22.4417 H   0  0  0  0  0  0  0  0  0  0  0  0
    1.8916    3.2754   20.4423 H   0  0  0  0  0  0  0  0  0  0  0  0
    2.6575    2.6495   18.1739 H   0  0  0  0  0  0  0  0  0  0  0  0
    4.2144    1.3902   16.7103 H   0  0  0  0  0  0  0  0  0  0  0  0
    7.2885   -0.8689   18.2513 H   0  0  0  0  0  0  0  0  0  0  0  0
    7.6184    0.4497   21.6953 C   0  0  0  0  0  0  0  0  0  0  0  0
    7.6515    1.6603   21.5874 O   0  0  0  0  0  0  0  0  0  0  0  0
    8.3657   -0.3853   22.7565 C   0  0  1  0  0  0  0  0  0  0  0  0
    7.9868    0.0787   24.1882 C   0  0  0  0  0  0  0  0  0  0  0  0
    8.4676    1.4091   24.5088 N   0  0  0  0  0  0  0  0  0  0  0  0
    7.5737    2.3572   25.1784 C   0  0  0  0  0  0  0  0  0  0  0  0
    6.8374    3.2465   24.1727 C   0  0  0  0  0  0  0  0  0  0  0  0
    5.9642    4.2883   24.8000 N   0  0  1  0  0  4  0  0  0  0  0  0
    5.5638    5.3207   23.7826 C   0  0  0  0  0  0  0  0  0  0  0  0
    4.6373    6.3583   24.3931 C   0  0  0  0  0  0  0  0  0  0  0  0
    3.4786    5.7676   24.9479 O   0  0  0  0  0  0  0  0  0  0  0  0
    3.7568    4.7994   25.9647 C   0  0  0  0  0  0  0  0  0  0  0  0
    2.4193    4.1369   26.2739 C   0  0  0  0  0  0  0  0  0  0  0  0
    1.9908    3.6894   25.3699 H   0  0  0  0  0  0  0  0  0  0  0  0
    2.5528    3.3461   27.0229 H   0  0  0  0  0  0  0  0  0  0  0  0
    1.7080    4.8702   26.6711 H   0  0  0  0  0  0  0  0  0  0  0  0
    4.2910    5.4735   27.2288 C   0  0  0  0  0  0  0  0  0  0  0  0
    5.2923    5.8953   27.0929 H   0  0  0  0  0  0  0  0  0  0  0  0
    4.3480    4.7384   28.0403 H   0  0  0  0  0  0  0  0  0  0  0  0
    3.6109    6.2742   27.5395 H   0  0  0  0  0  0  0  0  0  0  0  0
    4.7239    3.7230   25.4461 C   0  0  0  0  0  0  0  0  0  0  0  0
    4.2060    3.1180   24.6963 H   0  0  0  0  0  0  0  0  0  0  0  0
    5.0065    3.0703   26.2760 H   0  0  0  0  0  0  0  0  0  0  0  0
    5.1938    6.9444   25.1397 H   0  0  0  0  0  0  0  0  0  0  0  0
    4.2868    7.0467   23.6163 H   0  0  0  0  0  0  0  0  0  0  0  0
    5.0400    4.8094   22.9687 H   0  0  0  0  0  0  0  0  0  0  0  0
    6.4656    5.7897   23.3724 H   0  0  0  0  0  0  0  0  0  0  0  0
    6.5344    4.7664   25.5232 H   0  0  0  0  0  0  0  0  0  0  0  0
    6.2276    2.6169   23.5123 H   0  0  0  0  0  0  0  0  0  0  0  0
    7.5708    3.7536   23.5419 H   0  0  0  0  0  0  0  0  0  0  0  0
    8.1651    2.9728   25.8619 H   0  0  0  0  0  0  0  0  0  0  0  0
    6.8523    1.7901   25.7766 H   0  0  0  0  0  0  0  0  0  0  0  0
    9.7441    1.7935   24.2173 C   0  0  0  0  0  0  0  0  0  0  0  0
   10.2334    2.8131   24.6784 O   0  0  0  0  0  0  0  0  0  0  0  0
   10.5016    0.8926   23.2617 C   0  0  0  0  0  0  0  0  0  0  0  0
   11.8549    1.1497   23.0339 C   0  0  0  0  0  0  0  0  0  0  0  0
   12.5799    0.4191   22.1116 C   0  0  0  0  0  0  0  0  0  0  0  0
   11.9205   -0.5743   21.3926 C   0  0  0  0  0  0  0  0  0  0  0  0
   12.7759   -1.4503   20.1558 Cl  0  0  0  0  0  0  0  0  0  0  0  0
   10.5766   -0.8411   21.5952 C   0  0  0  0  0  0  0  0  0  0  0  0
    9.8583   -0.1422   22.5712 C   0  0  0  0  0  0  0  0  0  0  0  0
   10.1038   -1.5776   20.9532 H   0  0  0  0  0  0  0  0  0  0  0  0
   13.6319    0.6162   21.9199 H   0  0  0  0  0  0  0  0  0  0  0  0
   12.3390    1.9434   23.5857 H   0  0  0  0  0  0  0  0  0  0  0  0
    8.3934   -0.6412   24.9131 H   0  0  0  0  0  0  0  0  0  0  0  0
    6.9065    0.0925   24.3039 H   0  0  0  0  0  0  0  0  0  0  0  0
    7.9332   -2.1093   20.2696 H   0  0  0  0  0  0  0  0  0  0  0  0
    6.3398   -2.3923   20.9803 H   0  0  0  0  0  0  0  0  0  0  0  0
    8.7833   -2.4969   22.4078 H   0  0  0  0  0  0  0  0  0  0  0  0
    6.6850   -3.5199   23.1269 H   0  0  0  0  0  0  0  0  0  0  0  0
    6.0040   -1.9435   23.5448 H   0  0  0  0  0  0  0  0  0  0  0  0
    7.3842   -2.5882   24.4489 H   0  0  0  0  0  0  0  0  0  0  0  0
  1  2  1  0
  2  3  1  0
  3  4  1  0
  4  5  1  0
  5  6  2  0
  6  7  1  0
  7  8  2  0
  8  9  1  0
  9 10  2  0
 10 11  1  0
 11 12  2  0
 12 13  1  0
 13 14  2  0
 13 15  1  0
 12 16  1  0
 11 17  1  0
 10 18  1  0
  8 19  1  0
  6 20  1  0
  4 21  1  0
 21 22  2  0
 21 23  1  0
 23 24  1  1
 24 25  1  0
 25 26  1  0
 26 27  1  0
 27 28  1  0
 28 29  1  0
 29 30  1  0
 30 31  1  0
 31 32  1  0
 32 33  1  0
 33 34  1  0
 33 35  1  0
 33 36  1  0
 32 37  1  0
 37 38  1  0
 37 39  1  0
 37 40  1  0
 32 41  1  0
 41 42  1  0
 41 43  1  0
 30 44  1  0
 30 45  1  0
 29 46  1  0
 29 47  1  0
 28 48  1  1
 27 49  1  0
 27 50  1  0
 26 51  1  0
 26 52  1  0
 25 53  1  0
 53 54  2  0
 53 55  1  0
 55 56  2  0
 56 57  1  0
 57 58  2  0
 58 59  1  0
 58 60  1  0
 60 61  2  0
 60 62  1  0
 57 63  1  0
 56 64  1  0
 24 65  1  0
 24 66  1  0
  3 67  1  0
  3 68  1  0
  2 69  1  6
  1 70  1  0
  1 71  1  0
  1 72  1  0
 23  2  1  0
 41 28  1  0
 61 55  1  0
 14  5  1  0
 61 23  1  0
 14  9  1  0
M  CHG  1  28   1
M  END
>  <cnnaffinities>  (33) 
[6.47824, 6.69552, 6.60381]

>  <score>  (33) 
6.47824

>  <index>  (33) 
32

>  <Smiles>  (33) 
C([C@]1(C(N(c2c(nc(c3c(c(c(c(c23)[H])[H])[H])[H])[H])[H])C(=O)[C@]21C(N(C(C([N@+]1(C(C(OC(C([H])([H])[H])(C([H])([H])[H])C1([H])[H])([H])[H])([H])[H])[H])([H])[H])([H])[H])C(=O)c1c(c(c(Cl)c(c21)[H])[H])[H])([H])[H])([H])[H])[H])([H])([H])[H]

>  <h>  (33) 
<NA>

>  <Training>  (33) 
True

>  <Success>  (33) 
True

>  <enamine_searched>  (33) 
False

>  <enamine_id>  (33) 
nan

$$$$

     RDKit          3D

 44 47  0  0  0  0  0  0  0  0999 V2000
    8.5126    1.3941   20.7354 O   0  0  0  0  0  0  0  0  0  0  0  0
    7.8677    0.6914   21.5021 C   0  0  0  0  0  0  0  0  0  0  0  0
    6.9525   -0.4144   20.9242 C   0  0  0  0  0  0  0  0  0  0  0  0
    6.1118    0.0891   19.7684 C   0  0  0  0  0  0  0  0  0  0  0  0
    6.4280   -0.2069   18.4669 C   0  0  0  0  0  0  0  0  0  0  0  0
    5.7604    0.2417   17.3645 N   0  0  0  0  0  0  0  0  0  0  0  0
    4.7343    1.0269   17.5770 C   0  0  0  0  0  0  0  0  0  0  0  0
    4.2855    1.4235   18.8663 C   0  0  0  0  0  0  0  0  0  0  0  0
    3.1728    2.2847   19.0466 C   0  0  0  0  0  0  0  0  0  0  0  0
    2.7646    2.6528   20.2982 C   0  0  0  0  0  0  0  0  0  0  0  0
    3.4653    2.1687   21.4300 C   0  0  0  0  0  0  0  0  0  0  0  0
    4.5441    1.3342   21.2895 C   0  0  0  0  0  0  0  0  0  0  0  0
    4.9894    0.9390   20.0007 C   0  0  0  0  0  0  0  0  0  0  0  0
    5.0719    0.9837   22.1769 H   0  0  0  0  0  0  0  0  0  0  0  0
    3.1343    2.4717   22.4188 H   0  0  0  0  0  0  0  0  0  0  0  0
    1.9132    3.3158   20.4321 H   0  0  0  0  0  0  0  0  0  0  0  0
    2.6527    2.6531   18.1629 H   0  0  0  0  0  0  0  0  0  0  0  0
    4.1999    1.3977   16.6978 H   0  0  0  0  0  0  0  0  0  0  0  0
    7.2750   -0.8552   18.2441 H   0  0  0  0  0  0  0  0  0  0  0  0
    7.6153   -1.1982   20.5371 H   0  0  0  0  0  0  0  0  0  0  0  0
    6.3238   -0.8903   21.6862 H   0  0  0  0  0  0  0  0  0  0  0  0
    7.9400    0.8602   22.8612 N   0  0  0  0  0  0  0  0  0  0  0  0
    7.4855   -0.0758   23.8814 C   0  0  0  0  0  0  0  0  0  0  0  0
    7.8303    0.5799   25.2247 C   0  0  0  0  0  0  0  0  0  0  0  0
    8.7638    1.7536   24.9053 C   0  0  0  0  0  0  0  0  0  0  0  0
    8.5932    2.0504   23.4074 C   0  0  2  0  0  0  0  0  0  0  0  0
    7.7994    3.3161   23.1421 C   0  0  0  0  0  0  0  0  0  0  0  0
    8.3961    4.4134   22.5250 C   0  0  0  0  0  0  0  0  0  0  0  0
    7.6646    5.5691   22.2706 C   0  0  0  0  0  0  0  0  0  0  0  0
    6.3282    5.6586   22.6337 C   0  0  0  0  0  0  0  0  0  0  0  0
    5.7666    4.5614   23.2651 C   0  0  0  0  0  0  0  0  0  0  0  0
    4.4684    4.6177   23.6159 F   0  0  0  0  0  0  0  0  0  0  0  0
    6.4671    3.3989   23.5348 C   0  0  0  0  0  0  0  0  0  0  0  0
    5.9562    2.5755   24.0302 H   0  0  0  0  0  0  0  0  0  0  0  0
    5.7336    6.5446   22.4324 H   0  0  0  0  0  0  0  0  0  0  0  0
    8.1383    6.4020   21.7671 H   0  0  0  0  0  0  0  0  0  0  0  0
    9.4400    4.3570   22.2277 H   0  0  0  0  0  0  0  0  0  0  0  0
    9.5685    2.1681   22.9358 H   0  0  0  0  0  0  0  0  0  0  0  0
    8.5347    2.6287   25.5174 H   0  0  0  0  0  0  0  0  0  0  0  0
    9.8015    1.5003   25.1372 H   0  0  0  0  0  0  0  0  0  0  0  0
    8.3013   -0.1284   25.9067 H   0  0  0  0  0  0  0  0  0  0  0  0
    6.9281    0.9268   25.7331 H   0  0  0  0  0  0  0  0  0  0  0  0
    7.9985   -1.0334   23.7586 H   0  0  0  0  0  0  0  0  0  0  0  0
    6.4100   -0.2704   23.8100 H   0  0  0  0  0  0  0  0  0  0  0  0
  1  2  2  0
  2  3  1  0
  3  4  1  0
  4  5  2  0
  5  6  1  0
  6  7  2  0
  7  8  1  0
  8  9  2  0
  9 10  1  0
 10 11  2  0
 11 12  1  0
 12 13  2  0
 12 14  1  0
 11 15  1  0
 10 16  1  0
  9 17  1  0
  7 18  1  0
  5 19  1  0
  3 20  1  0
  3 21  1  0
  2 22  1  0
 22 23  1  0
 23 24  1  0
 24 25  1  0
 25 26  1  0
 26 27  1  0
 27 28  2  0
 28 29  1  0
 29 30  2  0
 30 31  1  0
 31 32  1  0
 31 33  2  0
 33 34  1  0
 30 35  1  0
 29 36  1  0
 28 37  1  0
 26 38  1  6
 25 39  1  0
 25 40  1  0
 24 41  1  0
 24 42  1  0
 23 43  1  0
 23 44  1  0
 13  4  1  0
 26 22  1  0
 33 27  1  0
 13  8  1  0
M  END
>  <cnnaffinities>  (34) 
[5.46207, 5.69296, 5.70642]

>  <score>  (34) 
5.46207

>  <index>  (34) 
33

>  <Smiles>  (34) 
O=C(C(c1c(nc(c2c(c(c(c(c12)[H])[H])[H])[H])[H])[H])([H])[H])N1C(C(C([C@@]1(c1c(c(c(c(F)c1[H])[H])[H])[H])[H])([H])[H])([H])[H])([H])[H]

>  <h>  (34) 
<NA>

>  <Training>  (34) 
True

>  <Success>  (34) 
True

>  <enamine_searched>  (34) 
False

>  <enamine_id>  (34) 
nan

$$$$

     RDKit          3D

 58 63  0  0  0  0  0  0  0  0999 V2000
    6.7014   -2.3084   23.6186 C   0  0  0  0  0  0  0  0  0  0  0  0
    7.7103   -1.8412   22.5524 C   0  0  1  0  0  0  0  0  0  0  0  0
    7.0365   -1.7992   21.1587 C   0  0  0  0  0  0  0  0  0  0  0  0
    6.8803   -0.3926   20.8680 N   0  0  0  0  0  0  0  0  0  0  0  0
    6.1288    0.1061   19.7740 C   0  0  0  0  0  0  0  0  0  0  0  0
    6.4435   -0.2274   18.4807 C   0  0  0  0  0  0  0  0  0  0  0  0
    5.7717    0.2210   17.3898 N   0  0  0  0  0  0  0  0  0  0  0  0
    4.7506    1.0188   17.5942 C   0  0  0  0  0  0  0  0  0  0  0  0
    4.2973    1.4268   18.8798 C   0  0  0  0  0  0  0  0  0  0  0  0
    3.1668    2.2714   19.0589 C   0  0  0  0  0  0  0  0  0  0  0  0
    2.7379    2.6093   20.3134 C   0  0  0  0  0  0  0  0  0  0  0  0
    3.4181    2.1169   21.4505 C   0  0  0  0  0  0  0  0  0  0  0  0
    4.5154    1.3081   21.3023 C   0  0  0  0  0  0  0  0  0  0  0  0
    4.9989    0.9522   20.0127 C   0  0  0  0  0  0  0  0  0  0  0  0
    5.0230    0.9237   22.1808 H   0  0  0  0  0  0  0  0  0  0  0  0
    3.0803    2.3923   22.4468 H   0  0  0  0  0  0  0  0  0  0  0  0
    1.8752    3.2571   20.4432 H   0  0  0  0  0  0  0  0  0  0  0  0
    2.6546    2.6387   18.1740 H   0  0  0  0  0  0  0  0  0  0  0  0
    4.2230    1.3814   16.7117 H   0  0  0  0  0  0  0  0  0  0  0  0
    7.2903   -0.8766   18.2614 H   0  0  0  0  0  0  0  0  0  0  0  0
    7.6835    0.4274   21.6298 C   0  0  0  0  0  0  0  0  0  0  0  0
    7.8608    1.6015   21.4036 O   0  0  0  0  0  0  0  0  0  0  0  0
    8.3383   -0.4182   22.7570 C   0  0  1  0  0  0  0  0  0  0  0  0
    8.0385    0.1648   24.1614 C   0  0  0  0  0  0  0  0  0  0  0  0
    8.7070    1.4287   24.4015 N   0  0  0  0  0  0  0  0  0  0  0  0
    7.9573    2.5648   24.9415 C   0  0  0  0  0  0  0  0  0  0  0  0
    7.5766    3.5949   23.9067 C   0  0  0  0  0  0  0  0  0  0  0  0
    8.3691    4.6218   23.3803 C   0  0  0  0  0  0  0  0  0  0  0  0
    7.6945    5.2371   22.4156 N   0  0  0  0  0  0  0  0  0  0  0  0
    6.5398    4.6059   22.3886 N   0  0  0  0  0  0  0  0  0  0  0  0
    5.5368    4.8821   21.3742 C   0  0  0  0  0  0  0  0  0  0  0  0
    4.5621    4.8487   21.8643 H   0  0  0  0  0  0  0  0  0  0  0  0
    5.7418    5.8809   20.9761 H   0  0  0  0  0  0  0  0  0  0  0  0
    5.5664    4.1220   20.5802 H   0  0  0  0  0  0  0  0  0  0  0  0
    6.3969    3.6281   23.2760 N   0  0  0  0  0  0  0  0  0  0  0  0
    9.3713    4.9209   23.6580 H   0  0  0  0  0  0  0  0  0  0  0  0
    8.5855    3.0324   25.7049 H   0  0  0  0  0  0  0  0  0  0  0  0
    7.0501    2.1804   25.4198 H   0  0  0  0  0  0  0  0  0  0  0  0
   10.0393    1.5943   24.1362 C   0  0  0  0  0  0  0  0  0  0  0  0
   10.6803    2.5356   24.5902 O   0  0  0  0  0  0  0  0  0  0  0  0
   10.6441    0.5753   23.2109 C   0  0  0  0  0  0  0  0  0  0  0  0
   12.0156    0.6465   22.9599 C   0  0  0  0  0  0  0  0  0  0  0  0
   12.6084   -0.1958   22.0409 C   0  0  0  0  0  0  0  0  0  0  0  0
   11.8020   -1.0943   21.3549 C   0  0  0  0  0  0  0  0  0  0  0  0
   12.3682   -1.8896   20.4327 F   0  0  0  0  0  0  0  0  0  0  0  0
   10.4445   -1.1900   21.5808 C   0  0  0  0  0  0  0  0  0  0  0  0
    9.8495   -0.3734   22.5508 C   0  0  0  0  0  0  0  0  0  0  0  0
    9.8824   -1.8934   20.9750 H   0  0  0  0  0  0  0  0  0  0  0  0
   13.6713   -0.1805   21.8318 H   0  0  0  0  0  0  0  0  0  0  0  0
   12.5951    1.3880   23.4978 H   0  0  0  0  0  0  0  0  0  0  0  0
    8.3408   -0.5776   24.9180 H   0  0  0  0  0  0  0  0  0  0  0  0
    6.9675    0.3533   24.2502 H   0  0  0  0  0  0  0  0  0  0  0  0
    6.0556   -2.2899   21.1549 H   0  0  0  0  0  0  0  0  0  0  0  0
    7.6610   -2.2855   20.4042 H   0  0  0  0  0  0  0  0  0  0  0  0
    8.5223   -2.5779   22.5536 H   0  0  0  0  0  0  0  0  0  0  0  0
    5.8389   -1.6350   23.6907 H   0  0  0  0  0  0  0  0  0  0  0  0
    6.3220   -3.3053   23.3622 H   0  0  0  0  0  0  0  0  0  0  0  0
    7.1587   -2.3835   24.6100 H   0  0  0  0  0  0  0  0  0  0  0  0
  1  2  1  0
  2  3  1  0
  3  4  1  0
  4  5  1  0
  5  6  2  0
  6  7  1  0
  7  8  2  0
  8  9  1  0
  9 10  2  0
 10 11  1  0
 11 12  2  0
 12 13  1  0
 13 14  2  0
 13 15  1  0
 12 16  1  0
 11 17  1  0
 10 18  1  0
  8 19  1  0
  6 20  1  0
  4 21  1  0
 21 22  2  0
 21 23  1  0
 23 24  1  1
 24 25  1  0
 25 26  1  0
 26 27  1  0
 27 28  1  0
 28 29  2  0
 29 30  1  0
 30 31  1  0
 31 32  1  0
 31 33  1  0
 31 34  1  0
 30 35  1  0
 28 36  1  0
 26 37  1  0
 26 38  1  0
 25 39  1  0
 39 40  2  0
 39 41  1  0
 41 42  2  0
 42 43  1  0
 43 44  2  0
 44 45  1  0
 44 46  1  0
 46 47  2  0
 46 48  1  0
 43 49  1  0
 42 50  1  0
 24 51  1  0
 24 52  1  0
  3 53  1  0
  3 54  1  0
  2 55  1  6
  1 56  1  0
  1 57  1  0
  1 58  1  0
 23  2  1  0
 35 27  2  0
 47 41  1  0
 14  5  1  0
 47 23  1  0
 14  9  1  0
M  END
>  <cnnaffinities>  (35) 
[6.73895, 6.65016]

>  <score>  (35) 
6.73895

>  <index>  (35) 
34

>  <Smiles>  (35) 
C([C@]1(C(N(c2c(nc(c3c(c(c(c(c23)[H])[H])[H])[H])[H])[H])C(=O)[C@]21C(N(C(c1c(nn(C([H])([H])[H])n1)[H])([H])[H])C(=O)c1c(c(c(F)c(c21)[H])[H])[H])([H])[H])([H])[H])[H])([H])([H])[H]

>  <h>  (35) 
<NA>

>  <Training>  (35) 
True

>  <Success>  (35) 
True

>  <enamine_searched>  (35) 
False

>  <enamine_id>  (35) 
nan

$$$$

     RDKit          3D

 51 54  0  0  0  0  0  0  0  0999 V2000
   13.5496    0.2207   22.3367 N   0  0  0  0  0  0  0  0  0  0  0  0
   13.0766   -0.6106   22.9835 C   0  0  0  0  0  0  0  0  0  0  0  0
   12.4761   -1.7014   23.7759 C   0  0  0  0  0  0  0  0  0  0  0  0
   11.0511   -1.9941   23.3407 C   0  0  0  0  0  0  0  0  0  0  0  0
    9.9664   -1.3067   23.8754 C   0  0  0  0  0  0  0  0  0  0  0  0
    8.6767   -1.5446   23.4122 C   0  0  0  0  0  0  0  0  0  0  0  0
    8.4598   -2.4914   22.4077 C   0  0  0  0  0  0  0  0  0  0  0  0
    7.1441   -2.7675   21.9251 N   0  0  0  0  0  0  0  0  0  0  0  0
    6.5582   -4.0620   22.2663 C   0  0  0  0  0  0  0  0  0  0  0  0
    6.0482   -4.1421   23.6971 C   0  0  0  0  0  0  0  0  0  0  0  0
    4.7013   -3.9232   23.9888 C   0  0  0  0  0  0  0  0  0  0  0  0
    4.2502   -3.9406   25.3057 C   0  0  0  0  0  0  0  0  0  0  0  0
    5.1372   -4.1789   26.3495 C   0  0  0  0  0  0  0  0  0  0  0  0
    6.4724   -4.4145   26.0496 C   0  0  0  0  0  0  0  0  0  0  0  0
    7.5947   -4.7006   27.3489 Cl  0  0  0  0  0  0  0  0  0  0  0  0
    6.9368   -4.4030   24.7405 C   0  0  0  0  0  0  0  0  0  0  0  0
    7.9933   -4.5743   24.5455 H   0  0  0  0  0  0  0  0  0  0  0  0
    4.8163   -4.1755   27.3872 H   0  0  0  0  0  0  0  0  0  0  0  0
    3.2019   -3.7531   25.5236 H   0  0  0  0  0  0  0  0  0  0  0  0
    4.0127   -3.7221   23.1727 H   0  0  0  0  0  0  0  0  0  0  0  0
    5.7420   -4.2344   21.5596 H   0  0  0  0  0  0  0  0  0  0  0  0
    7.3445   -4.8078   22.1137 H   0  0  0  0  0  0  0  0  0  0  0  0
    6.2807   -1.8072   21.4369 C   0  0  0  0  0  0  0  0  0  0  0  0
    5.0745   -2.0025   21.4012 O   0  0  0  0  0  0  0  0  0  0  0  0
    6.9198   -0.5299   20.8821 C   0  0  0  0  0  0  0  0  0  0  0  0
    6.1193    0.0814   19.7619 C   0  0  0  0  0  0  0  0  0  0  0  0
    6.4273   -0.2191   18.4608 C   0  0  0  0  0  0  0  0  0  0  0  0
    5.7624    0.2333   17.3654 N   0  0  0  0  0  0  0  0  0  0  0  0
    4.7374    1.0224   17.5798 C   0  0  0  0  0  0  0  0  0  0  0  0
    4.2893    1.4120   18.8709 C   0  0  0  0  0  0  0  0  0  0  0  0
    3.1704    2.2666   19.0430 C   0  0  0  0  0  0  0  0  0  0  0  0
    2.7516    2.6178   20.2982 C   0  0  0  0  0  0  0  0  0  0  0  0
    3.4365    2.1259   21.4313 C   0  0  0  0  0  0  0  0  0  0  0  0
    4.5234    1.2972   21.2888 C   0  0  0  0  0  0  0  0  0  0  0  0
    4.9874    0.9224   19.9990 C   0  0  0  0  0  0  0  0  0  0  0  0
    5.0301    0.9081   22.1655 H   0  0  0  0  0  0  0  0  0  0  0  0
    3.1010    2.4144   22.4236 H   0  0  0  0  0  0  0  0  0  0  0  0
    1.8968    3.2771   20.4246 H   0  0  0  0  0  0  0  0  0  0  0  0
    2.6676    2.6364   18.1526 H   0  0  0  0  0  0  0  0  0  0  0  0
    4.2086    1.3911   16.6998 H   0  0  0  0  0  0  0  0  0  0  0  0
    7.2733   -0.8684   18.2347 H   0  0  0  0  0  0  0  0  0  0  0  0
    7.0529    0.1835   21.7059 H   0  0  0  0  0  0  0  0  0  0  0  0
    7.9342   -0.7868   20.5517 H   0  0  0  0  0  0  0  0  0  0  0  0
    9.5378   -3.2086   21.8931 C   0  0  0  0  0  0  0  0  0  0  0  0
   10.8264   -2.9193   22.3293 C   0  0  0  0  0  0  0  0  0  0  0  0
   11.7080   -3.3562   21.8797 H   0  0  0  0  0  0  0  0  0  0  0  0
    9.3382   -3.9714   21.1445 H   0  0  0  0  0  0  0  0  0  0  0  0
    7.8265   -1.0150   23.8403 H   0  0  0  0  0  0  0  0  0  0  0  0
   10.1481   -0.5575   24.6406 H   0  0  0  0  0  0  0  0  0  0  0  0
   13.1059   -2.5900   23.6520 H   0  0  0  0  0  0  0  0  0  0  0  0
   12.5233   -1.4303   24.8353 H   0  0  0  0  0  0  0  0  0  0  0  0
  1  2  3  0
  2  3  1  0
  3  4  1  0
  4  5  2  0
  5  6  1  0
  6  7  2  0
  7  8  1  0
  8  9  1  0
  9 10  1  0
 10 11  2  0
 11 12  1  0
 12 13  2  0
 13 14  1  0
 14 15  1  0
 14 16  2  0
 16 17  1  0
 13 18  1  0
 12 19  1  0
 11 20  1  0
  9 21  1  0
  9 22  1  0
  8 23  1  0
 23 24  2  0
 23 25  1  0
 25 26  1  0
 26 27  2  0
 27 28  1  0
 28 29  2  0
 29 30  1  0
 30 31  2  0
 31 32  1  0
 32 33  2  0
 33 34  1  0
 34 35  2  0
 34 36  1  0
 33 37  1  0
 32 38  1  0
 31 39  1  0
 29 40  1  0
 27 41  1  0
 25 42  1  0
 25 43  1  0
  7 44  1  0
 44 45  2  0
 45 46  1  0
 44 47  1  0
  6 48  1  0
  5 49  1  0
  3 50  1  0
  3 51  1  0
 45  4  1  0
 16 10  1  0
 35 26  1  0
 35 30  1  0
M  END
>  <cnnaffinities>  (36) 
[6.95039, 6.54024]

>  <score>  (36) 
6.95039

>  <index>  (36) 
35

>  <Smiles>  (36) 
N#CC(c1c(c(c(N(C(c2c(c(c(c(Cl)c2[H])[H])[H])[H])([H])[H])C(=O)C(c2c(nc(c3c(c(c(c(c23)[H])[H])[H])[H])[H])[H])([H])[H])c(c1[H])[H])[H])[H])([H])[H]

>  <h>  (36) 
<NA>

>  <Training>  (36) 
True

>  <Success>  (36) 
True

>  <enamine_searched>  (36) 
False

>  <enamine_id>  (36) 
nan

$$$$

     RDKit          3D

 59 64  0  0  0  0  0  0  0  0999 V2000
    6.5787   -2.0058   23.7855 C   0  0  0  0  0  0  0  0  0  0  0  0
    7.5787   -1.7769   22.6424 C   0  0  1  0  0  0  0  0  0  0  0  0
    6.8560   -1.7802   21.2774 C   0  0  0  0  0  0  0  0  0  0  0  0
    6.8728   -0.4010   20.8622 N   0  0  0  0  0  0  0  0  0  0  0  0
    6.1238    0.1047   19.7731 C   0  0  0  0  0  0  0  0  0  0  0  0
    6.4377   -0.2348   18.4791 C   0  0  0  0  0  0  0  0  0  0  0  0
    5.7758    0.2202   17.3870 N   0  0  0  0  0  0  0  0  0  0  0  0
    4.7598    1.0275   17.5931 C   0  0  0  0  0  0  0  0  0  0  0  0
    4.3175    1.4449   18.8836 C   0  0  0  0  0  0  0  0  0  0  0  0
    3.1936    2.2982   19.0587 C   0  0  0  0  0  0  0  0  0  0  0  0
    2.7706    2.6445   20.3154 C   0  0  0  0  0  0  0  0  0  0  0  0
    3.4513    2.1615   21.4533 C   0  0  0  0  0  0  0  0  0  0  0  0
    4.5457    1.3429   21.3110 C   0  0  0  0  0  0  0  0  0  0  0  0
    5.0108    0.9673   20.0169 C   0  0  0  0  0  0  0  0  0  0  0  0
    5.0635    0.9722   22.1906 H   0  0  0  0  0  0  0  0  0  0  0  0
    3.1186    2.4518   22.4481 H   0  0  0  0  0  0  0  0  0  0  0  0
    1.9088    3.2957   20.4418 H   0  0  0  0  0  0  0  0  0  0  0  0
    2.6727    2.6578   18.1777 H   0  0  0  0  0  0  0  0  0  0  0  0
    4.2208    1.3825   16.7143 H   0  0  0  0  0  0  0  0  0  0  0  0
    7.2872   -0.8897   18.2824 H   0  0  0  0  0  0  0  0  0  0  0  0
    7.7917    0.3781   21.5233 C   0  0  0  0  0  0  0  0  0  0  0  0
    8.0847    1.5021   21.1864 O   0  0  0  0  0  0  0  0  0  0  0  0
    8.3852   -0.4393   22.6942 C   0  0  1  0  0  0  0  0  0  0  0  0
    8.2287    0.2824   24.0541 C   0  0  0  0  0  0  0  0  0  0  0  0
    9.0705    1.4571   24.1796 N   0  0  0  0  0  0  0  0  0  0  0  0
    8.5040    2.7134   24.6408 C   0  0  0  0  0  0  0  0  0  0  0  0
    8.0744    3.6409   23.5376 C   0  0  0  0  0  0  0  0  0  0  0  0
    8.8809    4.6066   22.8947 C   0  0  0  0  0  0  0  0  0  0  0  0
    8.0280    5.2310   22.0151 C   0  0  0  0  0  0  0  0  0  0  0  0
    6.8311    4.6153   22.1207 N   0  0  0  0  0  0  0  0  0  0  0  0
    5.6890    4.7808   21.2451 C   0  0  0  0  0  0  0  0  0  0  0  0
    4.7747    4.8491   21.8398 H   0  0  0  0  0  0  0  0  0  0  0  0
    5.8155    5.6978   20.6640 H   0  0  0  0  0  0  0  0  0  0  0  0
    5.6110    3.9283   20.5606 H   0  0  0  0  0  0  0  0  0  0  0  0
    6.8344    3.6430   23.0548 N   0  0  0  0  0  0  0  0  0  0  0  0
    8.1782    6.0565   21.3212 H   0  0  0  0  0  0  0  0  0  0  0  0
    9.9538    4.7337   22.9907 H   0  0  0  0  0  0  0  0  0  0  0  0
    9.2716    3.1911   25.2566 H   0  0  0  0  0  0  0  0  0  0  0  0
    7.6422    2.4875   25.2682 H   0  0  0  0  0  0  0  0  0  0  0  0
   10.3787    1.4608   23.7962 C   0  0  0  0  0  0  0  0  0  0  0  0
   11.1508    2.3709   24.0916 O   0  0  0  0  0  0  0  0  0  0  0  0
   10.8060    0.3209   22.9375 C   0  0  0  0  0  0  0  0  0  0  0  0
   12.1488    0.2931   22.5624 C   0  0  0  0  0  0  0  0  0  0  0  0
   12.5833   -0.6407   21.6429 C   0  0  0  0  0  0  0  0  0  0  0  0
   11.6803   -1.5970   21.1918 C   0  0  0  0  0  0  0  0  0  0  0  0
   12.1411   -2.5859   20.4052 F   0  0  0  0  0  0  0  0  0  0  0  0
   10.3412   -1.5715   21.5352 C   0  0  0  0  0  0  0  0  0  0  0  0
    9.8817   -0.6021   22.4344 C   0  0  0  0  0  0  0  0  0  0  0  0
    9.6788   -2.3003   21.0813 H   0  0  0  0  0  0  0  0  0  0  0  0
   13.5882   -0.6544   21.2420 H   0  0  0  0  0  0  0  0  0  0  0  0
   12.8082    1.0193   23.0305 H   0  0  0  0  0  0  0  0  0  0  0  0
    7.1948    0.6040   24.2011 H   0  0  0  0  0  0  0  0  0  0  0  0
    8.4941   -0.4356   24.8410 H   0  0  0  0  0  0  0  0  0  0  0  0
    7.3690   -2.4178   20.5521 H   0  0  0  0  0  0  0  0  0  0  0  0
    5.8224   -2.1336   21.3535 H   0  0  0  0  0  0  0  0  0  0  0  0
    8.2958   -2.6003   22.6992 H   0  0  0  0  0  0  0  0  0  0  0  0
    6.0642   -2.9626   23.6534 H   0  0  0  0  0  0  0  0  0  0  0  0
    5.8143   -1.2217   23.8212 H   0  0  0  0  0  0  0  0  0  0  0  0
    7.0737   -2.0460   24.7597 H   0  0  0  0  0  0  0  0  0  0  0  0
  1  2  1  0
  2  3  1  0
  3  4  1  0
  4  5  1  0
  5  6  2  0
  6  7  1  0
  7  8  2  0
  8  9  1  0
  9 10  2  0
 10 11  1  0
 11 12  2  0
 12 13  1  0
 13 14  2  0
 13 15  1  0
 12 16  1  0
 11 17  1  0
 10 18  1  0
  8 19  1  0
  6 20  1  0
  4 21  1  0
 21 22  2  0
 21 23  1  0
 23 24  1  1
 24 25  1  0
 25 26  1  0
 26 27  1  0
 27 28  1  0
 28 29  2  0
 29 30  1  0
 30 31  1  0
 31 32  1  0
 31 33  1  0
 31 34  1  0
 30 35  1  0
 29 36  1  0
 28 37  1  0
 26 38  1  0
 26 39  1  0
 25 40  1  0
 40 41  2  0
 40 42  1  0
 42 43  2  0
 43 44  1  0
 44 45  2  0
 45 46  1  0
 45 47  1  0
 47 48  2  0
 47 49  1  0
 44 50  1  0
 43 51  1  0
 24 52  1  0
 24 53  1  0
  3 54  1  0
  3 55  1  0
  2 56  1  6
  1 57  1  0
  1 58  1  0
  1 59  1  0
 23  2  1  0
 35 27  2  0
 48 42  1  0
 14  5  1  0
 48 23  1  0
 14  9  1  0
M  END
>  <cnnaffinities>  (37) 
[6.56646, 6.68016]

>  <score>  (37) 
6.56646

>  <index>  (37) 
36

>  <Smiles>  (37) 
C([C@]1(C(N(c2c(nc(c3c(c(c(c(c23)[H])[H])[H])[H])[H])[H])C(=O)[C@]21C(N(C(c1c(c(n(C([H])([H])[H])n1)[H])[H])([H])[H])C(=O)c1c(c(c(F)c(c21)[H])[H])[H])([H])[H])([H])[H])[H])([H])([H])[H]

>  <h>  (37) 
<NA>

>  <Training>  (37) 
True

>  <Success>  (37) 
True

>  <enamine_searched>  (37) 
False

>  <enamine_id>  (37) 
nan

$$$$

     RDKit          3D

 48 51  0  0  0  0  0  0  0  0999 V2000
   13.4244   -1.3672   24.3326 N   0  0  0  0  0  0  0  0  0  0  0  0
   12.3611   -1.6091   23.9412 C   0  0  0  0  0  0  0  0  0  0  0  0
   11.0235   -1.8925   23.4707 C   0  0  0  0  0  0  0  0  0  0  0  0
    9.9267   -1.1776   23.9583 C   0  0  0  0  0  0  0  0  0  0  0  0
    8.6470   -1.4549   23.4942 C   0  0  0  0  0  0  0  0  0  0  0  0
    8.4332   -2.4462   22.5313 C   0  0  0  0  0  0  0  0  0  0  0  0
    7.1232   -2.7421   22.0379 N   0  0  0  0  0  0  0  0  0  0  0  0
    6.5276   -4.0359   22.4243 C   0  0  0  0  0  0  0  0  0  0  0  0
    5.9680   -4.0416   23.8361 C   0  0  0  0  0  0  0  0  0  0  0  0
    6.8155   -4.2323   24.9281 C   0  0  0  0  0  0  0  0  0  0  0  0
    6.3153   -4.1593   26.2220 C   0  0  0  0  0  0  0  0  0  0  0  0
    4.9698   -3.8989   26.4459 C   0  0  0  0  0  0  0  0  0  0  0  0
    4.1352   -3.7073   25.3546 C   0  0  0  0  0  0  0  0  0  0  0  0
    2.4517   -3.3747   25.6243 Cl  0  0  0  0  0  0  0  0  0  0  0  0
    4.6165   -3.7777   24.0547 C   0  0  0  0  0  0  0  0  0  0  0  0
    3.9505   -3.6081   23.2141 H   0  0  0  0  0  0  0  0  0  0  0  0
    4.5773   -3.8442   27.4553 H   0  0  0  0  0  0  0  0  0  0  0  0
    6.9815   -4.3072   27.0653 H   0  0  0  0  0  0  0  0  0  0  0  0
    7.8767   -4.4209   24.7675 H   0  0  0  0  0  0  0  0  0  0  0  0
    7.3038   -4.8051   22.3451 H   0  0  0  0  0  0  0  0  0  0  0  0
    5.7504   -4.2983   21.7032 H   0  0  0  0  0  0  0  0  0  0  0  0
    6.2920   -1.7731   21.4883 C   0  0  0  0  0  0  0  0  0  0  0  0
    5.0885   -1.9345   21.4117 O   0  0  0  0  0  0  0  0  0  0  0  0
    6.9392   -0.5065   20.8857 C   0  0  0  0  0  0  0  0  0  0  0  0
    6.1182    0.0924   19.7659 C   0  0  0  0  0  0  0  0  0  0  0  0
    6.4207   -0.2110   18.4645 C   0  0  0  0  0  0  0  0  0  0  0  0
    5.7579    0.2371   17.3632 N   0  0  0  0  0  0  0  0  0  0  0  0
    4.7345    1.0299   17.5757 C   0  0  0  0  0  0  0  0  0  0  0  0
    4.2850    1.4234   18.8670 C   0  0  0  0  0  0  0  0  0  0  0  0
    3.1622    2.2764   19.0420 C   0  0  0  0  0  0  0  0  0  0  0  0
    2.7455    2.6237   20.2979 C   0  0  0  0  0  0  0  0  0  0  0  0
    3.4317    2.1333   21.4297 C   0  0  0  0  0  0  0  0  0  0  0  0
    4.5228    1.3124   21.2877 C   0  0  0  0  0  0  0  0  0  0  0  0
    4.9860    0.9353   19.9990 C   0  0  0  0  0  0  0  0  0  0  0  0
    5.0265    0.9279   22.1688 H   0  0  0  0  0  0  0  0  0  0  0  0
    3.0913    2.4122   22.4219 H   0  0  0  0  0  0  0  0  0  0  0  0
    1.8878    3.2765   20.4336 H   0  0  0  0  0  0  0  0  0  0  0  0
    2.6404    2.6468   18.1614 H   0  0  0  0  0  0  0  0  0  0  0  0
    4.1972    1.3999   16.6998 H   0  0  0  0  0  0  0  0  0  0  0  0
    7.2640   -0.8658   18.2483 H   0  0  0  0  0  0  0  0  0  0  0  0
    7.9423   -0.7515   20.5189 H   0  0  0  0  0  0  0  0  0  0  0  0
    7.0822    0.2329   21.6827 H   0  0  0  0  0  0  0  0  0  0  0  0
    9.5257   -3.1766   22.0682 C   0  0  0  0  0  0  0  0  0  0  0  0
   10.8067   -2.8918   22.5201 C   0  0  0  0  0  0  0  0  0  0  0  0
   11.6639   -3.4347   22.1500 H   0  0  0  0  0  0  0  0  0  0  0  0
    9.3778   -3.9551   21.3274 H   0  0  0  0  0  0  0  0  0  0  0  0
    7.8047   -0.9021   23.8972 H   0  0  0  0  0  0  0  0  0  0  0  0
   10.0843   -0.3995   24.6975 H   0  0  0  0  0  0  0  0  0  0  0  0
  1  2  3  0
  2  3  1  0
  3  4  2  0
  4  5  1  0
  5  6  2  0
  6  7  1  0
  7  8  1  0
  8  9  1  0
  9 10  2  0
 10 11  1  0
 11 12  2  0
 12 13  1  0
 13 14  1  0
 13 15  2  0
 15 16  1  0
 12 17  1  0
 11 18  1  0
 10 19  1  0
  8 20  1  0
  8 21  1  0
  7 22  1  0
 22 23  2  0
 22 24  1  0
 24 25  1  0
 25 26  2  0
 26 27  1  0
 27 28  2  0
 28 29  1  0
 29 30  2  0
 30 31  1  0
 31 32  2  0
 32 33  1  0
 33 34  2  0
 33 35  1  0
 32 36  1  0
 31 37  1  0
 30 38  1  0
 28 39  1  0
 26 40  1  0
 24 41  1  0
 24 42  1  0
  6 43  1  0
 43 44  2  0
 44 45  1  0
 43 46  1  0
  5 47  1  0
  4 48  1  0
 44  3  1  0
 15  9  1  0
 34 25  1  0
 34 29  1  0
M  END
>  <cnnaffinities>  (38) 
[6.52643]

>  <score>  (38) 
6.52643

>  <index>  (38) 
37

>  <Smiles>  (38) 
N#Cc1c(c(c(N(C(c2c(c(c(c(Cl)c2[H])[H])[H])[H])([H])[H])C(=O)C(c2c(nc(c3c(c(c(c(c23)[H])[H])[H])[H])[H])[H])([H])[H])c(c1[H])[H])[H])[H]

>  <h>  (38) 
<NA>

>  <Training>  (38) 
True

>  <Success>  (38) 
True

>  <enamine_searched>  (38) 
False

>  <enamine_id>  (38) 
nan

$$$$

     RDKit          3D

 72 77  0  0  0  0  0  0  0  0999 V2000
    5.0836   -7.2332   21.1276 C   0  0  0  0  0  0  0  0  0  0  0  0
    4.2282   -6.5748   22.1404 N   0  0  0  0  0  4  0  0  0  0  0  0
    4.6464   -5.1696   22.4487 C   0  0  0  0  0  0  0  0  0  0  0  0
    5.8683   -5.1047   23.3744 C   0  0  0  0  0  0  0  0  0  0  0  0
    6.1959   -3.7229   23.6819 N   0  0  0  0  0  0  0  0  0  0  0  0
    7.3466   -3.1042   23.0398 C   0  0  0  0  0  0  0  0  0  0  0  0
    7.1696   -1.5828   22.7738 C   0  0  2  0  0  0  0  0  0  0  0  0
    6.2640   -1.4230   21.5319 C   0  0  0  0  0  0  0  0  0  0  0  0
    5.2279   -2.0162   21.3033 O   0  0  0  0  0  0  0  0  0  0  0  0
    6.8281   -0.5013   20.6836 N   0  0  0  0  0  0  0  0  0  0  0  0
    6.0736    0.0705   19.6319 C   0  0  0  0  0  0  0  0  0  0  0  0
    6.4278   -0.1679   18.3310 C   0  0  0  0  0  0  0  0  0  0  0  0
    5.7525    0.3100   17.2578 N   0  0  0  0  0  0  0  0  0  0  0  0
    4.7094    1.0695   17.4957 C   0  0  0  0  0  0  0  0  0  0  0  0
    4.2634    1.4283   18.8007 C   0  0  0  0  0  0  0  0  0  0  0  0
    3.1531    2.2903   19.0001 C   0  0  0  0  0  0  0  0  0  0  0  0
    2.7738    2.6477   20.2640 C   0  0  0  0  0  0  0  0  0  0  0  0
    3.4806    2.1584   21.3875 C   0  0  0  0  0  0  0  0  0  0  0  0
    4.5511    1.3154   21.2266 C   0  0  0  0  0  0  0  0  0  0  0  0
    4.9633    0.9233   19.9155 C   0  0  0  0  0  0  0  0  0  0  0  0
    5.0902    0.9507   22.1022 H   0  0  0  0  0  0  0  0  0  0  0  0
    3.1716    2.4597   22.3843 H   0  0  0  0  0  0  0  0  0  0  0  0
    1.9324    3.3189   20.4150 H   0  0  0  0  0  0  0  0  0  0  0  0
    2.6285    2.6686   18.1262 H   0  0  0  0  0  0  0  0  0  0  0  0
    4.1637    1.4508   16.6317 H   0  0  0  0  0  0  0  0  0  0  0  0
    7.2895   -0.7969   18.1131 H   0  0  0  0  0  0  0  0  0  0  0  0
    8.0287    0.1214   21.1947 C   0  0  0  0  0  0  0  0  0  0  0  0
    8.4758   -0.8151   22.3293 C   0  0  2  0  0  0  0  0  0  0  0  0
    9.6781   -1.6605   21.8756 C   0  0  0  0  0  0  0  0  0  0  0  0
   10.3029   -2.1656   23.0139 O   0  0  0  0  0  0  0  0  0  0  0  0
   11.6811   -1.9779   23.2238 C   0  0  0  0  0  0  0  0  0  0  0  0
   11.7967   -2.4991   24.6000 C   0  0  0  0  0  0  0  0  0  0  0  0
   12.8528   -1.7949   25.4553 C   0  0  0  0  0  0  0  0  0  0  0  0
   14.6879   -2.4285   25.3533 S   0  0  0  0  0  0  0  0  0  0  0  0
   14.7559   -3.2136   26.6017 O   0  0  0  0  0  0  0  0  0  0  0  0
   14.3442   -3.4551   24.1310 O   0  0  0  0  0  0  0  0  0  0  0  0
   11.9222   -2.7271   24.5688 C   0  0  0  0  0  0  0  0  0  0  0  0
   11.9119   -4.0399   24.5319 H   0  0  0  0  0  0  0  0  0  0  0  0
   13.3196   -3.5022   24.1037 H   0  0  0  0  0  0  0  0  0  0  0  0
   12.8261   -0.6748   25.4623 H   0  0  0  0  0  0  0  0  0  0  0  0
   12.8337   -2.1122   26.5005 H   0  0  0  0  0  0  0  0  0  0  0  0
   10.7110   -2.5980   25.1222 H   0  0  0  0  0  0  0  0  0  0  0  0
   12.2981   -2.6233   22.6025 H   0  0  0  0  0  0  0  0  0  0  0  0
   11.9566   -0.8920   23.1318 H   0  0  0  0  0  0  0  0  0  0  0  0
    9.3642   -2.4925   21.2309 H   0  0  0  0  0  0  0  0  0  0  0  0
   10.3838   -1.0465   21.2957 H   0  0  0  0  0  0  0  0  0  0  0  0
    8.8454   -0.2482   23.1900 H   0  0  0  0  0  0  0  0  0  0  0  0
    7.8337    1.1461   21.5489 H   0  0  0  0  0  0  0  0  0  0  0  0
    8.7776    0.2054   20.4049 H   0  0  0  0  0  0  0  0  0  0  0  0
    6.5386   -0.9362   24.0136 C   0  0  0  0  0  0  0  0  0  0  0  0
    6.6858    0.4335   24.2818 C   0  0  0  0  0  0  0  0  0  0  0  0
    6.1613    0.9861   25.4408 C   0  0  0  0  0  0  0  0  0  0  0  0
    6.4170    2.6778   25.7714 Cl  0  0  0  0  0  0  0  0  0  0  0  0
    5.4471    0.2211   26.3585 C   0  0  0  0  0  0  0  0  0  0  0  0
    5.2436   -1.1124   26.0720 C   0  0  0  0  0  0  0  0  0  0  0  0
    5.7712   -1.6832   24.9140 C   0  0  0  0  0  0  0  0  0  0  0  0
    5.4735   -3.1257   24.6679 C   0  0  0  0  0  0  0  0  0  0  0  0
    4.6141   -3.7276   25.3058 O   0  0  0  0  0  0  0  0  0  0  0  0
    4.6731   -1.7515   26.7370 H   0  0  0  0  0  0  0  0  0  0  0  0
    5.0620    0.6746   27.2654 H   0  0  0  0  0  0  0  0  0  0  0  0
    7.2193    1.0952   23.6063 H   0  0  0  0  0  0  0  0  0  0  0  0
    7.4932   -3.6042   22.0810 H   0  0  0  0  0  0  0  0  0  0  0  0
    8.2423   -3.2633   23.6504 H   0  0  0  0  0  0  0  0  0  0  0  0
    6.7542   -5.5735   22.9246 H   0  0  0  0  0  0  0  0  0  0  0  0
    5.6554   -5.6116   24.3230 H   0  0  0  0  0  0  0  0  0  0  0  0
    3.8073   -4.6667   22.9206 H   0  0  0  0  0  0  0  0  0  0  0  0
    4.8704   -4.6482   21.5169 H   0  0  0  0  0  0  0  0  0  0  0  0
    3.2402   -6.6044   21.8192 H   0  0  0  0  0  0  0  0  0  0  0  0
    4.3070   -7.1240   23.0308 H   0  0  0  0  0  0  0  0  0  0  0  0
    4.5753   -8.1032   20.7187 H   0  0  0  0  0  0  0  0  0  0  0  0
    5.3062   -6.5370   20.3180 H   0  0  0  0  0  0  0  0  0  0  0  0
    6.0310   -7.5552   21.5610 H   0  0  0  0  0  0  0  0  0  0  0  0
  1  2  1  0
  2  3  1  0
  3  4  1  0
  4  5  1  0
  5  6  1  0
  7  6  1  1
  7  8  1  0
  8  9  2  0
  8 10  1  0
 10 11  1  0
 11 12  2  0
 12 13  1  0
 13 14  2  0
 14 15  1  0
 15 16  2  0
 16 17  1  0
 17 18  2  0
 18 19  1  0
 19 20  2  0
 19 21  1  0
 18 22  1  0
 17 23  1  0
 16 24  1  0
 14 25  1  0
 12 26  1  0
 10 27  1  0
 27 28  1  0
 28 29  1  0
 29 30  1  0
 30 31  1  0
 31 32  1  0
 32 33  1  0
 33 34  1  0
 34 35  2  0
 34 36  2  0
 34 37  1  0
 37 38  1  0
 37 39  1  0
 33 40  1  0
 33 41  1  0
 32 42  1  0
 31 43  1  0
 31 44  1  0
 29 45  1  0
 29 46  1  0
 28 47  1  1
 27 48  1  0
 27 49  1  0
  7 50  1  0
 50 51  2  0
 51 52  1  0
 52 53  1  0
 52 54  2  0
 54 55  1  0
 55 56  2  0
 56 57  1  0
 57 58  2  0
 55 59  1  0
 54 60  1  0
 51 61  1  0
  6 62  1  0
  6 63  1  0
  4 64  1  0
  4 65  1  0
  3 66  1  0
  3 67  1  0
  2 68  1  0
  2 69  1  0
  1 70  1  0
  1 71  1  0
  1 72  1  0
 57  5  1  0
 28  7  1  0
 37 32  1  0
 56 50  1  0
 20 11  1  0
 20 15  1  0
M  CHG  1   2   1
M  END
>  <cnnaffinities>  (39) 
[6.95591]

>  <score>  (39) 
6.95591

>  <index>  (39) 
38

>  <Smiles>  (39) 
C([N+](C(C(N1C([C@@]2(C(=O)N(c3c(nc(c4c(c(c(c(c34)[H])[H])[H])[H])[H])[H])C([C@@]2(C(OC(C2(C(S(=O)(=O)C2([H])[H])([H])[H])[H])([H])[H])([H])[H])[H])([H])[H])c2c(c(Cl)c(c(c2C1=O)[H])[H])[H])([H])[H])([H])[H])([H])[H])([H])[H])([H])([H])[H]

>  <h>  (39) 
<NA>

>  <Training>  (39) 
True

>  <Success>  (39) 
True

>  <enamine_searched>  (39) 
False

>  <enamine_id>  (39) 
nan

$$$$

     RDKit          3D

 60 64  0  0  0  0  0  0  0  0999 V2000
    8.2834   -4.3172   24.0889 C   0  0  0  0  0  0  0  0  0  0  0  0
    8.1737   -2.8441   24.4709 C   0  0  0  0  0  0  0  0  0  0  0  0
    7.1724   -2.2134   23.6864 O   0  0  0  0  0  0  0  0  0  0  0  0
    7.6789   -1.6915   22.4782 C   0  0  1  0  0  0  0  0  0  0  0  0
    6.5206   -1.5202   21.5032 C   0  0  0  0  0  0  0  0  0  0  0  0
    6.9069   -0.3524   20.7528 N   0  0  0  0  0  0  0  0  0  0  0  0
    6.1256    0.1537   19.6945 C   0  0  0  0  0  0  0  0  0  0  0  0
    6.4480   -0.1732   18.4071 C   0  0  0  0  0  0  0  0  0  0  0  0
    5.7570    0.2464   17.3212 N   0  0  0  0  0  0  0  0  0  0  0  0
    4.7235    1.0247   17.5447 C   0  0  0  0  0  0  0  0  0  0  0  0
    4.2837    1.4364   18.8377 C   0  0  0  0  0  0  0  0  0  0  0  0
    3.1637    2.2879   19.0282 C   0  0  0  0  0  0  0  0  0  0  0  0
    2.7683    2.6456   20.2892 C   0  0  0  0  0  0  0  0  0  0  0  0
    3.4750    2.1826   21.4231 C   0  0  0  0  0  0  0  0  0  0  0  0
    4.5665    1.3634   21.2667 C   0  0  0  0  0  0  0  0  0  0  0  0
    4.9987    0.9783   19.9643 C   0  0  0  0  0  0  0  0  0  0  0  0
    5.1238    1.0405   22.1431 H   0  0  0  0  0  0  0  0  0  0  0  0
    3.1729    2.4952   22.4186 H   0  0  0  0  0  0  0  0  0  0  0  0
    1.9055    3.2906   20.4257 H   0  0  0  0  0  0  0  0  0  0  0  0
    2.6384    2.6466   18.1479 H   0  0  0  0  0  0  0  0  0  0  0  0
    4.1763    1.3750   16.6718 H   0  0  0  0  0  0  0  0  0  0  0  0
    7.3123   -0.8109   18.2349 H   0  0  0  0  0  0  0  0  0  0  0  0
    7.8973    0.4090   21.3200 C   0  0  0  0  0  0  0  0  0  0  0  0
    8.3135    1.4449   20.8420 O   0  0  0  0  0  0  0  0  0  0  0  0
    8.3856   -0.3037   22.5980 C   0  0  1  0  0  0  0  0  0  0  0  0
    7.9495    0.4247   23.8902 C   0  0  0  0  0  0  0  0  0  0  0  0
    8.6876    1.6646   24.0929 N   0  0  0  0  0  0  0  0  0  0  0  0
    7.9655    2.7969   24.6470 C   0  0  0  0  0  0  0  0  0  0  0  0
    6.9760    3.3308   23.6062 C   0  0  0  0  0  0  0  0  0  0  0  0
    5.7775    3.1159   23.7106 O   0  0  0  0  0  0  0  0  0  0  0  0
    7.4969    4.0275   22.5582 N   0  0  0  0  0  0  0  0  0  0  0  0
    6.5906    4.4354   21.4972 C   0  0  0  0  0  0  0  0  0  0  0  0
    6.1677    3.5602   20.9827 H   0  0  0  0  0  0  0  0  0  0  0  0
    7.1211    5.0718   20.7858 H   0  0  0  0  0  0  0  0  0  0  0  0
    5.7754    5.0140   21.9410 H   0  0  0  0  0  0  0  0  0  0  0  0
    8.4507    3.8203   22.2882 H   0  0  0  0  0  0  0  0  0  0  0  0
    7.4053    2.4964   25.5424 H   0  0  0  0  0  0  0  0  0  0  0  0
    8.7002    3.5454   24.9548 H   0  0  0  0  0  0  0  0  0  0  0  0
   10.0612    1.6758   24.0739 C   0  0  0  0  0  0  0  0  0  0  0  0
   10.7242    2.5377   24.6287 O   0  0  0  0  0  0  0  0  0  0  0  0
   10.6834    0.5631   23.2691 C   0  0  0  0  0  0  0  0  0  0  0  0
   12.0752    0.4957   23.1872 C   0  0  0  0  0  0  0  0  0  0  0  0
   12.6938   -0.3488   22.2831 C   0  0  0  0  0  0  0  0  0  0  0  0
   11.8942   -1.1522   21.4679 C   0  0  0  0  0  0  0  0  0  0  0  0
   12.5918   -2.0887   20.1747 Cl  0  0  0  0  0  0  0  0  0  0  0  0
   10.5219   -1.1820   21.6176 C   0  0  0  0  0  0  0  0  0  0  0  0
    9.8959   -0.3412   22.5452 C   0  0  0  0  0  0  0  0  0  0  0  0
    9.9601   -1.8444   20.9685 H   0  0  0  0  0  0  0  0  0  0  0  0
   13.7752   -0.3586   22.1790 H   0  0  0  0  0  0  0  0  0  0  0  0
   12.6555    1.1543   23.8220 H   0  0  0  0  0  0  0  0  0  0  0  0
    8.0997   -0.2497   24.7441 H   0  0  0  0  0  0  0  0  0  0  0  0
    6.8800    0.6422   23.8401 H   0  0  0  0  0  0  0  0  0  0  0  0
    6.3994   -2.3844   20.8393 H   0  0  0  0  0  0  0  0  0  0  0  0
    5.5826   -1.3796   22.0550 H   0  0  0  0  0  0  0  0  0  0  0  0
    8.3884   -2.4034   22.0381 H   0  0  0  0  0  0  0  0  0  0  0  0
    7.8662   -2.7113   25.5196 H   0  0  0  0  0  0  0  0  0  0  0  0
    9.1507   -2.3420   24.3241 H   0  0  0  0  0  0  0  0  0  0  0  0
    8.2282   -4.4331   22.9996 H   0  0  0  0  0  0  0  0  0  0  0  0
    9.2476   -4.7059   24.4197 H   0  0  0  0  0  0  0  0  0  0  0  0
    7.4680   -4.9053   24.5209 H   0  0  0  0  0  0  0  0  0  0  0  0
  1  2  1  0
  2  3  1  0
  3  4  1  0
  4  5  1  0
  5  6  1  0
  6  7  1  0
  7  8  2  0
  8  9  1  0
  9 10  2  0
 10 11  1  0
 11 12  2  0
 12 13  1  0
 13 14  2  0
 14 15  1  0
 15 16  2  0
 15 17  1  0
 14 18  1  0
 13 19  1  0
 12 20  1  0
 10 21  1  0
  8 22  1  0
  6 23  1  0
 23 24  2  0
 23 25  1  0
 25 26  1  1
 26 27  1  0
 27 28  1  0
 28 29  1  0
 29 30  2  0
 29 31  1  0
 31 32  1  0
 32 33  1  0
 32 34  1  0
 32 35  1  0
 31 36  1  0
 28 37  1  0
 28 38  1  0
 27 39  1  0
 39 40  2  0
 39 41  1  0
 41 42  2  0
 42 43  1  0
 43 44  2  0
 44 45  1  0
 44 46  1  0
 46 47  2  0
 46 48  1  0
 43 49  1  0
 42 50  1  0
 26 51  1  0
 26 52  1  0
  5 53  1  0
  5 54  1  0
  4 55  1  6
  2 56  1  0
  2 57  1  0
  1 58  1  0
  1 59  1  0
  1 60  1  0
 25  4  1  0
 47 41  1  0
 16  7  1  0
 47 25  1  0
 16 11  1  0
M  END
>  <cnnaffinities>  (40) 
[6.65787]

>  <score>  (40) 
6.65787

>  <index>  (40) 
39

>  <Smiles>  (40) 
C(C(O[C@]1(C(N(c2c(nc(c3c(c(c(c(c23)[H])[H])[H])[H])[H])[H])C(=O)[C@]21C(N(C(C(=O)N(C([H])([H])[H])[H])([H])[H])C(=O)c1c(c(c(Cl)c(c21)[H])[H])[H])([H])[H])([H])[H])[H])([H])[H])([H])([H])[H]

>  <h>  (40) 
<NA>

>  <Training>  (40) 
True

>  <Success>  (40) 
True

>  <enamine_searched>  (40) 
False

>  <enamine_id>  (40) 
nan

$$$$

     RDKit          3D

 57 61  0  0  0  0  0  0  0  0999 V2000
    6.3064    4.6942   22.5145 C   0  0  0  0  0  0  0  0  0  0  0  0
    7.2156    4.1219   23.4888 N   0  0  0  0  0  0  0  0  0  0  0  0
    6.8236    3.0534   24.2242 C   0  0  0  0  0  0  0  0  0  0  0  0
    5.6779    2.6334   24.2168 O   0  0  0  0  0  0  0  0  0  0  0  0
    7.9002    2.3961   25.0873 C   0  0  0  0  0  0  0  0  0  0  0  0
    8.7276    1.4723   24.3401 N   0  0  0  0  0  0  0  0  0  0  0  0
    8.2315    0.1288   24.1042 C   0  0  0  0  0  0  0  0  0  0  0  0
    8.4793   -0.3334   22.6535 C   0  0  2  0  0  0  0  0  0  0  0  0
    7.6407    0.4995   21.6623 C   0  0  0  0  0  0  0  0  0  0  0  0
    7.6215    1.7102   21.5668 O   0  0  0  0  0  0  0  0  0  0  0  0
    6.9056   -0.3535   20.8677 N   0  0  0  0  0  0  0  0  0  0  0  0
    6.1320    0.1080   19.7784 C   0  0  0  0  0  0  0  0  0  0  0  0
    6.4422   -0.2347   18.4837 C   0  0  0  0  0  0  0  0  0  0  0  0
    5.7749    0.2158   17.3926 N   0  0  0  0  0  0  0  0  0  0  0  0
    4.7536    1.0130   17.5984 C   0  0  0  0  0  0  0  0  0  0  0  0
    4.3023    1.4144   18.8887 C   0  0  0  0  0  0  0  0  0  0  0  0
    3.1798    2.2706   19.0583 C   0  0  0  0  0  0  0  0  0  0  0  0
    2.7511    2.6173   20.3116 C   0  0  0  0  0  0  0  0  0  0  0  0
    3.4240    2.1235   21.4530 C   0  0  0  0  0  0  0  0  0  0  0  0
    4.5112    1.2985   21.3136 C   0  0  0  0  0  0  0  0  0  0  0  0
    4.9933    0.9377   20.0224 C   0  0  0  0  0  0  0  0  0  0  0  0
    5.0177    0.9274   22.1970 H   0  0  0  0  0  0  0  0  0  0  0  0
    3.1052    2.4161   22.4508 H   0  0  0  0  0  0  0  0  0  0  0  0
    1.8972    3.2794   20.4364 H   0  0  0  0  0  0  0  0  0  0  0  0
    2.6761    2.6460   18.1705 H   0  0  0  0  0  0  0  0  0  0  0  0
    4.2233    1.3774   16.7171 H   0  0  0  0  0  0  0  0  0  0  0  0
    7.2967   -0.8789   18.2761 H   0  0  0  0  0  0  0  0  0  0  0  0
    7.2678   -1.7428   21.0360 C   0  0  0  0  0  0  0  0  0  0  0  0
    8.0159   -1.7978   22.3819 C   0  0  2  0  0  0  0  0  0  0  0  0
    7.1509   -2.4570   23.4838 C   0  0  0  0  0  0  0  0  0  0  0  0
    6.8712   -3.8674   23.1843 C   0  0  0  0  0  0  0  0  0  0  0  0
    6.6391   -4.9714   22.9252 N   0  0  0  0  0  0  0  0  0  0  0  0
    6.1919   -1.9413   23.5919 H   0  0  0  0  0  0  0  0  0  0  0  0
    7.6636   -2.4280   24.4496 H   0  0  0  0  0  0  0  0  0  0  0  0
    8.9009   -2.4368   22.3054 H   0  0  0  0  0  0  0  0  0  0  0  0
    6.3746   -2.3719   21.0323 H   0  0  0  0  0  0  0  0  0  0  0  0
    7.9192   -2.0653   20.2197 H   0  0  0  0  0  0  0  0  0  0  0  0
    9.9651   -0.1077   22.3717 C   0  0  0  0  0  0  0  0  0  0  0  0
   10.6320   -0.8770   21.4118 C   0  0  0  0  0  0  0  0  0  0  0  0
   11.9756   -0.6540   21.1587 C   0  0  0  0  0  0  0  0  0  0  0  0
   12.8245   -1.6716   20.0265 Cl  0  0  0  0  0  0  0  0  0  0  0  0
   12.6512    0.4199   21.7415 C   0  0  0  0  0  0  0  0  0  0  0  0
   11.9885    1.2159   22.6578 C   0  0  0  0  0  0  0  0  0  0  0  0
   10.6583    0.9472   22.9790 C   0  0  0  0  0  0  0  0  0  0  0  0
    9.9713    1.8724   23.9360 C   0  0  0  0  0  0  0  0  0  0  0  0
   10.4880    2.9195   24.3074 O   0  0  0  0  0  0  0  0  0  0  0  0
   12.4617    2.0786   23.1220 H   0  0  0  0  0  0  0  0  0  0  0  0
   13.6659    0.6395   21.4309 H   0  0  0  0  0  0  0  0  0  0  0  0
   10.1024   -1.6175   20.8218 H   0  0  0  0  0  0  0  0  0  0  0  0
    8.7417   -0.5771   24.7780 H   0  0  0  0  0  0  0  0  0  0  0  0
    7.1630    0.1491   24.3252 H   0  0  0  0  0  0  0  0  0  0  0  0
    7.3773    1.8584   25.8841 H   0  0  0  0  0  0  0  0  0  0  0  0
    8.5813    3.1360   25.5042 H   0  0  0  0  0  0  0  0  0  0  0  0
    8.1995    4.3108   23.4034 H   0  0  0  0  0  0  0  0  0  0  0  0
    5.9498    3.9223   21.8262 H   0  0  0  0  0  0  0  0  0  0  0  0
    6.8153    5.4801   21.9540 H   0  0  0  0  0  0  0  0  0  0  0  0
    5.4357    5.1185   23.0163 H   0  0  0  0  0  0  0  0  0  0  0  0
  1  2  1  0
  2  3  1  0
  3  4  2  0
  3  5  1  0
  5  6  1  0
  6  7  1  0
  8  7  1  1
  8  9  1  0
  9 10  2  0
  9 11  1  0
 11 12  1  0
 12 13  2  0
 13 14  1  0
 14 15  2  0
 15 16  1  0
 16 17  2  0
 17 18  1  0
 18 19  2  0
 19 20  1  0
 20 21  2  0
 20 22  1  0
 19 23  1  0
 18 24  1  0
 17 25  1  0
 15 26  1  0
 13 27  1  0
 11 28  1  0
 28 29  1  0
 29 30  1  0
 30 31  1  0
 31 32  3  0
 30 33  1  0
 30 34  1  0
 29 35  1  6
 28 36  1  0
 28 37  1  0
  8 38  1  0
 38 39  2  0
 39 40  1  0
 40 41  1  0
 40 42  2  0
 42 43  1  0
 43 44  2  0
 44 45  1  0
 45 46  2  0
 43 47  1  0
 42 48  1  0
 39 49  1  0
  7 50  1  0
  7 51  1  0
  5 52  1  0
  5 53  1  0
  2 54  1  0
  1 55  1  0
  1 56  1  0
  1 57  1  0
 45  6  1  0
 29  8  1  0
 44 38  1  0
 21 12  1  0
 21 16  1  0
M  END
>  <cnnaffinities>  (41) 
[6.8095, 6.78089, 7.07212]

>  <score>  (41) 
6.8095

>  <index>  (41) 
40

>  <Smiles>  (41) 
C(N(C(=O)C(N1C([C@@]2(C(=O)N(c3c(nc(c4c(c(c(c(c34)[H])[H])[H])[H])[H])[H])C([C@@]2(C(C#N)([H])[H])[H])([H])[H])c2c(c(Cl)c(c(c2C1=O)[H])[H])[H])([H])[H])([H])[H])[H])([H])([H])[H]

>  <h>  (41) 
<NA>

>  <Training>  (41) 
True

>  <Success>  (41) 
True

>  <enamine_searched>  (41) 
False

>  <enamine_id>  (41) 
nan

$$$$

     RDKit          3D

 68 73  0  0  0  0  0  0  0  0999 V2000
    7.1390   -2.4840   23.4525 C   0  0  0  0  0  0  0  0  0  0  0  0
    8.0218   -1.7940   22.3954 C   0  0  1  0  0  0  0  0  0  0  0  0
    7.2924   -1.7362   21.0308 C   0  0  0  0  0  0  0  0  0  0  0  0
    6.9226   -0.3452   20.8626 N   0  0  0  0  0  0  0  0  0  0  0  0
    6.1404    0.1168   19.7766 C   0  0  0  0  0  0  0  0  0  0  0  0
    6.4460   -0.2251   18.4808 C   0  0  0  0  0  0  0  0  0  0  0  0
    5.7688    0.2178   17.3927 N   0  0  0  0  0  0  0  0  0  0  0  0
    4.7493    1.0171   17.5982 C   0  0  0  0  0  0  0  0  0  0  0  0
    4.2999    1.4218   18.8860 C   0  0  0  0  0  0  0  0  0  0  0  0
    3.1774    2.2773   19.0576 C   0  0  0  0  0  0  0  0  0  0  0  0
    2.7511    2.6216   20.3126 C   0  0  0  0  0  0  0  0  0  0  0  0
    3.4193    2.1167   21.4510 C   0  0  0  0  0  0  0  0  0  0  0  0
    4.5091    1.2945   21.3087 C   0  0  0  0  0  0  0  0  0  0  0  0
    4.9983    0.9464   20.0164 C   0  0  0  0  0  0  0  0  0  0  0  0
    5.0170    0.9119   22.1876 H   0  0  0  0  0  0  0  0  0  0  0  0
    3.0842    2.4053   22.4445 H   0  0  0  0  0  0  0  0  0  0  0  0
    1.9024    3.2876   20.4409 H   0  0  0  0  0  0  0  0  0  0  0  0
    2.6738    2.6515   18.1709 H   0  0  0  0  0  0  0  0  0  0  0  0
    4.2232    1.3808   16.7170 H   0  0  0  0  0  0  0  0  0  0  0  0
    7.2927   -0.8731   18.2590 H   0  0  0  0  0  0  0  0  0  0  0  0
    7.6308    0.5116   21.6786 C   0  0  0  0  0  0  0  0  0  0  0  0
    7.6089    1.7245   21.5863 O   0  0  0  0  0  0  0  0  0  0  0  0
    8.4570   -0.3167   22.6916 C   0  0  1  0  0  0  0  0  0  0  0  0
    8.1402    0.1259   24.1383 C   0  0  0  0  0  0  0  0  0  0  0  0
    8.6171    1.4653   24.4289 N   0  0  0  0  0  0  0  0  0  0  0  0
    7.7746    2.3213   25.2548 C   0  0  0  0  0  0  0  0  0  0  0  0
    6.7431    3.1045   24.4386 C   0  0  0  0  0  0  0  0  0  0  0  0
    7.3649    4.1814   23.5978 N   0  0  0  0  0  4  0  0  0  0  0  0
    7.9080    5.3053   24.4639 C   0  0  0  0  0  0  0  0  0  0  0  0
    8.0235    6.6291   23.7233 C   0  0  0  0  0  0  0  0  0  0  0  0
    6.4061    7.2566   23.2619 S   0  0  0  0  0  0  0  0  0  0  0  0
    5.8271    7.9023   24.4400 O   0  0  0  0  0  0  0  0  0  0  0  0
    6.5392    8.0017   22.0163 O   0  0  0  0  0  0  0  0  0  0  0  0
    5.4830    5.7565   22.9312 C   0  0  0  0  0  0  0  0  0  0  0  0
    6.4368    4.6534   22.4973 C   0  0  0  0  0  0  0  0  0  0  0  0
    5.8674    3.7863   22.1691 H   0  0  0  0  0  0  0  0  0  0  0  0
    7.0489    4.9828   21.6540 H   0  0  0  0  0  0  0  0  0  0  0  0
    4.7614    6.0214   22.1536 H   0  0  0  0  0  0  0  0  0  0  0  0
    4.9474    5.5091   23.8515 H   0  0  0  0  0  0  0  0  0  0  0  0
    8.6042    6.5534   22.8003 H   0  0  0  0  0  0  0  0  0  0  0  0
    8.4514    7.4126   24.3532 H   0  0  0  0  0  0  0  0  0  0  0  0
    7.2533    5.4278   25.3349 H   0  0  0  0  0  0  0  0  0  0  0  0
    8.8956    5.0108   24.8155 H   0  0  0  0  0  0  0  0  0  0  0  0
    8.1567    3.7225   23.1104 H   0  0  0  0  0  0  0  0  0  0  0  0
    6.2224    2.4156   23.7628 H   0  0  0  0  0  0  0  0  0  0  0  0
    6.0048    3.5588   25.1127 H   0  0  0  0  0  0  0  0  0  0  0  0
    8.4306    2.9896   25.8137 H   0  0  0  0  0  0  0  0  0  0  0  0
    7.2408    1.6891   25.9757 H   0  0  0  0  0  0  0  0  0  0  0  0
    9.8945    1.8418   24.1247 C   0  0  0  0  0  0  0  0  0  0  0  0
   10.4107    2.8463   24.6048 O   0  0  0  0  0  0  0  0  0  0  0  0
   10.6068    0.9735   23.1164 C   0  0  0  0  0  0  0  0  0  0  0  0
   11.9411    1.2474   22.8219 C   0  0  0  0  0  0  0  0  0  0  0  0
   12.6321    0.4991   21.8875 C   0  0  0  0  0  0  0  0  0  0  0  0
   11.9735   -0.5463   21.2429 C   0  0  0  0  0  0  0  0  0  0  0  0
   12.8348   -1.5179   20.0857 Cl  0  0  0  0  0  0  0  0  0  0  0  0
   10.6291   -0.7883   21.4668 C   0  0  0  0  0  0  0  0  0  0  0  0
    9.9401   -0.0613   22.4458 C   0  0  0  0  0  0  0  0  0  0  0  0
   10.1091   -1.4705   20.8011 H   0  0  0  0  0  0  0  0  0  0  0  0
   13.6453    0.7585   21.6046 H   0  0  0  0  0  0  0  0  0  0  0  0
   12.4165    2.0620   23.3521 H   0  0  0  0  0  0  0  0  0  0  0  0
    8.5964   -0.6043   24.8280 H   0  0  0  0  0  0  0  0  0  0  0  0
    7.0592    0.1285   24.2947 H   0  0  0  0  0  0  0  0  0  0  0  0
    6.3980   -2.3718   21.0137 H   0  0  0  0  0  0  0  0  0  0  0  0
    7.9529   -2.0565   20.2180 H   0  0  0  0  0  0  0  0  0  0  0  0
    8.9235   -2.4108   22.3075 H   0  0  0  0  0  0  0  0  0  0  0  0
    7.6485   -2.5684   24.4191 H   0  0  0  0  0  0  0  0  0  0  0  0
    6.8954   -3.5057   23.1297 H   0  0  0  0  0  0  0  0  0  0  0  0
    6.1931   -1.9499   23.6066 H   0  0  0  0  0  0  0  0  0  0  0  0
  1  2  1  0
  2  3  1  0
  3  4  1  0
  4  5  1  0
  5  6  2  0
  6  7  1  0
  7  8  2  0
  8  9  1  0
  9 10  2  0
 10 11  1  0
 11 12  2  0
 12 13  1  0
 13 14  2  0
 13 15  1  0
 12 16  1  0
 11 17  1  0
 10 18  1  0
  8 19  1  0
  6 20  1  0
  4 21  1  0
 21 22  2  0
 21 23  1  0
 23 24  1  1
 24 25  1  0
 25 26  1  0
 26 27  1  0
 27 28  1  0
 28 29  1  0
 29 30  1  0
 30 31  1  0
 31 32  2  0
 31 33  2  0
 31 34  1  0
 34 35  1  0
 35 36  1  0
 35 37  1  0
 34 38  1  0
 34 39  1  0
 30 40  1  0
 30 41  1  0
 29 42  1  0
 29 43  1  0
 28 44  1  0
 27 45  1  0
 27 46  1  0
 26 47  1  0
 26 48  1  0
 25 49  1  0
 49 50  2  0
 49 51  1  0
 51 52  2  0
 52 53  1  0
 53 54  2  0
 54 55  1  0
 54 56  1  0
 56 57  2  0
 56 58  1  0
 53 59  1  0
 52 60  1  0
 24 61  1  0
 24 62  1  0
  3 63  1  0
  3 64  1  0
  2 65  1  6
  1 66  1  0
  1 67  1  0
  1 68  1  0
 23  2  1  0
 35 28  1  0
 57 51  1  0
 14  5  1  0
 57 23  1  0
 14  9  1  0
M  CHG  1  28   1
M  END
>  <cnnaffinities>  (42) 
[6.79574]

>  <score>  (42) 
6.79574

>  <index>  (42) 
41

>  <Smiles>  (42) 
C([C@]1(C(N(c2c(nc(c3c(c(c(c(c23)[H])[H])[H])[H])[H])[H])C(=O)[C@]21C(N(C(C([N+]1(C(C(S(=O)(=O)C(C1([H])[H])([H])[H])([H])[H])([H])[H])[H])([H])[H])([H])[H])C(=O)c1c(c(c(Cl)c(c21)[H])[H])[H])([H])[H])([H])[H])[H])([H])([H])[H]

>  <h>  (42) 
<NA>

>  <Training>  (42) 
True

>  <Success>  (42) 
True

>  <enamine_searched>  (42) 
False

>  <enamine_id>  (42) 
nan

$$$$

     RDKit          3D

 60 65  0  0  0  0  0  0  0  0999 V2000
    6.5702    4.3900   21.3770 C   0  0  0  0  0  0  0  0  0  0  0  0
    7.5492    3.9715   22.3680 N   0  0  0  0  0  0  0  0  0  0  0  0
    7.0720    3.3219   23.4776 C   0  0  0  0  0  0  0  0  0  0  0  0
    5.8774    3.1486   23.6595 O   0  0  0  0  0  0  0  0  0  0  0  0
    8.1075    2.8021   24.4733 C   0  0  0  0  0  0  0  0  0  0  0  0
    8.7942    1.6425   23.9444 N   0  0  0  0  0  0  0  0  0  0  0  0
    8.0524    0.3917   23.8335 C   0  0  0  0  0  0  0  0  0  0  0  0
    8.4604   -0.4172   22.5768 C   0  0  2  0  0  0  0  0  0  0  0  0
    7.9622    0.2713   21.2864 C   0  0  0  0  0  0  0  0  0  0  0  0
    8.4336    1.2457   20.7314 O   0  0  0  0  0  0  0  0  0  0  0  0
    6.8772   -0.4293   20.8185 N   0  0  0  0  0  0  0  0  0  0  0  0
    6.1156    0.0856   19.7463 C   0  0  0  0  0  0  0  0  0  0  0  0
    6.4722   -0.2061   18.4556 C   0  0  0  0  0  0  0  0  0  0  0  0
    5.7983    0.2309   17.3654 N   0  0  0  0  0  0  0  0  0  0  0  0
    4.7561    1.0001   17.5786 C   0  0  0  0  0  0  0  0  0  0  0  0
    4.3002    1.4028   18.8682 C   0  0  0  0  0  0  0  0  0  0  0  0
    3.1854    2.2630   19.0469 C   0  0  0  0  0  0  0  0  0  0  0  0
    2.7878    2.6335   20.3036 C   0  0  0  0  0  0  0  0  0  0  0  0
    3.4904    2.1767   21.4413 C   0  0  0  0  0  0  0  0  0  0  0  0
    4.5751    1.3449   21.2963 C   0  0  0  0  0  0  0  0  0  0  0  0
    4.9996    0.9331   20.0004 C   0  0  0  0  0  0  0  0  0  0  0  0
    5.1371    1.0353   22.1744 H   0  0  0  0  0  0  0  0  0  0  0  0
    3.1910    2.5025   22.4324 H   0  0  0  0  0  0  0  0  0  0  0  0
    1.9314    3.2888   20.4302 H   0  0  0  0  0  0  0  0  0  0  0  0
    2.6695    2.6231   18.1625 H   0  0  0  0  0  0  0  0  0  0  0  0
    4.2172    1.3542   16.7014 H   0  0  0  0  0  0  0  0  0  0  0  0
    7.3455   -0.8294   18.2759 H   0  0  0  0  0  0  0  0  0  0  0  0
    6.4777   -1.5517   21.6420 C   0  0  0  0  0  0  0  0  0  0  0  0
    7.7406   -1.7967   22.4825 C   0  0  2  0  0  0  0  0  0  0  0  0
    7.5383   -2.6349   23.7631 C   0  0  0  0  0  0  0  0  0  0  0  0
    6.3191   -2.3062   24.5794 C   0  0  0  0  0  0  0  0  0  0  0  0
    5.0904   -2.6971   24.2572 N   0  0  0  0  0  0  0  0  0  0  0  0
    4.3021   -2.1767   25.1966 N   0  0  0  0  0  0  0  0  0  0  0  0
    5.0277   -1.5028   26.0468 N   0  0  0  0  0  2  0  0  0  0  0  0
    6.3074   -1.5762   25.6871 N   0  0  0  0  0  0  0  0  0  0  0  0
    7.4366   -3.6829   23.4637 H   0  0  0  0  0  0  0  0  0  0  0  0
    8.4291   -2.5525   24.3964 H   0  0  0  0  0  0  0  0  0  0  0  0
    8.3914   -2.4046   21.8515 H   0  0  0  0  0  0  0  0  0  0  0  0
    5.5990   -1.3159   22.2565 H   0  0  0  0  0  0  0  0  0  0  0  0
    6.2276   -2.4242   21.0276 H   0  0  0  0  0  0  0  0  0  0  0  0
    9.9724   -0.4726   22.5102 C   0  0  0  0  0  0  0  0  0  0  0  0
   10.6007   -1.3658   21.6294 C   0  0  0  0  0  0  0  0  0  0  0  0
   11.9610   -1.2850   21.4069 C   0  0  0  0  0  0  0  0  0  0  0  0
   12.6471   -2.2650   20.1353 Cl  0  0  0  0  0  0  0  0  0  0  0  0
   12.7621   -0.3989   22.1318 C   0  0  0  0  0  0  0  0  0  0  0  0
   12.1534    0.4626   23.0253 C   0  0  0  0  0  0  0  0  0  0  0  0
   10.7645    0.4913   23.1467 C   0  0  0  0  0  0  0  0  0  0  0  0
   10.1611    1.6588   23.8744 C   0  0  0  0  0  0  0  0  0  0  0  0
   10.8436    2.5686   24.3246 O   0  0  0  0  0  0  0  0  0  0  0  0
   12.7271    1.1703   23.6116 H   0  0  0  0  0  0  0  0  0  0  0  0
   13.8320   -0.3630   21.9551 H   0  0  0  0  0  0  0  0  0  0  0  0
   10.0514   -2.1169   21.0706 H   0  0  0  0  0  0  0  0  0  0  0  0
    8.2257   -0.2294   24.7245 H   0  0  0  0  0  0  0  0  0  0  0  0
    6.9823    0.6200   23.7956 H   0  0  0  0  0  0  0  0  0  0  0  0
    8.8748    3.5394   24.7191 H   0  0  0  0  0  0  0  0  0  0  0  0
    7.5814    2.5487   25.3963 H   0  0  0  0  0  0  0  0  0  0  0  0
    8.4552    3.7178   21.9994 H   0  0  0  0  0  0  0  0  0  0  0  0
    5.7391    4.8728   21.8928 H   0  0  0  0  0  0  0  0  0  0  0  0
    6.1649    3.5282   20.8238 H   0  0  0  0  0  0  0  0  0  0  0  0
    7.0094    5.1123   20.6789 H   0  0  0  0  0  0  0  0  0  0  0  0
  1  2  1  0
  2  3  1  0
  3  4  2  0
  3  5  1  0
  5  6  1  0
  6  7  1  0
  8  7  1  1
  8  9  1  0
  9 10  2  0
  9 11  1  0
 11 12  1  0
 12 13  2  0
 13 14  1  0
 14 15  2  0
 15 16  1  0
 16 17  2  0
 17 18  1  0
 18 19  2  0
 19 20  1  0
 20 21  2  0
 20 22  1  0
 19 23  1  0
 18 24  1  0
 17 25  1  0
 15 26  1  0
 13 27  1  0
 11 28  1  0
 28 29  1  0
 29 30  1  0
 30 31  1  0
 31 32  1  0
 32 33  2  0
 33 34  1  0
 34 35  1  0
 30 36  1  0
 30 37  1  0
 29 38  1  6
 28 39  1  0
 28 40  1  0
  8 41  1  0
 41 42  2  0
 42 43  1  0
 43 44  1  0
 43 45  2  0
 45 46  1  0
 46 47  2  0
 47 48  1  0
 48 49  2  0
 46 50  1  0
 45 51  1  0
 42 52  1  0
  7 53  1  0
  7 54  1  0
  5 55  1  0
  5 56  1  0
  2 57  1  0
  1 58  1  0
  1 59  1  0
  1 60  1  0
 48  6  1  0
 29  8  1  0
 35 31  2  0
 47 41  1  0
 21 12  1  0
 21 16  1  0
M  CHG  1  34  -1
M  END
>  <cnnaffinities>  (43) 
[6.807, 7.17565, 7.17588, 7.08303, 7.08318]

>  <score>  (43) 
6.807

>  <index>  (43) 
42

>  <Smiles>  (43) 
C(N(C(=O)C(N1C([C@@]2(C(=O)N(c3c(nc(c4c(c(c(c(c34)[H])[H])[H])[H])[H])[H])C([C@@]2(C(c2nn[n-]n2)([H])[H])[H])([H])[H])c2c(c(Cl)c(c(c2C1=O)[H])[H])[H])([H])[H])([H])[H])[H])([H])([H])[H]

>  <h>  (43) 
<NA>

>  <Training>  (43) 
True

>  <Success>  (43) 
True

>  <enamine_searched>  (43) 
False

>  <enamine_id>  (43) 
nan

$$$$

     RDKit          3D

 62 67  0  0  0  0  0  0  0  0999 V2000
    5.5190    1.4025   27.8057 C   0  0  0  0  0  0  0  0  0  0  0  0
    7.0023    1.2286   27.5290 C   0  0  0  0  0  0  0  0  0  0  0  0
    7.6787    2.4954   27.2944 N   0  0  0  0  0  0  0  0  0  0  0  0
    7.8617    3.2702   28.3724 N   0  0  0  0  0  0  0  0  0  0  0  0
    8.4400    4.3694   27.9161 C   0  0  0  0  0  0  0  0  0  0  0  0
    8.6488    4.3107   26.5261 C   0  0  0  0  0  0  0  0  0  0  0  0
    8.1395    3.0792   26.1480 C   0  0  0  0  0  0  0  0  0  0  0  0
    7.9495    2.4883   24.7744 C   0  0  0  0  0  0  0  0  0  0  0  0
    8.8165    1.3671   24.4100 N   0  0  0  0  0  0  0  0  0  0  0  0
    8.2623    0.0513   24.1332 C   0  0  0  0  0  0  0  0  0  0  0  0
    8.4690   -0.4057   22.6677 C   0  0  2  0  0  0  0  0  0  0  0  0
    7.6362    0.4710   21.7065 C   0  0  0  0  0  0  0  0  0  0  0  0
    7.6306    1.6829   21.6568 O   0  0  0  0  0  0  0  0  0  0  0  0
    6.8847   -0.3506   20.8933 N   0  0  0  0  0  0  0  0  0  0  0  0
    6.1233    0.1242   19.8052 C   0  0  0  0  0  0  0  0  0  0  0  0
    6.4417   -0.2357   18.5197 C   0  0  0  0  0  0  0  0  0  0  0  0
    5.7863    0.2000   17.4151 N   0  0  0  0  0  0  0  0  0  0  0  0
    4.7658    1.0005   17.6030 C   0  0  0  0  0  0  0  0  0  0  0  0
    4.3013    1.4130   18.8836 C   0  0  0  0  0  0  0  0  0  0  0  0
    3.1793    2.2683   19.0337 C   0  0  0  0  0  0  0  0  0  0  0  0
    2.7329    2.6153   20.2778 C   0  0  0  0  0  0  0  0  0  0  0  0
    3.3793    2.1189   21.4335 C   0  0  0  0  0  0  0  0  0  0  0  0
    4.4691    1.2958   21.3151 C   0  0  0  0  0  0  0  0  0  0  0  0
    4.9764    0.9468   20.0322 C   0  0  0  0  0  0  0  0  0  0  0  0
    4.9612    0.9127   22.2038 H   0  0  0  0  0  0  0  0  0  0  0  0
    3.0131    2.3982   22.4169 H   0  0  0  0  0  0  0  0  0  0  0  0
    1.8770    3.2746   20.3901 H   0  0  0  0  0  0  0  0  0  0  0  0
    2.6883    2.6370   18.1363 H   0  0  0  0  0  0  0  0  0  0  0  0
    4.2418    1.3582   16.7158 H   0  0  0  0  0  0  0  0  0  0  0  0
    7.2924   -0.8902   18.3315 H   0  0  0  0  0  0  0  0  0  0  0  0
    7.2209   -1.7492   21.0268 C   0  0  0  0  0  0  0  0  0  0  0  0
    7.9299   -1.8458   22.3921 C   0  0  2  0  0  0  0  0  0  0  0  0
    7.0123   -2.4294   23.4714 C   0  0  0  0  0  0  0  0  0  0  0  0
    6.1141   -1.8218   23.6249 H   0  0  0  0  0  0  0  0  0  0  0  0
    7.5384   -2.5106   24.4274 H   0  0  0  0  0  0  0  0  0  0  0  0
    6.6956   -3.4397   23.1917 H   0  0  0  0  0  0  0  0  0  0  0  0
    8.7764   -2.5338   22.3200 H   0  0  0  0  0  0  0  0  0  0  0  0
    6.3131   -2.3587   20.9703 H   0  0  0  0  0  0  0  0  0  0  0  0
    7.8856   -2.0601   20.2139 H   0  0  0  0  0  0  0  0  0  0  0  0
    9.9582   -0.2544   22.3701 C   0  0  0  0  0  0  0  0  0  0  0  0
   10.5922   -1.0515   21.4094 C   0  0  0  0  0  0  0  0  0  0  0  0
   11.9351   -0.8630   21.1499 C   0  0  0  0  0  0  0  0  0  0  0  0
   12.5397   -1.6436   20.2379 F   0  0  0  0  0  0  0  0  0  0  0  0
   12.6869    0.1203   21.7796 C   0  0  0  0  0  0  0  0  0  0  0  0
   12.0572    0.9253   22.7078 C   0  0  0  0  0  0  0  0  0  0  0  0
   10.7100    0.7404   23.0111 C   0  0  0  0  0  0  0  0  0  0  0  0
   10.0808    1.6909   23.9867 C   0  0  0  0  0  0  0  0  0  0  0  0
   10.6349    2.7208   24.3446 O   0  0  0  0  0  0  0  0  0  0  0  0
   12.5856    1.7235   23.2153 H   0  0  0  0  0  0  0  0  0  0  0  0
   13.7319    0.2426   21.5238 H   0  0  0  0  0  0  0  0  0  0  0  0
   10.0720   -1.8231   20.8538 H   0  0  0  0  0  0  0  0  0  0  0  0
    8.7501   -0.6933   24.7775 H   0  0  0  0  0  0  0  0  0  0  0  0
    7.1958    0.0692   24.3685 H   0  0  0  0  0  0  0  0  0  0  0  0
    6.9064    2.1638   24.6619 H   0  0  0  0  0  0  0  0  0  0  0  0
    8.1091    3.2795   24.0316 H   0  0  0  0  0  0  0  0  0  0  0  0
    9.1193    5.0533   25.8909 H   0  0  0  0  0  0  0  0  0  0  0  0
    8.6743    5.1522   28.6209 H   0  0  0  0  0  0  0  0  0  0  0  0
    7.1882    0.5625   26.6836 H   0  0  0  0  0  0  0  0  0  0  0  0
    7.4845    0.7743   28.3974 H   0  0  0  0  0  0  0  0  0  0  0  0
    5.0184    1.9374   26.9955 H   0  0  0  0  0  0  0  0  0  0  0  0
    5.3690    1.9696   28.7274 H   0  0  0  0  0  0  0  0  0  0  0  0
    5.0701    0.4122   27.9099 H   0  0  0  0  0  0  0  0  0  0  0  0
  1  2  1  0
  2  3  1  0
  3  4  1  0
  4  5  2  0
  5  6  1  0
  6  7  2  0
  7  8  1  0
  8  9  1  0
  9 10  1  0
 11 10  1  1
 11 12  1  0
 12 13  2  0
 12 14  1  0
 14 15  1  0
 15 16  2  0
 16 17  1  0
 17 18  2  0
 18 19  1  0
 19 20  2  0
 20 21  1  0
 21 22  2  0
 22 23  1  0
 23 24  2  0
 23 25  1  0
 22 26  1  0
 21 27  1  0
 20 28  1  0
 18 29  1  0
 16 30  1  0
 14 31  1  0
 31 32  1  0
 32 33  1  0
 33 34  1  0
 33 35  1  0
 33 36  1  0
 32 37  1  6
 31 38  1  0
 31 39  1  0
 11 40  1  0
 40 41  2  0
 41 42  1  0
 42 43  1  0
 42 44  2  0
 44 45  1  0
 45 46  2  0
 46 47  1  0
 47 48  2  0
 45 49  1  0
 44 50  1  0
 41 51  1  0
 10 52  1  0
 10 53  1  0
  8 54  1  0
  8 55  1  0
  6 56  1  0
  5 57  1  0
  2 58  1  0
  2 59  1  0
  1 60  1  0
  1 61  1  0
  1 62  1  0
  7  3  1  0
 47  9  1  0
 32 11  1  0
 46 40  1  0
 24 15  1  0
 24 19  1  0
M  END
>  <cnnaffinities>  (44) 
[6.39668, 6.90499, 6.71124, 6.33221]

>  <score>  (44) 
6.39668

>  <index>  (44) 
43

>  <Smiles>  (44) 
C(C(n1nc(c(c1C(N1C([C@@]2(C(=O)N(c3c(nc(c4c(c(c(c(c34)[H])[H])[H])[H])[H])[H])C([C@@]2(C([H])([H])[H])[H])([H])[H])c2c(c(F)c(c(c2C1=O)[H])[H])[H])([H])[H])([H])[H])[H])[H])([H])[H])([H])([H])[H]

>  <h>  (44) 
<NA>

>  <Training>  (44) 
True

>  <Success>  (44) 
True

>  <enamine_searched>  (44) 
False

>  <enamine_id>  (44) 
nan

$$$$

     RDKit          3D

 56 60  0  0  0  0  0  0  0  0999 V2000
    7.5127   -8.4108   23.0731 C   0  0  0  0  0  0  0  0  0  0  0  0
    6.5303   -7.3962   22.7475 N   0  0  0  0  0  0  0  0  0  0  0  0
    6.7867   -6.5690   21.6917 C   0  0  0  0  0  0  0  0  0  0  0  0
    7.5963   -6.8134   20.8185 O   0  0  0  0  0  0  0  0  0  0  0  0
    6.0389   -5.2370   21.6700 C   0  0  0  0  0  0  0  0  0  0  0  0
    6.6285   -4.3146   22.6259 N   0  0  0  0  0  0  0  0  0  0  0  0
    7.7197   -3.4144   22.2715 C   0  0  0  0  0  0  0  0  0  0  0  0
    7.3805   -1.9485   22.6529 C   0  0  2  0  0  0  0  0  0  0  0  0
    6.2913   -1.4315   21.6829 C   0  0  0  0  0  0  0  0  0  0  0  0
    5.1423   -1.8188   21.6031 O   0  0  0  0  0  0  0  0  0  0  0  0
    6.8443   -0.4733   20.8556 N   0  0  0  0  0  0  0  0  0  0  0  0
    6.1173    0.0780   19.7801 C   0  0  0  0  0  0  0  0  0  0  0  0
    6.4655   -0.2166   18.4858 C   0  0  0  0  0  0  0  0  0  0  0  0
    5.8033    0.2274   17.3885 N   0  0  0  0  0  0  0  0  0  0  0  0
    4.7672    1.0052   17.5968 C   0  0  0  0  0  0  0  0  0  0  0  0
    4.3122    1.4041   18.8858 C   0  0  0  0  0  0  0  0  0  0  0  0
    3.1941    2.2634   19.0435 C   0  0  0  0  0  0  0  0  0  0  0  0
    2.7892    2.6488   20.2912 C   0  0  0  0  0  0  0  0  0  0  0  0
    3.4833    2.2032   21.4369 C   0  0  0  0  0  0  0  0  0  0  0  0
    4.5689    1.3740   21.3122 C   0  0  0  0  0  0  0  0  0  0  0  0
    5.0031    0.9414   20.0251 C   0  0  0  0  0  0  0  0  0  0  0  0
    5.0948    1.0409   22.2012 H   0  0  0  0  0  0  0  0  0  0  0  0
    3.1575    2.5317   22.4196 H   0  0  0  0  0  0  0  0  0  0  0  0
    1.9397    3.3148   20.4073 H   0  0  0  0  0  0  0  0  0  0  0  0
    2.6808    2.6120   18.1514 H   0  0  0  0  0  0  0  0  0  0  0  0
    4.2277    1.3691   16.7222 H   0  0  0  0  0  0  0  0  0  0  0  0
    7.3116   -0.8769   18.2982 H   0  0  0  0  0  0  0  0  0  0  0  0
    8.2874   -0.4019   20.9585 C   0  0  0  0  0  0  0  0  0  0  0  0
    8.5524   -0.9626   22.3632 C   0  0  2  0  0  0  0  0  0  0  0  0
    9.9825   -1.4816   22.4388 C   0  0  0  0  0  0  0  0  0  0  0  0
   10.4517   -2.0137   24.0783 Cl  0  0  0  0  0  0  0  0  0  0  0  0
   10.1325   -2.3304   21.7639 H   0  0  0  0  0  0  0  0  0  0  0  0
   10.6838   -0.6916   22.1582 H   0  0  0  0  0  0  0  0  0  0  0  0
    8.4680   -0.1286   23.0605 H   0  0  0  0  0  0  0  0  0  0  0  0
    8.6285    0.6345   20.8600 H   0  0  0  0  0  0  0  0  0  0  0  0
    8.7999   -1.0068   20.1924 H   0  0  0  0  0  0  0  0  0  0  0  0
    6.8954   -1.9549   24.0927 C   0  0  0  0  0  0  0  0  0  0  0  0
    6.8579   -0.7804   24.8539 C   0  0  0  0  0  0  0  0  0  0  0  0
    6.4020   -0.8108   26.1599 C   0  0  0  0  0  0  0  0  0  0  0  0
    6.3583    0.6718   27.0636 Cl  0  0  0  0  0  0  0  0  0  0  0  0
    5.9716   -1.9864   26.7729 C   0  0  0  0  0  0  0  0  0  0  0  0
    5.9714   -3.1377   26.0170 C   0  0  0  0  0  0  0  0  0  0  0  0
    6.3947   -3.1194   24.6915 C   0  0  0  0  0  0  0  0  0  0  0  0
    6.1630   -4.3503   23.8975 C   0  0  0  0  0  0  0  0  0  0  0  0
    5.5283   -5.3101   24.3474 O   0  0  0  0  0  0  0  0  0  0  0  0
    5.6208   -4.0784   26.4200 H   0  0  0  0  0  0  0  0  0  0  0  0
    5.6295   -1.9873   27.8037 H   0  0  0  0  0  0  0  0  0  0  0  0
    7.1848    0.1697   24.4464 H   0  0  0  0  0  0  0  0  0  0  0  0
    8.6582   -3.7022   22.7707 H   0  0  0  0  0  0  0  0  0  0  0  0
    7.8839   -3.4869   21.2002 H   0  0  0  0  0  0  0  0  0  0  0  0
    4.9837   -5.3707   21.9288 H   0  0  0  0  0  0  0  0  0  0  0  0
    6.1021   -4.7951   20.6698 H   0  0  0  0  0  0  0  0  0  0  0  0
    5.9580   -7.0291   23.4919 H   0  0  0  0  0  0  0  0  0  0  0  0
    8.3970   -8.0028   23.5861 H   0  0  0  0  0  0  0  0  0  0  0  0
    7.0490   -9.1639   23.7100 H   0  0  0  0  0  0  0  0  0  0  0  0
    7.8266   -8.8769   22.1414 H   0  0  0  0  0  0  0  0  0  0  0  0
  1  2  1  0
  2  3  1  0
  3  4  2  0
  3  5  1  0
  5  6  1  0
  6  7  1  0
  8  7  1  6
  8  9  1  0
  9 10  2  0
  9 11  1  0
 11 12  1  0
 12 13  2  0
 13 14  1  0
 14 15  2  0
 15 16  1  0
 16 17  2  0
 17 18  1  0
 18 19  2  0
 19 20  1  0
 20 21  2  0
 20 22  1  0
 19 23  1  0
 18 24  1  0
 17 25  1  0
 15 26  1  0
 13 27  1  0
 11 28  1  0
 28 29  1  0
 29 30  1  0
 30 31  1  0
 30 32  1  0
 30 33  1  0
 29 34  1  1
 28 35  1  0
 28 36  1  0
  8 37  1  0
 37 38  2  0
 38 39  1  0
 39 40  1  0
 39 41  2  0
 41 42  1  0
 42 43  2  0
 43 44  1  0
 44 45  2  0
 42 46  1  0
 41 47  1  0
 38 48  1  0
  7 49  1  0
  7 50  1  0
  5 51  1  0
  5 52  1  0
  2 53  1  0
  1 54  1  0
  1 55  1  0
  1 56  1  0
 44  6  1  0
 29  8  1  0
 43 37  1  0
 21 12  1  0
 21 16  1  0
M  END
>  <cnnaffinities>  (45) 
[6.86361, 6.84684]

>  <score>  (45) 
6.86361

>  <index>  (45) 
44

>  <Smiles>  (45) 
C(N(C(=O)C(N1C([C@@]2(C(=O)N(c3c(nc(c4c(c(c(c(c34)[H])[H])[H])[H])[H])[H])C([C@@]2(C(Cl)([H])[H])[H])([H])[H])c2c(c(Cl)c(c(c2C1=O)[H])[H])[H])([H])[H])([H])[H])[H])([H])([H])[H]

>  <h>  (45) 
<NA>

>  <Training>  (45) 
True

>  <Success>  (45) 
True

>  <enamine_searched>  (45) 
False

>  <enamine_id>  (45) 
nan

$$$$

     RDKit          3D

 60 64  0  0  0  0  0  0  0  0999 V2000
    7.5208   -8.4137   23.0732 C   0  0  0  0  0  0  0  0  0  0  0  0
    6.5356   -7.3929   22.7582 N   0  0  0  0  0  0  0  0  0  0  0  0
    6.7830   -6.5696   21.7007 C   0  0  0  0  0  0  0  0  0  0  0  0
    7.5862   -6.8171   20.8181 O   0  0  0  0  0  0  0  0  0  0  0  0
    6.0339   -5.2392   21.6713 C   0  0  0  0  0  0  0  0  0  0  0  0
    6.6274   -4.3199   22.6273 N   0  0  0  0  0  0  0  0  0  0  0  0
    7.7251   -3.4269   22.2696 C   0  0  0  0  0  0  0  0  0  0  0  0
    7.3907   -1.9584   22.6492 C   0  0  2  0  0  0  0  0  0  0  0  0
    6.2964   -1.4434   21.6809 C   0  0  0  0  0  0  0  0  0  0  0  0
    5.1520   -1.8440   21.5970 O   0  0  0  0  0  0  0  0  0  0  0  0
    6.8400   -0.4718   20.8618 N   0  0  0  0  0  0  0  0  0  0  0  0
    6.1141    0.0769   19.7833 C   0  0  0  0  0  0  0  0  0  0  0  0
    6.4645   -0.2176   18.4887 C   0  0  0  0  0  0  0  0  0  0  0  0
    5.8049    0.2270   17.3912 N   0  0  0  0  0  0  0  0  0  0  0  0
    4.7685    1.0053   17.5977 C   0  0  0  0  0  0  0  0  0  0  0  0
    4.3115    1.4034   18.8865 C   0  0  0  0  0  0  0  0  0  0  0  0
    3.1935    2.2632   19.0427 C   0  0  0  0  0  0  0  0  0  0  0  0
    2.7886    2.6483   20.2912 C   0  0  0  0  0  0  0  0  0  0  0  0
    3.4814    2.2028   21.4375 C   0  0  0  0  0  0  0  0  0  0  0  0
    4.5667    1.3720   21.3139 C   0  0  0  0  0  0  0  0  0  0  0  0
    4.9998    0.9398   20.0255 C   0  0  0  0  0  0  0  0  0  0  0  0
    5.0934    1.0390   22.2025 H   0  0  0  0  0  0  0  0  0  0  0  0
    3.1551    2.5316   22.4205 H   0  0  0  0  0  0  0  0  0  0  0  0
    1.9392    3.3147   20.4066 H   0  0  0  0  0  0  0  0  0  0  0  0
    2.6815    2.6120   18.1506 H   0  0  0  0  0  0  0  0  0  0  0  0
    4.2305    1.3684   16.7230 H   0  0  0  0  0  0  0  0  0  0  0  0
    7.3121   -0.8757   18.3028 H   0  0  0  0  0  0  0  0  0  0  0  0
    8.2823   -0.3865   20.9666 C   0  0  0  0  0  0  0  0  0  0  0  0
    8.5639   -0.9750   22.3531 C   0  0  2  0  0  0  0  0  0  0  0  0
    9.9823   -1.5160   22.4183 C   0  0  0  0  0  0  0  0  0  0  0  0
   10.2407   -2.0159   23.7054 O   0  0  0  0  0  0  0  0  0  0  0  0
   11.5209   -2.5948   23.7994 C   0  0  0  0  0  0  0  0  0  0  0  0
   12.3155   -1.8753   23.5464 H   0  0  0  0  0  0  0  0  0  0  0  0
   11.6651   -2.9242   24.8306 H   0  0  0  0  0  0  0  0  0  0  0  0
   11.6221   -3.4651   23.1325 H   0  0  0  0  0  0  0  0  0  0  0  0
   10.6881   -0.7019   22.1742 H   0  0  0  0  0  0  0  0  0  0  0  0
   10.1207   -2.3008   21.6530 H   0  0  0  0  0  0  0  0  0  0  0  0
    8.4994   -0.1642   23.0790 H   0  0  0  0  0  0  0  0  0  0  0  0
    8.7924   -0.9741   20.1848 H   0  0  0  0  0  0  0  0  0  0  0  0
    8.6135    0.6553   20.8819 H   0  0  0  0  0  0  0  0  0  0  0  0
    6.9073   -1.9650   24.0931 C   0  0  0  0  0  0  0  0  0  0  0  0
    6.8675   -0.7884   24.8507 C   0  0  0  0  0  0  0  0  0  0  0  0
    6.4011   -0.8131   26.1534 C   0  0  0  0  0  0  0  0  0  0  0  0
    6.3436    0.6727   27.0514 Cl  0  0  0  0  0  0  0  0  0  0  0  0
    5.9684   -1.9875   26.7686 C   0  0  0  0  0  0  0  0  0  0  0  0
    5.9731   -3.1424   26.0179 C   0  0  0  0  0  0  0  0  0  0  0  0
    6.4022   -3.1270   24.6941 C   0  0  0  0  0  0  0  0  0  0  0  0
    6.1671   -4.3577   23.9020 C   0  0  0  0  0  0  0  0  0  0  0  0
    5.5290   -5.3149   24.3529 O   0  0  0  0  0  0  0  0  0  0  0  0
    5.6191   -4.0819   26.4216 H   0  0  0  0  0  0  0  0  0  0  0  0
    5.6180   -1.9868   27.7962 H   0  0  0  0  0  0  0  0  0  0  0  0
    7.1917    0.1614   24.4399 H   0  0  0  0  0  0  0  0  0  0  0  0
    8.6598   -3.7134   22.7737 H   0  0  0  0  0  0  0  0  0  0  0  0
    7.8929   -3.5022   21.1993 H   0  0  0  0  0  0  0  0  0  0  0  0
    4.9793   -5.3681   21.9322 H   0  0  0  0  0  0  0  0  0  0  0  0
    6.0942   -4.7949   20.6710 H   0  0  0  0  0  0  0  0  0  0  0  0
    5.9895   -7.0055   23.5176 H   0  0  0  0  0  0  0  0  0  0  0  0
    7.8181   -8.8928   22.1398 H   0  0  0  0  0  0  0  0  0  0  0  0
    7.0609   -9.1490   23.7349 H   0  0  0  0  0  0  0  0  0  0  0  0
    8.4139   -8.0022   23.5689 H   0  0  0  0  0  0  0  0  0  0  0  0
  1  2  1  0
  2  3  1  0
  3  4  2  0
  3  5  1  0
  5  6  1  0
  6  7  1  0
  8  7  1  6
  8  9  1  0
  9 10  2  0
  9 11  1  0
 11 12  1  0
 12 13  2  0
 13 14  1  0
 14 15  2  0
 15 16  1  0
 16 17  2  0
 17 18  1  0
 18 19  2  0
 19 20  1  0
 20 21  2  0
 20 22  1  0
 19 23  1  0
 18 24  1  0
 17 25  1  0
 15 26  1  0
 13 27  1  0
 11 28  1  0
 28 29  1  0
 29 30  1  0
 30 31  1  0
 31 32  1  0
 32 33  1  0
 32 34  1  0
 32 35  1  0
 30 36  1  0
 30 37  1  0
 29 38  1  1
 28 39  1  0
 28 40  1  0
  8 41  1  0
 41 42  2  0
 42 43  1  0
 43 44  1  0
 43 45  2  0
 45 46  1  0
 46 47  2  0
 47 48  1  0
 48 49  2  0
 46 50  1  0
 45 51  1  0
 42 52  1  0
  7 53  1  0
  7 54  1  0
  5 55  1  0
  5 56  1  0
  2 57  1  0
  1 58  1  0
  1 59  1  0
  1 60  1  0
 48  6  1  0
 29  8  1  0
 47 41  1  0
 21 12  1  0
 21 16  1  0
M  END
>  <cnnaffinities>  (46) 
[6.82867, 6.69625]

>  <score>  (46) 
6.82867

>  <index>  (46) 
45

>  <Smiles>  (46) 
C(N(C(=O)C(N1C([C@@]2(C(=O)N(c3c(nc(c4c(c(c(c(c34)[H])[H])[H])[H])[H])[H])C([C@@]2(C(OC([H])([H])[H])([H])[H])[H])([H])[H])c2c(c(Cl)c(c(c2C1=O)[H])[H])[H])([H])[H])([H])[H])[H])([H])([H])[H]

>  <h>  (46) 
<NA>

>  <Training>  (46) 
True

>  <Success>  (46) 
True

>  <enamine_searched>  (46) 
False

>  <enamine_id>  (46) 
nan

$$$$

     RDKit          3D

 64 68  0  0  0  0  0  0  0  0999 V2000
    5.7435   -5.9802   25.0227 C   0  0  0  0  0  0  0  0  0  0  0  0
    6.5961   -4.7176   25.0759 C   0  0  0  0  0  0  0  0  0  0  0  0
    6.7773   -4.0830   23.4195 S   0  0  0  0  0  0  0  0  0  0  0  0
    7.6858   -4.9538   22.6745 O   0  0  0  0  0  0  0  0  0  0  0  0
    5.4248   -3.8382   22.9281 O   0  0  0  0  0  0  0  0  0  0  0  0
    7.5343   -2.5809   23.6581 N   0  0  0  0  0  0  0  0  0  0  0  0
    7.7708   -1.8565   22.3899 C   0  0  1  0  0  0  0  0  0  0  0  0
    6.4844   -1.5470   21.6156 C   0  0  0  0  0  0  0  0  0  0  0  0
    6.8783   -0.4082   20.8217 N   0  0  0  0  0  0  0  0  0  0  0  0
    6.1270    0.1010   19.7377 C   0  0  0  0  0  0  0  0  0  0  0  0
    6.4808   -0.1951   18.4466 C   0  0  0  0  0  0  0  0  0  0  0  0
    5.7985    0.2363   17.3570 N   0  0  0  0  0  0  0  0  0  0  0  0
    4.7510    0.9998   17.5660 C   0  0  0  0  0  0  0  0  0  0  0  0
    4.2880    1.3954   18.8544 C   0  0  0  0  0  0  0  0  0  0  0  0
    3.1751    2.2595   19.0388 C   0  0  0  0  0  0  0  0  0  0  0  0
    2.7822    2.6319   20.2974 C   0  0  0  0  0  0  0  0  0  0  0  0
    3.4830    2.1661   21.4341 C   0  0  0  0  0  0  0  0  0  0  0  0
    4.5632    1.3297   21.2815 C   0  0  0  0  0  0  0  0  0  0  0  0
    4.9916    0.9268   19.9861 C   0  0  0  0  0  0  0  0  0  0  0  0
    5.1342    1.0200   22.1529 H   0  0  0  0  0  0  0  0  0  0  0  0
    3.1972    2.4947   22.4293 H   0  0  0  0  0  0  0  0  0  0  0  0
    1.9370    3.3014   20.4291 H   0  0  0  0  0  0  0  0  0  0  0  0
    2.6622    2.6302   18.1556 H   0  0  0  0  0  0  0  0  0  0  0  0
    4.2111    1.3558   16.6883 H   0  0  0  0  0  0  0  0  0  0  0  0
    7.3561   -0.8116   18.2516 H   0  0  0  0  0  0  0  0  0  0  0  0
    8.0043    0.2385   21.2716 C   0  0  0  0  0  0  0  0  0  0  0  0
    8.5050    1.2022   20.7272 O   0  0  0  0  0  0  0  0  0  0  0  0
    8.5060   -0.5001   22.5350 C   0  0  1  0  0  0  0  0  0  0  0  0
    8.0643    0.2419   23.8232 C   0  0  0  0  0  0  0  0  0  0  0  0
    8.8178    1.4755   24.0288 N   0  0  0  0  0  0  0  0  0  0  0  0
    8.1375    2.6680   24.5271 C   0  0  0  0  0  0  0  0  0  0  0  0
    7.0672    3.1658   23.5414 C   0  0  0  0  0  0  0  0  0  0  0  0
    5.8755    3.0071   23.7627 O   0  0  0  0  0  0  0  0  0  0  0  0
    7.5225    3.8225   22.4345 N   0  0  0  0  0  0  0  0  0  0  0  0
    6.5512    4.2885   21.4568 C   0  0  0  0  0  0  0  0  0  0  0  0
    7.0002    5.0506   20.8147 H   0  0  0  0  0  0  0  0  0  0  0  0
    5.7069    4.7314   21.9906 H   0  0  0  0  0  0  0  0  0  0  0  0
    6.1676    3.4641   20.8397 H   0  0  0  0  0  0  0  0  0  0  0  0
    8.4354    3.5471   22.0944 H   0  0  0  0  0  0  0  0  0  0  0  0
    7.6550    2.4937   25.5040 H   0  0  0  0  0  0  0  0  0  0  0  0
    8.9210    3.4214   24.6746 H   0  0  0  0  0  0  0  0  0  0  0  0
   10.1902    1.4767   23.9811 C   0  0  0  0  0  0  0  0  0  0  0  0
   10.8641    2.3472   24.5168 O   0  0  0  0  0  0  0  0  0  0  0  0
   10.8047    0.3924   23.1405 C   0  0  0  0  0  0  0  0  0  0  0  0
   12.1839    0.4463   22.9321 C   0  0  0  0  0  0  0  0  0  0  0  0
   12.7775   -0.3357   21.9664 C   0  0  0  0  0  0  0  0  0  0  0  0
   11.9946   -1.2554   21.2720 C   0  0  0  0  0  0  0  0  0  0  0  0
   12.7183   -2.2079   20.0077 Cl  0  0  0  0  0  0  0  0  0  0  0  0
   10.6456   -1.3940   21.5379 C   0  0  0  0  0  0  0  0  0  0  0  0
   10.0178   -0.5522   22.4670 C   0  0  0  0  0  0  0  0  0  0  0  0
   10.0995   -2.1356   20.9701 H   0  0  0  0  0  0  0  0  0  0  0  0
   13.8329   -0.2367   21.7421 H   0  0  0  0  0  0  0  0  0  0  0  0
   12.7783    1.1278   23.5294 H   0  0  0  0  0  0  0  0  0  0  0  0
    8.1849   -0.4269   24.6842 H   0  0  0  0  0  0  0  0  0  0  0  0
    7.0038    0.5029   23.7461 H   0  0  0  0  0  0  0  0  0  0  0  0
    6.1677   -2.3812   20.9847 H   0  0  0  0  0  0  0  0  0  0  0  0
    5.6631   -1.3145   22.3021 H   0  0  0  0  0  0  0  0  0  0  0  0
    8.3793   -2.4963   21.7480 H   0  0  0  0  0  0  0  0  0  0  0  0
    8.4371   -2.7191   24.1240 H   0  0  0  0  0  0  0  0  0  0  0  0
    6.1251   -3.9194   25.6574 H   0  0  0  0  0  0  0  0  0  0  0  0
    7.5988   -4.9140   25.4719 H   0  0  0  0  0  0  0  0  0  0  0  0
    6.2813   -6.7821   24.5117 H   0  0  0  0  0  0  0  0  0  0  0  0
    5.4984   -6.3223   26.0300 H   0  0  0  0  0  0  0  0  0  0  0  0
    4.8180   -5.8013   24.4707 H   0  0  0  0  0  0  0  0  0  0  0  0
  1  2  1  0
  2  3  1  0
  3  4  2  0
  3  5  2  0
  3  6  1  0
  6  7  1  0
  7  8  1  0
  8  9  1  0
  9 10  1  0
 10 11  2  0
 11 12  1  0
 12 13  2  0
 13 14  1  0
 14 15  2  0
 15 16  1  0
 16 17  2  0
 17 18  1  0
 18 19  2  0
 18 20  1  0
 17 21  1  0
 16 22  1  0
 15 23  1  0
 13 24  1  0
 11 25  1  0
  9 26  1  0
 26 27  2  0
 26 28  1  0
 28 29  1  1
 29 30  1  0
 30 31  1  0
 31 32  1  0
 32 33  2  0
 32 34  1  0
 34 35  1  0
 35 36  1  0
 35 37  1  0
 35 38  1  0
 34 39  1  0
 31 40  1  0
 31 41  1  0
 30 42  1  0
 42 43  2  0
 42 44  1  0
 44 45  2  0
 45 46  1  0
 46 47  2  0
 47 48  1  0
 47 49  1  0
 49 50  2  0
 49 51  1  0
 46 52  1  0
 45 53  1  0
 29 54  1  0
 29 55  1  0
  8 56  1  0
  8 57  1  0
  7 58  1  6
  6 59  1  0
  2 60  1  0
  2 61  1  0
  1 62  1  0
  1 63  1  0
  1 64  1  0
 28  7  1  0
 50 44  1  0
 19 10  1  0
 50 28  1  0
 19 14  1  0
M  END
>  <cnnaffinities>  (47) 
[6.64492]

>  <score>  (47) 
6.64492

>  <index>  (47) 
46

>  <Smiles>  (47) 
C(C(S(=O)(=O)N([C@]1(C(N(c2c(nc(c3c(c(c(c(c23)[H])[H])[H])[H])[H])[H])C(=O)[C@]21C(N(C(C(=O)N(C([H])([H])[H])[H])([H])[H])C(=O)c1c(c(c(Cl)c(c21)[H])[H])[H])([H])[H])([H])[H])[H])[H])([H])[H])([H])([H])[H]

>  <h>  (47) 
<NA>

>  <Training>  (47) 
True

>  <Success>  (47) 
True

>  <enamine_searched>  (47) 
False

>  <enamine_id>  (47) 
nan

$$$$

     RDKit          3D

 56 60  0  0  0  0  0  0  0  0999 V2000
    7.4969   -8.4198   23.0026 C   0  0  0  0  0  0  0  0  0  0  0  0
    6.6209   -7.2768   22.8710 N   0  0  0  0  0  0  0  0  0  0  0  0
    6.7500   -6.4736   21.7765 C   0  0  0  0  0  0  0  0  0  0  0  0
    7.4484   -6.7366   20.8133 O   0  0  0  0  0  0  0  0  0  0  0  0
    5.9677   -5.1648   21.8438 C   0  0  0  0  0  0  0  0  0  0  0  0
    6.5848   -4.2460   22.7760 N   0  0  0  0  0  0  0  0  0  0  0  0
    7.6915   -3.4060   22.3547 C   0  0  0  0  0  0  0  0  0  0  0  0
    7.3917   -1.9228   22.6880 C   0  0  2  0  0  0  0  0  0  0  0  0
    6.3008   -1.4589   21.6871 C   0  0  0  0  0  0  0  0  0  0  0  0
    5.1796   -1.9040   21.5796 O   0  0  0  0  0  0  0  0  0  0  0  0
    6.8315   -0.4851   20.8639 N   0  0  0  0  0  0  0  0  0  0  0  0
    6.1017    0.0580   19.7836 C   0  0  0  0  0  0  0  0  0  0  0  0
    6.4616   -0.2217   18.4894 C   0  0  0  0  0  0  0  0  0  0  0  0
    5.8059    0.2302   17.3914 N   0  0  0  0  0  0  0  0  0  0  0  0
    4.7672    1.0061   17.5903 C   0  0  0  0  0  0  0  0  0  0  0  0
    4.3057    1.4021   18.8784 C   0  0  0  0  0  0  0  0  0  0  0  0
    3.1893    2.2660   19.0351 C   0  0  0  0  0  0  0  0  0  0  0  0
    2.7851    2.6559   20.2828 C   0  0  0  0  0  0  0  0  0  0  0  0
    3.4789    2.2069   21.4291 C   0  0  0  0  0  0  0  0  0  0  0  0
    4.5593    1.3685   21.3039 C   0  0  0  0  0  0  0  0  0  0  0  0
    4.9909    0.9304   20.0190 C   0  0  0  0  0  0  0  0  0  0  0  0
    5.0956    1.0324   22.1861 H   0  0  0  0  0  0  0  0  0  0  0  0
    3.1542    2.5339   22.4134 H   0  0  0  0  0  0  0  0  0  0  0  0
    1.9336    3.3211   20.4008 H   0  0  0  0  0  0  0  0  0  0  0  0
    2.6752    2.6151   18.1431 H   0  0  0  0  0  0  0  0  0  0  0  0
    4.2348    1.3663   16.7087 H   0  0  0  0  0  0  0  0  0  0  0  0
    7.3134   -0.8719   18.2940 H   0  0  0  0  0  0  0  0  0  0  0  0
    8.2746   -0.4021   20.9542 C   0  0  0  0  0  0  0  0  0  0  0  0
    8.5781   -0.9684   22.3487 C   0  0  2  0  0  0  0  0  0  0  0  0
    9.9875   -1.5458   22.4386 C   0  0  0  0  0  0  0  0  0  0  0  0
   10.1429   -2.3306   21.6889 H   0  0  0  0  0  0  0  0  0  0  0  0
   10.1866   -1.9773   23.4254 H   0  0  0  0  0  0  0  0  0  0  0  0
   10.7302   -0.7619   22.2520 H   0  0  0  0  0  0  0  0  0  0  0  0
    8.5106   -0.1343   23.0490 H   0  0  0  0  0  0  0  0  0  0  0  0
    8.7701   -0.9951   20.1709 H   0  0  0  0  0  0  0  0  0  0  0  0
    8.6014    0.6370   20.8534 H   0  0  0  0  0  0  0  0  0  0  0  0
    6.9027   -1.8562   24.1378 C   0  0  0  0  0  0  0  0  0  0  0  0
    6.8614   -0.6437   24.8342 C   0  0  0  0  0  0  0  0  0  0  0  0
    6.3838   -0.6092   26.1291 C   0  0  0  0  0  0  0  0  0  0  0  0
    6.3457    0.5709   26.7684 F   0  0  0  0  0  0  0  0  0  0  0  0
    5.9377   -1.7367   26.8093 C   0  0  0  0  0  0  0  0  0  0  0  0
    5.9424   -2.9317   26.1246 C   0  0  0  0  0  0  0  0  0  0  0  0
    6.3873   -2.9810   24.8043 C   0  0  0  0  0  0  0  0  0  0  0  0
    6.1822   -4.2585   24.0741 C   0  0  0  0  0  0  0  0  0  0  0  0
    5.6095   -5.2237   24.5823 O   0  0  0  0  0  0  0  0  0  0  0  0
    5.5760   -3.8537   26.5670 H   0  0  0  0  0  0  0  0  0  0  0  0
    5.5704   -1.6647   27.8255 H   0  0  0  0  0  0  0  0  0  0  0  0
    7.1692    0.2893   24.3792 H   0  0  0  0  0  0  0  0  0  0  0  0
    8.6013   -3.7353   22.8743 H   0  0  0  0  0  0  0  0  0  0  0  0
    7.8401   -3.5386   21.2806 H   0  0  0  0  0  0  0  0  0  0  0  0
    4.9446   -5.3507   22.1934 H   0  0  0  0  0  0  0  0  0  0  0  0
    5.9581   -4.7071   20.8449 H   0  0  0  0  0  0  0  0  0  0  0  0
    6.2190   -6.8635   23.7046 H   0  0  0  0  0  0  0  0  0  0  0  0
    8.4944   -8.1076   23.3263 H   0  0  0  0  0  0  0  0  0  0  0  0
    7.0821   -9.1497   23.7022 H   0  0  0  0  0  0  0  0  0  0  0  0
    7.5930   -8.8908   22.0304 H   0  0  0  0  0  0  0  0  0  0  0  0
  1  2  1  0
  2  3  1  0
  3  4  2  0
  3  5  1  0
  5  6  1  0
  6  7  1  0
  8  7  1  6
  8  9  1  0
  9 10  2  0
  9 11  1  0
 11 12  1  0
 12 13  2  0
 13 14  1  0
 14 15  2  0
 15 16  1  0
 16 17  2  0
 17 18  1  0
 18 19  2  0
 19 20  1  0
 20 21  2  0
 20 22  1  0
 19 23  1  0
 18 24  1  0
 17 25  1  0
 15 26  1  0
 13 27  1  0
 11 28  1  0
 28 29  1  0
 29 30  1  0
 30 31  1  0
 30 32  1  0
 30 33  1  0
 29 34  1  1
 28 35  1  0
 28 36  1  0
  8 37  1  0
 37 38  2  0
 38 39  1  0
 39 40  1  0
 39 41  2  0
 41 42  1  0
 42 43  2  0
 43 44  1  0
 44 45  2  0
 42 46  1  0
 41 47  1  0
 38 48  1  0
  7 49  1  0
  7 50  1  0
  5 51  1  0
  5 52  1  0
  2 53  1  0
  1 54  1  0
  1 55  1  0
  1 56  1  0
 44  6  1  0
 29  8  1  0
 43 37  1  0
 21 12  1  0
 21 16  1  0
M  END
>  <cnnaffinities>  (48) 
[6.52334]

>  <score>  (48) 
6.52334

>  <index>  (48) 
47

>  <Smiles>  (48) 
C(N(C(=O)C(N1C([C@@]2(C(=O)N(c3c(nc(c4c(c(c(c(c34)[H])[H])[H])[H])[H])[H])C([C@@]2(C([H])([H])[H])[H])([H])[H])c2c(c(F)c(c(c2C1=O)[H])[H])[H])([H])[H])([H])[H])[H])([H])([H])[H]

>  <h>  (48) 
<NA>

>  <Training>  (48) 
True

>  <Success>  (48) 
True

>  <enamine_searched>  (48) 
False

>  <enamine_id>  (48) 
nan

$$$$

     RDKit          3D

 41 43  0  0  0  0  0  0  0  0999 V2000
   10.9106   -2.4511   23.7828 C   0  0  0  0  0  0  0  0  0  0  0  0
   10.0170   -1.2725   23.4542 C   0  0  1  0  0  0  0  0  0  0  0  0
    8.5428   -1.5710   23.7523 C   0  0  0  0  0  0  0  0  0  0  0  0
    7.6638   -0.3149   23.8326 C   0  0  0  0  0  0  0  0  0  0  0  0
    8.0160    0.7497   22.8943 N   0  0  0  0  0  0  0  0  0  0  0  0
    7.8631    0.6363   21.5245 C   0  0  0  0  0  0  0  0  0  0  0  0
    8.4359    1.3993   20.7654 O   0  0  0  0  0  0  0  0  0  0  0  0
    6.9379   -0.4477   20.9198 C   0  0  0  0  0  0  0  0  0  0  0  0
    6.1113    0.0851   19.7672 C   0  0  0  0  0  0  0  0  0  0  0  0
    6.4267   -0.2075   18.4628 C   0  0  0  0  0  0  0  0  0  0  0  0
    5.7614    0.2420   17.3628 N   0  0  0  0  0  0  0  0  0  0  0  0
    4.7334    1.0283   17.5746 C   0  0  0  0  0  0  0  0  0  0  0  0
    4.2865    1.4236   18.8669 C   0  0  0  0  0  0  0  0  0  0  0  0
    3.1692    2.2813   19.0425 C   0  0  0  0  0  0  0  0  0  0  0  0
    2.7640    2.6455   20.2993 C   0  0  0  0  0  0  0  0  0  0  0  0
    3.4626    2.1677   21.4302 C   0  0  0  0  0  0  0  0  0  0  0  0
    4.5480    1.3381   21.2863 C   0  0  0  0  0  0  0  0  0  0  0  0
    4.9917    0.9423   19.9957 C   0  0  0  0  0  0  0  0  0  0  0  0
    5.0728    0.9903   22.1707 H   0  0  0  0  0  0  0  0  0  0  0  0
    3.1371    2.4643   22.4222 H   0  0  0  0  0  0  0  0  0  0  0  0
    1.9114    3.3051   20.4364 H   0  0  0  0  0  0  0  0  0  0  0  0
    2.6440    2.6486   18.1638 H   0  0  0  0  0  0  0  0  0  0  0  0
    4.1979    1.3989   16.6993 H   0  0  0  0  0  0  0  0  0  0  0  0
    7.2736   -0.8570   18.2451 H   0  0  0  0  0  0  0  0  0  0  0  0
    7.5903   -1.2399   20.5272 H   0  0  0  0  0  0  0  0  0  0  0  0
    6.2861   -0.9124   21.6668 H   0  0  0  0  0  0  0  0  0  0  0  0
    9.0468    1.6764   23.3758 C   0  0  0  0  0  0  0  0  0  0  0  0
   10.4542    1.0771   23.4654 C   0  0  0  0  0  0  0  0  0  0  0  0
   10.4949   -0.1429   24.1767 O   0  0  0  0  0  0  0  0  0  0  0  0
   10.8647    0.9353   22.4557 H   0  0  0  0  0  0  0  0  0  0  0  0
   11.1273    1.7680   23.9972 H   0  0  0  0  0  0  0  0  0  0  0  0
    8.7545    1.9971   24.3792 H   0  0  0  0  0  0  0  0  0  0  0  0
    9.0634    2.5595   22.7334 H   0  0  0  0  0  0  0  0  0  0  0  0
    6.6076   -0.5753   23.7202 H   0  0  0  0  0  0  0  0  0  0  0  0
    7.7555    0.1103   24.8328 H   0  0  0  0  0  0  0  0  0  0  0  0
    8.4668   -2.1273   24.6969 H   0  0  0  0  0  0  0  0  0  0  0  0
    8.1656   -2.2443   22.9724 H   0  0  0  0  0  0  0  0  0  0  0  0
   10.1181   -1.0540   22.3864 H   0  0  0  0  0  0  0  0  0  0  0  0
   10.5948   -3.3351   23.2203 H   0  0  0  0  0  0  0  0  0  0  0  0
   11.9465   -2.2265   23.5145 H   0  0  0  0  0  0  0  0  0  0  0  0
   10.8704   -2.6774   24.8511 H   0  0  0  0  0  0  0  0  0  0  0  0
  1  2  1  0
  2  3  1  0
  3  4  1  0
  4  5  1  0
  5  6  1  0
  6  7  2  0
  6  8  1  0
  8  9  1  0
  9 10  2  0
 10 11  1  0
 11 12  2  0
 12 13  1  0
 13 14  2  0
 14 15  1  0
 15 16  2  0
 16 17  1  0
 17 18  2  0
 17 19  1  0
 16 20  1  0
 15 21  1  0
 14 22  1  0
 12 23  1  0
 10 24  1  0
  8 25  1  0
  8 26  1  0
  5 27  1  0
 27 28  1  0
 28 29  1  0
 28 30  1  0
 28 31  1  0
 27 32  1  0
 27 33  1  0
  4 34  1  0
  4 35  1  0
  3 36  1  0
  3 37  1  0
  2 38  1  6
  1 39  1  0
  1 40  1  0
  1 41  1  0
 29  2  1  0
 18  9  1  0
 18 13  1  0
M  END
>  <cnnaffinities>  (49) 
[5.41772]

>  <score>  (49) 
5.41772

>  <index>  (49) 
48

>  <Smiles>  (49) 
C([C@]1(C(C(N(C(=O)C(c2c(nc(c3c(c(c(c(c23)[H])[H])[H])[H])[H])[H])([H])[H])C(C(O1)([H])[H])([H])[H])([H])[H])([H])[H])[H])([H])([H])[H]

>  <h>  (49) 
<NA>

>  <Training>  (49) 
True

>  <Success>  (49) 
True

>  <enamine_searched>  (49) 
False

>  <enamine_id>  (49) 
nan

$$$$

     RDKit          3D

 42 45  0  0  0  0  0  0  0  0999 V2000
    5.8602    1.6719   25.0133 C   0  0  0  0  0  0  0  0  0  0  0  0
    7.1832    1.1957   24.6344 N   0  0  0  0  0  0  0  0  0  0  0  0
    7.3845   -0.1591   24.1522 C   0  0  0  0  0  0  0  0  0  0  0  0
    8.3140   -0.1928   22.9234 C   0  0  1  0  0  0  0  0  0  0  0  0
    7.6140    0.4400   21.7058 C   0  0  0  0  0  0  0  0  0  0  0  0
    7.6025    1.6380   21.5230 O   0  0  0  0  0  0  0  0  0  0  0  0
    6.9059   -0.3946   20.8598 N   0  0  0  0  0  0  0  0  0  0  0  0
    6.1298    0.1053   19.7776 C   0  0  0  0  0  0  0  0  0  0  0  0
    6.4322   -0.2238   18.4766 C   0  0  0  0  0  0  0  0  0  0  0  0
    5.7659    0.2341   17.3856 N   0  0  0  0  0  0  0  0  0  0  0  0
    4.7395    1.0303   17.5814 C   0  0  0  0  0  0  0  0  0  0  0  0
    4.2906    1.4202   18.8737 C   0  0  0  0  0  0  0  0  0  0  0  0
    3.1647    2.2713   19.0491 C   0  0  0  0  0  0  0  0  0  0  0  0
    2.7381    2.6069   20.3081 C   0  0  0  0  0  0  0  0  0  0  0  0
    3.4129    2.0982   21.4395 C   0  0  0  0  0  0  0  0  0  0  0  0
    4.4995    1.2729   21.2949 C   0  0  0  0  0  0  0  0  0  0  0  0
    4.9863    0.9334   20.0037 C   0  0  0  0  0  0  0  0  0  0  0  0
    5.0114    0.8794   22.1671 H   0  0  0  0  0  0  0  0  0  0  0  0
    3.0717    2.3637   22.4346 H   0  0  0  0  0  0  0  0  0  0  0  0
    1.8804    3.2586   20.4470 H   0  0  0  0  0  0  0  0  0  0  0  0
    2.6445    2.6479   18.1716 H   0  0  0  0  0  0  0  0  0  0  0  0
    4.2026    1.3968   16.7012 H   0  0  0  0  0  0  0  0  0  0  0  0
    7.2825   -0.8670   18.2539 H   0  0  0  0  0  0  0  0  0  0  0  0
    7.1115   -1.3796   20.8541 H   0  0  0  0  0  0  0  0  0  0  0  0
    9.5771    0.5652   23.2517 C   0  0  0  0  0  0  0  0  0  0  0  0
   10.7750    0.2305   22.6205 C   0  0  0  0  0  0  0  0  0  0  0  0
   11.9281    0.9559   22.8772 C   0  0  0  0  0  0  0  0  0  0  0  0
   13.4116    0.5191   22.0838 Cl  0  0  0  0  0  0  0  0  0  0  0  0
   11.9148    2.0328   23.7597 C   0  0  0  0  0  0  0  0  0  0  0  0
   10.7220    2.3696   24.3812 C   0  0  0  0  0  0  0  0  0  0  0  0
    9.5482    1.6384   24.1419 C   0  0  0  0  0  0  0  0  0  0  0  0
    8.2507    2.0401   24.8085 C   0  0  0  0  0  0  0  0  0  0  0  0
    8.1551    3.0731   25.4539 O   0  0  0  0  0  0  0  0  0  0  0  0
   10.7095    3.2142   25.0588 H   0  0  0  0  0  0  0  0  0  0  0  0
   12.8337    2.5893   23.9363 H   0  0  0  0  0  0  0  0  0  0  0  0
   10.8083   -0.5974   21.9207 H   0  0  0  0  0  0  0  0  0  0  0  0
    8.5604   -1.2355   22.6982 H   0  0  0  0  0  0  0  0  0  0  0  0
    7.8045   -0.7890   24.9485 H   0  0  0  0  0  0  0  0  0  0  0  0
    6.4184   -0.5932   23.8931 H   0  0  0  0  0  0  0  0  0  0  0  0
    5.8098    1.9724   26.0624 H   0  0  0  0  0  0  0  0  0  0  0  0
    5.1192    0.8884   24.8553 H   0  0  0  0  0  0  0  0  0  0  0  0
    5.5649    2.5367   24.4121 H   0  0  0  0  0  0  0  0  0  0  0  0
  1  2  1  0
  2  3  1  0
  3  4  1  0
  4  5  1  0
  5  6  2  0
  5  7  1  0
  7  8  1  0
  8  9  2  0
  9 10  1  0
 10 11  2  0
 11 12  1  0
 12 13  2  0
 13 14  1  0
 14 15  2  0
 15 16  1  0
 16 17  2  0
 16 18  1  0
 15 19  1  0
 14 20  1  0
 13 21  1  0
 11 22  1  0
  9 23  1  0
  7 24  1  0
  4 25  1  0
 25 26  2  0
 26 27  1  0
 27 28  1  0
 27 29  2  0
 29 30  1  0
 30 31  2  0
 31 32  1  0
 32 33  2  0
 30 34  1  0
 29 35  1  0
 26 36  1  0
  4 37  1  6
  3 38  1  0
  3 39  1  0
  1 40  1  0
  1 41  1  0
  1 42  1  0
 32  2  1  0
 17  8  1  0
 31 25  1  0
 17 12  1  0
M  END
>  <cnnaffinities>  (50) 
[5.85681, 5.71069]

>  <score>  (50) 
5.85681

>  <index>  (50) 
49

>  <Smiles>  (50) 
C(N1C([C@@](C(=O)N(c2c(nc(c3c(c(c(c(c23)[H])[H])[H])[H])[H])[H])[H])(c2c(c(Cl)c(c(c2C1=O)[H])[H])[H])[H])([H])[H])([H])([H])[H]

>  <h>  (50) 
<NA>

>  <Training>  (50) 
True

>  <Success>  (50) 
True

>  <enamine_searched>  (50) 
False

>  <enamine_id>  (50) 
nan

$$$$

     RDKit          3D

 38 41  0  0  0  0  0  0  0  0999 V2000
    8.6083    1.2621   20.7255 O   0  0  0  0  0  0  0  0  0  0  0  0
    7.8629    0.6687   21.4841 C   0  0  0  0  0  0  0  0  0  0  0  0
    6.9466   -0.4395   20.9176 C   0  0  0  0  0  0  0  0  0  0  0  0
    6.1083    0.0830   19.7657 C   0  0  0  0  0  0  0  0  0  0  0  0
    6.4266   -0.2078   18.4626 C   0  0  0  0  0  0  0  0  0  0  0  0
    5.7609    0.2423   17.3623 N   0  0  0  0  0  0  0  0  0  0  0  0
    4.7332    1.0280   17.5747 C   0  0  0  0  0  0  0  0  0  0  0  0
    4.2853    1.4230   18.8667 C   0  0  0  0  0  0  0  0  0  0  0  0
    3.1699    2.2833   19.0423 C   0  0  0  0  0  0  0  0  0  0  0  0
    2.7654    2.6487   20.2982 C   0  0  0  0  0  0  0  0  0  0  0  0
    3.4614    2.1696   21.4301 C   0  0  0  0  0  0  0  0  0  0  0  0
    4.5445    1.3361   21.2868 C   0  0  0  0  0  0  0  0  0  0  0  0
    4.9886    0.9404   19.9955 C   0  0  0  0  0  0  0  0  0  0  0  0
    5.0714    0.9877   22.1707 H   0  0  0  0  0  0  0  0  0  0  0  0
    3.1355    2.4676   22.4214 H   0  0  0  0  0  0  0  0  0  0  0  0
    1.9140    3.3104   20.4341 H   0  0  0  0  0  0  0  0  0  0  0  0
    2.6460    2.6508   18.1627 H   0  0  0  0  0  0  0  0  0  0  0  0
    4.1982    1.3990   16.6988 H   0  0  0  0  0  0  0  0  0  0  0  0
    7.2741   -0.8571   18.2461 H   0  0  0  0  0  0  0  0  0  0  0  0
    6.3028   -0.8997   21.6747 H   0  0  0  0  0  0  0  0  0  0  0  0
    7.6004   -1.2311   20.5330 H   0  0  0  0  0  0  0  0  0  0  0  0
    7.7612    1.0120   22.8221 N   0  0  0  0  0  0  0  0  0  0  0  0
    8.3089    2.3210   23.2109 C   0  0  0  0  0  0  0  0  0  0  0  0
    7.6733    2.8478   24.4956 C   0  0  0  0  0  0  0  0  0  0  0  0
    7.7414    1.7987   25.5562 C   0  0  0  0  0  0  0  0  0  0  0  0
    7.8246    2.0699   27.2633 S   0  0  0  0  0  0  0  0  0  0  0  0
    7.7821    0.3714   27.5677 C   0  0  0  0  0  0  0  0  0  0  0  0
    7.7157   -0.3551   26.4155 C   0  0  0  0  0  0  0  0  0  0  0  0
    7.6944    0.4769   25.2549 C   0  0  0  0  0  0  0  0  0  0  0  0
    7.5150   -0.0073   23.8408 C   0  0  0  0  0  0  0  0  0  0  0  0
    8.1599   -0.8838   23.6964 H   0  0  0  0  0  0  0  0  0  0  0  0
    6.4907   -0.3919   23.7493 H   0  0  0  0  0  0  0  0  0  0  0  0
    7.6709   -1.4415   26.3968 H   0  0  0  0  0  0  0  0  0  0  0  0
    7.8333    0.0034   28.5845 H   0  0  0  0  0  0  0  0  0  0  0  0
    8.1616    3.7700   24.8198 H   0  0  0  0  0  0  0  0  0  0  0  0
    6.6216    3.1047   24.3142 H   0  0  0  0  0  0  0  0  0  0  0  0
    9.3975    2.2732   23.3361 H   0  0  0  0  0  0  0  0  0  0  0  0
    8.1181    3.0174   22.3926 H   0  0  0  0  0  0  0  0  0  0  0  0
  1  2  2  0
  2  3  1  0
  3  4  1  0
  4  5  2  0
  5  6  1  0
  6  7  2  0
  7  8  1  0
  8  9  2  0
  9 10  1  0
 10 11  2  0
 11 12  1  0
 12 13  2  0
 12 14  1  0
 11 15  1  0
 10 16  1  0
  9 17  1  0
  7 18  1  0
  5 19  1  0
  3 20  1  0
  3 21  1  0
  2 22  1  0
 22 23  1  0
 23 24  1  0
 24 25  1  0
 25 26  1  0
 26 27  1  0
 27 28  2  0
 28 29  1  0
 29 30  1  0
 30 31  1  0
 30 32  1  0
 28 33  1  0
 27 34  1  0
 24 35  1  0
 24 36  1  0
 23 37  1  0
 23 38  1  0
 13  4  1  0
 30 22  1  0
 13  8  1  0
 29 25  2  0
M  END
>  <cnnaffinities>  (51) 
[4.90922, 5.2045]

>  <score>  (51) 
4.90922

>  <index>  (51) 
50

>  <Smiles>  (51) 
O=C(C(c1c(nc(c2c(c(c(c(c12)[H])[H])[H])[H])[H])[H])([H])[H])N1C(C(c2sc(c(c2C1([H])[H])[H])[H])([H])[H])([H])[H]

>  <h>  (51) 
<NA>

>  <Training>  (51) 
True

>  <Success>  (51) 
True

>  <enamine_searched>  (51) 
False

>  <enamine_id>  (51) 
nan

$$$$

     RDKit          3D

 67 73  0  0  0  0  0  0  0  0999 V2000
    5.7099    4.8552   21.9225 C   0  0  0  0  0  0  0  0  0  0  0  0
    5.9564    4.1001   23.1821 C   0  0  0  0  0  0  0  0  0  0  0  0
    5.1276    3.6081   24.0421 N   0  0  0  0  0  0  0  0  0  0  0  0
    5.8894    2.9039   24.9754 N   0  0  0  0  0  0  0  0  0  0  0  0
    7.1167    3.0269   24.5992 C   0  0  0  0  0  0  0  0  0  0  0  0
    8.3523    2.4187   25.1854 C   0  0  0  0  0  0  0  0  0  0  0  0
    8.9895    1.4870   24.2746 N   0  0  0  0  0  0  0  0  0  0  0  0
    8.3307    0.2135   24.0503 C   0  0  0  0  0  0  0  0  0  0  0  0
    8.4775   -0.2628   22.5890 C   0  0  2  0  0  0  0  0  0  0  0  0
    7.7537    0.6841   21.5802 C   0  0  0  0  0  0  0  0  0  0  0  0
    7.8173    1.8904   21.5426 O   0  0  0  0  0  0  0  0  0  0  0  0
    7.0094   -0.1098   20.7121 N   0  0  0  0  0  0  0  0  0  0  0  0
    6.1615    0.3294   19.6686 C   0  0  0  0  0  0  0  0  0  0  0  0
    6.3997   -0.0946   18.3824 C   0  0  0  0  0  0  0  0  0  0  0  0
    5.6880    0.2840   17.2930 N   0  0  0  0  0  0  0  0  0  0  0  0
    4.6669    1.0826   17.4921 C   0  0  0  0  0  0  0  0  0  0  0  0
    4.2480    1.5287   18.7784 C   0  0  0  0  0  0  0  0  0  0  0  0
    3.0983    2.3497   18.9477 C   0  0  0  0  0  0  0  0  0  0  0  0
    2.6634    2.6878   20.2003 C   0  0  0  0  0  0  0  0  0  0  0  0
    3.3432    2.2109   21.3436 C   0  0  0  0  0  0  0  0  0  0  0  0
    4.4692    1.4328   21.2068 C   0  0  0  0  0  0  0  0  0  0  0  0
    4.9792    1.1074   19.9172 C   0  0  0  0  0  0  0  0  0  0  0  0
    4.9724    1.0409   22.0878 H   0  0  0  0  0  0  0  0  0  0  0  0
    2.9758    2.4691   22.3329 H   0  0  0  0  0  0  0  0  0  0  0  0
    1.7836    3.3155   20.3187 H   0  0  0  0  0  0  0  0  0  0  0  0
    2.5718    2.6947   18.0612 H   0  0  0  0  0  0  0  0  0  0  0  0
    4.1002    1.3982   16.6149 H   0  0  0  0  0  0  0  0  0  0  0  0
    7.2216   -0.7812   18.1860 H   0  0  0  0  0  0  0  0  0  0  0  0
    7.3748   -1.5101   20.8389 C   0  0  0  0  0  0  0  0  0  0  0  0
    7.7734   -1.6128   22.3136 C   0  0  2  0  0  0  0  0  0  0  0  0
    6.5525   -1.8982   23.2138 C   0  0  0  0  0  0  0  0  0  0  0  0
    5.8880   -3.1407   22.8817 N   0  0  0  0  0  0  0  0  0  0  0  0
    6.4638   -4.3649   22.9804 C   0  0  0  0  0  0  0  0  0  0  0  0
    7.7766   -4.5807   23.4494 C   0  0  0  0  0  0  0  0  0  0  0  0
    8.2286   -5.8840   23.3765 C   0  0  0  0  0  0  0  0  0  0  0  0
    7.4828   -6.9130   22.9565 N   0  0  0  0  0  0  0  0  0  0  0  0
    6.2367   -6.5946   22.6235 C   0  0  0  0  0  0  0  0  0  0  0  0
    5.6723   -5.3930   22.6277 N   0  0  0  0  0  0  0  0  0  0  0  0
    5.5984   -7.4270   22.3356 H   0  0  0  0  0  0  0  0  0  0  0  0
    9.2537   -6.1188   23.6343 H   0  0  0  0  0  0  0  0  0  0  0  0
    8.3989   -3.7727   23.8347 H   0  0  0  0  0  0  0  0  0  0  0  0
    4.8797   -3.1944   22.9366 H   0  0  0  0  0  0  0  0  0  0  0  0
    6.8686   -1.9194   24.2670 H   0  0  0  0  0  0  0  0  0  0  0  0
    5.8142   -1.0935   23.1036 H   0  0  0  0  0  0  0  0  0  0  0  0
    8.4951   -2.4078   22.4705 H   0  0  0  0  0  0  0  0  0  0  0  0
    8.2206   -1.7428   20.1779 H   0  0  0  0  0  0  0  0  0  0  0  0
    6.5394   -2.1537   20.5688 H   0  0  0  0  0  0  0  0  0  0  0  0
    9.9847   -0.3121   22.3277 C   0  0  0  0  0  0  0  0  0  0  0  0
   10.5975   -1.2897   21.5290 C   0  0  0  0  0  0  0  0  0  0  0  0
   11.9340   -1.1606   21.1942 C   0  0  0  0  0  0  0  0  0  0  0  0
   12.6530   -2.2647   20.0555 Cl  0  0  0  0  0  0  0  0  0  0  0  0
   12.7295   -0.1356   21.7024 C   0  0  0  0  0  0  0  0  0  0  0  0
   12.1469    0.7962   22.5363 C   0  0  0  0  0  0  0  0  0  0  0  0
   10.7922    0.7057   22.8538 C   0  0  0  0  0  0  0  0  0  0  0  0
   10.2326    1.7554   23.7706 C   0  0  0  0  0  0  0  0  0  0  0  0
   10.8553    2.7738   24.0433 O   0  0  0  0  0  0  0  0  0  0  0  0
   12.7111    1.6243   22.9524 H   0  0  0  0  0  0  0  0  0  0  0  0
   13.7751   -0.0861   21.4170 H   0  0  0  0  0  0  0  0  0  0  0  0
   10.0599   -2.1565   21.1576 H   0  0  0  0  0  0  0  0  0  0  0  0
    7.2838    0.3361   24.3256 H   0  0  0  0  0  0  0  0  0  0  0  0
    8.7656   -0.5555   24.7087 H   0  0  0  0  0  0  0  0  0  0  0  0
    9.0943    3.1842   25.4283 H   0  0  0  0  0  0  0  0  0  0  0  0
    8.0636    1.8946   26.1012 H   0  0  0  0  0  0  0  0  0  0  0  0
    7.2429    3.7976   23.4965 O   0  0  0  0  0  0  0  0  0  0  0  0
    4.7226    5.3214   21.9322 H   0  0  0  0  0  0  0  0  0  0  0  0
    5.7539    4.1609   21.0740 H   0  0  0  0  0  0  0  0  0  0  0  0
    6.4756    5.6217   21.7775 H   0  0  0  0  0  0  0  0  0  0  0  0
  1  2  1  0
  2  3  2  0
  3  4  1  0
  4  5  2  0
  5  6  1  0
  6  7  1  0
  7  8  1  0
  9  8  1  1
  9 10  1  0
 10 11  2  0
 10 12  1  0
 12 13  1  0
 13 14  2  0
 14 15  1  0
 15 16  2  0
 16 17  1  0
 17 18  2  0
 18 19  1  0
 19 20  2  0
 20 21  1  0
 21 22  2  0
 21 23  1  0
 20 24  1  0
 19 25  1  0
 18 26  1  0
 16 27  1  0
 14 28  1  0
 12 29  1  0
 29 30  1  0
 30 31  1  0
 31 32  1  0
 32 33  1  0
 33 34  2  0
 34 35  1  0
 35 36  2  0
 36 37  1  0
 37 38  2  0
 37 39  1  0
 35 40  1  0
 34 41  1  0
 32 42  1  0
 31 43  1  0
 31 44  1  0
 30 45  1  6
 29 46  1  0
 29 47  1  0
  9 48  1  0
 48 49  2  0
 49 50  1  0
 50 51  1  0
 50 52  2  0
 52 53  1  0
 53 54  2  0
 54 55  1  0
 55 56  2  0
 53 57  1  0
 52 58  1  0
 49 59  1  0
  8 60  1  0
  8 61  1  0
  6 62  1  0
  6 63  1  0
  5 64  1  0
  1 65  1  0
  1 66  1  0
  1 67  1  0
 64  2  1  0
 55  7  1  0
 30  9  1  0
 38 33  1  0
 54 48  1  0
 22 13  1  0
 22 17  1  0
M  END
>  <cnnaffinities>  (52) 
[7.15287]

>  <score>  (52) 
7.15287

>  <index>  (52) 
51

>  <Smiles>  (52) 
C(c1nnc(C(N2C([C@@]3(C(=O)N(c4c(nc(c5c(c(c(c(c45)[H])[H])[H])[H])[H])[H])C([C@@]3(C(N(c3c(c(nc(n3)[H])[H])[H])[H])([H])[H])[H])([H])[H])c3c(c(Cl)c(c(c3C2=O)[H])[H])[H])([H])[H])([H])[H])o1)([H])([H])[H]

>  <h>  (52) 
<NA>

>  <Training>  (52) 
True

>  <Success>  (52) 
True

>  <enamine_searched>  (52) 
False

>  <enamine_id>  (52) 
nan

$$$$

     RDKit          3D

 66 71  0  0  0  0  0  0  0  0999 V2000
    6.5668    4.3364   21.4258 C   0  0  0  0  0  0  0  0  0  0  0  0
    7.5338    3.9098   22.4242 N   0  0  0  0  0  0  0  0  0  0  0  0
    7.0417    3.2495   23.5177 C   0  0  0  0  0  0  0  0  0  0  0  0
    5.8445    3.0771   23.6840 O   0  0  0  0  0  0  0  0  0  0  0  0
    8.0795    2.7464   24.5284 C   0  0  0  0  0  0  0  0  0  0  0  0
    8.7272    1.5339   24.0545 N   0  0  0  0  0  0  0  0  0  0  0  0
    7.9487    0.3120   23.8961 C   0  0  0  0  0  0  0  0  0  0  0  0
    8.3824   -0.4985   22.6441 C   0  0  2  0  0  0  0  0  0  0  0  0
    7.9172    0.2025   21.3480 C   0  0  0  0  0  0  0  0  0  0  0  0
    8.4014    1.1874   20.8241 O   0  0  0  0  0  0  0  0  0  0  0  0
    6.8474   -0.4892   20.8361 N   0  0  0  0  0  0  0  0  0  0  0  0
    6.1070    0.0529   19.7591 C   0  0  0  0  0  0  0  0  0  0  0  0
    6.4766   -0.2198   18.4692 C   0  0  0  0  0  0  0  0  0  0  0  0
    5.8128    0.2306   17.3768 N   0  0  0  0  0  0  0  0  0  0  0  0
    4.7671    0.9956   17.5868 C   0  0  0  0  0  0  0  0  0  0  0  0
    4.2997    1.3854   18.8745 C   0  0  0  0  0  0  0  0  0  0  0  0
    3.1881    2.2500   19.0507 C   0  0  0  0  0  0  0  0  0  0  0  0
    2.7867    2.6220   20.3051 C   0  0  0  0  0  0  0  0  0  0  0  0
    3.4837    2.1587   21.4449 C   0  0  0  0  0  0  0  0  0  0  0  0
    4.5636    1.3207   21.3025 C   0  0  0  0  0  0  0  0  0  0  0  0
    4.9930    0.9068   20.0098 C   0  0  0  0  0  0  0  0  0  0  0  0
    5.1273    1.0147   22.1809 H   0  0  0  0  0  0  0  0  0  0  0  0
    3.1884    2.4912   22.4359 H   0  0  0  0  0  0  0  0  0  0  0  0
    1.9371    3.2877   20.4308 H   0  0  0  0  0  0  0  0  0  0  0  0
    2.6804    2.6171   18.1633 H   0  0  0  0  0  0  0  0  0  0  0  0
    4.2356    1.3597   16.7084 H   0  0  0  0  0  0  0  0  0  0  0  0
    7.3542   -0.8360   18.2825 H   0  0  0  0  0  0  0  0  0  0  0  0
    6.4310   -1.6276   21.6251 C   0  0  0  0  0  0  0  0  0  0  0  0
    7.6370   -1.8637   22.5493 C   0  0  2  0  0  0  0  0  0  0  0  0
    7.2607   -2.4993   23.8854 C   0  0  0  0  0  0  0  0  0  0  0  0
    6.6497   -3.7874   23.6888 N   0  0  0  0  0  0  0  0  0  0  0  0
    6.1969   -4.5757   24.6911 C   0  0  0  0  0  0  0  0  0  0  0  0
    6.2546   -4.1793   26.0445 C   0  0  0  0  0  0  0  0  0  0  0  0
    5.7171   -5.0687   26.9506 C   0  0  0  0  0  0  0  0  0  0  0  0
    5.1694   -6.2378   26.6042 N   0  0  0  0  0  0  0  0  0  0  0  0
    5.1980   -6.5104   25.3045 C   0  0  0  0  0  0  0  0  0  0  0  0
    5.6740   -5.7541   24.3212 N   0  0  0  0  0  0  0  0  0  0  0  0
    4.7765   -7.4677   25.0039 H   0  0  0  0  0  0  0  0  0  0  0  0
    5.7143   -4.8335   28.0137 H   0  0  0  0  0  0  0  0  0  0  0  0
    6.6966   -3.2405   26.3650 H   0  0  0  0  0  0  0  0  0  0  0  0
    6.6713   -4.2185   22.7783 H   0  0  0  0  0  0  0  0  0  0  0  0
    8.1578   -2.5720   24.5180 H   0  0  0  0  0  0  0  0  0  0  0  0
    6.5565   -1.8434   24.4127 H   0  0  0  0  0  0  0  0  0  0  0  0
    8.3006   -2.5656   22.0397 H   0  0  0  0  0  0  0  0  0  0  0  0
    6.2133   -2.4882   20.9815 H   0  0  0  0  0  0  0  0  0  0  0  0
    5.5147   -1.4097   22.1947 H   0  0  0  0  0  0  0  0  0  0  0  0
    9.8940   -0.5709   22.6024 C   0  0  0  0  0  0  0  0  0  0  0  0
   10.5266   -1.4230   21.6867 C   0  0  0  0  0  0  0  0  0  0  0  0
   11.8918   -1.3448   21.4872 C   0  0  0  0  0  0  0  0  0  0  0  0
   12.5940   -2.2816   20.1939 Cl  0  0  0  0  0  0  0  0  0  0  0  0
   12.6847   -0.4835   22.2502 C   0  0  0  0  0  0  0  0  0  0  0  0
   12.0744    0.3243   23.1816 C   0  0  0  0  0  0  0  0  0  0  0  0
   10.6886    0.3496   23.2964 C   0  0  0  0  0  0  0  0  0  0  0  0
   10.0935    1.4976   24.0461 C   0  0  0  0  0  0  0  0  0  0  0  0
   10.7804    2.3764   24.5518 O   0  0  0  0  0  0  0  0  0  0  0  0
   12.6561    0.9922   23.8042 H   0  0  0  0  0  0  0  0  0  0  0  0
   13.7517   -0.4044   22.0849 H   0  0  0  0  0  0  0  0  0  0  0  0
    9.9743   -2.1160   21.0624 H   0  0  0  0  0  0  0  0  0  0  0  0
    8.0728   -0.3108   24.7945 H   0  0  0  0  0  0  0  0  0  0  0  0
    6.8918    0.5822   23.8095 H   0  0  0  0  0  0  0  0  0  0  0  0
    8.8810    3.4787   24.6958 H   0  0  0  0  0  0  0  0  0  0  0  0
    7.5706    2.5872   25.4873 H   0  0  0  0  0  0  0  0  0  0  0  0
    8.4496    3.6501   22.0805 H   0  0  0  0  0  0  0  0  0  0  0  0
    5.7400    4.8372   21.9300 H   0  0  0  0  0  0  0  0  0  0  0  0
    7.0162    5.0449   20.7297 H   0  0  0  0  0  0  0  0  0  0  0  0
    6.1522    3.4852   20.8696 H   0  0  0  0  0  0  0  0  0  0  0  0
  1  2  1  0
  2  3  1  0
  3  4  2  0
  3  5  1  0
  5  6  1  0
  6  7  1  0
  8  7  1  1
  8  9  1  0
  9 10  2  0
  9 11  1  0
 11 12  1  0
 12 13  2  0
 13 14  1  0
 14 15  2  0
 15 16  1  0
 16 17  2  0
 17 18  1  0
 18 19  2  0
 19 20  1  0
 20 21  2  0
 20 22  1  0
 19 23  1  0
 18 24  1  0
 17 25  1  0
 15 26  1  0
 13 27  1  0
 11 28  1  0
 28 29  1  0
 29 30  1  0
 30 31  1  0
 31 32  1  0
 32 33  2  0
 33 34  1  0
 34 35  2  0
 35 36  1  0
 36 37  2  0
 36 38  1  0
 34 39  1  0
 33 40  1  0
 31 41  1  0
 30 42  1  0
 30 43  1  0
 29 44  1  6
 28 45  1  0
 28 46  1  0
  8 47  1  0
 47 48  2  0
 48 49  1  0
 49 50  1  0
 49 51  2  0
 51 52  1  0
 52 53  2  0
 53 54  1  0
 54 55  2  0
 52 56  1  0
 51 57  1  0
 48 58  1  0
  7 59  1  0
  7 60  1  0
  5 61  1  0
  5 62  1  0
  2 63  1  0
  1 64  1  0
  1 65  1  0
  1 66  1  0
 54  6  1  0
 29  8  1  0
 37 32  1  0
 53 47  1  0
 21 12  1  0
 21 16  1  0
M  END
>  <cnnaffinities>  (53) 
[6.85581, 6.75216]

>  <score>  (53) 
6.85581

>  <index>  (53) 
52

>  <Smiles>  (53) 
C(N(C(=O)C(N1C([C@@]2(C(=O)N(c3c(nc(c4c(c(c(c(c34)[H])[H])[H])[H])[H])[H])C([C@@]2(C(N(c2c(c(nc(n2)[H])[H])[H])[H])([H])[H])[H])([H])[H])c2c(c(Cl)c(c(c2C1=O)[H])[H])[H])([H])[H])([H])[H])[H])([H])([H])[H]

>  <h>  (53) 
<NA>

>  <Training>  (53) 
True

>  <Success>  (53) 
True

>  <enamine_searched>  (53) 
False

>  <enamine_id>  (53) 
nan

$$$$

     RDKit          3D

 77 84  0  0  0  0  0  0  0  0999 V2000
    9.7298    2.7194   25.2363 O   0  0  0  0  0  0  0  0  0  0  0  0
    9.3707    1.7043   24.6484 C   0  0  0  0  0  0  0  0  0  0  0  0
   10.2727    1.0043   23.6796 C   0  0  0  0  0  0  0  0  0  0  0  0
   11.5960    1.4360   23.6272 C   0  0  0  0  0  0  0  0  0  0  0  0
   12.4805    0.9034   22.7136 C   0  0  0  0  0  0  0  0  0  0  0  0
   12.0009   -0.0555   21.8263 C   0  0  0  0  0  0  0  0  0  0  0  0
   13.0845   -0.7455   20.6621 Cl  0  0  0  0  0  0  0  0  0  0  0  0
   10.6730   -0.4566   21.8237 C   0  0  0  0  0  0  0  0  0  0  0  0
    9.7841    0.0512   22.7783 C   0  0  0  0  0  0  0  0  0  0  0  0
    8.3154   -0.3574   22.7911 C   0  0  1  0  0  0  0  0  0  0  0  0
    7.7594   -0.0949   24.2103 C   0  0  0  0  0  0  0  0  0  0  0  0
    8.1265    1.1740   24.8054 N   0  0  0  0  0  0  0  0  0  0  0  0
    7.0366    2.0413   25.2482 C   0  0  0  0  0  0  0  0  0  0  0  0
    6.2584    1.4420   26.4110 C   0  0  0  0  0  0  0  0  0  0  0  0
    7.2038    1.2440   27.5546 N   0  0  0  0  0  4  0  0  0  0  0  0
    6.6825    0.6627   28.8469 C   0  0  0  0  0  0  0  0  0  0  0  0
    7.0501    1.9273   29.6661 C   0  0  0  0  0  0  0  0  0  0  0  0
    7.7378    1.7953   31.0365 C   0  0  0  0  0  0  0  0  0  0  0  0
    6.7128    2.5524   31.6801 O   0  0  0  0  0  0  0  0  0  0  0  0
    6.0081    2.7208   30.4491 C   0  0  0  0  0  0  0  0  0  0  0  0
    5.0075    2.2733   30.4755 H   0  0  0  0  0  0  0  0  0  0  0  0
    5.9415    3.7812   30.1774 H   0  0  0  0  0  0  0  0  0  0  0  0
    7.7795    0.7634   31.4091 H   0  0  0  0  0  0  0  0  0  0  0  0
    8.7161    2.2546   31.1831 H   0  0  0  0  0  0  0  0  0  0  0  0
    7.5822    2.5122   28.3243 C   0  0  0  0  0  0  0  0  0  0  0  0
    6.9995    3.3494   27.9501 H   0  0  0  0  0  0  0  0  0  0  0  0
    8.6367    2.7178   28.2057 H   0  0  0  0  0  0  0  0  0  0  0  0
    7.2411   -0.2344   29.1038 H   0  0  0  0  0  0  0  0  0  0  0  0
    5.6156    0.4558   28.7854 H   0  0  0  0  0  0  0  0  0  0  0  0
    8.0301    0.7378   27.1761 H   0  0  0  0  0  0  0  0  0  0  0  0
    5.4506    2.1152   26.7147 H   0  0  0  0  0  0  0  0  0  0  0  0
    5.8157    0.4696   26.1855 H   0  0  0  0  0  0  0  0  0  0  0  0
    7.5072    2.9827   25.5437 H   0  0  0  0  0  0  0  0  0  0  0  0
    6.3750    2.2353   24.3910 H   0  0  0  0  0  0  0  0  0  0  0  0
    8.0937   -0.9006   24.8720 H   0  0  0  0  0  0  0  0  0  0  0  0
    6.6752   -0.1165   24.1523 H   0  0  0  0  0  0  0  0  0  0  0  0
    7.5221    0.4742   21.7643 C   0  0  0  0  0  0  0  0  0  0  0  0
    7.4196    1.6824   21.7532 O   0  0  0  0  0  0  0  0  0  0  0  0
    6.9126   -0.3730   20.8626 N   0  0  0  0  0  0  0  0  0  0  0  0
    6.1295    0.0915   19.7860 C   0  0  0  0  0  0  0  0  0  0  0  0
    6.4452   -0.2406   18.4894 C   0  0  0  0  0  0  0  0  0  0  0  0
    5.7848    0.2130   17.3948 N   0  0  0  0  0  0  0  0  0  0  0  0
    4.7622    1.0080   17.5960 C   0  0  0  0  0  0  0  0  0  0  0  0
    4.2971    1.3897   18.8858 C   0  0  0  0  0  0  0  0  0  0  0  0
    3.1743    2.2440   19.0469 C   0  0  0  0  0  0  0  0  0  0  0  0
    2.7216    2.5716   20.2947 C   0  0  0  0  0  0  0  0  0  0  0  0
    3.3666    2.0562   21.4413 C   0  0  0  0  0  0  0  0  0  0  0  0
    4.4599    1.2388   21.3120 C   0  0  0  0  0  0  0  0  0  0  0  0
    4.9743    0.9060   20.0245 C   0  0  0  0  0  0  0  0  0  0  0  0
    4.9512    0.8655   22.2053 H   0  0  0  0  0  0  0  0  0  0  0  0
    3.0025    2.3196   22.4301 H   0  0  0  0  0  0  0  0  0  0  0  0
    1.8670    3.2319   20.4148 H   0  0  0  0  0  0  0  0  0  0  0  0
    2.6904    2.6342   18.1549 H   0  0  0  0  0  0  0  0  0  0  0  0
    4.2325    1.3825   16.7177 H   0  0  0  0  0  0  0  0  0  0  0  0
    7.2986   -0.8839   18.2816 H   0  0  0  0  0  0  0  0  0  0  0  0
    7.4212   -1.7268   20.9347 C   0  0  0  0  0  0  0  0  0  0  0  0
    8.0678   -1.8277   22.3255 C   0  0  2  0  0  0  0  0  0  0  0  0
    7.3092   -2.8013   23.2541 C   0  0  0  0  0  0  0  0  0  0  0  0
    5.9317   -2.4702   23.5516 N   0  0  0  0  0  0  0  0  0  0  0  0
    5.3977   -2.4215   24.8085 C   0  0  0  0  0  0  0  0  0  0  0  0
    4.0834   -2.1268   24.8592 N   0  0  0  0  0  0  0  0  0  0  0  0
    3.5783   -1.9586   26.0732 C   0  0  0  0  0  0  0  0  0  0  0  0
    4.3113   -2.1165   27.2408 C   0  0  0  0  0  0  0  0  0  0  0  0
    5.6380   -2.4621   27.0706 C   0  0  0  0  0  0  0  0  0  0  0  0
    6.2034   -2.6058   25.8651 N   0  0  0  0  0  0  0  0  0  0  0  0
    6.2902   -2.6303   27.9276 H   0  0  0  0  0  0  0  0  0  0  0  0
    3.8677   -1.9823   28.2204 H   0  0  0  0  0  0  0  0  0  0  0  0
    2.5293   -1.6760   26.0942 H   0  0  0  0  0  0  0  0  0  0  0  0
    5.2601   -2.3380   22.8110 H   0  0  0  0  0  0  0  0  0  0  0  0
    7.8227   -2.8605   24.2106 H   0  0  0  0  0  0  0  0  0  0  0  0
    7.3607   -3.8068   22.8093 H   0  0  0  0  0  0  0  0  0  0  0  0
    9.0449   -2.3070   22.2394 H   0  0  0  0  0  0  0  0  0  0  0  0
    6.6131   -2.4449   20.7732 H   0  0  0  0  0  0  0  0  0  0  0  0
    8.1787   -1.8922   20.1608 H   0  0  0  0  0  0  0  0  0  0  0  0
   10.3490   -1.1420   21.0477 H   0  0  0  0  0  0  0  0  0  0  0  0
   13.5123    1.2415   22.6597 H   0  0  0  0  0  0  0  0  0  0  0  0
   11.8865    2.2177   24.3154 H   0  0  0  0  0  0  0  0  0  0  0  0
  1  2  2  0
  2  3  1  0
  3  4  2  0
  4  5  1  0
  5  6  2  0
  6  7  1  0
  6  8  1  0
  8  9  2  0
  9 10  1  0
 10 11  1  1
 11 12  1  0
 12 13  1  0
 13 14  1  0
 14 15  1  0
 15 16  1  0
 16 17  1  0
 17 18  1  0
 18 19  1  0
 19 20  1  0
 20 21  1  0
 20 22  1  0
 18 23  1  0
 18 24  1  0
 17 25  1  0
 25 26  1  0
 25 27  1  0
 16 28  1  0
 16 29  1  0
 15 30  1  0
 14 31  1  0
 14 32  1  0
 13 33  1  0
 13 34  1  0
 11 35  1  0
 11 36  1  0
 10 37  1  0
 37 38  2  0
 37 39  1  0
 39 40  1  0
 40 41  2  0
 41 42  1  0
 42 43  2  0
 43 44  1  0
 44 45  2  0
 45 46  1  0
 46 47  2  0
 47 48  1  0
 48 49  2  0
 48 50  1  0
 47 51  1  0
 46 52  1  0
 45 53  1  0
 43 54  1  0
 41 55  1  0
 39 56  1  0
 56 57  1  0
 57 58  1  0
 58 59  1  0
 59 60  1  0
 60 61  2  0
 61 62  1  0
 62 63  2  0
 63 64  1  0
 64 65  2  0
 64 66  1  0
 63 67  1  0
 62 68  1  0
 59 69  1  0
 58 70  1  0
 58 71  1  0
 57 72  1  6
 56 73  1  0
 56 74  1  0
  8 75  1  0
  5 76  1  0
  4 77  1  0
 12  2  1  0
 25 15  1  0
 49 40  1  0
 65 60  1  0
  9  3  1  0
 57 10  1  0
 20 17  1  0
 49 44  1  0
M  CHG  1  15   1
M  END
>  <cnnaffinities>  (54) 
[6.6611, 6.53105]

>  <score>  (54) 
6.6611

>  <index>  (54) 
53

>  <Smiles>  (54) 
O=C1c2c(c(c(Cl)c(c2[C@@]2(C(N1C(C([N+]1(C(C3(C(OC3([H])[H])([H])[H])C1([H])[H])([H])[H])[H])([H])[H])([H])[H])([H])[H])C(=O)N(c1c(nc(c3c(c(c(c(c13)[H])[H])[H])[H])[H])[H])C([C@@]2(C(N(c1nc(c(c(n1)[H])[H])[H])[H])([H])[H])[H])([H])[H])[H])[H])[H]

>  <h>  (54) 
<NA>

>  <Training>  (54) 
True

>  <Success>  (54) 
True

>  <enamine_searched>  (54) 
False

>  <enamine_id>  (54) 
nan

$$$$

     RDKit          3D

 66 71  0  0  0  0  0  0  0  0999 V2000
    6.5463    4.4006   21.3728 C   0  0  0  0  0  0  0  0  0  0  0  0
    7.5368    3.9645   22.3496 N   0  0  0  0  0  0  0  0  0  0  0  0
    7.1052    3.3223   23.4727 C   0  0  0  0  0  0  0  0  0  0  0  0
    5.9174    3.1430   23.7105 O   0  0  0  0  0  0  0  0  0  0  0  0
    8.1970    2.8580   24.4435 C   0  0  0  0  0  0  0  0  0  0  0  0
    8.8453    1.6429   23.9693 N   0  0  0  0  0  0  0  0  0  0  0  0
    8.0523    0.4329   23.8053 C   0  0  0  0  0  0  0  0  0  0  0  0
    8.4605   -0.4005   22.5585 C   0  0  2  0  0  0  0  0  0  0  0  0
    8.0031    0.3214   21.2658 C   0  0  0  0  0  0  0  0  0  0  0  0
    8.4946    1.3119   20.7624 O   0  0  0  0  0  0  0  0  0  0  0  0
    6.9305   -0.3535   20.7390 N   0  0  0  0  0  0  0  0  0  0  0  0
    6.1590    0.1662   19.6795 C   0  0  0  0  0  0  0  0  0  0  0  0
    6.4707   -0.1621   18.3883 C   0  0  0  0  0  0  0  0  0  0  0  0
    5.7631    0.2508   17.3101 N   0  0  0  0  0  0  0  0  0  0  0  0
    4.7243    1.0211   17.5339 C   0  0  0  0  0  0  0  0  0  0  0  0
    4.2870    1.4277   18.8294 C   0  0  0  0  0  0  0  0  0  0  0  0
    3.1654    2.2784   19.0290 C   0  0  0  0  0  0  0  0  0  0  0  0
    2.7859    2.6463   20.2928 C   0  0  0  0  0  0  0  0  0  0  0  0
    3.5052    2.1855   21.4209 C   0  0  0  0  0  0  0  0  0  0  0  0
    4.5942    1.3638   21.2532 C   0  0  0  0  0  0  0  0  0  0  0  0
    5.0174    0.9748   19.9499 C   0  0  0  0  0  0  0  0  0  0  0  0
    5.1651    1.0444   22.1209 H   0  0  0  0  0  0  0  0  0  0  0  0
    3.2195    2.5038   22.4203 H   0  0  0  0  0  0  0  0  0  0  0  0
    1.9347    3.3074   20.4361 H   0  0  0  0  0  0  0  0  0  0  0  0
    2.6357    2.6431   18.1521 H   0  0  0  0  0  0  0  0  0  0  0  0
    4.1691    1.3709   16.6635 H   0  0  0  0  0  0  0  0  0  0  0  0
    7.3300   -0.7995   18.1919 H   0  0  0  0  0  0  0  0  0  0  0  0
    6.4701   -1.4678   21.5214 C   0  0  0  0  0  0  0  0  0  0  0  0
    7.6581   -1.7457   22.4467 C   0  0  2  0  0  0  0  0  0  0  0  0
    7.1884   -2.4414   23.7171 C   0  0  0  0  0  0  0  0  0  0  0  0
    8.3181   -2.9994   24.4157 N   0  0  0  0  0  0  0  0  0  0  0  0
    8.1740   -3.4422   25.6999 C   0  0  0  0  0  0  0  0  0  0  0  0
    9.2823   -3.9713   26.3993 C   0  0  0  0  0  0  0  0  0  0  0  0
    9.1954   -4.3155   27.6630 N   0  0  0  0  0  0  0  0  0  0  0  0
    8.0016   -4.1744   28.2560 C   0  0  0  0  0  0  0  0  0  0  0  0
    6.8865   -3.7881   27.5361 C   0  0  0  0  0  0  0  0  0  0  0  0
    6.9623   -3.4010   26.2572 N   0  0  0  0  0  0  0  0  0  0  0  0
    5.8935   -3.7906   27.9869 H   0  0  0  0  0  0  0  0  0  0  0  0
    7.9692   -4.3409   29.3234 H   0  0  0  0  0  0  0  0  0  0  0  0
   10.2516   -4.0967   25.9190 H   0  0  0  0  0  0  0  0  0  0  0  0
    9.2367   -2.6638   24.1556 H   0  0  0  0  0  0  0  0  0  0  0  0
    6.4896   -3.2526   23.4734 H   0  0  0  0  0  0  0  0  0  0  0  0
    6.6245   -1.7644   24.3740 H   0  0  0  0  0  0  0  0  0  0  0  0
    8.3070   -2.4561   21.9245 H   0  0  0  0  0  0  0  0  0  0  0  0
    6.2349   -2.3215   20.8747 H   0  0  0  0  0  0  0  0  0  0  0  0
    5.5459   -1.2235   22.0703 H   0  0  0  0  0  0  0  0  0  0  0  0
    9.9783   -0.5002   22.4966 C   0  0  0  0  0  0  0  0  0  0  0  0
   10.5942   -1.3831   21.5937 C   0  0  0  0  0  0  0  0  0  0  0  0
   11.9546   -1.3009   21.3511 C   0  0  0  0  0  0  0  0  0  0  0  0
   12.6446   -2.3115   20.1108 Cl  0  0  0  0  0  0  0  0  0  0  0  0
   12.7601   -0.3900   22.0361 C   0  0  0  0  0  0  0  0  0  0  0  0
   12.1695    0.4500   22.9523 C   0  0  0  0  0  0  0  0  0  0  0  0
   10.7879    0.4512   23.1388 C   0  0  0  0  0  0  0  0  0  0  0  0
   10.2105    1.5994   23.9149 C   0  0  0  0  0  0  0  0  0  0  0  0
   10.9195    2.4716   24.4049 O   0  0  0  0  0  0  0  0  0  0  0  0
   12.7788    1.1450   23.5161 H   0  0  0  0  0  0  0  0  0  0  0  0
   13.8238   -0.3058   21.8424 H   0  0  0  0  0  0  0  0  0  0  0  0
   10.0336   -2.1006   21.0042 H   0  0  0  0  0  0  0  0  0  0  0  0
    7.0089    0.7368   23.7041 H   0  0  0  0  0  0  0  0  0  0  0  0
    8.1434   -0.1867   24.7089 H   0  0  0  0  0  0  0  0  0  0  0  0
    8.9859    3.6110   24.5446 H   0  0  0  0  0  0  0  0  0  0  0  0
    7.7451    2.7253   25.4361 H   0  0  0  0  0  0  0  0  0  0  0  0
    8.4663    3.7410   22.0125 H   0  0  0  0  0  0  0  0  0  0  0  0
    6.9629    5.2074   20.7619 H   0  0  0  0  0  0  0  0  0  0  0  0
    5.6769    4.7851   21.9157 H   0  0  0  0  0  0  0  0  0  0  0  0
    6.2048    3.5647   20.7379 H   0  0  0  0  0  0  0  0  0  0  0  0
  1  2  1  0
  2  3  1  0
  3  4  2  0
  3  5  1  0
  5  6  1  0
  6  7  1  0
  8  7  1  1
  8  9  1  0
  9 10  2  0
  9 11  1  0
 11 12  1  0
 12 13  2  0
 13 14  1  0
 14 15  2  0
 15 16  1  0
 16 17  2  0
 17 18  1  0
 18 19  2  0
 19 20  1  0
 20 21  2  0
 20 22  1  0
 19 23  1  0
 18 24  1  0
 17 25  1  0
 15 26  1  0
 13 27  1  0
 11 28  1  0
 28 29  1  0
 29 30  1  0
 30 31  1  0
 31 32  1  0
 32 33  2  0
 33 34  1  0
 34 35  2  0
 35 36  1  0
 36 37  2  0
 36 38  1  0
 35 39  1  0
 33 40  1  0
 31 41  1  0
 30 42  1  0
 30 43  1  0
 29 44  1  6
 28 45  1  0
 28 46  1  0
  8 47  1  0
 47 48  2  0
 48 49  1  0
 49 50  1  0
 49 51  2  0
 51 52  1  0
 52 53  2  0
 53 54  1  0
 54 55  2  0
 52 56  1  0
 51 57  1  0
 48 58  1  0
  7 59  1  0
  7 60  1  0
  5 61  1  0
  5 62  1  0
  2 63  1  0
  1 64  1  0
  1 65  1  0
  1 66  1  0
 54  6  1  0
 29  8  1  0
 37 32  1  0
 53 47  1  0
 21 12  1  0
 21 16  1  0
M  END
>  <cnnaffinities>  (55) 
[6.68088, 6.7866]

>  <score>  (55) 
6.68088

>  <index>  (55) 
54

>  <Smiles>  (55) 
C(N(C(=O)C(N1C([C@@]2(C(=O)N(c3c(nc(c4c(c(c(c(c34)[H])[H])[H])[H])[H])[H])C([C@@]2(C(N(c2c(nc(c(n2)[H])[H])[H])[H])([H])[H])[H])([H])[H])c2c(c(Cl)c(c(c2C1=O)[H])[H])[H])([H])[H])([H])[H])[H])([H])([H])[H]

>  <h>  (55) 
<NA>

>  <Training>  (55) 
True

>  <Success>  (55) 
True

>  <enamine_searched>  (55) 
False

>  <enamine_id>  (55) 
nan

$$$$

     RDKit          3D

 56 61  0  0  0  0  0  0  0  0999 V2000
    5.5677    4.8346   21.4520 C   0  0  0  0  0  0  0  0  0  0  0  0
    6.5796    4.5705   22.4604 N   0  0  0  0  0  0  0  0  0  0  0  0
    7.7848    5.1680   22.5692 C   0  0  0  0  0  0  0  0  0  0  0  0
    8.4628    4.5263   23.5772 C   0  0  0  0  0  0  0  0  0  0  0  0
    7.5825    3.5107   24.0089 C   0  0  0  0  0  0  0  0  0  0  0  0
    7.8892    2.4355   25.0252 C   0  0  0  0  0  0  0  0  0  0  0  0
    8.6633    1.3133   24.4831 N   0  0  0  0  0  0  0  0  0  0  0  0
    8.0003    0.0702   24.1480 C   0  0  0  0  0  0  0  0  0  0  0  0
    8.3647   -0.4399   22.7324 C   0  0  1  0  0  0  0  0  0  0  0  0
    7.7371   -1.8367   22.5251 C   0  0  0  0  0  0  0  0  0  0  0  0
    6.9850   -1.8152   21.1798 C   0  0  0  0  0  0  0  0  0  0  0  0
    6.8736   -0.4025   20.8745 N   0  0  0  0  0  0  0  0  0  0  0  0
    6.1290    0.1048   19.7779 C   0  0  0  0  0  0  0  0  0  0  0  0
    6.4466   -0.2266   18.4850 C   0  0  0  0  0  0  0  0  0  0  0  0
    5.7752    0.2210   17.3932 N   0  0  0  0  0  0  0  0  0  0  0  0
    4.7525    1.0163   17.5972 C   0  0  0  0  0  0  0  0  0  0  0  0
    4.2969    1.4239   18.8816 C   0  0  0  0  0  0  0  0  0  0  0  0
    3.1651    2.2671   19.0596 C   0  0  0  0  0  0  0  0  0  0  0  0
    2.7372    2.6055   20.3133 C   0  0  0  0  0  0  0  0  0  0  0  0
    3.4188    2.1162   21.4507 C   0  0  0  0  0  0  0  0  0  0  0  0
    4.5194    1.3113   21.3054 C   0  0  0  0  0  0  0  0  0  0  0  0
    5.0006    0.9527   20.0158 C   0  0  0  0  0  0  0  0  0  0  0  0
    5.0285    0.9372   22.1881 H   0  0  0  0  0  0  0  0  0  0  0  0
    3.0808    2.3916   22.4470 H   0  0  0  0  0  0  0  0  0  0  0  0
    1.8743    3.2531   20.4434 H   0  0  0  0  0  0  0  0  0  0  0  0
    2.6538    2.6349   18.1743 H   0  0  0  0  0  0  0  0  0  0  0  0
    4.2258    1.3784   16.7142 H   0  0  0  0  0  0  0  0  0  0  0  0
    7.2911   -0.8795   18.2659 H   0  0  0  0  0  0  0  0  0  0  0  0
    7.7079    0.4098   21.6116 C   0  0  0  0  0  0  0  0  0  0  0  0
    7.8959    1.5795   21.3760 O   0  0  0  0  0  0  0  0  0  0  0  0
    5.9845   -2.2614   21.2410 H   0  0  0  0  0  0  0  0  0  0  0  0
    7.5393   -2.3400   20.3979 H   0  0  0  0  0  0  0  0  0  0  0  0
    8.4932   -2.6251   22.5678 H   0  0  0  0  0  0  0  0  0  0  0  0
    7.0296   -2.0379   23.3369 H   0  0  0  0  0  0  0  0  0  0  0  0
    9.8680   -0.3846   22.5719 C   0  0  0  0  0  0  0  0  0  0  0  0
   10.4826   -1.1628   21.5844 C   0  0  0  0  0  0  0  0  0  0  0  0
   11.8477   -1.0752   21.3890 C   0  0  0  0  0  0  0  0  0  0  0  0
   12.6054   -2.0482   20.1612 Cl  0  0  0  0  0  0  0  0  0  0  0  0
   12.6284   -0.2102   22.1535 C   0  0  0  0  0  0  0  0  0  0  0  0
   12.0188    0.5891   23.1006 C   0  0  0  0  0  0  0  0  0  0  0  0
   10.6421    0.5175   23.3122 C   0  0  0  0  0  0  0  0  0  0  0  0
   10.0102    1.4787   24.2840 C   0  0  0  0  0  0  0  0  0  0  0  0
   10.6407    2.3781   24.8262 O   0  0  0  0  0  0  0  0  0  0  0  0
   12.5882    1.2963   23.6922 H   0  0  0  0  0  0  0  0  0  0  0  0
   13.6983   -0.1783   21.9877 H   0  0  0  0  0  0  0  0  0  0  0  0
    9.9125   -1.8353   20.9501 H   0  0  0  0  0  0  0  0  0  0  0  0
    8.2574   -0.7193   24.8759 H   0  0  0  0  0  0  0  0  0  0  0  0
    6.9227    0.2552   24.1819 H   0  0  0  0  0  0  0  0  0  0  0  0
    6.9559    2.0368   25.4431 H   0  0  0  0  0  0  0  0  0  0  0  0
    8.4847    2.8667   25.8354 H   0  0  0  0  0  0  0  0  0  0  0  0
    6.4282    3.5670   23.3479 N   0  0  0  0  0  0  0  0  0  0  0  0
    9.4553    4.7057   23.9631 H   0  0  0  0  0  0  0  0  0  0  0  0
    8.0593    5.9769   21.9031 H   0  0  0  0  0  0  0  0  0  0  0  0
    4.5847    4.7747   21.9259 H   0  0  0  0  0  0  0  0  0  0  0  0
    5.7334    5.8470   21.0665 H   0  0  0  0  0  0  0  0  0  0  0  0
    5.6134    4.1003   20.6345 H   0  0  0  0  0  0  0  0  0  0  0  0
  1  2  1  0
  2  3  1  0
  3  4  2  0
  4  5  1  0
  5  6  1  0
  6  7  1  0
  7  8  1  0
  9  8  1  1
  9 10  1  0
 10 11  1  0
 11 12  1  0
 12 13  1  0
 13 14  2  0
 14 15  1  0
 15 16  2  0
 16 17  1  0
 17 18  2  0
 18 19  1  0
 19 20  2  0
 20 21  1  0
 21 22  2  0
 21 23  1  0
 20 24  1  0
 19 25  1  0
 18 26  1  0
 16 27  1  0
 14 28  1  0
 12 29  1  0
 29 30  2  0
 11 31  1  0
 11 32  1  0
 10 33  1  0
 10 34  1  0
  9 35  1  0
 35 36  2  0
 36 37  1  0
 37 38  1  0
 37 39  2  0
 39 40  1  0
 40 41  2  0
 41 42  1  0
 42 43  2  0
 40 44  1  0
 39 45  1  0
 36 46  1  0
  8 47  1  0
  8 48  1  0
  6 49  1  0
  6 50  1  0
  5 51  2  0
  4 52  1  0
  3 53  1  0
  1 54  1  0
  1 55  1  0
  1 56  1  0
 51  2  1  0
 42  7  1  0
 29  9  1  0
 41 35  1  0
 22 13  1  0
 22 17  1  0
M  END
>  <cnnaffinities>  (56) 
[6.70762]

>  <score>  (56) 
6.70762

>  <index>  (56) 
55

>  <Smiles>  (56) 
C(n1c(c(c(C(N2C([C@]3(C(C(N(c4c(nc(c5c(c(c(c(c45)[H])[H])[H])[H])[H])[H])C3=O)([H])[H])([H])[H])c3c(c(Cl)c(c(c3C2=O)[H])[H])[H])([H])[H])([H])[H])n1)[H])[H])([H])([H])[H]

>  <h>  (56) 
<NA>

>  <Training>  (56) 
True

>  <Success>  (56) 
True

>  <enamine_searched>  (56) 
False

>  <enamine_id>  (56) 
nan

$$$$

     RDKit          3D

 41 43  0  0  0  0  0  0  0  0999 V2000
    8.1233    1.6606   20.9606 O   0  0  0  0  0  0  0  0  0  0  0  0
    7.9113    0.6152   21.5545 C   0  0  0  0  0  0  0  0  0  0  0  0
    6.9587   -0.4375   20.9443 C   0  0  0  0  0  0  0  0  0  0  0  0
    6.1327    0.0907   19.7933 C   0  0  0  0  0  0  0  0  0  0  0  0
    6.4495   -0.2091   18.4947 C   0  0  0  0  0  0  0  0  0  0  0  0
    5.7851    0.2334   17.3906 N   0  0  0  0  0  0  0  0  0  0  0  0
    4.7558    1.0202   17.5940 C   0  0  0  0  0  0  0  0  0  0  0  0
    4.3052    1.4188   18.8802 C   0  0  0  0  0  0  0  0  0  0  0  0
    3.1854    2.2733   19.0462 C   0  0  0  0  0  0  0  0  0  0  0  0
    2.7788    2.6397   20.3022 C   0  0  0  0  0  0  0  0  0  0  0  0
    3.4722    2.1674   21.4386 C   0  0  0  0  0  0  0  0  0  0  0  0
    4.5559    1.3375   21.3011 C   0  0  0  0  0  0  0  0  0  0  0  0
    5.0067    0.9430   20.0130 C   0  0  0  0  0  0  0  0  0  0  0  0
    5.0794    0.9799   22.1848 H   0  0  0  0  0  0  0  0  0  0  0  0
    3.1436    2.4664   22.4307 H   0  0  0  0  0  0  0  0  0  0  0  0
    1.9267    3.2990   20.4280 H   0  0  0  0  0  0  0  0  0  0  0  0
    2.6696    2.6310   18.1582 H   0  0  0  0  0  0  0  0  0  0  0  0
    4.2186    1.3776   16.7139 H   0  0  0  0  0  0  0  0  0  0  0  0
    7.2950   -0.8616   18.2712 H   0  0  0  0  0  0  0  0  0  0  0  0
    7.5894   -1.2601   20.5785 H   0  0  0  0  0  0  0  0  0  0  0  0
    6.3122   -0.8651   21.7188 H   0  0  0  0  0  0  0  0  0  0  0  0
    8.5133    0.3399   22.7686 N   0  0  0  0  0  0  0  0  0  0  0  0
    9.3404    1.3872   23.3736 C   0  0  0  0  0  0  0  0  0  0  0  0
   10.7416    1.4551   22.7739 C   0  0  0  0  0  0  0  0  0  0  0  0
   11.7011    0.2990   23.0672 C   0  0  0  0  0  0  0  0  0  0  0  0
   11.1408   -1.3874   22.6976 S   0  0  0  0  0  0  0  0  0  0  0  0
    9.8170   -1.4673   23.9308 C   0  0  0  0  0  0  0  0  0  0  0  0
    8.4637   -0.9520   23.4186 C   0  0  1  0  0  0  0  0  0  0  0  0
    7.4622   -0.8856   24.5671 C   0  0  0  0  0  0  0  0  0  0  0  0
    7.2776   -2.0891   25.1315 F   0  0  0  0  0  0  0  0  0  0  0  0
    6.2773   -0.4370   24.1273 F   0  0  0  0  0  0  0  0  0  0  0  0
    7.8672   -0.0443   25.5409 F   0  0  0  0  0  0  0  0  0  0  0  0
    8.0680   -1.6765   22.7023 H   0  0  0  0  0  0  0  0  0  0  0  0
    9.7068   -2.5100   24.2438 H   0  0  0  0  0  0  0  0  0  0  0  0
   10.1356   -0.8830   24.7999 H   0  0  0  0  0  0  0  0  0  0  0  0
   12.6363    0.4381   22.5121 H   0  0  0  0  0  0  0  0  0  0  0  0
   11.9690    0.3340   24.1310 H   0  0  0  0  0  0  0  0  0  0  0  0
   10.6004    1.6311   21.7043 H   0  0  0  0  0  0  0  0  0  0  0  0
   11.2138    2.3617   23.1556 H   0  0  0  0  0  0  0  0  0  0  0  0
    8.8469    2.3374   23.1572 H   0  0  0  0  0  0  0  0  0  0  0  0
    9.3340    1.2640   24.4627 H   0  0  0  0  0  0  0  0  0  0  0  0
  1  2  2  0
  2  3  1  0
  3  4  1  0
  4  5  2  0
  5  6  1  0
  6  7  2  0
  7  8  1  0
  8  9  2  0
  9 10  1  0
 10 11  2  0
 11 12  1  0
 12 13  2  0
 12 14  1  0
 11 15  1  0
 10 16  1  0
  9 17  1  0
  7 18  1  0
  5 19  1  0
  3 20  1  0
  3 21  1  0
  2 22  1  0
 22 23  1  0
 23 24  1  0
 24 25  1  0
 25 26  1  0
 26 27  1  0
 27 28  1  0
 28 29  1  0
 29 30  1  0
 29 31  1  0
 29 32  1  0
 28 33  1  6
 27 34  1  0
 27 35  1  0
 25 36  1  0
 25 37  1  0
 24 38  1  0
 24 39  1  0
 23 40  1  0
 23 41  1  0
 13  4  1  0
 28 22  1  0
 13  8  1  0
M  END
>  <cnnaffinities>  (57) 
[5.92936, 5.92937, 5.92951, 5.8079, 5.80793, 5.80796]

>  <score>  (57) 
5.92936

>  <index>  (57) 
56

>  <Smiles>  (57) 
O=C(C(c1c(nc(c2c(c(c(c(c12)[H])[H])[H])[H])[H])[H])([H])[H])N1C(C(C(SC([C@]1(C(F)(F)F)[H])([H])[H])([H])[H])([H])[H])([H])[H]

>  <h>  (57) 
<NA>

>  <Training>  (57) 
True

>  <Success>  (57) 
True

>  <enamine_searched>  (57) 
False

>  <enamine_id>  (57) 
nan

$$$$

     RDKit          3D

 67 72  0  0  0  0  0  0  0  0999 V2000
    6.5060    4.3942   21.4116 C   0  0  0  0  0  0  0  0  0  0  0  0
    7.4732    3.9468   22.4054 N   0  0  0  0  0  0  0  0  0  0  0  0
    7.0144    3.3073   23.5184 C   0  0  0  0  0  0  0  0  0  0  0  0
    5.8223    3.1444   23.7375 O   0  0  0  0  0  0  0  0  0  0  0  0
    8.0888    2.8207   24.5071 C   0  0  0  0  0  0  0  0  0  0  0  0
    8.7746    1.6381   24.0013 N   0  0  0  0  0  0  0  0  0  0  0  0
    8.0185    0.4017   23.8476 C   0  0  0  0  0  0  0  0  0  0  0  0
    8.4421   -0.3987   22.5868 C   0  0  2  0  0  0  0  0  0  0  0  0
    7.9098    0.2794   21.3081 C   0  0  0  0  0  0  0  0  0  0  0  0
    8.3543    1.2720   20.7642 O   0  0  0  0  0  0  0  0  0  0  0  0
    6.8376   -0.4398   20.8361 N   0  0  0  0  0  0  0  0  0  0  0  0
    6.0916    0.0725   19.7510 C   0  0  0  0  0  0  0  0  0  0  0  0
    6.4606   -0.2146   18.4632 C   0  0  0  0  0  0  0  0  0  0  0  0
    5.7930    0.2267   17.3694 N   0  0  0  0  0  0  0  0  0  0  0  0
    4.7500    0.9983   17.5688 C   0  0  0  0  0  0  0  0  0  0  0  0
    4.2822    1.3988   18.8549 C   0  0  0  0  0  0  0  0  0  0  0  0
    3.1679    2.2626   19.0344 C   0  0  0  0  0  0  0  0  0  0  0  0
    2.7719    2.6396   20.2902 C   0  0  0  0  0  0  0  0  0  0  0  0
    3.4778    2.1870   21.4298 C   0  0  0  0  0  0  0  0  0  0  0  0
    4.5606    1.3542   21.2830 C   0  0  0  0  0  0  0  0  0  0  0  0
    4.9814    0.9320   19.9910 C   0  0  0  0  0  0  0  0  0  0  0  0
    5.1335    1.0507   22.1557 H   0  0  0  0  0  0  0  0  0  0  0  0
    3.1910    2.5224   22.4226 H   0  0  0  0  0  0  0  0  0  0  0  0
    1.9211    3.3038   20.4192 H   0  0  0  0  0  0  0  0  0  0  0  0
    2.6533    2.6275   18.1491 H   0  0  0  0  0  0  0  0  0  0  0  0
    4.2193    1.3577   16.6852 H   0  0  0  0  0  0  0  0  0  0  0  0
    7.3386   -0.8296   18.2751 H   0  0  0  0  0  0  0  0  0  0  0  0
    6.4724   -1.5801   21.6507 C   0  0  0  0  0  0  0  0  0  0  0  0
    7.7496   -1.7848   22.4839 C   0  0  2  0  0  0  0  0  0  0  0  0
    7.5241   -2.5660   23.7736 C   0  0  0  0  0  0  0  0  0  0  0  0
    7.1145   -3.9166   23.4780 N   0  0  0  0  0  0  0  0  0  0  0  0
    5.7983   -4.2990   23.4790 C   0  0  0  0  0  0  0  0  0  0  0  0
    4.7487   -3.7051   24.1132 C   0  0  0  0  0  0  0  0  0  0  0  0
    3.5354   -4.3399   24.0183 N   0  0  0  0  0  0  0  0  0  0  0  0
    3.6178   -5.3974   23.2764 C   0  0  0  0  0  0  0  0  0  0  0  0
    2.4493   -6.2507   22.9137 C   0  0  0  0  0  0  0  0  0  0  0  0
    2.1894   -6.1195   21.8598 H   0  0  0  0  0  0  0  0  0  0  0  0
    2.6246   -7.3154   23.0982 H   0  0  0  0  0  0  0  0  0  0  0  0
    1.6018   -5.9034   23.5007 H   0  0  0  0  0  0  0  0  0  0  0  0
    5.2177   -5.7453   22.6808 S   0  0  0  0  0  0  0  0  0  0  0  0
    4.8230   -2.7982   24.7051 H   0  0  0  0  0  0  0  0  0  0  0  0
    7.8225   -4.6144   23.3381 H   0  0  0  0  0  0  0  0  0  0  0  0
    8.4243   -2.5651   24.4028 H   0  0  0  0  0  0  0  0  0  0  0  0
    6.7276   -2.0948   24.3478 H   0  0  0  0  0  0  0  0  0  0  0  0
    8.4092   -2.4004   21.8726 H   0  0  0  0  0  0  0  0  0  0  0  0
    5.5833   -1.3776   22.2716 H   0  0  0  0  0  0  0  0  0  0  0  0
    6.2303   -2.4570   21.0408 H   0  0  0  0  0  0  0  0  0  0  0  0
    9.9541   -0.4407   22.5053 C   0  0  0  0  0  0  0  0  0  0  0  0
   10.5820   -1.2899   21.5842 C   0  0  0  0  0  0  0  0  0  0  0  0
   11.9465   -1.2320   21.3871 C   0  0  0  0  0  0  0  0  0  0  0  0
   12.6480   -2.2298   20.1436 Cl  0  0  0  0  0  0  0  0  0  0  0  0
   12.7459   -0.3707   22.1376 C   0  0  0  0  0  0  0  0  0  0  0  0
   12.1360    0.4619   23.0489 C   0  0  0  0  0  0  0  0  0  0  0  0
   10.7498    0.4868   23.1839 C   0  0  0  0  0  0  0  0  0  0  0  0
   10.1455    1.6218   23.9592 C   0  0  0  0  0  0  0  0  0  0  0  0
   10.8322    2.5029   24.4602 O   0  0  0  0  0  0  0  0  0  0  0  0
   12.7157    1.1350   23.6652 H   0  0  0  0  0  0  0  0  0  0  0  0
   13.8186   -0.3338   21.9995 H   0  0  0  0  0  0  0  0  0  0  0  0
   10.0310   -1.9811   20.9601 H   0  0  0  0  0  0  0  0  0  0  0  0
    6.9589    0.6631   23.7769 H   0  0  0  0  0  0  0  0  0  0  0  0
    8.1639   -0.2183   24.7441 H   0  0  0  0  0  0  0  0  0  0  0  0
    8.8676    3.5759   24.6703 H   0  0  0  0  0  0  0  0  0  0  0  0
    7.5992    2.6298   25.4758 H   0  0  0  0  0  0  0  0  0  0  0  0
    8.3964    3.6823   22.0835 H   0  0  0  0  0  0  0  0  0  0  0  0
    6.1372    3.5544   20.8010 H   0  0  0  0  0  0  0  0  0  0  0  0
    5.6413    4.8146   21.9345 H   0  0  0  0  0  0  0  0  0  0  0  0
    6.9639    5.1580   20.7690 H   0  0  0  0  0  0  0  0  0  0  0  0
  1  2  1  0
  2  3  1  0
  3  4  2  0
  3  5  1  0
  5  6  1  0
  6  7  1  0
  8  7  1  1
  8  9  1  0
  9 10  2  0
  9 11  1  0
 11 12  1  0
 12 13  2  0
 13 14  1  0
 14 15  2  0
 15 16  1  0
 16 17  2  0
 17 18  1  0
 18 19  2  0
 19 20  1  0
 20 21  2  0
 20 22  1  0
 19 23  1  0
 18 24  1  0
 17 25  1  0
 15 26  1  0
 13 27  1  0
 11 28  1  0
 28 29  1  0
 29 30  1  0
 30 31  1  0
 31 32  1  0
 32 33  2  0
 33 34  1  0
 34 35  2  0
 35 36  1  0
 36 37  1  0
 36 38  1  0
 36 39  1  0
 35 40  1  0
 33 41  1  0
 31 42  1  0
 30 43  1  0
 30 44  1  0
 29 45  1  6
 28 46  1  0
 28 47  1  0
  8 48  1  0
 48 49  2  0
 49 50  1  0
 50 51  1  0
 50 52  2  0
 52 53  1  0
 53 54  2  0
 54 55  1  0
 55 56  2  0
 53 57  1  0
 52 58  1  0
 49 59  1  0
  7 60  1  0
  7 61  1  0
  5 62  1  0
  5 63  1  0
  2 64  1  0
  1 65  1  0
  1 66  1  0
  1 67  1  0
 55  6  1  0
 29  8  1  0
 40 32  1  0
 54 48  1  0
 21 12  1  0
 21 16  1  0
M  END
>  <cnnaffinities>  (58) 
[7.17585]

>  <score>  (58) 
7.17585

>  <index>  (58) 
57

>  <Smiles>  (58) 
C(N(C(=O)C(N1C([C@@]2(C(=O)N(c3c(nc(c4c(c(c(c(c34)[H])[H])[H])[H])[H])[H])C([C@@]2(C(N(c2c(nc(C([H])([H])[H])s2)[H])[H])([H])[H])[H])([H])[H])c2c(c(Cl)c(c(c2C1=O)[H])[H])[H])([H])[H])([H])[H])[H])([H])([H])[H]

>  <h>  (58) 
<NA>

>  <Training>  (58) 
True

>  <Success>  (58) 
True

>  <enamine_searched>  (58) 
False

>  <enamine_id>  (58) 
nan

$$$$

     RDKit          3D

 57 62  0  0  0  0  0  0  0  0999 V2000
    7.0129   -2.2954   23.6157 C   0  0  0  0  0  0  0  0  0  0  0  0
    7.8838   -1.8757   22.4177 C   0  0  1  0  0  0  0  0  0  0  0  0
    7.0248   -1.7991   21.1380 C   0  0  0  0  0  0  0  0  0  0  0  0
    6.8843   -0.3896   20.8702 N   0  0  0  0  0  0  0  0  0  0  0  0
    6.1260    0.1025   19.7807 C   0  0  0  0  0  0  0  0  0  0  0  0
    6.4449   -0.2312   18.4852 C   0  0  0  0  0  0  0  0  0  0  0  0
    5.7779    0.2194   17.3937 N   0  0  0  0  0  0  0  0  0  0  0  0
    4.7535    1.0136   17.6001 C   0  0  0  0  0  0  0  0  0  0  0  0
    4.2983    1.4129   18.8909 C   0  0  0  0  0  0  0  0  0  0  0  0
    3.1684    2.2586   19.0559 C   0  0  0  0  0  0  0  0  0  0  0  0
    2.7305    2.5912   20.3101 C   0  0  0  0  0  0  0  0  0  0  0  0
    3.3970    2.0931   21.4499 C   0  0  0  0  0  0  0  0  0  0  0  0
    4.5104    1.2982   21.3179 C   0  0  0  0  0  0  0  0  0  0  0  0
    4.9925    0.9408   20.0259 C   0  0  0  0  0  0  0  0  0  0  0  0
    5.0338    0.9452   22.2003 H   0  0  0  0  0  0  0  0  0  0  0  0
    3.0378    2.3602   22.4409 H   0  0  0  0  0  0  0  0  0  0  0  0
    1.8752    3.2484   20.4398 H   0  0  0  0  0  0  0  0  0  0  0  0
    2.6663    2.6317   18.1683 H   0  0  0  0  0  0  0  0  0  0  0  0
    4.2269    1.3757   16.7183 H   0  0  0  0  0  0  0  0  0  0  0  0
    7.2956   -0.8783   18.2679 H   0  0  0  0  0  0  0  0  0  0  0  0
    7.7996    0.4022   21.5300 C   0  0  0  0  0  0  0  0  0  0  0  0
    7.9348    1.5870   21.3276 O   0  0  0  0  0  0  0  0  0  0  0  0
    8.5983   -0.4801   22.5223 C   0  0  1  0  0  0  0  0  0  0  0  0
    8.5355    0.0958   23.9527 C   0  0  0  0  0  0  0  0  0  0  0  0
    9.2926    1.3226   24.1035 N   0  0  0  0  0  0  0  0  0  0  0  0
    8.7014    2.4480   24.8037 C   0  0  0  0  0  0  0  0  0  0  0  0
    8.0333    3.4208   23.8605 C   0  0  0  0  0  0  0  0  0  0  0  0
    8.7984    4.3680   23.1754 C   0  0  0  0  0  0  0  0  0  0  0  0
    8.1046    5.2263   22.3354 C   0  0  0  0  0  0  0  0  0  0  0  0
    6.7747    5.1712   22.2029 N   0  0  0  0  0  0  0  0  0  0  0  0
    6.1602    4.2238   22.9003 C   0  0  0  0  0  0  0  0  0  0  0  0
    6.7039    3.3261   23.7178 N   0  0  0  0  0  0  0  0  0  0  0  0
    5.0813    4.1697   22.7789 H   0  0  0  0  0  0  0  0  0  0  0  0
    8.6140    5.9878   21.7439 H   0  0  0  0  0  0  0  0  0  0  0  0
    9.8788    4.4173   23.3211 H   0  0  0  0  0  0  0  0  0  0  0  0
    9.5282    2.9263   25.3369 H   0  0  0  0  0  0  0  0  0  0  0  0
    7.9666    2.0585   25.5144 H   0  0  0  0  0  0  0  0  0  0  0  0
   10.5611    1.4743   23.6317 C   0  0  0  0  0  0  0  0  0  0  0  0
   11.2837    2.3998   23.9850 O   0  0  0  0  0  0  0  0  0  0  0  0
   10.9859    0.4522   22.6396 C   0  0  0  0  0  0  0  0  0  0  0  0
   12.3136    0.5087   22.2226 C   0  0  0  0  0  0  0  0  0  0  0  0
   12.7753   -0.3951   21.2911 C   0  0  0  0  0  0  0  0  0  0  0  0
   11.8979   -1.3657   20.8265 C   0  0  0  0  0  0  0  0  0  0  0  0
   12.4038   -2.3045   20.0064 F   0  0  0  0  0  0  0  0  0  0  0  0
   10.5564   -1.3954   21.1746 C   0  0  0  0  0  0  0  0  0  0  0  0
   10.0802   -0.4920   22.1282 C   0  0  0  0  0  0  0  0  0  0  0  0
    9.8827   -2.0765   20.6639 H   0  0  0  0  0  0  0  0  0  0  0  0
   13.7829   -0.3727   20.8988 H   0  0  0  0  0  0  0  0  0  0  0  0
   12.9338    1.2789   22.6693 H   0  0  0  0  0  0  0  0  0  0  0  0
    7.5018    0.3432   24.2021 H   0  0  0  0  0  0  0  0  0  0  0  0
    8.9204   -0.6731   24.6408 H   0  0  0  0  0  0  0  0  0  0  0  0
    7.5041   -2.2995   20.2949 H   0  0  0  0  0  0  0  0  0  0  0  0
    6.0369   -2.2536   21.2731 H   0  0  0  0  0  0  0  0  0  0  0  0
    8.6537   -2.6484   22.3172 H   0  0  0  0  0  0  0  0  0  0  0  0
    6.1988   -1.5880   23.8072 H   0  0  0  0  0  0  0  0  0  0  0  0
    6.5561   -3.2703   23.4186 H   0  0  0  0  0  0  0  0  0  0  0  0
    7.5939   -2.4007   24.5359 H   0  0  0  0  0  0  0  0  0  0  0  0
  1  2  1  0
  2  3  1  0
  3  4  1  0
  4  5  1  0
  5  6  2  0
  6  7  1  0
  7  8  2  0
  8  9  1  0
  9 10  2  0
 10 11  1  0
 11 12  2  0
 12 13  1  0
 13 14  2  0
 13 15  1  0
 12 16  1  0
 11 17  1  0
 10 18  1  0
  8 19  1  0
  6 20  1  0
  4 21  1  0
 21 22  2  0
 21 23  1  0
 23 24  1  1
 24 25  1  0
 25 26  1  0
 26 27  1  0
 27 28  2  0
 28 29  1  0
 29 30  2  0
 30 31  1  0
 31 32  2  0
 31 33  1  0
 29 34  1  0
 28 35  1  0
 26 36  1  0
 26 37  1  0
 25 38  1  0
 38 39  2  0
 38 40  1  0
 40 41  2  0
 41 42  1  0
 42 43  2  0
 43 44  1  0
 43 45  1  0
 45 46  2  0
 45 47  1  0
 42 48  1  0
 41 49  1  0
 24 50  1  0
 24 51  1  0
  3 52  1  0
  3 53  1  0
  2 54  1  6
  1 55  1  0
  1 56  1  0
  1 57  1  0
 23  2  1  0
 32 27  1  0
 46 40  1  0
 14  5  1  0
 46 23  1  0
 14  9  1  0
M  END
>  <cnnaffinities>  (59) 
[6.73024, 6.77573]

>  <score>  (59) 
6.73024

>  <index>  (59) 
58

>  <Smiles>  (59) 
C([C@]1(C(N(c2c(nc(c3c(c(c(c(c23)[H])[H])[H])[H])[H])[H])C(=O)[C@]21C(N(C(c1c(c(nc(n1)[H])[H])[H])([H])[H])C(=O)c1c(c(c(F)c(c21)[H])[H])[H])([H])[H])([H])[H])[H])([H])([H])[H]

>  <h>  (59) 
<NA>

>  <Training>  (59) 
True

>  <Success>  (59) 
True

>  <enamine_searched>  (59) 
False

>  <enamine_id>  (59) 
nan

$$$$

     RDKit          3D

 60 65  0  0  0  0  0  0  0  0999 V2000
    7.3776   -4.7341   23.8015 C   0  0  0  0  0  0  0  0  0  0  0  0
    6.5838   -3.7258   23.2220 O   0  0  0  0  0  0  0  0  0  0  0  0
    7.0088   -2.4129   23.5264 C   0  0  0  0  0  0  0  0  0  0  0  0
    7.9268   -1.8487   22.4184 C   0  0  1  0  0  0  0  0  0  0  0  0
    7.1580   -1.7869   21.0794 C   0  0  0  0  0  0  0  0  0  0  0  0
    6.8863   -0.3795   20.8741 N   0  0  0  0  0  0  0  0  0  0  0  0
    6.1283    0.1049   19.7788 C   0  0  0  0  0  0  0  0  0  0  0  0
    6.4432   -0.2263   18.4829 C   0  0  0  0  0  0  0  0  0  0  0  0
    5.7727    0.2215   17.3914 N   0  0  0  0  0  0  0  0  0  0  0  0
    4.7497    1.0166   17.5960 C   0  0  0  0  0  0  0  0  0  0  0  0
    4.2946    1.4184   18.8845 C   0  0  0  0  0  0  0  0  0  0  0  0
    3.1674    2.2683   19.0561 C   0  0  0  0  0  0  0  0  0  0  0  0
    2.7385    2.6054   20.3096 C   0  0  0  0  0  0  0  0  0  0  0  0
    3.4089    2.1039   21.4458 C   0  0  0  0  0  0  0  0  0  0  0  0
    4.5016    1.2889   21.3077 C   0  0  0  0  0  0  0  0  0  0  0  0
    4.9890    0.9398   20.0172 C   0  0  0  0  0  0  0  0  0  0  0  0
    5.0070    0.9057   22.1870 H   0  0  0  0  0  0  0  0  0  0  0  0
    3.0719    2.3892   22.4402 H   0  0  0  0  0  0  0  0  0  0  0  0
    1.8881    3.2701   20.4425 H   0  0  0  0  0  0  0  0  0  0  0  0
    2.6639    2.6427   18.1680 H   0  0  0  0  0  0  0  0  0  0  0  0
    4.2235    1.3801   16.7139 H   0  0  0  0  0  0  0  0  0  0  0  0
    7.2937   -0.8717   18.2621 H   0  0  0  0  0  0  0  0  0  0  0  0
    7.6863    0.4521   21.6345 C   0  0  0  0  0  0  0  0  0  0  0  0
    7.7641    1.6513   21.4810 O   0  0  0  0  0  0  0  0  0  0  0  0
    8.4916   -0.4066   22.6442 C   0  0  1  0  0  0  0  0  0  0  0  0
    8.2925    0.0899   24.1002 C   0  0  0  0  0  0  0  0  0  0  0  0
    8.8941    1.3889   24.3402 N   0  0  0  0  0  0  0  0  0  0  0  0
    8.1395    2.4149   25.0387 C   0  0  0  0  0  0  0  0  0  0  0  0
    7.4371    3.3650   24.1020 C   0  0  0  0  0  0  0  0  0  0  0  0
    6.1734    3.2894   23.7467 N   0  0  0  0  0  0  0  0  0  0  0  0
    5.9881    4.3171   22.8527 C   0  0  0  0  0  0  0  0  0  0  0  0
    7.1484    5.0258   22.6849 C   0  0  0  0  0  0  0  0  0  0  0  0
    8.0706    4.4046   23.5013 N   0  0  0  0  0  0  0  0  0  0  0  0
    9.0531    4.6295   23.6103 H   0  0  0  0  0  0  0  0  0  0  0  0
    7.4066    5.8624   22.0519 H   0  0  0  0  0  0  0  0  0  0  0  0
    5.0237    4.4329   22.3613 H   0  0  0  0  0  0  0  0  0  0  0  0
    8.8535    2.9491   25.6689 H   0  0  0  0  0  0  0  0  0  0  0  0
    7.3963    1.9196   25.6651 H   0  0  0  0  0  0  0  0  0  0  0  0
   10.1444    1.7074   23.9119 C   0  0  0  0  0  0  0  0  0  0  0  0
   10.7061    2.7423   24.2691 O   0  0  0  0  0  0  0  0  0  0  0  0
   10.7486    0.7504   22.9308 C   0  0  0  0  0  0  0  0  0  0  0  0
   12.0839    0.9435   22.5815 C   0  0  0  0  0  0  0  0  0  0  0  0
   12.6629    0.1284   21.6327 C   0  0  0  0  0  0  0  0  0  0  0  0
   11.9163   -0.8793   21.0294 C   0  0  0  0  0  0  0  0  0  0  0  0
   12.7672   -1.9015   19.9106 Cl  0  0  0  0  0  0  0  0  0  0  0  0
   10.5698   -1.0415   21.3165 C   0  0  0  0  0  0  0  0  0  0  0  0
    9.9809   -0.2546   22.3170 C   0  0  0  0  0  0  0  0  0  0  0  0
    9.9732   -1.7422   20.7422 H   0  0  0  0  0  0  0  0  0  0  0  0
   13.6862    0.2586   21.3100 H   0  0  0  0  0  0  0  0  0  0  0  0
   12.6391    1.7391   23.0736 H   0  0  0  0  0  0  0  0  0  0  0  0
    7.2271    0.2041   24.3087 H   0  0  0  0  0  0  0  0  0  0  0  0
    8.7342   -0.6626   24.7758 H   0  0  0  0  0  0  0  0  0  0  0  0
    7.7656   -2.1777   20.2600 H   0  0  0  0  0  0  0  0  0  0  0  0
    6.2242   -2.3568   21.1212 H   0  0  0  0  0  0  0  0  0  0  0  0
    8.7600   -2.5581   22.3539 H   0  0  0  0  0  0  0  0  0  0  0  0
    6.1033   -1.7975   23.6135 H   0  0  0  0  0  0  0  0  0  0  0  0
    7.5219   -2.4165   24.4986 H   0  0  0  0  0  0  0  0  0  0  0  0
    8.4438   -4.6257   23.5501 H   0  0  0  0  0  0  0  0  0  0  0  0
    7.2888   -4.7476   24.8995 H   0  0  0  0  0  0  0  0  0  0  0  0
    7.0141   -5.6848   23.4048 H   0  0  0  0  0  0  0  0  0  0  0  0
  1  2  1  0
  2  3  1  0
  3  4  1  0
  4  5  1  0
  5  6  1  0
  6  7  1  0
  7  8  2  0
  8  9  1  0
  9 10  2  0
 10 11  1  0
 11 12  2  0
 12 13  1  0
 13 14  2  0
 14 15  1  0
 15 16  2  0
 15 17  1  0
 14 18  1  0
 13 19  1  0
 12 20  1  0
 10 21  1  0
  8 22  1  0
  6 23  1  0
 23 24  2  0
 23 25  1  0
 25 26  1  1
 26 27  1  0
 27 28  1  0
 28 29  1  0
 29 30  2  0
 30 31  1  0
 31 32  2  0
 32 33  1  0
 33 34  1  0
 32 35  1  0
 31 36  1  0
 28 37  1  0
 28 38  1  0
 27 39  1  0
 39 40  2  0
 39 41  1  0
 41 42  2  0
 42 43  1  0
 43 44  2  0
 44 45  1  0
 44 46  1  0
 46 47  2  0
 46 48  1  0
 43 49  1  0
 42 50  1  0
 26 51  1  0
 26 52  1  0
  5 53  1  0
  5 54  1  0
  4 55  1  6
  3 56  1  0
  3 57  1  0
  1 58  1  0
  1 59  1  0
  1 60  1  0
 25  4  1  0
 33 29  1  0
 47 41  1  0
 16  7  1  0
 47 25  1  0
 16 11  1  0
M  END
>  <cnnaffinities>  (60) 
[6.96395, 6.84127]

>  <score>  (60) 
6.96395

>  <index>  (60) 
59

>  <Smiles>  (60) 
C(OC([C@]1(C(N(c2c(nc(c3c(c(c(c(c23)[H])[H])[H])[H])[H])[H])C(=O)[C@]21C(N(C(c1nc(c(n1[H])[H])[H])([H])[H])C(=O)c1c(c(c(Cl)c(c21)[H])[H])[H])([H])[H])([H])[H])[H])([H])[H])([H])([H])[H]

>  <h>  (60) 
<NA>

>  <Training>  (60) 
True

>  <Success>  (60) 
True

>  <enamine_searched>  (60) 
False

>  <enamine_id>  (60) 
nan

$$$$

     RDKit          3D

 38 41  0  0  0  0  0  0  0  0999 V2000
    8.6083    1.2621   20.7255 O   0  0  0  0  0  0  0  0  0  0  0  0
    7.8629    0.6687   21.4841 C   0  0  0  0  0  0  0  0  0  0  0  0
    6.9466   -0.4395   20.9176 C   0  0  0  0  0  0  0  0  0  0  0  0
    6.1083    0.0830   19.7657 C   0  0  0  0  0  0  0  0  0  0  0  0
    6.4266   -0.2078   18.4626 C   0  0  0  0  0  0  0  0  0  0  0  0
    5.7609    0.2423   17.3623 N   0  0  0  0  0  0  0  0  0  0  0  0
    4.7332    1.0280   17.5747 C   0  0  0  0  0  0  0  0  0  0  0  0
    4.2853    1.4230   18.8667 C   0  0  0  0  0  0  0  0  0  0  0  0
    3.1699    2.2833   19.0423 C   0  0  0  0  0  0  0  0  0  0  0  0
    2.7654    2.6487   20.2982 C   0  0  0  0  0  0  0  0  0  0  0  0
    3.4614    2.1696   21.4301 C   0  0  0  0  0  0  0  0  0  0  0  0
    4.5445    1.3361   21.2868 C   0  0  0  0  0  0  0  0  0  0  0  0
    4.9886    0.9404   19.9955 C   0  0  0  0  0  0  0  0  0  0  0  0
    5.0714    0.9877   22.1707 H   0  0  0  0  0  0  0  0  0  0  0  0
    3.1355    2.4676   22.4214 H   0  0  0  0  0  0  0  0  0  0  0  0
    1.9140    3.3104   20.4341 H   0  0  0  0  0  0  0  0  0  0  0  0
    2.6460    2.6508   18.1627 H   0  0  0  0  0  0  0  0  0  0  0  0
    4.1982    1.3990   16.6988 H   0  0  0  0  0  0  0  0  0  0  0  0
    7.2741   -0.8571   18.2461 H   0  0  0  0  0  0  0  0  0  0  0  0
    6.3028   -0.8997   21.6747 H   0  0  0  0  0  0  0  0  0  0  0  0
    7.6004   -1.2311   20.5330 H   0  0  0  0  0  0  0  0  0  0  0  0
    7.7612    1.0120   22.8221 N   0  0  0  0  0  0  0  0  0  0  0  0
    8.3089    2.3210   23.2109 C   0  0  0  0  0  0  0  0  0  0  0  0
    7.6733    2.8478   24.4956 C   0  0  0  0  0  0  0  0  0  0  0  0
    7.7414    1.7987   25.5562 C   0  0  0  0  0  0  0  0  0  0  0  0
    7.8246    2.0699   27.2633 S   0  0  0  0  0  0  0  0  0  0  0  0
    7.7821    0.3714   27.5677 C   0  0  0  0  0  0  0  0  0  0  0  0
    7.7157   -0.3551   26.4155 C   0  0  0  0  0  0  0  0  0  0  0  0
    7.6944    0.4769   25.2549 C   0  0  0  0  0  0  0  0  0  0  0  0
    7.5150   -0.0073   23.8408 C   0  0  0  0  0  0  0  0  0  0  0  0
    8.1599   -0.8838   23.6964 H   0  0  0  0  0  0  0  0  0  0  0  0
    6.4907   -0.3919   23.7493 H   0  0  0  0  0  0  0  0  0  0  0  0
    7.6709   -1.4415   26.3968 H   0  0  0  0  0  0  0  0  0  0  0  0
    7.8333    0.0034   28.5845 H   0  0  0  0  0  0  0  0  0  0  0  0
    8.1616    3.7700   24.8198 H   0  0  0  0  0  0  0  0  0  0  0  0
    6.6216    3.1047   24.3142 H   0  0  0  0  0  0  0  0  0  0  0  0
    9.3975    2.2732   23.3361 H   0  0  0  0  0  0  0  0  0  0  0  0
    8.1181    3.0174   22.3926 H   0  0  0  0  0  0  0  0  0  0  0  0
  1  2  2  0
  2  3  1  0
  3  4  1  0
  4  5  2  0
  5  6  1  0
  6  7  2  0
  7  8  1  0
  8  9  2  0
  9 10  1  0
 10 11  2  0
 11 12  1  0
 12 13  2  0
 12 14  1  0
 11 15  1  0
 10 16  1  0
  9 17  1  0
  7 18  1  0
  5 19  1  0
  3 20  1  0
  3 21  1  0
  2 22  1  0
 22 23  1  0
 23 24  1  0
 24 25  1  0
 25 26  1  0
 26 27  1  0
 27 28  2  0
 28 29  1  0
 29 30  1  0
 30 31  1  0
 30 32  1  0
 28 33  1  0
 27 34  1  0
 24 35  1  0
 24 36  1  0
 23 37  1  0
 23 38  1  0
 13  4  1  0
 30 22  1  0
 13  8  1  0
 29 25  2  0
M  END
>  <cnnaffinities>  (61) 
[4.90466, 5.20409]

>  <score>  (61) 
4.90466

>  <index>  (61) 
60

>  <Smiles>  (61) 
O=C(C(c1c(nc(c2c(c(c(c(c12)[H])[H])[H])[H])[H])[H])([H])[H])N1C(C(c2sc(c(c2C1([H])[H])[H])[H])([H])[H])([H])[H]

>  <h>  (61) 
<NA>

>  <Training>  (61) 
True

>  <Success>  (61) 
True

>  <enamine_searched>  (61) 
False

>  <enamine_id>  (61) 
nan

$$$$

     RDKit          3D

 64 70  0  0  0  0  0  0  0  0999 V2000
    9.3336    2.6734   25.3967 O   0  0  0  0  0  0  0  0  0  0  0  0
    9.0391    1.6880   24.7334 C   0  0  0  0  0  0  0  0  0  0  0  0
   10.0535    0.8302   24.0376 C   0  0  0  0  0  0  0  0  0  0  0  0
   11.3933    1.1216   24.2531 C   0  0  0  0  0  0  0  0  0  0  0  0
   12.3748    0.6145   23.4287 C   0  0  0  0  0  0  0  0  0  0  0  0
   11.9684   -0.1644   22.3400 C   0  0  0  0  0  0  0  0  0  0  0  0
   13.0961   -0.4908   21.0599 Cl  0  0  0  0  0  0  0  0  0  0  0  0
   10.6535   -0.5733   22.1901 C   0  0  0  0  0  0  0  0  0  0  0  0
    9.6714   -0.1037   23.0688 C   0  0  0  0  0  0  0  0  0  0  0  0
    8.2109   -0.4252   22.8346 C   0  0  1  0  0  0  0  0  0  0  0  0
    7.4215   -0.0176   24.1020 C   0  0  0  0  0  0  0  0  0  0  0  0
    7.7434    1.3310   24.4996 N   0  0  0  0  0  0  0  0  0  0  0  0
    6.6739    2.2649   24.7824 C   0  0  0  0  0  0  0  0  0  0  0  0
    5.8630    1.8888   26.0058 C   0  0  0  0  0  0  0  0  0  0  0  0
    6.3563    2.0830   27.2808 C   0  0  0  0  0  0  0  0  0  0  0  0
    5.5649    1.6543   28.3448 C   0  0  0  0  0  0  0  0  0  0  0  0
    4.3753    1.0783   28.1951 N   0  0  0  0  0  0  0  0  0  0  0  0
    3.8907    0.8936   26.9769 N   0  0  0  0  0  0  0  0  0  0  0  0
    4.6033    1.2829   25.9233 C   0  0  0  0  0  0  0  0  0  0  0  0
    4.1246    1.0929   24.9640 H   0  0  0  0  0  0  0  0  0  0  0  0
    5.8878    1.7735   29.3773 H   0  0  0  0  0  0  0  0  0  0  0  0
    7.3266    2.5525   27.4416 H   0  0  0  0  0  0  0  0  0  0  0  0
    7.1601    3.2331   24.9282 H   0  0  0  0  0  0  0  0  0  0  0  0
    6.0268    2.3184   23.8923 H   0  0  0  0  0  0  0  0  0  0  0  0
    7.6606   -0.7032   24.9292 H   0  0  0  0  0  0  0  0  0  0  0  0
    6.3426   -0.0586   23.9221 H   0  0  0  0  0  0  0  0  0  0  0  0
    7.6875    0.4012   21.6368 C   0  0  0  0  0  0  0  0  0  0  0  0
    7.8651    1.5802   21.4239 O   0  0  0  0  0  0  0  0  0  0  0  0
    6.9198   -0.4185   20.8363 N   0  0  0  0  0  0  0  0  0  0  0  0
    6.1401    0.1014   19.7706 C   0  0  0  0  0  0  0  0  0  0  0  0
    6.4455   -0.2285   18.4742 C   0  0  0  0  0  0  0  0  0  0  0  0
    5.7702    0.2199   17.3858 N   0  0  0  0  0  0  0  0  0  0  0  0
    4.7491    1.0161   17.5957 C   0  0  0  0  0  0  0  0  0  0  0  0
    4.3018    1.4174   18.8867 C   0  0  0  0  0  0  0  0  0  0  0  0
    3.1761    2.2680   19.0603 C   0  0  0  0  0  0  0  0  0  0  0  0
    2.7502    2.6140   20.3143 C   0  0  0  0  0  0  0  0  0  0  0  0
    3.4269    2.1174   21.4517 C   0  0  0  0  0  0  0  0  0  0  0  0
    4.5190    1.2979   21.3093 C   0  0  0  0  0  0  0  0  0  0  0  0
    5.0031    0.9400   20.0173 C   0  0  0  0  0  0  0  0  0  0  0  0
    5.0300    0.9121   22.1865 H   0  0  0  0  0  0  0  0  0  0  0  0
    3.0822    2.3998   22.4426 H   0  0  0  0  0  0  0  0  0  0  0  0
    1.8966    3.2741   20.4412 H   0  0  0  0  0  0  0  0  0  0  0  0
    2.6667    2.6392   18.1742 H   0  0  0  0  0  0  0  0  0  0  0  0
    4.2184    1.3812   16.7164 H   0  0  0  0  0  0  0  0  0  0  0  0
    7.2918   -0.8820   18.2654 H   0  0  0  0  0  0  0  0  0  0  0  0
    6.7869   -1.7708   21.3359 C   0  0  0  0  0  0  0  0  0  0  0  0
    7.9097   -1.8799   22.3803 C   0  0  2  0  0  0  0  0  0  0  0  0
    7.5815   -2.9054   23.4829 C   0  0  0  0  0  0  0  0  0  0  0  0
    7.4896   -4.2579   22.9634 N   0  0  0  0  0  0  0  0  0  0  0  0
    6.3126   -4.8444   22.6446 C   0  0  0  0  0  0  0  0  0  0  0  0
    5.1320   -4.3244   22.8633 N   0  0  0  0  0  0  0  0  0  0  0  0
    4.1151   -5.1521   22.4649 N   0  0  0  0  0  0  0  0  0  0  0  0
    4.5365   -6.2574   21.9551 C   0  0  0  0  0  0  0  0  0  0  0  0
    6.2616   -6.4143   21.8786 S   0  0  0  0  0  0  0  0  0  0  0  0
    3.8721   -7.0333   21.5947 H   0  0  0  0  0  0  0  0  0  0  0  0
    8.3462   -4.7394   22.7358 H   0  0  0  0  0  0  0  0  0  0  0  0
    6.6234   -2.6694   23.9623 H   0  0  0  0  0  0  0  0  0  0  0  0
    8.3666   -2.8964   24.2476 H   0  0  0  0  0  0  0  0  0  0  0  0
    8.8169   -2.2272   21.8793 H   0  0  0  0  0  0  0  0  0  0  0  0
    5.8040   -1.9407   21.8022 H   0  0  0  0  0  0  0  0  0  0  0  0
    6.8849   -2.4943   20.5212 H   0  0  0  0  0  0  0  0  0  0  0  0
   10.4000   -1.2465   21.3733 H   0  0  0  0  0  0  0  0  0  0  0  0
   13.4277    0.8291   23.5915 H   0  0  0  0  0  0  0  0  0  0  0  0
   11.5946    1.8233   25.0401 H   0  0  0  0  0  0  0  0  0  0  0  0
  1  2  2  0
  2  3  1  0
  3  4  2  0
  4  5  1  0
  5  6  2  0
  6  7  1  0
  6  8  1  0
  8  9  2  0
  9 10  1  0
 10 11  1  1
 11 12  1  0
 12 13  1  0
 13 14  1  0
 14 15  2  0
 15 16  1  0
 16 17  2  0
 17 18  1  0
 18 19  2  0
 19 20  1  0
 16 21  1  0
 15 22  1  0
 13 23  1  0
 13 24  1  0
 11 25  1  0
 11 26  1  0
 10 27  1  0
 27 28  2  0
 27 29  1  0
 29 30  1  0
 30 31  2  0
 31 32  1  0
 32 33  2  0
 33 34  1  0
 34 35  2  0
 35 36  1  0
 36 37  2  0
 37 38  1  0
 38 39  2  0
 38 40  1  0
 37 41  1  0
 36 42  1  0
 35 43  1  0
 33 44  1  0
 31 45  1  0
 29 46  1  0
 46 47  1  0
 47 48  1  0
 48 49  1  0
 49 50  1  0
 50 51  2  0
 51 52  1  0
 52 53  2  0
 53 54  1  0
 53 55  1  0
 49 56  1  0
 48 57  1  0
 48 58  1  0
 47 59  1  6
 46 60  1  0
 46 61  1  0
  8 62  1  0
  5 63  1  0
  4 64  1  0
 12  2  1  0
 19 14  1  0
 39 30  1  0
 54 50  1  0
  9  3  1  0
 47 10  1  0
 39 34  1  0
M  END
>  <cnnaffinities>  (62) 
[7.16877, 7.45834, 7.1371]

>  <score>  (62) 
7.16877

>  <index>  (62) 
61

>  <Smiles>  (62) 
O=C1c2c(c(c(Cl)c(c2[C@@]2(C(N1C(c1c(c(nnc1[H])[H])[H])([H])[H])([H])[H])C(=O)N(c1c(nc(c3c(c(c(c(c13)[H])[H])[H])[H])[H])[H])C([C@@]2(C(N(c1nnc(s1)[H])[H])([H])[H])[H])([H])[H])[H])[H])[H]

>  <h>  (62) 
<NA>

>  <Training>  (62) 
True

>  <Success>  (62) 
True

>  <enamine_searched>  (62) 
False

>  <enamine_id>  (62) 
nan

$$$$

     RDKit          3D

 70 76  0  0  0  0  0  0  0  0999 V2000
    8.2122   -2.8910   23.1940 C   0  0  0  0  0  0  0  0  0  0  0  0
    8.3152   -1.8350   22.0879 C   0  0  1  0  0  0  0  0  0  0  0  0
    7.0330   -1.7491   21.2345 C   0  0  0  0  0  0  0  0  0  0  0  0
    6.9718   -0.3632   20.8223 N   0  0  0  0  0  0  0  0  0  0  0  0
    6.1550    0.1126   19.7639 C   0  0  0  0  0  0  0  0  0  0  0  0
    6.4494   -0.2226   18.4635 C   0  0  0  0  0  0  0  0  0  0  0  0
    5.7680    0.2191   17.3789 N   0  0  0  0  0  0  0  0  0  0  0  0
    4.7471    1.0155   17.5953 C   0  0  0  0  0  0  0  0  0  0  0  0
    4.3071    1.4175   18.8902 C   0  0  0  0  0  0  0  0  0  0  0  0
    3.1832    2.2714   19.0609 C   0  0  0  0  0  0  0  0  0  0  0  0
    2.7619    2.6175   20.3174 C   0  0  0  0  0  0  0  0  0  0  0  0
    3.4359    2.1222   21.4537 C   0  0  0  0  0  0  0  0  0  0  0  0
    4.5266    1.2948   21.3120 C   0  0  0  0  0  0  0  0  0  0  0  0
    5.0119    0.9397   20.0188 C   0  0  0  0  0  0  0  0  0  0  0  0
    5.0331    0.9104   22.1907 H   0  0  0  0  0  0  0  0  0  0  0  0
    3.1040    2.4136   22.4471 H   0  0  0  0  0  0  0  0  0  0  0  0
    1.9102    3.2834   20.4339 H   0  0  0  0  0  0  0  0  0  0  0  0
    2.6797    2.6446   18.1743 H   0  0  0  0  0  0  0  0  0  0  0  0
    4.2146    1.3816   16.7183 H   0  0  0  0  0  0  0  0  0  0  0  0
    7.2949   -0.8741   18.2487 H   0  0  0  0  0  0  0  0  0  0  0  0
    7.8353    0.4680   21.4961 C   0  0  0  0  0  0  0  0  0  0  0  0
    7.9163    1.6635   21.2916 O   0  0  0  0  0  0  0  0  0  0  0  0
    8.6274   -0.3684   22.5347 C   0  0  1  0  0  0  0  0  0  0  0  0
    8.0934   -0.0824   23.9605 C   0  0  0  0  0  0  0  0  0  0  0  0
    8.4271    1.2476   24.4274 N   0  0  0  0  0  0  0  0  0  0  0  0
    7.4173    2.0687   25.0721 C   0  0  0  0  0  0  0  0  0  0  0  0
    6.8187    3.0696   24.0826 C   0  0  0  0  0  0  0  0  0  0  0  0
    5.7538    3.9268   24.6871 N   0  0  2  0  0  4  0  0  0  0  0  0
    4.5281    3.1750   25.1824 C   0  0  0  0  0  0  0  0  0  0  0  0
    3.3735    4.1785   25.1382 C   0  0  0  0  0  0  0  0  0  0  0  0
    3.7643    5.2468   24.1102 C   0  0  0  0  0  0  0  0  0  0  0  0
    2.8118    5.4873   22.9222 C   0  0  0  0  0  0  0  0  0  0  0  0
    2.5421    6.8316   23.3323 O   0  0  0  0  0  0  0  0  0  0  0  0
    3.4127    6.7085   24.4624 C   0  0  0  0  0  0  0  0  0  0  0  0
    2.8748    6.8539   25.4093 H   0  0  0  0  0  0  0  0  0  0  0  0
    4.2451    7.4252   24.4157 H   0  0  0  0  0  0  0  0  0  0  0  0
    1.9022    4.8699   22.9120 H   0  0  0  0  0  0  0  0  0  0  0  0
    3.2799    5.4431   21.9265 H   0  0  0  0  0  0  0  0  0  0  0  0
    5.2210    4.9638   23.7307 C   0  0  0  0  0  0  0  0  0  0  0  0
    5.8527    5.8557   23.7746 H   0  0  0  0  0  0  0  0  0  0  0  0
    5.2960    4.5388   22.7217 H   0  0  0  0  0  0  0  0  0  0  0  0
    3.2256    4.6452   26.1192 H   0  0  0  0  0  0  0  0  0  0  0  0
    2.4296    3.6892   24.8737 H   0  0  0  0  0  0  0  0  0  0  0  0
    4.3679    2.3304   24.5065 H   0  0  0  0  0  0  0  0  0  0  0  0
    4.7122    2.7820   26.1824 H   0  0  0  0  0  0  0  0  0  0  0  0
    6.1791    4.4289   25.4973 H   0  0  0  0  0  0  0  0  0  0  0  0
    7.6176    3.7052   23.6817 H   0  0  0  0  0  0  0  0  0  0  0  0
    6.3867    2.5219   23.2345 H   0  0  0  0  0  0  0  0  0  0  0  0
    7.8957    2.5870   25.9087 H   0  0  0  0  0  0  0  0  0  0  0  0
    6.6421    1.3977   25.4605 H   0  0  0  0  0  0  0  0  0  0  0  0
    9.6965    1.7300   24.3297 C   0  0  0  0  0  0  0  0  0  0  0  0
   10.0837    2.7086   24.9635 O   0  0  0  0  0  0  0  0  0  0  0  0
   10.5944    1.0100   23.3689 C   0  0  0  0  0  0  0  0  0  0  0  0
   11.9272    1.4136   23.3098 C   0  0  0  0  0  0  0  0  0  0  0  0
   12.7918    0.8292   22.4075 C   0  0  0  0  0  0  0  0  0  0  0  0
   12.3034   -0.1586   21.5545 C   0  0  0  0  0  0  0  0  0  0  0  0
   13.3716   -0.7995   20.3359 Cl  0  0  0  0  0  0  0  0  0  0  0  0
   10.9739   -0.5450   21.5713 C   0  0  0  0  0  0  0  0  0  0  0  0
   10.0994    0.0112   22.5160 C   0  0  0  0  0  0  0  0  0  0  0  0
   10.6116   -1.1650   20.7553 H   0  0  0  0  0  0  0  0  0  0  0  0
   13.8048    1.1915   22.2803 H   0  0  0  0  0  0  0  0  0  0  0  0
   12.2582    2.1850   23.9953 H   0  0  0  0  0  0  0  0  0  0  0  0
    8.5166   -0.8403   24.6388 H   0  0  0  0  0  0  0  0  0  0  0  0
    7.0044   -0.1700   23.9532 H   0  0  0  0  0  0  0  0  0  0  0  0
    7.0582   -2.4010   20.3556 H   0  0  0  0  0  0  0  0  0  0  0  0
    6.1460   -2.0287   21.8216 H   0  0  0  0  0  0  0  0  0  0  0  0
    9.1341   -2.1171   21.4250 H   0  0  0  0  0  0  0  0  0  0  0  0
    7.3576   -2.6927   23.8529 H   0  0  0  0  0  0  0  0  0  0  0  0
    9.1130   -2.9292   23.8183 H   0  0  0  0  0  0  0  0  0  0  0  0
    8.0647   -3.8876   22.7646 H   0  0  0  0  0  0  0  0  0  0  0  0
  1  2  1  0
  2  3  1  0
  3  4  1  0
  4  5  1  0
  5  6  2  0
  6  7  1  0
  7  8  2  0
  8  9  1  0
  9 10  2  0
 10 11  1  0
 11 12  2  0
 12 13  1  0
 13 14  2  0
 13 15  1  0
 12 16  1  0
 11 17  1  0
 10 18  1  0
  8 19  1  0
  6 20  1  0
  4 21  1  0
 21 22  2  0
 21 23  1  0
 23 24  1  1
 24 25  1  0
 25 26  1  0
 26 27  1  0
 27 28  1  0
 28 29  1  0
 29 30  1  0
 30 31  1  0
 31 32  1  0
 32 33  1  0
 33 34  1  0
 34 35  1  0
 34 36  1  0
 32 37  1  0
 32 38  1  0
 31 39  1  0
 39 40  1  0
 39 41  1  0
 30 42  1  0
 30 43  1  0
 29 44  1  0
 29 45  1  0
 28 46  1  1
 27 47  1  0
 27 48  1  0
 26 49  1  0
 26 50  1  0
 25 51  1  0
 51 52  2  0
 51 53  1  0
 53 54  2  0
 54 55  1  0
 55 56  2  0
 56 57  1  0
 56 58  1  0
 58 59  2  0
 58 60  1  0
 55 61  1  0
 54 62  1  0
 24 63  1  0
 24 64  1  0
  3 65  1  0
  3 66  1  0
  2 67  1  6
  1 68  1  0
  1 69  1  0
  1 70  1  0
 23  2  1  0
 39 28  1  0
 59 53  1  0
 14  5  1  0
 59 23  1  0
 14  9  1  0
 34 31  1  0
M  CHG  1  28   1
M  END
>  <cnnaffinities>  (63) 
[6.51552, 6.41709, 6.76126, 6.60266]

>  <score>  (63) 
6.51552

>  <index>  (63) 
62

>  <Smiles>  (63) 
C([C@]1(C(N(c2c(nc(c3c(c(c(c(c23)[H])[H])[H])[H])[H])[H])C(=O)[C@]21C(N(C(C([N@@+]1(C(C(C3(C(OC3([H])[H])([H])[H])C1([H])[H])([H])[H])([H])[H])[H])([H])[H])([H])[H])C(=O)c1c(c(c(Cl)c(c21)[H])[H])[H])([H])[H])([H])[H])[H])([H])([H])[H]

>  <h>  (63) 
<NA>

>  <Training>  (63) 
True

>  <Success>  (63) 
True

>  <enamine_searched>  (63) 
False

>  <enamine_id>  (63) 
nan

$$$$

     RDKit          3D

 56 61  0  0  0  0  0  0  0  0999 V2000
    5.5677    4.8346   21.4520 C   0  0  0  0  0  0  0  0  0  0  0  0
    6.5796    4.5705   22.4604 N   0  0  0  0  0  0  0  0  0  0  0  0
    7.7848    5.1680   22.5692 C   0  0  0  0  0  0  0  0  0  0  0  0
    8.4628    4.5263   23.5772 C   0  0  0  0  0  0  0  0  0  0  0  0
    7.5825    3.5107   24.0089 C   0  0  0  0  0  0  0  0  0  0  0  0
    7.8892    2.4355   25.0252 C   0  0  0  0  0  0  0  0  0  0  0  0
    8.6633    1.3133   24.4831 N   0  0  0  0  0  0  0  0  0  0  0  0
    8.0003    0.0702   24.1480 C   0  0  0  0  0  0  0  0  0  0  0  0
    8.3647   -0.4399   22.7324 C   0  0  1  0  0  0  0  0  0  0  0  0
    7.7371   -1.8367   22.5251 C   0  0  0  0  0  0  0  0  0  0  0  0
    6.9850   -1.8152   21.1798 C   0  0  0  0  0  0  0  0  0  0  0  0
    6.8736   -0.4025   20.8745 N   0  0  0  0  0  0  0  0  0  0  0  0
    6.1290    0.1048   19.7779 C   0  0  0  0  0  0  0  0  0  0  0  0
    6.4466   -0.2266   18.4850 C   0  0  0  0  0  0  0  0  0  0  0  0
    5.7752    0.2210   17.3932 N   0  0  0  0  0  0  0  0  0  0  0  0
    4.7525    1.0163   17.5972 C   0  0  0  0  0  0  0  0  0  0  0  0
    4.2969    1.4239   18.8816 C   0  0  0  0  0  0  0  0  0  0  0  0
    3.1651    2.2671   19.0596 C   0  0  0  0  0  0  0  0  0  0  0  0
    2.7372    2.6055   20.3133 C   0  0  0  0  0  0  0  0  0  0  0  0
    3.4188    2.1162   21.4507 C   0  0  0  0  0  0  0  0  0  0  0  0
    4.5194    1.3113   21.3054 C   0  0  0  0  0  0  0  0  0  0  0  0
    5.0006    0.9527   20.0158 C   0  0  0  0  0  0  0  0  0  0  0  0
    5.0285    0.9372   22.1881 H   0  0  0  0  0  0  0  0  0  0  0  0
    3.0808    2.3916   22.4470 H   0  0  0  0  0  0  0  0  0  0  0  0
    1.8743    3.2531   20.4434 H   0  0  0  0  0  0  0  0  0  0  0  0
    2.6538    2.6349   18.1743 H   0  0  0  0  0  0  0  0  0  0  0  0
    4.2258    1.3784   16.7142 H   0  0  0  0  0  0  0  0  0  0  0  0
    7.2911   -0.8795   18.2659 H   0  0  0  0  0  0  0  0  0  0  0  0
    7.7079    0.4098   21.6116 C   0  0  0  0  0  0  0  0  0  0  0  0
    7.8959    1.5795   21.3761 O   0  0  0  0  0  0  0  0  0  0  0  0
    5.9845   -2.2614   21.2410 H   0  0  0  0  0  0  0  0  0  0  0  0
    7.5393   -2.3400   20.3979 H   0  0  0  0  0  0  0  0  0  0  0  0
    8.4932   -2.6251   22.5678 H   0  0  0  0  0  0  0  0  0  0  0  0
    7.0296   -2.0379   23.3369 H   0  0  0  0  0  0  0  0  0  0  0  0
    9.8680   -0.3846   22.5719 C   0  0  0  0  0  0  0  0  0  0  0  0
   10.4826   -1.1628   21.5844 C   0  0  0  0  0  0  0  0  0  0  0  0
   11.8477   -1.0752   21.3890 C   0  0  0  0  0  0  0  0  0  0  0  0
   12.6054   -2.0482   20.1612 Cl  0  0  0  0  0  0  0  0  0  0  0  0
   12.6284   -0.2102   22.1535 C   0  0  0  0  0  0  0  0  0  0  0  0
   12.0188    0.5891   23.1006 C   0  0  0  0  0  0  0  0  0  0  0  0
   10.6422    0.5175   23.3122 C   0  0  0  0  0  0  0  0  0  0  0  0
   10.0102    1.4787   24.2840 C   0  0  0  0  0  0  0  0  0  0  0  0
   10.6407    2.3781   24.8262 O   0  0  0  0  0  0  0  0  0  0  0  0
   12.5882    1.2963   23.6922 H   0  0  0  0  0  0  0  0  0  0  0  0
   13.6983   -0.1783   21.9877 H   0  0  0  0  0  0  0  0  0  0  0  0
    9.9125   -1.8353   20.9501 H   0  0  0  0  0  0  0  0  0  0  0  0
    8.2574   -0.7193   24.8759 H   0  0  0  0  0  0  0  0  0  0  0  0
    6.9227    0.2552   24.1819 H   0  0  0  0  0  0  0  0  0  0  0  0
    6.9559    2.0368   25.4431 H   0  0  0  0  0  0  0  0  0  0  0  0
    8.4847    2.8667   25.8354 H   0  0  0  0  0  0  0  0  0  0  0  0
    6.4282    3.5670   23.3479 N   0  0  0  0  0  0  0  0  0  0  0  0
    9.4553    4.7057   23.9631 H   0  0  0  0  0  0  0  0  0  0  0  0
    8.0593    5.9769   21.9031 H   0  0  0  0  0  0  0  0  0  0  0  0
    4.5847    4.7746   21.9259 H   0  0  0  0  0  0  0  0  0  0  0  0
    5.7334    5.8470   21.0665 H   0  0  0  0  0  0  0  0  0  0  0  0
    5.6134    4.1003   20.6345 H   0  0  0  0  0  0  0  0  0  0  0  0
  1  2  1  0
  2  3  1  0
  3  4  2  0
  4  5  1  0
  5  6  1  0
  6  7  1  0
  7  8  1  0
  9  8  1  1
  9 10  1  0
 10 11  1  0
 11 12  1  0
 12 13  1  0
 13 14  2  0
 14 15  1  0
 15 16  2  0
 16 17  1  0
 17 18  2  0
 18 19  1  0
 19 20  2  0
 20 21  1  0
 21 22  2  0
 21 23  1  0
 20 24  1  0
 19 25  1  0
 18 26  1  0
 16 27  1  0
 14 28  1  0
 12 29  1  0
 29 30  2  0
 11 31  1  0
 11 32  1  0
 10 33  1  0
 10 34  1  0
  9 35  1  0
 35 36  2  0
 36 37  1  0
 37 38  1  0
 37 39  2  0
 39 40  1  0
 40 41  2  0
 41 42  1  0
 42 43  2  0
 40 44  1  0
 39 45  1  0
 36 46  1  0
  8 47  1  0
  8 48  1  0
  6 49  1  0
  6 50  1  0
  5 51  2  0
  4 52  1  0
  3 53  1  0
  1 54  1  0
  1 55  1  0
  1 56  1  0
 51  2  1  0
 42  7  1  0
 29  9  1  0
 41 35  1  0
 22 13  1  0
 22 17  1  0
M  END
>  <cnnaffinities>  (64) 
[6.70762]

>  <score>  (64) 
6.70762

>  <index>  (64) 
63

>  <Smiles>  (64) 
C(n1c(c(c(C(N2C([C@]3(C(C(N(c4c(nc(c5c(c(c(c(c45)[H])[H])[H])[H])[H])[H])C3=O)([H])[H])([H])[H])c3c(c(Cl)c(c(c3C2=O)[H])[H])[H])([H])[H])([H])[H])n1)[H])[H])([H])([H])[H]

>  <h>  (64) 
<NA>

>  <Training>  (64) 
True

>  <Success>  (64) 
True

>  <enamine_searched>  (64) 
False

>  <enamine_id>  (64) 
nan

$$$$

     RDKit          3D

 66 71  0  0  0  0  0  0  0  0999 V2000
    7.1585   -2.4869   23.4342 C   0  0  0  0  0  0  0  0  0  0  0  0
    8.0329   -1.7846   22.3865 C   0  0  1  0  0  0  0  0  0  0  0  0
    7.3216   -1.7189   21.0153 C   0  0  0  0  0  0  0  0  0  0  0  0
    6.9291   -0.3308   20.8604 N   0  0  0  0  0  0  0  0  0  0  0  0
    6.1427    0.1196   19.7758 C   0  0  0  0  0  0  0  0  0  0  0  0
    6.4444   -0.2295   18.4816 C   0  0  0  0  0  0  0  0  0  0  0  0
    5.7716    0.2151   17.3901 N   0  0  0  0  0  0  0  0  0  0  0  0
    4.7524    1.0138   17.5987 C   0  0  0  0  0  0  0  0  0  0  0  0
    4.3035    1.4202   18.8879 C   0  0  0  0  0  0  0  0  0  0  0  0
    3.1812    2.2767   19.0570 C   0  0  0  0  0  0  0  0  0  0  0  0
    2.7538    2.6209   20.3104 C   0  0  0  0  0  0  0  0  0  0  0  0
    3.4198    2.1177   21.4514 C   0  0  0  0  0  0  0  0  0  0  0  0
    4.5096    1.2972   21.3120 C   0  0  0  0  0  0  0  0  0  0  0  0
    4.9988    0.9446   20.0205 C   0  0  0  0  0  0  0  0  0  0  0  0
    5.0151    0.9151   22.1922 H   0  0  0  0  0  0  0  0  0  0  0  0
    3.0781    2.4020   22.4431 H   0  0  0  0  0  0  0  0  0  0  0  0
    1.9053    3.2869   20.4365 H   0  0  0  0  0  0  0  0  0  0  0  0
    2.6783    2.6509   18.1679 H   0  0  0  0  0  0  0  0  0  0  0  0
    4.2231    1.3782   16.7181 H   0  0  0  0  0  0  0  0  0  0  0  0
    7.2942   -0.8772   18.2715 H   0  0  0  0  0  0  0  0  0  0  0  0
    7.6126    0.5243   21.6942 C   0  0  0  0  0  0  0  0  0  0  0  0
    7.5665    1.7437   21.6377 O   0  0  0  0  0  0  0  0  0  0  0  0
    8.4434   -0.3054   22.6999 C   0  0  1  0  0  0  0  0  0  0  0  0
    8.1192    0.1239   24.1468 C   0  0  0  0  0  0  0  0  0  0  0  0
    8.5770    1.4701   24.4386 N   0  0  0  0  0  0  0  0  0  0  0  0
    7.7466    2.2811   25.3084 C   0  0  0  0  0  0  0  0  0  0  0  0
    6.6853    3.0717   24.5438 C   0  0  0  0  0  0  0  0  0  0  0  0
    7.2710    4.1326   23.6708 N   0  0  0  0  0  4  0  0  0  0  0  0
    7.7912    5.3168   24.4644 C   0  0  0  0  0  0  0  0  0  0  0  0
    8.2657    6.4260   23.5372 C   0  0  0  0  0  0  0  0  0  0  0  0
    7.2428    6.8397   22.6573 O   0  0  0  0  0  0  0  0  0  0  0  0
    6.8300    5.7657   21.8404 C   0  0  0  0  0  0  0  0  0  0  0  0
    6.2580    4.6260   22.6635 C   0  0  0  0  0  0  0  0  0  0  0  0
    5.9986    3.7845   22.0198 H   0  0  0  0  0  0  0  0  0  0  0  0
    5.3613    4.9646   23.1997 H   0  0  0  0  0  0  0  0  0  0  0  0
    7.6819    5.3935   21.2555 H   0  0  0  0  0  0  0  0  0  0  0  0
    6.0781    6.1582   21.1512 H   0  0  0  0  0  0  0  0  0  0  0  0
    8.5547    7.3105   24.1125 H   0  0  0  0  0  0  0  0  0  0  0  0
    9.1431    6.0809   22.9644 H   0  0  0  0  0  0  0  0  0  0  0  0
    6.9746    5.6993   25.0929 H   0  0  0  0  0  0  0  0  0  0  0  0
    8.6112    4.9887   25.1035 H   0  0  0  0  0  0  0  0  0  0  0  0
    8.0395    3.6707   23.1383 H   0  0  0  0  0  0  0  0  0  0  0  0
    6.1104    2.3941   23.8970 H   0  0  0  0  0  0  0  0  0  0  0  0
    5.9869    3.5382   25.2533 H   0  0  0  0  0  0  0  0  0  0  0  0
    7.2416    1.6192   26.0188 H   0  0  0  0  0  0  0  0  0  0  0  0
    8.4087    2.9420   25.8647 H   0  0  0  0  0  0  0  0  0  0  0  0
    9.8389    1.8806   24.1193 C   0  0  0  0  0  0  0  0  0  0  0  0
   10.3405    2.9034   24.5803 O   0  0  0  0  0  0  0  0  0  0  0  0
   10.5725    1.0255   23.1252 C   0  0  0  0  0  0  0  0  0  0  0  0
   11.9087    1.3216   22.8471 C   0  0  0  0  0  0  0  0  0  0  0  0
   12.6189    0.5676   21.9283 C   0  0  0  0  0  0  0  0  0  0  0  0
   11.9824   -0.5005   21.2958 C   0  0  0  0  0  0  0  0  0  0  0  0
   12.8567   -1.4819   20.1556 Cl  0  0  0  0  0  0  0  0  0  0  0  0
   10.6398   -0.7582   21.5061 C   0  0  0  0  0  0  0  0  0  0  0  0
    9.9267   -0.0312   22.4672 C   0  0  0  0  0  0  0  0  0  0  0  0
   10.1536   -1.4766   20.8538 H   0  0  0  0  0  0  0  0  0  0  0  0
   13.6325    0.8345   21.6507 H   0  0  0  0  0  0  0  0  0  0  0  0
   12.3585    2.1733   23.3505 H   0  0  0  0  0  0  0  0  0  0  0  0
    7.0351    0.1016   24.2938 H   0  0  0  0  0  0  0  0  0  0  0  0
    8.5984   -0.6044   24.8219 H   0  0  0  0  0  0  0  0  0  0  0  0
    7.9972   -2.0132   20.2046 H   0  0  0  0  0  0  0  0  0  0  0  0
    6.4383   -2.3671   20.9824 H   0  0  0  0  0  0  0  0  0  0  0  0
    8.9474   -2.3817   22.3024 H   0  0  0  0  0  0  0  0  0  0  0  0
    6.2050   -1.9687   23.5831 H   0  0  0  0  0  0  0  0  0  0  0  0
    7.6685   -2.5688   24.3987 H   0  0  0  0  0  0  0  0  0  0  0  0
    6.9391   -3.5063   23.1043 H   0  0  0  0  0  0  0  0  0  0  0  0
  1  2  1  0
  2  3  1  0
  3  4  1  0
  4  5  1  0
  5  6  2  0
  6  7  1  0
  7  8  2  0
  8  9  1  0
  9 10  2  0
 10 11  1  0
 11 12  2  0
 12 13  1  0
 13 14  2  0
 13 15  1  0
 12 16  1  0
 11 17  1  0
 10 18  1  0
  8 19  1  0
  6 20  1  0
  4 21  1  0
 21 22  2  0
 21 23  1  0
 23 24  1  1
 24 25  1  0
 25 26  1  0
 26 27  1  0
 27 28  1  0
 28 29  1  0
 29 30  1  0
 30 31  1  0
 31 32  1  0
 32 33  1  0
 33 34  1  0
 33 35  1  0
 32 36  1  0
 32 37  1  0
 30 38  1  0
 30 39  1  0
 29 40  1  0
 29 41  1  0
 28 42  1  0
 27 43  1  0
 27 44  1  0
 26 45  1  0
 26 46  1  0
 25 47  1  0
 47 48  2  0
 47 49  1  0
 49 50  2  0
 50 51  1  0
 51 52  2  0
 52 53  1  0
 52 54  1  0
 54 55  2  0
 54 56  1  0
 51 57  1  0
 50 58  1  0
 24 59  1  0
 24 60  1  0
  3 61  1  0
  3 62  1  0
  2 63  1  6
  1 64  1  0
  1 65  1  0
  1 66  1  0
 23  2  1  0
 33 28  1  0
 55 49  1  0
 14  5  1  0
 55 23  1  0
 14  9  1  0
M  CHG  1  28   1
M  END
>  <cnnaffinities>  (65) 
[6.71849, 6.78497]

>  <score>  (65) 
6.71849

>  <index>  (65) 
64

>  <Smiles>  (65) 
C([C@]1(C(N(c2c(nc(c3c(c(c(c(c23)[H])[H])[H])[H])[H])[H])C(=O)[C@]21C(N(C(C([N+]1(C(C(OC(C1([H])[H])([H])[H])([H])[H])([H])[H])[H])([H])[H])([H])[H])C(=O)c1c(c(c(Cl)c(c21)[H])[H])[H])([H])[H])([H])[H])[H])([H])([H])[H]

>  <h>  (65) 
<NA>

>  <Training>  (65) 
True

>  <Success>  (65) 
True

>  <enamine_searched>  (65) 
False

>  <enamine_id>  (65) 
nan

$$$$

     RDKit          3D

 54 59  0  0  0  0  0  0  0  0999 V2000
    3.9763    1.2619   28.0996 C   0  0  0  0  0  0  0  0  0  0  0  0
    5.2046    1.3195   27.3355 N   0  0  0  0  0  0  0  0  0  0  0  0
    5.1203    1.5476   26.0010 C   0  0  0  0  0  0  0  0  0  0  0  0
    4.0797    1.8311   25.4263 O   0  0  0  0  0  0  0  0  0  0  0  0
    6.4618    1.4017   25.2867 C   0  0  0  0  0  0  0  0  0  0  0  0
    6.7980    0.0110   25.0931 N   0  0  0  0  0  0  0  0  0  0  0  0
    7.5141   -0.6998   26.0336 C   0  0  0  0  0  0  0  0  0  0  0  0
    7.8270   -0.2516   27.1305 O   0  0  0  0  0  0  0  0  0  0  0  0
    7.6425   -2.0807   25.4858 C   0  0  0  0  0  0  0  0  0  0  0  0
    8.1623   -3.1619   26.1520 C   0  0  0  0  0  0  0  0  0  0  0  0
    7.7823   -4.4607   25.7633 C   0  0  0  0  0  0  0  0  0  0  0  0
    6.8760   -4.6233   24.7579 C   0  0  0  0  0  0  0  0  0  0  0  0
    6.3771   -6.2102   24.2971 Cl  0  0  0  0  0  0  0  0  0  0  0  0
    6.1440   -3.5188   24.0896 C   0  0  0  0  0  0  0  0  0  0  0  0
    6.8614   -2.1889   24.2522 C   0  0  1  0  0  0  0  0  0  0  0  0
    6.2163   -0.8376   24.0961 C   0  0  2  0  0  0  0  0  0  0  0  0
    7.1121   -1.3463   22.9850 C   0  0  2  0  0  0  0  0  0  0  0  0
    6.3249   -1.4466   21.6862 C   0  0  0  0  0  0  0  0  0  0  0  0
    5.3240   -2.0912   21.4416 O   0  0  0  0  0  0  0  0  0  0  0  0
    6.8883   -0.5395   20.8007 N   0  0  0  0  0  0  0  0  0  0  0  0
    6.1130    0.0196   19.7482 C   0  0  0  0  0  0  0  0  0  0  0  0
    6.4502   -0.2480   18.4481 C   0  0  0  0  0  0  0  0  0  0  0  0
    5.7850    0.2285   17.3659 N   0  0  0  0  0  0  0  0  0  0  0  0
    4.7540    1.0057   17.5934 C   0  0  0  0  0  0  0  0  0  0  0  0
    4.3063    1.3796   18.8925 C   0  0  0  0  0  0  0  0  0  0  0  0
    3.1976    2.2481   19.0724 C   0  0  0  0  0  0  0  0  0  0  0  0
    2.8058    2.6179   20.3282 C   0  0  0  0  0  0  0  0  0  0  0  0
    3.5069    2.1476   21.4634 C   0  0  0  0  0  0  0  0  0  0  0  0
    4.5829    1.3071   21.3161 C   0  0  0  0  0  0  0  0  0  0  0  0
    5.0029    0.8873   20.0170 C   0  0  0  0  0  0  0  0  0  0  0  0
    5.1257    0.9651   22.1987 H   0  0  0  0  0  0  0  0  0  0  0  0
    3.1979    2.4658   22.4546 H   0  0  0  0  0  0  0  0  0  0  0  0
    1.9660    3.2942   20.4575 H   0  0  0  0  0  0  0  0  0  0  0  0
    2.6836    2.6198   18.1897 H   0  0  0  0  0  0  0  0  0  0  0  0
    4.2173    1.3914   16.7258 H   0  0  0  0  0  0  0  0  0  0  0  0
    7.3043   -0.8917   18.2491 H   0  0  0  0  0  0  0  0  0  0  0  0
    8.0949    0.1014   21.3075 C   0  0  0  0  0  0  0  0  0  0  0  0
    8.3598   -0.6623   22.5842 C   0  0  0  0  0  0  0  0  0  0  0  0
    9.5413   -0.6760   23.1906 C   0  0  0  0  0  0  0  0  0  0  0  0
   10.5541    0.0806   22.7245 F   0  0  0  0  0  0  0  0  0  0  0  0
    9.7901   -1.2724   24.0618 H   0  0  0  0  0  0  0  0  0  0  0  0
    8.9209    0.0392   20.5941 H   0  0  0  0  0  0  0  0  0  0  0  0
    7.9140    1.1605   21.5361 H   0  0  0  0  0  0  0  0  0  0  0  0
    5.1570   -0.7370   23.8654 H   0  0  0  0  0  0  0  0  0  0  0  0
    5.9897   -3.7404   23.0284 H   0  0  0  0  0  0  0  0  0  0  0  0
    5.1350   -3.4561   24.5396 H   0  0  0  0  0  0  0  0  0  0  0  0
    8.1431   -5.3163   26.3294 H   0  0  0  0  0  0  0  0  0  0  0  0
    8.8500   -3.0401   26.9730 H   0  0  0  0  0  0  0  0  0  0  0  0
    6.4347    1.8879   24.3111 H   0  0  0  0  0  0  0  0  0  0  0  0
    7.2478    1.8706   25.8854 H   0  0  0  0  0  0  0  0  0  0  0  0
    6.0634    0.9127   27.6950 H   0  0  0  0  0  0  0  0  0  0  0  0
    4.2118    1.0510   29.1445 H   0  0  0  0  0  0  0  0  0  0  0  0
    3.4618    2.2260   28.0284 H   0  0  0  0  0  0  0  0  0  0  0  0
    3.3101    0.4790   27.7119 H   0  0  0  0  0  0  0  0  0  0  0  0
  1  2  1  0
  2  3  1  0
  3  4  2  0
  3  5  1  0
  5  6  1  0
  6  7  1  0
  7  8  2  0
  7  9  1  0
  9 10  2  0
 10 11  1  0
 11 12  2  0
 12 13  1  0
 12 14  1  0
 15 14  1  6
 15 16  1  0
 16 17  1  0
 17 18  1  6
 18 19  2  0
 18 20  1  0
 20 21  1  0
 21 22  2  0
 22 23  1  0
 23 24  2  0
 24 25  1  0
 25 26  2  0
 26 27  1  0
 27 28  2  0
 28 29  1  0
 29 30  2  0
 29 31  1  0
 28 32  1  0
 27 33  1  0
 26 34  1  0
 24 35  1  0
 22 36  1  0
 20 37  1  0
 37 38  1  0
 38 39  2  0
 39 40  1  0
 39 41  1  0
 37 42  1  0
 37 43  1  0
 16 44  1  6
 14 45  1  0
 14 46  1  0
 11 47  1  0
 10 48  1  0
  5 49  1  0
  5 50  1  0
  2 51  1  0
  1 52  1  0
  1 53  1  0
  1 54  1  0
 16  6  1  0
 38 17  1  0
 15  9  1  0
 30 21  1  0
 17 15  1  0
 30 25  1  0
M  END
>  <cnnaffinities>  (66) 
[6.46298, 6.45869]

>  <score>  (66) 
6.46298

>  <index>  (66) 
65

>  <Smiles>  (66) 
C(N(C(=O)C(N1C(=O)C2=C(C(=C(Cl)C([C@]32[C@@]1([C@@]13C(=O)N(c2c(nc(c3c(c(c(c(c23)[H])[H])[H])[H])[H])[H])C(/C/1=C(\F)/[H])([H])[H])[H])([H])[H])[H])[H])([H])[H])[H])([H])([H])[H]

>  <h>  (66) 
<NA>

>  <Training>  (66) 
True

>  <Success>  (66) 
True

>  <enamine_searched>  (66) 
False

>  <enamine_id>  (66) 
nan

$$$$

     RDKit          3D

 47 50  0  0  0  0  0  0  0  0999 V2000
    5.4701   -2.4285   20.9107 O   0  0  0  0  0  0  0  0  0  0  0  0
    6.1391   -1.6674   21.5834 C   0  0  0  0  0  0  0  0  0  0  0  0
    6.9060   -0.5047   20.9139 C   0  0  0  0  0  0  0  0  0  0  0  0
    6.1173    0.0892   19.7655 C   0  0  0  0  0  0  0  0  0  0  0  0
    6.4229   -0.2146   18.4634 C   0  0  0  0  0  0  0  0  0  0  0  0
    5.7595    0.2389   17.3647 N   0  0  0  0  0  0  0  0  0  0  0  0
    4.7352    1.0288   17.5752 C   0  0  0  0  0  0  0  0  0  0  0  0
    4.2866    1.4211   18.8669 C   0  0  0  0  0  0  0  0  0  0  0  0
    3.1634    2.2710   19.0450 C   0  0  0  0  0  0  0  0  0  0  0  0
    2.7481    2.6216   20.3018 C   0  0  0  0  0  0  0  0  0  0  0  0
    3.4413    2.1374   21.4346 C   0  0  0  0  0  0  0  0  0  0  0  0
    4.5346    1.3182   21.2850 C   0  0  0  0  0  0  0  0  0  0  0  0
    4.9912    0.9375   19.9961 C   0  0  0  0  0  0  0  0  0  0  0  0
    5.0628    0.9624   22.1643 H   0  0  0  0  0  0  0  0  0  0  0  0
    3.1072    2.4232   22.4289 H   0  0  0  0  0  0  0  0  0  0  0  0
    1.8888    3.2745   20.4386 H   0  0  0  0  0  0  0  0  0  0  0  0
    2.6397    2.6411   18.1655 H   0  0  0  0  0  0  0  0  0  0  0  0
    4.1991    1.3983   16.6988 H   0  0  0  0  0  0  0  0  0  0  0  0
    7.2662   -0.8690   18.2439 H   0  0  0  0  0  0  0  0  0  0  0  0
    7.8533   -0.9034   20.5239 H   0  0  0  0  0  0  0  0  0  0  0  0
    7.1655    0.2747   21.6455 H   0  0  0  0  0  0  0  0  0  0  0  0
    6.1913   -1.7435   22.9677 N   0  0  0  0  0  0  0  0  0  0  0  0
    7.4457   -1.6672   23.7167 C   0  0  0  0  0  0  0  0  0  0  0  0
    7.2224   -1.0295   25.0780 C   0  0  0  0  0  0  0  0  0  0  0  0
    6.1365   -1.7602   25.8674 C   0  0  1  0  0  0  0  0  0  0  0  0
    5.8689   -1.1105   27.2364 C   0  0  0  0  0  0  0  0  0  0  0  0
    5.1176    0.2178   27.1449 C   0  0  0  0  0  0  0  0  0  0  0  0
    3.8566    0.0732   26.3197 C   0  0  0  0  0  0  0  0  0  0  0  0
    3.2388    1.2903   26.1837 F   0  0  0  0  0  0  0  0  0  0  0  0
    2.9657   -0.7125   27.0066 F   0  0  0  0  0  0  0  0  0  0  0  0
    4.0958   -0.5392   24.9538 C   0  0  0  0  0  0  0  0  0  0  0  0
    4.8401   -1.8782   25.0476 C   0  0  1  0  0  0  0  0  0  0  0  0
    5.1287   -2.4707   23.6629 C   0  0  0  0  0  0  0  0  0  0  0  0
    5.3643   -3.5421   23.7621 H   0  0  0  0  0  0  0  0  0  0  0  0
    4.2321   -2.4206   23.0427 H   0  0  0  0  0  0  0  0  0  0  0  0
    4.1698   -2.5637   25.5777 H   0  0  0  0  0  0  0  0  0  0  0  0
    4.6736    0.1792   24.3683 H   0  0  0  0  0  0  0  0  0  0  0  0
    3.1282   -0.6567   24.4534 H   0  0  0  0  0  0  0  0  0  0  0  0
    4.8539    0.5972   28.1376 H   0  0  0  0  0  0  0  0  0  0  0  0
    5.7353    0.9790   26.6627 H   0  0  0  0  0  0  0  0  0  0  0  0
    6.8170   -0.9547   27.7627 H   0  0  0  0  0  0  0  0  0  0  0  0
    5.2846   -1.7993   27.8561 H   0  0  0  0  0  0  0  0  0  0  0  0
    6.5063   -2.7792   26.0507 H   0  0  0  0  0  0  0  0  0  0  0  0
    6.9599    0.0218   24.9420 H   0  0  0  0  0  0  0  0  0  0  0  0
    8.1593   -1.0333   25.6458 H   0  0  0  0  0  0  0  0  0  0  0  0
    7.8836   -2.6690   23.8607 H   0  0  0  0  0  0  0  0  0  0  0  0
    8.1749   -1.0990   23.1376 H   0  0  0  0  0  0  0  0  0  0  0  0
  1  2  2  0
  2  3  1  0
  3  4  1  0
  4  5  2  0
  5  6  1  0
  6  7  2  0
  7  8  1  0
  8  9  2  0
  9 10  1  0
 10 11  2  0
 11 12  1  0
 12 13  2  0
 12 14  1  0
 11 15  1  0
 10 16  1  0
  9 17  1  0
  7 18  1  0
  5 19  1  0
  3 20  1  0
  3 21  1  0
  2 22  1  0
 22 23  1  0
 23 24  1  0
 24 25  1  0
 25 26  1  0
 26 27  1  0
 27 28  1  0
 28 29  1  0
 28 30  1  0
 28 31  1  0
 31 32  1  0
 32 33  1  0
 33 34  1  0
 33 35  1  0
 32 36  1  1
 31 37  1  0
 31 38  1  0
 27 39  1  0
 27 40  1  0
 26 41  1  0
 26 42  1  0
 25 43  1  1
 24 44  1  0
 24 45  1  0
 23 46  1  0
 23 47  1  0
 13  4  1  0
 33 22  1  0
 13  8  1  0
 32 25  1  0
M  END
>  <cnnaffinities>  (67) 
[5.67888, 5.67889, 5.54229, 5.54264]

>  <score>  (67) 
5.67888

>  <index>  (67) 
66

>  <Smiles>  (67) 
O=C(C(c1c(nc(c2c(c(c(c(c12)[H])[H])[H])[H])[H])[H])([H])[H])N1C(C([C@]2(C(C(C(F)(F)C([C@]2(C1([H])[H])[H])([H])[H])([H])[H])([H])[H])[H])([H])[H])([H])[H]

>  <h>  (67) 
<NA>

>  <Training>  (67) 
True

>  <Success>  (67) 
True

>  <enamine_searched>  (67) 
False

>  <enamine_id>  (67) 
nan

$$$$

     RDKit          3D

 69 74  0  0  0  0  0  0  0  0999 V2000
    6.6901    4.3171   21.2241 C   0  0  0  0  0  0  0  0  0  0  0  0
    7.0266    3.4186   22.3292 N   0  0  0  0  0  4  0  0  0  0  0  0
    8.1398    3.8623   23.2010 C   0  0  0  0  0  0  0  0  0  0  0  0
    8.3061    2.8806   24.3598 C   0  0  0  0  0  0  0  0  0  0  0  0
    8.8900    1.6250   23.9056 N   0  0  0  0  0  0  0  0  0  0  0  0
    8.1452    0.3820   23.8093 C   0  0  0  0  0  0  0  0  0  0  0  0
    8.5166   -0.4356   22.5398 C   0  0  2  0  0  0  0  0  0  0  0  0
    7.9145    0.2923   21.3224 C   0  0  0  0  0  0  0  0  0  0  0  0
    8.1661    1.4365   20.9482 O   0  0  0  0  0  0  0  0  0  0  0  0
    6.9147   -0.4623   20.7907 N   0  0  0  0  0  0  0  0  0  0  0  0
    6.1304    0.0805   19.7381 C   0  0  0  0  0  0  0  0  0  0  0  0
    6.4659   -0.2122   18.4424 C   0  0  0  0  0  0  0  0  0  0  0  0
    5.7828    0.2287   17.3589 N   0  0  0  0  0  0  0  0  0  0  0  0
    4.7547    1.0094   17.5878 C   0  0  0  0  0  0  0  0  0  0  0  0
    4.3284    1.4257   18.8822 C   0  0  0  0  0  0  0  0  0  0  0  0
    3.2200    2.2965   19.0621 C   0  0  0  0  0  0  0  0  0  0  0  0
    2.8334    2.6824   20.3161 C   0  0  0  0  0  0  0  0  0  0  0  0
    3.5344    2.2200   21.4513 C   0  0  0  0  0  0  0  0  0  0  0  0
    4.6143    1.3783   21.3037 C   0  0  0  0  0  0  0  0  0  0  0  0
    5.0388    0.9542   20.0099 C   0  0  0  0  0  0  0  0  0  0  0  0
    5.1325    1.0222   22.1915 H   0  0  0  0  0  0  0  0  0  0  0  0
    3.2162    2.5360   22.4424 H   0  0  0  0  0  0  0  0  0  0  0  0
    1.9834    3.3471   20.4444 H   0  0  0  0  0  0  0  0  0  0  0  0
    2.6956    2.6428   18.1751 H   0  0  0  0  0  0  0  0  0  0  0  0
    4.1985    1.3644   16.7194 H   0  0  0  0  0  0  0  0  0  0  0  0
    7.3330   -0.8401   18.2510 H   0  0  0  0  0  0  0  0  0  0  0  0
    6.4926   -1.5425   21.6671 C   0  0  0  0  0  0  0  0  0  0  0  0
    7.7643   -1.8004   22.4923 C   0  0  2  0  0  0  0  0  0  0  0  0
    7.4750   -2.4264   23.8503 C   0  0  0  0  0  0  0  0  0  0  0  0
    6.8444   -3.6754   23.6661 O   0  0  0  0  0  0  0  0  0  0  0  0
    6.5206   -4.2758   24.9007 C   0  0  0  0  0  0  0  0  0  0  0  0
    5.8426   -5.6121   24.7016 C   0  0  0  0  0  0  0  0  0  0  0  0
    5.4708   -6.1175   25.9282 F   0  0  0  0  0  0  0  0  0  0  0  0
    6.2935   -6.5730   23.6611 C   0  0  0  0  0  0  0  0  0  0  0  0
    4.9404   -5.9066   23.5607 C   0  0  0  0  0  0  0  0  0  0  0  0
    4.8027   -5.1296   22.8175 H   0  0  0  0  0  0  0  0  0  0  0  0
    4.0743   -6.5217   23.7798 H   0  0  0  0  0  0  0  0  0  0  0  0
    6.3155   -7.6241   23.9270 H   0  0  0  0  0  0  0  0  0  0  0  0
    7.0767   -6.2342   22.9912 H   0  0  0  0  0  0  0  0  0  0  0  0
    7.4286   -4.4283   25.5074 H   0  0  0  0  0  0  0  0  0  0  0  0
    5.8452   -3.6276   25.4810 H   0  0  0  0  0  0  0  0  0  0  0  0
    8.4166   -2.5483   24.4110 H   0  0  0  0  0  0  0  0  0  0  0  0
    6.8155   -1.7678   24.4422 H   0  0  0  0  0  0  0  0  0  0  0  0
    8.3679   -2.5087   21.9217 H   0  0  0  0  0  0  0  0  0  0  0  0
    5.6466   -1.2413   22.3029 H   0  0  0  0  0  0  0  0  0  0  0  0
    6.1709   -2.4089   21.0886 H   0  0  0  0  0  0  0  0  0  0  0  0
   10.0286   -0.5061   22.4143 C   0  0  0  0  0  0  0  0  0  0  0  0
   10.6524   -1.4466   21.5759 C   0  0  0  0  0  0  0  0  0  0  0  0
   11.9951   -1.3147   21.2764 C   0  0  0  0  0  0  0  0  0  0  0  0
   12.7091   -2.3386   20.0638 Cl  0  0  0  0  0  0  0  0  0  0  0  0
   12.7935   -0.3349   21.8737 C   0  0  0  0  0  0  0  0  0  0  0  0
   12.2095    0.5183   22.7878 C   0  0  0  0  0  0  0  0  0  0  0  0
   10.8298    0.4963   22.9863 C   0  0  0  0  0  0  0  0  0  0  0  0
   10.2407    1.6532   23.7291 C   0  0  0  0  0  0  0  0  0  0  0  0
   10.9281    2.6045   24.1009 O   0  0  0  0  0  0  0  0  0  0  0  0
   12.7986    1.2319   23.3572 H   0  0  0  0  0  0  0  0  0  0  0  0
   13.8419   -0.2576   21.6016 H   0  0  0  0  0  0  0  0  0  0  0  0
   10.1307   -2.2883   21.1302 H   0  0  0  0  0  0  0  0  0  0  0  0
    8.3511   -0.2271   24.6971 H   0  0  0  0  0  0  0  0  0  0  0  0
    7.0716    0.6025   23.7862 H   0  0  0  0  0  0  0  0  0  0  0  0
    8.9836    3.2965   25.1058 H   0  0  0  0  0  0  0  0  0  0  0  0
    7.3396    2.6938   24.8351 H   0  0  0  0  0  0  0  0  0  0  0  0
    7.9549    4.8797   23.5624 H   0  0  0  0  0  0  0  0  0  0  0  0
    9.0644    3.8914   22.6163 H   0  0  0  0  0  0  0  0  0  0  0  0
    7.2987    2.5049   21.9183 H   0  0  0  0  0  0  0  0  0  0  0  0
    6.1707    3.2943   22.8993 H   0  0  0  0  0  0  0  0  0  0  0  0
    6.7053    5.3647   21.5419 H   0  0  0  0  0  0  0  0  0  0  0  0
    5.6930    4.0766   20.8395 H   0  0  0  0  0  0  0  0  0  0  0  0
    7.4200    4.1892   20.4233 H   0  0  0  0  0  0  0  0  0  0  0  0
  1  2  1  0
  2  3  1  0
  3  4  1  0
  4  5  1  0
  5  6  1  0
  7  6  1  1
  7  8  1  0
  8  9  2  0
  8 10  1  0
 10 11  1  0
 11 12  2  0
 12 13  1  0
 13 14  2  0
 14 15  1  0
 15 16  2  0
 16 17  1  0
 17 18  2  0
 18 19  1  0
 19 20  2  0
 19 21  1  0
 18 22  1  0
 17 23  1  0
 16 24  1  0
 14 25  1  0
 12 26  1  0
 10 27  1  0
 27 28  1  0
 28 29  1  0
 29 30  1  0
 30 31  1  0
 31 32  1  0
 32 33  1  0
 32 34  1  0
 34 35  1  0
 35 36  1  0
 35 37  1  0
 34 38  1  0
 34 39  1  0
 31 40  1  0
 31 41  1  0
 29 42  1  0
 29 43  1  0
 28 44  1  6
 27 45  1  0
 27 46  1  0
  7 47  1  0
 47 48  2  0
 48 49  1  0
 49 50  1  0
 49 51  2  0
 51 52  1  0
 52 53  2  0
 53 54  1  0
 54 55  2  0
 52 56  1  0
 51 57  1  0
 48 58  1  0
  6 59  1  0
  6 60  1  0
  4 61  1  0
  4 62  1  0
  3 63  1  0
  3 64  1  0
  2 65  1  0
  2 66  1  0
  1 67  1  0
  1 68  1  0
  1 69  1  0
 54  5  1  0
 28  7  1  0
 35 32  1  0
 53 47  1  0
 20 11  1  0
 20 15  1  0
M  CHG  1   2   1
M  END
>  <cnnaffinities>  (68) 
[6.90177]

>  <score>  (68) 
6.90177

>  <index>  (68) 
67

>  <Smiles>  (68) 
C([N+](C(C(N1C([C@@]2(C(=O)N(c3c(nc(c4c(c(c(c(c34)[H])[H])[H])[H])[H])[H])C([C@@]2(C(OC(C2(F)C(C2([H])[H])([H])[H])([H])[H])([H])[H])[H])([H])[H])c2c(c(Cl)c(c(c2C1=O)[H])[H])[H])([H])[H])([H])[H])([H])[H])([H])[H])([H])([H])[H]

>  <h>  (68) 
<NA>

>  <Training>  (68) 
True

>  <Success>  (68) 
True

>  <enamine_searched>  (68) 
False

>  <enamine_id>  (68) 
nan

$$$$

     RDKit          3D

 57 62  0  0  0  0  0  0  0  0999 V2000
    5.4049    4.9821   21.5230 C   0  0  0  0  0  0  0  0  0  0  0  0
    6.3788    4.5233   22.5542 C   0  0  0  0  0  0  0  0  0  0  0  0
    6.2919    3.5180   23.3796 N   0  0  0  0  0  0  0  0  0  0  0  0
    7.5173    3.5492   24.0071 C   0  0  0  0  0  0  0  0  0  0  0  0
    7.9455    2.5076   25.0041 C   0  0  0  0  0  0  0  0  0  0  0  0
    8.7036    1.4234   24.3942 N   0  0  0  0  0  0  0  0  0  0  0  0
    8.0858    0.1325   24.1512 C   0  0  0  0  0  0  0  0  0  0  0  0
    8.3787   -0.4044   22.7289 C   0  0  2  0  0  0  0  0  0  0  0  0
    7.6650    0.4469   21.6443 C   0  0  0  0  0  0  0  0  0  0  0  0
    7.7843    1.6347   21.4610 O   0  0  0  0  0  0  0  0  0  0  0  0
    6.8838   -0.3843   20.8685 N   0  0  0  0  0  0  0  0  0  0  0  0
    6.1278    0.1044   19.7752 C   0  0  0  0  0  0  0  0  0  0  0  0
    6.4444   -0.2282   18.4806 C   0  0  0  0  0  0  0  0  0  0  0  0
    5.7726    0.2199   17.3909 N   0  0  0  0  0  0  0  0  0  0  0  0
    4.7496    1.0168   17.5955 C   0  0  0  0  0  0  0  0  0  0  0  0
    4.2942    1.4196   18.8819 C   0  0  0  0  0  0  0  0  0  0  0  0
    3.1653    2.2691   19.0569 C   0  0  0  0  0  0  0  0  0  0  0  0
    2.7358    2.6068   20.3137 C   0  0  0  0  0  0  0  0  0  0  0  0
    3.4142    2.1119   21.4481 C   0  0  0  0  0  0  0  0  0  0  0  0
    4.5108    1.2992   21.3043 C   0  0  0  0  0  0  0  0  0  0  0  0
    4.9924    0.9444   20.0119 C   0  0  0  0  0  0  0  0  0  0  0  0
    5.0220    0.9243   22.1824 H   0  0  0  0  0  0  0  0  0  0  0  0
    3.0813    2.3913   22.4457 H   0  0  0  0  0  0  0  0  0  0  0  0
    1.8770    3.2617   20.4410 H   0  0  0  0  0  0  0  0  0  0  0  0
    2.6597    2.6406   18.1726 H   0  0  0  0  0  0  0  0  0  0  0  0
    4.2251    1.3805   16.7139 H   0  0  0  0  0  0  0  0  0  0  0  0
    7.2922   -0.8758   18.2603 H   0  0  0  0  0  0  0  0  0  0  0  0
    7.1143   -1.7909   21.1113 C   0  0  0  0  0  0  0  0  0  0  0  0
    7.8062   -1.8454   22.4953 C   0  0  2  0  0  0  0  0  0  0  0  0
    6.8317   -2.3825   23.5611 C   0  0  0  0  0  0  0  0  0  0  0  0
    7.3057   -2.4628   24.5448 H   0  0  0  0  0  0  0  0  0  0  0  0
    5.9427   -1.7470   23.6598 H   0  0  0  0  0  0  0  0  0  0  0  0
    6.4918   -3.3887   23.2833 H   0  0  0  0  0  0  0  0  0  0  0  0
    8.6465   -2.5493   22.4638 H   0  0  0  0  0  0  0  0  0  0  0  0
    6.1593   -2.3313   21.1001 H   0  0  0  0  0  0  0  0  0  0  0  0
    7.7585   -2.2133   20.3347 H   0  0  0  0  0  0  0  0  0  0  0  0
    9.8839   -0.2951   22.4981 C   0  0  0  0  0  0  0  0  0  0  0  0
   10.5007   -1.0744   21.5106 C   0  0  0  0  0  0  0  0  0  0  0  0
   11.8505   -0.9133   21.2694 C   0  0  0  0  0  0  0  0  0  0  0  0
   12.4415   -1.6612   20.3232 F   0  0  0  0  0  0  0  0  0  0  0  0
   12.6246    0.0129   21.9542 C   0  0  0  0  0  0  0  0  0  0  0  0
   12.0100    0.8168   22.8926 C   0  0  0  0  0  0  0  0  0  0  0  0
   10.6481    0.6755   23.1591 C   0  0  0  0  0  0  0  0  0  0  0  0
   10.0260    1.6470   24.1189 C   0  0  0  0  0  0  0  0  0  0  0  0
   10.6349    2.5906   24.5954 O   0  0  0  0  0  0  0  0  0  0  0  0
   12.5566    1.5800   23.4342 H   0  0  0  0  0  0  0  0  0  0  0  0
   13.6802    0.0831   21.7260 H   0  0  0  0  0  0  0  0  0  0  0  0
    9.9605   -1.7911   20.9018 H   0  0  0  0  0  0  0  0  0  0  0  0
    7.0092    0.2665   24.2719 H   0  0  0  0  0  0  0  0  0  0  0  0
    8.4459   -0.6112   24.8816 H   0  0  0  0  0  0  0  0  0  0  0  0
    8.5723    2.9699   25.7713 H   0  0  0  0  0  0  0  0  0  0  0  0
    7.0441    2.0854   25.4563 H   0  0  0  0  0  0  0  0  0  0  0  0
    8.2797    4.5388   23.6504 N   0  0  0  0  0  0  0  0  0  0  0  0
    7.5353    5.1906   22.6779 O   0  0  0  0  0  0  0  0  0  0  0  0
    5.6401    5.9975   21.1965 H   0  0  0  0  0  0  0  0  0  0  0  0
    4.3965    4.9461   21.9381 H   0  0  0  0  0  0  0  0  0  0  0  0
    5.4211    4.3054   20.6618 H   0  0  0  0  0  0  0  0  0  0  0  0
  1  2  1  0
  2  3  2  0
  3  4  1  0
  4  5  1  0
  5  6  1  0
  6  7  1  0
  8  7  1  1
  8  9  1  0
  9 10  2  0
  9 11  1  0
 11 12  1  0
 12 13  2  0
 13 14  1  0
 14 15  2  0
 15 16  1  0
 16 17  2  0
 17 18  1  0
 18 19  2  0
 19 20  1  0
 20 21  2  0
 20 22  1  0
 19 23  1  0
 18 24  1  0
 17 25  1  0
 15 26  1  0
 13 27  1  0
 11 28  1  0
 28 29  1  0
 29 30  1  0
 30 31  1  0
 30 32  1  0
 30 33  1  0
 29 34  1  6
 28 35  1  0
 28 36  1  0
  8 37  1  0
 37 38  2  0
 38 39  1  0
 39 40  1  0
 39 41  2  0
 41 42  1  0
 42 43  2  0
 43 44  1  0
 44 45  2  0
 42 46  1  0
 41 47  1  0
 38 48  1  0
  7 49  1  0
  7 50  1  0
  5 51  1  0
  5 52  1  0
  4 53  2  0
 53 54  1  0
  1 55  1  0
  1 56  1  0
  1 57  1  0
 54  2  1  0
 44  6  1  0
 29  8  1  0
 43 37  1  0
 21 12  1  0
 21 16  1  0
M  END
>  <cnnaffinities>  (69) 
[6.6758, 6.75998]

>  <score>  (69) 
6.6758

>  <index>  (69) 
68

>  <Smiles>  (69) 
C(c1nc(C(N2C([C@@]3(C(=O)N(c4c(nc(c5c(c(c(c(c45)[H])[H])[H])[H])[H])[H])C([C@@]3(C([H])([H])[H])[H])([H])[H])c3c(c(F)c(c(c3C2=O)[H])[H])[H])([H])[H])([H])[H])no1)([H])([H])[H]

>  <h>  (69) 
<NA>

>  <Training>  (69) 
True

>  <Success>  (69) 
True

>  <enamine_searched>  (69) 
False

>  <enamine_id>  (69) 
nan

$$$$

     RDKit          3D

 64 68  0  0  0  0  0  0  0  0999 V2000
    1.1600   -1.2582   28.5125 C   0  0  0  0  0  0  0  0  0  0  0  0
    2.5956   -1.5765   28.0699 C   0  0  0  0  0  0  0  0  0  0  0  0
    2.6886   -2.0500   26.6194 C   0  0  0  0  0  0  0  0  0  0  0  0
    2.4331   -1.2838   25.7107 O   0  0  0  0  0  0  0  0  0  0  0  0
    3.1184   -3.3636   26.3876 N   0  0  0  0  0  0  0  0  0  0  0  0
    2.6392   -4.4675   27.2300 C   0  0  0  0  0  0  0  0  0  0  0  0
    2.2021   -5.6455   26.3621 C   0  0  0  0  0  0  0  0  0  0  0  0
    3.3939   -6.1284   25.5390 C   0  0  0  0  0  0  0  0  0  0  0  0
    4.1072   -4.9804   24.8535 C   0  0  0  0  0  0  0  0  0  0  0  0
    4.9602   -5.2381   23.7843 C   0  0  0  0  0  0  0  0  0  0  0  0
    5.6832   -4.2434   23.1438 C   0  0  0  0  0  0  0  0  0  0  0  0
    5.5646   -2.9287   23.5940 C   0  0  0  0  0  0  0  0  0  0  0  0
    6.3191   -1.8742   22.9767 N   0  0  0  0  0  0  0  0  0  0  0  0
    7.3401   -1.2046   23.7812 C   0  0  0  0  0  0  0  0  0  0  0  0
    8.7632   -1.5285   23.3592 C   0  0  0  0  0  0  0  0  0  0  0  0
    9.2052   -2.8507   23.3841 C   0  0  0  0  0  0  0  0  0  0  0  0
   10.4977   -3.1653   22.9842 C   0  0  0  0  0  0  0  0  0  0  0  0
   11.3730   -2.1763   22.5524 C   0  0  0  0  0  0  0  0  0  0  0  0
   10.9413   -0.8571   22.5605 C   0  0  0  0  0  0  0  0  0  0  0  0
   12.0581    0.3970   22.0807 Cl  0  0  0  0  0  0  0  0  0  0  0  0
    9.6495   -0.5259   22.9588 C   0  0  0  0  0  0  0  0  0  0  0  0
    9.3518    0.5197   22.9469 H   0  0  0  0  0  0  0  0  0  0  0  0
   12.3782   -2.4193   22.2283 H   0  0  0  0  0  0  0  0  0  0  0  0
   10.8308   -4.1947   23.0223 H   0  0  0  0  0  0  0  0  0  0  0  0
    8.5329   -3.6374   23.7227 H   0  0  0  0  0  0  0  0  0  0  0  0
    7.1667   -1.5535   24.8062 H   0  0  0  0  0  0  0  0  0  0  0  0
    7.1995   -0.1165   23.7606 H   0  0  0  0  0  0  0  0  0  0  0  0
    6.1257   -1.6599   21.6225 C   0  0  0  0  0  0  0  0  0  0  0  0
    5.3749   -2.3685   20.9774 O   0  0  0  0  0  0  0  0  0  0  0  0
    6.8835   -0.5039   20.9274 C   0  0  0  0  0  0  0  0  0  0  0  0
    6.1038    0.0780   19.7749 C   0  0  0  0  0  0  0  0  0  0  0  0
    6.4156   -0.2162   18.4747 C   0  0  0  0  0  0  0  0  0  0  0  0
    5.7575    0.2401   17.3739 N   0  0  0  0  0  0  0  0  0  0  0  0
    4.7315    1.0323   17.5744 C   0  0  0  0  0  0  0  0  0  0  0  0
    4.2924    1.4180   18.8675 C   0  0  0  0  0  0  0  0  0  0  0  0
    3.1816    2.2636   19.0758 C   0  0  0  0  0  0  0  0  0  0  0  0
    2.5441    2.7103   17.9784 F   0  0  0  0  0  0  0  0  0  0  0  0
    2.7444    2.6275   20.3138 C   0  0  0  0  0  0  0  0  0  0  0  0
    3.4392    2.1353   21.4416 C   0  0  0  0  0  0  0  0  0  0  0  0
    4.5252    1.3139   21.2916 C   0  0  0  0  0  0  0  0  0  0  0  0
    4.9843    0.9322   20.0056 C   0  0  0  0  0  0  0  0  0  0  0  0
    5.0466    0.9427   22.1695 H   0  0  0  0  0  0  0  0  0  0  0  0
    3.1070    2.4197   22.4376 H   0  0  0  0  0  0  0  0  0  0  0  0
    1.8872    3.2832   20.4131 H   0  0  0  0  0  0  0  0  0  0  0  0
    4.1997    1.4002   16.6972 H   0  0  0  0  0  0  0  0  0  0  0  0
    7.2605   -0.8665   18.2462 H   0  0  0  0  0  0  0  0  0  0  0  0
    7.8234   -0.9205   20.5411 H   0  0  0  0  0  0  0  0  0  0  0  0
    7.1675    0.2737   21.6453 H   0  0  0  0  0  0  0  0  0  0  0  0
    4.7293   -2.6426   24.6692 C   0  0  0  0  0  0  0  0  0  0  0  0
    3.9674   -3.6504   25.2900 C   0  0  0  0  0  0  0  0  0  0  0  0
    4.7003   -1.6195   25.0305 H   0  0  0  0  0  0  0  0  0  0  0  0
    6.3281   -4.4924   22.3083 H   0  0  0  0  0  0  0  0  0  0  0  0
    5.0420   -6.2660   23.4382 H   0  0  0  0  0  0  0  0  0  0  0  0
    4.1056   -6.6570   26.1961 H   0  0  0  0  0  0  0  0  0  0  0  0
    3.0769   -6.8690   24.7921 H   0  0  0  0  0  0  0  0  0  0  0  0
    1.3829   -5.3321   25.7010 H   0  0  0  0  0  0  0  0  0  0  0  0
    1.8202   -6.4535   26.9981 H   0  0  0  0  0  0  0  0  0  0  0  0
    3.4228   -4.7905   27.9363 H   0  0  0  0  0  0  0  0  0  0  0  0
    1.7938   -4.0851   27.8103 H   0  0  0  0  0  0  0  0  0  0  0  0
    3.1829   -0.6480   28.0882 H   0  0  0  0  0  0  0  0  0  0  0  0
    3.0927   -2.2805   28.7497 H   0  0  0  0  0  0  0  0  0  0  0  0
    0.5132   -2.1446   28.4897 H   0  0  0  0  0  0  0  0  0  0  0  0
    1.1580   -0.8641   29.5359 H   0  0  0  0  0  0  0  0  0  0  0  0
    0.7213   -0.4964   27.8588 H   0  0  0  0  0  0  0  0  0  0  0  0
  1  2  1  0
  2  3  1  0
  3  4  2  0
  3  5  1  0
  5  6  1  0
  6  7  1  0
  7  8  1  0
  8  9  1  0
  9 10  2  0
 10 11  1  0
 11 12  2  0
 12 13  1  0
 13 14  1  0
 14 15  1  0
 15 16  2  0
 16 17  1  0
 17 18  2  0
 18 19  1  0
 19 20  1  0
 19 21  2  0
 21 22  1  0
 18 23  1  0
 17 24  1  0
 16 25  1  0
 14 26  1  0
 14 27  1  0
 13 28  1  0
 28 29  2  0
 28 30  1  0
 30 31  1  0
 31 32  2  0
 32 33  1  0
 33 34  2  0
 34 35  1  0
 35 36  2  0
 36 37  1  0
 36 38  1  0
 38 39  2  0
 39 40  1  0
 40 41  2  0
 40 42  1  0
 39 43  1  0
 38 44  1  0
 34 45  1  0
 32 46  1  0
 30 47  1  0
 30 48  1  0
 12 49  1  0
 49 50  2  0
 49 51  1  0
 11 52  1  0
 10 53  1  0
  8 54  1  0
  8 55  1  0
  7 56  1  0
  7 57  1  0
  6 58  1  0
  6 59  1  0
  2 60  1  0
  2 61  1  0
  1 62  1  0
  1 63  1  0
  1 64  1  0
 50  5  1  0
 50  9  1  0
 21 15  1  0
 41 31  1  0
 41 35  1  0
M  END
>  <cnnaffinities>  (70) 
[6.81675]

>  <score>  (70) 
6.81675

>  <index>  (70) 
69

>  <Smiles>  (70) 
C(C(C(=O)N1C(C(C(c2c(c(c(N(C(c3c(c(c(c(Cl)c3[H])[H])[H])[H])([H])[H])C(=O)C(c3c(nc(c4c(F)c(c(c(c34)[H])[H])[H])[H])[H])([H])[H])c(c12)[H])[H])[H])([H])[H])([H])[H])([H])[H])([H])[H])([H])([H])[H]

>  <h>  (70) 
<NA>

>  <Training>  (70) 
True

>  <Success>  (70) 
True

>  <enamine_searched>  (70) 
False

>  <enamine_id>  (70) 
nan

$$$$

     RDKit          3D

 57 62  0  0  0  0  0  0  0  0999 V2000
    7.2440   -2.3253   23.5332 C   0  0  0  0  0  0  0  0  0  0  0  0
    8.0572   -1.7986   22.3447 C   0  0  1  0  0  0  0  0  0  0  0  0
    7.2042   -1.7426   21.0624 C   0  0  0  0  0  0  0  0  0  0  0  0
    6.9033   -0.3401   20.8887 N   0  0  0  0  0  0  0  0  0  0  0  0
    6.1283    0.1139   19.7934 C   0  0  0  0  0  0  0  0  0  0  0  0
    6.4473   -0.2340   18.5048 C   0  0  0  0  0  0  0  0  0  0  0  0
    5.7859    0.2021   17.4043 N   0  0  0  0  0  0  0  0  0  0  0  0
    4.7622    0.9999   17.5978 C   0  0  0  0  0  0  0  0  0  0  0  0
    4.3015    1.4091   18.8816 C   0  0  0  0  0  0  0  0  0  0  0  0
    3.1788    2.2643   19.0459 C   0  0  0  0  0  0  0  0  0  0  0  0
    2.7560    2.6208   20.2974 C   0  0  0  0  0  0  0  0  0  0  0  0
    3.4273    2.1422   21.4436 C   0  0  0  0  0  0  0  0  0  0  0  0
    4.5117    1.3098   21.3122 C   0  0  0  0  0  0  0  0  0  0  0  0
    4.9891    0.9410   20.0248 C   0  0  0  0  0  0  0  0  0  0  0  0
    5.0127    0.9224   22.1941 H   0  0  0  0  0  0  0  0  0  0  0  0
    3.1064    2.4541   22.4339 H   0  0  0  0  0  0  0  0  0  0  0  0
    1.8907    3.2669   20.4112 H   0  0  0  0  0  0  0  0  0  0  0  0
    2.6739    2.6296   18.1554 H   0  0  0  0  0  0  0  0  0  0  0  0
    4.2369    1.3650   16.7143 H   0  0  0  0  0  0  0  0  0  0  0  0
    7.3011   -0.8811   18.3092 H   0  0  0  0  0  0  0  0  0  0  0  0
    7.8002    0.4920   21.5363 C   0  0  0  0  0  0  0  0  0  0  0  0
    7.8936    1.6823   21.3356 O   0  0  0  0  0  0  0  0  0  0  0  0
    8.6657   -0.3621   22.4976 C   0  0  1  0  0  0  0  0  0  0  0  0
    8.5791    0.1648   23.9538 C   0  0  0  0  0  0  0  0  0  0  0  0
    9.2078    1.4651   24.1189 N   0  0  0  0  0  0  0  0  0  0  0  0
    8.5814    2.4433   24.9899 C   0  0  0  0  0  0  0  0  0  0  0  0
    7.3856    3.0591   24.3443 C   0  0  0  0  0  0  0  0  0  0  0  0
    6.1108    2.7368   24.6577 N   0  0  0  0  0  0  0  0  0  0  0  0
    5.3557    3.4315   23.8494 N   0  0  0  0  0  0  0  0  0  0  0  0
    6.1668    4.1422   23.0955 N   0  0  0  0  0  0  0  0  0  0  0  0
    5.6923    4.8790   21.9379 C   0  0  0  0  0  0  0  0  0  0  0  0
    6.3537    5.7327   21.7771 H   0  0  0  0  0  0  0  0  0  0  0  0
    4.6800    5.2358   22.1454 H   0  0  0  0  0  0  0  0  0  0  0  0
    5.6964    4.2123   21.0642 H   0  0  0  0  0  0  0  0  0  0  0  0
    7.4494    3.9499   23.3648 N   0  0  0  0  0  0  0  0  0  0  0  0
    8.2828    1.9637   25.9250 H   0  0  0  0  0  0  0  0  0  0  0  0
    9.3393    3.2006   25.2085 H   0  0  0  0  0  0  0  0  0  0  0  0
   10.4403    1.7442   23.6008 C   0  0  0  0  0  0  0  0  0  0  0  0
   11.0886    2.7294   23.9327 O   0  0  0  0  0  0  0  0  0  0  0  0
   10.9559    0.7604   22.6068 C   0  0  0  0  0  0  0  0  0  0  0  0
   12.2927    0.8840   22.2273 C   0  0  0  0  0  0  0  0  0  0  0  0
   12.8713   -0.0227   21.3633 C   0  0  0  0  0  0  0  0  0  0  0  0
   12.0698   -1.0592   20.9002 C   0  0  0  0  0  0  0  0  0  0  0  0
   12.6153   -2.0128   20.1265 F   0  0  0  0  0  0  0  0  0  0  0  0
   10.7381   -1.1806   21.2354 C   0  0  0  0  0  0  0  0  0  0  0  0
   10.1418   -0.2643   22.1005 C   0  0  0  0  0  0  0  0  0  0  0  0
   10.1836   -2.0127   20.8212 H   0  0  0  0  0  0  0  0  0  0  0  0
   13.9087    0.0441   21.0535 H   0  0  0  0  0  0  0  0  0  0  0  0
   12.8601    1.7287   22.6009 H   0  0  0  0  0  0  0  0  0  0  0  0
    7.5388    0.2452   24.2779 H   0  0  0  0  0  0  0  0  0  0  0  0
    9.0836   -0.5684   24.5990 H   0  0  0  0  0  0  0  0  0  0  0  0
    6.2756   -2.3168   21.1474 H   0  0  0  0  0  0  0  0  0  0  0  0
    7.7626   -2.1198   20.2003 H   0  0  0  0  0  0  0  0  0  0  0  0
    8.8726   -2.5130   22.2177 H   0  0  0  0  0  0  0  0  0  0  0  0
    6.3802   -1.6876   23.7516 H   0  0  0  0  0  0  0  0  0  0  0  0
    7.8648   -2.3914   24.4326 H   0  0  0  0  0  0  0  0  0  0  0  0
    6.8785   -3.3337   23.3069 H   0  0  0  0  0  0  0  0  0  0  0  0
  1  2  1  0
  2  3  1  0
  3  4  1  0
  4  5  1  0
  5  6  2  0
  6  7  1  0
  7  8  2  0
  8  9  1  0
  9 10  2  0
 10 11  1  0
 11 12  2  0
 12 13  1  0
 13 14  2  0
 13 15  1  0
 12 16  1  0
 11 17  1  0
 10 18  1  0
  8 19  1  0
  6 20  1  0
  4 21  1  0
 21 22  2  0
 21 23  1  0
 23 24  1  1
 24 25  1  0
 25 26  1  0
 26 27  1  0
 27 28  1  0
 28 29  2  0
 29 30  1  0
 30 31  1  0
 31 32  1  0
 31 33  1  0
 31 34  1  0
 30 35  1  0
 26 36  1  0
 26 37  1  0
 25 38  1  0
 38 39  2  0
 38 40  1  0
 40 41  2  0
 41 42  1  0
 42 43  2  0
 43 44  1  0
 43 45  1  0
 45 46  2  0
 45 47  1  0
 42 48  1  0
 41 49  1  0
 24 50  1  0
 24 51  1  0
  3 52  1  0
  3 53  1  0
  2 54  1  6
  1 55  1  0
  1 56  1  0
  1 57  1  0
 23  2  1  0
 35 27  2  0
 46 40  1  0
 14  5  1  0
 46 23  1  0
 14  9  1  0
M  END
>  <cnnaffinities>  (71) 
[6.70242]

>  <score>  (71) 
6.70242

>  <index>  (71) 
70

>  <Smiles>  (71) 
C([C@]1(C(N(c2c(nc(c3c(c(c(c(c23)[H])[H])[H])[H])[H])[H])C(=O)[C@]21C(N(C(c1nnn(C([H])([H])[H])n1)([H])[H])C(=O)c1c(c(c(F)c(c21)[H])[H])[H])([H])[H])([H])[H])[H])([H])([H])[H]

>  <h>  (71) 
<NA>

>  <Training>  (71) 
True

>  <Success>  (71) 
True

>  <enamine_searched>  (71) 
False

>  <enamine_id>  (71) 
nan

$$$$

     RDKit          3D

 59 64  0  0  0  0  0  0  0  0999 V2000
    7.1346   -2.2754   23.6017 C   0  0  0  0  0  0  0  0  0  0  0  0
    7.9613   -1.8515   22.3791 C   0  0  1  0  0  0  0  0  0  0  0  0
    7.0530   -1.7624   21.1381 C   0  0  0  0  0  0  0  0  0  0  0  0
    6.9174   -0.3503   20.8802 N   0  0  0  0  0  0  0  0  0  0  0  0
    6.1427    0.1211   19.7906 C   0  0  0  0  0  0  0  0  0  0  0  0
    6.4539   -0.2295   18.5001 C   0  0  0  0  0  0  0  0  0  0  0  0
    5.7886    0.2082   17.4010 N   0  0  0  0  0  0  0  0  0  0  0  0
    4.7639    1.0040   17.5956 C   0  0  0  0  0  0  0  0  0  0  0  0
    4.3051    1.4041   18.8827 C   0  0  0  0  0  0  0  0  0  0  0  0
    3.1782    2.2512   19.0419 C   0  0  0  0  0  0  0  0  0  0  0  0
    2.7353    2.5832   20.2914 C   0  0  0  0  0  0  0  0  0  0  0  0
    3.3917    2.0842   21.4373 C   0  0  0  0  0  0  0  0  0  0  0  0
    4.4973    1.2790   21.3141 C   0  0  0  0  0  0  0  0  0  0  0  0
    4.9915    0.9341   20.0261 C   0  0  0  0  0  0  0  0  0  0  0  0
    4.9933    0.8912   22.1989 H   0  0  0  0  0  0  0  0  0  0  0  0
    3.0168    2.3471   22.4234 H   0  0  0  0  0  0  0  0  0  0  0  0
    1.8744    3.2334   20.4157 H   0  0  0  0  0  0  0  0  0  0  0  0
    2.6773    2.6234   18.1528 H   0  0  0  0  0  0  0  0  0  0  0  0
    4.2284    1.3673   16.7162 H   0  0  0  0  0  0  0  0  0  0  0  0
    7.3057   -0.8796   18.2994 H   0  0  0  0  0  0  0  0  0  0  0  0
    7.8858    0.4205   21.4910 C   0  0  0  0  0  0  0  0  0  0  0  0
    8.0506    1.6052   21.2900 O   0  0  0  0  0  0  0  0  0  0  0  0
    8.6921   -0.4659   22.4675 C   0  0  1  0  0  0  0  0  0  0  0  0
    8.6476    0.1250   23.8967 C   0  0  0  0  0  0  0  0  0  0  0  0
    9.3970    1.3620   24.0214 N   0  0  0  0  0  0  0  0  0  0  0  0
    8.8611    2.4362   24.8380 C   0  0  0  0  0  0  0  0  0  0  0  0
    7.7939    3.1981   24.1062 C   0  0  0  0  0  0  0  0  0  0  0  0
    6.5038    3.0087   24.2927 N   0  0  0  0  0  0  0  0  0  0  0  0
    5.8921    3.8998   23.4490 C   0  0  0  0  0  0  0  0  0  0  0  0
    6.8177    4.6030   22.7364 C   0  0  0  0  0  0  0  0  0  0  0  0
    8.0445    4.1574   23.1687 N   0  0  0  0  0  0  0  0  0  0  0  0
    9.3141    4.5193   22.5593 C   0  0  0  0  0  0  0  0  0  0  0  0
    9.2118    5.4978   22.0843 H   0  0  0  0  0  0  0  0  0  0  0  0
   10.1041    4.5853   23.3103 H   0  0  0  0  0  0  0  0  0  0  0  0
    9.5763    3.7949   21.7854 H   0  0  0  0  0  0  0  0  0  0  0  0
    6.7391    5.3207   21.9332 H   0  0  0  0  0  0  0  0  0  0  0  0
    4.8182    3.9713   23.3850 H   0  0  0  0  0  0  0  0  0  0  0  0
    9.7073    3.0738   25.1198 H   0  0  0  0  0  0  0  0  0  0  0  0
    8.4210    1.9929   25.7396 H   0  0  0  0  0  0  0  0  0  0  0  0
   10.6760    1.4637   23.5697 C   0  0  0  0  0  0  0  0  0  0  0  0
   11.4413    2.3502   23.9391 O   0  0  0  0  0  0  0  0  0  0  0  0
   11.0803    0.4535   22.5559 C   0  0  0  0  0  0  0  0  0  0  0  0
   12.3973    0.5147   22.1002 C   0  0  0  0  0  0  0  0  0  0  0  0
   12.8786   -0.4493   21.2424 C   0  0  0  0  0  0  0  0  0  0  0  0
   12.0178   -1.4700   20.8631 C   0  0  0  0  0  0  0  0  0  0  0  0
   12.5085   -2.4875   20.1319 F   0  0  0  0  0  0  0  0  0  0  0  0
   10.6817   -1.4880   21.2199 C   0  0  0  0  0  0  0  0  0  0  0  0
   10.1728   -0.5021   22.0705 C   0  0  0  0  0  0  0  0  0  0  0  0
   10.0595   -2.2769   20.8176 H   0  0  0  0  0  0  0  0  0  0  0  0
   13.8985   -0.4427   20.8778 H   0  0  0  0  0  0  0  0  0  0  0  0
   13.0360    1.3071   22.4732 H   0  0  0  0  0  0  0  0  0  0  0  0
    9.0713   -0.6194   24.5808 H   0  0  0  0  0  0  0  0  0  0  0  0
    7.6245    0.3287   24.2101 H   0  0  0  0  0  0  0  0  0  0  0  0
    7.4918   -2.2663   20.2764 H   0  0  0  0  0  0  0  0  0  0  0  0
    6.0664   -2.2086   21.3071 H   0  0  0  0  0  0  0  0  0  0  0  0
    8.7044   -2.6431   22.2533 H   0  0  0  0  0  0  0  0  0  0  0  0
    6.6658   -3.2478   23.4114 H   0  0  0  0  0  0  0  0  0  0  0  0
    6.3341   -1.5604   23.8210 H   0  0  0  0  0  0  0  0  0  0  0  0
    7.7550   -2.3908   24.4949 H   0  0  0  0  0  0  0  0  0  0  0  0
  1  2  1  0
  2  3  1  0
  3  4  1  0
  4  5  1  0
  5  6  2  0
  6  7  1  0
  7  8  2  0
  8  9  1  0
  9 10  2  0
 10 11  1  0
 11 12  2  0
 12 13  1  0
 13 14  2  0
 13 15  1  0
 12 16  1  0
 11 17  1  0
 10 18  1  0
  8 19  1  0
  6 20  1  0
  4 21  1  0
 21 22  2  0
 21 23  1  0
 23 24  1  1
 24 25  1  0
 25 26  1  0
 26 27  1  0
 27 28  2  0
 28 29  1  0
 29 30  2  0
 30 31  1  0
 31 32  1  0
 32 33  1  0
 32 34  1  0
 32 35  1  0
 30 36  1  0
 29 37  1  0
 26 38  1  0
 26 39  1  0
 25 40  1  0
 40 41  2  0
 40 42  1  0
 42 43  2  0
 43 44  1  0
 44 45  2  0
 45 46  1  0
 45 47  1  0
 47 48  2  0
 47 49  1  0
 44 50  1  0
 43 51  1  0
 24 52  1  0
 24 53  1  0
  3 54  1  0
  3 55  1  0
  2 56  1  6
  1 57  1  0
  1 58  1  0
  1 59  1  0
 23  2  1  0
 31 27  1  0
 48 42  1  0
 14  5  1  0
 48 23  1  0
 14  9  1  0
M  END
>  <cnnaffinities>  (72) 
[6.77711, 6.66666]

>  <score>  (72) 
6.77711

>  <index>  (72) 
71

>  <Smiles>  (72) 
C([C@]1(C(N(c2c(nc(c3c(c(c(c(c23)[H])[H])[H])[H])[H])[H])C(=O)[C@]21C(N(C(c1nc(c(n1C([H])([H])[H])[H])[H])([H])[H])C(=O)c1c(c(c(F)c(c21)[H])[H])[H])([H])[H])([H])[H])[H])([H])([H])[H]

>  <h>  (72) 
<NA>

>  <Training>  (72) 
True

>  <Success>  (72) 
True

>  <enamine_searched>  (72) 
False

>  <enamine_id>  (72) 
nan

$$$$

     RDKit          3D

 60 64  0  0  0  0  0  0  0  0999 V2000
    6.4855    4.4278   22.5885 C   0  0  0  0  0  0  0  0  0  0  0  0
    7.1789    3.6335   23.5795 N   0  0  0  0  0  0  0  0  0  0  0  0
    6.5190    2.6768   24.2713 C   0  0  0  0  0  0  0  0  0  0  0  0
    5.3033    2.5608   24.2275 O   0  0  0  0  0  0  0  0  0  0  0  0
    7.3836    1.7733   25.1545 C   0  0  0  0  0  0  0  0  0  0  0  0
    8.3904    1.0230   24.4377 N   0  0  0  0  0  0  0  0  0  0  0  0
    8.0511   -0.2821   23.8997 C   0  0  0  0  0  0  0  0  0  0  0  0
    8.6386   -0.4941   22.4879 C   0  0  2  0  0  0  0  0  0  0  0  0
    7.8703    0.3930   21.4827 C   0  0  0  0  0  0  0  0  0  0  0  0
    8.0043    1.5836   21.2926 O   0  0  0  0  0  0  0  0  0  0  0  0
    6.9546   -0.3939   20.8208 N   0  0  0  0  0  0  0  0  0  0  0  0
    6.1541    0.1042   19.7647 C   0  0  0  0  0  0  0  0  0  0  0  0
    6.4551   -0.2316   18.4658 C   0  0  0  0  0  0  0  0  0  0  0  0
    5.7797    0.2186   17.3807 N   0  0  0  0  0  0  0  0  0  0  0  0
    4.7582    1.0121   17.5980 C   0  0  0  0  0  0  0  0  0  0  0  0
    4.3162    1.4089   18.8917 C   0  0  0  0  0  0  0  0  0  0  0  0
    3.1908    2.2593   19.0642 C   0  0  0  0  0  0  0  0  0  0  0  0
    2.7646    2.6093   20.3171 C   0  0  0  0  0  0  0  0  0  0  0  0
    3.4518    2.1296   21.4561 C   0  0  0  0  0  0  0  0  0  0  0  0
    4.5499    1.3143   21.3169 C   0  0  0  0  0  0  0  0  0  0  0  0
    5.0199    0.9376   20.0242 C   0  0  0  0  0  0  0  0  0  0  0  0
    5.0572    0.9674   22.2123 H   0  0  0  0  0  0  0  0  0  0  0  0
    3.1387    2.4226   22.4552 H   0  0  0  0  0  0  0  0  0  0  0  0
    1.9041    3.2638   20.4424 H   0  0  0  0  0  0  0  0  0  0  0  0
    2.6817    2.6268   18.1782 H   0  0  0  0  0  0  0  0  0  0  0  0
    4.2152    1.3760   16.7255 H   0  0  0  0  0  0  0  0  0  0  0  0
    7.3053   -0.8826   18.2545 H   0  0  0  0  0  0  0  0  0  0  0  0
    6.9820   -1.7813   21.2133 C   0  0  0  0  0  0  0  0  0  0  0  0
    8.3224   -1.9196   21.9438 C   0  0  2  0  0  0  0  0  0  0  0  0
    8.2813   -2.9827   22.9369 N   0  0  0  0  0  0  0  0  0  0  0  0
    7.7973   -4.2316   22.6488 C   0  0  0  0  0  0  0  0  0  0  0  0
    7.2657   -4.5039   21.5819 O   0  0  0  0  0  0  0  0  0  0  0  0
    7.9604   -5.2475   23.7482 C   0  0  0  0  0  0  0  0  0  0  0  0
    7.8682   -4.8163   24.7507 H   0  0  0  0  0  0  0  0  0  0  0  0
    8.9530   -5.6939   23.6517 H   0  0  0  0  0  0  0  0  0  0  0  0
    7.2094   -6.0241   23.6080 H   0  0  0  0  0  0  0  0  0  0  0  0
    8.9054   -2.9047   23.7270 H   0  0  0  0  0  0  0  0  0  0  0  0
    9.0848   -2.1583   21.1984 H   0  0  0  0  0  0  0  0  0  0  0  0
    6.9017   -2.4499   20.3599 H   0  0  0  0  0  0  0  0  0  0  0  0
    6.1739   -2.0353   21.9053 H   0  0  0  0  0  0  0  0  0  0  0  0
   10.1087   -0.1265   22.5364 C   0  0  0  0  0  0  0  0  0  0  0  0
   11.0129   -0.6150   21.5863 C   0  0  0  0  0  0  0  0  0  0  0  0
   12.3366   -0.2028   21.6083 C   0  0  0  0  0  0  0  0  0  0  0  0
   13.4182   -0.7569   20.3564 Cl  0  0  0  0  0  0  0  0  0  0  0  0
   12.8131    0.7012   22.5588 C   0  0  0  0  0  0  0  0  0  0  0  0
   11.9285    1.1965   23.4966 C   0  0  0  0  0  0  0  0  0  0  0  0
   10.5925    0.7990   23.4756 C   0  0  0  0  0  0  0  0  0  0  0  0
    9.6760    1.4831   24.4340 C   0  0  0  0  0  0  0  0  0  0  0  0
   10.0399    2.4399   25.1117 O   0  0  0  0  0  0  0  0  0  0  0  0
   12.2261    1.9365   24.2339 H   0  0  0  0  0  0  0  0  0  0  0  0
   13.8408    1.0456   22.5067 H   0  0  0  0  0  0  0  0  0  0  0  0
   10.6774   -1.2241   20.7553 H   0  0  0  0  0  0  0  0  0  0  0  0
    8.4213   -1.0635   24.5698 H   0  0  0  0  0  0  0  0  0  0  0  0
    6.9636   -0.3458   23.8581 H   0  0  0  0  0  0  0  0  0  0  0  0
    6.6957    1.0934   25.6577 H   0  0  0  0  0  0  0  0  0  0  0  0
    7.9276    2.3791   25.8836 H   0  0  0  0  0  0  0  0  0  0  0  0
    8.1827    3.6349   23.5728 H   0  0  0  0  0  0  0  0  0  0  0  0
    6.0226    3.7894   21.8309 H   0  0  0  0  0  0  0  0  0  0  0  0
    5.6927    5.0133   23.0523 H   0  0  0  0  0  0  0  0  0  0  0  0
    7.1928    5.1032   22.1068 H   0  0  0  0  0  0  0  0  0  0  0  0
  1  2  1  0
  2  3  1  0
  3  4  2  0
  3  5  1  0
  5  6  1  0
  6  7  1  0
  8  7  1  1
  8  9  1  0
  9 10  2  0
  9 11  1  0
 11 12  1  0
 12 13  2  0
 13 14  1  0
 14 15  2  0
 15 16  1  0
 16 17  2  0
 17 18  1  0
 18 19  2  0
 19 20  1  0
 20 21  2  0
 20 22  1  0
 19 23  1  0
 18 24  1  0
 17 25  1  0
 15 26  1  0
 13 27  1  0
 11 28  1  0
 28 29  1  0
 29 30  1  0
 30 31  1  0
 31 32  2  0
 31 33  1  0
 33 34  1  0
 33 35  1  0
 33 36  1  0
 30 37  1  0
 29 38  1  6
 28 39  1  0
 28 40  1  0
  8 41  1  0
 41 42  2  0
 42 43  1  0
 43 44  1  0
 43 45  2  0
 45 46  1  0
 46 47  2  0
 47 48  1  0
 48 49  2  0
 46 50  1  0
 45 51  1  0
 42 52  1  0
  7 53  1  0
  7 54  1  0
  5 55  1  0
  5 56  1  0
  2 57  1  0
  1 58  1  0
  1 59  1  0
  1 60  1  0
 48  6  1  0
 29  8  1  0
 47 41  1  0
 21 12  1  0
 21 16  1  0
M  END
>  <cnnaffinities>  (73) 
[6.72328, 6.48819]

>  <score>  (73) 
6.72328

>  <index>  (73) 
72

>  <Smiles>  (73) 
C(N(C(=O)C(N1C([C@@]2(C(=O)N(c3c(nc(c4c(c(c(c(c34)[H])[H])[H])[H])[H])[H])C([C@@]2(N(C(=O)C([H])([H])[H])[H])[H])([H])[H])c2c(c(Cl)c(c(c2C1=O)[H])[H])[H])([H])[H])([H])[H])[H])([H])([H])[H]

>  <h>  (73) 
<NA>

>  <Training>  (73) 
True

>  <Success>  (73) 
True

>  <enamine_searched>  (73) 
False

>  <enamine_id>  (73) 
nan

$$$$

     RDKit          3D

 56 61  0  0  0  0  0  0  0  0999 V2000
    7.0406   -2.4960   23.4112 C   0  0  0  0  0  0  0  0  0  0  0  0
    7.9584   -1.8758   22.3506 C   0  0  1  0  0  0  0  0  0  0  0  0
    7.2526   -1.7793   20.9816 C   0  0  0  0  0  0  0  0  0  0  0  0
    6.8323   -0.3991   20.8906 N   0  0  0  0  0  0  0  0  0  0  0  0
    6.0803    0.0850   19.7952 C   0  0  0  0  0  0  0  0  0  0  0  0
    6.4153   -0.2546   18.5062 C   0  0  0  0  0  0  0  0  0  0  0  0
    5.7735    0.1952   17.3995 N   0  0  0  0  0  0  0  0  0  0  0  0
    4.7563    1.0044   17.5767 C   0  0  0  0  0  0  0  0  0  0  0  0
    4.2808    1.4126   18.8572 C   0  0  0  0  0  0  0  0  0  0  0  0
    3.1651    2.2825   19.0017 C   0  0  0  0  0  0  0  0  0  0  0  0
    2.7124    2.6296   20.2480 C   0  0  0  0  0  0  0  0  0  0  0  0
    3.3419    2.1148   21.4020 C   0  0  0  0  0  0  0  0  0  0  0  0
    4.4222    1.2752   21.2865 C   0  0  0  0  0  0  0  0  0  0  0  0
    4.9392    0.9269   20.0055 C   0  0  0  0  0  0  0  0  0  0  0  0
    4.9010    0.8725   22.1717 H   0  0  0  0  0  0  0  0  0  0  0  0
    2.9711    2.3922   22.3852 H   0  0  0  0  0  0  0  0  0  0  0  0
    1.8650    3.3022   20.3561 H   0  0  0  0  0  0  0  0  0  0  0  0
    2.6895    2.6689   18.1052 H   0  0  0  0  0  0  0  0  0  0  0  0
    4.2430    1.3663   16.6849 H   0  0  0  0  0  0  0  0  0  0  0  0
    7.2694   -0.9026   18.3132 H   0  0  0  0  0  0  0  0  0  0  0  0
    7.6414    0.4312   21.6457 C   0  0  0  0  0  0  0  0  0  0  0  0
    7.6770    1.6359   21.5211 O   0  0  0  0  0  0  0  0  0  0  0  0
    8.4538   -0.4214   22.6488 C   0  0  1  0  0  0  0  0  0  0  0  0
    8.1654    0.0431   24.0925 C   0  0  0  0  0  0  0  0  0  0  0  0
    8.5989    1.4052   24.2978 N   0  0  0  0  0  0  0  0  0  0  0  0
    7.6061    2.3982   24.7041 C   0  0  0  0  0  0  0  0  0  0  0  0
    7.8538    3.8433   24.2020 C   0  0  0  0  0  0  0  0  0  0  0  0
    8.4777    4.1694   25.5438 N   0  0  0  0  0  4  0  0  0  0  0  0
    7.8168    2.9468   26.1319 C   0  0  0  0  0  0  0  0  0  0  0  0
    6.8849    3.1557   26.6544 H   0  0  0  0  0  0  0  0  0  0  0  0
    8.4889    2.3667   26.7627 H   0  0  0  0  0  0  0  0  0  0  0  0
    8.4224    5.1033   25.9687 H   0  0  0  0  0  0  0  0  0  0  0  0
    9.4865    3.9228   25.4301 H   0  0  0  0  0  0  0  0  0  0  0  0
    6.9397    4.4047   23.9925 H   0  0  0  0  0  0  0  0  0  0  0  0
    8.5736    3.9697   23.3942 H   0  0  0  0  0  0  0  0  0  0  0  0
    6.6251    1.9612   24.4620 H   0  0  0  0  0  0  0  0  0  0  0  0
    9.9051    1.7346   24.0702 C   0  0  0  0  0  0  0  0  0  0  0  0
   10.4400    2.7340   24.5661 O   0  0  0  0  0  0  0  0  0  0  0  0
   10.6385    0.8177   23.1274 C   0  0  0  0  0  0  0  0  0  0  0  0
   12.0065    1.0080   22.9107 C   0  0  0  0  0  0  0  0  0  0  0  0
   12.7064    0.1905   22.0397 C   0  0  0  0  0  0  0  0  0  0  0  0
   12.0042   -0.7829   21.3316 C   0  0  0  0  0  0  0  0  0  0  0  0
   12.7985   -1.7296   20.1102 Cl  0  0  0  0  0  0  0  0  0  0  0  0
   10.6540   -0.9914   21.5309 C   0  0  0  0  0  0  0  0  0  0  0  0
    9.9510   -0.2052   22.4449 C   0  0  0  0  0  0  0  0  0  0  0  0
   10.1691   -1.7830   20.9689 H   0  0  0  0  0  0  0  0  0  0  0  0
   13.7767    0.2970   21.8937 H   0  0  0  0  0  0  0  0  0  0  0  0
   12.5195    1.8019   23.4422 H   0  0  0  0  0  0  0  0  0  0  0  0
    8.7021   -0.6267   24.7764 H   0  0  0  0  0  0  0  0  0  0  0  0
    7.1085   -0.0281   24.3381 H   0  0  0  0  0  0  0  0  0  0  0  0
    6.3874   -2.4429   20.8954 H   0  0  0  0  0  0  0  0  0  0  0  0
    7.9477   -2.0129   20.1673 H   0  0  0  0  0  0  0  0  0  0  0  0
    8.8155   -2.5488   22.2757 H   0  0  0  0  0  0  0  0  0  0  0  0
    6.7464   -3.5121   23.1254 H   0  0  0  0  0  0  0  0  0  0  0  0
    6.1261   -1.9108   23.5514 H   0  0  0  0  0  0  0  0  0  0  0  0
    7.5514   -2.5729   24.3755 H   0  0  0  0  0  0  0  0  0  0  0  0
  1  2  1  0
  2  3  1  0
  3  4  1  0
  4  5  1  0
  5  6  2  0
  6  7  1  0
  7  8  2  0
  8  9  1  0
  9 10  2  0
 10 11  1  0
 11 12  2  0
 12 13  1  0
 13 14  2  0
 13 15  1  0
 12 16  1  0
 11 17  1  0
 10 18  1  0
  8 19  1  0
  6 20  1  0
  4 21  1  0
 21 22  2  0
 21 23  1  0
 23 24  1  1
 24 25  1  0
 25 26  1  0
 26 27  1  0
 27 28  1  0
 28 29  1  0
 29 30  1  0
 29 31  1  0
 28 32  1  0
 28 33  1  0
 27 34  1  0
 27 35  1  0
 26 36  1  0
 25 37  1  0
 37 38  2  0
 37 39  1  0
 39 40  2  0
 40 41  1  0
 41 42  2  0
 42 43  1  0
 42 44  1  0
 44 45  2  0
 44 46  1  0
 41 47  1  0
 40 48  1  0
 24 49  1  0
 24 50  1  0
  3 51  1  0
  3 52  1  0
  2 53  1  6
  1 54  1  0
  1 55  1  0
  1 56  1  0
 23  2  1  0
 29 26  1  0
 45 39  1  0
 14  5  1  0
 45 23  1  0
 14  9  1  0
M  CHG  1  28   1
M  END
>  <cnnaffinities>  (74) 
[6.43616, 6.43628]

>  <score>  (74) 
6.43616

>  <index>  (74) 
73

>  <Smiles>  (74) 
C([C@]1(C(N(c2c(nc(c3c(c(c(c(c23)[H])[H])[H])[H])[H])[H])C(=O)[C@]21C(N(C1(C([N+](C1([H])[H])([H])[H])([H])[H])[H])C(=O)c1c(c(c(Cl)c(c21)[H])[H])[H])([H])[H])([H])[H])[H])([H])([H])[H]

>  <h>  (74) 
<NA>

>  <Training>  (74) 
True

>  <Success>  (74) 
True

>  <enamine_searched>  (74) 
False

>  <enamine_id>  (74) 
nan

$$$$

     RDKit          3D

 55 60  0  0  0  0  0  0  0  0999 V2000
    7.1007   -2.4543   23.4848 C   0  0  0  0  0  0  0  0  0  0  0  0
    7.9864   -1.8415   22.3838 C   0  0  1  0  0  0  0  0  0  0  0  0
    7.2177   -1.7705   21.0429 C   0  0  0  0  0  0  0  0  0  0  0  0
    6.8919   -0.3704   20.8731 N   0  0  0  0  0  0  0  0  0  0  0  0
    6.1297    0.1057   19.7788 C   0  0  0  0  0  0  0  0  0  0  0  0
    6.4458   -0.2267   18.4840 C   0  0  0  0  0  0  0  0  0  0  0  0
    5.7722    0.2191   17.3927 N   0  0  0  0  0  0  0  0  0  0  0  0
    4.7504    1.0150   17.5976 C   0  0  0  0  0  0  0  0  0  0  0  0
    4.2961    1.4163   18.8839 C   0  0  0  0  0  0  0  0  0  0  0  0
    3.1720    2.2701   19.0581 C   0  0  0  0  0  0  0  0  0  0  0  0
    2.7467    2.6147   20.3113 C   0  0  0  0  0  0  0  0  0  0  0  0
    3.4139    2.1081   21.4502 C   0  0  0  0  0  0  0  0  0  0  0  0
    4.4950    1.2756   21.3049 C   0  0  0  0  0  0  0  0  0  0  0  0
    4.9868    0.9356   20.0157 C   0  0  0  0  0  0  0  0  0  0  0  0
    5.0024    0.8811   22.1794 H   0  0  0  0  0  0  0  0  0  0  0  0
    3.0818    2.3975   22.4423 H   0  0  0  0  0  0  0  0  0  0  0  0
    1.8942    3.2768   20.4343 H   0  0  0  0  0  0  0  0  0  0  0  0
    2.6684    2.6417   18.1697 H   0  0  0  0  0  0  0  0  0  0  0  0
    4.2272    1.3781   16.7149 H   0  0  0  0  0  0  0  0  0  0  0  0
    7.2930   -0.8730   18.2595 H   0  0  0  0  0  0  0  0  0  0  0  0
    7.6716    0.4711   21.6443 C   0  0  0  0  0  0  0  0  0  0  0  0
    7.7088    1.6730   21.5140 O   0  0  0  0  0  0  0  0  0  0  0  0
    8.5084   -0.3859   22.6341 C   0  0  1  0  0  0  0  0  0  0  0  0
    8.3083    0.0671   24.0982 C   0  0  0  0  0  0  0  0  0  0  0  0
    8.8762    1.3713   24.3633 N   0  0  0  0  0  0  0  0  0  0  0  0
    8.0874    2.3436   25.1027 C   0  0  0  0  0  0  0  0  0  0  0  0
    7.3177    3.2737   24.1944 C   0  0  0  0  0  0  0  0  0  0  0  0
    7.8200    4.4076   23.4884 C   0  0  0  0  0  0  0  0  0  0  0  0
    6.7401    4.8515   22.8031 C   0  0  0  0  0  0  0  0  0  0  0  0
    5.6693    4.1045   23.0871 O   0  0  0  0  0  0  0  0  0  0  0  0
    6.0405    3.1008   23.9607 N   0  0  0  0  0  0  0  0  0  0  0  0
    6.5567    5.6297   22.0763 H   0  0  0  0  0  0  0  0  0  0  0  0
    8.8295    4.7841   23.5248 H   0  0  0  0  0  0  0  0  0  0  0  0
    7.4056    1.8043   25.7712 H   0  0  0  0  0  0  0  0  0  0  0  0
    8.7892    2.9248   25.7013 H   0  0  0  0  0  0  0  0  0  0  0  0
   10.1210    1.7346   23.9327 C   0  0  0  0  0  0  0  0  0  0  0  0
   10.6757    2.7504   24.3365 O   0  0  0  0  0  0  0  0  0  0  0  0
   10.7348    0.8187   22.9176 C   0  0  0  0  0  0  0  0  0  0  0  0
   12.0637    1.0356   22.5551 C   0  0  0  0  0  0  0  0  0  0  0  0
   12.6661    0.2407   21.6015 C   0  0  0  0  0  0  0  0  0  0  0  0
   11.9193   -0.7658   21.0016 C   0  0  0  0  0  0  0  0  0  0  0  0
   12.5143   -1.5008   20.0467 F   0  0  0  0  0  0  0  0  0  0  0  0
   10.5896   -0.9757   21.3102 C   0  0  0  0  0  0  0  0  0  0  0  0
    9.9894   -0.2018   22.3109 C   0  0  0  0  0  0  0  0  0  0  0  0
   10.0111   -1.6720   20.7154 H   0  0  0  0  0  0  0  0  0  0  0  0
   13.6693    0.4227   21.2407 H   0  0  0  0  0  0  0  0  0  0  0  0
   12.5887    1.8550   23.0331 H   0  0  0  0  0  0  0  0  0  0  0  0
    8.7631   -0.6923   24.7567 H   0  0  0  0  0  0  0  0  0  0  0  0
    7.2402    0.1592   24.3078 H   0  0  0  0  0  0  0  0  0  0  0  0
    7.8451   -2.1149   20.2149 H   0  0  0  0  0  0  0  0  0  0  0  0
    6.2984   -2.3701   21.0598 H   0  0  0  0  0  0  0  0  0  0  0  0
    8.8526   -2.5045   22.2804 H   0  0  0  0  0  0  0  0  0  0  0  0
    6.7918   -3.4665   23.1943 H   0  0  0  0  0  0  0  0  0  0  0  0
    6.1930   -1.8616   23.6533 H   0  0  0  0  0  0  0  0  0  0  0  0
    7.6352   -2.5414   24.4368 H   0  0  0  0  0  0  0  0  0  0  0  0
  1  2  1  0
  2  3  1  0
  3  4  1  0
  4  5  1  0
  5  6  2  0
  6  7  1  0
  7  8  2  0
  8  9  1  0
  9 10  2  0
 10 11  1  0
 11 12  2  0
 12 13  1  0
 13 14  2  0
 13 15  1  0
 12 16  1  0
 11 17  1  0
 10 18  1  0
  8 19  1  0
  6 20  1  0
  4 21  1  0
 21 22  2  0
 21 23  1  0
 23 24  1  1
 24 25  1  0
 25 26  1  0
 26 27  1  0
 27 28  1  0
 28 29  2  0
 29 30  1  0
 30 31  1  0
 29 32  1  0
 28 33  1  0
 26 34  1  0
 26 35  1  0
 25 36  1  0
 36 37  2  0
 36 38  1  0
 38 39  2  0
 39 40  1  0
 40 41  2  0
 41 42  1  0
 41 43  1  0
 43 44  2  0
 43 45  1  0
 40 46  1  0
 39 47  1  0
 24 48  1  0
 24 49  1  0
  3 50  1  0
  3 51  1  0
  2 52  1  6
  1 53  1  0
  1 54  1  0
  1 55  1  0
 23  2  1  0
 31 27  2  0
 44 38  1  0
 14  5  1  0
 44 23  1  0
 14  9  1  0
M  END
>  <cnnaffinities>  (75) 
[6.6947, 6.27355, 6.6414]

>  <score>  (75) 
6.6947

>  <index>  (75) 
74

>  <Smiles>  (75) 
C([C@]1(C(N(c2c(nc(c3c(c(c(c(c23)[H])[H])[H])[H])[H])[H])C(=O)[C@]21C(N(C(c1c(c(on1)[H])[H])([H])[H])C(=O)c1c(c(c(F)c(c21)[H])[H])[H])([H])[H])([H])[H])[H])([H])([H])[H]

>  <h>  (75) 
<NA>

>  <Training>  (75) 
True

>  <Success>  (75) 
True

>  <enamine_searched>  (75) 
False

>  <enamine_id>  (75) 
nan

$$$$

     RDKit          3D

 70 75  0  0  0  0  0  0  0  0999 V2000
    3.5793    6.2603   31.1061 C   0  0  0  0  0  0  0  0  0  0  0  0
    4.5405    5.3294   30.6513 O   0  0  0  0  0  0  0  0  0  0  0  0
    4.1411    4.1124   30.1921 C   0  0  0  0  0  0  0  0  0  0  0  0
    2.8153    3.6903   30.1206 C   0  0  0  0  0  0  0  0  0  0  0  0
    2.5408    2.4167   29.6253 C   0  0  0  0  0  0  0  0  0  0  0  0
    3.5610    1.5763   29.2029 C   0  0  0  0  0  0  0  0  0  0  0  0
    4.8925    2.0005   29.2634 C   0  0  0  0  0  0  0  0  0  0  0  0
    6.0228    1.1131   28.7552 C   0  0  0  0  0  0  0  0  0  0  0  0
    6.6239    1.5923   27.5129 N   0  0  0  0  0  0  0  0  0  0  0  0
    5.9549    1.4519   26.3395 C   0  0  0  0  0  0  0  0  0  0  0  0
    4.8453    0.9407   26.2642 O   0  0  0  0  0  0  0  0  0  0  0  0
    6.6744    1.9732   25.0901 C   0  0  0  0  0  0  0  0  0  0  0  0
    7.7456    1.1149   24.6303 N   0  0  0  0  0  0  0  0  0  0  0  0
    7.4400   -0.2082   24.1310 C   0  0  0  0  0  0  0  0  0  0  0  0
    8.2187   -0.5101   22.8240 C   0  0  2  0  0  0  0  0  0  0  0  0
    7.6474    0.3687   21.6834 C   0  0  0  0  0  0  0  0  0  0  0  0
    7.7835    1.5657   21.5548 O   0  0  0  0  0  0  0  0  0  0  0  0
    6.9229   -0.4296   20.8254 N   0  0  0  0  0  0  0  0  0  0  0  0
    6.1379    0.1018   19.7674 C   0  0  0  0  0  0  0  0  0  0  0  0
    6.4397   -0.2240   18.4693 C   0  0  0  0  0  0  0  0  0  0  0  0
    5.7660    0.2258   17.3824 N   0  0  0  0  0  0  0  0  0  0  0  0
    4.7448    1.0214   17.5913 C   0  0  0  0  0  0  0  0  0  0  0  0
    4.2958    1.4177   18.8828 C   0  0  0  0  0  0  0  0  0  0  0  0
    3.1696    2.2692   19.0562 C   0  0  0  0  0  0  0  0  0  0  0  0
    2.7455    2.6127   20.3106 C   0  0  0  0  0  0  0  0  0  0  0  0
    3.4210    2.1136   21.4474 C   0  0  0  0  0  0  0  0  0  0  0  0
    4.5106    1.2924   21.3038 C   0  0  0  0  0  0  0  0  0  0  0  0
    4.9964    0.9375   20.0123 C   0  0  0  0  0  0  0  0  0  0  0  0
    5.0234    0.9168   22.1852 H   0  0  0  0  0  0  0  0  0  0  0  0
    3.0795    2.3934   22.4399 H   0  0  0  0  0  0  0  0  0  0  0  0
    1.8912    3.2716   20.4417 H   0  0  0  0  0  0  0  0  0  0  0  0
    2.6589    2.6420   18.1717 H   0  0  0  0  0  0  0  0  0  0  0  0
    4.2158    1.3874   16.7114 H   0  0  0  0  0  0  0  0  0  0  0  0
    7.2841   -0.8788   18.2601 H   0  0  0  0  0  0  0  0  0  0  0  0
    6.8572   -1.8195   21.2354 C   0  0  0  0  0  0  0  0  0  0  0  0
    7.9585   -1.9575   22.3069 C   0  0  2  0  0  0  0  0  0  0  0  0
    7.6184   -3.0173   23.3629 C   0  0  0  0  0  0  0  0  0  0  0  0
    8.3911   -3.0857   24.1389 H   0  0  0  0  0  0  0  0  0  0  0  0
    7.5221   -4.0073   22.9003 H   0  0  0  0  0  0  0  0  0  0  0  0
    6.6664   -2.7925   23.8614 H   0  0  0  0  0  0  0  0  0  0  0  0
    8.8778   -2.2751   21.8077 H   0  0  0  0  0  0  0  0  0  0  0  0
    5.8677   -2.0686   21.6492 H   0  0  0  0  0  0  0  0  0  0  0  0
    7.0237   -2.4722   20.3747 H   0  0  0  0  0  0  0  0  0  0  0  0
    9.6824   -0.1595   23.0446 C   0  0  0  0  0  0  0  0  0  0  0  0
   10.6557   -0.5715   22.1251 C   0  0  0  0  0  0  0  0  0  0  0  0
   11.9690   -0.1597   22.2600 C   0  0  0  0  0  0  0  0  0  0  0  0
   13.0854   -0.4692   20.9592 Cl  0  0  0  0  0  0  0  0  0  0  0  0
   12.3836    0.5768   23.3708 C   0  0  0  0  0  0  0  0  0  0  0  0
   11.4152    1.0473   24.2371 C   0  0  0  0  0  0  0  0  0  0  0  0
   10.0692    0.7432   24.0416 C   0  0  0  0  0  0  0  0  0  0  0  0
    9.0388    1.4982   24.8298 C   0  0  0  0  0  0  0  0  0  0  0  0
    9.3216    2.4302   25.5667 O   0  0  0  0  0  0  0  0  0  0  0  0
   11.6504    1.7228   25.0445 H   0  0  0  0  0  0  0  0  0  0  0  0
   13.4320    0.8213   23.5044 H   0  0  0  0  0  0  0  0  0  0  0  0
   10.3994   -1.1618   21.2534 H   0  0  0  0  0  0  0  0  0  0  0  0
    7.7135   -0.9542   24.8936 H   0  0  0  0  0  0  0  0  0  0  0  0
    6.3606   -0.2586   23.9535 H   0  0  0  0  0  0  0  0  0  0  0  0
    7.1178    2.9598   25.2617 H   0  0  0  0  0  0  0  0  0  0  0  0
    5.9182    2.0491   24.3030 H   0  0  0  0  0  0  0  0  0  0  0  0
    7.5499    2.0005   27.5149 H   0  0  0  0  0  0  0  0  0  0  0  0
    6.8245    1.0489   29.4980 H   0  0  0  0  0  0  0  0  0  0  0  0
    5.6312    0.1017   28.5999 H   0  0  0  0  0  0  0  0  0  0  0  0
    5.1713    3.2648   29.7636 C   0  0  0  0  0  0  0  0  0  0  0  0
    6.1966    3.6222   29.8239 H   0  0  0  0  0  0  0  0  0  0  0  0
    3.3381    0.5940   28.7929 H   0  0  0  0  0  0  0  0  0  0  0  0
    1.5082    2.0842   29.5580 H   0  0  0  0  0  0  0  0  0  0  0  0
    2.0008    4.3347   30.4386 H   0  0  0  0  0  0  0  0  0  0  0  0
    2.8765    6.5509   30.3112 H   0  0  0  0  0  0  0  0  0  0  0  0
    4.1604    7.1346   31.4135 H   0  0  0  0  0  0  0  0  0  0  0  0
    3.0113    5.8787   31.9672 H   0  0  0  0  0  0  0  0  0  0  0  0
  1  2  1  0
  2  3  1  0
  3  4  2  0
  4  5  1  0
  5  6  2  0
  6  7  1  0
  7  8  1  0
  8  9  1  0
  9 10  1  0
 10 11  2  0
 10 12  1  0
 12 13  1  0
 13 14  1  0
 15 14  1  1
 15 16  1  0
 16 17  2  0
 16 18  1  0
 18 19  1  0
 19 20  2  0
 20 21  1  0
 21 22  2  0
 22 23  1  0
 23 24  2  0
 24 25  1  0
 25 26  2  0
 26 27  1  0
 27 28  2  0
 27 29  1  0
 26 30  1  0
 25 31  1  0
 24 32  1  0
 22 33  1  0
 20 34  1  0
 18 35  1  0
 35 36  1  0
 36 37  1  0
 37 38  1  0
 37 39  1  0
 37 40  1  0
 36 41  1  6
 35 42  1  0
 35 43  1  0
 15 44  1  0
 44 45  2  0
 45 46  1  0
 46 47  1  0
 46 48  2  0
 48 49  1  0
 49 50  2  0
 50 51  1  0
 51 52  2  0
 49 53  1  0
 48 54  1  0
 45 55  1  0
 14 56  1  0
 14 57  1  0
 12 58  1  0
 12 59  1  0
  9 60  1  0
  8 61  1  0
  8 62  1  0
  7 63  2  0
 63 64  1  0
  6 65  1  0
  5 66  1  0
  4 67  1  0
  1 68  1  0
  1 69  1  0
  1 70  1  0
 63  3  1  0
 51 13  1  0
 36 15  1  0
 50 44  1  0
 28 19  1  0
 28 23  1  0
M  END
>  <cnnaffinities>  (76) 
[6.75716, 6.15566]

>  <score>  (76) 
6.75716

>  <index>  (76) 
75

>  <Smiles>  (76) 
C(Oc1c(c(c(c(C(N(C(=O)C(N2C([C@@]3(C(=O)N(c4c(nc(c5c(c(c(c(c45)[H])[H])[H])[H])[H])[H])C([C@@]3(C([H])([H])[H])[H])([H])[H])c3c(c(Cl)c(c(c3C2=O)[H])[H])[H])([H])[H])([H])[H])[H])([H])[H])c1[H])[H])[H])[H])([H])([H])[H]

>  <h>  (76) 
<NA>

>  <Training>  (76) 
True

>  <Success>  (76) 
True

>  <enamine_searched>  (76) 
False

>  <enamine_id>  (76) 
nan

$$$$

     RDKit          3D

 61 65  0  0  0  0  0  0  0  0999 V2000
    7.4789   -2.5244   23.7800 C   0  0  0  0  0  0  0  0  0  0  0  0
    7.8649   -1.7413   22.5183 C   0  0  1  0  0  0  0  0  0  0  0  0
    6.6966   -1.6181   21.5198 C   0  0  0  0  0  0  0  0  0  0  0  0
    6.9574   -0.3692   20.8277 N   0  0  0  0  0  0  0  0  0  0  0  0
    6.1545    0.1195   19.7601 C   0  0  0  0  0  0  0  0  0  0  0  0
    6.4538   -0.2184   18.4648 C   0  0  0  0  0  0  0  0  0  0  0  0
    5.7637    0.2175   17.3806 N   0  0  0  0  0  0  0  0  0  0  0  0
    4.7459    1.0149   17.5940 C   0  0  0  0  0  0  0  0  0  0  0  0
    4.3073    1.4279   18.8848 C   0  0  0  0  0  0  0  0  0  0  0  0
    3.1893    2.2876   19.0637 C   0  0  0  0  0  0  0  0  0  0  0  0
    2.7818    2.6512   20.3165 C   0  0  0  0  0  0  0  0  0  0  0  0
    3.4657    2.1629   21.4536 C   0  0  0  0  0  0  0  0  0  0  0  0
    4.5500    1.3288   21.3059 C   0  0  0  0  0  0  0  0  0  0  0  0
    5.0191    0.9561   20.0136 C   0  0  0  0  0  0  0  0  0  0  0  0
    5.0581    0.9510   22.1896 H   0  0  0  0  0  0  0  0  0  0  0  0
    3.1383    2.4584   22.4456 H   0  0  0  0  0  0  0  0  0  0  0  0
    1.9361    3.3224   20.4453 H   0  0  0  0  0  0  0  0  0  0  0  0
    2.6750    2.6541   18.1777 H   0  0  0  0  0  0  0  0  0  0  0  0
    4.2136    1.3775   16.7140 H   0  0  0  0  0  0  0  0  0  0  0  0
    7.2967   -0.8722   18.2476 H   0  0  0  0  0  0  0  0  0  0  0  0
    7.8550    0.4516   21.4691 C   0  0  0  0  0  0  0  0  0  0  0  0
    8.1435    1.5731   21.0929 O   0  0  0  0  0  0  0  0  0  0  0  0
    8.4054   -0.2853   22.7121 C   0  0  1  0  0  0  0  0  0  0  0  0
    7.8605    0.3699   23.9960 C   0  0  0  0  0  0  0  0  0  0  0  0
    8.4305    1.6841   24.2248 N   0  0  0  0  0  0  0  0  0  0  0  0
    7.5496    2.7205   24.7275 C   0  0  0  0  0  0  0  0  0  0  0  0
    6.8811    3.5223   23.6159 C   0  0  0  0  0  0  0  0  0  0  0  0
    7.8533    4.3418   22.8231 N   0  0  0  0  0  4  0  0  0  0  0  0
    8.3755    5.5137   23.5823 C   0  0  0  0  0  0  0  0  0  0  0  0
    8.9546    5.1953   24.4491 H   0  0  0  0  0  0  0  0  0  0  0  0
    7.5337    6.1387   23.9084 H   0  0  0  0  0  0  0  0  0  0  0  0
    9.0097    6.1169   22.9267 H   0  0  0  0  0  0  0  0  0  0  0  0
    7.2021    4.8377   21.5841 C   0  0  0  0  0  0  0  0  0  0  0  0
    6.9423    3.9796   20.9634 H   0  0  0  0  0  0  0  0  0  0  0  0
    7.8829    5.5106   21.0619 H   0  0  0  0  0  0  0  0  0  0  0  0
    6.2948    5.4060   21.8295 H   0  0  0  0  0  0  0  0  0  0  0  0
    8.6248    3.7065   22.5507 H   0  0  0  0  0  0  0  0  0  0  0  0
    6.1302    4.2005   24.0368 H   0  0  0  0  0  0  0  0  0  0  0  0
    6.3798    2.8512   22.9101 H   0  0  0  0  0  0  0  0  0  0  0  0
    6.7723    2.2347   25.3253 H   0  0  0  0  0  0  0  0  0  0  0  0
    8.1482    3.3580   25.3770 H   0  0  0  0  0  0  0  0  0  0  0  0
    9.7836    1.8707   24.2317 C   0  0  0  0  0  0  0  0  0  0  0  0
   10.3142    2.8544   24.7394 O   0  0  0  0  0  0  0  0  0  0  0  0
   10.5664    0.8253   23.4798 C   0  0  0  0  0  0  0  0  0  0  0  0
   11.9591    0.9236   23.4309 C   0  0  0  0  0  0  0  0  0  0  0  0
   12.6933    0.1308   22.5615 C   0  0  0  0  0  0  0  0  0  0  0  0
   12.0086   -0.7269   21.6963 C   0  0  0  0  0  0  0  0  0  0  0  0
   12.7828   -1.4869   20.3333 Cl  0  0  0  0  0  0  0  0  0  0  0  0
   10.6480   -0.9048   21.8061 C   0  0  0  0  0  0  0  0  0  0  0  0
    9.9112   -0.1576   22.7230 C   0  0  0  0  0  0  0  0  0  0  0  0
   10.1688   -1.6198   21.1501 H   0  0  0  0  0  0  0  0  0  0  0  0
   13.7771    0.1741   22.5316 H   0  0  0  0  0  0  0  0  0  0  0  0
   12.4471    1.6676   24.0528 H   0  0  0  0  0  0  0  0  0  0  0  0
    6.7742    0.4888   23.9077 H   0  0  0  0  0  0  0  0  0  0  0  0
    8.0784   -0.2969   24.8469 H   0  0  0  0  0  0  0  0  0  0  0  0
    6.6538   -2.4504   20.8073 H   0  0  0  0  0  0  0  0  0  0  0  0
    5.7326   -1.5983   22.0535 H   0  0  0  0  0  0  0  0  0  0  0  0
    8.6675   -2.2894   22.0240 H   0  0  0  0  0  0  0  0  0  0  0  0
    6.6362   -2.0493   24.2965 H   0  0  0  0  0  0  0  0  0  0  0  0
    7.1714   -3.5469   23.5281 H   0  0  0  0  0  0  0  0  0  0  0  0
    8.3079   -2.5981   24.4945 H   0  0  0  0  0  0  0  0  0  0  0  0
  1  2  1  0
  2  3  1  0
  3  4  1  0
  4  5  1  0
  5  6  2  0
  6  7  1  0
  7  8  2  0
  8  9  1  0
  9 10  2  0
 10 11  1  0
 11 12  2  0
 12 13  1  0
 13 14  2  0
 13 15  1  0
 12 16  1  0
 11 17  1  0
 10 18  1  0
  8 19  1  0
  6 20  1  0
  4 21  1  0
 21 22  2  0
 21 23  1  0
 23 24  1  1
 24 25  1  0
 25 26  1  0
 26 27  1  0
 27 28  1  0
 28 29  1  0
 29 30  1  0
 29 31  1  0
 29 32  1  0
 28 33  1  0
 33 34  1  0
 33 35  1  0
 33 36  1  0
 28 37  1  0
 27 38  1  0
 27 39  1  0
 26 40  1  0
 26 41  1  0
 25 42  1  0
 42 43  2  0
 42 44  1  0
 44 45  2  0
 45 46  1  0
 46 47  2  0
 47 48  1  0
 47 49  1  0
 49 50  2  0
 49 51  1  0
 46 52  1  0
 45 53  1  0
 24 54  1  0
 24 55  1  0
  3 56  1  0
  3 57  1  0
  2 58  1  6
  1 59  1  0
  1 60  1  0
  1 61  1  0
 23  2  1  0
 50 44  1  0
 14  5  1  0
 50 23  1  0
 14  9  1  0
M  CHG  1  28   1
M  END
>  <cnnaffinities>  (77) 
[6.53391, 6.60197]

>  <score>  (77) 
6.53391

>  <index>  (77) 
76

>  <Smiles>  (77) 
C([C@]1(C(N(c2c(nc(c3c(c(c(c(c23)[H])[H])[H])[H])[H])[H])C(=O)[C@]21C(N(C(C([N+](C([H])([H])[H])(C([H])([H])[H])[H])([H])[H])([H])[H])C(=O)c1c(c(c(Cl)c(c21)[H])[H])[H])([H])[H])([H])[H])[H])([H])([H])[H]

>  <h>  (77) 
<NA>

>  <Training>  (77) 
True

>  <Success>  (77) 
True

>  <enamine_searched>  (77) 
False

>  <enamine_id>  (77) 
nan

$$$$

     RDKit          3D

 57 60  0  0  0  0  0  0  0  0999 V2000
    3.1213   -6.1627   26.7840 C   0  0  0  0  0  0  0  0  0  0  0  0
    3.6795   -6.4156   25.3690 C   0  0  0  0  0  0  0  0  0  0  0  0
    2.5145   -6.8291   24.4371 C   0  0  0  0  0  0  0  0  0  0  0  0
    2.8823   -7.0930   23.4384 H   0  0  0  0  0  0  0  0  0  0  0  0
    1.9763   -7.6889   24.8530 H   0  0  0  0  0  0  0  0  0  0  0  0
    1.8121   -5.9948   24.3353 H   0  0  0  0  0  0  0  0  0  0  0  0
    4.5895   -7.5822   25.4637 C   0  0  0  0  0  0  0  0  0  0  0  0
    5.2304   -8.5429   25.5365 N   0  0  0  0  0  0  0  0  0  0  0  0
    4.4380   -5.2150   24.7778 C   0  0  0  0  0  0  0  0  0  0  0  0
    5.2282   -5.3935   23.6405 C   0  0  0  0  0  0  0  0  0  0  0  0
    5.8782   -4.3249   23.0336 C   0  0  0  0  0  0  0  0  0  0  0  0
    5.7526   -3.0386   23.5576 C   0  0  0  0  0  0  0  0  0  0  0  0
    6.4242   -1.9234   22.9535 N   0  0  0  0  0  0  0  0  0  0  0  0
    7.4280   -1.2164   23.7472 C   0  0  0  0  0  0  0  0  0  0  0  0
    8.8488   -1.4800   23.2953 C   0  0  0  0  0  0  0  0  0  0  0  0
    9.3221   -2.7911   23.2828 C   0  0  0  0  0  0  0  0  0  0  0  0
   10.6118   -3.0576   22.8464 C   0  0  0  0  0  0  0  0  0  0  0  0
   11.4440   -2.0303   22.4224 C   0  0  0  0  0  0  0  0  0  0  0  0
   10.9910   -0.7212   22.4887 C   0  0  0  0  0  0  0  0  0  0  0  0
   12.0953    0.5685   22.0824 Cl  0  0  0  0  0  0  0  0  0  0  0  0
    9.6955   -0.4376   22.9089 C   0  0  0  0  0  0  0  0  0  0  0  0
    9.3637    0.5986   22.9274 H   0  0  0  0  0  0  0  0  0  0  0  0
   12.4382   -2.2373   22.0566 H   0  0  0  0  0  0  0  0  0  0  0  0
   10.9804   -4.0748   22.8546 H   0  0  0  0  0  0  0  0  0  0  0  0
    8.6787   -3.6039   23.6152 H   0  0  0  0  0  0  0  0  0  0  0  0
    7.2968   -1.5893   24.7691 H   0  0  0  0  0  0  0  0  0  0  0  0
    7.2481   -0.1346   23.7494 H   0  0  0  0  0  0  0  0  0  0  0  0
    6.1506   -1.6559   21.6228 C   0  0  0  0  0  0  0  0  0  0  0  0
    5.3430   -2.3282   21.0016 O   0  0  0  0  0  0  0  0  0  0  0  0
    6.8917   -0.4957   20.9272 C   0  0  0  0  0  0  0  0  0  0  0  0
    6.1063    0.0824   19.7774 C   0  0  0  0  0  0  0  0  0  0  0  0
    6.4231   -0.2214   18.4798 C   0  0  0  0  0  0  0  0  0  0  0  0
    5.7642    0.2330   17.3775 N   0  0  0  0  0  0  0  0  0  0  0  0
    4.7403    1.0229   17.5814 C   0  0  0  0  0  0  0  0  0  0  0  0
    4.2863    1.4175   18.8680 C   0  0  0  0  0  0  0  0  0  0  0  0
    3.1673    2.2704   19.0429 C   0  0  0  0  0  0  0  0  0  0  0  0
    2.7505    2.6240   20.2959 C   0  0  0  0  0  0  0  0  0  0  0  0
    3.4391    2.1395   21.4327 C   0  0  0  0  0  0  0  0  0  0  0  0
    4.5262    1.3175   21.2882 C   0  0  0  0  0  0  0  0  0  0  0  0
    4.9826    0.9327   20.0006 C   0  0  0  0  0  0  0  0  0  0  0  0
    5.0471    0.9530   22.1686 H   0  0  0  0  0  0  0  0  0  0  0  0
    3.1082    2.4275   22.4261 H   0  0  0  0  0  0  0  0  0  0  0  0
    1.8965    3.2824   20.4278 H   0  0  0  0  0  0  0  0  0  0  0  0
    2.6585    2.6383   18.1548 H   0  0  0  0  0  0  0  0  0  0  0  0
    4.2116    1.3901   16.6994 H   0  0  0  0  0  0  0  0  0  0  0  0
    7.2679   -0.8718   18.2511 H   0  0  0  0  0  0  0  0  0  0  0  0
    7.1710    0.2824   21.6466 H   0  0  0  0  0  0  0  0  0  0  0  0
    7.8357   -0.9052   20.5428 H   0  0  0  0  0  0  0  0  0  0  0  0
    4.9791   -2.8541   24.7038 C   0  0  0  0  0  0  0  0  0  0  0  0
    4.3176   -3.9272   25.2945 C   0  0  0  0  0  0  0  0  0  0  0  0
    3.7241   -3.7540   26.1855 H   0  0  0  0  0  0  0  0  0  0  0  0
    4.8999   -1.8584   25.1315 H   0  0  0  0  0  0  0  0  0  0  0  0
    6.4787   -4.5013   22.1456 H   0  0  0  0  0  0  0  0  0  0  0  0
    5.3294   -6.3902   23.2186 H   0  0  0  0  0  0  0  0  0  0  0  0
    2.3228   -5.4114   26.7552 H   0  0  0  0  0  0  0  0  0  0  0  0
    2.6948   -7.0932   27.1748 H   0  0  0  0  0  0  0  0  0  0  0  0
    3.9036   -5.8251   27.4745 H   0  0  0  0  0  0  0  0  0  0  0  0
  1  2  1  0
  2  3  1  0
  3  4  1  0
  3  5  1  0
  3  6  1  0
  2  7  1  0
  7  8  3  0
  2  9  1  0
  9 10  2  0
 10 11  1  0
 11 12  2  0
 12 13  1  0
 13 14  1  0
 14 15  1  0
 15 16  2  0
 16 17  1  0
 17 18  2  0
 18 19  1  0
 19 20  1  0
 19 21  2  0
 21 22  1  0
 18 23  1  0
 17 24  1  0
 16 25  1  0
 14 26  1  0
 14 27  1  0
 13 28  1  0
 28 29  2  0
 28 30  1  0
 30 31  1  0
 31 32  2  0
 32 33  1  0
 33 34  2  0
 34 35  1  0
 35 36  2  0
 36 37  1  0
 37 38  2  0
 38 39  1  0
 39 40  2  0
 39 41  1  0
 38 42  1  0
 37 43  1  0
 36 44  1  0
 34 45  1  0
 32 46  1  0
 30 47  1  0
 30 48  1  0
 12 49  1  0
 49 50  2  0
 50 51  1  0
 49 52  1  0
 11 53  1  0
 10 54  1  0
  1 55  1  0
  1 56  1  0
  1 57  1  0
 50  9  1  0
 21 15  1  0
 40 31  1  0
 40 35  1  0
M  END
>  <cnnaffinities>  (78) 
[6.92581, 6.94295, 6.7881, 6.78912, 6.79436, 6.79135, 6.87017, 6.87124, 6.81018]

>  <score>  (78) 
6.92581

>  <index>  (78) 
77

>  <Smiles>  (78) 
C(C(C([H])([H])[H])(C#N)c1c(c(c(N(C(c2c(c(c(c(Cl)c2[H])[H])[H])[H])([H])[H])C(=O)C(c2c(nc(c3c(c(c(c(c23)[H])[H])[H])[H])[H])[H])([H])[H])c(c1[H])[H])[H])[H])([H])([H])[H]

>  <h>  (78) 
<NA>

>  <Training>  (78) 
True

>  <Success>  (78) 
True

>  <enamine_searched>  (78) 
False

>  <enamine_id>  (78) 
nan

$$$$

     RDKit          3D

 40 42  0  0  0  0  0  0  0  0999 V2000
    5.7378   -2.9729   27.0648 C   0  0  0  0  0  0  0  0  0  0  0  0
    5.6272   -2.1417   25.7886 C   0  0  0  0  0  0  0  0  0  0  0  0
    6.9916   -1.8711   25.1685 C   0  0  0  0  0  0  0  0  0  0  0  0
    6.8870   -1.0490   23.8847 C   0  0  0  0  0  0  0  0  0  0  0  0
    5.9616   -1.6609   22.9458 N   0  0  0  0  0  0  0  0  0  0  0  0
    6.1323   -1.6641   21.5679 C   0  0  0  0  0  0  0  0  0  0  0  0
    5.6512   -2.5358   20.8715 O   0  0  0  0  0  0  0  0  0  0  0  0
    6.9071   -0.4966   20.9139 C   0  0  0  0  0  0  0  0  0  0  0  0
    6.1172    0.0942   19.7636 C   0  0  0  0  0  0  0  0  0  0  0  0
    6.4236   -0.2137   18.4637 C   0  0  0  0  0  0  0  0  0  0  0  0
    5.7581    0.2380   17.3641 N   0  0  0  0  0  0  0  0  0  0  0  0
    4.7347    1.0290   17.5761 C   0  0  0  0  0  0  0  0  0  0  0  0
    4.2870    1.4230   18.8658 C   0  0  0  0  0  0  0  0  0  0  0  0
    3.1648    2.2722   19.0433 C   0  0  0  0  0  0  0  0  0  0  0  0
    2.7480    2.6249   20.2986 C   0  0  0  0  0  0  0  0  0  0  0  0
    3.4403    2.1393   21.4317 C   0  0  0  0  0  0  0  0  0  0  0  0
    4.5327    1.3194   21.2873 C   0  0  0  0  0  0  0  0  0  0  0  0
    4.9913    0.9414   19.9965 C   0  0  0  0  0  0  0  0  0  0  0  0
    5.0512    0.9595   22.1730 H   0  0  0  0  0  0  0  0  0  0  0  0
    3.1065    2.4274   22.4242 H   0  0  0  0  0  0  0  0  0  0  0  0
    1.8905    3.2802   20.4341 H   0  0  0  0  0  0  0  0  0  0  0  0
    2.6453    2.6409   18.1620 H   0  0  0  0  0  0  0  0  0  0  0  0
    4.2005    1.3973   16.6979 H   0  0  0  0  0  0  0  0  0  0  0  0
    7.2662   -0.8674   18.2410 H   0  0  0  0  0  0  0  0  0  0  0  0
    7.1722    0.2816   21.6427 H   0  0  0  0  0  0  0  0  0  0  0  0
    7.8448   -0.9089   20.5200 H   0  0  0  0  0  0  0  0  0  0  0  0
    4.6433   -1.9991   23.4753 C   0  0  0  0  0  0  0  0  0  0  0  0
    4.7392   -2.8185   24.7513 C   0  0  0  0  0  0  0  0  0  0  0  0
    3.7373   -2.9819   25.1648 H   0  0  0  0  0  0  0  0  0  0  0  0
    5.1403   -3.8114   24.5217 H   0  0  0  0  0  0  0  0  0  0  0  0
    4.0658   -1.0802   23.6814 H   0  0  0  0  0  0  0  0  0  0  0  0
    4.1128   -2.5454   22.6967 H   0  0  0  0  0  0  0  0  0  0  0  0
    7.8670   -0.9912   23.4117 H   0  0  0  0  0  0  0  0  0  0  0  0
    6.5853   -0.0202   24.1447 H   0  0  0  0  0  0  0  0  0  0  0  0
    7.4874   -2.8250   24.9582 H   0  0  0  0  0  0  0  0  0  0  0  0
    7.6333   -1.3487   25.8847 H   0  0  0  0  0  0  0  0  0  0  0  0
    5.1744   -1.1743   26.0472 H   0  0  0  0  0  0  0  0  0  0  0  0
    4.7545   -3.1518   27.5149 H   0  0  0  0  0  0  0  0  0  0  0  0
    6.1847   -3.9516   26.8528 H   0  0  0  0  0  0  0  0  0  0  0  0
    6.3682   -2.4795   27.8134 H   0  0  0  0  0  0  0  0  0  0  0  0
  1  2  1  0
  2  3  1  0
  3  4  1  0
  4  5  1  0
  5  6  1  0
  6  7  2  0
  6  8  1  0
  8  9  1  0
  9 10  2  0
 10 11  1  0
 11 12  2  0
 12 13  1  0
 13 14  2  0
 14 15  1  0
 15 16  2  0
 16 17  1  0
 17 18  2  0
 17 19  1  0
 16 20  1  0
 15 21  1  0
 14 22  1  0
 12 23  1  0
 10 24  1  0
  8 25  1  0
  8 26  1  0
  5 27  1  0
 27 28  1  0
 28 29  1  0
 28 30  1  0
 27 31  1  0
 27 32  1  0
  4 33  1  0
  4 34  1  0
  3 35  1  0
  3 36  1  0
  2 37  1  0
  1 38  1  0
  1 39  1  0
  1 40  1  0
 28  2  1  0
 18  9  1  0
 18 13  1  0
M  END
>  <cnnaffinities>  (79) 
[5.172, 5.17195, 5.02635, 5.0262, 5.32535, 4.44689, 4.44004, 5.23751, 5.23734]

>  <score>  (79) 
5.172

>  <index>  (79) 
79

>  <Smiles>  (79) 
C(C1(C(C(N(C(=O)C(c2c(nc(c3c(c(c(c(c23)[H])[H])[H])[H])[H])[H])([H])[H])C(C1([H])[H])([H])[H])([H])[H])([H])[H])[H])([H])([H])[H]

>  <h>  (79) 
<NA>

>  <Training>  (79) 
True

>  <Success>  (79) 
True

>  <enamine_searched>  (79) 
False

>  <enamine_id>  (79) 
nan

$$$$

     RDKit          3D

 59 64  0  0  0  0  0  0  0  0999 V2000
    9.7532   -1.8539   21.9295 C   0  0  0  0  0  0  0  0  0  0  0  0
    8.5656   -0.9926   22.3942 C   0  0  1  0  0  0  0  0  0  0  0  0
    8.1279   -0.0241   21.2670 C   0  0  0  0  0  0  0  0  0  0  0  0
    6.8410   -0.5216   20.8313 N   0  0  0  0  0  0  0  0  0  0  0  0
    6.0965    0.0455   19.7672 C   0  0  0  0  0  0  0  0  0  0  0  0
    6.4459   -0.2288   18.4701 C   0  0  0  0  0  0  0  0  0  0  0  0
    5.7894    0.2431   17.3818 N   0  0  0  0  0  0  0  0  0  0  0  0
    4.7570    1.0226   17.5991 C   0  0  0  0  0  0  0  0  0  0  0  0
    4.2955    1.4040   18.8929 C   0  0  0  0  0  0  0  0  0  0  0  0
    3.1816    2.2703   19.0615 C   0  0  0  0  0  0  0  0  0  0  0  0
    2.7775    2.6408   20.3140 C   0  0  0  0  0  0  0  0  0  0  0  0
    3.4732    2.1719   21.4515 C   0  0  0  0  0  0  0  0  0  0  0  0
    4.5524    1.3335   21.3189 C   0  0  0  0  0  0  0  0  0  0  0  0
    4.9843    0.9128   20.0236 C   0  0  0  0  0  0  0  0  0  0  0  0
    5.0840    0.9905   22.2068 H   0  0  0  0  0  0  0  0  0  0  0  0
    3.1425    2.4785   22.4393 H   0  0  0  0  0  0  0  0  0  0  0  0
    1.9236    3.3007   20.4399 H   0  0  0  0  0  0  0  0  0  0  0  0
    2.6714    2.6334   18.1731 H   0  0  0  0  0  0  0  0  0  0  0  0
    4.2258    1.3864   16.7207 H   0  0  0  0  0  0  0  0  0  0  0  0
    7.2955   -0.8782   18.2639 H   0  0  0  0  0  0  0  0  0  0  0  0
    6.2977   -1.4956   21.6297 C   0  0  0  0  0  0  0  0  0  0  0  0
    5.2187   -2.0241   21.4290 O   0  0  0  0  0  0  0  0  0  0  0  0
    7.2659   -1.7706   22.8027 C   0  0  1  0  0  0  0  0  0  0  0  0
    7.4770   -3.2932   22.9565 C   0  0  0  0  0  0  0  0  0  0  0  0
    6.2673   -3.9408   23.4146 N   0  0  0  0  0  0  0  0  0  0  0  0
    5.8167   -5.1533   22.7848 C   0  0  0  0  0  0  0  0  0  0  0  0
    6.4004   -6.4078   23.3732 C   0  0  0  0  0  0  0  0  0  0  0  0
    7.7183   -6.8002   23.4517 C   0  0  0  0  0  0  0  0  0  0  0  0
    7.6783   -8.1288   23.9266 C   0  0  0  0  0  0  0  0  0  0  0  0
    6.4274   -8.5218   24.1417 N   0  0  0  0  0  0  0  0  0  0  0  0
    5.6697   -7.4612   23.8220 N   0  0  0  0  0  0  0  0  0  0  0  0
    4.2347   -7.5494   23.9990 C   0  0  0  0  0  0  0  0  0  0  0  0
    3.7548   -7.5975   23.0152 H   0  0  0  0  0  0  0  0  0  0  0  0
    4.0617   -8.4800   24.5422 H   0  0  0  0  0  0  0  0  0  0  0  0
    3.8637   -6.6908   24.5709 H   0  0  0  0  0  0  0  0  0  0  0  0
    8.4925   -8.7856   24.2256 H   0  0  0  0  0  0  0  0  0  0  0  0
    8.5663   -6.1693   23.2144 H   0  0  0  0  0  0  0  0  0  0  0  0
    4.7232   -5.1706   22.8164 H   0  0  0  0  0  0  0  0  0  0  0  0
    6.1225   -5.0667   21.7378 H   0  0  0  0  0  0  0  0  0  0  0  0
    5.6225   -3.5322   24.5379 C   0  0  0  0  0  0  0  0  0  0  0  0
    4.8405   -4.2615   25.1423 O   0  0  0  0  0  0  0  0  0  0  0  0
    5.8808   -2.1125   24.9284 C   0  0  0  0  0  0  0  0  0  0  0  0
    5.2794   -1.6394   26.0928 C   0  0  0  0  0  0  0  0  0  0  0  0
    5.3777   -0.3022   26.4284 C   0  0  0  0  0  0  0  0  0  0  0  0
    6.0768    0.5457   25.5783 C   0  0  0  0  0  0  0  0  0  0  0  0
    6.1480    1.8517   25.8938 F   0  0  0  0  0  0  0  0  0  0  0  0
    6.6952    0.0994   24.4278 C   0  0  0  0  0  0  0  0  0  0  0  0
    6.6310   -1.2619   24.0994 C   0  0  0  0  0  0  0  0  0  0  0  0
    7.2071    0.8306   23.8089 H   0  0  0  0  0  0  0  0  0  0  0  0
    4.9135    0.1055   27.3155 H   0  0  0  0  0  0  0  0  0  0  0  0
    4.7204   -2.3568   26.6885 H   0  0  0  0  0  0  0  0  0  0  0  0
    7.7502   -3.7217   21.9876 H   0  0  0  0  0  0  0  0  0  0  0  0
    8.2886   -3.4556   23.6830 H   0  0  0  0  0  0  0  0  0  0  0  0
    8.0483    1.0163   21.6165 H   0  0  0  0  0  0  0  0  0  0  0  0
    8.8393   -0.0301   20.4356 H   0  0  0  0  0  0  0  0  0  0  0  0
    8.9147   -0.4319   23.2702 H   0  0  0  0  0  0  0  0  0  0  0  0
   10.5945   -1.2084   21.6548 H   0  0  0  0  0  0  0  0  0  0  0  0
   10.1045   -2.5231   22.7201 H   0  0  0  0  0  0  0  0  0  0  0  0
    9.4981   -2.4600   21.0528 H   0  0  0  0  0  0  0  0  0  0  0  0
  1  2  1  0
  2  3  1  0
  3  4  1  0
  4  5  1  0
  5  6  2  0
  6  7  1  0
  7  8  2  0
  8  9  1  0
  9 10  2  0
 10 11  1  0
 11 12  2  0
 12 13  1  0
 13 14  2  0
 13 15  1  0
 12 16  1  0
 11 17  1  0
 10 18  1  0
  8 19  1  0
  6 20  1  0
  4 21  1  0
 21 22  2  0
 21 23  1  0
 23 24  1  1
 24 25  1  0
 25 26  1  0
 26 27  1  0
 27 28  2  0
 28 29  1  0
 29 30  2  0
 30 31  1  0
 31 32  1  0
 32 33  1  0
 32 34  1  0
 32 35  1  0
 29 36  1  0
 28 37  1  0
 26 38  1  0
 26 39  1  0
 25 40  1  0
 40 41  2  0
 40 42  1  0
 42 43  2  0
 43 44  1  0
 44 45  2  0
 45 46  1  0
 45 47  1  0
 47 48  2  0
 47 49  1  0
 44 50  1  0
 43 51  1  0
 24 52  1  0
 24 53  1  0
  3 54  1  0
  3 55  1  0
  2 56  1  1
  1 57  1  0
  1 58  1  0
  1 59  1  0
 23  2  1  0
 31 27  1  0
 48 42  1  0
 14  5  1  0
 48 23  1  0
 14  9  1  0
M  END
>  <cnnaffinities>  (80) 
[6.77137, 6.57638]

>  <score>  (80) 
6.77137

>  <index>  (80) 
80

>  <Smiles>  (80) 
C([C@]1(C(N(c2c(nc(c3c(c(c(c(c23)[H])[H])[H])[H])[H])[H])C(=O)[C@]21C(N(C(c1c(c(nn1C([H])([H])[H])[H])[H])([H])[H])C(=O)c1c(c(c(F)c(c21)[H])[H])[H])([H])[H])([H])[H])[H])([H])([H])[H]

>  <h>  (80) 
<NA>

>  <Training>  (80) 
True

>  <Success>  (80) 
True

>  <enamine_searched>  (80) 
False

>  <enamine_id>  (80) 
nan

$$$$

     RDKit          3D

 58 63  0  0  0  0  0  0  0  0999 V2000
    5.4577    4.9520   21.4145 C   0  0  0  0  0  0  0  0  0  0  0  0
    6.4451    4.5472   22.4638 C   0  0  0  0  0  0  0  0  0  0  0  0
    6.3473    3.5890   23.3348 N   0  0  0  0  0  0  0  0  0  0  0  0
    7.5807    3.5757   23.9881 C   0  0  0  0  0  0  0  0  0  0  0  0
    7.9662    2.5285   24.9923 C   0  0  0  0  0  0  0  0  0  0  0  0
    8.7145    1.4142   24.4124 N   0  0  0  0  0  0  0  0  0  0  0  0
    8.0598    0.1464   24.1595 C   0  0  0  0  0  0  0  0  0  0  0  0
    8.3569   -0.4135   22.7452 C   0  0  2  0  0  0  0  0  0  0  0  0
    7.6820    0.4363   21.6323 C   0  0  0  0  0  0  0  0  0  0  0  0
    7.8438    1.6140   21.4160 O   0  0  0  0  0  0  0  0  0  0  0  0
    6.8823   -0.3879   20.8685 N   0  0  0  0  0  0  0  0  0  0  0  0
    6.1278    0.1045   19.7744 C   0  0  0  0  0  0  0  0  0  0  0  0
    6.4439   -0.2279   18.4803 C   0  0  0  0  0  0  0  0  0  0  0  0
    5.7721    0.2202   17.3901 N   0  0  0  0  0  0  0  0  0  0  0  0
    4.7495    1.0169   17.5943 C   0  0  0  0  0  0  0  0  0  0  0  0
    4.2937    1.4203   18.8806 C   0  0  0  0  0  0  0  0  0  0  0  0
    3.1649    2.2687   19.0580 C   0  0  0  0  0  0  0  0  0  0  0  0
    2.7349    2.6050   20.3139 C   0  0  0  0  0  0  0  0  0  0  0  0
    3.4143    2.1109   21.4493 C   0  0  0  0  0  0  0  0  0  0  0  0
    4.5123    1.3016   21.3031 C   0  0  0  0  0  0  0  0  0  0  0  0
    4.9938    0.9459   20.0115 C   0  0  0  0  0  0  0  0  0  0  0  0
    5.0242    0.9267   22.1819 H   0  0  0  0  0  0  0  0  0  0  0  0
    3.0803    2.3899   22.4464 H   0  0  0  0  0  0  0  0  0  0  0  0
    1.8756    3.2582   20.4429 H   0  0  0  0  0  0  0  0  0  0  0  0
    2.6575    2.6408   18.1741 H   0  0  0  0  0  0  0  0  0  0  0  0
    4.2240    1.3811   16.7126 H   0  0  0  0  0  0  0  0  0  0  0  0
    7.2912   -0.8765   18.2609 H   0  0  0  0  0  0  0  0  0  0  0  0
    7.0643   -1.7957   21.1418 C   0  0  0  0  0  0  0  0  0  0  0  0
    7.7467   -1.8430   22.5308 C   0  0  2  0  0  0  0  0  0  0  0  0
    6.7503   -2.3351   23.5984 C   0  0  0  0  0  0  0  0  0  0  0  0
    7.2150   -2.4130   24.5865 H   0  0  0  0  0  0  0  0  0  0  0  0
    5.8783   -1.6746   23.6815 H   0  0  0  0  0  0  0  0  0  0  0  0
    6.3841   -3.3355   23.3348 H   0  0  0  0  0  0  0  0  0  0  0  0
    8.5681   -2.5695   22.5190 H   0  0  0  0  0  0  0  0  0  0  0  0
    6.0917   -2.3037   21.1370 H   0  0  0  0  0  0  0  0  0  0  0  0
    7.6949   -2.2598   20.3780 H   0  0  0  0  0  0  0  0  0  0  0  0
    9.8664   -0.3461   22.5283 C   0  0  0  0  0  0  0  0  0  0  0  0
   10.4669   -1.1502   21.5510 C   0  0  0  0  0  0  0  0  0  0  0  0
   11.8219   -1.0324   21.3171 C   0  0  0  0  0  0  0  0  0  0  0  0
   12.3961   -1.8118   20.3862 F   0  0  0  0  0  0  0  0  0  0  0  0
   12.6176   -0.1246   22.0023 C   0  0  0  0  0  0  0  0  0  0  0  0
   12.0193    0.7060   22.9287 C   0  0  0  0  0  0  0  0  0  0  0  0
   10.6507    0.6117   23.1872 C   0  0  0  0  0  0  0  0  0  0  0  0
   10.0360    1.6169   24.1211 C   0  0  0  0  0  0  0  0  0  0  0  0
   10.6532    2.5777   24.5595 O   0  0  0  0  0  0  0  0  0  0  0  0
   12.5895    1.4543   23.4671 H   0  0  0  0  0  0  0  0  0  0  0  0
   13.6782   -0.0923   21.7853 H   0  0  0  0  0  0  0  0  0  0  0  0
    9.9110   -1.8589   20.9459 H   0  0  0  0  0  0  0  0  0  0  0  0
    6.9867    0.3197   24.2561 H   0  0  0  0  0  0  0  0  0  0  0  0
    8.3782   -0.6028   24.9034 H   0  0  0  0  0  0  0  0  0  0  0  0
    7.0588    2.1288   25.4567 H   0  0  0  0  0  0  0  0  0  0  0  0
    8.5992    2.9774   25.7632 H   0  0  0  0  0  0  0  0  0  0  0  0
    8.3321    4.5881   23.5085 C   0  0  0  0  0  0  0  0  0  0  0  0
    7.6251    5.2189   22.5277 O   0  0  0  0  0  0  0  0  0  0  0  0
    9.3125    4.9706   23.7440 H   0  0  0  0  0  0  0  0  0  0  0  0
    5.6657    5.9533   21.0290 H   0  0  0  0  0  0  0  0  0  0  0  0
    4.4559    4.9206   21.8446 H   0  0  0  0  0  0  0  0  0  0  0  0
    5.4620    4.2343   20.5863 H   0  0  0  0  0  0  0  0  0  0  0  0
  1  2  1  0
  2  3  2  0
  3  4  1  0
  4  5  1  0
  5  6  1  0
  6  7  1  0
  8  7  1  1
  8  9  1  0
  9 10  2  0
  9 11  1  0
 11 12  1  0
 12 13  2  0
 13 14  1  0
 14 15  2  0
 15 16  1  0
 16 17  2  0
 17 18  1  0
 18 19  2  0
 19 20  1  0
 20 21  2  0
 20 22  1  0
 19 23  1  0
 18 24  1  0
 17 25  1  0
 15 26  1  0
 13 27  1  0
 11 28  1  0
 28 29  1  0
 29 30  1  0
 30 31  1  0
 30 32  1  0
 30 33  1  0
 29 34  1  6
 28 35  1  0
 28 36  1  0
  8 37  1  0
 37 38  2  0
 38 39  1  0
 39 40  1  0
 39 41  2  0
 41 42  1  0
 42 43  2  0
 43 44  1  0
 44 45  2  0
 42 46  1  0
 41 47  1  0
 38 48  1  0
  7 49  1  0
  7 50  1  0
  5 51  1  0
  5 52  1  0
  4 53  2  0
 53 54  1  0
 53 55  1  0
  1 56  1  0
  1 57  1  0
  1 58  1  0
 54  2  1  0
 44  6  1  0
 29  8  1  0
 43 37  1  0
 21 12  1  0
 21 16  1  0
M  END
>  <cnnaffinities>  (81) 
[6.70023, 6.70445]

>  <score>  (81) 
6.70023

>  <index>  (81) 
81

>  <Smiles>  (81) 
C(c1nc(C(N2C([C@@]3(C(=O)N(c4c(nc(c5c(c(c(c(c45)[H])[H])[H])[H])[H])[H])C([C@@]3(C([H])([H])[H])[H])([H])[H])c3c(c(F)c(c(c3C2=O)[H])[H])[H])([H])[H])([H])[H])c(o1)[H])([H])([H])[H]

>  <h>  (81) 
<NA>

>  <Training>  (81) 
True

>  <Success>  (81) 
True

>  <enamine_searched>  (81) 
False

>  <enamine_id>  (81) 
nan

$$$$

     RDKit          3D

 55 60  0  0  0  0  0  0  0  0999 V2000
    7.5459   -2.8582   23.5155 C   0  0  0  0  0  0  0  0  0  0  0  0
    7.9193   -1.9034   22.3713 C   0  0  1  0  0  0  0  0  0  0  0  0
    6.7832   -1.7605   21.3359 C   0  0  0  0  0  0  0  0  0  0  0  0
    6.9293   -0.4106   20.8267 N   0  0  0  0  0  0  0  0  0  0  0  0
    6.1399    0.1063   19.7631 C   0  0  0  0  0  0  0  0  0  0  0  0
    6.4447   -0.2229   18.4687 C   0  0  0  0  0  0  0  0  0  0  0  0
    5.7670    0.2225   17.3799 N   0  0  0  0  0  0  0  0  0  0  0  0
    4.7464    1.0179   17.5891 C   0  0  0  0  0  0  0  0  0  0  0  0
    4.2946    1.4171   18.8774 C   0  0  0  0  0  0  0  0  0  0  0  0
    3.1671    2.2664   19.0557 C   0  0  0  0  0  0  0  0  0  0  0  0
    2.7392    2.6030   20.3086 C   0  0  0  0  0  0  0  0  0  0  0  0
    3.4117    2.0965   21.4452 C   0  0  0  0  0  0  0  0  0  0  0  0
    4.5074    1.2816   21.2970 C   0  0  0  0  0  0  0  0  0  0  0  0
    4.9953    0.9358   20.0085 C   0  0  0  0  0  0  0  0  0  0  0  0
    5.0274    0.9082   22.1753 H   0  0  0  0  0  0  0  0  0  0  0  0
    3.0827    2.3847   22.4393 H   0  0  0  0  0  0  0  0  0  0  0  0
    1.8870    3.2664   20.4387 H   0  0  0  0  0  0  0  0  0  0  0  0
    2.6596    2.6433   18.1706 H   0  0  0  0  0  0  0  0  0  0  0  0
    4.2183    1.3833   16.7077 H   0  0  0  0  0  0  0  0  0  0  0  0
    7.2876   -0.8796   18.2597 H   0  0  0  0  0  0  0  0  0  0  0  0
    7.7356    0.3991   21.5956 C   0  0  0  0  0  0  0  0  0  0  0  0
    7.9309    1.5737   21.3739 O   0  0  0  0  0  0  0  0  0  0  0  0
    8.3172   -0.4407   22.7648 C   0  0  1  0  0  0  0  0  0  0  0  0
    7.6683   -0.0041   24.0997 C   0  0  0  0  0  0  0  0  0  0  0  0
    8.1147    1.3126   24.5157 N   0  0  0  0  0  0  0  0  0  0  0  0
    7.1585    2.3191   24.9238 C   0  0  0  0  0  0  0  0  0  0  0  0
    6.8896    3.3415   23.8543 C   0  0  0  0  0  0  0  0  0  0  0  0
    5.7367    3.6350   23.3481 N   0  0  0  0  0  0  0  0  0  0  0  0
    6.0194    4.6112   22.3981 C   0  0  0  0  0  0  0  0  0  0  0  0
    7.3433    4.8714   22.4247 C   0  0  0  0  0  0  0  0  0  0  0  0
    7.9128    4.0583   23.3595 O   0  0  0  0  0  0  0  0  0  0  0  0
    8.0094    5.5492   21.9165 H   0  0  0  0  0  0  0  0  0  0  0  0
    5.2507    5.0245   21.7585 H   0  0  0  0  0  0  0  0  0  0  0  0
    6.2065    1.8352   25.1480 H   0  0  0  0  0  0  0  0  0  0  0  0
    7.5356    2.8052   25.8284 H   0  0  0  0  0  0  0  0  0  0  0  0
    9.4487    1.6152   24.5887 C   0  0  0  0  0  0  0  0  0  0  0  0
    9.8744    2.5606   25.2347 O   0  0  0  0  0  0  0  0  0  0  0  0
   10.3461    0.7459   23.7632 C   0  0  0  0  0  0  0  0  0  0  0  0
   11.7231    0.9651   23.8315 C   0  0  0  0  0  0  0  0  0  0  0  0
   12.5808    0.3399   22.9471 C   0  0  0  0  0  0  0  0  0  0  0  0
   12.0175   -0.4610   21.9595 C   0  0  0  0  0  0  0  0  0  0  0  0
   12.7841   -0.9336   20.9648 F   0  0  0  0  0  0  0  0  0  0  0  0
   10.6741   -0.7559   21.9229 C   0  0  0  0  0  0  0  0  0  0  0  0
    9.8112   -0.1878   22.8642 C   0  0  0  0  0  0  0  0  0  0  0  0
   10.3368   -1.3901   21.1111 H   0  0  0  0  0  0  0  0  0  0  0  0
   13.6523    0.4948   22.9767 H   0  0  0  0  0  0  0  0  0  0  0  0
   12.0860    1.6774   24.5625 H   0  0  0  0  0  0  0  0  0  0  0  0
    7.9177   -0.7482   24.8720 H   0  0  0  0  0  0  0  0  0  0  0  0
    6.5818    0.0274   23.9610 H   0  0  0  0  0  0  0  0  0  0  0  0
    6.8597   -2.4843   20.5167 H   0  0  0  0  0  0  0  0  0  0  0  0
    5.7997   -1.9082   21.8097 H   0  0  0  0  0  0  0  0  0  0  0  0
    8.7863   -2.3288   21.8602 H   0  0  0  0  0  0  0  0  0  0  0  0
    6.6415   -2.5215   24.0383 H   0  0  0  0  0  0  0  0  0  0  0  0
    8.3473   -2.9436   24.2598 H   0  0  0  0  0  0  0  0  0  0  0  0
    7.3432   -3.8655   23.1314 H   0  0  0  0  0  0  0  0  0  0  0  0
  1  2  1  0
  2  3  1  0
  3  4  1  0
  4  5  1  0
  5  6  2  0
  6  7  1  0
  7  8  2  0
  8  9  1  0
  9 10  2  0
 10 11  1  0
 11 12  2  0
 12 13  1  0
 13 14  2  0
 13 15  1  0
 12 16  1  0
 11 17  1  0
 10 18  1  0
  8 19  1  0
  6 20  1  0
  4 21  1  0
 21 22  2  0
 21 23  1  0
 23 24  1  1
 24 25  1  0
 25 26  1  0
 26 27  1  0
 27 28  2  0
 28 29  1  0
 29 30  2  0
 30 31  1  0
 30 32  1  0
 29 33  1  0
 26 34  1  0
 26 35  1  0
 25 36  1  0
 36 37  2  0
 36 38  1  0
 38 39  2  0
 39 40  1  0
 40 41  2  0
 41 42  1  0
 41 43  1  0
 43 44  2  0
 43 45  1  0
 40 46  1  0
 39 47  1  0
 24 48  1  0
 24 49  1  0
  3 50  1  0
  3 51  1  0
  2 52  1  6
  1 53  1  0
  1 54  1  0
  1 55  1  0
 23  2  1  0
 31 27  1  0
 44 38  1  0
 14  5  1  0
 44 23  1  0
 14  9  1  0
M  END
>  <cnnaffinities>  (82) 
[6.67584, 6.66148, 6.65581, 6.32424]

>  <score>  (82) 
6.67584

>  <index>  (82) 
82

>  <Smiles>  (82) 
C([C@]1(C(N(c2c(nc(c3c(c(c(c(c23)[H])[H])[H])[H])[H])[H])C(=O)[C@]21C(N(C(c1nc(c(o1)[H])[H])([H])[H])C(=O)c1c(c(c(F)c(c21)[H])[H])[H])([H])[H])([H])[H])[H])([H])([H])[H]

>  <h>  (82) 
<NA>

>  <Training>  (82) 
True

>  <Success>  (82) 
True

>  <enamine_searched>  (82) 
False

>  <enamine_id>  (82) 
nan

$$$$

     RDKit          3D

 72 77  0  0  0  0  0  0  0  0999 V2000
    9.2276    6.0446   23.5286 C   0  0  0  0  0  0  0  0  0  0  0  0
    7.9914    6.0548   22.6382 C   0  0  2  0  0  0  0  0  0  0  0  0
    7.2513    7.3804   22.7290 C   0  0  0  0  0  0  0  0  0  0  0  0
    6.0652    7.3911   21.9655 O   0  0  0  0  0  0  0  0  0  0  0  0
    5.1491    6.4429   22.4695 C   0  0  0  0  0  0  0  0  0  0  0  0
    5.6826    5.0225   22.3711 C   0  0  1  0  0  0  0  0  0  0  0  0
    5.7370    4.6113   20.9107 C   0  0  0  0  0  0  0  0  0  0  0  0
    6.2178    3.6413   20.7729 H   0  0  0  0  0  0  0  0  0  0  0  0
    6.2826    5.3669   20.3454 H   0  0  0  0  0  0  0  0  0  0  0  0
    4.7341    4.5336   20.4943 H   0  0  0  0  0  0  0  0  0  0  0  0
    7.0457    4.9314   23.0296 N   0  0  0  0  0  4  0  0  0  0  0  0
    7.6637    3.5849   22.8750 C   0  0  0  0  0  0  0  0  0  0  0  0
    8.0795    2.9644   24.2043 C   0  0  0  0  0  0  0  0  0  0  0  0
    8.7612    1.6994   23.9762 N   0  0  0  0  0  0  0  0  0  0  0  0
    8.0065    0.4705   23.8160 C   0  0  0  0  0  0  0  0  0  0  0  0
    8.4512   -0.3787   22.5865 C   0  0  2  0  0  0  0  0  0  0  0  0
    7.9854    0.2563   21.2576 C   0  0  0  0  0  0  0  0  0  0  0  0
    8.5021    1.1879   20.6709 O   0  0  0  0  0  0  0  0  0  0  0  0
    6.8759   -0.4125   20.8111 N   0  0  0  0  0  0  0  0  0  0  0  0
    6.1193    0.1091   19.7346 C   0  0  0  0  0  0  0  0  0  0  0  0
    6.4680   -0.1872   18.4425 C   0  0  0  0  0  0  0  0  0  0  0  0
    5.7935    0.2566   17.3556 N   0  0  0  0  0  0  0  0  0  0  0  0
    4.7544    1.0310   17.5751 C   0  0  0  0  0  0  0  0  0  0  0  0
    4.2946    1.4225   18.8647 C   0  0  0  0  0  0  0  0  0  0  0  0
    3.1751    2.2765   19.0523 C   0  0  0  0  0  0  0  0  0  0  0  0
    2.7590    2.6250   20.3112 C   0  0  0  0  0  0  0  0  0  0  0  0
    3.4698    2.1688   21.4435 C   0  0  0  0  0  0  0  0  0  0  0  0
    4.5725    1.3613   21.2917 C   0  0  0  0  0  0  0  0  0  0  0  0
    4.9997    0.9514   19.9951 C   0  0  0  0  0  0  0  0  0  0  0  0
    5.1276    1.0417   22.1684 H   0  0  0  0  0  0  0  0  0  0  0  0
    3.1554    2.4759   22.4375 H   0  0  0  0  0  0  0  0  0  0  0  0
    1.9015    3.2802   20.4395 H   0  0  0  0  0  0  0  0  0  0  0  0
    2.6710    2.6576   18.1707 H   0  0  0  0  0  0  0  0  0  0  0  0
    4.2152    1.3930   16.7002 H   0  0  0  0  0  0  0  0  0  0  0  0
    7.3362   -0.8162   18.2537 H   0  0  0  0  0  0  0  0  0  0  0  0
    6.4501   -1.5024   21.6643 C   0  0  0  0  0  0  0  0  0  0  0  0
    7.6978   -1.7437   22.5360 C   0  0  2  0  0  0  0  0  0  0  0  0
    7.3909   -2.4155   23.8694 C   0  0  0  0  0  0  0  0  0  0  0  0
    8.3046   -2.5507   24.4578 H   0  0  0  0  0  0  0  0  0  0  0  0
    6.6903   -1.8232   24.4682 H   0  0  0  0  0  0  0  0  0  0  0  0
    6.9359   -3.4000   23.7143 H   0  0  0  0  0  0  0  0  0  0  0  0
    8.3351   -2.4207   21.9640 H   0  0  0  0  0  0  0  0  0  0  0  0
    6.1749   -2.3862   21.0728 H   0  0  0  0  0  0  0  0  0  0  0  0
    5.5709   -1.2229   22.2650 H   0  0  0  0  0  0  0  0  0  0  0  0
    9.9629   -0.4473   22.5383 C   0  0  0  0  0  0  0  0  0  0  0  0
   10.5944   -1.3623   21.6835 C   0  0  0  0  0  0  0  0  0  0  0  0
   11.9548   -1.2881   21.4640 C   0  0  0  0  0  0  0  0  0  0  0  0
   12.6308   -2.3108   20.2160 Cl  0  0  0  0  0  0  0  0  0  0  0  0
   12.7455   -0.3728   22.1689 C   0  0  0  0  0  0  0  0  0  0  0  0
   12.1353    0.5079   23.0402 C   0  0  0  0  0  0  0  0  0  0  0  0
   10.7449    0.5409   23.1471 C   0  0  0  0  0  0  0  0  0  0  0  0
   10.1156    1.7351   23.8078 C   0  0  0  0  0  0  0  0  0  0  0  0
   10.7921    2.7090   24.1203 O   0  0  0  0  0  0  0  0  0  0  0  0
   12.7180    1.2027   23.6370 H   0  0  0  0  0  0  0  0  0  0  0  0
   13.8143   -0.3208   22.0113 H   0  0  0  0  0  0  0  0  0  0  0  0
   10.0541   -2.1156   21.1215 H   0  0  0  0  0  0  0  0  0  0  0  0
    6.9410    0.7116   23.7233 H   0  0  0  0  0  0  0  0  0  0  0  0
    8.1335   -0.1404   24.7201 H   0  0  0  0  0  0  0  0  0  0  0  0
    8.7718    3.6118   24.7449 H   0  0  0  0  0  0  0  0  0  0  0  0
    7.1853    2.8114   24.8240 H   0  0  0  0  0  0  0  0  0  0  0  0
    8.5207    3.6518   22.1973 H   0  0  0  0  0  0  0  0  0  0  0  0
    6.9467    2.9026   22.4119 H   0  0  0  0  0  0  0  0  0  0  0  0
    6.8790    5.0474   24.0430 H   0  0  0  0  0  0  0  0  0  0  0  0
    5.0159    4.3426   22.9138 H   0  0  0  0  0  0  0  0  0  0  0  0
    4.2504    6.5284   21.8519 H   0  0  0  0  0  0  0  0  0  0  0  0
    4.8847    6.6755   23.5109 H   0  0  0  0  0  0  0  0  0  0  0  0
    7.0137    7.5829   23.7869 H   0  0  0  0  0  0  0  0  0  0  0  0
    7.8840    8.1848   22.3429 H   0  0  0  0  0  0  0  0  0  0  0  0
    8.2856    5.8902   21.5969 H   0  0  0  0  0  0  0  0  0  0  0  0
    9.8482    5.1583   23.3671 H   0  0  0  0  0  0  0  0  0  0  0  0
    9.8489    6.9245   23.3430 H   0  0  0  0  0  0  0  0  0  0  0  0
    8.9308    6.0607   24.5854 H   0  0  0  0  0  0  0  0  0  0  0  0
  1  2  1  0
  2  3  1  0
  3  4  1  0
  4  5  1  0
  5  6  1  0
  6  7  1  0
  7  8  1  0
  7  9  1  0
  7 10  1  0
  6 11  1  0
 11 12  1  0
 12 13  1  0
 13 14  1  0
 14 15  1  0
 16 15  1  1
 16 17  1  0
 17 18  2  0
 17 19  1  0
 19 20  1  0
 20 21  2  0
 21 22  1  0
 22 23  2  0
 23 24  1  0
 24 25  2  0
 25 26  1  0
 26 27  2  0
 27 28  1  0
 28 29  2  0
 28 30  1  0
 27 31  1  0
 26 32  1  0
 25 33  1  0
 23 34  1  0
 21 35  1  0
 19 36  1  0
 36 37  1  0
 37 38  1  0
 38 39  1  0
 38 40  1  0
 38 41  1  0
 37 42  1  6
 36 43  1  0
 36 44  1  0
 16 45  1  0
 45 46  2  0
 46 47  1  0
 47 48  1  0
 47 49  2  0
 49 50  1  0
 50 51  2  0
 51 52  1  0
 52 53  2  0
 50 54  1  0
 49 55  1  0
 46 56  1  0
 15 57  1  0
 15 58  1  0
 13 59  1  0
 13 60  1  0
 12 61  1  0
 12 62  1  0
 11 63  1  0
  6 64  1  1
  5 65  1  0
  5 66  1  0
  3 67  1  0
  3 68  1  0
  2 69  1  6
  1 70  1  0
  1 71  1  0
  1 72  1  0
 11  2  1  0
 52 14  1  0
 37 16  1  0
 51 45  1  0
 29 20  1  0
 29 24  1  0
M  CHG  1  11   1
M  END
>  <cnnaffinities>  (83) 
[6.81613, 6.92242, 6.92428, 7.08244]

>  <score>  (83) 
6.81613

>  <index>  (83) 
83

>  <Smiles>  (83) 
C([C@@]1(C(OC([C@@](C([H])([H])[H])([N+]1(C(C(N1C([C@@]2(C(=O)N(c3c(nc(c4c(c(c(c(c34)[H])[H])[H])[H])[H])[H])C([C@@]2(C([H])([H])[H])[H])([H])[H])c2c(c(Cl)c(c(c2C1=O)[H])[H])[H])([H])[H])([H])[H])([H])[H])[H])[H])([H])[H])([H])[H])[H])([H])([H])[H]

>  <h>  (83) 
<NA>

>  <Training>  (83) 
True

>  <Success>  (83) 
True

>  <enamine_searched>  (83) 
False

>  <enamine_id>  (83) 
nan

$$$$

     RDKit          3D

 60 65  0  0  0  0  0  0  0  0999 V2000
    6.9145    1.8611   28.6173 C   0  0  0  0  0  0  0  0  0  0  0  0
    7.5007    1.8808   27.2920 N   0  0  0  0  0  0  0  0  0  0  0  0
    6.7858    2.4585   26.3068 C   0  0  0  0  0  0  0  0  0  0  0  0
    5.6850    2.9541   26.5161 O   0  0  0  0  0  0  0  0  0  0  0  0
    7.4010    2.5199   24.9283 C   0  0  0  0  0  0  0  0  0  0  0  0
    8.2499    1.4649   24.4723 N   0  0  0  0  0  0  0  0  0  0  0  0
    7.6142    0.2155   24.0977 C   0  0  0  0  0  0  0  0  0  0  0  0
    8.2184   -0.3857   22.8085 C   0  0  2  0  0  0  0  0  0  0  0  0
    7.7386    0.3820   21.5528 C   0  0  0  0  0  0  0  0  0  0  0  0
    8.0471    1.5047   21.2172 O   0  0  0  0  0  0  0  0  0  0  0  0
    6.9069   -0.4366   20.8229 N   0  0  0  0  0  0  0  0  0  0  0  0
    6.1298    0.0865   19.7595 C   0  0  0  0  0  0  0  0  0  0  0  0
    6.4494   -0.2346   18.4675 C   0  0  0  0  0  0  0  0  0  0  0  0
    5.7765    0.2170   17.3804 N   0  0  0  0  0  0  0  0  0  0  0  0
    4.7555    1.0122   17.5920 C   0  0  0  0  0  0  0  0  0  0  0  0
    4.3107    1.4124   18.8844 C   0  0  0  0  0  0  0  0  0  0  0  0
    3.1930    2.2707   19.0566 C   0  0  0  0  0  0  0  0  0  0  0  0
    2.7747    2.6246   20.3103 C   0  0  0  0  0  0  0  0  0  0  0  0
    3.4491    2.1309   21.4490 C   0  0  0  0  0  0  0  0  0  0  0  0
    4.5310    1.2971   21.3090 C   0  0  0  0  0  0  0  0  0  0  0  0
    5.0054    0.9315   20.0136 C   0  0  0  0  0  0  0  0  0  0  0  0
    5.0292    0.9155   22.1958 H   0  0  0  0  0  0  0  0  0  0  0  0
    3.1099    2.4175   22.4414 H   0  0  0  0  0  0  0  0  0  0  0  0
    1.9223    3.2851   20.4369 H   0  0  0  0  0  0  0  0  0  0  0  0
    2.6841    2.6388   18.1706 H   0  0  0  0  0  0  0  0  0  0  0  0
    4.2142    1.3769   16.7182 H   0  0  0  0  0  0  0  0  0  0  0  0
    7.3008   -0.8821   18.2630 H   0  0  0  0  0  0  0  0  0  0  0  0
    6.6037   -1.6951   21.4687 C   0  0  0  0  0  0  0  0  0  0  0  0
    7.7055   -1.8363   22.5320 C   0  0  2  0  0  0  0  0  0  0  0  0
    7.2567   -2.6627   23.7369 C   0  0  0  0  0  0  0  0  0  0  0  0
    6.3857   -2.2172   24.2313 H   0  0  0  0  0  0  0  0  0  0  0  0
    6.9721   -3.6724   23.4226 H   0  0  0  0  0  0  0  0  0  0  0  0
    8.0535   -2.7629   24.4827 H   0  0  0  0  0  0  0  0  0  0  0  0
    8.5370   -2.3785   22.0758 H   0  0  0  0  0  0  0  0  0  0  0  0
    5.6021   -1.6863   21.9296 H   0  0  0  0  0  0  0  0  0  0  0  0
    6.6237   -2.5081   20.7374 H   0  0  0  0  0  0  0  0  0  0  0  0
    9.7279   -0.2748   22.8780 C   0  0  0  0  0  0  0  0  0  0  0  0
   10.4888   -0.9608   21.9288 C   0  0  0  0  0  0  0  0  0  0  0  0
   11.8486   -0.7700   21.8656 C   0  0  0  0  0  0  0  0  0  0  0  0
   12.6687   -1.4045   20.4717 Cl  0  0  0  0  0  0  0  0  0  0  0  0
   12.5322   -0.0364   22.8357 C   0  0  0  0  0  0  0  0  0  0  0  0
   11.7874    0.6707   23.7625 C   0  0  0  0  0  0  0  0  0  0  0  0
   10.3914    0.6216   23.7252 C   0  0  0  0  0  0  0  0  0  0  0  0
    9.6202    1.5983   24.5512 C   0  0  0  0  0  0  0  0  0  0  0  0
   10.1442    2.4883   25.2049 O   0  0  0  0  0  0  0  0  0  0  0  0
   12.2478    1.3370   24.4838 H   0  0  0  0  0  0  0  0  0  0  0  0
   13.6104    0.0157   22.8069 H   0  0  0  0  0  0  0  0  0  0  0  0
   10.0668   -1.6304   21.1870 H   0  0  0  0  0  0  0  0  0  0  0  0
    6.5481    0.4096   23.9558 H   0  0  0  0  0  0  0  0  0  0  0  0
    7.7347   -0.5123   24.9126 H   0  0  0  0  0  0  0  0  0  0  0  0
    7.6069    3.9217   24.4223 C   0  0  0  0  0  0  0  0  0  0  0  0
    6.4547    3.1095   23.9189 C   0  0  0  0  0  0  0  0  0  0  0  0
    6.5340    2.7155   22.9109 H   0  0  0  0  0  0  0  0  0  0  0  0
    5.4660    3.3243   24.3160 H   0  0  0  0  0  0  0  0  0  0  0  0
    7.4214    4.7265   25.1300 H   0  0  0  0  0  0  0  0  0  0  0  0
    8.4481    4.0732   23.7493 H   0  0  0  0  0  0  0  0  0  0  0  0
    8.4848    1.6961   27.1742 H   0  0  0  0  0  0  0  0  0  0  0  0
    5.8832    1.5087   28.5398 H   0  0  0  0  0  0  0  0  0  0  0  0
    7.4718    1.1728   29.2450 H   0  0  0  0  0  0  0  0  0  0  0  0
    6.9007    2.8644   29.0661 H   0  0  0  0  0  0  0  0  0  0  0  0
  1  2  1  0
  2  3  1  0
  3  4  2  0
  3  5  1  0
  5  6  1  0
  6  7  1  0
  8  7  1  1
  8  9  1  0
  9 10  2  0
  9 11  1  0
 11 12  1  0
 12 13  2  0
 13 14  1  0
 14 15  2  0
 15 16  1  0
 16 17  2  0
 17 18  1  0
 18 19  2  0
 19 20  1  0
 20 21  2  0
 20 22  1  0
 19 23  1  0
 18 24  1  0
 17 25  1  0
 15 26  1  0
 13 27  1  0
 11 28  1  0
 28 29  1  0
 29 30  1  0
 30 31  1  0
 30 32  1  0
 30 33  1  0
 29 34  1  6
 28 35  1  0
 28 36  1  0
  8 37  1  0
 37 38  2  0
 38 39  1  0
 39 40  1  0
 39 41  2  0
 41 42  1  0
 42 43  2  0
 43 44  1  0
 44 45  2  0
 42 46  1  0
 41 47  1  0
 38 48  1  0
  7 49  1  0
  7 50  1  0
  5 51  1  0
 51 52  1  0
 52 53  1  0
 52 54  1  0
 51 55  1  0
 51 56  1  0
  2 57  1  0
  1 58  1  0
  1 59  1  0
  1 60  1  0
 52  5  1  0
 44  6  1  0
 29  8  1  0
 43 37  1  0
 21 12  1  0
 21 16  1  0
M  END
>  <cnnaffinities>  (84) 
[6.32495, 6.62103]

>  <score>  (84) 
6.32495

>  <index>  (84) 
84

>  <Smiles>  (84) 
C(N(C(=O)C1(N2C([C@@]3(C(=O)N(c4c(nc(c5c(c(c(c(c45)[H])[H])[H])[H])[H])[H])C([C@@]3(C([H])([H])[H])[H])([H])[H])c3c(c(Cl)c(c(c3C2=O)[H])[H])[H])([H])[H])C(C1([H])[H])([H])[H])[H])([H])([H])[H]

>  <h>  (84) 
<NA>

>  <Training>  (84) 
True

>  <Success>  (84) 
True

>  <enamine_searched>  (84) 
False

>  <enamine_id>  (84) 
nan

$$$$

     RDKit          3D

 55 60  0  0  0  0  0  0  0  0999 V2000
    7.0195   -2.4385   23.5070 C   0  0  0  0  0  0  0  0  0  0  0  0
    7.9304   -1.8518   22.4140 C   0  0  1  0  0  0  0  0  0  0  0  0
    7.1821   -1.7790   21.0624 C   0  0  0  0  0  0  0  0  0  0  0  0
    6.8901   -0.3735   20.8720 N   0  0  0  0  0  0  0  0  0  0  0  0
    6.1297    0.1074   19.7782 C   0  0  0  0  0  0  0  0  0  0  0  0
    6.4445   -0.2269   18.4826 C   0  0  0  0  0  0  0  0  0  0  0  0
    5.7726    0.2196   17.3925 N   0  0  0  0  0  0  0  0  0  0  0  0
    4.7498    1.0164   17.5967 C   0  0  0  0  0  0  0  0  0  0  0  0
    4.2959    1.4178   18.8854 C   0  0  0  0  0  0  0  0  0  0  0  0
    3.1670    2.2682   19.0553 C   0  0  0  0  0  0  0  0  0  0  0  0
    2.7374    2.6061   20.3107 C   0  0  0  0  0  0  0  0  0  0  0  0
    3.4075    2.1010   21.4461 C   0  0  0  0  0  0  0  0  0  0  0  0
    4.4983    1.2805   21.3070 C   0  0  0  0  0  0  0  0  0  0  0  0
    4.9878    0.9392   20.0151 C   0  0  0  0  0  0  0  0  0  0  0  0
    5.0053    0.9018   22.1850 H   0  0  0  0  0  0  0  0  0  0  0  0
    3.0828    2.3954   22.4409 H   0  0  0  0  0  0  0  0  0  0  0  0
    1.8895    3.2725   20.4393 H   0  0  0  0  0  0  0  0  0  0  0  0
    2.6660    2.6434   18.1677 H   0  0  0  0  0  0  0  0  0  0  0  0
    4.2256    1.3792   16.7140 H   0  0  0  0  0  0  0  0  0  0  0  0
    7.2922   -0.8733   18.2616 H   0  0  0  0  0  0  0  0  0  0  0  0
    7.6677    0.4610   21.6509 C   0  0  0  0  0  0  0  0  0  0  0  0
    7.7238    1.6635   21.5153 O   0  0  0  0  0  0  0  0  0  0  0  0
    8.4745   -0.4008   22.6599 C   0  0  1  0  0  0  0  0  0  0  0  0
    8.2529    0.0672   24.1182 C   0  0  0  0  0  0  0  0  0  0  0  0
    8.8448    1.3601   24.3887 N   0  0  0  0  0  0  0  0  0  0  0  0
    8.0696    2.3746   25.0906 C   0  0  0  0  0  0  0  0  0  0  0  0
    7.4233    3.3682   24.1699 C   0  0  0  0  0  0  0  0  0  0  0  0
    7.9910    4.4465   23.5801 C   0  0  0  0  0  0  0  0  0  0  0  0
    7.0679    5.0332   22.7703 O   0  0  0  0  0  0  0  0  0  0  0  0
    5.9686    4.2673   22.9111 C   0  0  0  0  0  0  0  0  0  0  0  0
    6.0983    3.2772   23.7321 N   0  0  0  0  0  0  0  0  0  0  0  0
    5.1211    4.5652   22.3084 H   0  0  0  0  0  0  0  0  0  0  0  0
    8.9605    4.9084   23.6165 H   0  0  0  0  0  0  0  0  0  0  0  0
    8.7675    2.8865   25.7601 H   0  0  0  0  0  0  0  0  0  0  0  0
    7.2999    1.8686   25.6846 H   0  0  0  0  0  0  0  0  0  0  0  0
   10.1078    1.6923   23.9823 C   0  0  0  0  0  0  0  0  0  0  0  0
   10.6778    2.6969   24.3884 O   0  0  0  0  0  0  0  0  0  0  0  0
   10.7222    0.7585   22.9803 C   0  0  0  0  0  0  0  0  0  0  0  0
   12.0622    0.9526   22.6415 C   0  0  0  0  0  0  0  0  0  0  0  0
   12.6557    0.1630   21.6770 C   0  0  0  0  0  0  0  0  0  0  0  0
   11.8934   -0.8092   21.0438 C   0  0  0  0  0  0  0  0  0  0  0  0
   12.4829   -1.5339   20.0772 F   0  0  0  0  0  0  0  0  0  0  0  0
   10.5579   -1.0049   21.3410 C   0  0  0  0  0  0  0  0  0  0  0  0
    9.9630   -0.2378   22.3515 C   0  0  0  0  0  0  0  0  0  0  0  0
    9.9895   -1.7147   20.7517 H   0  0  0  0  0  0  0  0  0  0  0  0
   13.6819    0.2985   21.3620 H   0  0  0  0  0  0  0  0  0  0  0  0
   12.6039    1.7433   23.1488 H   0  0  0  0  0  0  0  0  0  0  0  0
    7.1822    0.1755   24.3004 H   0  0  0  0  0  0  0  0  0  0  0  0
    8.6742   -0.6993   24.7907 H   0  0  0  0  0  0  0  0  0  0  0  0
    6.2500   -2.3563   21.0737 H   0  0  0  0  0  0  0  0  0  0  0  0
    7.8109   -2.1477   20.2472 H   0  0  0  0  0  0  0  0  0  0  0  0
    8.7884   -2.5289   22.3285 H   0  0  0  0  0  0  0  0  0  0  0  0
    6.6972   -3.4463   23.2205 H   0  0  0  0  0  0  0  0  0  0  0  0
    7.5383   -2.5286   24.4666 H   0  0  0  0  0  0  0  0  0  0  0  0
    6.1198   -1.8301   23.6580 H   0  0  0  0  0  0  0  0  0  0  0  0
  1  2  1  0
  2  3  1  0
  3  4  1  0
  4  5  1  0
  5  6  2  0
  6  7  1  0
  7  8  2  0
  8  9  1  0
  9 10  2  0
 10 11  1  0
 11 12  2  0
 12 13  1  0
 13 14  2  0
 13 15  1  0
 12 16  1  0
 11 17  1  0
 10 18  1  0
  8 19  1  0
  6 20  1  0
  4 21  1  0
 21 22  2  0
 21 23  1  0
 23 24  1  1
 24 25  1  0
 25 26  1  0
 26 27  1  0
 27 28  2  0
 28 29  1  0
 29 30  1  0
 30 31  2  0
 30 32  1  0
 28 33  1  0
 26 34  1  0
 26 35  1  0
 25 36  1  0
 36 37  2  0
 36 38  1  0
 38 39  2  0
 39 40  1  0
 40 41  2  0
 41 42  1  0
 41 43  1  0
 43 44  2  0
 43 45  1  0
 40 46  1  0
 39 47  1  0
 24 48  1  0
 24 49  1  0
  3 50  1  0
  3 51  1  0
  2 52  1  6
  1 53  1  0
  1 54  1  0
  1 55  1  0
 23  2  1  0
 31 27  1  0
 44 38  1  0
 14  5  1  0
 44 23  1  0
 14  9  1  0
M  END
>  <cnnaffinities>  (85) 
[6.59657, 6.17089]

>  <score>  (85) 
6.59657

>  <index>  (85) 
85

>  <Smiles>  (85) 
C([C@]1(C(N(c2c(nc(c3c(c(c(c(c23)[H])[H])[H])[H])[H])[H])C(=O)[C@]21C(N(C(c1c(oc(n1)[H])[H])([H])[H])C(=O)c1c(c(c(F)c(c21)[H])[H])[H])([H])[H])([H])[H])[H])([H])([H])[H]

>  <h>  (85) 
<NA>

>  <Training>  (85) 
True

>  <Success>  (85) 
True

>  <enamine_searched>  (85) 
False

>  <enamine_id>  (85) 
nan

$$$$

     RDKit          3D

 65 70  0  0  0  0  0  0  0  0999 V2000
    2.5159   -5.6223   22.5729 C   0  0  0  0  0  0  0  0  0  0  0  0
    3.7068   -5.4626   23.3776 N   0  0  0  0  0  0  0  0  0  0  0  0
    4.9105   -5.3223   22.7576 C   0  0  0  0  0  0  0  0  0  0  0  0
    5.0488   -5.3318   21.5405 O   0  0  0  0  0  0  0  0  0  0  0  0
    6.1190   -5.1347   23.6722 C   0  0  0  0  0  0  0  0  0  0  0  0
    6.3945   -3.7175   23.8732 N   0  0  0  0  0  0  0  0  0  0  0  0
    7.5252   -3.1186   23.1788 C   0  0  0  0  0  0  0  0  0  0  0  0
    7.3401   -1.6076   22.8720 C   0  0  2  0  0  0  0  0  0  0  0  0
    6.3408   -1.4084   21.7133 C   0  0  0  0  0  0  0  0  0  0  0  0
    5.2539   -1.9226   21.5860 O   0  0  0  0  0  0  0  0  0  0  0  0
    6.8686   -0.4928   20.8334 N   0  0  0  0  0  0  0  0  0  0  0  0
    6.1116    0.0550   19.7706 C   0  0  0  0  0  0  0  0  0  0  0  0
    6.4660   -0.2189   18.4741 C   0  0  0  0  0  0  0  0  0  0  0  0
    5.8022    0.2343   17.3820 N   0  0  0  0  0  0  0  0  0  0  0  0
    4.7636    1.0061   17.5953 C   0  0  0  0  0  0  0  0  0  0  0  0
    4.3076    1.3965   18.8869 C   0  0  0  0  0  0  0  0  0  0  0  0
    3.1939    2.2604   19.0491 C   0  0  0  0  0  0  0  0  0  0  0  0
    2.7952    2.6489   20.2964 C   0  0  0  0  0  0  0  0  0  0  0  0
    3.4952    2.1989   21.4397 C   0  0  0  0  0  0  0  0  0  0  0  0
    4.5765    1.3624   21.3156 C   0  0  0  0  0  0  0  0  0  0  0  0
    5.0005    0.9239   20.0240 C   0  0  0  0  0  0  0  0  0  0  0  0
    5.1135    1.0389   22.2097 H   0  0  0  0  0  0  0  0  0  0  0  0
    3.1727    2.5264   22.4236 H   0  0  0  0  0  0  0  0  0  0  0  0
    1.9448    3.3139   20.4185 H   0  0  0  0  0  0  0  0  0  0  0  0
    2.6790    2.6094   18.1581 H   0  0  0  0  0  0  0  0  0  0  0  0
    4.2292    1.3751   16.7198 H   0  0  0  0  0  0  0  0  0  0  0  0
    7.3216   -0.8659   18.2790 H   0  0  0  0  0  0  0  0  0  0  0  0
    8.1997   -0.0390   21.1541 C   0  0  0  0  0  0  0  0  0  0  0  0
    8.6351   -0.9331   22.3304 C   0  0  2  0  0  0  0  0  0  0  0  0
    9.7637   -1.8841   21.8800 C   0  0  0  0  0  0  0  0  0  0  0  0
   10.9264   -1.1519   21.4126 N   0  0  0  0  0  0  0  0  0  0  0  0
   11.8176   -0.5978   22.2641 C   0  0  0  0  0  0  0  0  0  0  0  0
   12.8524    0.0770   21.7218 N   0  0  0  0  0  0  0  0  0  0  0  0
   13.6904    0.5767   22.6119 C   0  0  0  0  0  0  0  0  0  0  0  0
   13.6075    0.4842   23.9448 N   0  0  0  0  0  0  0  0  0  0  0  0
   12.5352   -0.1869   24.3524 C   0  0  0  0  0  0  0  0  0  0  0  0
   11.5931   -0.7221   23.5881 N   0  0  0  0  0  0  0  0  0  0  0  0
   12.4080   -0.3027   25.4281 H   0  0  0  0  0  0  0  0  0  0  0  0
   14.5424    1.1236   22.2111 H   0  0  0  0  0  0  0  0  0  0  0  0
   11.2415   -1.2789   20.4610 H   0  0  0  0  0  0  0  0  0  0  0  0
    9.4235   -2.5402   21.0756 H   0  0  0  0  0  0  0  0  0  0  0  0
   10.0857   -2.5023   22.7191 H   0  0  0  0  0  0  0  0  0  0  0  0
    9.0790   -0.3335   23.1274 H   0  0  0  0  0  0  0  0  0  0  0  0
    8.2027    1.0299   21.4143 H   0  0  0  0  0  0  0  0  0  0  0  0
    8.8513   -0.1622   20.2893 H   0  0  0  0  0  0  0  0  0  0  0  0
    6.7845   -0.9117   24.1113 C   0  0  0  0  0  0  0  0  0  0  0  0
    6.9627    0.4622   24.3341 C   0  0  0  0  0  0  0  0  0  0  0  0
    6.4292    1.0498   25.4720 C   0  0  0  0  0  0  0  0  0  0  0  0
    6.6735    2.7568   25.7432 Cl  0  0  0  0  0  0  0  0  0  0  0  0
    5.6999    0.3165   26.4084 C   0  0  0  0  0  0  0  0  0  0  0  0
    5.4682   -1.0190   26.1522 C   0  0  0  0  0  0  0  0  0  0  0  0
    5.9857   -1.6227   25.0093 C   0  0  0  0  0  0  0  0  0  0  0  0
    5.6201   -3.0459   24.7561 C   0  0  0  0  0  0  0  0  0  0  0  0
    4.6581   -3.5780   25.3173 O   0  0  0  0  0  0  0  0  0  0  0  0
    4.8846   -1.6261   26.8324 H   0  0  0  0  0  0  0  0  0  0  0  0
    5.3081    0.8046   27.2958 H   0  0  0  0  0  0  0  0  0  0  0  0
    7.5128    1.0914   23.6355 H   0  0  0  0  0  0  0  0  0  0  0  0
    8.4373   -3.2557   23.7754 H   0  0  0  0  0  0  0  0  0  0  0  0
    7.6321   -3.6678   22.2419 H   0  0  0  0  0  0  0  0  0  0  0  0
    6.9753   -5.5813   23.1625 H   0  0  0  0  0  0  0  0  0  0  0  0
    5.9902   -5.6177   24.6491 H   0  0  0  0  0  0  0  0  0  0  0  0
    3.6024   -5.0564   24.3020 H   0  0  0  0  0  0  0  0  0  0  0  0
    1.6453   -5.6432   23.2316 H   0  0  0  0  0  0  0  0  0  0  0  0
    2.3896   -4.8415   21.8205 H   0  0  0  0  0  0  0  0  0  0  0  0
    2.5685   -6.5610   22.0222 H   0  0  0  0  0  0  0  0  0  0  0  0
  1  2  1  0
  2  3  1  0
  3  4  2  0
  3  5  1  0
  5  6  1  0
  6  7  1  0
  8  7  1  1
  8  9  1  0
  9 10  2  0
  9 11  1  0
 11 12  1  0
 12 13  2  0
 13 14  1  0
 14 15  2  0
 15 16  1  0
 16 17  2  0
 17 18  1  0
 18 19  2  0
 19 20  1  0
 20 21  2  0
 20 22  1  0
 19 23  1  0
 18 24  1  0
 17 25  1  0
 15 26  1  0
 13 27  1  0
 11 28  1  0
 28 29  1  0
 29 30  1  0
 30 31  1  0
 31 32  1  0
 32 33  2  0
 33 34  1  0
 34 35  2  0
 35 36  1  0
 36 37  2  0
 36 38  1  0
 34 39  1  0
 31 40  1  0
 30 41  1  0
 30 42  1  0
 29 43  1  1
 28 44  1  0
 28 45  1  0
  8 46  1  0
 46 47  2  0
 47 48  1  0
 48 49  1  0
 48 50  2  0
 50 51  1  0
 51 52  2  0
 52 53  1  0
 53 54  2  0
 51 55  1  0
 50 56  1  0
 47 57  1  0
  7 58  1  0
  7 59  1  0
  5 60  1  0
  5 61  1  0
  2 62  1  0
  1 63  1  0
  1 64  1  0
  1 65  1  0
 53  6  1  0
 29  8  1  0
 37 32  1  0
 52 46  1  0
 21 12  1  0
 21 16  1  0
M  END
>  <cnnaffinities>  (86) 
[7.35405, 7.34983]

>  <score>  (86) 
7.35405

>  <index>  (86) 
86

>  <Smiles>  (86) 
C(N(C(=O)C(N1C([C@@]2(C(=O)N(c3c(nc(c4c(c(c(c(c34)[H])[H])[H])[H])[H])[H])C([C@@]2(C(N(c2nc(nc(n2)[H])[H])[H])([H])[H])[H])([H])[H])c2c(c(Cl)c(c(c2C1=O)[H])[H])[H])([H])[H])([H])[H])[H])([H])([H])[H]

>  <h>  (86) 
<NA>

>  <Training>  (86) 
True

>  <Success>  (86) 
True

>  <enamine_searched>  (86) 
False

>  <enamine_id>  (86) 
nan

$$$$

     RDKit          3D

 63 68  0  0  0  0  0  0  0  0999 V2000
    7.5213   -8.4368   23.0782 C   0  0  0  0  0  0  0  0  0  0  0  0
    6.5726   -7.3854   22.7812 N   0  0  0  0  0  0  0  0  0  0  0  0
    6.7922   -6.5584   21.7282 C   0  0  0  0  0  0  0  0  0  0  0  0
    7.5832   -6.8007   20.8378 O   0  0  0  0  0  0  0  0  0  0  0  0
    6.0282   -5.2370   21.7357 C   0  0  0  0  0  0  0  0  0  0  0  0
    6.6110   -4.2962   22.6747 N   0  0  0  0  0  0  0  0  0  0  0  0
    7.7020   -3.4089   22.2947 C   0  0  0  0  0  0  0  0  0  0  0  0
    7.3671   -1.9404   22.6666 C   0  0  2  0  0  0  0  0  0  0  0  0
    6.2889   -1.4427   21.6755 C   0  0  0  0  0  0  0  0  0  0  0  0
    5.1474   -1.8409   21.5691 O   0  0  0  0  0  0  0  0  0  0  0  0
    6.8548   -0.4835   20.8587 N   0  0  0  0  0  0  0  0  0  0  0  0
    6.1294    0.0761   19.7856 C   0  0  0  0  0  0  0  0  0  0  0  0
    6.4768   -0.2155   18.4899 C   0  0  0  0  0  0  0  0  0  0  0  0
    5.8130    0.2283   17.3944 N   0  0  0  0  0  0  0  0  0  0  0  0
    4.7761    1.0040   17.6024 C   0  0  0  0  0  0  0  0  0  0  0  0
    4.3221    1.4036   18.8905 C   0  0  0  0  0  0  0  0  0  0  0  0
    3.2006    2.2593   19.0436 C   0  0  0  0  0  0  0  0  0  0  0  0
    2.7925    2.6485   20.2894 C   0  0  0  0  0  0  0  0  0  0  0  0
    3.4866    2.2044   21.4371 C   0  0  0  0  0  0  0  0  0  0  0  0
    4.5738    1.3754   21.3150 C   0  0  0  0  0  0  0  0  0  0  0  0
    5.0136    0.9411   20.0296 C   0  0  0  0  0  0  0  0  0  0  0  0
    5.0988    1.0394   22.2039 H   0  0  0  0  0  0  0  0  0  0  0  0
    3.1577    2.5298   22.4210 H   0  0  0  0  0  0  0  0  0  0  0  0
    1.9409    3.3134   20.4046 H   0  0  0  0  0  0  0  0  0  0  0  0
    2.6886    2.6054   18.1495 H   0  0  0  0  0  0  0  0  0  0  0  0
    4.2355    1.3599   16.7262 H   0  0  0  0  0  0  0  0  0  0  0  0
    7.3232   -0.8739   18.2978 H   0  0  0  0  0  0  0  0  0  0  0  0
    8.3013   -0.4051   20.9841 C   0  0  0  0  0  0  0  0  0  0  0  0
    8.5456   -0.9651   22.3879 C   0  0  2  0  0  0  0  0  0  0  0  0
    9.9329   -1.5872   22.5755 C   0  0  0  0  0  0  0  0  0  0  0  0
   11.0268   -0.6445   22.4146 N   0  0  0  0  0  0  0  0  0  0  0  0
   11.9894   -0.6640   21.4595 C   0  0  0  0  0  0  0  0  0  0  0  0
   12.8467    0.3782   21.7313 C   0  0  0  0  0  0  0  0  0  0  0  0
   12.3211    0.9571   22.9017 C   0  0  0  0  0  0  0  0  0  0  0  0
   11.2185    0.3338   23.3113 N   0  0  0  0  0  0  0  0  0  0  0  0
   12.7342    1.7830   23.4678 H   0  0  0  0  0  0  0  0  0  0  0  0
   13.7453    0.6613   21.2012 H   0  0  0  0  0  0  0  0  0  0  0  0
   12.0025   -1.4087   20.6758 H   0  0  0  0  0  0  0  0  0  0  0  0
   10.0794   -2.3763   21.8304 H   0  0  0  0  0  0  0  0  0  0  0  0
    9.9946   -2.0155   23.5829 H   0  0  0  0  0  0  0  0  0  0  0  0
    8.4621   -0.1304   23.0849 H   0  0  0  0  0  0  0  0  0  0  0  0
    8.8174   -1.0101   20.2230 H   0  0  0  0  0  0  0  0  0  0  0  0
    8.6368    0.6312   20.8818 H   0  0  0  0  0  0  0  0  0  0  0  0
    6.8790   -1.9292   24.1043 C   0  0  0  0  0  0  0  0  0  0  0  0
    6.8421   -0.7413   24.8447 C   0  0  0  0  0  0  0  0  0  0  0  0
    6.3831   -0.7487   26.1492 C   0  0  0  0  0  0  0  0  0  0  0  0
    6.3424    0.7559   27.0282 Cl  0  0  0  0  0  0  0  0  0  0  0  0
    5.9587   -1.9171   26.7818 C   0  0  0  0  0  0  0  0  0  0  0  0
    5.9612   -3.0833   26.0490 C   0  0  0  0  0  0  0  0  0  0  0  0
    6.3791   -3.0843   24.7233 C   0  0  0  0  0  0  0  0  0  0  0  0
    6.1596   -4.3311   23.9511 C   0  0  0  0  0  0  0  0  0  0  0  0
    5.5443   -5.3014   24.4056 O   0  0  0  0  0  0  0  0  0  0  0  0
    5.6123   -4.0158   26.4738 H   0  0  0  0  0  0  0  0  0  0  0  0
    5.6187   -1.8939   27.8115 H   0  0  0  0  0  0  0  0  0  0  0  0
    7.1599    0.2045   24.4185 H   0  0  0  0  0  0  0  0  0  0  0  0
    7.8583   -3.5000   21.2216 H   0  0  0  0  0  0  0  0  0  0  0  0
    8.6339   -3.7154   22.7926 H   0  0  0  0  0  0  0  0  0  0  0  0
    4.9780   -5.3956   22.0081 H   0  0  0  0  0  0  0  0  0  0  0  0
    6.0860   -4.8082   20.7323 H   0  0  0  0  0  0  0  0  0  0  0  0
    6.0252   -6.9986   23.5373 H   0  0  0  0  0  0  0  0  0  0  0  0
    7.7878   -8.9309   22.1456 H   0  0  0  0  0  0  0  0  0  0  0  0
    7.0522   -9.1724   23.7351 H   0  0  0  0  0  0  0  0  0  0  0  0
    8.4354   -8.0521   23.5570 H   0  0  0  0  0  0  0  0  0  0  0  0
  1  2  1  0
  2  3  1  0
  3  4  2  0
  3  5  1  0
  5  6  1  0
  6  7  1  0
  8  7  1  6
  8  9  1  0
  9 10  2  0
  9 11  1  0
 11 12  1  0
 12 13  2  0
 13 14  1  0
 14 15  2  0
 15 16  1  0
 16 17  2  0
 17 18  1  0
 18 19  2  0
 19 20  1  0
 20 21  2  0
 20 22  1  0
 19 23  1  0
 18 24  1  0
 17 25  1  0
 15 26  1  0
 13 27  1  0
 11 28  1  0
 28 29  1  0
 29 30  1  0
 30 31  1  0
 31 32  1  0
 32 33  2  0
 33 34  1  0
 34 35  2  0
 34 36  1  0
 33 37  1  0
 32 38  1  0
 30 39  1  0
 30 40  1  0
 29 41  1  1
 28 42  1  0
 28 43  1  0
  8 44  1  0
 44 45  2  0
 45 46  1  0
 46 47  1  0
 46 48  2  0
 48 49  1  0
 49 50  2  0
 50 51  1  0
 51 52  2  0
 49 53  1  0
 48 54  1  0
 45 55  1  0
  7 56  1  0
  7 57  1  0
  5 58  1  0
  5 59  1  0
  2 60  1  0
  1 61  1  0
  1 62  1  0
  1 63  1  0
 51  6  1  0
 29  8  1  0
 35 31  1  0
 50 44  1  0
 21 12  1  0
 21 16  1  0
M  END
>  <cnnaffinities>  (87) 
[7.18472]

>  <score>  (87) 
7.18472

>  <index>  (87) 
87

>  <Smiles>  (87) 
C(N(C(=O)C(N1C([C@@]2(C(=O)N(c3c(nc(c4c(c(c(c(c34)[H])[H])[H])[H])[H])[H])C([C@@]2(C(n2c(c(c(n2)[H])[H])[H])([H])[H])[H])([H])[H])c2c(c(Cl)c(c(c2C1=O)[H])[H])[H])([H])[H])([H])[H])[H])([H])([H])[H]

>  <h>  (87) 
<NA>

>  <Training>  (87) 
True

>  <Success>  (87) 
True

>  <enamine_searched>  (87) 
False

>  <enamine_id>  (87) 
nan

$$$$

     RDKit          3D

 64 68  0  0  0  0  0  0  0  0999 V2000
   11.0878   -4.8945   25.4611 C   0  0  0  0  0  0  0  0  0  0  0  0
   10.3267   -4.3398   24.2689 C   0  0  0  0  0  0  0  0  0  0  0  0
    9.5507   -3.0730   24.5841 C   0  0  0  0  0  0  0  0  0  0  0  0
   10.0798   -2.0181   24.2659 O   0  0  0  0  0  0  0  0  0  0  0  0
    8.2256   -3.1139   25.0325 N   0  0  0  0  0  0  0  0  0  0  0  0
    7.6711   -4.3162   25.6646 C   0  0  0  0  0  0  0  0  0  0  0  0
    6.2492   -4.1038   26.2300 C   0  0  0  0  0  0  0  0  0  0  0  0
    6.0619   -2.7046   26.8535 C   0  0  0  0  0  0  0  0  0  0  0  0
    6.4138   -1.6609   25.8122 C   0  0  0  0  0  0  0  0  0  0  0  0
    5.7560   -0.4145   25.7006 C   0  0  0  0  0  0  0  0  0  0  0  0
    6.1527    0.5102   24.7082 C   0  0  0  0  0  0  0  0  0  0  0  0
    7.1572    0.1725   23.7924 C   0  0  0  0  0  0  0  0  0  0  0  0
    7.6941    1.0485   22.8446 N   0  0  0  0  0  0  0  0  0  0  0  0
    8.6663    2.0200   23.3523 C   0  0  0  0  0  0  0  0  0  0  0  0
   10.0026    1.3588   23.6642 C   0  0  0  0  0  0  0  0  0  0  0  0
   10.1930    0.7223   24.9065 C   0  0  0  0  0  0  0  0  0  0  0  0
   11.4209    0.1230   25.2209 C   0  0  0  0  0  0  0  0  0  0  0  0
   12.4881    0.1809   24.3211 C   0  0  0  0  0  0  0  0  0  0  0  0
   12.3144    0.7881   23.0756 C   0  0  0  0  0  0  0  0  0  0  0  0
   13.7810    0.8049   21.8473 Br  0  0  0  0  0  0  0  0  0  0  0  0
   11.0737    1.3621   22.7450 C   0  0  0  0  0  0  0  0  0  0  0  0
   10.9480    1.7982   21.7590 H   0  0  0  0  0  0  0  0  0  0  0  0
   13.4530   -0.2568   24.5695 H   0  0  0  0  0  0  0  0  0  0  0  0
   11.5597   -0.3738   26.1718 H   0  0  0  0  0  0  0  0  0  0  0  0
    9.3910    0.6862   25.6372 H   0  0  0  0  0  0  0  0  0  0  0  0
    8.2645    2.5047   24.2477 H   0  0  0  0  0  0  0  0  0  0  0  0
    8.8144    2.8220   22.6231 H   0  0  0  0  0  0  0  0  0  0  0  0
    7.7829    0.6812   21.4986 C   0  0  0  0  0  0  0  0  0  0  0  0
    8.5187    1.3125   20.7411 O   0  0  0  0  0  0  0  0  0  0  0  0
    6.9271   -0.4449   20.8906 C   0  0  0  0  0  0  0  0  0  0  0  0
    6.0963    0.0454   19.7043 C   0  0  0  0  0  0  0  0  0  0  0  0
    6.4238   -0.2888   18.3738 C   0  0  0  0  0  0  0  0  0  0  0  0
    5.7446    0.1684   17.3036 N   0  0  0  0  0  0  0  0  0  0  0  0
    4.7029    0.9914   17.5246 C   0  0  0  0  0  0  0  0  0  0  0  0
    4.2911    1.3752   18.8075 C   0  0  0  0  0  0  0  0  0  0  0  0
    3.1996    2.2396   19.0025 C   0  0  0  0  0  0  0  0  0  0  0  0
    2.8172    2.6063   20.2979 C   0  0  0  0  0  0  0  0  0  0  0  0
    3.5216    2.1212   21.4037 C   0  0  0  0  0  0  0  0  0  0  0  0
    4.6116    1.2680   21.2114 C   0  0  0  0  0  0  0  0  0  0  0  0
    5.0006    0.8888   19.9199 C   0  0  0  0  0  0  0  0  0  0  0  0
    5.1675    0.8992   22.0683 H   0  0  0  0  0  0  0  0  0  0  0  0
    3.2290    2.4097   22.4092 H   0  0  0  0  0  0  0  0  0  0  0  0
    1.9759    3.2757   20.4498 H   0  0  0  0  0  0  0  0  0  0  0  0
    2.6475    2.6375   18.1548 H   0  0  0  0  0  0  0  0  0  0  0  0
    4.1569    1.3753   16.6666 H   0  0  0  0  0  0  0  0  0  0  0  0
    7.2795   -0.9335   18.1961 H   0  0  0  0  0  0  0  0  0  0  0  0
    6.2554   -0.8408   21.6594 H   0  0  0  0  0  0  0  0  0  0  0  0
    7.5926   -1.2557   20.5829 H   0  0  0  0  0  0  0  0  0  0  0  0
    7.7651   -1.0599   23.8982 C   0  0  0  0  0  0  0  0  0  0  0  0
    7.4531   -1.9502   24.9195 C   0  0  0  0  0  0  0  0  0  0  0  0
    8.5466   -1.3033   23.1913 H   0  0  0  0  0  0  0  0  0  0  0  0
    5.6914    1.4912   24.6451 H   0  0  0  0  0  0  0  0  0  0  0  0
    4.9601   -0.1511   26.3919 H   0  0  0  0  0  0  0  0  0  0  0  0
    6.7097   -2.5970   27.7330 H   0  0  0  0  0  0  0  0  0  0  0  0
    5.0228   -2.5858   27.1807 H   0  0  0  0  0  0  0  0  0  0  0  0
    5.5253   -4.2248   25.4165 H   0  0  0  0  0  0  0  0  0  0  0  0
    6.0401   -4.8766   26.9770 H   0  0  0  0  0  0  0  0  0  0  0  0
    7.6368   -5.1253   24.9272 H   0  0  0  0  0  0  0  0  0  0  0  0
    8.3254   -4.6435   26.4812 H   0  0  0  0  0  0  0  0  0  0  0  0
    9.6264   -5.0821   23.8914 H   0  0  0  0  0  0  0  0  0  0  0  0
   11.0469   -4.1132   23.4770 H   0  0  0  0  0  0  0  0  0  0  0  0
   11.3929   -5.9136   25.2586 H   0  0  0  0  0  0  0  0  0  0  0  0
   11.9960   -4.3069   25.6121 H   0  0  0  0  0  0  0  0  0  0  0  0
   10.4762   -4.8935   26.3694 H   0  0  0  0  0  0  0  0  0  0  0  0
  1  2  1  0
  2  3  1  0
  3  4  2  0
  3  5  1  0
  5  6  1  0
  6  7  1  0
  7  8  1  0
  8  9  1  0
  9 10  2  0
 10 11  1  0
 11 12  2  0
 12 13  1  0
 13 14  1  0
 14 15  1  0
 15 16  2  0
 16 17  1  0
 17 18  2  0
 18 19  1  0
 19 20  1  0
 19 21  2  0
 21 22  1  0
 18 23  1  0
 17 24  1  0
 16 25  1  0
 14 26  1  0
 14 27  1  0
 13 28  1  0
 28 29  2  0
 28 30  1  0
 30 31  1  0
 31 32  2  0
 32 33  1  0
 33 34  2  0
 34 35  1  0
 35 36  2  0
 36 37  1  0
 37 38  2  0
 38 39  1  0
 39 40  2  0
 39 41  1  0
 38 42  1  0
 37 43  1  0
 36 44  1  0
 34 45  1  0
 32 46  1  0
 30 47  1  0
 30 48  1  0
 12 49  1  0
 49 50  2  0
 49 51  1  0
 11 52  1  0
 10 53  1  0
  8 54  1  0
  8 55  1  0
  7 56  1  0
  7 57  1  0
  6 58  1  0
  6 59  1  0
  2 60  1  0
  2 61  1  0
  1 62  1  0
  1 63  1  0
  1 64  1  0
 50  5  1  0
 50  9  1  0
 21 15  1  0
 40 31  1  0
 40 35  1  0
M  END
>  <cnnaffinities>  (88) 
[6.94148, 7.02734, 6.502]

>  <score>  (88) 
6.94148

>  <index>  (88) 
88

>  <Smiles>  (88) 
C(C(C(=O)N1C(C(C(c2c(c(c(N(C(c3c(c(c(c(Br)c3[H])[H])[H])[H])([H])[H])C(=O)C(c3c(nc(c4c(c(c(c(c34)[H])[H])[H])[H])[H])[H])([H])[H])c(c12)[H])[H])[H])([H])[H])([H])[H])([H])[H])([H])[H])([H])([H])[H]

>  <h>  (88) 
<NA>

>  <Training>  (88) 
True

>  <Success>  (88) 
True

>  <enamine_searched>  (88) 
False

>  <enamine_id>  (88) 
nan

$$$$

     RDKit          3D

 38 40  0  0  0  0  0  0  0  0999 V2000
    8.0522    1.6746   20.9650 O   0  0  0  0  0  0  0  0  0  0  0  0
    7.8913    0.6083   21.5303 C   0  0  0  0  0  0  0  0  0  0  0  0
    6.9529   -0.4564   20.9119 C   0  0  0  0  0  0  0  0  0  0  0  0
    6.1169    0.0854   19.7715 C   0  0  0  0  0  0  0  0  0  0  0  0
    6.4275   -0.2074   18.4683 C   0  0  0  0  0  0  0  0  0  0  0  0
    5.7632    0.2417   17.3682 N   0  0  0  0  0  0  0  0  0  0  0  0
    4.7348    1.0273   17.5763 C   0  0  0  0  0  0  0  0  0  0  0  0
    4.2901    1.4236   18.8679 C   0  0  0  0  0  0  0  0  0  0  0  0
    3.1714    2.2808   19.0429 C   0  0  0  0  0  0  0  0  0  0  0  0
    2.7670    2.6475   20.2988 C   0  0  0  0  0  0  0  0  0  0  0  0
    3.4665    2.1726   21.4298 C   0  0  0  0  0  0  0  0  0  0  0  0
    4.5533    1.3434   21.2868 C   0  0  0  0  0  0  0  0  0  0  0  0
    4.9980    0.9454   19.9978 C   0  0  0  0  0  0  0  0  0  0  0  0
    5.0846    0.9942   22.1666 H   0  0  0  0  0  0  0  0  0  0  0  0
    3.1420    2.4731   22.4219 H   0  0  0  0  0  0  0  0  0  0  0  0
    1.9134    3.3088   20.4349 H   0  0  0  0  0  0  0  0  0  0  0  0
    2.6455    2.6472   18.1633 H   0  0  0  0  0  0  0  0  0  0  0  0
    4.1991    1.3976   16.6996 H   0  0  0  0  0  0  0  0  0  0  0  0
    7.2739   -0.8560   18.2448 H   0  0  0  0  0  0  0  0  0  0  0  0
    6.2980   -0.8849   21.6843 H   0  0  0  0  0  0  0  0  0  0  0  0
    7.5675   -1.2888   20.5371 H   0  0  0  0  0  0  0  0  0  0  0  0
    8.4979    0.3278   22.7430 N   0  0  0  0  0  0  0  0  0  0  0  0
    8.8177   -1.0443   23.1461 C   0  0  0  0  0  0  0  0  0  0  0  0
    9.9945   -1.6534   22.4099 C   0  0  0  0  0  0  0  0  0  0  0  0
   11.2154   -1.1255   22.4431 C   0  0  0  0  0  0  0  0  0  0  0  0
   11.5860    0.1018   23.2462 C   0  0  0  0  0  0  0  0  0  0  0  0
   10.8020    1.3696   22.8814 C   0  0  0  0  0  0  0  0  0  0  0  0
    9.3442    1.3713   23.3330 C   0  0  0  0  0  0  0  0  0  0  0  0
    9.3325    1.2335   24.4145 H   0  0  0  0  0  0  0  0  0  0  0  0
    8.8872    2.3383   23.1197 H   0  0  0  0  0  0  0  0  0  0  0  0
   10.8084    1.5178   21.8086 H   0  0  0  0  0  0  0  0  0  0  0  0
   11.3200    2.2508   23.2875 H   0  0  0  0  0  0  0  0  0  0  0  0
   12.6573    0.2943   23.1293 H   0  0  0  0  0  0  0  0  0  0  0  0
   11.4282   -0.0939   24.3151 H   0  0  0  0  0  0  0  0  0  0  0  0
   11.9966   -1.5791   21.8321 H   0  0  0  0  0  0  0  0  0  0  0  0
    9.8133   -2.5466   21.8075 H   0  0  0  0  0  0  0  0  0  0  0  0
    9.0356   -1.0231   24.2180 H   0  0  0  0  0  0  0  0  0  0  0  0
    7.9291   -1.6685   23.0362 H   0  0  0  0  0  0  0  0  0  0  0  0
  1  2  2  0
  2  3  1  0
  3  4  1  0
  4  5  2  0
  5  6  1  0
  6  7  2  0
  7  8  1  0
  8  9  2  0
  9 10  1  0
 10 11  2  0
 11 12  1  0
 12 13  2  0
 12 14  1  0
 11 15  1  0
 10 16  1  0
  9 17  1  0
  7 18  1  0
  5 19  1  0
  3 20  1  0
  3 21  1  0
  2 22  1  0
 22 23  1  0
 23 24  1  0
 24 25  2  0
 25 26  1  0
 26 27  1  0
 27 28  1  0
 28 29  1  0
 28 30  1  0
 27 31  1  0
 27 32  1  0
 26 33  1  0
 26 34  1  0
 25 35  1  0
 24 36  1  0
 23 37  1  0
 23 38  1  0
 13  4  1  0
 28 22  1  0
 13  8  1  0
M  END
>  <cnnaffinities>  (89) 
[5.48095, 5.11993, 5.3567]

>  <score>  (89) 
5.48095

>  <index>  (89) 
89

>  <Smiles>  (89) 
O=C(C(c1c(nc(c2c(c(c(c(c12)[H])[H])[H])[H])[H])[H])([H])[H])N1C(C(=C(C(C(C1([H])[H])([H])[H])([H])[H])[H])[H])([H])[H]

>  <h>  (89) 
<NA>

>  <Training>  (89) 
True

>  <Success>  (89) 
True

>  <enamine_searched>  (89) 
False

>  <enamine_id>  (89) 
nan

$$$$

     RDKit          3D

 62 67  0  0  0  0  0  0  0  0999 V2000
    7.5620   -2.7215   23.6118 C   0  0  0  0  0  0  0  0  0  0  0  0
    7.9365   -1.8208   22.4258 C   0  0  1  0  0  0  0  0  0  0  0  0
    6.7905   -1.7075   21.3951 C   0  0  0  0  0  0  0  0  0  0  0  0
    6.9507   -0.3804   20.8306 N   0  0  0  0  0  0  0  0  0  0  0  0
    6.1479    0.1130   19.7633 C   0  0  0  0  0  0  0  0  0  0  0  0
    6.4461   -0.2206   18.4659 C   0  0  0  0  0  0  0  0  0  0  0  0
    5.7632    0.2209   17.3808 N   0  0  0  0  0  0  0  0  0  0  0  0
    4.7431    1.0191   17.5910 C   0  0  0  0  0  0  0  0  0  0  0  0
    4.3014    1.4220   18.8841 C   0  0  0  0  0  0  0  0  0  0  0  0
    3.1777    2.2785   19.0598 C   0  0  0  0  0  0  0  0  0  0  0  0
    2.7654    2.6279   20.3193 C   0  0  0  0  0  0  0  0  0  0  0  0
    3.4443    2.1301   21.4515 C   0  0  0  0  0  0  0  0  0  0  0  0
    4.5306    1.2999   21.3044 C   0  0  0  0  0  0  0  0  0  0  0  0
    5.0071    0.9456   20.0081 C   0  0  0  0  0  0  0  0  0  0  0  0
    5.0338    0.9068   22.1808 H   0  0  0  0  0  0  0  0  0  0  0  0
    3.1084    2.4139   22.4455 H   0  0  0  0  0  0  0  0  0  0  0  0
    1.9143    3.2914   20.4496 H   0  0  0  0  0  0  0  0  0  0  0  0
    2.6642    2.6508   18.1795 H   0  0  0  0  0  0  0  0  0  0  0  0
    4.2132    1.3851   16.7130 H   0  0  0  0  0  0  0  0  0  0  0  0
    7.2894   -0.8762   18.2565 H   0  0  0  0  0  0  0  0  0  0  0  0
    7.7766    0.4450   21.5592 C   0  0  0  0  0  0  0  0  0  0  0  0
    7.9942    1.6109   21.2933 O   0  0  0  0  0  0  0  0  0  0  0  0
    8.3634   -0.3497   22.7555 C   0  0  1  0  0  0  0  0  0  0  0  0
    7.7352    0.1580   24.0768 C   0  0  0  0  0  0  0  0  0  0  0  0
    8.2245    1.4760   24.4489 N   0  0  0  0  0  0  0  0  0  0  0  0
    7.2648    2.4517   24.9517 C   0  0  0  0  0  0  0  0  0  0  0  0
    6.6797    3.3357   23.8625 C   0  0  0  0  0  0  0  0  0  0  0  0
    7.7202    4.2317   23.2882 N   0  0  0  0  0  4  0  0  0  0  0  0
    8.1515    5.4437   24.1643 C   0  0  0  0  0  0  0  0  0  0  0  0
    7.6361    6.4602   23.0925 C   0  0  0  0  0  0  0  0  0  0  0  0
    7.2500    5.2188   22.2217 C   0  0  0  0  0  0  0  0  0  0  0  0
    6.1901    5.0762   22.0157 H   0  0  0  0  0  0  0  0  0  0  0  0
    7.8153    5.0675   21.3084 H   0  0  0  0  0  0  0  0  0  0  0  0
    6.7813    7.0657   23.4133 H   0  0  0  0  0  0  0  0  0  0  0  0
    8.3837    7.1345   22.6656 H   0  0  0  0  0  0  0  0  0  0  0  0
    9.2202    5.4067   24.3458 H   0  0  0  0  0  0  0  0  0  0  0  0
    7.6138    5.4398   25.1104 H   0  0  0  0  0  0  0  0  0  0  0  0
    8.4988    3.6481   22.9396 H   0  0  0  0  0  0  0  0  0  0  0  0
    5.8718    3.9534   24.2687 H   0  0  0  0  0  0  0  0  0  0  0  0
    6.2808    2.7414   23.0414 H   0  0  0  0  0  0  0  0  0  0  0  0
    6.4464    1.9046   25.4337 H   0  0  0  0  0  0  0  0  0  0  0  0
    7.7690    3.0462   25.7175 H   0  0  0  0  0  0  0  0  0  0  0  0
    9.5654    1.7354   24.5092 C   0  0  0  0  0  0  0  0  0  0  0  0
   10.0316    2.6911   25.1237 O   0  0  0  0  0  0  0  0  0  0  0  0
   10.4374    0.8257   23.6796 C   0  0  0  0  0  0  0  0  0  0  0  0
   11.8194    1.0178   23.6913 C   0  0  0  0  0  0  0  0  0  0  0  0
   12.6355    0.3678   22.7832 C   0  0  0  0  0  0  0  0  0  0  0  0
   12.0384   -0.4411   21.8167 C   0  0  0  0  0  0  0  0  0  0  0  0
   12.9498   -1.0711   20.4791 Cl  0  0  0  0  0  0  0  0  0  0  0  0
   10.6864   -0.7136   21.8533 C   0  0  0  0  0  0  0  0  0  0  0  0
    9.8648   -0.1179   22.8169 C   0  0  0  0  0  0  0  0  0  0  0  0
   10.2854   -1.3615   21.0834 H   0  0  0  0  0  0  0  0  0  0  0  0
   13.7089    0.5089   22.8032 H   0  0  0  0  0  0  0  0  0  0  0  0
   12.2261    1.7382   24.3893 H   0  0  0  0  0  0  0  0  0  0  0  0
    7.9711   -0.5668   24.8723 H   0  0  0  0  0  0  0  0  0  0  0  0
    6.6455    0.2106   23.9542 H   0  0  0  0  0  0  0  0  0  0  0  0
    6.8527   -2.4676   20.6069 H   0  0  0  0  0  0  0  0  0  0  0  0
    5.8100   -1.8201   21.8859 H   0  0  0  0  0  0  0  0  0  0  0  0
    8.7886   -2.2861   21.9240 H   0  0  0  0  0  0  0  0  0  0  0  0
    7.3409   -3.7408   23.2689 H   0  0  0  0  0  0  0  0  0  0  0  0
    8.3742   -2.7878   24.3467 H   0  0  0  0  0  0  0  0  0  0  0  0
    6.6676   -2.3495   24.1296 H   0  0  0  0  0  0  0  0  0  0  0  0
  1  2  1  0
  2  3  1  0
  3  4  1  0
  4  5  1  0
  5  6  2  0
  6  7  1  0
  7  8  2  0
  8  9  1  0
  9 10  2  0
 10 11  1  0
 11 12  2  0
 12 13  1  0
 13 14  2  0
 13 15  1  0
 12 16  1  0
 11 17  1  0
 10 18  1  0
  8 19  1  0
  6 20  1  0
  4 21  1  0
 21 22  2  0
 21 23  1  0
 23 24  1  1
 24 25  1  0
 25 26  1  0
 26 27  1  0
 27 28  1  0
 28 29  1  0
 29 30  1  0
 30 31  1  0
 31 32  1  0
 31 33  1  0
 30 34  1  0
 30 35  1  0
 29 36  1  0
 29 37  1  0
 28 38  1  0
 27 39  1  0
 27 40  1  0
 26 41  1  0
 26 42  1  0
 25 43  1  0
 43 44  2  0
 43 45  1  0
 45 46  2  0
 46 47  1  0
 47 48  2  0
 48 49  1  0
 48 50  1  0
 50 51  2  0
 50 52  1  0
 47 53  1  0
 46 54  1  0
 24 55  1  0
 24 56  1  0
  3 57  1  0
  3 58  1  0
  2 59  1  6
  1 60  1  0
  1 61  1  0
  1 62  1  0
 23  2  1  0
 31 28  1  0
 51 45  1  0
 14  5  1  0
 51 23  1  0
 14  9  1  0
M  CHG  1  28   1
M  END
>  <cnnaffinities>  (90) 
[6.80419, 6.49441, 6.71643]

>  <score>  (90) 
6.80419

>  <index>  (90) 
90

>  <Smiles>  (90) 
C([C@]1(C(N(c2c(nc(c3c(c(c(c(c23)[H])[H])[H])[H])[H])[H])C(=O)[C@]21C(N(C(C([N+]1(C(C(C1([H])[H])([H])[H])([H])[H])[H])([H])[H])([H])[H])C(=O)c1c(c(c(Cl)c(c21)[H])[H])[H])([H])[H])([H])[H])[H])([H])([H])[H]

>  <h>  (90) 
<NA>

>  <Training>  (90) 
True

>  <Success>  (90) 
True

>  <enamine_searched>  (90) 
False

>  <enamine_id>  (90) 
nan

$$$$

     RDKit          3D

 56 61  0  0  0  0  0  0  0  0999 V2000
    7.0930   -2.4253   23.5066 C   0  0  0  0  0  0  0  0  0  0  0  0
    7.9776   -1.8447   22.3917 C   0  0  1  0  0  0  0  0  0  0  0  0
    7.1966   -1.7774   21.0592 C   0  0  0  0  0  0  0  0  0  0  0  0
    6.8874   -0.3767   20.8784 N   0  0  0  0  0  0  0  0  0  0  0  0
    6.1304    0.1045   19.7804 C   0  0  0  0  0  0  0  0  0  0  0  0
    6.4463   -0.2278   18.4851 C   0  0  0  0  0  0  0  0  0  0  0  0
    5.7731    0.2202   17.3945 N   0  0  0  0  0  0  0  0  0  0  0  0
    4.7499    1.0151   17.5980 C   0  0  0  0  0  0  0  0  0  0  0  0
    4.2948    1.4156   18.8850 C   0  0  0  0  0  0  0  0  0  0  0  0
    3.1703    2.2669   19.0599 C   0  0  0  0  0  0  0  0  0  0  0  0
    2.7446    2.6128   20.3133 C   0  0  0  0  0  0  0  0  0  0  0  0
    3.4219    2.1158   21.4525 C   0  0  0  0  0  0  0  0  0  0  0  0
    4.5030    1.2834   21.3059 C   0  0  0  0  0  0  0  0  0  0  0  0
    4.9887    0.9353   20.0174 C   0  0  0  0  0  0  0  0  0  0  0  0
    5.0220    0.8907   22.1746 H   0  0  0  0  0  0  0  0  0  0  0  0
    3.1036    2.4202   22.4458 H   0  0  0  0  0  0  0  0  0  0  0  0
    1.8918    3.2743   20.4350 H   0  0  0  0  0  0  0  0  0  0  0  0
    2.6667    2.6421   18.1713 H   0  0  0  0  0  0  0  0  0  0  0  0
    4.2255    1.3791   16.7139 H   0  0  0  0  0  0  0  0  0  0  0  0
    7.2938   -0.8722   18.2581 H   0  0  0  0  0  0  0  0  0  0  0  0
    7.6915    0.4574   21.6316 C   0  0  0  0  0  0  0  0  0  0  0  0
    7.7462    1.6590   21.4793 O   0  0  0  0  0  0  0  0  0  0  0  0
    8.5296   -0.3929   22.6200 C   0  0  1  0  0  0  0  0  0  0  0  0
    8.3659    0.0741   24.0862 C   0  0  0  0  0  0  0  0  0  0  0  0
    8.9681    1.3643   24.3505 N   0  0  0  0  0  0  0  0  0  0  0  0
    8.2153    2.3688   25.0861 C   0  0  0  0  0  0  0  0  0  0  0  0
    7.4238    3.3178   24.2055 C   0  0  0  0  0  0  0  0  0  0  0  0
    6.0442    3.2881   23.8649 C   0  0  0  0  0  0  0  0  0  0  0  0
    5.7168    4.2550   23.0172 N   0  0  0  0  0  0  0  0  0  0  0  0
    6.8601    4.9188   22.8087 N   0  0  0  0  0  0  0  0  0  0  0  0
    7.9080    4.3965   23.4972 C   0  0  0  0  0  0  0  0  0  0  0  0
    8.8965    4.8327   23.4338 H   0  0  0  0  0  0  0  0  0  0  0  0
    6.8800    5.6570   22.1208 H   0  0  0  0  0  0  0  0  0  0  0  0
    5.2477    2.6019   24.1442 H   0  0  0  0  0  0  0  0  0  0  0  0
    8.9467    2.9187   25.6859 H   0  0  0  0  0  0  0  0  0  0  0  0
    7.5333    1.8480   25.7664 H   0  0  0  0  0  0  0  0  0  0  0  0
   10.1947    1.7196   23.8705 C   0  0  0  0  0  0  0  0  0  0  0  0
   10.7596    2.7497   24.2328 O   0  0  0  0  0  0  0  0  0  0  0  0
   10.7769    0.7856   22.8601 C   0  0  0  0  0  0  0  0  0  0  0  0
   12.1023    0.9863   22.4797 C   0  0  0  0  0  0  0  0  0  0  0  0
   12.6809    0.1769   21.5260 C   0  0  0  0  0  0  0  0  0  0  0  0
   11.9145   -0.8249   20.9449 C   0  0  0  0  0  0  0  0  0  0  0  0
   12.5039   -1.5596   19.9862 F   0  0  0  0  0  0  0  0  0  0  0  0
   10.5836   -1.0161   21.2657 C   0  0  0  0  0  0  0  0  0  0  0  0
   10.0073   -0.2296   22.2702 C   0  0  0  0  0  0  0  0  0  0  0  0
    9.9838   -1.7179   20.6986 H   0  0  0  0  0  0  0  0  0  0  0  0
   13.6838    0.3331   21.1501 H   0  0  0  0  0  0  0  0  0  0  0  0
   12.6446    1.8023   22.9434 H   0  0  0  0  0  0  0  0  0  0  0  0
    8.8072   -0.6957   24.7409 H   0  0  0  0  0  0  0  0  0  0  0  0
    7.3044    0.1804   24.3113 H   0  0  0  0  0  0  0  0  0  0  0  0
    6.2707   -2.3626   21.0903 H   0  0  0  0  0  0  0  0  0  0  0  0
    7.8073   -2.1402   20.2276 H   0  0  0  0  0  0  0  0  0  0  0  0
    8.8336   -2.5206   22.2892 H   0  0  0  0  0  0  0  0  0  0  0  0
    7.6314   -2.5107   24.4554 H   0  0  0  0  0  0  0  0  0  0  0  0
    6.1976   -1.8164   23.6761 H   0  0  0  0  0  0  0  0  0  0  0  0
    6.7630   -3.4338   23.2323 H   0  0  0  0  0  0  0  0  0  0  0  0
  1  2  1  0
  2  3  1  0
  3  4  1  0
  4  5  1  0
  5  6  2  0
  6  7  1  0
  7  8  2  0
  8  9  1  0
  9 10  2  0
 10 11  1  0
 11 12  2  0
 12 13  1  0
 13 14  2  0
 13 15  1  0
 12 16  1  0
 11 17  1  0
 10 18  1  0
  8 19  1  0
  6 20  1  0
  4 21  1  0
 21 22  2  0
 21 23  1  0
 23 24  1  1
 24 25  1  0
 25 26  1  0
 26 27  1  0
 27 28  1  0
 28 29  2  0
 29 30  1  0
 30 31  1  0
 31 32  1  0
 30 33  1  0
 28 34  1  0
 26 35  1  0
 26 36  1  0
 25 37  1  0
 37 38  2  0
 37 39  1  0
 39 40  2  0
 40 41  1  0
 41 42  2  0
 42 43  1  0
 42 44  1  0
 44 45  2  0
 44 46  1  0
 41 47  1  0
 40 48  1  0
 24 49  1  0
 24 50  1  0
  3 51  1  0
  3 52  1  0
  2 53  1  6
  1 54  1  0
  1 55  1  0
  1 56  1  0
 23  2  1  0
 31 27  2  0
 45 39  1  0
 14  5  1  0
 45 23  1  0
 14  9  1  0
M  END
>  <cnnaffinities>  (91) 
[6.67443, 6.67508]

>  <score>  (91) 
6.67443

>  <index>  (91) 
91

>  <Smiles>  (91) 
C([C@]1(C(N(c2c(nc(c3c(c(c(c(c23)[H])[H])[H])[H])[H])[H])C(=O)[C@]21C(N(C(c1c(nn(c1[H])[H])[H])([H])[H])C(=O)c1c(c(c(F)c(c21)[H])[H])[H])([H])[H])([H])[H])[H])([H])([H])[H]

>  <h>  (91) 
<NA>

>  <Training>  (91) 
True

>  <Success>  (91) 
True

>  <enamine_searched>  (91) 
False

>  <enamine_id>  (91) 
nan

$$$$

     RDKit          3D

 47 50  0  0  0  0  0  0  0  0999 V2000
    5.5683   -2.4569   20.9388 O   0  0  0  0  0  0  0  0  0  0  0  0
    6.1431   -1.6132   21.5942 C   0  0  0  0  0  0  0  0  0  0  0  0
    6.9165   -0.4792   20.9086 C   0  0  0  0  0  0  0  0  0  0  0  0
    6.1189    0.0949   19.7621 C   0  0  0  0  0  0  0  0  0  0  0  0
    6.4231   -0.2143   18.4613 C   0  0  0  0  0  0  0  0  0  0  0  0
    5.7578    0.2380   17.3621 N   0  0  0  0  0  0  0  0  0  0  0  0
    4.7345    1.0289   17.5755 C   0  0  0  0  0  0  0  0  0  0  0  0
    4.2875    1.4216   18.8667 C   0  0  0  0  0  0  0  0  0  0  0  0
    3.1664    2.2724   19.0440 C   0  0  0  0  0  0  0  0  0  0  0  0
    2.7498    2.6262   20.2996 C   0  0  0  0  0  0  0  0  0  0  0  0
    3.4429    2.1388   21.4325 C   0  0  0  0  0  0  0  0  0  0  0  0
    4.5339    1.3167   21.2876 C   0  0  0  0  0  0  0  0  0  0  0  0
    4.9917    0.9387   19.9961 C   0  0  0  0  0  0  0  0  0  0  0  0
    5.0531    0.9528   22.1708 H   0  0  0  0  0  0  0  0  0  0  0  0
    3.1095    2.4278   22.4236 H   0  0  0  0  0  0  0  0  0  0  0  0
    1.8934    3.2820   20.4358 H   0  0  0  0  0  0  0  0  0  0  0  0
    2.6465    2.6421   18.1633 H   0  0  0  0  0  0  0  0  0  0  0  0
    4.2004    1.3976   16.6980 H   0  0  0  0  0  0  0  0  0  0  0  0
    7.2659   -0.8667   18.2409 H   0  0  0  0  0  0  0  0  0  0  0  0
    7.2037    0.2980   21.6241 H   0  0  0  0  0  0  0  0  0  0  0  0
    7.8441   -0.9209   20.5305 H   0  0  0  0  0  0  0  0  0  0  0  0
    6.0644   -1.6450   22.9920 N   0  0  0  0  0  0  0  0  0  0  0  0
    4.8993   -2.2929   23.4859 C   0  0  0  0  0  0  0  0  0  0  0  0
    4.8669   -3.4761   24.1009 C   0  0  0  0  0  0  0  0  0  0  0  0
    6.0422   -4.2463   24.5088 C   0  0  0  0  0  0  0  0  0  0  0  0
    6.9980   -3.7800   25.3301 C   0  0  0  0  0  0  0  0  0  0  0  0
    6.9503   -2.4608   25.9795 C   0  0  0  0  0  0  0  0  0  0  0  0
    6.8204   -1.2796   25.3659 C   0  0  0  0  0  0  0  0  0  0  0  0
    7.0418   -0.9842   23.8891 C   0  0  1  0  0  0  0  0  0  0  0  0
    8.4973   -1.2736   23.4978 C   0  0  0  0  0  0  0  0  0  0  0  0
    8.9086   -2.4923   22.9630 C   0  0  0  0  0  0  0  0  0  0  0  0
   10.2527   -2.7162   22.6689 C   0  0  0  0  0  0  0  0  0  0  0  0
   11.2060   -1.7303   22.9066 C   0  0  0  0  0  0  0  0  0  0  0  0
   10.8083   -0.5187   23.4620 C   0  0  0  0  0  0  0  0  0  0  0  0
    9.4656   -0.3027   23.7603 C   0  0  0  0  0  0  0  0  0  0  0  0
    9.1674    0.6400   24.2119 H   0  0  0  0  0  0  0  0  0  0  0  0
   11.5438    0.2571   23.6565 H   0  0  0  0  0  0  0  0  0  0  0  0
   12.2510   -1.9097   22.6631 H   0  0  0  0  0  0  0  0  0  0  0  0
   10.5592   -3.6669   22.2453 H   0  0  0  0  0  0  0  0  0  0  0  0
    8.1735   -3.2734   22.7881 H   0  0  0  0  0  0  0  0  0  0  0  0
    6.8893    0.0990   23.7806 H   0  0  0  0  0  0  0  0  0  0  0  0
    6.7413   -0.3970   25.9991 H   0  0  0  0  0  0  0  0  0  0  0  0
    6.9920   -2.4998   27.0721 H   0  0  0  0  0  0  0  0  0  0  0  0
    7.8312   -4.4256   25.6034 H   0  0  0  0  0  0  0  0  0  0  0  0
    6.0871   -5.2744   24.1502 H   0  0  0  0  0  0  0  0  0  0  0  0
    3.8929   -3.9117   24.3307 H   0  0  0  0  0  0  0  0  0  0  0  0
    3.9693   -1.7683   23.2679 H   0  0  0  0  0  0  0  0  0  0  0  0
  1  2  2  0
  2  3  1  0
  3  4  1  0
  4  5  2  0
  5  6  1  0
  6  7  2  0
  7  8  1  0
  8  9  2  0
  9 10  1  0
 10 11  2  0
 11 12  1  0
 12 13  2  0
 12 14  1  0
 11 15  1  0
 10 16  1  0
  9 17  1  0
  7 18  1  0
  5 19  1  0
  3 20  1  0
  3 21  1  0
  2 22  1  0
 22 23  1  0
 23 24  2  3
 24 25  1  0
 25 26  2  3
 26 27  1  0
 27 28  2  3
 28 29  1  0
 29 30  1  0
 30 31  2  0
 31 32  1  0
 32 33  2  0
 33 34  1  0
 34 35  2  0
 35 36  1  0
 34 37  1  0
 33 38  1  0
 32 39  1  0
 31 40  1  0
 29 41  1  1
 28 42  1  0
 27 43  1  0
 26 44  1  0
 25 45  1  0
 24 46  1  0
 23 47  1  0
 13  4  1  0
 29 22  1  0
 35 30  1  0
 13  8  1  0
M  END
>  <cnnaffinities>  (92) 
[6.24488, 6.2448]

>  <score>  (92) 
6.24488

>  <index>  (92) 
92

>  <Smiles>  (92) 
O=C(C(c1c(nc(c2c(c(c(c(c12)[H])[H])[H])[H])[H])[H])([H])[H])N1C(=C(C(=C(C(=C([C@]1(c1c(c(c(c(c1[H])[H])[H])[H])[H])[H])[H])[H])[H])[H])[H])[H]

>  <h>  (92) 
<NA>

>  <Training>  (92) 
True

>  <Success>  (92) 
True

>  <enamine_searched>  (92) 
False

>  <enamine_id>  (92) 
nan

$$$$

     RDKit          3D

 58 62  0  0  0  0  0  0  0  0999 V2000
    6.5571    4.4873   21.4070 C   0  0  0  0  0  0  0  0  0  0  0  0
    6.9343    3.4931   22.4145 N   0  0  0  0  0  4  0  0  0  0  0  0
    7.9526    3.9447   23.3905 C   0  0  0  0  0  0  0  0  0  0  0  0
    8.1541    2.8969   24.4822 C   0  0  0  0  0  0  0  0  0  0  0  0
    8.7656    1.6899   23.9438 N   0  0  0  0  0  0  0  0  0  0  0  0
    8.0276    0.4403   23.8432 C   0  0  0  0  0  0  0  0  0  0  0  0
    8.4171   -0.3599   22.5784 C   0  0  2  0  0  0  0  0  0  0  0  0
    7.8346    0.3622   21.3482 C   0  0  0  0  0  0  0  0  0  0  0  0
    8.0587    1.5099   20.9870 O   0  0  0  0  0  0  0  0  0  0  0  0
    6.9009   -0.4474   20.7647 N   0  0  0  0  0  0  0  0  0  0  0  0
    6.1149    0.0884   19.7174 C   0  0  0  0  0  0  0  0  0  0  0  0
    6.4585   -0.2013   18.4244 C   0  0  0  0  0  0  0  0  0  0  0  0
    5.7742    0.2364   17.3444 N   0  0  0  0  0  0  0  0  0  0  0  0
    4.7437    1.0157   17.5807 C   0  0  0  0  0  0  0  0  0  0  0  0
    4.3224    1.4315   18.8769 C   0  0  0  0  0  0  0  0  0  0  0  0
    3.2184    2.3035   19.0567 C   0  0  0  0  0  0  0  0  0  0  0  0
    2.8315    2.6855   20.3141 C   0  0  0  0  0  0  0  0  0  0  0  0
    3.5305    2.2197   21.4464 C   0  0  0  0  0  0  0  0  0  0  0  0
    4.6105    1.3794   21.2993 C   0  0  0  0  0  0  0  0  0  0  0  0
    5.0289    0.9600   20.0000 C   0  0  0  0  0  0  0  0  0  0  0  0
    5.1312    1.0254   22.1851 H   0  0  0  0  0  0  0  0  0  0  0  0
    3.2065    2.5306   22.4369 H   0  0  0  0  0  0  0  0  0  0  0  0
    1.9782    3.3435   20.4417 H   0  0  0  0  0  0  0  0  0  0  0  0
    2.6962    2.6495   18.1720 H   0  0  0  0  0  0  0  0  0  0  0  0
    4.1862    1.3672   16.7156 H   0  0  0  0  0  0  0  0  0  0  0  0
    7.3340   -0.8212   18.2428 H   0  0  0  0  0  0  0  0  0  0  0  0
    6.4669   -1.5271   21.6343 C   0  0  0  0  0  0  0  0  0  0  0  0
    7.7034   -1.7407   22.5097 C   0  0  2  0  0  0  0  0  0  0  0  0
    7.4219   -2.4101   23.8440 C   0  0  0  0  0  0  0  0  0  0  0  0
    6.9782   -3.3975   23.6853 H   0  0  0  0  0  0  0  0  0  0  0  0
    8.3503   -2.5310   24.4150 H   0  0  0  0  0  0  0  0  0  0  0  0
    6.7236   -1.8208   24.4502 H   0  0  0  0  0  0  0  0  0  0  0  0
    8.3406   -2.4115   21.9326 H   0  0  0  0  0  0  0  0  0  0  0  0
    6.2108   -2.4136   21.0527 H   0  0  0  0  0  0  0  0  0  0  0  0
    5.5840   -1.2544   22.2309 H   0  0  0  0  0  0  0  0  0  0  0  0
    9.9218   -0.4301   22.4873 C   0  0  0  0  0  0  0  0  0  0  0  0
   10.5522   -1.3932   21.6945 C   0  0  0  0  0  0  0  0  0  0  0  0
   11.9091   -1.3312   21.4822 C   0  0  0  0  0  0  0  0  0  0  0  0
   12.4422   -2.1995   20.6064 F   0  0  0  0  0  0  0  0  0  0  0  0
   12.7228   -0.3971   22.1148 C   0  0  0  0  0  0  0  0  0  0  0  0
   12.1046    0.5232   22.9361 C   0  0  0  0  0  0  0  0  0  0  0  0
   10.7203    0.5590   23.0712 C   0  0  0  0  0  0  0  0  0  0  0  0
   10.1229    1.7298   23.7840 C   0  0  0  0  0  0  0  0  0  0  0  0
   10.8058    2.6710   24.1731 O   0  0  0  0  0  0  0  0  0  0  0  0
   12.6875    1.2641   23.4635 H   0  0  0  0  0  0  0  0  0  0  0  0
   13.7915   -0.3918   21.9349 H   0  0  0  0  0  0  0  0  0  0  0  0
   10.0281   -2.1998   21.2003 H   0  0  0  0  0  0  0  0  0  0  0  0
    8.2319   -0.1799   24.7267 H   0  0  0  0  0  0  0  0  0  0  0  0
    6.9535    0.6529   23.8036 H   0  0  0  0  0  0  0  0  0  0  0  0
    7.2032    2.6361   24.9581 H   0  0  0  0  0  0  0  0  0  0  0  0
    8.8255    3.2764   25.2564 H   0  0  0  0  0  0  0  0  0  0  0  0
    8.9094    4.0946   22.8823 H   0  0  0  0  0  0  0  0  0  0  0  0
    7.6613    4.8996   23.8428 H   0  0  0  0  0  0  0  0  0  0  0  0
    6.0695    3.2356   22.9232 H   0  0  0  0  0  0  0  0  0  0  0  0
    7.2900    2.6483   21.9268 H   0  0  0  0  0  0  0  0  0  0  0  0
    5.6668    4.1432   20.8720 H   0  0  0  0  0  0  0  0  0  0  0  0
    7.3672    4.6344   20.6911 H   0  0  0  0  0  0  0  0  0  0  0  0
    6.3408    5.4570   21.8686 H   0  0  0  0  0  0  0  0  0  0  0  0
  1  2  1  0
  2  3  1  0
  3  4  1  0
  4  5  1  0
  5  6  1  0
  7  6  1  1
  7  8  1  0
  8  9  2  0
  8 10  1  0
 10 11  1  0
 11 12  2  0
 12 13  1  0
 13 14  2  0
 14 15  1  0
 15 16  2  0
 16 17  1  0
 17 18  2  0
 18 19  1  0
 19 20  2  0
 19 21  1  0
 18 22  1  0
 17 23  1  0
 16 24  1  0
 14 25  1  0
 12 26  1  0
 10 27  1  0
 27 28  1  0
 28 29  1  0
 29 30  1  0
 29 31  1  0
 29 32  1  0
 28 33  1  6
 27 34  1  0
 27 35  1  0
  7 36  1  0
 36 37  2  0
 37 38  1  0
 38 39  1  0
 38 40  2  0
 40 41  1  0
 41 42  2  0
 42 43  1  0
 43 44  2  0
 41 45  1  0
 40 46  1  0
 37 47  1  0
  6 48  1  0
  6 49  1  0
  4 50  1  0
  4 51  1  0
  3 52  1  0
  3 53  1  0
  2 54  1  0
  2 55  1  0
  1 56  1  0
  1 57  1  0
  1 58  1  0
 43  5  1  0
 28  7  1  0
 42 36  1  0
 20 11  1  0
 20 15  1  0
M  CHG  1   2   1
M  END
>  <cnnaffinities>  (93) 
[6.46746]

>  <score>  (93) 
6.46746

>  <index>  (93) 
93

>  <Smiles>  (93) 
C([N+](C(C(N1C([C@@]2(C(=O)N(c3c(nc(c4c(c(c(c(c34)[H])[H])[H])[H])[H])[H])C([C@@]2(C([H])([H])[H])[H])([H])[H])c2c(c(F)c(c(c2C1=O)[H])[H])[H])([H])[H])([H])[H])([H])[H])([H])[H])([H])([H])[H]

>  <h>  (93) 
<NA>

>  <Training>  (93) 
True

>  <Success>  (93) 
True

>  <enamine_searched>  (93) 
False

>  <enamine_id>  (93) 
nan

$$$$

     RDKit          3D

 65 69  0  0  0  0  0  0  0  0999 V2000
   13.8229   -0.9132   24.6179 C   0  0  0  0  0  0  0  0  0  0  0  0
   13.1732   -2.2703   24.3285 C   0  0  0  0  0  0  0  0  0  0  0  0
   11.8307   -2.0745   23.6628 C   0  0  0  0  0  0  0  0  0  0  0  0
   11.6602   -1.7189   22.5287 O   0  0  0  0  0  0  0  0  0  0  0  0
   10.6515   -2.4035   24.5677 N   0  0  2  0  0  4  0  0  0  0  0  0
   10.3008   -3.9353   24.5514 C   0  0  0  0  0  0  0  0  0  0  0  0
    9.5521   -4.2380   23.2736 C   0  0  0  0  0  0  0  0  0  0  0  0
    8.2361   -3.4862   23.2289 C   0  0  0  0  0  0  0  0  0  0  0  0
    8.2928   -2.0581   23.7120 C   0  0  0  0  0  0  0  0  0  0  0  0
    7.1392   -1.2714   23.6326 C   0  0  0  0  0  0  0  0  0  0  0  0
    6.0206   -1.8032   22.9013 N   0  0  0  0  0  0  0  0  0  0  0  0
    4.9601   -2.4710   23.6720 C   0  0  0  0  0  0  0  0  0  0  0  0
    4.6975   -3.9684   23.4417 C   0  0  0  0  0  0  0  0  0  0  0  0
    3.7753   -4.3705   22.4740 C   0  0  0  0  0  0  0  0  0  0  0  0
    3.2774   -5.6715   22.4314 C   0  0  0  0  0  0  0  0  0  0  0  0
    3.7727   -6.6426   23.2865 C   0  0  0  0  0  0  0  0  0  0  0  0
    4.7380   -6.2683   24.2052 C   0  0  0  0  0  0  0  0  0  0  0  0
    5.2794   -7.4585   25.3474 Cl  0  0  0  0  0  0  0  0  0  0  0  0
    5.2275   -4.9646   24.2688 C   0  0  0  0  0  0  0  0  0  0  0  0
    6.0394   -4.7509   24.9557 H   0  0  0  0  0  0  0  0  0  0  0  0
    3.4285   -7.6738   23.2489 H   0  0  0  0  0  0  0  0  0  0  0  0
    2.4607   -5.9217   21.7579 H   0  0  0  0  0  0  0  0  0  0  0  0
    3.4161   -3.6382   21.7645 H   0  0  0  0  0  0  0  0  0  0  0  0
    5.2216   -2.3375   24.7270 H   0  0  0  0  0  0  0  0  0  0  0  0
    4.0136   -1.9365   23.4951 H   0  0  0  0  0  0  0  0  0  0  0  0
    5.8210   -1.5517   21.5601 C   0  0  0  0  0  0  0  0  0  0  0  0
    4.8988   -2.0490   20.9392 O   0  0  0  0  0  0  0  0  0  0  0  0
    6.7910   -0.5791   20.8675 C   0  0  0  0  0  0  0  0  0  0  0  0
    6.1179    0.0718   19.6990 C   0  0  0  0  0  0  0  0  0  0  0  0
    6.4863   -0.1832   18.4056 C   0  0  0  0  0  0  0  0  0  0  0  0
    5.8404    0.2828   17.3023 N   0  0  0  0  0  0  0  0  0  0  0  0
    4.7889    1.0400   17.5117 C   0  0  0  0  0  0  0  0  0  0  0  0
    4.3121    1.4130   18.7991 C   0  0  0  0  0  0  0  0  0  0  0  0
    3.1855    2.2567   18.9776 C   0  0  0  0  0  0  0  0  0  0  0  0
    2.7695    2.6129   20.2333 C   0  0  0  0  0  0  0  0  0  0  0  0
    3.4700    2.1497   21.3681 C   0  0  0  0  0  0  0  0  0  0  0  0
    4.5640    1.3356   21.2217 C   0  0  0  0  0  0  0  0  0  0  0  0
    5.0052    0.9299   19.9299 C   0  0  0  0  0  0  0  0  0  0  0  0
    5.1045    1.0141   22.1080 H   0  0  0  0  0  0  0  0  0  0  0  0
    3.1438    2.4488   22.3606 H   0  0  0  0  0  0  0  0  0  0  0  0
    1.9052    3.2578   20.3648 H   0  0  0  0  0  0  0  0  0  0  0  0
    2.6689    2.6258   18.0955 H   0  0  0  0  0  0  0  0  0  0  0  0
    4.2602    1.4057   16.6304 H   0  0  0  0  0  0  0  0  0  0  0  0
    7.3537   -0.8105   18.1968 H   0  0  0  0  0  0  0  0  0  0  0  0
    7.6767   -1.1377   20.5445 H   0  0  0  0  0  0  0  0  0  0  0  0
    7.1310    0.1719   21.5863 H   0  0  0  0  0  0  0  0  0  0  0  0
    7.0818   -0.0382   24.2740 C   0  0  0  0  0  0  0  0  0  0  0  0
    8.2075    0.4606   24.9334 C   0  0  0  0  0  0  0  0  0  0  0  0
    9.3807   -0.2834   24.9620 C   0  0  0  0  0  0  0  0  0  0  0  0
    9.4035   -1.5472   24.3751 C   0  0  0  0  0  0  0  0  0  0  0  0
   10.2766    0.0865   25.4589 H   0  0  0  0  0  0  0  0  0  0  0  0
    8.1625    1.4112   25.4524 H   0  0  0  0  0  0  0  0  0  0  0  0
    6.1644    0.5467   24.2398 H   0  0  0  0  0  0  0  0  0  0  0  0
    7.5461   -4.0069   23.8965 H   0  0  0  0  0  0  0  0  0  0  0  0
    7.7992   -3.5342   22.2298 H   0  0  0  0  0  0  0  0  0  0  0  0
    9.2969   -5.2972   23.2670 H   0  0  0  0  0  0  0  0  0  0  0  0
   10.1805   -3.9882   22.4116 H   0  0  0  0  0  0  0  0  0  0  0  0
   11.2177   -4.5265   24.6436 H   0  0  0  0  0  0  0  0  0  0  0  0
    9.6660   -4.1357   25.4178 H   0  0  0  0  0  0  0  0  0  0  0  0
   11.0047   -2.2005   25.5243 H   0  0  0  0  0  0  0  0  0  0  0  0
   13.7999   -2.8803   23.6712 H   0  0  0  0  0  0  0  0  0  0  0  0
   13.0549   -2.8324   25.2618 H   0  0  0  0  0  0  0  0  0  0  0  0
   13.9670   -0.3367   23.6989 H   0  0  0  0  0  0  0  0  0  0  0  0
   14.7907   -1.0762   25.0924 H   0  0  0  0  0  0  0  0  0  0  0  0
   13.1941   -0.3240   25.2970 H   0  0  0  0  0  0  0  0  0  0  0  0
  1  2  1  0
  2  3  1  0
  3  4  2  0
  3  5  1  0
  5  6  1  0
  6  7  1  0
  7  8  1  0
  8  9  1  0
  9 10  2  0
 10 11  1  0
 11 12  1  0
 12 13  1  0
 13 14  2  0
 14 15  1  0
 15 16  2  0
 16 17  1  0
 17 18  1  0
 17 19  2  0
 19 20  1  0
 16 21  1  0
 15 22  1  0
 14 23  1  0
 12 24  1  0
 12 25  1  0
 11 26  1  0
 26 27  2  0
 26 28  1  0
 28 29  1  0
 29 30  2  0
 30 31  1  0
 31 32  2  0
 32 33  1  0
 33 34  2  0
 34 35  1  0
 35 36  2  0
 36 37  1  0
 37 38  2  0
 37 39  1  0
 36 40  1  0
 35 41  1  0
 34 42  1  0
 32 43  1  0
 30 44  1  0
 28 45  1  0
 28 46  1  0
 10 47  1  0
 47 48  2  0
 48 49  1  0
 49 50  2  0
 49 51  1  0
 48 52  1  0
 47 53  1  0
  8 54  1  0
  8 55  1  0
  7 56  1  0
  7 57  1  0
  6 58  1  0
  6 59  1  0
  5 60  1  1
  2 61  1  0
  2 62  1  0
  1 63  1  0
  1 64  1  0
  1 65  1  0
 50  5  1  0
 50  9  1  0
 19 13  1  0
 38 29  1  0
 38 33  1  0
M  CHG  1   5   1
M  END
>  <cnnaffinities>  (94) 
[6.9567, 7.07995]

>  <score>  (94) 
6.9567

>  <index>  (94) 
94

>  <Smiles>  (94) 
C(C(C(=O)[N@@+]1(C(C(C(c2c(N(C(c3c(c(c(c(Cl)c3[H])[H])[H])[H])([H])[H])C(=O)C(c3c(nc(c4c(c(c(c(c34)[H])[H])[H])[H])[H])[H])([H])[H])c(c(c(c12)[H])[H])[H])([H])[H])([H])[H])([H])[H])[H])([H])[H])([H])([H])[H]

>  <h>  (94) 
<NA>

>  <Training>  (94) 
True

>  <Success>  (94) 
True

>  <enamine_searched>  (94) 
False

>  <enamine_id>  (94) 
nan

$$$$

     RDKit          3D

 67 71  0  0  0  0  0  0  0  0999 V2000
    4.9580   -3.0723   18.7091 C   0  0  0  0  0  0  0  0  0  0  0  0
    5.4828   -3.6562   19.9253 N   0  0  0  0  0  0  0  0  0  0  0  0
    5.9170   -4.9307   20.0261 C   0  0  0  0  0  0  0  0  0  0  0  0
    5.6895   -5.7945   19.1931 O   0  0  0  0  0  0  0  0  0  0  0  0
    6.7936   -5.2663   21.2389 C   0  0  0  0  0  0  0  0  0  0  0  0
    6.8746   -4.2503   22.2763 N   0  0  0  0  0  0  0  0  0  0  0  0
    7.7980   -3.1286   22.1149 C   0  0  0  0  0  0  0  0  0  0  0  0
    7.2858   -1.8346   22.8067 C   0  0  2  0  0  0  0  0  0  0  0  0
    6.2202   -1.1836   21.8946 C   0  0  0  0  0  0  0  0  0  0  0  0
    5.0424   -1.4960   21.8221 O   0  0  0  0  0  0  0  0  0  0  0  0
    6.8337   -0.2573   21.0722 N   0  0  0  0  0  0  0  0  0  0  0  0
    6.2101    0.3114   19.9434 C   0  0  0  0  0  0  0  0  0  0  0  0
    6.7572    0.1570   18.6914 C   0  0  0  0  0  0  0  0  0  0  0  0
    6.1425    0.5334   17.5461 N   0  0  0  0  0  0  0  0  0  0  0  0
    4.9823    1.1425   17.6475 C   0  0  0  0  0  0  0  0  0  0  0  0
    4.3663    1.4659   18.8877 C   0  0  0  0  0  0  0  0  0  0  0  0
    3.1533    2.2035   18.9473 C   0  0  0  0  0  0  0  0  0  0  0  0
    2.6133    2.5560   20.1528 C   0  0  0  0  0  0  0  0  0  0  0  0
    3.2505    2.1754   21.3532 C   0  0  0  0  0  0  0  0  0  0  0  0
    4.4106    1.4423   21.3253 C   0  0  0  0  0  0  0  0  0  0  0  0
    4.9952    1.0610   20.0838 C   0  0  0  0  0  0  0  0  0  0  0  0
    4.8810    1.1445   22.2552 H   0  0  0  0  0  0  0  0  0  0  0  0
    2.8275    2.4696   22.3082 H   0  0  0  0  0  0  0  0  0  0  0  0
    1.7032    3.1483   20.1999 H   0  0  0  0  0  0  0  0  0  0  0  0
    2.6775    2.4994   18.0157 H   0  0  0  0  0  0  0  0  0  0  0  0
    4.4854    1.4318   16.7205 H   0  0  0  0  0  0  0  0  0  0  0  0
    7.7188   -0.3402   18.5526 H   0  0  0  0  0  0  0  0  0  0  0  0
    8.2760   -0.2659   21.2694 C   0  0  0  0  0  0  0  0  0  0  0  0
    8.3542   -0.7010   22.7386 C   0  0  2  0  0  0  0  0  0  0  0  0
    9.7569   -0.9992   23.2542 C   0  0  0  0  0  0  0  0  0  0  0  0
   10.5168    0.5641   23.7350 S   0  0  0  0  0  0  0  0  0  0  0  0
   10.1447    0.8299   25.1211 O   0  0  0  0  0  0  0  0  0  0  0  0
   10.2059    1.5418   22.6998 O   0  0  0  0  0  0  0  0  0  0  0  0
   12.1546    0.2462   23.6196 N   0  0  0  0  0  0  0  0  0  0  0  0
   12.7504   -0.4252   24.7658 C   0  0  0  0  0  0  0  0  0  0  0  0
   12.4518   -1.4768   24.7928 H   0  0  0  0  0  0  0  0  0  0  0  0
   12.4777    0.0590   25.7082 H   0  0  0  0  0  0  0  0  0  0  0  0
   13.8362   -0.4014   24.6455 H   0  0  0  0  0  0  0  0  0  0  0  0
   12.9363    1.3482   23.0537 C   0  0  0  0  0  0  0  0  0  0  0  0
   12.8956    2.2596   23.6613 H   0  0  0  0  0  0  0  0  0  0  0  0
   13.9784    1.0341   22.9620 H   0  0  0  0  0  0  0  0  0  0  0  0
   12.5454    1.5596   22.0617 H   0  0  0  0  0  0  0  0  0  0  0  0
   10.3715   -1.4650   22.4737 H   0  0  0  0  0  0  0  0  0  0  0  0
    9.7391   -1.6650   24.1274 H   0  0  0  0  0  0  0  0  0  0  0  0
    7.9596    0.1315   23.3263 H   0  0  0  0  0  0  0  0  0  0  0  0
    8.7134    0.7034   21.0592 H   0  0  0  0  0  0  0  0  0  0  0  0
    8.7709   -1.0096   20.6223 H   0  0  0  0  0  0  0  0  0  0  0  0
    6.7692   -2.1880   24.1872 C   0  0  0  0  0  0  0  0  0  0  0  0
    6.4959   -1.1857   25.1320 C   0  0  0  0  0  0  0  0  0  0  0  0
    6.0880   -1.5379   26.4072 C   0  0  0  0  0  0  0  0  0  0  0  0
    5.8499   -0.5643   27.3023 F   0  0  0  0  0  0  0  0  0  0  0  0
    5.9180   -2.8561   26.8125 C   0  0  0  0  0  0  0  0  0  0  0  0
    6.1206   -3.8414   25.8638 C   0  0  0  0  0  0  0  0  0  0  0  0
    6.5056   -3.5181   24.5581 C   0  0  0  0  0  0  0  0  0  0  0  0
    6.5449   -4.6372   23.5570 C   0  0  0  0  0  0  0  0  0  0  0  0
    6.2562   -5.7879   23.8491 O   0  0  0  0  0  0  0  0  0  0  0  0
    5.9608   -4.8892   26.0974 H   0  0  0  0  0  0  0  0  0  0  0  0
    5.6126   -3.0738   27.8348 H   0  0  0  0  0  0  0  0  0  0  0  0
    6.5866   -0.1352   24.8830 H   0  0  0  0  0  0  0  0  0  0  0  0
    8.7915   -3.3902   22.5111 H   0  0  0  0  0  0  0  0  0  0  0  0
    7.9122   -2.9376   21.0516 H   0  0  0  0  0  0  0  0  0  0  0  0
    7.7980   -5.5381   20.8814 H   0  0  0  0  0  0  0  0  0  0  0  0
    6.3895   -6.1687   21.7032 H   0  0  0  0  0  0  0  0  0  0  0  0
    5.3719   -3.1156   20.7772 H   0  0  0  0  0  0  0  0  0  0  0  0
    5.4355   -3.5172   17.8318 H   0  0  0  0  0  0  0  0  0  0  0  0
    3.8776   -3.1831   18.6261 H   0  0  0  0  0  0  0  0  0  0  0  0
    5.1661   -1.9994   18.7247 H   0  0  0  0  0  0  0  0  0  0  0  0
  1  2  1  0
  2  3  1  0
  3  4  2  0
  3  5  1  0
  5  6  1  0
  6  7  1  0
  8  7  1  6
  8  9  1  0
  9 10  2  0
  9 11  1  0
 11 12  1  0
 12 13  2  0
 13 14  1  0
 14 15  2  0
 15 16  1  0
 16 17  2  0
 17 18  1  0
 18 19  2  0
 19 20  1  0
 20 21  2  0
 20 22  1  0
 19 23  1  0
 18 24  1  0
 17 25  1  0
 15 26  1  0
 13 27  1  0
 11 28  1  0
 28 29  1  0
 29 30  1  0
 30 31  1  0
 31 32  2  0
 31 33  2  0
 31 34  1  0
 34 35  1  0
 35 36  1  0
 35 37  1  0
 35 38  1  0
 34 39  1  0
 39 40  1  0
 39 41  1  0
 39 42  1  0
 30 43  1  0
 30 44  1  0
 29 45  1  1
 28 46  1  0
 28 47  1  0
  8 48  1  0
 48 49  2  0
 49 50  1  0
 50 51  1  0
 50 52  2  0
 52 53  1  0
 53 54  2  0
 54 55  1  0
 55 56  2  0
 53 57  1  0
 52 58  1  0
 49 59  1  0
  7 60  1  0
  7 61  1  0
  5 62  1  0
  5 63  1  0
  2 64  1  0
  1 65  1  0
  1 66  1  0
  1 67  1  0
 55  6  1  0
 29  8  1  0
 54 48  1  0
 21 12  1  0
 21 16  1  0
M  END
>  <cnnaffinities>  (95) 
[7.04379]

>  <score>  (95) 
7.04379

>  <index>  (95) 
95

>  <Smiles>  (95) 
C(N(C(=O)C(N1C([C@@]2(C(=O)N(c3c(nc(c4c(c(c(c(c34)[H])[H])[H])[H])[H])[H])C([C@@]2(C(S(=O)(=O)N(C([H])([H])[H])C([H])([H])[H])([H])[H])[H])([H])[H])c2c(c(F)c(c(c2C1=O)[H])[H])[H])([H])[H])([H])[H])[H])([H])([H])[H]

>  <h>  (95) 
<NA>

>  <Training>  (95) 
True

>  <Success>  (95) 
True

>  <enamine_searched>  (95) 
False

>  <enamine_id>  (95) 
nan

$$$$

     RDKit          3D

 37 39  0  0  0  0  0  0  0  0999 V2000
    5.9332   -2.6914   20.8286 O   0  0  0  0  0  0  0  0  0  0  0  0
    6.1767   -1.7097   21.5140 C   0  0  0  0  0  0  0  0  0  0  0  0
    6.9069   -0.4993   20.9074 C   0  0  0  0  0  0  0  0  0  0  0  0
    6.1143    0.0949   19.7620 C   0  0  0  0  0  0  0  0  0  0  0  0
    6.4211   -0.2121   18.4599 C   0  0  0  0  0  0  0  0  0  0  0  0
    5.7584    0.2392   17.3624 N   0  0  0  0  0  0  0  0  0  0  0  0
    4.7338    1.0309   17.5736 C   0  0  0  0  0  0  0  0  0  0  0  0
    4.2855    1.4253   18.8670 C   0  0  0  0  0  0  0  0  0  0  0  0
    3.1606    2.2755   19.0400 C   0  0  0  0  0  0  0  0  0  0  0  0
    2.7472    2.6250   20.2985 C   0  0  0  0  0  0  0  0  0  0  0  0
    3.4373    2.1423   21.4287 C   0  0  0  0  0  0  0  0  0  0  0  0
    4.5309    1.3226   21.2861 C   0  0  0  0  0  0  0  0  0  0  0  0
    4.9869    0.9424   19.9928 C   0  0  0  0  0  0  0  0  0  0  0  0
    5.0468    0.9650   22.1702 H   0  0  0  0  0  0  0  0  0  0  0  0
    3.1014    2.4297   22.4219 H   0  0  0  0  0  0  0  0  0  0  0  0
    1.8876    3.2767   20.4337 H   0  0  0  0  0  0  0  0  0  0  0  0
    2.6358    2.6433   18.1623 H   0  0  0  0  0  0  0  0  0  0  0  0
    4.1962    1.4003   16.7004 H   0  0  0  0  0  0  0  0  0  0  0  0
    7.2668   -0.8692   18.2492 H   0  0  0  0  0  0  0  0  0  0  0  0
    7.8657   -0.8638   20.5161 H   0  0  0  0  0  0  0  0  0  0  0  0
    7.1438    0.2571   21.6636 H   0  0  0  0  0  0  0  0  0  0  0  0
    5.7578   -1.6353   22.8068 N   0  0  0  0  0  0  0  0  0  0  0  0
    4.9170   -2.6757   23.3940 C   0  0  0  0  0  0  0  0  0  0  0  0
    4.4662   -2.3085   24.7940 C   0  0  0  0  0  0  0  0  0  0  0  0
    3.3741   -1.4608   24.9849 C   0  0  0  0  0  0  0  0  0  0  0  0
    2.9839   -1.0882   26.2677 C   0  0  0  0  0  0  0  0  0  0  0  0
    3.6713   -1.5572   27.3811 C   0  0  0  0  0  0  0  0  0  0  0  0
    4.7569   -2.4021   27.1889 C   0  0  0  0  0  0  0  0  0  0  0  0
    5.6352   -2.9920   28.5741 Cl  0  0  0  0  0  0  0  0  0  0  0  0
    5.1563   -2.7829   25.9107 C   0  0  0  0  0  0  0  0  0  0  0  0
    6.0163   -3.4394   25.7918 H   0  0  0  0  0  0  0  0  0  0  0  0
    3.3695   -1.2671   28.3835 H   0  0  0  0  0  0  0  0  0  0  0  0
    2.1381   -0.4200   26.4042 H   0  0  0  0  0  0  0  0  0  0  0  0
    2.8346   -1.0746   24.1221 H   0  0  0  0  0  0  0  0  0  0  0  0
    5.4502   -3.6308   23.4056 H   0  0  0  0  0  0  0  0  0  0  0  0
    4.0432   -2.8170   22.7520 H   0  0  0  0  0  0  0  0  0  0  0  0
    6.0413   -0.8764   23.4070 H   0  0  0  0  0  0  0  0  0  0  0  0
  1  2  2  0
  2  3  1  0
  3  4  1  0
  4  5  2  0
  5  6  1  0
  6  7  2  0
  7  8  1  0
  8  9  2  0
  9 10  1  0
 10 11  2  0
 11 12  1  0
 12 13  2  0
 12 14  1  0
 11 15  1  0
 10 16  1  0
  9 17  1  0
  7 18  1  0
  5 19  1  0
  3 20  1  0
  3 21  1  0
  2 22  1  0
 22 23  1  0
 23 24  1  0
 24 25  2  0
 25 26  1  0
 26 27  2  0
 27 28  1  0
 28 29  1  0
 28 30  2  0
 30 31  1  0
 27 32  1  0
 26 33  1  0
 25 34  1  0
 23 35  1  0
 23 36  1  0
 22 37  1  0
 13  4  1  0
 30 24  1  0
 13  8  1  0
M  END
>  <cnnaffinities>  (96) 
[4.79431]

>  <score>  (96) 
4.79431

>  <index>  (96) 
96

>  <Smiles>  (96) 
O=C(C(c1c(nc(c2c(c(c(c(c12)[H])[H])[H])[H])[H])[H])([H])[H])N(C(c1c(c(c(c(Cl)c1[H])[H])[H])[H])([H])[H])[H]

>  <h>  (96) 
<NA>

>  <Training>  (96) 
True

>  <Success>  (96) 
True

>  <enamine_searched>  (96) 
False

>  <enamine_id>  (96) 
nan

$$$$
