
     RDKit          3D

 58 63  0  0  0  0  0  0  0  0999 V2000
    7.2409   -2.4416   23.6015 C   0  0  0  0  0  0  0  0  0  0  0  0
    8.0761   -1.8878   22.4386 C   0  0  1  0  0  0  0  0  0  0  0  0
    7.3052   -1.8370   21.1141 C   0  0  0  0  0  0  0  0  0  0  0  0
    6.9024   -0.4527   20.9835 N   0  0  0  0  0  0  0  0  0  0  0  0
    6.0181   -0.0728   19.9439 C   0  0  0  0  0  0  0  0  0  0  0  0
    6.2875   -0.4240   18.6455 C   0  0  0  0  0  0  0  0  0  0  0  0
    5.4171   -0.3137   17.6136 N   0  0  0  0  0  0  0  0  0  0  0  0
    4.2311    0.1794   17.8886 C   0  0  0  0  0  0  0  0  0  0  0  0
    3.8376    0.6350   19.1815 C   0  0  0  0  0  0  0  0  0  0  0  0
    2.5954    1.2918   19.4022 C   0  0  0  0  0  0  0  0  0  0  0  0
    2.3146    1.8733   20.6054 C   0  0  0  0  0  0  0  0  0  0  0  0
    3.2655    1.8379   21.6517 C   0  0  0  0  0  0  0  0  0  0  0  0
    4.4628    1.1899   21.4771 C   0  0  0  0  0  0  0  0  0  0  0  0
    4.7760    0.5718   20.2360 C   0  0  0  0  0  0  0  0  0  0  0  0
    5.1955    1.1632   22.2773 H   0  0  0  0  0  0  0  0  0  0  0  0
    3.0614    2.3346   22.5970 H   0  0  0  0  0  0  0  0  0  0  0  0
    1.3779    2.4016   20.7428 H   0  0  0  0  0  0  0  0  0  0  0  0
    1.9231    1.4030   18.5594 H   0  0  0  0  0  0  0  0  0  0  0  0
    3.5241    0.2519   17.0616 H   0  0  0  0  0  0  0  0  0  0  0  0
    7.2643   -0.8336   18.3916 H   0  0  0  0  0  0  0  0  0  0  0  0
    7.7885    0.3967   21.6186 C   0  0  0  0  0  0  0  0  0  0  0  0
    7.8377    1.5973   21.4557 O   0  0  0  0  0  0  0  0  0  0  0  0
    8.6694   -0.4527   22.5777 C   0  0  1  0  0  0  0  0  0  0  0  0
    8.5891    0.0869   24.0185 C   0  0  0  0  0  0  0  0  0  0  0  0
    9.2009    1.3957   24.1557 N   0  0  0  0  0  0  0  0  0  0  0  0
    8.6441    2.2977   25.1589 C   0  0  0  0  0  0  0  0  0  0  0  0
    7.2240    2.6725   24.8446 C   0  0  0  0  0  0  0  0  0  0  0  0
    6.7052    3.5217   23.8591 C   0  0  0  0  0  0  0  0  0  0  0  0
    5.3711    3.4782   23.9179 N   0  0  0  0  0  0  0  0  0  0  0  0
    5.1305    2.6371   24.9018 N   0  0  0  0  0  0  0  0  0  0  0  0
    3.7896    2.2578   25.2862 C   0  0  0  0  0  0  0  0  0  0  0  0
    3.7708    2.1133   26.3676 H   0  0  0  0  0  0  0  0  0  0  0  0
    3.1201    3.0690   24.9957 H   0  0  0  0  0  0  0  0  0  0  0  0
    3.4911    1.3280   24.7885 H   0  0  0  0  0  0  0  0  0  0  0  0
    6.1943    2.1224   25.4898 N   0  0  0  0  0  0  0  0  0  0  0  0
    7.2095    4.1298   23.1204 H   0  0  0  0  0  0  0  0  0  0  0  0
    9.3049    3.1696   25.1877 H   0  0  0  0  0  0  0  0  0  0  0  0
    8.6562    1.8236   26.1525 H   0  0  0  0  0  0  0  0  0  0  0  0
   10.4319    1.6644   23.6207 C   0  0  0  0  0  0  0  0  0  0  0  0
   11.0653    2.6723   23.9012 O   0  0  0  0  0  0  0  0  0  0  0  0
   10.9594    0.6213   22.6861 C   0  0  0  0  0  0  0  0  0  0  0  0
   12.3058    0.7137   22.3461 C   0  0  0  0  0  0  0  0  0  0  0  0
   12.8818   -0.2257   21.5158 C   0  0  0  0  0  0  0  0  0  0  0  0
   12.0705   -1.2542   21.0388 C   0  0  0  0  0  0  0  0  0  0  0  0
   12.5770   -2.1166   20.1362 F   0  0  0  0  0  0  0  0  0  0  0  0
   10.7417   -1.3737   21.3755 C   0  0  0  0  0  0  0  0  0  0  0  0
   10.1480   -0.4067   22.2011 C   0  0  0  0  0  0  0  0  0  0  0  0
   10.2127   -2.2303   20.9765 H   0  0  0  0  0  0  0  0  0  0  0  0
   13.9238   -0.1533   21.2276 H   0  0  0  0  0  0  0  0  0  0  0  0
   12.8610    1.5500   22.7492 H   0  0  0  0  0  0  0  0  0  0  0  0
    7.5495    0.1664   24.3382 H   0  0  0  0  0  0  0  0  0  0  0  0
    9.1143   -0.6380   24.6584 H   0  0  0  0  0  0  0  0  0  0  0  0
    6.4260   -2.4857   21.0913 H   0  0  0  0  0  0  0  0  0  0  0  0
    7.9689   -2.1143   20.2866 H   0  0  0  0  0  0  0  0  0  0  0  0
    8.9053   -2.5906   22.3523 H   0  0  0  0  0  0  0  0  0  0  0  0
    7.8491   -2.5214   24.5097 H   0  0  0  0  0  0  0  0  0  0  0  0
    6.3580   -1.8345   23.8323 H   0  0  0  0  0  0  0  0  0  0  0  0
    6.9067   -3.4567   23.3521 H   0  0  0  0  0  0  0  0  0  0  0  0
  1  2  1  0
  2  3  1  0
  3  4  1  0
  4  5  1  0
  5  6  2  0
  6  7  1  0
  7  8  2  0
  8  9  1  0
  9 10  2  0
 10 11  1  0
 11 12  2  0
 12 13  1  0
 13 14  2  0
 13 15  1  0
 12 16  1  0
 11 17  1  0
 10 18  1  0
  8 19  1  0
  6 20  1  0
  4 21  1  0
 21 22  2  0
 21 23  1  0
 23 24  1  1
 24 25  1  0
 25 26  1  0
 26 27  1  0
 27 28  1  0
 28 29  2  0
 29 30  1  0
 30 31  1  0
 31 32  1  0
 31 33  1  0
 31 34  1  0
 30 35  1  0
 28 36  1  0
 26 37  1  0
 26 38  1  0
 25 39  1  0
 39 40  2  0
 39 41  1  0
 41 42  2  0
 42 43  1  0
 43 44  2  0
 44 45  1  0
 44 46  1  0
 46 47  2  0
 46 48  1  0
 43 49  1  0
 42 50  1  0
 24 51  1  0
 24 52  1  0
  3 53  1  0
  3 54  1  0
  2 55  1  6
  1 56  1  0
  1 57  1  0
  1 58  1  0
 23  2  1  0
 35 27  2  0
 47 41  1  0
 14  5  1  0
 47 23  1  0
 14  9  1  0
M  END
>  <cnnaffinities>  (1) 
[6.23542]

>  <score>  (1) 
6.23542

>  <index>  (1) 
34

>  <Smiles>  (1) 
C([C@]1(C(N(c2c(nc(c3c(c(c(c(c23)[H])[H])[H])[H])[H])[H])C(=O)[C@]21C(N(C(c1c(nn(C([H])([H])[H])n1)[H])([H])[H])C(=O)c1c(c(c(F)c(c21)[H])[H])[H])([H])[H])([H])[H])[H])([H])([H])[H]

>  <h>  (1) 
<NA>

>  <Training>  (1) 
True

>  <Success>  (1) 
True

>  <enamine_searched>  (1) 
False

>  <enamine_id>  (1) 
nan

$$$$

     RDKit          3D

 72 77  0  0  0  0  0  0  0  0999 V2000
    5.9886    4.3945   23.1897 C   0  0  0  0  0  0  0  0  0  0  0  0
    6.6522    3.2488   23.8212 N   0  0  0  0  0  4  0  0  0  0  0  0
    7.9294    3.6124   24.4769 C   0  0  0  0  0  0  0  0  0  0  0  0
    8.5532    2.4271   25.2099 C   0  0  0  0  0  0  0  0  0  0  0  0
    9.0851    1.4227   24.2974 N   0  0  0  0  0  0  0  0  0  0  0  0
    8.4424    0.1257   24.1614 C   0  0  0  0  0  0  0  0  0  0  0  0
    8.4993   -0.4148   22.7113 C   0  0  2  0  0  0  0  0  0  0  0  0
    7.5913    0.4159   21.7749 C   0  0  0  0  0  0  0  0  0  0  0  0
    7.4407    1.6304   21.8214 O   0  0  0  0  0  0  0  0  0  0  0  0
    6.9242   -0.4339   20.9313 N   0  0  0  0  0  0  0  0  0  0  0  0
    6.0048   -0.0772   19.9114 C   0  0  0  0  0  0  0  0  0  0  0  0
    6.2670   -0.4306   18.6096 C   0  0  0  0  0  0  0  0  0  0  0  0
    5.3960   -0.3199   17.5806 N   0  0  0  0  0  0  0  0  0  0  0  0
    4.2117    0.1732   17.8558 C   0  0  0  0  0  0  0  0  0  0  0  0
    3.8212    0.6195   19.1499 C   0  0  0  0  0  0  0  0  0  0  0  0
    2.5769    1.2746   19.3627 C   0  0  0  0  0  0  0  0  0  0  0  0
    2.2977    1.8849   20.5526 C   0  0  0  0  0  0  0  0  0  0  0  0
    3.2309    1.8341   21.6087 C   0  0  0  0  0  0  0  0  0  0  0  0
    4.4066    1.1441   21.4557 C   0  0  0  0  0  0  0  0  0  0  0  0
    4.7570    0.5617   20.2028 C   0  0  0  0  0  0  0  0  0  0  0  0
    5.0904    1.0537   22.2862 H   0  0  0  0  0  0  0  0  0  0  0  0
    3.0260    2.3552   22.5411 H   0  0  0  0  0  0  0  0  0  0  0  0
    1.3709    2.4334   20.6808 H   0  0  0  0  0  0  0  0  0  0  0  0
    1.8992    1.3767   18.5284 H   0  0  0  0  0  0  0  0  0  0  0  0
    3.4992    0.2458   17.0362 H   0  0  0  0  0  0  0  0  0  0  0  0
    7.2461   -0.8228   18.3478 H   0  0  0  0  0  0  0  0  0  0  0  0
    7.2262   -1.8341   21.1746 C   0  0  0  0  0  0  0  0  0  0  0  0
    7.8926   -1.8403   22.5623 C   0  0  2  0  0  0  0  0  0  0  0  0
    6.8886   -2.2141   23.6632 C   0  0  0  0  0  0  0  0  0  0  0  0
    6.3467   -3.4964   23.4616 O   0  0  0  0  0  0  0  0  0  0  0  0
    7.1161   -4.5347   24.0247 C   0  0  0  0  0  0  0  0  0  0  0  0
    6.5033   -5.8183   23.5167 C   0  0  0  0  0  0  0  0  0  0  0  0
    6.6787   -5.9702   21.9899 C   0  0  0  0  0  0  0  0  0  0  0  0
    6.7855   -8.3794   22.9622 S   0  0  0  0  0  0  0  0  0  0  0  0
    7.2532   -7.2568   21.7541 O   0  0  0  0  0  0  0  0  0  0  0  0
    7.8738   -9.3636   23.0341 O   0  0  0  0  0  0  0  0  0  0  0  0
    7.1063   -7.0642   24.1505 C   0  0  0  0  0  0  0  0  0  0  0  0
    8.1997   -7.0434   24.2170 H   0  0  0  0  0  0  0  0  0  0  0  0
    6.6897   -7.3290   25.1259 H   0  0  0  0  0  0  0  0  0  0  0  0
    5.7305   -5.8795   21.4539 H   0  0  0  0  0  0  0  0  0  0  0  0
    7.3457   -5.2138   21.5774 H   0  0  0  0  0  0  0  0  0  0  0  0
    5.4340   -5.7952   23.7382 H   0  0  0  0  0  0  0  0  0  0  0  0
    7.0956   -4.4805   25.1258 H   0  0  0  0  0  0  0  0  0  0  0  0
    8.1759   -4.4663   23.7145 H   0  0  0  0  0  0  0  0  0  0  0  0
    6.0401   -1.5185   23.6577 H   0  0  0  0  0  0  0  0  0  0  0  0
    7.3675   -2.1760   24.6537 H   0  0  0  0  0  0  0  0  0  0  0  0
    8.6940   -2.5846   22.6043 H   0  0  0  0  0  0  0  0  0  0  0  0
    6.3019   -2.4171   21.1394 H   0  0  0  0  0  0  0  0  0  0  0  0
    7.9006   -2.2155   20.4049 H   0  0  0  0  0  0  0  0  0  0  0  0
    9.9695   -0.3703   22.2993 C   0  0  0  0  0  0  0  0  0  0  0  0
   10.5329   -1.3337   21.4537 C   0  0  0  0  0  0  0  0  0  0  0  0
   11.8776   -1.2999   21.1427 C   0  0  0  0  0  0  0  0  0  0  0  0
   12.5065   -2.5662   20.1145 Cl  0  0  0  0  0  0  0  0  0  0  0  0
   12.7000   -0.2692   21.6047 C   0  0  0  0  0  0  0  0  0  0  0  0
   12.1481    0.7008   22.4153 C   0  0  0  0  0  0  0  0  0  0  0  0
   10.8066    0.6412   22.7822 C   0  0  0  0  0  0  0  0  0  0  0  0
   10.3027    1.6755   23.7367 C   0  0  0  0  0  0  0  0  0  0  0  0
   10.9573    2.6796   24.0102 O   0  0  0  0  0  0  0  0  0  0  0  0
   12.7471    1.5228   22.7936 H   0  0  0  0  0  0  0  0  0  0  0  0
   13.7437   -0.2129   21.3222 H   0  0  0  0  0  0  0  0  0  0  0  0
    9.9459   -2.1365   21.0291 H   0  0  0  0  0  0  0  0  0  0  0  0
    8.9496   -0.6044   24.8136 H   0  0  0  0  0  0  0  0  0  0  0  0
    7.4087    0.2243   24.4972 H   0  0  0  0  0  0  0  0  0  0  0  0
    9.3764    2.7770   25.8391 H   0  0  0  0  0  0  0  0  0  0  0  0
    7.8161    1.9392   25.8574 H   0  0  0  0  0  0  0  0  0  0  0  0
    8.6341    3.9699   23.7209 H   0  0  0  0  0  0  0  0  0  0  0  0
    7.7680    4.4305   25.1885 H   0  0  0  0  0  0  0  0  0  0  0  0
    6.8404    2.5241   23.0989 H   0  0  0  0  0  0  0  0  0  0  0  0
    6.0139    2.8465   24.5353 H   0  0  0  0  0  0  0  0  0  0  0  0
    4.9516    4.1509   22.9505 H   0  0  0  0  0  0  0  0  0  0  0  0
    5.9958    5.2681   23.8517 H   0  0  0  0  0  0  0  0  0  0  0  0
    6.5099    4.6691   22.2684 H   0  0  0  0  0  0  0  0  0  0  0  0
  1  2  1  0
  2  3  1  0
  3  4  1  0
  4  5  1  0
  5  6  1  0
  7  6  1  1
  7  8  1  0
  8  9  2  0
  8 10  1  0
 10 11  1  0
 11 12  2  0
 12 13  1  0
 13 14  2  0
 14 15  1  0
 15 16  2  0
 16 17  1  0
 17 18  2  0
 18 19  1  0
 19 20  2  0
 19 21  1  0
 18 22  1  0
 17 23  1  0
 16 24  1  0
 14 25  1  0
 12 26  1  0
 10 27  1  0
 27 28  1  0
 28 29  1  0
 29 30  1  0
 30 31  1  0
 31 32  1  0
 32 33  1  0
 33 34  1  0
 34 35  2  0
 34 36  2  0
 34 37  1  0
 37 38  1  0
 37 39  1  0
 33 40  1  0
 33 41  1  0
 32 42  1  0
 31 43  1  0
 31 44  1  0
 29 45  1  0
 29 46  1  0
 28 47  1  6
 27 48  1  0
 27 49  1  0
  7 50  1  0
 50 51  2  0
 51 52  1  0
 52 53  1  0
 52 54  2  0
 54 55  1  0
 55 56  2  0
 56 57  1  0
 57 58  2  0
 55 59  1  0
 54 60  1  0
 51 61  1  0
  6 62  1  0
  6 63  1  0
  4 64  1  0
  4 65  1  0
  3 66  1  0
  3 67  1  0
  2 68  1  0
  2 69  1  0
  1 70  1  0
  1 71  1  0
  1 72  1  0
 57  5  1  0
 28  7  1  0
 37 32  1  0
 56 50  1  0
 20 11  1  0
 20 15  1  0
M  CHG  1   2   1
M  END
>  <cnnaffinities>  (2) 
[6.78364]

>  <score>  (2) 
6.78364

>  <index>  (2) 
38

>  <Smiles>  (2) 
C([N+](C(C(N1C([C@@]2(C(=O)N(c3c(nc(c4c(c(c(c(c34)[H])[H])[H])[H])[H])[H])C([C@@]2(C(OC(C2(C(S(=O)(=O)C2([H])[H])([H])[H])[H])([H])[H])([H])[H])[H])([H])[H])c2c(c(Cl)c(c(c2C1=O)[H])[H])[H])([H])[H])([H])[H])([H])[H])([H])[H])([H])([H])[H]

>  <h>  (2) 
<NA>

>  <Training>  (2) 
True

>  <Success>  (2) 
True

>  <enamine_searched>  (2) 
False

>  <enamine_id>  (2) 
nan

$$$$

     RDKit          3D

 62 67  0  0  0  0  0  0  0  0999 V2000
   13.5167   -1.5044   24.1808 C   0  0  0  0  0  0  0  0  0  0  0  0
   12.7195   -0.4465   23.4194 C   0  0  0  0  0  0  0  0  0  0  0  0
   12.5910   -0.6543   21.9696 N   0  0  0  0  0  0  0  0  0  0  0  0
   13.4449    0.0025   21.1542 N   0  0  0  0  0  0  0  0  0  0  0  0
   13.4708   -0.6969   20.0202 C   0  0  0  0  0  0  0  0  0  0  0  0
   12.5978   -1.7975   20.0693 C   0  0  0  0  0  0  0  0  0  0  0  0
   12.0451   -1.7288   21.3272 C   0  0  0  0  0  0  0  0  0  0  0  0
   11.3021   -2.8484   21.9411 C   0  0  0  0  0  0  0  0  0  0  0  0
   10.1076   -2.5343   22.6881 N   0  0  0  0  0  0  0  0  0  0  0  0
    8.9603   -2.3632   21.8055 C   0  0  0  0  0  0  0  0  0  0  0  0
    7.7606   -1.7829   22.5652 C   0  0  2  0  0  0  0  0  0  0  0  0
    6.6267   -1.7731   21.5304 C   0  0  0  0  0  0  0  0  0  0  0  0
    5.8663   -2.6749   21.2346 O   0  0  0  0  0  0  0  0  0  0  0  0
    6.6465   -0.5397   20.9230 N   0  0  0  0  0  0  0  0  0  0  0  0
    5.7184   -0.2489   19.9082 C   0  0  0  0  0  0  0  0  0  0  0  0
    5.9146   -0.7324   18.6451 C   0  0  0  0  0  0  0  0  0  0  0  0
    5.1016   -0.4512   17.5969 N   0  0  0  0  0  0  0  0  0  0  0  0
    4.0028    0.2209   17.8582 C   0  0  0  0  0  0  0  0  0  0  0  0
    3.6123    0.6321   19.1728 C   0  0  0  0  0  0  0  0  0  0  0  0
    2.3708    1.2484   19.4710 C   0  0  0  0  0  0  0  0  0  0  0  0
    2.0852    1.6866   20.7312 C   0  0  0  0  0  0  0  0  0  0  0  0
    3.0331    1.5686   21.7706 C   0  0  0  0  0  0  0  0  0  0  0  0
    4.2439    0.9802   21.5241 C   0  0  0  0  0  0  0  0  0  0  0  0
    4.5381    0.4774   20.2244 C   0  0  0  0  0  0  0  0  0  0  0  0
    4.9655    0.8675   22.3310 H   0  0  0  0  0  0  0  0  0  0  0  0
    2.7975    1.9271   22.7666 H   0  0  0  0  0  0  0  0  0  0  0  0
    1.1170    2.1275   20.9432 H   0  0  0  0  0  0  0  0  0  0  0  0
    1.6575    1.4125   18.6800 H   0  0  0  0  0  0  0  0  0  0  0  0
    3.3511    0.4350   17.0083 H   0  0  0  0  0  0  0  0  0  0  0  0
    6.7754   -1.3695   18.4453 H   0  0  0  0  0  0  0  0  0  0  0  0
    7.6117    0.3792   21.4941 C   0  0  0  0  0  0  0  0  0  0  0  0
    7.9017   -0.2497   22.8623 C   0  0  2  0  0  0  0  0  0  0  0  0
    9.1983    0.2819   23.4563 C   0  0  0  0  0  0  0  0  0  0  0  0
   10.0441    0.0204   22.8209 H   0  0  0  0  0  0  0  0  0  0  0  0
    9.1635    1.3757   23.5135 H   0  0  0  0  0  0  0  0  0  0  0  0
    9.3924   -0.0977   24.4644 H   0  0  0  0  0  0  0  0  0  0  0  0
    7.0727   -0.0005   23.5386 H   0  0  0  0  0  0  0  0  0  0  0  0
    8.5275    0.4105   20.8807 H   0  0  0  0  0  0  0  0  0  0  0  0
    7.2168    1.3985   21.5466 H   0  0  0  0  0  0  0  0  0  0  0  0
    7.5017   -2.6987   23.7343 C   0  0  0  0  0  0  0  0  0  0  0  0
    6.1986   -2.9356   24.1846 C   0  0  0  0  0  0  0  0  0  0  0  0
    5.9882   -3.9169   25.1324 C   0  0  0  0  0  0  0  0  0  0  0  0
    4.7273   -4.1827   25.5098 F   0  0  0  0  0  0  0  0  0  0  0  0
    7.0198   -4.6461   25.7123 C   0  0  0  0  0  0  0  0  0  0  0  0
    8.3113   -4.3668   25.3124 C   0  0  0  0  0  0  0  0  0  0  0  0
    8.5532   -3.4113   24.3297 C   0  0  0  0  0  0  0  0  0  0  0  0
    9.9567   -3.2386   23.8685 C   0  0  0  0  0  0  0  0  0  0  0  0
   10.9074   -3.7060   24.4861 O   0  0  0  0  0  0  0  0  0  0  0  0
    9.1644   -4.9014   25.7179 H   0  0  0  0  0  0  0  0  0  0  0  0
    6.7955   -5.4106   26.4483 H   0  0  0  0  0  0  0  0  0  0  0  0
    5.3520   -2.4082   23.7576 H   0  0  0  0  0  0  0  0  0  0  0  0
    9.2545   -1.7215   20.9660 H   0  0  0  0  0  0  0  0  0  0  0  0
    8.6299   -3.3257   21.3781 H   0  0  0  0  0  0  0  0  0  0  0  0
   11.9641   -3.4157   22.6036 H   0  0  0  0  0  0  0  0  0  0  0  0
   11.0194   -3.4542   21.0699 H   0  0  0  0  0  0  0  0  0  0  0  0
   12.5106   -2.6324   19.3813 H   0  0  0  0  0  0  0  0  0  0  0  0
   14.1617   -0.4525   19.2211 H   0  0  0  0  0  0  0  0  0  0  0  0
   11.7255   -0.3889   23.8634 H   0  0  0  0  0  0  0  0  0  0  0  0
   13.1870    0.5343   23.5142 H   0  0  0  0  0  0  0  0  0  0  0  0
   12.9856   -2.4558   24.2290 H   0  0  0  0  0  0  0  0  0  0  0  0
   13.6488   -1.1670   25.2118 H   0  0  0  0  0  0  0  0  0  0  0  0
   14.5031   -1.6892   23.7615 H   0  0  0  0  0  0  0  0  0  0  0  0
  1  2  1  0
  2  3  1  0
  3  4  1  0
  4  5  2  0
  5  6  1  0
  6  7  2  0
  7  8  1  0
  8  9  1  0
  9 10  1  0
 11 10  1  6
 11 12  1  0
 12 13  2  0
 12 14  1  0
 14 15  1  0
 15 16  2  0
 16 17  1  0
 17 18  2  0
 18 19  1  0
 19 20  2  0
 20 21  1  0
 21 22  2  0
 22 23  1  0
 23 24  2  0
 23 25  1  0
 22 26  1  0
 21 27  1  0
 20 28  1  0
 18 29  1  0
 16 30  1  0
 14 31  1  0
 31 32  1  0
 32 33  1  0
 33 34  1  0
 33 35  1  0
 33 36  1  0
 32 37  1  1
 31 38  1  0
 31 39  1  0
 11 40  1  0
 40 41  2  0
 41 42  1  0
 42 43  1  0
 42 44  2  0
 44 45  1  0
 45 46  2  0
 46 47  1  0
 47 48  2  0
 45 49  1  0
 44 50  1  0
 41 51  1  0
 10 52  1  0
 10 53  1  0
  8 54  1  0
  8 55  1  0
  6 56  1  0
  5 57  1  0
  2 58  1  0
  2 59  1  0
  1 60  1  0
  1 61  1  0
  1 62  1  0
  7  3  1  0
 47  9  1  0
 32 11  1  0
 46 40  1  0
 24 15  1  0
 24 19  1  0
M  END
>  <cnnaffinities>  (3) 
[6.55924]

>  <score>  (3) 
6.55924

>  <index>  (3) 
43

>  <Smiles>  (3) 
C(C(n1nc(c(c1C(N1C([C@@]2(C(=O)N(c3c(nc(c4c(c(c(c(c34)[H])[H])[H])[H])[H])[H])C([C@@]2(C([H])([H])[H])[H])([H])[H])c2c(c(F)c(c(c2C1=O)[H])[H])[H])([H])[H])([H])[H])[H])[H])([H])[H])([H])([H])[H]

>  <h>  (3) 
<NA>

>  <Training>  (3) 
True

>  <Success>  (3) 
True

>  <enamine_searched>  (3) 
False

>  <enamine_id>  (3) 
nan

$$$$

     RDKit          3D

 70 76  0  0  0  0  0  0  0  0999 V2000
    8.2440   -3.1631   23.1408 C   0  0  0  0  0  0  0  0  0  0  0  0
    8.2741   -2.0263   22.1268 C   0  0  1  0  0  0  0  0  0  0  0  0
    6.9638   -1.8567   21.3588 C   0  0  0  0  0  0  0  0  0  0  0  0
    7.0525   -0.5053   20.8498 N   0  0  0  0  0  0  0  0  0  0  0  0
    6.0964   -0.0850   19.8859 C   0  0  0  0  0  0  0  0  0  0  0  0
    6.2958   -0.4887   18.5901 C   0  0  0  0  0  0  0  0  0  0  0  0
    5.3774   -0.4404   17.5976 N   0  0  0  0  0  0  0  0  0  0  0  0
    4.1917    0.0300   17.9115 C   0  0  0  0  0  0  0  0  0  0  0  0
    3.8516    0.5292   19.2025 C   0  0  0  0  0  0  0  0  0  0  0  0
    2.5892    1.1298   19.4570 C   0  0  0  0  0  0  0  0  0  0  0  0
    2.3140    1.7083   20.6634 C   0  0  0  0  0  0  0  0  0  0  0  0
    3.2976    1.7333   21.6732 C   0  0  0  0  0  0  0  0  0  0  0  0
    4.5405    1.1934   21.4461 C   0  0  0  0  0  0  0  0  0  0  0  0
    4.8439    0.5451   20.2146 C   0  0  0  0  0  0  0  0  0  0  0  0
    5.3263    1.2979   22.1893 H   0  0  0  0  0  0  0  0  0  0  0  0
    3.0785    2.2178   22.6201 H   0  0  0  0  0  0  0  0  0  0  0  0
    1.3486    2.1727   20.8439 H   0  0  0  0  0  0  0  0  0  0  0  0
    1.8667    1.2011   18.6569 H   0  0  0  0  0  0  0  0  0  0  0  0
    3.4265    0.0419   17.1304 H   0  0  0  0  0  0  0  0  0  0  0  0
    7.2708   -0.8886   18.3170 H   0  0  0  0  0  0  0  0  0  0  0  0
    8.0473    0.2504   21.4452 C   0  0  0  0  0  0  0  0  0  0  0  0
    8.3462    1.3752   21.1116 O   0  0  0  0  0  0  0  0  0  0  0  0
    8.6141   -0.5804   22.6394 C   0  0  1  0  0  0  0  0  0  0  0  0
    7.8200   -0.0944   23.8868 C   0  0  0  0  0  0  0  0  0  0  0  0
    8.4902   -0.2598   25.1654 N   0  0  0  0  0  0  0  0  0  0  0  0
    7.6755   -0.1320   26.3753 C   0  0  0  0  0  0  0  0  0  0  0  0
    7.6883   -1.4082   27.2184 C   0  0  0  0  0  0  0  0  0  0  0  0
    7.3000   -2.6054   26.3773 N   0  0  2  0  0  4  0  0  0  0  0  0
    5.8303   -2.5843   26.0054 C   0  0  0  0  0  0  0  0  0  0  0  0
    5.1012   -3.2552   27.1780 C   0  0  0  0  0  0  0  0  0  0  0  0
    6.1645   -4.0913   27.8976 C   0  0  0  0  0  0  0  0  0  0  0  0
    6.2458   -3.8498   29.4081 C   0  0  0  0  0  0  0  0  0  0  0  0
    5.5738   -5.0858   29.6828 O   0  0  0  0  0  0  0  0  0  0  0  0
    5.8005   -5.5073   28.3347 C   0  0  0  0  0  0  0  0  0  0  0  0
    4.9304   -5.9692   27.8650 H   0  0  0  0  0  0  0  0  0  0  0  0
    6.6451   -6.2051   28.2682 H   0  0  0  0  0  0  0  0  0  0  0  0
    5.6934   -2.9848   29.7900 H   0  0  0  0  0  0  0  0  0  0  0  0
    7.2732   -3.8427   29.7918 H   0  0  0  0  0  0  0  0  0  0  0  0
    7.4045   -3.9531   27.0316 C   0  0  0  0  0  0  0  0  0  0  0  0
    8.3382   -4.1097   27.5680 H   0  0  0  0  0  0  0  0  0  0  0  0
    7.3672   -4.7139   26.2490 H   0  0  0  0  0  0  0  0  0  0  0  0
    4.6811   -2.5008   27.8465 H   0  0  0  0  0  0  0  0  0  0  0  0
    4.2720   -3.8721   26.8261 H   0  0  0  0  0  0  0  0  0  0  0  0
    5.5103   -1.5628   25.8229 H   0  0  0  0  0  0  0  0  0  0  0  0
    5.6940   -3.1595   25.0892 H   0  0  0  0  0  0  0  0  0  0  0  0
    7.9440   -2.5588   25.5780 H   0  0  0  0  0  0  0  0  0  0  0  0
    7.0216   -1.3136   28.0801 H   0  0  0  0  0  0  0  0  0  0  0  0
    8.7003   -1.5401   27.5953 H   0  0  0  0  0  0  0  0  0  0  0  0
    8.0504    0.6978   26.9836 H   0  0  0  0  0  0  0  0  0  0  0  0
    6.6583    0.1091   26.0553 H   0  0  0  0  0  0  0  0  0  0  0  0
    9.8373   -0.1307   25.3297 C   0  0  0  0  0  0  0  0  0  0  0  0
   10.3353   -0.0409   26.4452 O   0  0  0  0  0  0  0  0  0  0  0  0
   10.6662   -0.1689   24.0961 C   0  0  0  0  0  0  0  0  0  0  0  0
   12.0439   -0.0740   24.2598 C   0  0  0  0  0  0  0  0  0  0  0  0
   12.8813   -0.1825   23.1728 C   0  0  0  0  0  0  0  0  0  0  0  0
   12.3197   -0.3830   21.9134 C   0  0  0  0  0  0  0  0  0  0  0  0
   13.3820   -0.4093   20.5389 Cl  0  0  0  0  0  0  0  0  0  0  0  0
   10.9540   -0.5127   21.7348 C   0  0  0  0  0  0  0  0  0  0  0  0
   10.0983   -0.3872   22.8387 C   0  0  0  0  0  0  0  0  0  0  0  0
   10.5549   -0.7332   20.7467 H   0  0  0  0  0  0  0  0  0  0  0  0
   13.9570   -0.1235   23.2704 H   0  0  0  0  0  0  0  0  0  0  0  0
   12.4272    0.0739   25.2616 H   0  0  0  0  0  0  0  0  0  0  0  0
    6.8585   -0.6187   23.9519 H   0  0  0  0  0  0  0  0  0  0  0  0
    7.5838    0.9663   23.7191 H   0  0  0  0  0  0  0  0  0  0  0  0
    6.8425   -2.5693   20.5365 H   0  0  0  0  0  0  0  0  0  0  0  0
    6.0863   -1.9758   22.0157 H   0  0  0  0  0  0  0  0  0  0  0  0
    9.0612   -2.2563   21.3947 H   0  0  0  0  0  0  0  0  0  0  0  0
    9.1555   -3.1893   23.7505 H   0  0  0  0  0  0  0  0  0  0  0  0
    8.1562   -4.1341   22.6349 H   0  0  0  0  0  0  0  0  0  0  0  0
    7.3844   -3.0595   23.8126 H   0  0  0  0  0  0  0  0  0  0  0  0
  1  2  1  0
  2  3  1  0
  3  4  1  0
  4  5  1  0
  5  6  2  0
  6  7  1  0
  7  8  2  0
  8  9  1  0
  9 10  2  0
 10 11  1  0
 11 12  2  0
 12 13  1  0
 13 14  2  0
 13 15  1  0
 12 16  1  0
 11 17  1  0
 10 18  1  0
  8 19  1  0
  6 20  1  0
  4 21  1  0
 21 22  2  0
 21 23  1  0
 23 24  1  1
 24 25  1  0
 25 26  1  0
 26 27  1  0
 27 28  1  0
 28 29  1  0
 29 30  1  0
 30 31  1  0
 31 32  1  0
 32 33  1  0
 33 34  1  0
 34 35  1  0
 34 36  1  0
 32 37  1  0
 32 38  1  0
 31 39  1  0
 39 40  1  0
 39 41  1  0
 30 42  1  0
 30 43  1  0
 29 44  1  0
 29 45  1  0
 28 46  1  6
 27 47  1  0
 27 48  1  0
 26 49  1  0
 26 50  1  0
 25 51  1  0
 51 52  2  0
 51 53  1  0
 53 54  2  0
 54 55  1  0
 55 56  2  0
 56 57  1  0
 56 58  1  0
 58 59  2  0
 58 60  1  0
 55 61  1  0
 54 62  1  0
 24 63  1  0
 24 64  1  0
  3 65  1  0
  3 66  1  0
  2 67  1  6
  1 68  1  0
  1 69  1  0
  1 70  1  0
 23  2  1  0
 39 28  1  0
 59 53  1  0
 14  5  1  0
 59 23  1  0
 14  9  1  0
 34 31  1  0
M  CHG  1  28   1
M  END
>  <cnnaffinities>  (4) 
[6.00188]

>  <score>  (4) 
6.00188

>  <index>  (4) 
62

>  <Smiles>  (4) 
C([C@]1(C(N(c2c(nc(c3c(c(c(c(c23)[H])[H])[H])[H])[H])[H])C(=O)[C@]21C(N(C(C([N@@+]1(C(C(C3(C(OC3([H])[H])([H])[H])C1([H])[H])([H])[H])([H])[H])[H])([H])[H])([H])[H])C(=O)c1c(c(c(Cl)c(c21)[H])[H])[H])([H])[H])([H])[H])[H])([H])([H])[H]

>  <h>  (4) 
<NA>

>  <Training>  (4) 
True

>  <Success>  (4) 
True

>  <enamine_searched>  (4) 
False

>  <enamine_id>  (4) 
nan

$$$$

     RDKit          3D

 63 68  0  0  0  0  0  0  0  0999 V2000
    6.2293    1.5682   28.9248 C   0  0  0  0  0  0  0  0  0  0  0  0
    6.5847    1.9757   27.5843 N   0  0  0  0  0  0  0  0  0  0  0  0
    5.9623    1.3929   26.5296 C   0  0  0  0  0  0  0  0  0  0  0  0
    5.0992    0.5334   26.6444 O   0  0  0  0  0  0  0  0  0  0  0  0
    6.4144    1.9010   25.1607 C   0  0  0  0  0  0  0  0  0  0  0  0
    7.5313    1.1448   24.6402 N   0  0  0  0  0  0  0  0  0  0  0  0
    7.3283   -0.1885   24.1037 C   0  0  0  0  0  0  0  0  0  0  0  0
    8.1674   -0.4161   22.8248 C   0  0  2  0  0  0  0  0  0  0  0  0
    7.6121    0.4489   21.6642 C   0  0  0  0  0  0  0  0  0  0  0  0
    7.7060    1.6492   21.5614 O   0  0  0  0  0  0  0  0  0  0  0  0
    6.9851   -0.3758   20.7496 N   0  0  0  0  0  0  0  0  0  0  0  0
    6.0125    0.0122   19.7910 C   0  0  0  0  0  0  0  0  0  0  0  0
    6.2164   -0.3885   18.4949 C   0  0  0  0  0  0  0  0  0  0  0  0
    5.2976   -0.3385   17.5040 N   0  0  0  0  0  0  0  0  0  0  0  0
    4.1080    0.1166   17.8189 C   0  0  0  0  0  0  0  0  0  0  0  0
    3.7672    0.6058   19.1162 C   0  0  0  0  0  0  0  0  0  0  0  0
    2.5168    1.2192   19.3827 C   0  0  0  0  0  0  0  0  0  0  0  0
    2.2493    1.8026   20.5864 C   0  0  0  0  0  0  0  0  0  0  0  0
    3.2179    1.8038   21.6084 C   0  0  0  0  0  0  0  0  0  0  0  0
    4.4296    1.1990   21.3937 C   0  0  0  0  0  0  0  0  0  0  0  0
    4.7523    0.6125   20.1310 C   0  0  0  0  0  0  0  0  0  0  0  0
    5.1648    1.1818   22.1917 H   0  0  0  0  0  0  0  0  0  0  0  0
    3.0048    2.3001   22.5518 H   0  0  0  0  0  0  0  0  0  0  0  0
    1.2970    2.2893   20.7482 H   0  0  0  0  0  0  0  0  0  0  0  0
    1.8072    1.2935   18.5791 H   0  0  0  0  0  0  0  0  0  0  0  0
    3.3581    0.1060   17.0249 H   0  0  0  0  0  0  0  0  0  0  0  0
    7.1891   -0.7867   18.2128 H   0  0  0  0  0  0  0  0  0  0  0  0
    6.8958   -1.7441   21.2028 C   0  0  0  0  0  0  0  0  0  0  0  0
    7.9759   -1.8633   22.2732 C   0  0  2  0  0  0  0  0  0  0  0  0
    7.5825   -2.9821   23.2618 C   0  0  0  0  0  0  0  0  0  0  0  0
    7.2658   -4.2307   22.5745 N   0  0  0  0  0  0  0  0  0  0  0  0
    6.1424   -4.9904   22.6316 C   0  0  0  0  0  0  0  0  0  0  0  0
    6.2946   -6.0025   21.7073 C   0  0  0  0  0  0  0  0  0  0  0  0
    7.5798   -5.7945   21.1827 C   0  0  0  0  0  0  0  0  0  0  0  0
    8.1397   -4.7086   21.6947 N   0  0  0  0  0  0  0  0  0  0  0  0
    8.1794   -6.4189   20.5311 H   0  0  0  0  0  0  0  0  0  0  0  0
    5.5905   -6.7643   21.4049 H   0  0  0  0  0  0  0  0  0  0  0  0
    5.3551   -4.8009   23.3489 H   0  0  0  0  0  0  0  0  0  0  0  0
    6.6909   -2.7211   23.8347 H   0  0  0  0  0  0  0  0  0  0  0  0
    8.3963   -3.1684   23.9622 H   0  0  0  0  0  0  0  0  0  0  0  0
    8.9085   -2.1765   21.7972 H   0  0  0  0  0  0  0  0  0  0  0  0
    5.8938   -1.9278   21.6173 H   0  0  0  0  0  0  0  0  0  0  0  0
    7.0391   -2.4401   20.3778 H   0  0  0  0  0  0  0  0  0  0  0  0
    9.5859    0.0475   23.1220 C   0  0  0  0  0  0  0  0  0  0  0  0
   10.6255   -0.2207   22.2237 C   0  0  0  0  0  0  0  0  0  0  0  0
   11.9002    0.2583   22.4893 C   0  0  0  0  0  0  0  0  0  0  0  0
   13.1892   -0.0090   21.3652 Cl  0  0  0  0  0  0  0  0  0  0  0  0
   12.1981    0.9947   23.6351 C   0  0  0  0  0  0  0  0  0  0  0  0
   11.1634    1.3109   24.4858 C   0  0  0  0  0  0  0  0  0  0  0  0
    9.8680    0.8995   24.2014 C   0  0  0  0  0  0  0  0  0  0  0  0
    8.7826    1.5148   25.0150 C   0  0  0  0  0  0  0  0  0  0  0  0
    8.9932    2.3337   25.9128 O   0  0  0  0  0  0  0  0  0  0  0  0
   11.2949    1.9141   25.3699 H   0  0  0  0  0  0  0  0  0  0  0  0
   13.2137    1.3385   23.8059 H   0  0  0  0  0  0  0  0  0  0  0  0
   10.4473   -0.7802   21.3101 H   0  0  0  0  0  0  0  0  0  0  0  0
    6.2607   -0.3260   23.9108 H   0  0  0  0  0  0  0  0  0  0  0  0
    7.6400   -0.9297   24.8546 H   0  0  0  0  0  0  0  0  0  0  0  0
    5.5738    1.8199   24.4645 H   0  0  0  0  0  0  0  0  0  0  0  0
    6.7269    2.9474   25.2201 H   0  0  0  0  0  0  0  0  0  0  0  0
    7.4770    2.4200   27.4072 H   0  0  0  0  0  0  0  0  0  0  0  0
    6.7199    2.2246   29.6457 H   0  0  0  0  0  0  0  0  0  0  0  0
    6.5127    0.5294   29.1245 H   0  0  0  0  0  0  0  0  0  0  0  0
    5.1473    1.6486   29.0526 H   0  0  0  0  0  0  0  0  0  0  0  0
  1  2  1  0
  2  3  1  0
  3  4  2  0
  3  5  1  0
  5  6  1  0
  6  7  1  0
  8  7  1  1
  8  9  1  0
  9 10  2  0
  9 11  1  0
 11 12  1  0
 12 13  2  0
 13 14  1  0
 14 15  2  0
 15 16  1  0
 16 17  2  0
 17 18  1  0
 18 19  2  0
 19 20  1  0
 20 21  2  0
 20 22  1  0
 19 23  1  0
 18 24  1  0
 17 25  1  0
 15 26  1  0
 13 27  1  0
 11 28  1  0
 28 29  1  0
 29 30  1  0
 30 31  1  0
 31 32  1  0
 32 33  2  0
 33 34  1  0
 34 35  2  0
 34 36  1  0
 33 37  1  0
 32 38  1  0
 30 39  1  0
 30 40  1  0
 29 41  1  6
 28 42  1  0
 28 43  1  0
  8 44  1  0
 44 45  2  0
 45 46  1  0
 46 47  1  0
 46 48  2  0
 48 49  1  0
 49 50  2  0
 50 51  1  0
 51 52  2  0
 49 53  1  0
 48 54  1  0
 45 55  1  0
  7 56  1  0
  7 57  1  0
  5 58  1  0
  5 59  1  0
  2 60  1  0
  1 61  1  0
  1 62  1  0
  1 63  1  0
 51  6  1  0
 29  8  1  0
 35 31  1  0
 50 44  1  0
 21 12  1  0
 21 16  1  0
M  END
>  <cnnaffinities>  (5) 
[6.15245]

>  <score>  (5) 
6.15245

>  <index>  (5) 
87

>  <Smiles>  (5) 
C(N(C(=O)C(N1C([C@@]2(C(=O)N(c3c(nc(c4c(c(c(c(c34)[H])[H])[H])[H])[H])[H])C([C@@]2(C(n2c(c(c(n2)[H])[H])[H])([H])[H])[H])([H])[H])c2c(c(Cl)c(c(c2C1=O)[H])[H])[H])([H])[H])([H])[H])[H])([H])([H])[H]

>  <h>  (5) 
<NA>

>  <Training>  (5) 
True

>  <Success>  (5) 
True

>  <enamine_searched>  (5) 
False

>  <enamine_id>  (5) 
nan

$$$$

     RDKit          3D

 64 68  0  0  0  0  0  0  0  0999 V2000
   11.2036   -4.7446   25.9348 C   0  0  0  0  0  0  0  0  0  0  0  0
   10.4950   -4.1900   24.7093 C   0  0  0  0  0  0  0  0  0  0  0  0
    9.6656   -2.9434   24.9478 C   0  0  0  0  0  0  0  0  0  0  0  0
   10.2022   -1.8642   24.7254 O   0  0  0  0  0  0  0  0  0  0  0  0
    8.2952   -3.0432   25.1849 N   0  0  0  0  0  0  0  0  0  0  0  0
    7.7491   -4.2263   25.8728 C   0  0  0  0  0  0  0  0  0  0  0  0
    6.2675   -4.0594   26.2591 C   0  0  0  0  0  0  0  0  0  0  0  0
    5.9910   -2.6683   26.8439 C   0  0  0  0  0  0  0  0  0  0  0  0
    6.4173   -1.6355   25.8314 C   0  0  0  0  0  0  0  0  0  0  0  0
    5.7257   -0.4294   25.6874 C   0  0  0  0  0  0  0  0  0  0  0  0
    6.1211    0.4966   24.7085 C   0  0  0  0  0  0  0  0  0  0  0  0
    7.1854    0.2039   23.8481 C   0  0  0  0  0  0  0  0  0  0  0  0
    7.6367    1.1050   22.8851 N   0  0  0  0  0  0  0  0  0  0  0  0
    8.4541    2.2259   23.3512 C   0  0  0  0  0  0  0  0  0  0  0  0
    9.8745    1.7742   23.6226 C   0  0  0  0  0  0  0  0  0  0  0  0
   10.1634    0.8916   24.6781 C   0  0  0  0  0  0  0  0  0  0  0  0
   11.4767    0.4692   24.9163 C   0  0  0  0  0  0  0  0  0  0  0  0
   12.5172    0.9313   24.1071 C   0  0  0  0  0  0  0  0  0  0  0  0
   12.2515    1.8256   23.0684 C   0  0  0  0  0  0  0  0  0  0  0  0
   13.6996    2.4833   22.0073 Br  0  0  0  0  0  0  0  0  0  0  0  0
   10.9329    2.2356   22.8219 C   0  0  0  0  0  0  0  0  0  0  0  0
   10.7349    2.9203   22.0024 H   0  0  0  0  0  0  0  0  0  0  0  0
   13.5396    0.6033   24.2657 H   0  0  0  0  0  0  0  0  0  0  0  0
   11.6826   -0.2299   25.7210 H   0  0  0  0  0  0  0  0  0  0  0  0
    9.3627    0.5128   25.3037 H   0  0  0  0  0  0  0  0  0  0  0  0
    8.0276    2.6537   24.2638 H   0  0  0  0  0  0  0  0  0  0  0  0
    8.4548    3.0207   22.5961 H   0  0  0  0  0  0  0  0  0  0  0  0
    7.7054    0.7303   21.5438 C   0  0  0  0  0  0  0  0  0  0  0  0
    8.3228    1.4276   20.7425 O   0  0  0  0  0  0  0  0  0  0  0  0
    7.0130   -0.5279   21.0018 C   0  0  0  0  0  0  0  0  0  0  0  0
    6.0001   -0.2624   19.8963 C   0  0  0  0  0  0  0  0  0  0  0  0
    6.2167   -0.7316   18.5874 C   0  0  0  0  0  0  0  0  0  0  0  0
    5.3126   -0.6211   17.6008 N   0  0  0  0  0  0  0  0  0  0  0  0
    4.1447   -0.0152   17.8906 C   0  0  0  0  0  0  0  0  0  0  0  0
    3.8357    0.4970   19.1594 C   0  0  0  0  0  0  0  0  0  0  0  0
    2.6185    1.1451   19.4378 C   0  0  0  0  0  0  0  0  0  0  0  0
    2.3727    1.6986   20.6968 C   0  0  0  0  0  0  0  0  0  0  0  0
    3.3401    1.6326   21.6976 C   0  0  0  0  0  0  0  0  0  0  0  0
    4.5538    0.9989   21.4216 C   0  0  0  0  0  0  0  0  0  0  0  0
    4.8010    0.4062   20.1766 C   0  0  0  0  0  0  0  0  0  0  0  0
    5.3171    0.9797   22.1885 H   0  0  0  0  0  0  0  0  0  0  0  0
    3.1400    2.0662   22.6720 H   0  0  0  0  0  0  0  0  0  0  0  0
    1.4416    2.2158   20.8934 H   0  0  0  0  0  0  0  0  0  0  0  0
    1.8638    1.2637   18.6701 H   0  0  0  0  0  0  0  0  0  0  0  0
    3.4064    0.0567   17.0937 H   0  0  0  0  0  0  0  0  0  0  0  0
    7.1497   -1.2400   18.3620 H   0  0  0  0  0  0  0  0  0  0  0  0
    6.4907   -1.0202   21.8220 H   0  0  0  0  0  0  0  0  0  0  0  0
    7.7812   -1.2205   20.6517 H   0  0  0  0  0  0  0  0  0  0  0  0
    7.8651   -0.9927   23.9998 C   0  0  0  0  0  0  0  0  0  0  0  0
    7.5160   -1.8982   25.0040 C   0  0  0  0  0  0  0  0  0  0  0  0
    8.7063   -1.2061   23.3494 H   0  0  0  0  0  0  0  0  0  0  0  0
    5.6026    1.4415   24.6122 H   0  0  0  0  0  0  0  0  0  0  0  0
    4.8868   -0.2244   26.3475 H   0  0  0  0  0  0  0  0  0  0  0  0
    6.5326   -2.5342   27.7873 H   0  0  0  0  0  0  0  0  0  0  0  0
    4.9210   -2.5600   27.0502 H   0  0  0  0  0  0  0  0  0  0  0  0
    5.6455   -4.1974   25.3675 H   0  0  0  0  0  0  0  0  0  0  0  0
    5.9896   -4.8282   26.9876 H   0  0  0  0  0  0  0  0  0  0  0  0
    7.8441   -5.1119   25.2329 H   0  0  0  0  0  0  0  0  0  0  0  0
    8.3233   -4.4054   26.7902 H   0  0  0  0  0  0  0  0  0  0  0  0
    9.8024   -4.9386   24.3231 H   0  0  0  0  0  0  0  0  0  0  0  0
   11.2566   -3.9520   23.9602 H   0  0  0  0  0  0  0  0  0  0  0  0
   11.7535   -5.6509   25.6613 H   0  0  0  0  0  0  0  0  0  0  0  0
   11.9267   -4.0110   26.3069 H   0  0  0  0  0  0  0  0  0  0  0  0
   10.4776   -4.9807   26.7204 H   0  0  0  0  0  0  0  0  0  0  0  0
  1  2  1  0
  2  3  1  0
  3  4  2  0
  3  5  1  0
  5  6  1  0
  6  7  1  0
  7  8  1  0
  8  9  1  0
  9 10  2  0
 10 11  1  0
 11 12  2  0
 12 13  1  0
 13 14  1  0
 14 15  1  0
 15 16  2  0
 16 17  1  0
 17 18  2  0
 18 19  1  0
 19 20  1  0
 19 21  2  0
 21 22  1  0
 18 23  1  0
 17 24  1  0
 16 25  1  0
 14 26  1  0
 14 27  1  0
 13 28  1  0
 28 29  2  0
 28 30  1  0
 30 31  1  0
 31 32  2  0
 32 33  1  0
 33 34  2  0
 34 35  1  0
 35 36  2  0
 36 37  1  0
 37 38  2  0
 38 39  1  0
 39 40  2  0
 39 41  1  0
 38 42  1  0
 37 43  1  0
 36 44  1  0
 34 45  1  0
 32 46  1  0
 30 47  1  0
 30 48  1  0
 12 49  1  0
 49 50  2  0
 49 51  1  0
 11 52  1  0
 10 53  1  0
  8 54  1  0
  8 55  1  0
  7 56  1  0
  7 57  1  0
  6 58  1  0
  6 59  1  0
  2 60  1  0
  2 61  1  0
  1 62  1  0
  1 63  1  0
  1 64  1  0
 50  5  1  0
 50  9  1  0
 21 15  1  0
 40 31  1  0
 40 35  1  0
M  END
>  <cnnaffinities>  (6) 
[6.58942, 6.55611]

>  <score>  (6) 
6.58942

>  <index>  (6) 
88

>  <Smiles>  (6) 
C(C(C(=O)N1C(C(C(c2c(c(c(N(C(c3c(c(c(c(Br)c3[H])[H])[H])[H])([H])[H])C(=O)C(c3c(nc(c4c(c(c(c(c34)[H])[H])[H])[H])[H])[H])([H])[H])c(c12)[H])[H])[H])([H])[H])([H])[H])([H])[H])([H])[H])([H])([H])[H]

>  <h>  (6) 
<NA>

>  <Training>  (6) 
True

>  <Success>  (6) 
True

>  <enamine_searched>  (6) 
False

>  <enamine_id>  (6) 
nan

$$$$
