
     RDKit          3D

 63 69  0  0  0  0  0  0  0  0999 V2000
    8.8965    3.0976   25.0440 O   0  0  0  0  0  0  0  0  0  0  0  0
    8.7540    2.0338   24.4558 C   0  0  0  0  0  0  0  0  0  0  0  0
    9.8623    1.3724   23.7095 C   0  0  0  0  0  0  0  0  0  0  0  0
   11.1505    1.8566   23.9272 C   0  0  0  0  0  0  0  0  0  0  0  0
   12.2187    1.3158   23.2487 C   0  0  0  0  0  0  0  0  0  0  0  0
   11.9447    0.3494   22.2830 C   0  0  0  0  0  0  0  0  0  0  0  0
   13.2483   -0.1642   21.2855 Cl  0  0  0  0  0  0  0  0  0  0  0  0
   10.6776   -0.1611   22.0573 C   0  0  0  0  0  0  0  0  0  0  0  0
    9.6053    0.3208   22.8099 C   0  0  0  0  0  0  0  0  0  0  0  0
    8.1811   -0.1516   22.5595 C   0  0  1  0  0  0  0  0  0  0  0  0
    7.4513    0.0052   23.9235 C   0  0  0  0  0  0  0  0  0  0  0  0
    7.5671    1.3576   24.4413 N   0  0  0  0  0  0  0  0  0  0  0  0
    6.4428    1.9839   25.0916 C   0  0  0  0  0  0  0  0  0  0  0  0
    6.1839    1.4815   26.4788 C   0  0  0  0  0  0  0  0  0  0  0  0
    6.4774    2.0435   27.5994 N   0  0  0  0  0  0  0  0  0  0  0  0
    5.9427    1.2360   28.6003 N   0  0  0  0  0  0  0  0  0  0  0  0
    5.3756    0.2591   27.9947 C   0  0  0  0  0  0  0  0  0  0  0  0
    5.4904    0.3251   26.6464 O   0  0  0  0  0  0  0  0  0  0  0  0
    4.8009   -0.5582   28.4123 H   0  0  0  0  0  0  0  0  0  0  0  0
    6.6681    3.0512   25.1649 H   0  0  0  0  0  0  0  0  0  0  0  0
    5.5387    1.8391   24.4899 H   0  0  0  0  0  0  0  0  0  0  0  0
    6.3872   -0.2377   23.8288 H   0  0  0  0  0  0  0  0  0  0  0  0
    7.9041   -0.6878   24.6496 H   0  0  0  0  0  0  0  0  0  0  0  0
    7.5213    0.7419   21.4720 C   0  0  0  0  0  0  0  0  0  0  0  0
    7.5951    1.9482   21.3951 O   0  0  0  0  0  0  0  0  0  0  0  0
    6.8371   -0.0764   20.5896 N   0  0  0  0  0  0  0  0  0  0  0  0
    6.0095    0.3969   19.5375 C   0  0  0  0  0  0  0  0  0  0  0  0
    6.2577    0.0232   18.2379 C   0  0  0  0  0  0  0  0  0  0  0  0
    5.5337    0.4380   17.1712 N   0  0  0  0  0  0  0  0  0  0  0  0
    4.5137    1.2275   17.3983 C   0  0  0  0  0  0  0  0  0  0  0  0
    4.1030    1.6438   18.6951 C   0  0  0  0  0  0  0  0  0  0  0  0
    2.9683    2.4768   18.8981 C   0  0  0  0  0  0  0  0  0  0  0  0
    2.5561    2.7814   20.1661 C   0  0  0  0  0  0  0  0  0  0  0  0
    3.2455    2.2611   21.2850 C   0  0  0  0  0  0  0  0  0  0  0  0
    4.3570    1.4781   21.1114 C   0  0  0  0  0  0  0  0  0  0  0  0
    4.8400    1.1818   19.8064 C   0  0  0  0  0  0  0  0  0  0  0  0
    4.8827    1.0744   21.9723 H   0  0  0  0  0  0  0  0  0  0  0  0
    2.8890    2.4822   22.2856 H   0  0  0  0  0  0  0  0  0  0  0  0
    1.6904    3.4189   20.3219 H   0  0  0  0  0  0  0  0  0  0  0  0
    2.4417    2.8590   18.0270 H   0  0  0  0  0  0  0  0  0  0  0  0
    3.9425    1.5502   16.5310 H   0  0  0  0  0  0  0  0  0  0  0  0
    7.0958   -0.6372   18.0159 H   0  0  0  0  0  0  0  0  0  0  0  0
    6.7795   -1.4572   21.0318 C   0  0  0  0  0  0  0  0  0  0  0  0
    7.9991   -1.5786   21.9566 C   0  0  2  0  0  0  0  0  0  0  0  0
    7.9004   -2.7136   22.9804 C   0  0  0  0  0  0  0  0  0  0  0  0
    7.6150   -3.9876   22.3429 N   0  0  0  0  0  0  0  0  0  0  0  0
    7.8634   -5.1479   22.9722 C   0  0  0  0  0  0  0  0  0  0  0  0
    8.0177   -5.0951   24.3059 N   0  0  0  0  0  0  0  0  0  0  0  0
    8.3370   -6.2581   24.8522 C   0  0  0  0  0  0  0  0  0  0  0  0
    8.5945   -7.3878   24.1974 N   0  0  0  0  0  0  0  0  0  0  0  0
    8.3643   -7.3181   22.8883 C   0  0  0  0  0  0  0  0  0  0  0  0
    7.9655   -6.2571   22.2064 N   0  0  0  0  0  0  0  0  0  0  0  0
    8.5352   -8.2350   22.3301 H   0  0  0  0  0  0  0  0  0  0  0  0
    8.4055   -6.3011   25.9386 H   0  0  0  0  0  0  0  0  0  0  0  0
    7.5585   -4.0470   21.3378 H   0  0  0  0  0  0  0  0  0  0  0  0
    7.1174   -2.5351   23.7293 H   0  0  0  0  0  0  0  0  0  0  0  0
    8.8461   -2.7816   23.5319 H   0  0  0  0  0  0  0  0  0  0  0  0
    8.8630   -1.7881   21.3135 H   0  0  0  0  0  0  0  0  0  0  0  0
    5.8407   -1.6638   21.5753 H   0  0  0  0  0  0  0  0  0  0  0  0
    6.8197   -2.1247   20.1672 H   0  0  0  0  0  0  0  0  0  0  0  0
   10.5496   -0.9074   21.2772 H   0  0  0  0  0  0  0  0  0  0  0  0
   13.2413    1.6368   23.4388 H   0  0  0  0  0  0  0  0  0  0  0  0
   11.2797    2.6927   24.6034 H   0  0  0  0  0  0  0  0  0  0  0  0
  1  2  2  0
  2  3  1  0
  3  4  2  0
  4  5  1  0
  5  6  2  0
  6  7  1  0
  6  8  1  0
  8  9  2  0
  9 10  1  0
 10 11  1  1
 11 12  1  0
 12 13  1  0
 13 14  1  0
 14 15  2  0
 15 16  1  0
 16 17  2  0
 17 18  1  0
 17 19  1  0
 13 20  1  0
 13 21  1  0
 11 22  1  0
 11 23  1  0
 10 24  1  0
 24 25  2  0
 24 26  1  0
 26 27  1  0
 27 28  2  0
 28 29  1  0
 29 30  2  0
 30 31  1  0
 31 32  2  0
 32 33  1  0
 33 34  2  0
 34 35  1  0
 35 36  2  0
 35 37  1  0
 34 38  1  0
 33 39  1  0
 32 40  1  0
 30 41  1  0
 28 42  1  0
 26 43  1  0
 43 44  1  0
 44 45  1  0
 45 46  1  0
 46 47  1  0
 47 48  2  0
 48 49  1  0
 49 50  2  0
 50 51  1  0
 51 52  2  0
 51 53  1  0
 49 54  1  0
 46 55  1  0
 45 56  1  0
 45 57  1  0
 44 58  1  6
 43 59  1  0
 43 60  1  0
  8 61  1  0
  5 62  1  0
  4 63  1  0
 12  2  1  0
 18 14  1  0
 36 27  1  0
 52 47  1  0
  9  3  1  0
 44 10  1  0
 36 31  1  0
M  END
>  <cnnaffinities>  (1) 
[6.57345, 6.10045]

>  <score>  (1) 
6.57345

>  <index>  (1) 
0

>  <Smiles>  (1) 
O=C1c2c(c(c(Cl)c(c2[C@@]2(C(N1C(c1nnc(o1)[H])([H])[H])([H])[H])C(=O)N(c1c(nc(c3c(c(c(c(c13)[H])[H])[H])[H])[H])[H])C([C@@]2(C(N(c1nc(nc(n1)[H])[H])[H])([H])[H])[H])([H])[H])[H])[H])[H]

>  <h>  (1) 
<NA>

>  <Training>  (1) 
True

>  <Success>  (1) 
True

>  <enamine_searched>  (1) 
False

>  <enamine_id>  (1) 
nan

$$$$

     RDKit          3D

 51 54  0  0  0  0  0  0  0  0999 V2000
   12.6428   -0.6756   24.8052 C   0  0  0  0  0  0  0  0  0  0  0  0
   12.3168   -1.6877   23.8799 O   0  0  0  0  0  0  0  0  0  0  0  0
   11.0226   -1.8520   23.4943 C   0  0  0  0  0  0  0  0  0  0  0  0
   10.8202   -2.8201   22.5047 C   0  0  0  0  0  0  0  0  0  0  0  0
    9.5425   -3.0586   22.0239 C   0  0  0  0  0  0  0  0  0  0  0  0
    8.4462   -2.3716   22.5449 C   0  0  0  0  0  0  0  0  0  0  0  0
    7.1405   -2.6980   22.0596 N   0  0  0  0  0  0  0  0  0  0  0  0
    6.5542   -3.9931   22.4251 C   0  0  0  0  0  0  0  0  0  0  0  0
    5.9811   -4.0031   23.8354 C   0  0  0  0  0  0  0  0  0  0  0  0
    6.8149   -4.2145   24.9333 C   0  0  0  0  0  0  0  0  0  0  0  0
    6.3144   -4.1583   26.2307 C   0  0  0  0  0  0  0  0  0  0  0  0
    4.9663   -3.8964   26.4515 C   0  0  0  0  0  0  0  0  0  0  0  0
    4.1347   -3.7111   25.3536 C   0  0  0  0  0  0  0  0  0  0  0  0
    2.4446   -3.3688   25.6140 Cl  0  0  0  0  0  0  0  0  0  0  0  0
    4.6227   -3.7636   24.0534 C   0  0  0  0  0  0  0  0  0  0  0  0
    3.9476   -3.5888   23.2199 H   0  0  0  0  0  0  0  0  0  0  0  0
    4.5585   -3.8270   27.4566 H   0  0  0  0  0  0  0  0  0  0  0  0
    6.9837   -4.3004   27.0785 H   0  0  0  0  0  0  0  0  0  0  0  0
    7.8739   -4.4069   24.7700 H   0  0  0  0  0  0  0  0  0  0  0  0
    5.7632   -4.2103   21.7011 H   0  0  0  0  0  0  0  0  0  0  0  0
    7.3412   -4.7531   22.3378 H   0  0  0  0  0  0  0  0  0  0  0  0
    6.2872   -1.7885   21.4675 C   0  0  0  0  0  0  0  0  0  0  0  0
    5.0912   -2.0129   21.3902 O   0  0  0  0  0  0  0  0  0  0  0  0
    6.9239   -0.5191   20.8873 C   0  0  0  0  0  0  0  0  0  0  0  0
    6.1148    0.0801   19.7660 C   0  0  0  0  0  0  0  0  0  0  0  0
    6.4255   -0.2145   18.4668 C   0  0  0  0  0  0  0  0  0  0  0  0
    5.7583    0.2440   17.3766 N   0  0  0  0  0  0  0  0  0  0  0  0
    4.7344    1.0285   17.5868 C   0  0  0  0  0  0  0  0  0  0  0  0
    4.2858    1.4170   18.8742 C   0  0  0  0  0  0  0  0  0  0  0  0
    3.1665    2.2716   19.0471 C   0  0  0  0  0  0  0  0  0  0  0  0
    2.7510    2.6231   20.3000 C   0  0  0  0  0  0  0  0  0  0  0  0
    3.4393    2.1331   21.4325 C   0  0  0  0  0  0  0  0  0  0  0  0
    4.5241    1.3034   21.2911 C   0  0  0  0  0  0  0  0  0  0  0  0
    4.9865    0.9261   20.0024 C   0  0  0  0  0  0  0  0  0  0  0  0
    5.0283    0.9126   22.1698 H   0  0  0  0  0  0  0  0  0  0  0  0
    3.0993    2.4163   22.4259 H   0  0  0  0  0  0  0  0  0  0  0  0
    1.8937    3.2801   20.4293 H   0  0  0  0  0  0  0  0  0  0  0  0
    2.6645    2.6400   18.1549 H   0  0  0  0  0  0  0  0  0  0  0  0
    4.2062    1.3950   16.7039 H   0  0  0  0  0  0  0  0  0  0  0  0
    7.2708   -0.8634   18.2329 H   0  0  0  0  0  0  0  0  0  0  0  0
    7.0693    0.2040   21.7024 H   0  0  0  0  0  0  0  0  0  0  0  0
    7.9327   -0.7886   20.5518 H   0  0  0  0  0  0  0  0  0  0  0  0
    8.6542   -1.4071   23.5288 C   0  0  0  0  0  0  0  0  0  0  0  0
    9.9397   -1.1376   23.9984 C   0  0  0  0  0  0  0  0  0  0  0  0
   10.0904   -0.3639   24.7455 H   0  0  0  0  0  0  0  0  0  0  0  0
    7.7984   -0.8701   23.9369 H   0  0  0  0  0  0  0  0  0  0  0  0
    9.3542   -3.7642   21.2187 H   0  0  0  0  0  0  0  0  0  0  0  0
   11.6955   -3.3612   22.1465 H   0  0  0  0  0  0  0  0  0  0  0  0
   12.3633    0.3204   24.4338 H   0  0  0  0  0  0  0  0  0  0  0  0
   13.7292   -0.7542   24.9156 H   0  0  0  0  0  0  0  0  0  0  0  0
   12.1480   -0.8387   25.7695 H   0  0  0  0  0  0  0  0  0  0  0  0
  1  2  1  0
  2  3  1  0
  3  4  2  0
  4  5  1  0
  5  6  2  0
  6  7  1  0
  7  8  1  0
  8  9  1  0
  9 10  2  0
 10 11  1  0
 11 12  2  0
 12 13  1  0
 13 14  1  0
 13 15  2  0
 15 16  1  0
 12 17  1  0
 11 18  1  0
 10 19  1  0
  8 20  1  0
  8 21  1  0
  7 22  1  0
 22 23  2  0
 22 24  1  0
 24 25  1  0
 25 26  2  0
 26 27  1  0
 27 28  2  0
 28 29  1  0
 29 30  2  0
 30 31  1  0
 31 32  2  0
 32 33  1  0
 33 34  2  0
 33 35  1  0
 32 36  1  0
 31 37  1  0
 30 38  1  0
 28 39  1  0
 26 40  1  0
 24 41  1  0
 24 42  1  0
  6 43  1  0
 43 44  2  0
 44 45  1  0
 43 46  1  0
  5 47  1  0
  4 48  1  0
  1 49  1  0
  1 50  1  0
  1 51  1  0
 44  3  1  0
 15  9  1  0
 34 25  1  0
 34 29  1  0
M  END
>  <cnnaffinities>  (2) 
[6.37885]

>  <score>  (2) 
6.37885

>  <index>  (2) 
1

>  <Smiles>  (2) 
C(Oc1c(c(c(N(C(c2c(c(c(c(Cl)c2[H])[H])[H])[H])([H])[H])C(=O)C(c2c(nc(c3c(c(c(c(c23)[H])[H])[H])[H])[H])[H])([H])[H])c(c1[H])[H])[H])[H])([H])([H])[H]

>  <h>  (2) 
<NA>

>  <Training>  (2) 
True

>  <Success>  (2) 
True

>  <enamine_searched>  (2) 
False

>  <enamine_id>  (2) 
nan

$$$$

     RDKit          3D

 56 60  0  0  0  0  0  0  0  0999 V2000
    7.6749   -8.5471   22.7557 C   0  0  0  0  0  0  0  0  0  0  0  0
    6.8518   -7.3694   22.6020 N   0  0  0  0  0  0  0  0  0  0  0  0
    7.1549   -6.3789   21.7307 C   0  0  0  0  0  0  0  0  0  0  0  0
    8.0737   -6.4301   20.9337 O   0  0  0  0  0  0  0  0  0  0  0  0
    6.2076   -5.1823   21.8601 C   0  0  0  0  0  0  0  0  0  0  0  0
    6.7158   -4.2055   22.8050 N   0  0  0  0  0  0  0  0  0  0  0  0
    7.7953   -3.3170   22.4240 C   0  0  0  0  0  0  0  0  0  0  0  0
    7.4233   -1.8372   22.6939 C   0  0  2  0  0  0  0  0  0  0  0  0
    6.3328   -1.4194   21.6826 C   0  0  0  0  0  0  0  0  0  0  0  0
    5.2110   -1.8804   21.5954 O   0  0  0  0  0  0  0  0  0  0  0  0
    6.8526   -0.4492   20.8555 N   0  0  0  0  0  0  0  0  0  0  0  0
    6.1081    0.0849   19.7852 C   0  0  0  0  0  0  0  0  0  0  0  0
    6.4556   -0.2057   18.4910 C   0  0  0  0  0  0  0  0  0  0  0  0
    5.7944    0.2460   17.4011 N   0  0  0  0  0  0  0  0  0  0  0  0
    4.7582    1.0211   17.6049 C   0  0  0  0  0  0  0  0  0  0  0  0
    4.3016    1.4138   18.8949 C   0  0  0  0  0  0  0  0  0  0  0  0
    3.1871    2.2772   19.0521 C   0  0  0  0  0  0  0  0  0  0  0  0
    2.7837    2.6636   20.3005 C   0  0  0  0  0  0  0  0  0  0  0  0
    3.4785    2.2148   21.4439 C   0  0  0  0  0  0  0  0  0  0  0  0
    4.5595    1.3797   21.3179 C   0  0  0  0  0  0  0  0  0  0  0  0
    4.9918    0.9452   20.0313 C   0  0  0  0  0  0  0  0  0  0  0  0
    5.0855    1.0446   22.2060 H   0  0  0  0  0  0  0  0  0  0  0  0
    3.1533    2.5429   22.4269 H   0  0  0  0  0  0  0  0  0  0  0  0
    1.9373    3.3330   20.4154 H   0  0  0  0  0  0  0  0  0  0  0  0
    2.6796    2.6291   18.1587 H   0  0  0  0  0  0  0  0  0  0  0  0
    4.2242    1.3851   16.7275 H   0  0  0  0  0  0  0  0  0  0  0  0
    7.3027   -0.8616   18.2959 H   0  0  0  0  0  0  0  0  0  0  0  0
    8.2953   -0.3226   20.9475 C   0  0  0  0  0  0  0  0  0  0  0  0
    8.5994   -0.8881   22.3428 C   0  0  2  0  0  0  0  0  0  0  0  0
    9.9524   -1.5495   22.4051 N   0  0  0  0  0  4  0  0  0  0  0  0
   10.0219   -2.3087   21.7041 H   0  0  0  0  0  0  0  0  0  0  0  0
   10.6976   -0.8617   22.2051 H   0  0  0  0  0  0  0  0  0  0  0  0
   10.1206   -1.9452   23.3445 H   0  0  0  0  0  0  0  0  0  0  0  0
    8.6175   -0.0763   23.0631 H   0  0  0  0  0  0  0  0  0  0  0  0
    8.8151   -0.9077   20.1734 H   0  0  0  0  0  0  0  0  0  0  0  0
    8.5816    0.7267   20.8389 H   0  0  0  0  0  0  0  0  0  0  0  0
    6.9079   -1.7072   24.1114 C   0  0  0  0  0  0  0  0  0  0  0  0
    6.8442   -0.4711   24.7695 C   0  0  0  0  0  0  0  0  0  0  0  0
    6.3630   -0.4143   26.0651 C   0  0  0  0  0  0  0  0  0  0  0  0
    6.2476    1.1233   26.8636 Cl  0  0  0  0  0  0  0  0  0  0  0  0
    5.9409   -1.5511   26.7519 C   0  0  0  0  0  0  0  0  0  0  0  0
    5.9406   -2.7528   26.0781 C   0  0  0  0  0  0  0  0  0  0  0  0
    6.3615   -2.8202   24.7549 C   0  0  0  0  0  0  0  0  0  0  0  0
    6.0756   -4.0730   23.9963 C   0  0  0  0  0  0  0  0  0  0  0  0
    5.2671   -4.9074   24.3908 O   0  0  0  0  0  0  0  0  0  0  0  0
    5.5814   -3.6633   26.5358 H   0  0  0  0  0  0  0  0  0  0  0  0
    5.5767   -1.4757   27.7703 H   0  0  0  0  0  0  0  0  0  0  0  0
    7.1279    0.4531   24.2776 H   0  0  0  0  0  0  0  0  0  0  0  0
    8.7214   -3.5779   22.9524 H   0  0  0  0  0  0  0  0  0  0  0  0
    7.9469   -3.4608   21.3582 H   0  0  0  0  0  0  0  0  0  0  0  0
    6.0548   -4.6860   20.8958 H   0  0  0  0  0  0  0  0  0  0  0  0
    5.2351   -5.5149   22.2417 H   0  0  0  0  0  0  0  0  0  0  0  0
    6.1429   -7.1783   23.2930 H   0  0  0  0  0  0  0  0  0  0  0  0
    7.0461   -9.3798   23.0803 H   0  0  0  0  0  0  0  0  0  0  0  0
    8.5094   -8.3886   23.4537 H   0  0  0  0  0  0  0  0  0  0  0  0
    8.0902   -8.8018   21.7935 H   0  0  0  0  0  0  0  0  0  0  0  0
  1  2  1  0
  2  3  1  0
  3  4  2  0
  3  5  1  0
  5  6  1  0
  6  7  1  0
  8  7  1  6
  8  9  1  0
  9 10  2  0
  9 11  1  0
 11 12  1  0
 12 13  2  0
 13 14  1  0
 14 15  2  0
 15 16  1  0
 16 17  2  0
 17 18  1  0
 18 19  2  0
 19 20  1  0
 20 21  2  0
 20 22  1  0
 19 23  1  0
 18 24  1  0
 17 25  1  0
 15 26  1  0
 13 27  1  0
 11 28  1  0
 28 29  1  0
 29 30  1  0
 30 31  1  0
 30 32  1  0
 30 33  1  0
 29 34  1  1
 28 35  1  0
 28 36  1  0
  8 37  1  0
 37 38  2  0
 38 39  1  0
 39 40  1  0
 39 41  2  0
 41 42  1  0
 42 43  2  0
 43 44  1  0
 44 45  2  0
 42 46  1  0
 41 47  1  0
 38 48  1  0
  7 49  1  0
  7 50  1  0
  5 51  1  0
  5 52  1  0
  2 53  1  0
  1 54  1  0
  1 55  1  0
  1 56  1  0
 44  6  1  0
 29  8  1  0
 43 37  1  0
 21 12  1  0
 21 16  1  0
M  CHG  1  30   1
M  END
>  <cnnaffinities>  (3) 
[6.52303]

>  <score>  (3) 
6.52303

>  <index>  (3) 
2

>  <Smiles>  (3) 
C(N(C(=O)C(N1C([C@@]2(C(=O)N(c3c(nc(c4c(c(c(c(c34)[H])[H])[H])[H])[H])[H])C([C@@]2([N+]([H])([H])[H])[H])([H])[H])c2c(c(Cl)c(c(c2C1=O)[H])[H])[H])([H])[H])([H])[H])[H])([H])([H])[H]

>  <h>  (3) 
<NA>

>  <Training>  (3) 
True

>  <Success>  (3) 
True

>  <enamine_searched>  (3) 
False

>  <enamine_id>  (3) 
nan

$$$$

     RDKit          3D

 67 73  0  0  0  0  0  0  0  0999 V2000
   10.6806    2.4928   23.9994 O   0  0  0  0  0  0  0  0  0  0  0  0
   10.0182    1.4837   23.7875 C   0  0  0  0  0  0  0  0  0  0  0  0
   10.6181    0.1912   23.3345 C   0  0  0  0  0  0  0  0  0  0  0  0
   11.9718   -0.0536   23.5302 C   0  0  0  0  0  0  0  0  0  0  0  0
   12.5541   -1.2020   23.0274 C   0  0  0  0  0  0  0  0  0  0  0  0
   11.7883   -2.0178   22.1867 C   0  0  0  0  0  0  0  0  0  0  0  0
   12.4618   -3.3791   21.3314 Cl  0  0  0  0  0  0  0  0  0  0  0  0
   10.4433   -1.7948   22.0039 C   0  0  0  0  0  0  0  0  0  0  0  0
    9.8173   -0.7523   22.6794 C   0  0  0  0  0  0  0  0  0  0  0  0
    8.3195   -0.6076   22.6202 C   0  0  1  0  0  0  0  0  0  0  0  0
    7.8983    0.2184   23.8631 C   0  0  0  0  0  0  0  0  0  0  0  0
    8.6552    1.4598   23.9363 N   0  0  0  0  0  0  0  0  0  0  0  0
    7.9805    2.7200   24.2028 C   0  0  0  0  0  0  0  0  0  0  0  0
    7.5260    2.8861   25.6431 C   0  0  0  0  0  0  0  0  0  0  0  0
    6.4442    2.2374   26.1994 C   0  0  0  0  0  0  0  0  0  0  0  0
    6.2557    2.3741   27.5772 C   0  0  0  0  0  0  0  0  0  0  0  0
    7.0086    3.1304   28.3688 N   0  0  0  0  0  0  0  0  0  0  0  0
    8.0245    3.7968   27.8345 N   0  0  0  0  0  0  0  0  0  0  0  0
    8.2692    3.6735   26.5329 C   0  0  0  0  0  0  0  0  0  0  0  0
    9.1391    4.2192   26.1671 H   0  0  0  0  0  0  0  0  0  0  0  0
    5.4425    1.8426   28.0654 H   0  0  0  0  0  0  0  0  0  0  0  0
    5.7502    1.6290   25.6121 H   0  0  0  0  0  0  0  0  0  0  0  0
    7.1491    2.8336   23.4945 H   0  0  0  0  0  0  0  0  0  0  0  0
    8.7073    3.5054   23.9910 H   0  0  0  0  0  0  0  0  0  0  0  0
    8.0864   -0.3892   24.7611 H   0  0  0  0  0  0  0  0  0  0  0  0
    6.8251    0.4454   23.8371 H   0  0  0  0  0  0  0  0  0  0  0  0
    7.9278    0.1189   21.3177 C   0  0  0  0  0  0  0  0  0  0  0  0
    8.4707    1.0726   20.8040 O   0  0  0  0  0  0  0  0  0  0  0  0
    6.8123   -0.5070   20.8086 N   0  0  0  0  0  0  0  0  0  0  0  0
    6.0851    0.0715   19.7487 C   0  0  0  0  0  0  0  0  0  0  0  0
    6.4426   -0.2041   18.4574 C   0  0  0  0  0  0  0  0  0  0  0  0
    5.7776    0.2550   17.3709 N   0  0  0  0  0  0  0  0  0  0  0  0
    4.7417    1.0257   17.5836 C   0  0  0  0  0  0  0  0  0  0  0  0
    4.2873    1.4177   18.8758 C   0  0  0  0  0  0  0  0  0  0  0  0
    3.1765    2.2803   19.0485 C   0  0  0  0  0  0  0  0  0  0  0  0
    2.7809    2.6546   20.3011 C   0  0  0  0  0  0  0  0  0  0  0  0
    3.4778    2.1936   21.4399 C   0  0  0  0  0  0  0  0  0  0  0  0
    4.5556    1.3563   21.3030 C   0  0  0  0  0  0  0  0  0  0  0  0
    4.9791    0.9376   20.0075 C   0  0  0  0  0  0  0  0  0  0  0  0
    5.0904    1.0252   22.1896 H   0  0  0  0  0  0  0  0  0  0  0  0
    3.1527    2.5047   22.4273 H   0  0  0  0  0  0  0  0  0  0  0  0
    1.9311    3.3160   20.4288 H   0  0  0  0  0  0  0  0  0  0  0  0
    2.6634    2.6367   18.1602 H   0  0  0  0  0  0  0  0  0  0  0  0
    4.2024    1.3865   16.7076 H   0  0  0  0  0  0  0  0  0  0  0  0
    7.3092   -0.8345   18.2739 H   0  0  0  0  0  0  0  0  0  0  0  0
    6.3204   -1.6126   21.5989 C   0  0  0  0  0  0  0  0  0  0  0  0
    7.5282   -1.9421   22.4832 C   0  0  2  0  0  0  0  0  0  0  0  0
    7.1561   -2.6443   23.7956 C   0  0  0  0  0  0  0  0  0  0  0  0
    6.5318   -3.9399   23.6094 N   0  0  0  0  0  0  0  0  0  0  0  0
    5.1967   -4.1377   23.4233 C   0  0  0  0  0  0  0  0  0  0  0  0
    4.1968   -3.2834   23.9303 C   0  0  0  0  0  0  0  0  0  0  0  0
    2.8888   -3.6793   23.7376 C   0  0  0  0  0  0  0  0  0  0  0  0
    2.5426   -4.7706   23.0470 N   0  0  0  0  0  0  0  0  0  0  0  0
    3.5665   -5.4695   22.5733 C   0  0  0  0  0  0  0  0  0  0  0  0
    4.8627   -5.2426   22.7362 N   0  0  0  0  0  0  0  0  0  0  0  0
    3.3111   -6.3386   21.9699 H   0  0  0  0  0  0  0  0  0  0  0  0
    2.0631   -3.0835   24.1341 H   0  0  0  0  0  0  0  0  0  0  0  0
    4.4241   -2.3612   24.4541 H   0  0  0  0  0  0  0  0  0  0  0  0
    7.0910   -4.6739   23.1952 H   0  0  0  0  0  0  0  0  0  0  0  0
    8.0541   -2.7668   24.4125 H   0  0  0  0  0  0  0  0  0  0  0  0
    6.4638   -2.0169   24.3645 H   0  0  0  0  0  0  0  0  0  0  0  0
    8.1485   -2.6317   21.9019 H   0  0  0  0  0  0  0  0  0  0  0  0
    6.0220   -2.4410   20.9487 H   0  0  0  0  0  0  0  0  0  0  0  0
    5.4360   -1.3366   22.1969 H   0  0  0  0  0  0  0  0  0  0  0  0
    9.8982   -2.4276   21.3124 H   0  0  0  0  0  0  0  0  0  0  0  0
   13.5793   -1.4471   23.2730 H   0  0  0  0  0  0  0  0  0  0  0  0
   12.5529    0.6733   24.0801 H   0  0  0  0  0  0  0  0  0  0  0  0
  1  2  2  0
  2  3  1  0
  3  4  2  0
  4  5  1  0
  5  6  2  0
  6  7  1  0
  6  8  1  0
  8  9  2  0
  9 10  1  0
 10 11  1  1
 11 12  1  0
 12 13  1  0
 13 14  1  0
 14 15  2  0
 15 16  1  0
 16 17  2  0
 17 18  1  0
 18 19  2  0
 19 20  1  0
 16 21  1  0
 15 22  1  0
 13 23  1  0
 13 24  1  0
 11 25  1  0
 11 26  1  0
 10 27  1  0
 27 28  2  0
 27 29  1  0
 29 30  1  0
 30 31  2  0
 31 32  1  0
 32 33  2  0
 33 34  1  0
 34 35  2  0
 35 36  1  0
 36 37  2  0
 37 38  1  0
 38 39  2  0
 38 40  1  0
 37 41  1  0
 36 42  1  0
 35 43  1  0
 33 44  1  0
 31 45  1  0
 29 46  1  0
 46 47  1  0
 47 48  1  0
 48 49  1  0
 49 50  1  0
 50 51  2  0
 51 52  1  0
 52 53  2  0
 53 54  1  0
 54 55  2  0
 54 56  1  0
 52 57  1  0
 51 58  1  0
 49 59  1  0
 48 60  1  0
 48 61  1  0
 47 62  1  6
 46 63  1  0
 46 64  1  0
  8 65  1  0
  5 66  1  0
  4 67  1  0
 12  2  1  0
 19 14  1  0
 39 30  1  0
 55 50  1  0
  9  3  1  0
 47 10  1  0
 39 34  1  0
M  END
>  <cnnaffinities>  (4) 
[6.39615, 6.84954]

>  <score>  (4) 
6.39615

>  <index>  (4) 
3

>  <Smiles>  (4) 
O=C1c2c(c(c(Cl)c(c2[C@@]2(C(N1C(c1c(c(nnc1[H])[H])[H])([H])[H])([H])[H])C(=O)N(c1c(nc(c3c(c(c(c(c13)[H])[H])[H])[H])[H])[H])C([C@@]2(C(N(c1c(c(nc(n1)[H])[H])[H])[H])([H])[H])[H])([H])[H])[H])[H])[H]

>  <h>  (4) 
<NA>

>  <Training>  (4) 
True

>  <Success>  (4) 
True

>  <enamine_searched>  (4) 
False

>  <enamine_id>  (4) 
nan

$$$$

     RDKit          3D

 41 44  0  0  0  0  0  0  0  0999 V2000
    9.0935    2.1725   23.9870 C   0  0  0  0  0  0  0  0  0  0  0  0
    9.7489    1.2179   22.9817 C   0  0  1  0  0  0  0  0  0  0  0  0
   10.9876    0.6134   23.5605 C   0  0  0  0  0  0  0  0  0  0  0  0
   12.2976    1.1950   23.6264 C   0  0  0  0  0  0  0  0  0  0  0  0
   13.1827    0.3734   24.2506 C   0  0  0  0  0  0  0  0  0  0  0  0
   12.4219   -1.0499   24.8472 S   0  0  0  0  0  0  0  0  0  0  0  0
   10.9131   -0.5877   24.1754 C   0  0  0  0  0  0  0  0  0  0  0  0
    9.6477   -1.3655   24.2867 C   0  0  0  0  0  0  0  0  0  0  0  0
    8.8156   -1.1901   23.0184 C   0  0  0  0  0  0  0  0  0  0  0  0
    8.7995    0.1859   22.5096 N   0  0  0  0  0  0  0  0  0  0  0  0
    7.9543    0.5844   21.5050 C   0  0  0  0  0  0  0  0  0  0  0  0
    7.9846    1.7271   21.0713 O   0  0  0  0  0  0  0  0  0  0  0  0
    6.9630   -0.4529   20.9163 C   0  0  0  0  0  0  0  0  0  0  0  0
    6.1269    0.0921   19.7820 C   0  0  0  0  0  0  0  0  0  0  0  0
    6.4346   -0.2058   18.4814 C   0  0  0  0  0  0  0  0  0  0  0  0
    5.7675    0.2482   17.3890 N   0  0  0  0  0  0  0  0  0  0  0  0
    4.7412    1.0302   17.5903 C   0  0  0  0  0  0  0  0  0  0  0  0
    4.2933    1.4240   18.8776 C   0  0  0  0  0  0  0  0  0  0  0  0
    3.1757    2.2789   19.0488 C   0  0  0  0  0  0  0  0  0  0  0  0
    2.7708    2.6489   20.2994 C   0  0  0  0  0  0  0  0  0  0  0  0
    3.4745    2.1770   21.4337 C   0  0  0  0  0  0  0  0  0  0  0  0
    4.5612    1.3508   21.2925 C   0  0  0  0  0  0  0  0  0  0  0  0
    5.0033    0.9482   20.0057 C   0  0  0  0  0  0  0  0  0  0  0  0
    5.0982    0.9978   22.1685 H   0  0  0  0  0  0  0  0  0  0  0  0
    3.1458    2.4752   22.4237 H   0  0  0  0  0  0  0  0  0  0  0  0
    1.9196    3.3111   20.4304 H   0  0  0  0  0  0  0  0  0  0  0  0
    2.6640    2.6379   18.1588 H   0  0  0  0  0  0  0  0  0  0  0  0
    4.2100    1.3872   16.7063 H   0  0  0  0  0  0  0  0  0  0  0  0
    7.2749   -0.8569   18.2389 H   0  0  0  0  0  0  0  0  0  0  0  0
    6.3161   -0.8461   21.7140 H   0  0  0  0  0  0  0  0  0  0  0  0
    7.5424   -1.3118   20.5493 H   0  0  0  0  0  0  0  0  0  0  0  0
    9.1987   -1.8702   22.2430 H   0  0  0  0  0  0  0  0  0  0  0  0
    7.7873   -1.4837   23.2422 H   0  0  0  0  0  0  0  0  0  0  0  0
    9.8451   -2.4268   24.4463 H   0  0  0  0  0  0  0  0  0  0  0  0
    9.0984   -1.0082   25.1685 H   0  0  0  0  0  0  0  0  0  0  0  0
   14.2572    0.4216   24.2984 H   0  0  0  0  0  0  0  0  0  0  0  0
   12.5610    2.1681   23.2241 H   0  0  0  0  0  0  0  0  0  0  0  0
   10.0169    1.7888   22.0865 H   0  0  0  0  0  0  0  0  0  0  0  0
    8.7819    1.6108   24.8732 H   0  0  0  0  0  0  0  0  0  0  0  0
    9.8375    2.9131   24.2978 H   0  0  0  0  0  0  0  0  0  0  0  0
    8.2326    2.6851   23.5488 H   0  0  0  0  0  0  0  0  0  0  0  0
  1  2  1  0
  2  3  1  0
  3  4  1  0
  4  5  2  0
  5  6  1  0
  6  7  1  0
  7  8  1  0
  8  9  1  0
  9 10  1  0
 10 11  1  0
 11 12  2  0
 11 13  1  0
 13 14  1  0
 14 15  2  0
 15 16  1  0
 16 17  2  0
 17 18  1  0
 18 19  2  0
 19 20  1  0
 20 21  2  0
 21 22  1  0
 22 23  2  0
 22 24  1  0
 21 25  1  0
 20 26  1  0
 19 27  1  0
 17 28  1  0
 15 29  1  0
 13 30  1  0
 13 31  1  0
  9 32  1  0
  9 33  1  0
  8 34  1  0
  8 35  1  0
  5 36  1  0
  4 37  1  0
  2 38  1  6
  1 39  1  0
  1 40  1  0
  1 41  1  0
 10  2  1  0
 23 14  1  0
  7  3  2  0
 23 18  1  0
M  END
>  <cnnaffinities>  (5) 
[5.73539]

>  <score>  (5) 
5.73539

>  <index>  (5) 
4

>  <Smiles>  (5) 
C([C@]1(c2c(c(sc2C(C(N1C(=O)C(c1c(nc(c2c(c(c(c(c12)[H])[H])[H])[H])[H])[H])([H])[H])([H])[H])([H])[H])[H])[H])[H])([H])([H])[H]

>  <h>  (5) 
<NA>

>  <Training>  (5) 
True

>  <Success>  (5) 
True

>  <enamine_searched>  (5) 
False

>  <enamine_id>  (5) 
nan

$$$$

     RDKit          3D

 50 54  0  0  0  0  0  0  0  0999 V2000
   10.0277   -1.5385   22.4142 C   0  0  0  0  0  0  0  0  0  0  0  0
    8.6218   -0.9258   22.3525 C   0  0  1  0  0  0  0  0  0  0  0  0
    8.2965   -0.3479   20.9607 C   0  0  0  0  0  0  0  0  0  0  0  0
    6.8516   -0.4671   20.8548 N   0  0  0  0  0  0  0  0  0  0  0  0
    6.1018    0.0654   19.7809 C   0  0  0  0  0  0  0  0  0  0  0  0
    6.4443   -0.2229   18.4843 C   0  0  0  0  0  0  0  0  0  0  0  0
    5.7819    0.2453   17.4010 N   0  0  0  0  0  0  0  0  0  0  0  0
    4.7503    1.0239   17.6038 C   0  0  0  0  0  0  0  0  0  0  0  0
    4.2916    1.4171   18.8904 C   0  0  0  0  0  0  0  0  0  0  0  0
    3.1765    2.2809   19.0581 C   0  0  0  0  0  0  0  0  0  0  0  0
    2.7770    2.6640   20.3089 C   0  0  0  0  0  0  0  0  0  0  0  0
    3.4854    2.2099   21.4467 C   0  0  0  0  0  0  0  0  0  0  0  0
    4.5675    1.3765   21.3057 C   0  0  0  0  0  0  0  0  0  0  0  0
    4.9894    0.9377   20.0217 C   0  0  0  0  0  0  0  0  0  0  0  0
    5.1040    1.0255   22.1809 H   0  0  0  0  0  0  0  0  0  0  0  0
    3.1631    2.5150   22.4363 H   0  0  0  0  0  0  0  0  0  0  0  0
    1.9250    3.3249   20.4355 H   0  0  0  0  0  0  0  0  0  0  0  0
    2.6644    2.6364   18.1666 H   0  0  0  0  0  0  0  0  0  0  0  0
    4.2245    1.3776   16.7181 H   0  0  0  0  0  0  0  0  0  0  0  0
    7.2834   -0.8768   18.2578 H   0  0  0  0  0  0  0  0  0  0  0  0
    6.3167   -1.3968   21.7223 C   0  0  0  0  0  0  0  0  0  0  0  0
    5.1698   -1.7892   21.6909 O   0  0  0  0  0  0  0  0  0  0  0  0
    7.4385   -1.8717   22.6898 C   0  0  1  0  0  0  0  0  0  0  0  0
    7.7634   -3.3439   22.3514 C   0  0  0  0  0  0  0  0  0  0  0  0
    6.6385   -4.1903   22.6864 N   0  0  0  0  0  0  0  0  0  0  0  0
    6.1598   -5.2064   21.7893 C   0  0  0  0  0  0  0  0  0  0  0  0
    6.7743   -6.5333   22.0183 C   0  0  0  0  0  0  0  0  0  0  0  0
    7.2116   -7.5891   22.1892 N   0  0  0  0  0  0  0  0  0  0  0  0
    5.0798   -5.3149   21.9175 H   0  0  0  0  0  0  0  0  0  0  0  0
    6.3297   -4.8958   20.7553 H   0  0  0  0  0  0  0  0  0  0  0  0
    6.0768   -4.1387   23.9320 C   0  0  0  0  0  0  0  0  0  0  0  0
    5.2923   -4.9862   24.3239 O   0  0  0  0  0  0  0  0  0  0  0  0
    6.4093   -2.9320   24.7341 C   0  0  0  0  0  0  0  0  0  0  0  0
    5.9560   -2.9149   26.0489 C   0  0  0  0  0  0  0  0  0  0  0  0
    5.9398   -1.7394   26.7629 C   0  0  0  0  0  0  0  0  0  0  0  0
    6.3732   -0.5895   26.1082 C   0  0  0  0  0  0  0  0  0  0  0  0
    6.3072    0.5696   26.7800 F   0  0  0  0  0  0  0  0  0  0  0  0
    6.8707   -0.5834   24.8194 C   0  0  0  0  0  0  0  0  0  0  0  0
    6.9575   -1.7989   24.1263 C   0  0  0  0  0  0  0  0  0  0  0  0
    7.1385    0.3714   24.3703 H   0  0  0  0  0  0  0  0  0  0  0  0
    5.5725   -1.6845   27.7817 H   0  0  0  0  0  0  0  0  0  0  0  0
    5.5681   -3.8458   26.4398 H   0  0  0  0  0  0  0  0  0  0  0  0
    7.9512   -3.3906   21.2798 H   0  0  0  0  0  0  0  0  0  0  0  0
    8.6723   -3.6679   22.8861 H   0  0  0  0  0  0  0  0  0  0  0  0
    8.5955    0.7008   20.8702 H   0  0  0  0  0  0  0  0  0  0  0  0
    8.8152   -0.9172   20.1741 H   0  0  0  0  0  0  0  0  0  0  0  0
    8.5519   -0.1208   23.0885 H   0  0  0  0  0  0  0  0  0  0  0  0
   10.2381   -2.0054   23.3842 H   0  0  0  0  0  0  0  0  0  0  0  0
   10.7942   -0.7760   22.2365 H   0  0  0  0  0  0  0  0  0  0  0  0
   10.1553   -2.3158   21.6490 H   0  0  0  0  0  0  0  0  0  0  0  0
  1  2  1  0
  2  3  1  0
  3  4  1  0
  4  5  1  0
  5  6  2  0
  6  7  1  0
  7  8  2  0
  8  9  1  0
  9 10  2  0
 10 11  1  0
 11 12  2  0
 12 13  1  0
 13 14  2  0
 13 15  1  0
 12 16  1  0
 11 17  1  0
 10 18  1  0
  8 19  1  0
  6 20  1  0
  4 21  1  0
 21 22  2  0
 21 23  1  0
 23 24  1  6
 24 25  1  0
 25 26  1  0
 26 27  1  0
 27 28  3  0
 26 29  1  0
 26 30  1  0
 25 31  1  0
 31 32  2  0
 31 33  1  0
 33 34  2  0
 34 35  1  0
 35 36  2  0
 36 37  1  0
 36 38  1  0
 38 39  2  0
 38 40  1  0
 35 41  1  0
 34 42  1  0
 24 43  1  0
 24 44  1  0
  3 45  1  0
  3 46  1  0
  2 47  1  1
  1 48  1  0
  1 49  1  0
  1 50  1  0
 23  2  1  0
 39 33  1  0
 14  5  1  0
 39 23  1  0
 14  9  1  0
M  END
>  <cnnaffinities>  (6) 
[6.0069]

>  <score>  (6) 
6.0069

>  <index>  (6) 
5

>  <Smiles>  (6) 
C([C@]1(C(N(c2c(nc(c3c(c(c(c(c23)[H])[H])[H])[H])[H])[H])C(=O)[C@]21C(N(C(C#N)([H])[H])C(=O)c1c(c(c(F)c(c21)[H])[H])[H])([H])[H])([H])[H])[H])([H])([H])[H]

>  <h>  (6) 
<NA>

>  <Training>  (6) 
True

>  <Success>  (6) 
True

>  <enamine_searched>  (6) 
False

>  <enamine_id>  (6) 
nan

$$$$

     RDKit          3D

 65 69  0  0  0  0  0  0  0  0999 V2000
    8.1485   -5.5979   27.0294 C   0  0  0  0  0  0  0  0  0  0  0  0
    9.2893   -5.5650   26.0016 C   0  0  0  0  0  0  0  0  0  0  0  0
    8.9414   -4.5921   24.8961 C   0  0  0  0  0  0  0  0  0  0  0  0
    8.2527   -4.8788   23.9496 O   0  0  0  0  0  0  0  0  0  0  0  0
    9.5319   -3.2303   24.9352 N   0  0  1  0  0  4  0  0  0  0  0  0
   10.7869   -3.0594   23.9595 C   0  0  0  0  0  0  0  0  0  0  0  0
   11.1058   -1.6023   23.8166 C   0  0  0  0  0  0  0  0  0  0  0  0
    9.9251   -0.9049   23.1742 C   0  0  0  0  0  0  0  0  0  0  0  0
    8.6339   -1.1007   23.9331 C   0  0  0  0  0  0  0  0  0  0  0  0
    7.5745   -0.2000   23.7641 C   0  0  0  0  0  0  0  0  0  0  0  0
    7.7788    0.8711   22.8458 N   0  0  0  0  0  0  0  0  0  0  0  0
    8.2833    2.1154   23.4282 C   0  0  0  0  0  0  0  0  0  0  0  0
    7.1744    3.1312   23.4473 C   0  0  0  0  0  0  0  0  0  0  0  0
    6.2748    3.2292   24.5081 C   0  0  0  0  0  0  0  0  0  0  0  0
    5.1897    4.0919   24.4049 C   0  0  0  0  0  0  0  0  0  0  0  0
    5.0396    4.9009   23.2801 C   0  0  0  0  0  0  0  0  0  0  0  0
    5.9623    4.8025   22.2445 C   0  0  0  0  0  0  0  0  0  0  0  0
    5.8541    5.8924   20.8936 Cl  0  0  0  0  0  0  0  0  0  0  0  0
    6.9836    3.8739   22.2855 C   0  0  0  0  0  0  0  0  0  0  0  0
    7.6151    3.6820   21.4204 H   0  0  0  0  0  0  0  0  0  0  0  0
    4.1997    5.5764   23.1712 H   0  0  0  0  0  0  0  0  0  0  0  0
    4.4464    4.1345   25.1970 H   0  0  0  0  0  0  0  0  0  0  0  0
    6.4106    2.6262   25.4094 H   0  0  0  0  0  0  0  0  0  0  0  0
    8.6417    1.8872   24.4380 H   0  0  0  0  0  0  0  0  0  0  0  0
    9.1232    2.4726   22.8206 H   0  0  0  0  0  0  0  0  0  0  0  0
    7.7916    0.7164   21.4715 C   0  0  0  0  0  0  0  0  0  0  0  0
    8.4377    1.4451   20.7311 O   0  0  0  0  0  0  0  0  0  0  0  0
    6.9489   -0.4175   20.8768 C   0  0  0  0  0  0  0  0  0  0  0  0
    6.1047    0.0871   19.7415 C   0  0  0  0  0  0  0  0  0  0  0  0
    6.4326   -0.1920   18.4437 C   0  0  0  0  0  0  0  0  0  0  0  0
    5.7666    0.2686   17.3544 N   0  0  0  0  0  0  0  0  0  0  0  0
    4.7401    1.0482   17.5745 C   0  0  0  0  0  0  0  0  0  0  0  0
    4.2912    1.4361   18.8642 C   0  0  0  0  0  0  0  0  0  0  0  0
    3.1809    2.2961   19.0443 C   0  0  0  0  0  0  0  0  0  0  0  0
    2.7675    2.6442   20.2981 C   0  0  0  0  0  0  0  0  0  0  0  0
    3.4586    2.1545   21.4324 C   0  0  0  0  0  0  0  0  0  0  0  0
    4.5454    1.3329   21.2834 C   0  0  0  0  0  0  0  0  0  0  0  0
    4.9917    0.9446   19.9914 C   0  0  0  0  0  0  0  0  0  0  0  0
    5.0656    0.9766   22.1705 H   0  0  0  0  0  0  0  0  0  0  0  0
    3.1149    2.4277   22.4279 H   0  0  0  0  0  0  0  0  0  0  0  0
    1.9075    3.2940   20.4307 H   0  0  0  0  0  0  0  0  0  0  0  0
    2.6729    2.6760   18.1601 H   0  0  0  0  0  0  0  0  0  0  0  0
    4.2065    1.4194   16.6997 H   0  0  0  0  0  0  0  0  0  0  0  0
    7.2913   -0.8272   18.2226 H   0  0  0  0  0  0  0  0  0  0  0  0
    7.6465   -1.1780   20.5019 H   0  0  0  0  0  0  0  0  0  0  0  0
    6.3429   -0.8850   21.6554 H   0  0  0  0  0  0  0  0  0  0  0  0
    6.4292   -0.2760   24.5441 C   0  0  0  0  0  0  0  0  0  0  0  0
    6.2857   -1.3196   25.4554 C   0  0  0  0  0  0  0  0  0  0  0  0
    7.2900   -2.2751   25.5699 C   0  0  0  0  0  0  0  0  0  0  0  0
    8.4538   -2.1606   24.8015 C   0  0  0  0  0  0  0  0  0  0  0  0
    7.1793   -3.1116   26.2520 H   0  0  0  0  0  0  0  0  0  0  0  0
    5.3896   -1.3949   26.0656 H   0  0  0  0  0  0  0  0  0  0  0  0
    5.6548    0.4814   24.4471 H   0  0  0  0  0  0  0  0  0  0  0  0
    9.7867   -1.2957   22.1558 H   0  0  0  0  0  0  0  0  0  0  0  0
   10.1428    0.1585   23.0631 H   0  0  0  0  0  0  0  0  0  0  0  0
   11.9929   -1.4851   23.1825 H   0  0  0  0  0  0  0  0  0  0  0  0
   11.3463   -1.1554   24.7902 H   0  0  0  0  0  0  0  0  0  0  0  0
   11.6305   -3.6334   24.3699 H   0  0  0  0  0  0  0  0  0  0  0  0
   10.4981   -3.4913   22.9937 H   0  0  0  0  0  0  0  0  0  0  0  0
    9.9591   -3.1065   25.8766 H   0  0  0  0  0  0  0  0  0  0  0  0
    9.4337   -6.5344   25.5151 H   0  0  0  0  0  0  0  0  0  0  0  0
   10.2298   -5.2710   26.4813 H   0  0  0  0  0  0  0  0  0  0  0  0
    8.2179   -4.7113   27.6676 H   0  0  0  0  0  0  0  0  0  0  0  0
    7.1683   -5.5856   26.5387 H   0  0  0  0  0  0  0  0  0  0  0  0
    8.2054   -6.4852   27.6704 H   0  0  0  0  0  0  0  0  0  0  0  0
  1  2  1  0
  2  3  1  0
  3  4  2  0
  3  5  1  0
  5  6  1  0
  6  7  1  0
  7  8  1  0
  8  9  1  0
  9 10  2  0
 10 11  1  0
 11 12  1  0
 12 13  1  0
 13 14  2  0
 14 15  1  0
 15 16  2  0
 16 17  1  0
 17 18  1  0
 17 19  2  0
 19 20  1  0
 16 21  1  0
 15 22  1  0
 14 23  1  0
 12 24  1  0
 12 25  1  0
 11 26  1  0
 26 27  2  0
 26 28  1  0
 28 29  1  0
 29 30  2  0
 30 31  1  0
 31 32  2  0
 32 33  1  0
 33 34  2  0
 34 35  1  0
 35 36  2  0
 36 37  1  0
 37 38  2  0
 37 39  1  0
 36 40  1  0
 35 41  1  0
 34 42  1  0
 32 43  1  0
 30 44  1  0
 28 45  1  0
 28 46  1  0
 10 47  1  0
 47 48  2  0
 48 49  1  0
 49 50  2  0
 49 51  1  0
 48 52  1  0
 47 53  1  0
  8 54  1  0
  8 55  1  0
  7 56  1  0
  7 57  1  0
  6 58  1  0
  6 59  1  0
  5 60  1  1
  2 61  1  0
  2 62  1  0
  1 63  1  0
  1 64  1  0
  1 65  1  0
 50  5  1  0
 50  9  1  0
 19 13  1  0
 38 29  1  0
 38 33  1  0
M  CHG  1   5   1
M  END
>  <cnnaffinities>  (7) 
[6.06058]

>  <score>  (7) 
6.06058

>  <index>  (7) 
6

>  <Smiles>  (7) 
C(C(C(=O)[N@+]1(C(C(C(c2c(N(C(c3c(c(c(c(Cl)c3[H])[H])[H])[H])([H])[H])C(=O)C(c3c(nc(c4c(c(c(c(c34)[H])[H])[H])[H])[H])[H])([H])[H])c(c(c(c12)[H])[H])[H])([H])[H])([H])[H])([H])[H])[H])([H])[H])([H])([H])[H]

>  <h>  (7) 
<NA>

>  <Training>  (7) 
True

>  <Success>  (7) 
True

>  <enamine_searched>  (7) 
False

>  <enamine_id>  (7) 
nan

$$$$

     RDKit          3D

 37 39  0  0  0  0  0  0  0  0999 V2000
    5.6411   -2.5342   20.8835 O   0  0  0  0  0  0  0  0  0  0  0  0
    6.1298   -1.6642   21.5766 C   0  0  0  0  0  0  0  0  0  0  0  0
    6.9048   -0.4977   20.9185 C   0  0  0  0  0  0  0  0  0  0  0  0
    6.1167    0.0937   19.7680 C   0  0  0  0  0  0  0  0  0  0  0  0
    6.4230   -0.2122   18.4677 C   0  0  0  0  0  0  0  0  0  0  0  0
    5.7560    0.2440   17.3744 N   0  0  0  0  0  0  0  0  0  0  0  0
    4.7326    1.0327   17.5801 C   0  0  0  0  0  0  0  0  0  0  0  0
    4.2852    1.4245   18.8690 C   0  0  0  0  0  0  0  0  0  0  0  0
    3.1635    2.2732   19.0448 C   0  0  0  0  0  0  0  0  0  0  0  0
    2.7479    2.6271   20.2994 C   0  0  0  0  0  0  0  0  0  0  0  0
    3.4431    2.1434   21.4309 C   0  0  0  0  0  0  0  0  0  0  0  0
    4.5340    1.3220   21.2877 C   0  0  0  0  0  0  0  0  0  0  0  0
    4.9913    0.9422   19.9982 C   0  0  0  0  0  0  0  0  0  0  0  0
    5.0497    0.9593   22.1732 H   0  0  0  0  0  0  0  0  0  0  0  0
    3.1070    2.4269   22.4234 H   0  0  0  0  0  0  0  0  0  0  0  0
    1.8903    3.2818   20.4346 H   0  0  0  0  0  0  0  0  0  0  0  0
    2.6474    2.6417   18.1617 H   0  0  0  0  0  0  0  0  0  0  0  0
    4.2013    1.3972   16.6982 H   0  0  0  0  0  0  0  0  0  0  0  0
    7.2642   -0.8660   18.2385 H   0  0  0  0  0  0  0  0  0  0  0  0
    7.8409   -0.9099   20.5209 H   0  0  0  0  0  0  0  0  0  0  0  0
    7.1726    0.2822   21.6445 H   0  0  0  0  0  0  0  0  0  0  0  0
    5.9732   -1.6710   22.9565 N   0  0  0  0  0  0  0  0  0  0  0  0
    4.6557   -2.0071   23.4892 C   0  0  0  0  0  0  0  0  0  0  0  0
    4.7527   -2.8262   24.7658 C   0  0  0  0  0  0  0  0  0  0  0  0
    5.6501   -2.1400   25.7876 C   0  0  0  0  0  0  0  0  0  0  0  0
    7.0159   -1.8684   25.1731 C   0  0  0  0  0  0  0  0  0  0  0  0
    6.9003   -1.0505   23.8873 C   0  0  0  0  0  0  0  0  0  0  0  0
    7.8750   -0.9918   23.4047 H   0  0  0  0  0  0  0  0  0  0  0  0
    6.5988   -0.0209   24.1431 H   0  0  0  0  0  0  0  0  0  0  0  0
    7.5160   -2.8169   24.9561 H   0  0  0  0  0  0  0  0  0  0  0  0
    7.6592   -1.3415   25.8820 H   0  0  0  0  0  0  0  0  0  0  0  0
    5.7465   -2.7552   26.6891 H   0  0  0  0  0  0  0  0  0  0  0  0
    5.1936   -1.1944   26.1081 H   0  0  0  0  0  0  0  0  0  0  0  0
    3.7515   -2.9867   25.1796 H   0  0  0  0  0  0  0  0  0  0  0  0
    5.1503   -3.8172   24.5289 H   0  0  0  0  0  0  0  0  0  0  0  0
    4.0802   -1.0883   23.6950 H   0  0  0  0  0  0  0  0  0  0  0  0
    4.1251   -2.5511   22.7092 H   0  0  0  0  0  0  0  0  0  0  0  0
  1  2  2  0
  2  3  1  0
  3  4  1  0
  4  5  2  0
  5  6  1  0
  6  7  2  0
  7  8  1  0
  8  9  2  0
  9 10  1  0
 10 11  2  0
 11 12  1  0
 12 13  2  0
 12 14  1  0
 11 15  1  0
 10 16  1  0
  9 17  1  0
  7 18  1  0
  5 19  1  0
  3 20  1  0
  3 21  1  0
  2 22  1  0
 22 23  1  0
 23 24  1  0
 24 25  1  0
 25 26  1  0
 26 27  1  0
 27 28  1  0
 27 29  1  0
 26 30  1  0
 26 31  1  0
 25 32  1  0
 25 33  1  0
 24 34  1  0
 24 35  1  0
 23 36  1  0
 23 37  1  0
 13  4  1  0
 27 22  1  0
 13  8  1  0
M  END
>  <cnnaffinities>  (8) 
[4.9632, 4.40463, 5.05646, 5.05637, 4.77574, 5.05949, 5.05943]

>  <score>  (8) 
4.9632

>  <index>  (8) 
7

>  <Smiles>  (8) 
O=C(C(c1c(nc(c2c(c(c(c(c12)[H])[H])[H])[H])[H])[H])([H])[H])N1C(C(C(C(C1([H])[H])([H])[H])([H])[H])([H])[H])([H])[H]

>  <h>  (8) 
<NA>

>  <Training>  (8) 
True

>  <Success>  (8) 
True

>  <enamine_searched>  (8) 
False

>  <enamine_id>  (8) 
nan

$$$$

     RDKit          3D

 66 71  0  0  0  0  0  0  0  0999 V2000
    7.7858   -2.9574   23.3349 C   0  0  0  0  0  0  0  0  0  0  0  0
    8.0367   -1.8729   22.2800 C   0  0  1  0  0  0  0  0  0  0  0  0
    6.9059   -1.7710   21.2430 C   0  0  0  0  0  0  0  0  0  0  0  0
    6.9203   -0.3869   20.8281 N   0  0  0  0  0  0  0  0  0  0  0  0
    6.1356    0.1132   19.7681 C   0  0  0  0  0  0  0  0  0  0  0  0
    6.4430   -0.2260   18.4748 C   0  0  0  0  0  0  0  0  0  0  0  0
    5.7703    0.2256   17.3924 N   0  0  0  0  0  0  0  0  0  0  0  0
    4.7500    1.0196   17.6011 C   0  0  0  0  0  0  0  0  0  0  0  0
    4.3019    1.4181   18.8911 C   0  0  0  0  0  0  0  0  0  0  0  0
    3.1772    2.2685   19.0583 C   0  0  0  0  0  0  0  0  0  0  0  0
    2.7453    2.6139   20.3086 C   0  0  0  0  0  0  0  0  0  0  0  0
    3.4176    2.1202   21.4504 C   0  0  0  0  0  0  0  0  0  0  0  0
    4.5089    1.3009   21.3141 C   0  0  0  0  0  0  0  0  0  0  0  0
    4.9983    0.9445   20.0225 C   0  0  0  0  0  0  0  0  0  0  0  0
    5.0116    0.9236   22.2009 H   0  0  0  0  0  0  0  0  0  0  0  0
    3.0659    2.3955   22.4406 H   0  0  0  0  0  0  0  0  0  0  0  0
    1.8909    3.2741   20.4337 H   0  0  0  0  0  0  0  0  0  0  0  0
    2.6762    2.6381   18.1679 H   0  0  0  0  0  0  0  0  0  0  0  0
    4.2174    1.3828   16.7226 H   0  0  0  0  0  0  0  0  0  0  0  0
    7.2913   -0.8807   18.2714 H   0  0  0  0  0  0  0  0  0  0  0  0
    7.6299    0.4397   21.6597 C   0  0  0  0  0  0  0  0  0  0  0  0
    7.7536    1.6351   21.5091 O   0  0  0  0  0  0  0  0  0  0  0  0
    8.2273   -0.4160   22.7951 C   0  0  1  0  0  0  0  0  0  0  0  0
    7.4338   -0.1571   24.1040 C   0  0  0  0  0  0  0  0  0  0  0  0
    7.6238    1.1951   24.5835 N   0  0  0  0  0  0  0  0  0  0  0  0
    6.4961    1.9501   25.0791 C   0  0  0  0  0  0  0  0  0  0  0  0
    6.0433    1.5115   26.4644 C   0  0  0  0  0  0  0  0  0  0  0  0
    5.2483    0.5950   26.6160 O   0  0  0  0  0  0  0  0  0  0  0  0
    6.5752    2.2062   27.5043 N   0  0  0  0  0  0  0  0  0  0  0  0
    6.1739    1.8403   28.8614 C   0  0  0  0  0  0  0  0  0  0  0  0
    4.7382    2.1955   29.1687 C   0  0  0  0  0  0  0  0  0  0  0  0
    3.6131    1.4126   29.3457 C   0  0  0  0  0  0  0  0  0  0  0  0
    2.5544    2.3293   29.4975 C   0  0  0  0  0  0  0  0  0  0  0  0
    2.9905    3.5804   29.4358 N   0  0  0  0  0  0  0  0  0  0  0  0
    4.3116    3.4791   29.2450 N   0  0  0  0  0  0  0  0  0  0  0  0
    5.0935    4.6823   29.1115 C   0  0  0  0  0  0  0  0  0  0  0  0
    5.4019    4.8339   28.0734 H   0  0  0  0  0  0  0  0  0  0  0  0
    4.4494    5.5005   29.4319 H   0  0  0  0  0  0  0  0  0  0  0  0
    5.9764    4.6319   29.7527 H   0  0  0  0  0  0  0  0  0  0  0  0
    1.4920    2.1598   29.6300 H   0  0  0  0  0  0  0  0  0  0  0  0
    3.5868    0.3312   29.2863 H   0  0  0  0  0  0  0  0  0  0  0  0
    6.2599    0.7557   28.9711 H   0  0  0  0  0  0  0  0  0  0  0  0
    6.8709    2.3054   29.5700 H   0  0  0  0  0  0  0  0  0  0  0  0
    7.3617    2.8140   27.3227 H   0  0  0  0  0  0  0  0  0  0  0  0
    5.6412    1.8179   24.4099 H   0  0  0  0  0  0  0  0  0  0  0  0
    6.7989    2.9967   25.0737 H   0  0  0  0  0  0  0  0  0  0  0  0
    8.8432    1.8044   24.5761 C   0  0  0  0  0  0  0  0  0  0  0  0
    9.0007    2.9149   25.0714 O   0  0  0  0  0  0  0  0  0  0  0  0
    9.9538    1.0205   23.9364 C   0  0  0  0  0  0  0  0  0  0  0  0
   11.2820    1.3637   24.1753 C   0  0  0  0  0  0  0  0  0  0  0  0
   12.3029    0.8273   23.4170 C   0  0  0  0  0  0  0  0  0  0  0  0
   11.9905   -0.0446   22.3677 C   0  0  0  0  0  0  0  0  0  0  0  0
   10.6768   -0.4326   22.1560 C   0  0  0  0  0  0  0  0  0  0  0  0
    9.6573    0.0231   23.0013 C   0  0  0  0  0  0  0  0  0  0  0  0
   10.4430   -1.0835   21.3120 H   0  0  0  0  0  0  0  0  0  0  0  0
   12.7726   -0.4073   21.7044 H   0  0  0  0  0  0  0  0  0  0  0  0
   13.3328    1.1220   23.6217 H   0  0  0  0  0  0  0  0  0  0  0  0
   11.5182    2.0793   24.9359 H   0  0  0  0  0  0  0  0  0  0  0  0
    7.7671   -0.8599   24.8817 H   0  0  0  0  0  0  0  0  0  0  0  0
    6.3602   -0.3078   23.9305 H   0  0  0  0  0  0  0  0  0  0  0  0
    5.9412   -2.0393   21.6929 H   0  0  0  0  0  0  0  0  0  0  0  0
    7.0554   -2.4035   20.3717 H   0  0  0  0  0  0  0  0  0  0  0  0
    8.9565   -2.1308   21.7546 H   0  0  0  0  0  0  0  0  0  0  0  0
    8.5736   -2.9940   24.0986 H   0  0  0  0  0  0  0  0  0  0  0  0
    7.7317   -3.9508   22.8749 H   0  0  0  0  0  0  0  0  0  0  0  0
    6.8322   -2.7871   23.8484 H   0  0  0  0  0  0  0  0  0  0  0  0
  1  2  1  0
  2  3  1  0
  3  4  1  0
  4  5  1  0
  5  6  2  0
  6  7  1  0
  7  8  2  0
  8  9  1  0
  9 10  2  0
 10 11  1  0
 11 12  2  0
 12 13  1  0
 13 14  2  0
 13 15  1  0
 12 16  1  0
 11 17  1  0
 10 18  1  0
  8 19  1  0
  6 20  1  0
  4 21  1  0
 21 22  2  0
 21 23  1  0
 23 24  1  1
 24 25  1  0
 25 26  1  0
 26 27  1  0
 27 28  2  0
 27 29  1  0
 29 30  1  0
 30 31  1  0
 31 32  2  0
 32 33  1  0
 33 34  2  0
 34 35  1  0
 35 36  1  0
 36 37  1  0
 36 38  1  0
 36 39  1  0
 33 40  1  0
 32 41  1  0
 30 42  1  0
 30 43  1  0
 29 44  1  0
 26 45  1  0
 26 46  1  0
 25 47  1  0
 47 48  2  0
 47 49  1  0
 49 50  2  0
 50 51  1  0
 51 52  2  0
 52 53  1  0
 53 54  2  0
 53 55  1  0
 52 56  1  0
 51 57  1  0
 50 58  1  0
 24 59  1  0
 24 60  1  0
  3 61  1  0
  3 62  1  0
  2 63  1  6
  1 64  1  0
  1 65  1  0
  1 66  1  0
 23  2  1  0
 35 31  1  0
 54 49  1  0
 14  5  1  0
 54 23  1  0
 14  9  1  0
M  END
>  <cnnaffinities>  (9) 
[6.52167, 6.48067]

>  <score>  (9) 
6.52167

>  <index>  (9) 
8

>  <Smiles>  (9) 
C([C@]1(C(N(c2c(nc(c3c(c(c(c(c23)[H])[H])[H])[H])[H])[H])C(=O)[C@]21C(N(C(C(=O)N(C(c1c(c(nn1C([H])([H])[H])[H])[H])([H])[H])[H])([H])[H])C(=O)c1c(c(c(c(c21)[H])[H])[H])[H])([H])[H])([H])[H])[H])([H])([H])[H]

>  <h>  (9) 
<NA>

>  <Training>  (9) 
True

>  <Success>  (9) 
True

>  <enamine_searched>  (9) 
False

>  <enamine_id>  (9) 
nan

$$$$

     RDKit          3D

 58 63  0  0  0  0  0  0  0  0999 V2000
    5.3744    5.0660   21.9255 C   0  0  0  0  0  0  0  0  0  0  0  0
    5.9961    4.2451   23.0081 C   0  0  0  0  0  0  0  0  0  0  0  0
    7.3858    4.0312   23.2214 C   0  0  0  0  0  0  0  0  0  0  0  0
    7.4198    3.1653   24.2621 C   0  0  0  0  0  0  0  0  0  0  0  0
    8.5324    2.4705   24.9738 C   0  0  0  0  0  0  0  0  0  0  0  0
    9.1791    1.4379   24.1731 N   0  0  0  0  0  0  0  0  0  0  0  0
    8.5140    0.1545   24.0007 C   0  0  0  0  0  0  0  0  0  0  0  0
    8.6123   -0.3951   22.5558 C   0  0  2  0  0  0  0  0  0  0  0  0
    7.8136    0.4741   21.5565 C   0  0  0  0  0  0  0  0  0  0  0  0
    7.9671    1.6522   21.3306 O   0  0  0  0  0  0  0  0  0  0  0  0
    6.8877   -0.3269   20.9149 N   0  0  0  0  0  0  0  0  0  0  0  0
    6.1396    0.1505   19.8113 C   0  0  0  0  0  0  0  0  0  0  0  0
    6.4636   -0.1997   18.5245 C   0  0  0  0  0  0  0  0  0  0  0  0
    5.7997    0.2332   17.4265 N   0  0  0  0  0  0  0  0  0  0  0  0
    4.7725    1.0252   17.6079 C   0  0  0  0  0  0  0  0  0  0  0  0
    4.3123    1.4452   18.8872 C   0  0  0  0  0  0  0  0  0  0  0  0
    3.1825    2.2900   19.0449 C   0  0  0  0  0  0  0  0  0  0  0  0
    2.7463    2.6349   20.2952 C   0  0  0  0  0  0  0  0  0  0  0  0
    3.4125    2.1546   21.4433 C   0  0  0  0  0  0  0  0  0  0  0  0
    4.5156    1.3456   21.3170 C   0  0  0  0  0  0  0  0  0  0  0  0
    5.0014    0.9853   20.0314 C   0  0  0  0  0  0  0  0  0  0  0  0
    5.0184    0.9467   22.1914 H   0  0  0  0  0  0  0  0  0  0  0  0
    3.0515    2.4274   22.4308 H   0  0  0  0  0  0  0  0  0  0  0  0
    1.8811    3.2821   20.4108 H   0  0  0  0  0  0  0  0  0  0  0  0
    2.6766    2.6483   18.1536 H   0  0  0  0  0  0  0  0  0  0  0  0
    4.2420    1.3659   16.7190 H   0  0  0  0  0  0  0  0  0  0  0  0
    7.3163   -0.8479   18.3222 H   0  0  0  0  0  0  0  0  0  0  0  0
    7.1630   -1.7350   21.0840 C   0  0  0  0  0  0  0  0  0  0  0  0
    7.9781   -1.8136   22.3894 C   0  0  2  0  0  0  0  0  0  0  0  0
    7.1714   -2.3753   23.5639 C   0  0  0  0  0  0  0  0  0  0  0  0
    6.8140   -3.3791   23.3088 H   0  0  0  0  0  0  0  0  0  0  0  0
    7.7963   -2.4781   24.4572 H   0  0  0  0  0  0  0  0  0  0  0  0
    6.3002   -1.7654   23.8179 H   0  0  0  0  0  0  0  0  0  0  0  0
    8.7789   -2.5413   22.2601 H   0  0  0  0  0  0  0  0  0  0  0  0
    7.7607   -2.1128   20.2426 H   0  0  0  0  0  0  0  0  0  0  0  0
    6.2225   -2.2949   21.1296 H   0  0  0  0  0  0  0  0  0  0  0  0
   10.0920   -0.3615   22.1806 C   0  0  0  0  0  0  0  0  0  0  0  0
   10.6732   -1.3313   21.3502 C   0  0  0  0  0  0  0  0  0  0  0  0
   12.0210   -1.2778   21.0555 C   0  0  0  0  0  0  0  0  0  0  0  0
   12.5435   -2.2011   20.2255 F   0  0  0  0  0  0  0  0  0  0  0  0
   12.8363   -0.2453   21.5218 C   0  0  0  0  0  0  0  0  0  0  0  0
   12.2564    0.7406   22.2866 C   0  0  0  0  0  0  0  0  0  0  0  0
   10.9116    0.6753   22.6515 C   0  0  0  0  0  0  0  0  0  0  0  0
   10.3927    1.7191   23.5974 C   0  0  0  0  0  0  0  0  0  0  0  0
   11.0185    2.7413   23.8473 O   0  0  0  0  0  0  0  0  0  0  0  0
   12.8429    1.5744   22.6555 H   0  0  0  0  0  0  0  0  0  0  0  0
   13.8959   -0.2321   21.2697 H   0  0  0  0  0  0  0  0  0  0  0  0
   10.1193   -2.1610   20.9281 H   0  0  0  0  0  0  0  0  0  0  0  0
    7.4703    0.2823   24.2862 H   0  0  0  0  0  0  0  0  0  0  0  0
    8.9616   -0.5936   24.6699 H   0  0  0  0  0  0  0  0  0  0  0  0
    9.3101    3.1960   25.2164 H   0  0  0  0  0  0  0  0  0  0  0  0
    8.1242    2.0761   25.9062 H   0  0  0  0  0  0  0  0  0  0  0  0
    6.1725    2.9050   24.6808 O   0  0  0  0  0  0  0  0  0  0  0  0
    5.2704    3.5827   23.8857 N   0  0  0  0  0  0  0  0  0  0  0  0
    8.2148    4.4132   22.6398 H   0  0  0  0  0  0  0  0  0  0  0  0
    5.9385    5.9904   21.7757 H   0  0  0  0  0  0  0  0  0  0  0  0
    4.3381    5.3109   22.1669 H   0  0  0  0  0  0  0  0  0  0  0  0
    5.3886    4.5062   20.9831 H   0  0  0  0  0  0  0  0  0  0  0  0
  1  2  1  0
  2  3  1  0
  3  4  2  0
  4  5  1  0
  5  6  1  0
  6  7  1  0
  8  7  1  1
  8  9  1  0
  9 10  2  0
  9 11  1  0
 11 12  1  0
 12 13  2  0
 13 14  1  0
 14 15  2  0
 15 16  1  0
 16 17  2  0
 17 18  1  0
 18 19  2  0
 19 20  1  0
 20 21  2  0
 20 22  1  0
 19 23  1  0
 18 24  1  0
 17 25  1  0
 15 26  1  0
 13 27  1  0
 11 28  1  0
 28 29  1  0
 29 30  1  0
 30 31  1  0
 30 32  1  0
 30 33  1  0
 29 34  1  6
 28 35  1  0
 28 36  1  0
  8 37  1  0
 37 38  2  0
 38 39  1  0
 39 40  1  0
 39 41  2  0
 41 42  1  0
 42 43  2  0
 43 44  1  0
 44 45  2  0
 42 46  1  0
 41 47  1  0
 38 48  1  0
  7 49  1  0
  7 50  1  0
  5 51  1  0
  5 52  1  0
  4 53  1  0
 53 54  1  0
  3 55  1  0
  1 56  1  0
  1 57  1  0
  1 58  1  0
 54  2  2  0
 44  6  1  0
 29  8  1  0
 43 37  1  0
 21 12  1  0
 21 16  1  0
M  END
>  <cnnaffinities>  (10) 
[6.44183]

>  <score>  (10) 
6.44183

>  <index>  (10) 
9

>  <Smiles>  (10) 
C(c1c(c(C(N2C([C@@]3(C(=O)N(c4c(nc(c5c(c(c(c(c45)[H])[H])[H])[H])[H])[H])C([C@@]3(C([H])([H])[H])[H])([H])[H])c3c(c(F)c(c(c3C2=O)[H])[H])[H])([H])[H])([H])[H])on1)[H])([H])([H])[H]

>  <h>  (10) 
<NA>

>  <Training>  (10) 
True

>  <Success>  (10) 
True

>  <enamine_searched>  (10) 
False

>  <enamine_id>  (10) 
nan

$$$$

     RDKit          3D

 72 77  0  0  0  0  0  0  0  0999 V2000
    5.8797    5.1833   21.4965 C   0  0  0  0  0  0  0  0  0  0  0  0
    5.4069    5.9045   22.7634 C   0  0  1  0  0  0  0  0  0  0  0  0
    5.1177    4.9772   23.9513 C   0  0  0  0  0  0  0  0  0  0  0  0
    6.3510    4.5147   24.6949 N   0  0  0  0  0  4  0  0  0  0  0  0
    7.1124    3.3818   24.0450 C   0  0  0  0  0  0  0  0  0  0  0  0
    7.7749    2.4578   25.0774 C   0  0  0  0  0  0  0  0  0  0  0  0
    8.6216    1.4542   24.4402 N   0  0  0  0  0  0  0  0  0  0  0  0
    8.0756    0.1386   24.1558 C   0  0  0  0  0  0  0  0  0  0  0  0
    8.3978   -0.3684   22.7274 C   0  0  2  0  0  0  0  0  0  0  0  0
    7.6483    0.4715   21.6623 C   0  0  0  0  0  0  0  0  0  0  0  0
    7.7040    1.6772   21.5211 O   0  0  0  0  0  0  0  0  0  0  0  0
    6.9038   -0.3702   20.8654 N   0  0  0  0  0  0  0  0  0  0  0  0
    6.1328    0.1111   19.7778 C   0  0  0  0  0  0  0  0  0  0  0  0
    6.4425   -0.2235   18.4834 C   0  0  0  0  0  0  0  0  0  0  0  0
    5.7666    0.2281   17.3999 N   0  0  0  0  0  0  0  0  0  0  0  0
    4.7472    1.0240   17.6017 C   0  0  0  0  0  0  0  0  0  0  0  0
    4.2963    1.4276   18.8877 C   0  0  0  0  0  0  0  0  0  0  0  0
    3.1671    2.2740   19.0591 C   0  0  0  0  0  0  0  0  0  0  0  0
    2.7366    2.6099   20.3143 C   0  0  0  0  0  0  0  0  0  0  0  0
    3.4158    2.1143   21.4502 C   0  0  0  0  0  0  0  0  0  0  0  0
    4.5149    1.3053   21.3092 C   0  0  0  0  0  0  0  0  0  0  0  0
    4.9994    0.9524   20.0176 C   0  0  0  0  0  0  0  0  0  0  0  0
    5.0221    0.9169   22.1849 H   0  0  0  0  0  0  0  0  0  0  0  0
    3.0566    2.3753   22.4420 H   0  0  0  0  0  0  0  0  0  0  0  0
    1.8776    3.2611   20.4459 H   0  0  0  0  0  0  0  0  0  0  0  0
    2.6608    2.6446   18.1726 H   0  0  0  0  0  0  0  0  0  0  0  0
    4.2212    1.3841   16.7182 H   0  0  0  0  0  0  0  0  0  0  0  0
    7.2880   -0.8709   18.2568 H   0  0  0  0  0  0  0  0  0  0  0  0
    7.2092   -1.7701   21.0670 C   0  0  0  0  0  0  0  0  0  0  0  0
    7.8898   -1.8262   22.4572 C   0  0  2  0  0  0  0  0  0  0  0  0
    6.9386   -2.4295   23.5055 C   0  0  0  0  0  0  0  0  0  0  0  0
    7.4110   -2.5037   24.4908 H   0  0  0  0  0  0  0  0  0  0  0  0
    6.0190   -1.8409   23.6085 H   0  0  0  0  0  0  0  0  0  0  0  0
    6.6525   -3.4471   23.2090 H   0  0  0  0  0  0  0  0  0  0  0  0
    8.7595   -2.4905   22.4182 H   0  0  0  0  0  0  0  0  0  0  0  0
    7.8822   -2.1353   20.2814 H   0  0  0  0  0  0  0  0  0  0  0  0
    6.2871   -2.3637   21.0341 H   0  0  0  0  0  0  0  0  0  0  0  0
    9.9023   -0.2139   22.5354 C   0  0  0  0  0  0  0  0  0  0  0  0
   10.5932   -1.0088   21.6172 C   0  0  0  0  0  0  0  0  0  0  0  0
   11.9459   -0.8147   21.4195 C   0  0  0  0  0  0  0  0  0  0  0  0
   12.7125   -1.6794   20.1060 Cl  0  0  0  0  0  0  0  0  0  0  0  0
   12.6429    0.2000   22.0711 C   0  0  0  0  0  0  0  0  0  0  0  0
   11.9506    1.0280   22.9333 C   0  0  0  0  0  0  0  0  0  0  0  0
   10.5870    0.8405   23.1492 C   0  0  0  0  0  0  0  0  0  0  0  0
    9.8538    1.8404   23.9916 C   0  0  0  0  0  0  0  0  0  0  0  0
   10.3291    2.9425   24.2534 O   0  0  0  0  0  0  0  0  0  0  0  0
   12.4286    1.8773   23.4073 H   0  0  0  0  0  0  0  0  0  0  0  0
   13.6690    0.4061   21.7937 H   0  0  0  0  0  0  0  0  0  0  0  0
   10.0717   -1.6705   20.9326 H   0  0  0  0  0  0  0  0  0  0  0  0
    6.9928    0.2007   24.2841 H   0  0  0  0  0  0  0  0  0  0  0  0
    8.4743   -0.6084   24.8595 H   0  0  0  0  0  0  0  0  0  0  0  0
    7.0019    1.9358   25.6566 H   0  0  0  0  0  0  0  0  0  0  0  0
    8.3919    3.0323   25.7758 H   0  0  0  0  0  0  0  0  0  0  0  0
    7.8916    3.8060   23.4105 H   0  0  0  0  0  0  0  0  0  0  0  0
    6.4172    2.8123   23.4165 H   0  0  0  0  0  0  0  0  0  0  0  0
    7.2237    5.7241   24.9840 C   0  0  0  0  0  0  0  0  0  0  0  0
    7.4888    6.5524   23.7260 C   0  0  2  0  0  0  0  0  0  0  0  0
    8.3118    7.7871   24.0509 C   0  0  0  0  0  0  0  0  0  0  0  0
    9.2727    7.4987   24.4939 H   0  0  0  0  0  0  0  0  0  0  0  0
    8.5110    8.3747   23.1493 H   0  0  0  0  0  0  0  0  0  0  0  0
    7.7776    8.4228   24.7667 H   0  0  0  0  0  0  0  0  0  0  0  0
    6.2597    6.9764   23.1542 O   0  0  0  0  0  0  0  0  0  0  0  0
    8.0385    5.9261   23.0038 H   0  0  0  0  0  0  0  0  0  0  0  0
    6.7121    6.3586   25.7144 H   0  0  0  0  0  0  0  0  0  0  0  0
    8.1741    5.3847   25.4107 H   0  0  0  0  0  0  0  0  0  0  0  0
    6.0240    4.1604   25.6116 H   0  0  0  0  0  0  0  0  0  0  0  0
    4.4932    5.5169   24.6654 H   0  0  0  0  0  0  0  0  0  0  0  0
    4.5719    4.0934   23.6058 H   0  0  0  0  0  0  0  0  0  0  0  0
    4.4626    6.4065   22.5160 H   0  0  0  0  0  0  0  0  0  0  0  0
    6.8275    4.6487   21.6314 H   0  0  0  0  0  0  0  0  0  0  0  0
    6.0097    5.9156   20.6922 H   0  0  0  0  0  0  0  0  0  0  0  0
    5.1388    4.4365   21.1779 H   0  0  0  0  0  0  0  0  0  0  0  0
  1  2  1  0
  2  3  1  0
  3  4  1  0
  4  5  1  0
  5  6  1  0
  6  7  1  0
  7  8  1  0
  9  8  1  1
  9 10  1  0
 10 11  2  0
 10 12  1  0
 12 13  1  0
 13 14  2  0
 14 15  1  0
 15 16  2  0
 16 17  1  0
 17 18  2  0
 18 19  1  0
 19 20  2  0
 20 21  1  0
 21 22  2  0
 21 23  1  0
 20 24  1  0
 19 25  1  0
 18 26  1  0
 16 27  1  0
 14 28  1  0
 12 29  1  0
 29 30  1  0
 30 31  1  0
 31 32  1  0
 31 33  1  0
 31 34  1  0
 30 35  1  6
 29 36  1  0
 29 37  1  0
  9 38  1  0
 38 39  2  0
 39 40  1  0
 40 41  1  0
 40 42  2  0
 42 43  1  0
 43 44  2  0
 44 45  1  0
 45 46  2  0
 43 47  1  0
 42 48  1  0
 39 49  1  0
  8 50  1  0
  8 51  1  0
  6 52  1  0
  6 53  1  0
  5 54  1  0
  5 55  1  0
  4 56  1  0
 56 57  1  0
 57 58  1  0
 58 59  1  0
 58 60  1  0
 58 61  1  0
 57 62  1  0
 57 63  1  6
 56 64  1  0
 56 65  1  0
  4 66  1  0
  3 67  1  0
  3 68  1  0
  2 69  1  6
  1 70  1  0
  1 71  1  0
  1 72  1  0
 62  2  1  0
 45  7  1  0
 30  9  1  0
 44 38  1  0
 22 13  1  0
 22 17  1  0
M  CHG  1   4   1
M  END
>  <cnnaffinities>  (11) 
[6.39222]

>  <score>  (11) 
6.39222

>  <index>  (11) 
10

>  <Smiles>  (11) 
C([C@]1(C([N+](C(C(N2C([C@@]3(C(=O)N(c4c(nc(c5c(c(c(c(c45)[H])[H])[H])[H])[H])[H])C([C@@]3(C([H])([H])[H])[H])([H])[H])c3c(c(Cl)c(c(c3C2=O)[H])[H])[H])([H])[H])([H])[H])([H])[H])(C([C@](C([H])([H])[H])(O1)[H])([H])[H])[H])([H])[H])[H])([H])([H])[H]

>  <h>  (11) 
<NA>

>  <Training>  (11) 
True

>  <Success>  (11) 
True

>  <enamine_searched>  (11) 
False

>  <enamine_id>  (11) 
nan

$$$$

     RDKit          3D

 54 57  0  0  0  0  0  0  0  0999 V2000
    4.8800    1.9200   25.3045 C   0  0  0  0  0  0  0  0  0  0  0  0
    6.1351    1.9644   24.6609 O   0  0  0  0  0  0  0  0  0  0  0  0
    6.4401    2.9879   23.8101 C   0  0  0  0  0  0  0  0  0  0  0  0
    5.5517    4.0271   23.5136 C   0  0  0  0  0  0  0  0  0  0  0  0
    5.9382    5.0312   22.6254 C   0  0  0  0  0  0  0  0  0  0  0  0
    7.1970    5.0150   22.0456 C   0  0  0  0  0  0  0  0  0  0  0  0
    8.0722    3.9819   22.3661 C   0  0  0  0  0  0  0  0  0  0  0  0
    7.7271    2.9601   23.2370 C   0  0  0  0  0  0  0  0  0  0  0  0
    8.6564    1.7838   23.5087 C   0  0  2  0  0  0  0  0  0  0  0  0
   10.1645    2.0525   23.3441 C   0  0  0  0  0  0  0  0  0  0  0  0
   10.9929    0.8537   23.8286 C   0  0  2  0  0  0  0  0  0  0  0  0
   12.4889    1.0789   23.6098 C   0  0  0  0  0  0  0  0  0  0  0  0
   12.8383    1.9806   24.1224 H   0  0  0  0  0  0  0  0  0  0  0  0
   13.0856    0.2309   23.9678 H   0  0  0  0  0  0  0  0  0  0  0  0
   12.7097    1.2054   22.5433 H   0  0  0  0  0  0  0  0  0  0  0  0
   10.5195   -0.4277   23.1383 C   0  0  0  0  0  0  0  0  0  0  0  0
    8.9990   -0.6105   23.2634 C   0  0  0  0  0  0  0  0  0  0  0  0
    8.2611    0.5601   22.7874 N   0  0  0  0  0  0  0  0  0  0  0  0
    7.9299    0.6542   21.4242 C   0  0  0  0  0  0  0  0  0  0  0  0
    8.3449    1.5296   20.6957 O   0  0  0  0  0  0  0  0  0  0  0  0
    6.9759   -0.4305   20.8966 C   0  0  0  0  0  0  0  0  0  0  0  0
    6.1111    0.0829   19.7689 C   0  0  0  0  0  0  0  0  0  0  0  0
    6.4262   -0.2081   18.4678 C   0  0  0  0  0  0  0  0  0  0  0  0
    5.7592    0.2467   17.3746 N   0  0  0  0  0  0  0  0  0  0  0  0
    4.7319    1.0308   17.5802 C   0  0  0  0  0  0  0  0  0  0  0  0
    4.2864    1.4240   18.8687 C   0  0  0  0  0  0  0  0  0  0  0  0
    3.1723    2.2822   19.0439 C   0  0  0  0  0  0  0  0  0  0  0  0
    2.7658    2.6480   20.2979 C   0  0  0  0  0  0  0  0  0  0  0  0
    3.4669    2.1680   21.4300 C   0  0  0  0  0  0  0  0  0  0  0  0
    4.5493    1.3341   21.2896 C   0  0  0  0  0  0  0  0  0  0  0  0
    4.9929    0.9385   20.0009 C   0  0  0  0  0  0  0  0  0  0  0  0
    5.0704    0.9777   22.1740 H   0  0  0  0  0  0  0  0  0  0  0  0
    3.1369    2.4664   22.4222 H   0  0  0  0  0  0  0  0  0  0  0  0
    1.9127    3.3098   20.4274 H   0  0  0  0  0  0  0  0  0  0  0  0
    2.6555    2.6507   18.1606 H   0  0  0  0  0  0  0  0  0  0  0  0
    4.2014    1.3958   16.6976 H   0  0  0  0  0  0  0  0  0  0  0  0
    7.2732   -0.8524   18.2381 H   0  0  0  0  0  0  0  0  0  0  0  0
    6.3693   -0.8299   21.7211 H   0  0  0  0  0  0  0  0  0  0  0  0
    7.5889   -1.2634   20.5237 H   0  0  0  0  0  0  0  0  0  0  0  0
    8.6692   -1.4846   22.6982 H   0  0  0  0  0  0  0  0  0  0  0  0
    8.7403   -0.7794   24.3179 H   0  0  0  0  0  0  0  0  0  0  0  0
   10.7967   -0.3855   22.0778 H   0  0  0  0  0  0  0  0  0  0  0  0
   11.0501   -1.2957   23.5531 H   0  0  0  0  0  0  0  0  0  0  0  0
   10.8253    0.7322   24.9086 H   0  0  0  0  0  0  0  0  0  0  0  0
   10.4539    2.9452   23.9140 H   0  0  0  0  0  0  0  0  0  0  0  0
   10.3985    2.2591   22.2928 H   0  0  0  0  0  0  0  0  0  0  0  0
    8.5148    1.5211   24.5622 H   0  0  0  0  0  0  0  0  0  0  0  0
    9.0403    3.9593   21.8779 H   0  0  0  0  0  0  0  0  0  0  0  0
    7.5007    5.7837   21.3390 H   0  0  0  0  0  0  0  0  0  0  0  0
    5.2501    5.8344   22.3792 H   0  0  0  0  0  0  0  0  0  0  0  0
    4.5621    4.0699   23.9624 H   0  0  0  0  0  0  0  0  0  0  0  0
    4.6973    2.7761   25.9652 H   0  0  0  0  0  0  0  0  0  0  0  0
    4.9061    1.0233   25.9189 H   0  0  0  0  0  0  0  0  0  0  0  0
    4.0304    1.8267   24.6153 H   0  0  0  0  0  0  0  0  0  0  0  0
  1  2  1  0
  2  3  1  0
  3  4  2  0
  4  5  1  0
  5  6  2  0
  6  7  1  0
  7  8  2  0
  8  9  1  0
  9 10  1  0
 10 11  1  0
 11 12  1  0
 12 13  1  0
 12 14  1  0
 12 15  1  0
 11 16  1  0
 16 17  1  0
 17 18  1  0
 18 19  1  0
 19 20  2  0
 19 21  1  0
 21 22  1  0
 22 23  2  0
 23 24  1  0
 24 25  2  0
 25 26  1  0
 26 27  2  0
 27 28  1  0
 28 29  2  0
 29 30  1  0
 30 31  2  0
 30 32  1  0
 29 33  1  0
 28 34  1  0
 27 35  1  0
 25 36  1  0
 23 37  1  0
 21 38  1  0
 21 39  1  0
 17 40  1  0
 17 41  1  0
 16 42  1  0
 16 43  1  0
 11 44  1  1
 10 45  1  0
 10 46  1  0
  9 47  1  1
  7 48  1  0
  6 49  1  0
  5 50  1  0
  4 51  1  0
  1 52  1  0
  1 53  1  0
  1 54  1  0
  8  3  1  0
 18  9  1  0
 31 22  1  0
 31 26  1  0
M  END
>  <cnnaffinities>  (12) 
[5.89439, 5.61366]

>  <score>  (12) 
5.89439

>  <index>  (12) 
11

>  <Smiles>  (12) 
C(Oc1c(c(c(c(c1[C@@]1(C([C@](C([H])([H])[H])(C(C(N1C(=O)C(c1c(nc(c2c(c(c(c(c12)[H])[H])[H])[H])[H])[H])([H])[H])([H])[H])([H])[H])[H])([H])[H])[H])[H])[H])[H])[H])([H])([H])[H]

>  <h>  (12) 
<NA>

>  <Training>  (12) 
True

>  <Success>  (12) 
True

>  <enamine_searched>  (12) 
False

>  <enamine_id>  (12) 
nan

$$$$

     RDKit          3D

 47 50  0  0  0  0  0  0  0  0999 V2000
    5.5800   -2.4840   20.9667 O   0  0  0  0  0  0  0  0  0  0  0  0
    6.1380   -1.6238   21.6286 C   0  0  0  0  0  0  0  0  0  0  0  0
    6.9083   -0.4866   20.9194 C   0  0  0  0  0  0  0  0  0  0  0  0
    6.1153    0.0907   19.7684 C   0  0  0  0  0  0  0  0  0  0  0  0
    6.4213   -0.2143   18.4654 C   0  0  0  0  0  0  0  0  0  0  0  0
    5.7565    0.2429   17.3717 N   0  0  0  0  0  0  0  0  0  0  0  0
    4.7323    1.0325   17.5770 C   0  0  0  0  0  0  0  0  0  0  0  0
    4.2851    1.4247   18.8696 C   0  0  0  0  0  0  0  0  0  0  0  0
    3.1621    2.2750   19.0432 C   0  0  0  0  0  0  0  0  0  0  0  0
    2.7479    2.6268   20.3001 C   0  0  0  0  0  0  0  0  0  0  0  0
    3.4417    2.1438   21.4308 C   0  0  0  0  0  0  0  0  0  0  0  0
    4.5332    1.3211   21.2874 C   0  0  0  0  0  0  0  0  0  0  0  0
    4.9896    0.9413   19.9960 C   0  0  0  0  0  0  0  0  0  0  0  0
    5.0480    0.9578   22.1718 H   0  0  0  0  0  0  0  0  0  0  0  0
    3.1043    2.4258   22.4225 H   0  0  0  0  0  0  0  0  0  0  0  0
    1.8905    3.2790   20.4364 H   0  0  0  0  0  0  0  0  0  0  0  0
    2.6409    2.6442   18.1638 H   0  0  0  0  0  0  0  0  0  0  0  0
    4.1985    1.3989   16.6990 H   0  0  0  0  0  0  0  0  0  0  0  0
    7.2654   -0.8674   18.2461 H   0  0  0  0  0  0  0  0  0  0  0  0
    7.2142    0.3107   21.6071 H   0  0  0  0  0  0  0  0  0  0  0  0
    7.8311   -0.9224   20.5165 H   0  0  0  0  0  0  0  0  0  0  0  0
    6.0717   -1.6180   22.9922 N   0  0  0  0  0  0  0  0  0  0  0  0
    6.9106   -0.8617   23.9123 C   0  0  0  0  0  0  0  0  0  0  0  0
    6.6454   -1.4616   25.3060 C   0  0  2  0  0  0  0  0  0  0  0  0
    7.7313   -2.4364   25.7365 C   0  0  0  0  0  0  0  0  0  0  0  0
    7.7799   -3.5081   24.8563 F   0  0  0  0  0  0  0  0  0  0  0  0
    8.7132   -1.9492   25.7195 H   0  0  0  0  0  0  0  0  0  0  0  0
    7.5645   -2.8449   26.7408 H   0  0  0  0  0  0  0  0  0  0  0  0
    5.2352   -2.0837   25.1855 C   0  0  0  0  0  0  0  0  0  0  0  0
    4.8989   -3.2232   26.1631 C   0  0  0  0  0  0  0  0  0  0  0  0
    3.3672   -3.2850   26.2531 C   0  0  0  0  0  0  0  0  0  0  0  0
    2.8666   -1.8738   25.8923 C   0  0  0  0  0  0  0  0  0  0  0  0
    4.1169   -1.0600   25.5100 C   0  0  0  0  0  0  0  0  0  0  0  0
    3.9321   -0.3802   24.6725 H   0  0  0  0  0  0  0  0  0  0  0  0
    4.4233   -0.4359   26.3576 H   0  0  0  0  0  0  0  0  0  0  0  0
    2.3407   -1.4035   26.7280 H   0  0  0  0  0  0  0  0  0  0  0  0
    2.1606   -1.9170   25.0593 H   0  0  0  0  0  0  0  0  0  0  0  0
    2.9731   -4.0211   25.5464 H   0  0  0  0  0  0  0  0  0  0  0  0
    3.0388   -3.5949   27.2502 H   0  0  0  0  0  0  0  0  0  0  0  0
    5.3383   -4.1761   25.8537 H   0  0  0  0  0  0  0  0  0  0  0  0
    5.3082   -2.9969   27.1558 H   0  0  0  0  0  0  0  0  0  0  0  0
    5.1665   -2.5179   23.7006 C   0  0  0  0  0  0  0  0  0  0  0  0
    4.1511   -2.4291   23.3037 H   0  0  0  0  0  0  0  0  0  0  0  0
    5.4628   -3.5647   23.5775 H   0  0  0  0  0  0  0  0  0  0  0  0
    6.6504   -0.6752   26.0643 H   0  0  0  0  0  0  0  0  0  0  0  0
    7.9665   -0.9498   23.6483 H   0  0  0  0  0  0  0  0  0  0  0  0
    6.6393    0.2002   23.8995 H   0  0  0  0  0  0  0  0  0  0  0  0
  1  2  2  0
  2  3  1  0
  3  4  1  0
  4  5  2  0
  5  6  1  0
  6  7  2  0
  7  8  1  0
  8  9  2  0
  9 10  1  0
 10 11  2  0
 11 12  1  0
 12 13  2  0
 12 14  1  0
 11 15  1  0
 10 16  1  0
  9 17  1  0
  7 18  1  0
  5 19  1  0
  3 20  1  0
  3 21  1  0
  2 22  1  0
 22 23  1  0
 23 24  1  0
 24 25  1  0
 25 26  1  0
 25 27  1  0
 25 28  1  0
 24 29  1  0
 29 30  1  0
 30 31  1  0
 31 32  1  0
 32 33  1  0
 33 34  1  0
 33 35  1  0
 32 36  1  0
 32 37  1  0
 31 38  1  0
 31 39  1  0
 30 40  1  0
 30 41  1  0
 29 42  1  0
 42 43  1  0
 42 44  1  0
 24 45  1  1
 23 46  1  0
 23 47  1  0
 13  4  1  0
 42 22  1  0
 13  8  1  0
 33 29  1  0
M  END
>  <cnnaffinities>  (13) 
[5.58861, 5.48166, 5.46222, 5.46261]

>  <score>  (13) 
5.58861

>  <index>  (13) 
12

>  <Smiles>  (13) 
O=C(C(c1c(nc(c2c(c(c(c(c12)[H])[H])[H])[H])[H])[H])([H])[H])N1C([C@](C(F)([H])[H])(C2(C(C(C(C2([H])[H])([H])[H])([H])[H])([H])[H])C1([H])[H])[H])([H])[H]

>  <h>  (13) 
<NA>

>  <Training>  (13) 
True

>  <Success>  (13) 
True

>  <enamine_searched>  (13) 
False

>  <enamine_id>  (13) 
nan

$$$$

     RDKit          3D

 67 72  0  0  0  0  0  0  0  0999 V2000
    6.3136    4.2485   21.3078 C   0  0  0  0  0  0  0  0  0  0  0  0
    7.2787    3.8013   22.2894 N   0  0  0  0  0  0  0  0  0  0  0  0
    6.8905    3.4991   23.5535 C   0  0  0  0  0  0  0  0  0  0  0  0
    5.7451    3.6229   23.9631 O   0  0  0  0  0  0  0  0  0  0  0  0
    8.0187    2.9796   24.4493 C   0  0  0  0  0  0  0  0  0  0  0  0
    8.7058    1.8523   23.8408 N   0  0  0  0  0  0  0  0  0  0  0  0
    7.9290    0.6331   23.6518 C   0  0  0  0  0  0  0  0  0  0  0  0
    8.3845   -0.2092   22.4276 C   0  0  2  0  0  0  0  0  0  0  0  0
    7.8590    0.4370   21.1198 C   0  0  0  0  0  0  0  0  0  0  0  0
    8.2949    1.4304   20.5734 O   0  0  0  0  0  0  0  0  0  0  0  0
    6.7915   -0.3053   20.6611 N   0  0  0  0  0  0  0  0  0  0  0  0
    5.9826    0.1794   19.6038 C   0  0  0  0  0  0  0  0  0  0  0  0
    6.2943   -0.1132   18.3008 C   0  0  0  0  0  0  0  0  0  0  0  0
    5.5878    0.3372   17.2397 N   0  0  0  0  0  0  0  0  0  0  0  0
    4.5606    1.1150   17.4784 C   0  0  0  0  0  0  0  0  0  0  0  0
    4.1345    1.5003   18.7813 C   0  0  0  0  0  0  0  0  0  0  0  0
    3.0358    2.3733   18.9957 C   0  0  0  0  0  0  0  0  0  0  0  0
    2.6705    2.7342   20.2645 C   0  0  0  0  0  0  0  0  0  0  0  0
    3.3850    2.2437   21.3793 C   0  0  0  0  0  0  0  0  0  0  0  0
    4.4476    1.3915   21.1958 C   0  0  0  0  0  0  0  0  0  0  0  0
    4.8554    1.0036   19.8891 C   0  0  0  0  0  0  0  0  0  0  0  0
    5.0139    1.0587   22.0595 H   0  0  0  0  0  0  0  0  0  0  0  0
    3.1237    2.5616   22.3841 H   0  0  0  0  0  0  0  0  0  0  0  0
    1.8349    3.4098   20.4193 H   0  0  0  0  0  0  0  0  0  0  0  0
    2.5094    2.7591   18.1278 H   0  0  0  0  0  0  0  0  0  0  0  0
    4.0097    1.4855   16.6142 H   0  0  0  0  0  0  0  0  0  0  0  0
    7.1528   -0.7438   18.0793 H   0  0  0  0  0  0  0  0  0  0  0  0
    6.3900   -1.3669   21.5614 C   0  0  0  0  0  0  0  0  0  0  0  0
    7.6915   -1.6027   22.3275 C   0  0  2  0  0  0  0  0  0  0  0  0
    7.5517   -2.4603   23.5848 C   0  0  0  0  0  0  0  0  0  0  0  0
    8.7833   -3.0193   23.9417 O   0  0  0  0  0  0  0  0  0  0  0  0
    8.6900   -3.8285   25.0843 C   0  0  0  0  0  0  0  0  0  0  0  0
    9.9864   -4.0984   25.6779 C   0  0  0  0  0  0  0  0  0  0  0  0
   10.9731   -3.1604   25.0726 C   0  0  0  0  0  0  0  0  0  0  0  0
   10.0628   -4.1265   25.6175 C   0  0  0  0  0  0  0  0  0  0  0  0
   10.7630   -5.0369   25.2137 H   0  0  0  0  0  0  0  0  0  0  0  0
   11.2605   -3.7470   24.2281 H   0  0  0  0  0  0  0  0  0  0  0  0
   11.9050   -3.0418   25.6190 H   0  0  0  0  0  0  0  0  0  0  0  0
   10.5440   -2.1974   24.7966 H   0  0  0  0  0  0  0  0  0  0  0  0
    9.5828   -3.9799   26.8388 H   0  0  0  0  0  0  0  0  0  0  0  0
    8.3316   -3.3472   25.9604 H   0  0  0  0  0  0  0  0  0  0  0  0
    8.1855   -4.7300   24.8634 H   0  0  0  0  0  0  0  0  0  0  0  0
    6.8253   -3.2683   23.4017 H   0  0  0  0  0  0  0  0  0  0  0  0
    7.1494   -1.8582   24.4167 H   0  0  0  0  0  0  0  0  0  0  0  0
    8.2962   -2.1668   21.6241 H   0  0  0  0  0  0  0  0  0  0  0  0
    5.5514   -1.0795   22.2163 H   0  0  0  0  0  0  0  0  0  0  0  0
    6.0781   -2.2503   20.9944 H   0  0  0  0  0  0  0  0  0  0  0  0
    9.8959   -0.2500   22.3863 C   0  0  0  0  0  0  0  0  0  0  0  0
   10.5331   -1.1958   21.5772 C   0  0  0  0  0  0  0  0  0  0  0  0
   11.8991   -1.1639   21.3928 C   0  0  0  0  0  0  0  0  0  0  0  0
   12.5605   -2.3068   20.2491 Cl  0  0  0  0  0  0  0  0  0  0  0  0
   12.6903   -0.1887   22.0040 C   0  0  0  0  0  0  0  0  0  0  0  0
   12.0709    0.7611   22.7920 C   0  0  0  0  0  0  0  0  0  0  0  0
   10.6855    0.7516   22.9682 C   0  0  0  0  0  0  0  0  0  0  0  0
   10.0697    1.8983   23.7108 C   0  0  0  0  0  0  0  0  0  0  0  0
   10.7422    2.8289   24.1347 O   0  0  0  0  0  0  0  0  0  0  0  0
   12.6431    1.5528   23.2640 H   0  0  0  0  0  0  0  0  0  0  0  0
   13.7614   -0.1540   21.8381 H   0  0  0  0  0  0  0  0  0  0  0  0
    9.9833   -1.9416   21.0185 H   0  0  0  0  0  0  0  0  0  0  0  0
    7.9848    0.0263   24.5620 H   0  0  0  0  0  0  0  0  0  0  0  0
    6.8854    0.9356   23.5242 H   0  0  0  0  0  0  0  0  0  0  0  0
    8.7809    3.7521   24.5985 H   0  0  0  0  0  0  0  0  0  0  0  0
    7.5862    2.7311   25.4247 H   0  0  0  0  0  0  0  0  0  0  0  0
    8.1467    3.4093   21.9508 H   0  0  0  0  0  0  0  0  0  0  0  0
    5.9442    3.4119   20.6996 H   0  0  0  0  0  0  0  0  0  0  0  0
    6.7538    5.0085   20.6551 H   0  0  0  0  0  0  0  0  0  0  0  0
    5.4653    4.6801   21.8438 H   0  0  0  0  0  0  0  0  0  0  0  0
  1  2  1  0
  2  3  1  0
  3  4  2  0
  3  5  1  0
  5  6  1  0
  6  7  1  0
  8  7  1  1
  8  9  1  0
  9 10  2  0
  9 11  1  0
 11 12  1  0
 12 13  2  0
 13 14  1  0
 14 15  2  0
 15 16  1  0
 16 17  2  0
 17 18  1  0
 18 19  2  0
 19 20  1  0
 20 21  2  0
 20 22  1  0
 19 23  1  0
 18 24  1  0
 17 25  1  0
 15 26  1  0
 13 27  1  0
 11 28  1  0
 28 29  1  0
 29 30  1  0
 30 31  1  0
 31 32  1  0
 32 33  1  0
 33 34  1  0
 34 35  1  0
 35 36  1  0
 35 37  1  0
 34 38  1  0
 34 39  1  0
 33 40  1  0
 32 41  1  0
 32 42  1  0
 30 43  1  0
 30 44  1  0
 29 45  1  6
 28 46  1  0
 28 47  1  0
  8 48  1  0
 48 49  2  0
 49 50  1  0
 50 51  1  0
 50 52  2  0
 52 53  1  0
 53 54  2  0
 54 55  1  0
 55 56  2  0
 53 57  1  0
 52 58  1  0
 49 59  1  0
  7 60  1  0
  7 61  1  0
  5 62  1  0
  5 63  1  0
  2 64  1  0
  1 65  1  0
  1 66  1  0
  1 67  1  0
 55  6  1  0
 29  8  1  0
 35 33  1  0
 54 48  1  0
 21 12  1  0
 21 16  1  0
M  END
>  <cnnaffinities>  (14) 
[6.5662]

>  <score>  (14) 
6.5662

>  <index>  (14) 
13

>  <Smiles>  (14) 
C(N(C(=O)C(N1C([C@@]2(C(=O)N(c3c(nc(c4c(c(c(c(c34)[H])[H])[H])[H])[H])[H])C([C@@]2(C(OC(C2(C(C2([H])[H])([H])[H])[H])([H])[H])([H])[H])[H])([H])[H])c2c(c(Cl)c(c(c2C1=O)[H])[H])[H])([H])[H])([H])[H])[H])([H])([H])[H]

>  <h>  (14) 
<NA>

>  <Training>  (14) 
True

>  <Success>  (14) 
True

>  <enamine_searched>  (14) 
False

>  <enamine_id>  (14) 
nan

$$$$

     RDKit          3D

 67 73  0  0  0  0  0  0  0  0999 V2000
    7.1624   -2.4512   23.4425 C   0  0  0  0  0  0  0  0  0  0  0  0
    8.0265   -1.7652   22.3826 C   0  0  1  0  0  0  0  0  0  0  0  0
    7.3189   -1.6900   21.0148 C   0  0  0  0  0  0  0  0  0  0  0  0
    6.9517   -0.2973   20.8646 N   0  0  0  0  0  0  0  0  0  0  0  0
    6.1548    0.1479   19.7906 C   0  0  0  0  0  0  0  0  0  0  0  0
    6.4465   -0.2214   18.5007 C   0  0  0  0  0  0  0  0  0  0  0  0
    5.7694    0.2147   17.4138 N   0  0  0  0  0  0  0  0  0  0  0  0
    4.7546    1.0183   17.6103 C   0  0  0  0  0  0  0  0  0  0  0  0
    4.3097    1.4278   18.8987 C   0  0  0  0  0  0  0  0  0  0  0  0
    3.1883    2.2828   19.0610 C   0  0  0  0  0  0  0  0  0  0  0  0
    2.7559    2.6310   20.3112 C   0  0  0  0  0  0  0  0  0  0  0  0
    3.4205    2.1351   21.4556 C   0  0  0  0  0  0  0  0  0  0  0  0
    4.5115    1.3138   21.3251 C   0  0  0  0  0  0  0  0  0  0  0  0
    5.0068    0.9637   20.0345 C   0  0  0  0  0  0  0  0  0  0  0  0
    5.0052    0.9293   22.2119 H   0  0  0  0  0  0  0  0  0  0  0  0
    3.0701    2.4192   22.4450 H   0  0  0  0  0  0  0  0  0  0  0  0
    1.9029    3.2912   20.4350 H   0  0  0  0  0  0  0  0  0  0  0  0
    2.6914    2.6535   18.1696 H   0  0  0  0  0  0  0  0  0  0  0  0
    4.2215    1.3773   16.7289 H   0  0  0  0  0  0  0  0  0  0  0  0
    7.2896   -0.8798   18.2926 H   0  0  0  0  0  0  0  0  0  0  0  0
    7.6589    0.5514   21.6854 C   0  0  0  0  0  0  0  0  0  0  0  0
    7.6241    1.7675   21.6431 O   0  0  0  0  0  0  0  0  0  0  0  0
    8.4697   -0.3014   22.6860 C   0  0  1  0  0  0  0  0  0  0  0  0
    8.1716    0.1409   24.1294 C   0  0  0  0  0  0  0  0  0  0  0  0
    8.6570    1.4693   24.4197 N   0  0  0  0  0  0  0  0  0  0  0  0
    7.8278    2.3269   25.2399 C   0  0  0  0  0  0  0  0  0  0  0  0
    6.7350    3.0510   24.4528 C   0  0  0  0  0  0  0  0  0  0  0  0
    7.2813    4.1154   23.5769 N   0  0  2  0  0  4  0  0  0  0  0  0
    7.7519    5.3725   24.3350 C   0  0  0  0  0  0  0  0  0  0  0  0
    6.9403    6.5040   23.6702 C   0  0  2  0  0  0  0  0  0  0  0  0
    5.5896    5.8377   23.3982 C   0  0  0  0  0  0  0  0  0  0  0  0
    6.2543    4.7157   22.5989 C   0  0  1  0  0  0  0  0  0  0  0  0
    7.1013    5.5259   21.6264 C   0  0  0  0  0  0  0  0  0  0  0  0
    7.4476    6.7144   22.3516 O   0  0  0  0  0  0  0  0  0  0  0  0
    6.6113    5.7793   20.6805 H   0  0  0  0  0  0  0  0  0  0  0  0
    8.0028    4.9439   21.4466 H   0  0  0  0  0  0  0  0  0  0  0  0
    5.6395    3.9248   22.1697 H   0  0  0  0  0  0  0  0  0  0  0  0
    4.9464    6.4624   22.7755 H   0  0  0  0  0  0  0  0  0  0  0  0
    5.0303    5.5151   24.2815 H   0  0  0  0  0  0  0  0  0  0  0  0
    6.9603    7.4567   24.1971 H   0  0  0  0  0  0  0  0  0  0  0  0
    8.8308    5.4844   24.2235 H   0  0  0  0  0  0  0  0  0  0  0  0
    7.4870    5.2689   25.3902 H   0  0  0  0  0  0  0  0  0  0  0  0
    8.0443    3.6859   23.0234 H   0  0  0  0  0  0  0  0  0  0  0  0
    6.0004    3.4799   25.1469 H   0  0  0  0  0  0  0  0  0  0  0  0
    6.2109    2.3315   23.8131 H   0  0  0  0  0  0  0  0  0  0  0  0
    7.3456    1.7079   26.0012 H   0  0  0  0  0  0  0  0  0  0  0  0
    8.4932    3.0398   25.7275 H   0  0  0  0  0  0  0  0  0  0  0  0
    9.8349    1.9455   23.9386 C   0  0  0  0  0  0  0  0  0  0  0  0
   10.2035    3.0973   24.1618 O   0  0  0  0  0  0  0  0  0  0  0  0
   10.6080    1.0012   23.0725 C   0  0  0  0  0  0  0  0  0  0  0  0
   11.9650    1.2353   22.8428 C   0  0  0  0  0  0  0  0  0  0  0  0
   12.7227    0.3712   22.0665 C   0  0  0  0  0  0  0  0  0  0  0  0
   12.0548   -0.6963   21.4608 C   0  0  0  0  0  0  0  0  0  0  0  0
   12.7559   -1.5830   20.1242 Cl  0  0  0  0  0  0  0  0  0  0  0  0
   10.7000   -0.9049   21.6367 C   0  0  0  0  0  0  0  0  0  0  0  0
    9.9575   -0.0824   22.4767 C   0  0  0  0  0  0  0  0  0  0  0  0
   10.2183   -1.6706   21.0364 H   0  0  0  0  0  0  0  0  0  0  0  0
   13.7846    0.5655   21.8876 H   0  0  0  0  0  0  0  0  0  0  0  0
   12.3820    2.1361   23.2795 H   0  0  0  0  0  0  0  0  0  0  0  0
    7.0975    0.1248   24.3104 H   0  0  0  0  0  0  0  0  0  0  0  0
    8.6425   -0.5759   24.8097 H   0  0  0  0  0  0  0  0  0  0  0  0
    6.4227   -2.3159   20.9699 H   0  0  0  0  0  0  0  0  0  0  0  0
    7.9888   -2.0052   20.2055 H   0  0  0  0  0  0  0  0  0  0  0  0
    8.9177   -2.3908   22.2989 H   0  0  0  0  0  0  0  0  0  0  0  0
    6.2182   -1.9269   23.6099 H   0  0  0  0  0  0  0  0  0  0  0  0
    7.6866   -2.5242   24.3993 H   0  0  0  0  0  0  0  0  0  0  0  0
    6.9254   -3.4728   23.1314 H   0  0  0  0  0  0  0  0  0  0  0  0
  1  2  1  0
  2  3  1  0
  3  4  1  0
  4  5  1  0
  5  6  2  0
  6  7  1  0
  7  8  2  0
  8  9  1  0
  9 10  2  0
 10 11  1  0
 11 12  2  0
 12 13  1  0
 13 14  2  0
 13 15  1  0
 12 16  1  0
 11 17  1  0
 10 18  1  0
  8 19  1  0
  6 20  1  0
  4 21  1  0
 21 22  2  0
 21 23  1  0
 23 24  1  1
 24 25  1  0
 25 26  1  0
 26 27  1  0
 27 28  1  0
 28 29  1  0
 29 30  1  0
 30 31  1  0
 31 32  1  0
 32 33  1  0
 33 34  1  0
 33 35  1  0
 33 36  1  0
 32 37  1  6
 31 38  1  0
 31 39  1  0
 30 40  1  1
 29 41  1  0
 29 42  1  0
 28 43  1  6
 27 44  1  0
 27 45  1  0
 26 46  1  0
 26 47  1  0
 25 48  1  0
 48 49  2  0
 48 50  1  0
 50 51  2  0
 51 52  1  0
 52 53  2  0
 53 54  1  0
 53 55  1  0
 55 56  2  0
 55 57  1  0
 52 58  1  0
 51 59  1  0
 24 60  1  0
 24 61  1  0
  3 62  1  0
  3 63  1  0
  2 64  1  6
  1 65  1  0
  1 66  1  0
  1 67  1  0
 23  2  1  0
 32 28  1  0
 56 50  1  0
 14  5  1  0
 56 23  1  0
 14  9  1  0
 34 30  1  0
M  CHG  1  28   1
M  END
>  <cnnaffinities>  (15) 
[6.36299, 6.41533]

>  <score>  (15) 
6.36299

>  <index>  (15) 
14

>  <Smiles>  (15) 
C([C@]1(C(N(c2c(nc(c3c(c(c(c(c23)[H])[H])[H])[H])[H])[H])C(=O)[C@]21C(N(C(C([N@@+]1(C([C@@]3(C([C@]1(C(O3)([H])[H])[H])([H])[H])[H])([H])[H])[H])([H])[H])([H])[H])C(=O)c1c(c(c(Cl)c(c21)[H])[H])[H])([H])[H])([H])[H])[H])([H])([H])[H]

>  <h>  (15) 
<NA>

>  <Training>  (15) 
True

>  <Success>  (15) 
True

>  <enamine_searched>  (15) 
False

>  <enamine_id>  (15) 
nan

$$$$

     RDKit          3D

 72 77  0  0  0  0  0  0  0  0999 V2000
    6.9649    7.7669   21.5673 C   0  0  0  0  0  0  0  0  0  0  0  0
    5.9753    6.6191   21.4889 C   0  0  1  0  0  0  0  0  0  0  0  0
    6.6939    5.2622   21.3941 C   0  0  0  0  0  0  0  0  0  0  0  0
    6.9215    4.6787   22.7448 N   0  0  2  0  0  4  0  0  0  0  0  0
    7.6270    3.3860   22.6469 C   0  0  0  0  0  0  0  0  0  0  0  0
    8.0491    2.8748   24.0143 C   0  0  0  0  0  0  0  0  0  0  0  0
    8.7705    1.6260   23.8808 N   0  0  0  0  0  0  0  0  0  0  0  0
    8.0529    0.3634   23.7817 C   0  0  0  0  0  0  0  0  0  0  0  0
    8.4682   -0.4556   22.5259 C   0  0  2  0  0  0  0  0  0  0  0  0
    8.0112    0.1973   21.1991 C   0  0  0  0  0  0  0  0  0  0  0  0
    8.5577    1.0879   20.5796 O   0  0  0  0  0  0  0  0  0  0  0  0
    6.8641   -0.4437   20.7892 N   0  0  0  0  0  0  0  0  0  0  0  0
    6.1018    0.0878   19.7263 C   0  0  0  0  0  0  0  0  0  0  0  0
    6.4432   -0.1914   18.4288 C   0  0  0  0  0  0  0  0  0  0  0  0
    5.7569    0.2587   17.3521 N   0  0  0  0  0  0  0  0  0  0  0  0
    4.7264    1.0325   17.5798 C   0  0  0  0  0  0  0  0  0  0  0  0
    4.2944    1.4343   18.8765 C   0  0  0  0  0  0  0  0  0  0  0  0
    3.1968    2.3129   19.0626 C   0  0  0  0  0  0  0  0  0  0  0  0
    2.8106    2.6767   20.3216 C   0  0  0  0  0  0  0  0  0  0  0  0
    3.4998    2.1860   21.4522 C   0  0  0  0  0  0  0  0  0  0  0  0
    4.5745    1.3426   21.3019 C   0  0  0  0  0  0  0  0  0  0  0  0
    4.9939    0.9419   19.9991 C   0  0  0  0  0  0  0  0  0  0  0  0
    5.1084    0.9997   22.1822 H   0  0  0  0  0  0  0  0  0  0  0  0
    3.1722    2.4794   22.4449 H   0  0  0  0  0  0  0  0  0  0  0  0
    1.9696    3.3497   20.4585 H   0  0  0  0  0  0  0  0  0  0  0  0
    2.6872    2.6844   18.1784 H   0  0  0  0  0  0  0  0  0  0  0  0
    4.1751    1.3898   16.7105 H   0  0  0  0  0  0  0  0  0  0  0  0
    7.3107   -0.8148   18.2312 H   0  0  0  0  0  0  0  0  0  0  0  0
    6.4345   -1.5193   21.6649 C   0  0  0  0  0  0  0  0  0  0  0  0
    7.7246   -1.8156   22.4368 C   0  0  2  0  0  0  0  0  0  0  0  0
    7.5542   -2.5680   23.7429 C   0  0  0  0  0  0  0  0  0  0  0  0
    7.0963   -3.5436   23.5613 H   0  0  0  0  0  0  0  0  0  0  0  0
    8.5309   -2.7198   24.2143 H   0  0  0  0  0  0  0  0  0  0  0  0
    6.9173   -2.0170   24.4440 H   0  0  0  0  0  0  0  0  0  0  0  0
    8.3038   -2.4353   21.7480 H   0  0  0  0  0  0  0  0  0  0  0  0
    5.6033   -1.2246   22.3258 H   0  0  0  0  0  0  0  0  0  0  0  0
    6.0993   -2.3846   21.0817 H   0  0  0  0  0  0  0  0  0  0  0  0
    9.9719   -0.5240   22.5061 C   0  0  0  0  0  0  0  0  0  0  0  0
   10.6019   -1.5264   21.7708 C   0  0  0  0  0  0  0  0  0  0  0  0
   11.9465   -1.4504   21.5014 C   0  0  0  0  0  0  0  0  0  0  0  0
   12.5214   -2.6975   20.4182 Cl  0  0  0  0  0  0  0  0  0  0  0  0
   12.7278   -0.3969   21.9978 C   0  0  0  0  0  0  0  0  0  0  0  0
   12.1238    0.5576   22.7874 C   0  0  0  0  0  0  0  0  0  0  0  0
   10.7492    0.5269   23.0083 C   0  0  0  0  0  0  0  0  0  0  0  0
   10.1158    1.7185   23.6606 C   0  0  0  0  0  0  0  0  0  0  0  0
   10.7617    2.7243   23.9375 O   0  0  0  0  0  0  0  0  0  0  0  0
   12.7013    1.3685   23.2163 H   0  0  0  0  0  0  0  0  0  0  0  0
   13.7754   -0.2927   21.7486 H   0  0  0  0  0  0  0  0  0  0  0  0
   10.0737   -2.3658   21.3352 H   0  0  0  0  0  0  0  0  0  0  0  0
    8.2883   -0.2434   24.6696 H   0  0  0  0  0  0  0  0  0  0  0  0
    6.9704    0.5606   23.7865 H   0  0  0  0  0  0  0  0  0  0  0  0
    8.7184    3.6074   24.4704 H   0  0  0  0  0  0  0  0  0  0  0  0
    7.1886    2.7476   24.6781 H   0  0  0  0  0  0  0  0  0  0  0  0
    8.5165    3.5104   22.0216 H   0  0  0  0  0  0  0  0  0  0  0  0
    6.9715    2.6630   22.1473 H   0  0  0  0  0  0  0  0  0  0  0  0
    5.6637    4.5985   23.6122 C   0  0  1  0  0  0  0  0  0  0  0  0
    5.9873    5.1293   25.0111 C   0  0  0  0  0  0  0  0  0  0  0  0
    5.1342    5.0090   25.6828 H   0  0  0  0  0  0  0  0  0  0  0  0
    6.2423    6.1910   24.9388 H   0  0  0  0  0  0  0  0  0  0  0  0
    6.8420    4.6139   25.4553 H   0  0  0  0  0  0  0  0  0  0  0  0
    4.5765    5.4244   22.9380 C   0  0  0  0  0  0  0  0  0  0  0  0
    5.1125    6.6889   22.6179 O   0  0  0  0  0  0  0  0  0  0  0  0
    3.7370    5.5760   23.6237 H   0  0  0  0  0  0  0  0  0  0  0  0
    4.1919    4.9161   22.0393 H   0  0  0  0  0  0  0  0  0  0  0  0
    5.3482    3.5482   23.6447 H   0  0  0  0  0  0  0  0  0  0  0  0
    7.5655    5.3327   23.2322 H   0  0  0  0  0  0  0  0  0  0  0  0
    7.6669    5.4104   20.9197 H   0  0  0  0  0  0  0  0  0  0  0  0
    6.1338    4.5446   20.7741 H   0  0  0  0  0  0  0  0  0  0  0  0
    5.3699    6.7349   20.5781 H   0  0  0  0  0  0  0  0  0  0  0  0
    6.4620    8.7372   21.5686 H   0  0  0  0  0  0  0  0  0  0  0  0
    7.5915    7.6835   22.4632 H   0  0  0  0  0  0  0  0  0  0  0  0
    7.6097    7.7011   20.6895 H   0  0  0  0  0  0  0  0  0  0  0  0
  1  2  1  0
  2  3  1  0
  3  4  1  0
  4  5  1  0
  5  6  1  0
  6  7  1  0
  7  8  1  0
  9  8  1  1
  9 10  1  0
 10 11  2  0
 10 12  1  0
 12 13  1  0
 13 14  2  0
 14 15  1  0
 15 16  2  0
 16 17  1  0
 17 18  2  0
 18 19  1  0
 19 20  2  0
 20 21  1  0
 21 22  2  0
 21 23  1  0
 20 24  1  0
 19 25  1  0
 18 26  1  0
 16 27  1  0
 14 28  1  0
 12 29  1  0
 29 30  1  0
 30 31  1  0
 31 32  1  0
 31 33  1  0
 31 34  1  0
 30 35  1  6
 29 36  1  0
 29 37  1  0
  9 38  1  0
 38 39  2  0
 39 40  1  0
 40 41  1  0
 40 42  2  0
 42 43  1  0
 43 44  2  0
 44 45  1  0
 45 46  2  0
 43 47  1  0
 42 48  1  0
 39 49  1  0
  8 50  1  0
  8 51  1  0
  6 52  1  0
  6 53  1  0
  5 54  1  0
  5 55  1  0
  4 56  1  0
 56 57  1  0
 57 58  1  0
 57 59  1  0
 57 60  1  0
 56 61  1  0
 61 62  1  0
 61 63  1  0
 61 64  1  0
 56 65  1  1
  4 66  1  1
  3 67  1  0
  3 68  1  0
  2 69  1  6
  1 70  1  0
  1 71  1  0
  1 72  1  0
 62  2  1  0
 45  7  1  0
 30  9  1  0
 44 38  1  0
 22 13  1  0
 22 17  1  0
M  CHG  1   4   1
M  END
>  <cnnaffinities>  (16) 
[6.48625]

>  <score>  (16) 
6.48625

>  <index>  (16) 
15

>  <Smiles>  (16) 
C([C@]1(C([N@+](C(C(N2C([C@@]3(C(=O)N(c4c(nc(c5c(c(c(c(c45)[H])[H])[H])[H])[H])[H])C([C@@]3(C([H])([H])[H])[H])([H])[H])c3c(c(Cl)c(c(c3C2=O)[H])[H])[H])([H])[H])([H])[H])([H])[H])([C@@](C([H])([H])[H])(C(O1)([H])[H])[H])[H])([H])[H])[H])([H])([H])[H]

>  <h>  (16) 
<NA>

>  <Training>  (16) 
True

>  <Success>  (16) 
True

>  <enamine_searched>  (16) 
False

>  <enamine_id>  (16) 
nan

$$$$

     RDKit          3D

 47 50  0  0  0  0  0  0  0  0999 V2000
    7.1349   -4.7369   25.2906 C   0  0  0  0  0  0  0  0  0  0  0  0
    6.6104   -3.3754   24.8587 C   0  0  1  0  0  0  0  0  0  0  0  0
    7.6759   -2.2810   24.9346 C   0  0  0  0  0  0  0  0  0  0  0  0
    7.3656   -1.2920   23.7996 C   0  0  2  0  0  0  0  0  0  0  0  0
    6.6586   -0.0458   24.2985 C   0  0  0  0  0  0  0  0  0  0  0  0
    7.3515    1.1602   24.3886 C   0  0  0  0  0  0  0  0  0  0  0  0
    6.7206    2.3087   24.8543 C   0  0  0  0  0  0  0  0  0  0  0  0
    5.3882    2.2586   25.2529 C   0  0  0  0  0  0  0  0  0  0  0  0
    4.6999    1.0497   25.1985 C   0  0  0  0  0  0  0  0  0  0  0  0
    5.3331   -0.0934   24.7301 C   0  0  0  0  0  0  0  0  0  0  0  0
    4.7788   -1.0268   24.6993 H   0  0  0  0  0  0  0  0  0  0  0  0
    3.6610    0.9987   25.5103 H   0  0  0  0  0  0  0  0  0  0  0  0
    4.8879    3.1559   25.6013 H   0  0  0  0  0  0  0  0  0  0  0  0
    7.2665    3.2456   24.8877 H   0  0  0  0  0  0  0  0  0  0  0  0
    8.3923    1.2034   24.0748 H   0  0  0  0  0  0  0  0  0  0  0  0
    6.5636   -2.0649   22.8606 N   0  0  0  0  0  0  0  0  0  0  0  0
    6.2340   -1.7220   21.5769 C   0  0  0  0  0  0  0  0  0  0  0  0
    5.4446   -2.4029   20.9367 O   0  0  0  0  0  0  0  0  0  0  0  0
    6.9120   -0.4917   20.9234 C   0  0  0  0  0  0  0  0  0  0  0  0
    6.1130    0.0835   19.7741 C   0  0  0  0  0  0  0  0  0  0  0  0
    6.4206   -0.2149   18.4711 C   0  0  0  0  0  0  0  0  0  0  0  0
    5.7557    0.2441   17.3754 N   0  0  0  0  0  0  0  0  0  0  0  0
    4.7331    1.0322   17.5797 C   0  0  0  0  0  0  0  0  0  0  0  0
    4.2840    1.4242   18.8705 C   0  0  0  0  0  0  0  0  0  0  0  0
    3.1651    2.2768   19.0458 C   0  0  0  0  0  0  0  0  0  0  0  0
    2.7521    2.6305   20.2982 C   0  0  0  0  0  0  0  0  0  0  0  0
    3.4492    2.1408   21.4288 C   0  0  0  0  0  0  0  0  0  0  0  0
    4.5352    1.3135   21.2934 C   0  0  0  0  0  0  0  0  0  0  0  0
    4.9890    0.9360   20.0022 C   0  0  0  0  0  0  0  0  0  0  0  0
    5.0474    0.9484   22.1839 H   0  0  0  0  0  0  0  0  0  0  0  0
    3.1118    2.4269   22.4186 H   0  0  0  0  0  0  0  0  0  0  0  0
    1.8967    3.2871   20.4385 H   0  0  0  0  0  0  0  0  0  0  0  0
    2.6460    2.6472   18.1630 H   0  0  0  0  0  0  0  0  0  0  0  0
    4.2003    1.3984   16.6975 H   0  0  0  0  0  0  0  0  0  0  0  0
    7.2641   -0.8658   18.2424 H   0  0  0  0  0  0  0  0  0  0  0  0
    7.8746   -0.8358   20.5199 H   0  0  0  0  0  0  0  0  0  0  0  0
    7.1523    0.2917   21.6534 H   0  0  0  0  0  0  0  0  0  0  0  0
    6.1066   -3.3374   23.4114 C   0  0  0  0  0  0  0  0  0  0  0  0
    6.5195   -4.1591   22.8210 H   0  0  0  0  0  0  0  0  0  0  0  0
    5.0185   -3.4440   23.3480 H   0  0  0  0  0  0  0  0  0  0  0  0
    8.2984   -0.9944   23.3143 H   0  0  0  0  0  0  0  0  0  0  0  0
    8.6697   -2.7181   24.8040 H   0  0  0  0  0  0  0  0  0  0  0  0
    7.6897   -1.7968   25.9118 H   0  0  0  0  0  0  0  0  0  0  0  0
    5.7866   -3.1129   25.5296 H   0  0  0  0  0  0  0  0  0  0  0  0
    7.5030   -4.7397   26.3212 H   0  0  0  0  0  0  0  0  0  0  0  0
    7.9623   -5.0565   24.6511 H   0  0  0  0  0  0  0  0  0  0  0  0
    6.3647   -5.5022   25.2304 H   0  0  0  0  0  0  0  0  0  0  0  0
  1  2  1  0
  2  3  1  0
  3  4  1  0
  4  5  1  0
  5  6  2  0
  6  7  1  0
  7  8  2  0
  8  9  1  0
  9 10  2  0
 10 11  1  0
  9 12  1  0
  8 13  1  0
  7 14  1  0
  6 15  1  0
  4 16  1  0
 16 17  1  0
 17 18  2  0
 17 19  1  0
 19 20  1  0
 20 21  2  0
 21 22  1  0
 22 23  2  0
 23 24  1  0
 24 25  2  0
 25 26  1  0
 26 27  2  0
 27 28  1  0
 28 29  2  0
 28 30  1  0
 27 31  1  0
 26 32  1  0
 25 33  1  0
 23 34  1  0
 21 35  1  0
 19 36  1  0
 19 37  1  0
 16 38  1  0
 38 39  1  0
 38 40  1  0
  4 41  1  6
  3 42  1  0
  3 43  1  0
  2 44  1  1
  1 45  1  0
  1 46  1  0
  1 47  1  0
 38  2  1  0
 10  5  1  0
 29 20  1  0
 29 24  1  0
M  END
>  <cnnaffinities>  (17) 
[5.66556]

>  <score>  (17) 
5.66556

>  <index>  (17) 
16

>  <Smiles>  (17) 
C([C@]1(C([C@](c2c(c(c(c(c2[H])[H])[H])[H])[H])(N(C(=O)C(c2c(nc(c3c(c(c(c(c23)[H])[H])[H])[H])[H])[H])([H])[H])C1([H])[H])[H])([H])[H])[H])([H])([H])[H]

>  <h>  (17) 
<NA>

>  <Training>  (17) 
True

>  <Success>  (17) 
True

>  <enamine_searched>  (17) 
False

>  <enamine_id>  (17) 
nan

$$$$

     RDKit          3D

 58 63  0  0  0  0  0  0  0  0999 V2000
    7.2845   -2.4528   23.8896 C   0  0  0  0  0  0  0  0  0  0  0  0
    7.6038   -1.7094   22.5987 C   0  0  1  0  0  0  0  0  0  0  0  0
    6.4268   -1.5778   21.6155 C   0  0  0  0  0  0  0  0  0  0  0  0
    6.8306   -0.4354   20.8168 N   0  0  0  0  0  0  0  0  0  0  0  0
    6.0739    0.0905   19.7488 C   0  0  0  0  0  0  0  0  0  0  0  0
    6.4262   -0.1977   18.4592 C   0  0  0  0  0  0  0  0  0  0  0  0
    5.7480    0.2503   17.3780 N   0  0  0  0  0  0  0  0  0  0  0  0
    4.7158    1.0263   17.5967 C   0  0  0  0  0  0  0  0  0  0  0  0
    4.2775    1.4363   18.8885 C   0  0  0  0  0  0  0  0  0  0  0  0
    3.1697    2.3040   19.0702 C   0  0  0  0  0  0  0  0  0  0  0  0
    2.7803    2.6769   20.3260 C   0  0  0  0  0  0  0  0  0  0  0  0
    3.4822    2.2107   21.4629 C   0  0  0  0  0  0  0  0  0  0  0  0
    4.5616    1.3772   21.3136 C   0  0  0  0  0  0  0  0  0  0  0  0
    4.9812    0.9653   20.0126 C   0  0  0  0  0  0  0  0  0  0  0  0
    5.1025    1.0350   22.1934 H   0  0  0  0  0  0  0  0  0  0  0  0
    3.1725    2.5168   22.4580 H   0  0  0  0  0  0  0  0  0  0  0  0
    1.9324    3.3425   20.4551 H   0  0  0  0  0  0  0  0  0  0  0  0
    2.6587    2.6699   18.1841 H   0  0  0  0  0  0  0  0  0  0  0  0
    4.1763    1.3770   16.7196 H   0  0  0  0  0  0  0  0  0  0  0  0
    7.2999   -0.8190   18.2703 H   0  0  0  0  0  0  0  0  0  0  0  0
    7.7033    0.4077   21.4619 C   0  0  0  0  0  0  0  0  0  0  0  0
    8.0200    1.4994   21.0380 O   0  0  0  0  0  0  0  0  0  0  0  0
    8.2034   -0.2834   22.7411 C   0  0  1  0  0  0  0  0  0  0  0  0
    7.6807    0.4601   23.9893 C   0  0  0  0  0  0  0  0  0  0  0  0
    8.2773    1.7804   24.1091 N   0  0  0  0  0  0  0  0  0  0  0  0
    7.3707    2.9268   23.9919 C   0  0  0  0  0  0  0  0  0  0  0  0
    6.3198    2.8778   25.0534 C   0  0  0  0  0  0  0  0  0  0  0  0
    5.0623    2.5260   24.9144 N   0  0  0  0  0  0  0  0  0  0  0  0
    4.4823    2.5628   26.1582 N   0  0  0  0  0  0  0  0  0  0  0  0
    5.4116    2.9248   27.0024 C   0  0  0  0  0  0  0  0  0  0  0  0
    6.6020    3.1255   26.3630 N   0  0  0  0  0  0  0  0  0  0  0  0
    7.8744    3.5860   26.9055 C   0  0  0  0  0  0  0  0  0  0  0  0
    7.9499    3.2577   27.9450 H   0  0  0  0  0  0  0  0  0  0  0  0
    8.6991    3.1524   26.3322 H   0  0  0  0  0  0  0  0  0  0  0  0
    7.9455    4.6791   26.8602 H   0  0  0  0  0  0  0  0  0  0  0  0
    5.2815    3.0692   28.0663 H   0  0  0  0  0  0  0  0  0  0  0  0
    7.9689    3.8400   24.0864 H   0  0  0  0  0  0  0  0  0  0  0  0
    6.8890    2.9314   23.0031 H   0  0  0  0  0  0  0  0  0  0  0  0
    9.6292    1.9611   23.9689 C   0  0  0  0  0  0  0  0  0  0  0  0
   10.1818    3.0134   24.2668 O   0  0  0  0  0  0  0  0  0  0  0  0
   10.3912    0.8090   23.3788 C   0  0  0  0  0  0  0  0  0  0  0  0
   11.7856    0.8518   23.3565 C   0  0  0  0  0  0  0  0  0  0  0  0
   12.4889    0.0029   22.5248 C   0  0  0  0  0  0  0  0  0  0  0  0
   11.7768   -0.8866   21.7201 C   0  0  0  0  0  0  0  0  0  0  0  0
   12.4010   -1.6057   20.7725 F   0  0  0  0  0  0  0  0  0  0  0  0
   10.4142   -1.0247   21.8139 C   0  0  0  0  0  0  0  0  0  0  0  0
    9.7113   -0.2119   22.7054 C   0  0  0  0  0  0  0  0  0  0  0  0
    9.9111   -1.7322   21.1584 H   0  0  0  0  0  0  0  0  0  0  0  0
   13.5683    0.0541   22.4655 H   0  0  0  0  0  0  0  0  0  0  0  0
   12.3185    1.5749   23.9639 H   0  0  0  0  0  0  0  0  0  0  0  0
    6.5926    0.5866   23.9271 H   0  0  0  0  0  0  0  0  0  0  0  0
    7.9222   -0.1196   24.8906 H   0  0  0  0  0  0  0  0  0  0  0  0
    6.3163   -2.4646   20.9810 H   0  0  0  0  0  0  0  0  0  0  0  0
    5.4629   -1.4013   22.1251 H   0  0  0  0  0  0  0  0  0  0  0  0
    8.3570   -2.2975   22.0742 H   0  0  0  0  0  0  0  0  0  0  0  0
    8.1734   -2.5044   24.5283 H   0  0  0  0  0  0  0  0  0  0  0  0
    6.9646   -3.4779   23.6750 H   0  0  0  0  0  0  0  0  0  0  0  0
    6.4867   -1.9643   24.4597 H   0  0  0  0  0  0  0  0  0  0  0  0
  1  2  1  0
  2  3  1  0
  3  4  1  0
  4  5  1  0
  5  6  2  0
  6  7  1  0
  7  8  2  0
  8  9  1  0
  9 10  2  0
 10 11  1  0
 11 12  2  0
 12 13  1  0
 13 14  2  0
 13 15  1  0
 12 16  1  0
 11 17  1  0
 10 18  1  0
  8 19  1  0
  6 20  1  0
  4 21  1  0
 21 22  2  0
 21 23  1  0
 23 24  1  1
 24 25  1  0
 25 26  1  0
 26 27  1  0
 27 28  2  0
 28 29  1  0
 29 30  2  0
 30 31  1  0
 31 32  1  0
 32 33  1  0
 32 34  1  0
 32 35  1  0
 30 36  1  0
 26 37  1  0
 26 38  1  0
 25 39  1  0
 39 40  2  0
 39 41  1  0
 41 42  2  0
 42 43  1  0
 43 44  2  0
 44 45  1  0
 44 46  1  0
 46 47  2  0
 46 48  1  0
 43 49  1  0
 42 50  1  0
 24 51  1  0
 24 52  1  0
  3 53  1  0
  3 54  1  0
  2 55  1  6
  1 56  1  0
  1 57  1  0
  1 58  1  0
 23  2  1  0
 31 27  1  0
 47 41  1  0
 14  5  1  0
 47 23  1  0
 14  9  1  0
M  END
>  <cnnaffinities>  (18) 
[5.99968, 6.39186]

>  <score>  (18) 
5.99968

>  <index>  (18) 
17

>  <Smiles>  (18) 
C([C@]1(C(N(c2c(nc(c3c(c(c(c(c23)[H])[H])[H])[H])[H])[H])C(=O)[C@]21C(N(C(c1nnc(n1C([H])([H])[H])[H])([H])[H])C(=O)c1c(c(c(F)c(c21)[H])[H])[H])([H])[H])([H])[H])[H])([H])([H])[H]

>  <h>  (18) 
<NA>

>  <Training>  (18) 
True

>  <Success>  (18) 
True

>  <enamine_searched>  (18) 
False

>  <enamine_id>  (18) 
nan

$$$$

     RDKit          3D

 50 53  0  0  0  0  0  0  0  0999 V2000
    3.9011   -1.8264   29.3970 C   0  0  0  0  0  0  0  0  0  0  0  0
    3.9696   -2.1647   27.9150 C   0  0  1  0  0  0  0  0  0  0  0  0
    4.0175   -0.9055   27.0488 C   0  0  0  0  0  0  0  0  0  0  0  0
    4.1270   -1.2247   25.5555 C   0  0  0  0  0  0  0  0  0  0  0  0
    5.2869   -2.1853   25.1950 C   0  0  2  0  0  0  0  0  0  0  0  0
    6.6536   -1.4727   25.2922 C   0  0  0  0  0  0  0  0  0  0  0  0
    6.9251   -0.8661   23.9099 C   0  0  0  0  0  0  0  0  0  0  0  0
    6.0992   -1.6414   22.9924 N   0  0  0  0  0  0  0  0  0  0  0  0
    6.1461   -1.6288   21.6269 C   0  0  0  0  0  0  0  0  0  0  0  0
    5.5825   -2.4855   20.9641 O   0  0  0  0  0  0  0  0  0  0  0  0
    6.9093   -0.4855   20.9198 C   0  0  0  0  0  0  0  0  0  0  0  0
    6.1152    0.0912   19.7685 C   0  0  0  0  0  0  0  0  0  0  0  0
    6.4214   -0.2140   18.4660 C   0  0  0  0  0  0  0  0  0  0  0  0
    5.7563    0.2428   17.3722 N   0  0  0  0  0  0  0  0  0  0  0  0
    4.7325    1.0324   17.5773 C   0  0  0  0  0  0  0  0  0  0  0  0
    4.2850    1.4250   18.8692 C   0  0  0  0  0  0  0  0  0  0  0  0
    3.1627    2.2756   19.0434 C   0  0  0  0  0  0  0  0  0  0  0  0
    2.7491    2.6275   20.3000 C   0  0  0  0  0  0  0  0  0  0  0  0
    3.4427    2.1437   21.4309 C   0  0  0  0  0  0  0  0  0  0  0  0
    4.5333    1.3207   21.2876 C   0  0  0  0  0  0  0  0  0  0  0  0
    4.9896    0.9414   19.9963 C   0  0  0  0  0  0  0  0  0  0  0  0
    5.0478    0.9570   22.1723 H   0  0  0  0  0  0  0  0  0  0  0  0
    3.1056    2.4261   22.4229 H   0  0  0  0  0  0  0  0  0  0  0  0
    1.8919    3.2805   20.4366 H   0  0  0  0  0  0  0  0  0  0  0  0
    2.6413    2.6449   18.1637 H   0  0  0  0  0  0  0  0  0  0  0  0
    4.1984    1.3990   16.6990 H   0  0  0  0  0  0  0  0  0  0  0  0
    7.2657   -0.8672   18.2463 H   0  0  0  0  0  0  0  0  0  0  0  0
    7.8356   -0.9157   20.5175 H   0  0  0  0  0  0  0  0  0  0  0  0
    7.2117    0.3114   21.6094 H   0  0  0  0  0  0  0  0  0  0  0  0
    5.2290   -2.5789   23.6996 C   0  0  0  0  0  0  0  0  0  0  0  0
    5.5656   -3.6116   23.5484 H   0  0  0  0  0  0  0  0  0  0  0  0
    4.2094   -2.5249   23.3090 H   0  0  0  0  0  0  0  0  0  0  0  0
    7.9831   -0.9506   23.6501 H   0  0  0  0  0  0  0  0  0  0  0  0
    6.6507    0.1946   23.8871 H   0  0  0  0  0  0  0  0  0  0  0  0
    6.6751   -0.7050   26.0697 H   0  0  0  0  0  0  0  0  0  0  0  0
    7.4346   -2.1942   25.5541 H   0  0  0  0  0  0  0  0  0  0  0  0
    5.2165   -3.4243   26.1113 C   0  0  0  0  0  0  0  0  0  0  0  0
    5.1544   -3.0770   27.5987 C   0  0  0  0  0  0  0  0  0  0  0  0
    5.0913   -3.9941   28.1992 H   0  0  0  0  0  0  0  0  0  0  0  0
    6.0867   -2.5834   27.9022 H   0  0  0  0  0  0  0  0  0  0  0  0
    4.3269   -4.0140   25.8508 H   0  0  0  0  0  0  0  0  0  0  0  0
    6.0768   -4.0777   25.9183 H   0  0  0  0  0  0  0  0  0  0  0  0
    3.1809   -1.6848   25.2418 H   0  0  0  0  0  0  0  0  0  0  0  0
    4.2220   -0.2975   24.9769 H   0  0  0  0  0  0  0  0  0  0  0  0
    3.1214   -0.2974   27.2314 H   0  0  0  0  0  0  0  0  0  0  0  0
    4.8637   -0.2821   27.3639 H   0  0  0  0  0  0  0  0  0  0  0  0
    3.0564   -2.7115   27.6474 H   0  0  0  0  0  0  0  0  0  0  0  0
    3.0368   -1.1950   29.6234 H   0  0  0  0  0  0  0  0  0  0  0  0
    3.8336   -2.7308   30.0092 H   0  0  0  0  0  0  0  0  0  0  0  0
    4.7999   -1.2837   29.7068 H   0  0  0  0  0  0  0  0  0  0  0  0
  1  2  1  0
  2  3  1  0
  3  4  1  0
  5  4  1  1
  5  6  1  0
  6  7  1  0
  7  8  1  0
  8  9  1  0
  9 10  2  0
  9 11  1  0
 11 12  1  0
 12 13  2  0
 13 14  1  0
 14 15  2  0
 15 16  1  0
 16 17  2  0
 17 18  1  0
 18 19  2  0
 19 20  1  0
 20 21  2  0
 20 22  1  0
 19 23  1  0
 18 24  1  0
 17 25  1  0
 15 26  1  0
 13 27  1  0
 11 28  1  0
 11 29  1  0
  8 30  1  0
 30 31  1  0
 30 32  1  0
  7 33  1  0
  7 34  1  0
  6 35  1  0
  6 36  1  0
  5 37  1  0
 37 38  1  0
 38 39  1  0
 38 40  1  0
 37 41  1  0
 37 42  1  0
  4 43  1  0
  4 44  1  0
  3 45  1  0
  3 46  1  0
  2 47  1  6
  1 48  1  0
  1 49  1  0
  1 50  1  0
 38  2  1  0
 30  5  1  0
 21 12  1  0
 21 16  1  0
M  END
>  <cnnaffinities>  (19) 
[5.4392]

>  <score>  (19) 
5.4392

>  <index>  (19) 
18

>  <Smiles>  (19) 
C([C@]1(C(C([C@@]2(C(C(N(C(=O)C(c3c(nc(c4c(c(c(c(c34)[H])[H])[H])[H])[H])[H])([H])[H])C2([H])[H])([H])[H])([H])[H])C(C1([H])[H])([H])[H])([H])[H])([H])[H])[H])([H])([H])[H]

>  <h>  (19) 
<NA>

>  <Training>  (19) 
True

>  <Success>  (19) 
True

>  <enamine_searched>  (19) 
False

>  <enamine_id>  (19) 
nan

$$$$

     RDKit          3D

 67 71  0  0  0  0  0  0  0  0999 V2000
    3.6014   -5.2901   21.8463 O   0  0  0  0  0  0  0  0  0  0  0  0
    4.1740   -5.8411   22.7758 C   0  0  0  0  0  0  0  0  0  0  0  0
    5.6856   -5.6667   22.8376 C   0  0  0  0  0  0  0  0  0  0  0  0
    5.9014   -4.1949   22.7771 N   0  0  1  0  0  4  0  0  0  0  0  0
    5.1920   -3.5904   23.9576 C   0  0  0  0  0  0  0  0  0  0  0  0
    5.5290   -2.1540   24.2568 C   0  0  0  0  0  0  0  0  0  0  0  0
    4.7279   -1.4444   25.1544 C   0  0  0  0  0  0  0  0  0  0  0  0
    5.0709   -0.1639   25.5639 C   0  0  0  0  0  0  0  0  0  0  0  0
    6.2429    0.4017   25.0676 C   0  0  0  0  0  0  0  0  0  0  0  0
    6.7101    1.9979   25.5879 Cl  0  0  0  0  0  0  0  0  0  0  0  0
    7.0307   -0.2742   24.1452 C   0  0  0  0  0  0  0  0  0  0  0  0
    6.6500   -1.5455   23.7060 C   0  0  0  0  0  0  0  0  0  0  0  0
    7.3366   -2.2244   22.5397 C   0  0  2  0  0  0  0  0  0  0  0  0
    6.5867   -1.8263   21.2624 C   0  0  0  0  0  0  0  0  0  0  0  0
    5.8074   -2.5748   20.6841 O   0  0  0  0  0  0  0  0  0  0  0  0
    6.7972   -0.5390   20.8445 N   0  0  0  0  0  0  0  0  0  0  0  0
    6.0850    0.0389   19.7672 C   0  0  0  0  0  0  0  0  0  0  0  0
    6.4307   -0.2513   18.4754 C   0  0  0  0  0  0  0  0  0  0  0  0
    5.7930    0.2455   17.3888 N   0  0  0  0  0  0  0  0  0  0  0  0
    4.7724    1.0386   17.5926 C   0  0  0  0  0  0  0  0  0  0  0  0
    4.3155    1.4313   18.8822 C   0  0  0  0  0  0  0  0  0  0  0  0
    3.1954    2.2846   19.0540 C   0  0  0  0  0  0  0  0  0  0  0  0
    2.7770    2.6283   20.3088 C   0  0  0  0  0  0  0  0  0  0  0  0
    3.4598    2.1430   21.4462 C   0  0  0  0  0  0  0  0  0  0  0  0
    4.5455    1.3121   21.3083 C   0  0  0  0  0  0  0  0  0  0  0  0
    4.9949    0.9328   20.0134 C   0  0  0  0  0  0  0  0  0  0  0  0
    5.0405    0.9219   22.1928 H   0  0  0  0  0  0  0  0  0  0  0  0
    3.1078    2.4165   22.4364 H   0  0  0  0  0  0  0  0  0  0  0  0
    1.9154    3.2772   20.4425 H   0  0  0  0  0  0  0  0  0  0  0  0
    2.6797    2.6450   18.1689 H   0  0  0  0  0  0  0  0  0  0  0  0
    4.2347    1.3966   16.7138 H   0  0  0  0  0  0  0  0  0  0  0  0
    7.2827   -0.8995   18.2858 H   0  0  0  0  0  0  0  0  0  0  0  0
    7.2468    0.0963   21.4838 H   0  0  0  0  0  0  0  0  0  0  0  0
    7.3171   -3.7463   22.6795 C   0  0  0  0  0  0  0  0  0  0  0  0
    7.7925   -4.2016   21.8056 H   0  0  0  0  0  0  0  0  0  0  0  0
    7.8655   -4.0642   23.5729 H   0  0  0  0  0  0  0  0  0  0  0  0
    8.3644   -1.8586   22.4558 H   0  0  0  0  0  0  0  0  0  0  0  0
    7.9314    0.1975   23.7629 H   0  0  0  0  0  0  0  0  0  0  0  0
    4.4513    0.3886   26.2652 H   0  0  0  0  0  0  0  0  0  0  0  0
    3.8206   -1.8995   25.5471 H   0  0  0  0  0  0  0  0  0  0  0  0
    5.4165   -4.2042   24.8393 H   0  0  0  0  0  0  0  0  0  0  0  0
    4.1139   -3.6671   23.7899 H   0  0  0  0  0  0  0  0  0  0  0  0
    5.4335   -3.8535   21.9052 H   0  0  0  0  0  0  0  0  0  0  0  0
    6.1283   -6.0842   23.7447 H   0  0  0  0  0  0  0  0  0  0  0  0
    6.1336   -6.1586   21.9666 H   0  0  0  0  0  0  0  0  0  0  0  0
    3.5106   -6.4924   23.7605 N   0  0  0  0  0  0  0  0  0  0  0  0
    2.0681   -6.6941   23.6836 C   0  0  0  0  0  0  0  0  0  0  0  0
    1.2803   -5.3749   23.6099 C   0  0  0  0  0  0  0  0  0  0  0  0
   -0.2119   -5.5762   23.5809 C   0  0  0  0  0  0  0  0  0  0  0  0
   -0.9419   -5.6129   24.7694 C   0  0  0  0  0  0  0  0  0  0  0  0
   -2.3149   -5.8300   24.7582 C   0  0  0  0  0  0  0  0  0  0  0  0
   -2.9851   -6.0158   23.5532 C   0  0  0  0  0  0  0  0  0  0  0  0
   -4.4635   -6.2499   23.5379 C   0  0  0  0  0  0  0  0  0  0  0  0
   -5.0830   -5.3347   22.7374 F   0  0  0  0  0  0  0  0  0  0  0  0
   -4.7418   -7.4769   23.0092 F   0  0  0  0  0  0  0  0  0  0  0  0
   -4.9145   -6.1934   24.5358 H   0  0  0  0  0  0  0  0  0  0  0  0
   -2.2676   -5.9758   22.3582 C   0  0  0  0  0  0  0  0  0  0  0  0
   -0.8952   -5.7541   22.3752 C   0  0  0  0  0  0  0  0  0  0  0  0
   -0.3525   -5.7096   21.4321 H   0  0  0  0  0  0  0  0  0  0  0  0
   -2.7892   -6.1103   21.4145 H   0  0  0  0  0  0  0  0  0  0  0  0
   -2.8652   -5.8452   25.6986 H   0  0  0  0  0  0  0  0  0  0  0  0
   -0.4273   -5.4636   25.7161 H   0  0  0  0  0  0  0  0  0  0  0  0
    1.5517   -4.7582   24.4768 H   0  0  0  0  0  0  0  0  0  0  0  0
    1.6119   -4.8487   22.7102 H   0  0  0  0  0  0  0  0  0  0  0  0
    1.7757   -7.2824   24.5573 H   0  0  0  0  0  0  0  0  0  0  0  0
    1.8295   -7.2913   22.7970 H   0  0  0  0  0  0  0  0  0  0  0  0
    4.0151   -6.7766   24.5799 H   0  0  0  0  0  0  0  0  0  0  0  0
  1  2  2  0
  2  3  1  0
  3  4  1  0
  4  5  1  0
  5  6  1  0
  6  7  2  0
  7  8  1  0
  8  9  2  0
  9 10  1  0
  9 11  1  0
 11 12  2  0
 12 13  1  0
 13 14  1  0
 14 15  2  0
 14 16  1  0
 16 17  1  0
 17 18  2  0
 18 19  1  0
 19 20  2  0
 20 21  1  0
 21 22  2  0
 22 23  1  0
 23 24  2  0
 24 25  1  0
 25 26  2  0
 25 27  1  0
 24 28  1  0
 23 29  1  0
 22 30  1  0
 20 31  1  0
 18 32  1  0
 16 33  1  0
 13 34  1  0
 34 35  1  0
 34 36  1  0
 13 37  1  6
 11 38  1  0
  8 39  1  0
  7 40  1  0
  5 41  1  0
  5 42  1  0
  4 43  1  6
  3 44  1  0
  3 45  1  0
  2 46  1  0
 46 47  1  0
 47 48  1  0
 48 49  1  0
 49 50  2  0
 50 51  1  0
 51 52  2  0
 52 53  1  0
 53 54  1  0
 53 55  1  0
 53 56  1  0
 52 57  1  0
 57 58  2  0
 58 59  1  0
 57 60  1  0
 51 61  1  0
 50 62  1  0
 48 63  1  0
 48 64  1  0
 47 65  1  0
 47 66  1  0
 46 67  1  0
 34  4  1  0
 58 49  1  0
 12  6  1  0
 26 17  1  0
 26 21  1  0
M  CHG  1   4   1
M  END
>  <cnnaffinities>  (20) 
[5.73739]

>  <score>  (20) 
5.73739

>  <index>  (20) 
19

>  <Smiles>  (20) 
O=C(C([N@+]1(C(c2c(c(c(Cl)c(c2[C@](C(=O)N(c2c(nc(c3c(c(c(c(c23)[H])[H])[H])[H])[H])[H])[H])(C1([H])[H])[H])[H])[H])[H])([H])[H])[H])([H])[H])N(C(C(c1c(c(c(C(F)(F)[H])c(c1[H])[H])[H])[H])([H])[H])([H])[H])[H]

>  <h>  (20) 
<NA>

>  <Training>  (20) 
True

>  <Success>  (20) 
True

>  <enamine_searched>  (20) 
False

>  <enamine_id>  (20) 
nan

$$$$

     RDKit          3D

 66 70  0  0  0  0  0  0  0  0999 V2000
    4.1914    7.1088   21.4452 C   0  0  0  0  0  0  0  0  0  0  0  0
    5.4052    6.2172   21.2832 C   0  0  0  0  0  0  0  0  0  0  0  0
    5.8107    5.4254   22.4851 C   0  0  0  0  0  0  0  0  0  0  0  0
    5.0887    4.5692   22.9557 O   0  0  0  0  0  0  0  0  0  0  0  0
    7.1087    5.6617   22.9195 N   0  0  0  0  0  0  0  0  0  0  0  0
    7.6258    7.0206   23.0267 C   0  0  0  0  0  0  0  0  0  0  0  0
    8.1623    7.1967   24.4350 C   0  0  0  0  0  0  0  0  0  0  0  0
    9.3025    6.2033   24.6527 C   0  0  0  0  0  0  0  0  0  0  0  0
    8.9661    4.7968   24.2022 C   0  0  0  0  0  0  0  0  0  0  0  0
    9.6950    3.6868   24.6224 C   0  0  0  0  0  0  0  0  0  0  0  0
    9.4005    2.4028   24.1747 C   0  0  0  0  0  0  0  0  0  0  0  0
    8.3604    2.2172   23.2689 C   0  0  0  0  0  0  0  0  0  0  0  0
    8.0042    0.9170   22.7997 N   0  0  0  0  0  0  0  0  0  0  0  0
    7.8786    0.7476   21.4079 C   0  0  0  0  0  0  0  0  0  0  0  0
    8.4404    1.4863   20.6378 O   0  0  0  0  0  0  0  0  0  0  0  0
    6.9901   -0.3975   20.9248 C   0  0  0  0  0  0  0  0  0  0  0  0
    6.1197    0.0732   19.7892 C   0  0  0  0  0  0  0  0  0  0  0  0
    6.4395   -0.2225   18.4907 C   0  0  0  0  0  0  0  0  0  0  0  0
    5.7749    0.2283   17.3953 N   0  0  0  0  0  0  0  0  0  0  0  0
    4.7489    1.0140   17.6010 C   0  0  0  0  0  0  0  0  0  0  0  0
    4.3012    1.4154   18.8881 C   0  0  0  0  0  0  0  0  0  0  0  0
    3.1943    2.2862   19.0613 C   0  0  0  0  0  0  0  0  0  0  0  0
    2.7922    2.6641   20.3132 C   0  0  0  0  0  0  0  0  0  0  0  0
    3.4897    2.1892   21.4481 C   0  0  0  0  0  0  0  0  0  0  0  0
    4.5702    1.3528   21.3059 C   0  0  0  0  0  0  0  0  0  0  0  0
    5.0066    0.9342   20.0195 C   0  0  0  0  0  0  0  0  0  0  0  0
    5.0914    1.0110   22.1986 H   0  0  0  0  0  0  0  0  0  0  0  0
    3.1847    2.5053   22.4420 H   0  0  0  0  0  0  0  0  0  0  0  0
    1.9431    3.3328   20.4397 H   0  0  0  0  0  0  0  0  0  0  0  0
    2.6809    2.6521   18.1750 H   0  0  0  0  0  0  0  0  0  0  0  0
    4.2129    1.3807   16.7232 H   0  0  0  0  0  0  0  0  0  0  0  0
    7.2948   -0.8652   18.2808 H   0  0  0  0  0  0  0  0  0  0  0  0
    6.4160   -0.7838   21.7700 H   0  0  0  0  0  0  0  0  0  0  0  0
    7.6522   -1.2023   20.5741 H   0  0  0  0  0  0  0  0  0  0  0  0
    8.0882   -0.1865   23.6345 N   0  0  0  0  0  0  0  0  0  0  0  0
    9.0556   -1.2208   23.3439 C   0  0  0  0  0  0  0  0  0  0  0  0
    8.6022   -2.2052   23.4909 H   0  0  0  0  0  0  0  0  0  0  0  0
    9.9437   -1.1570   23.9871 H   0  0  0  0  0  0  0  0  0  0  0  0
    9.3866   -1.1653   22.3072 H   0  0  0  0  0  0  0  0  0  0  0  0
    7.2910   -0.2723   24.7688 C   0  0  0  0  0  0  0  0  0  0  0  0
    7.5355   -1.2463   25.7528 C   0  0  0  0  0  0  0  0  0  0  0  0
    6.8696   -1.1678   26.9704 C   0  0  0  0  0  0  0  0  0  0  0  0
    5.9104   -0.1902   27.2088 C   0  0  0  0  0  0  0  0  0  0  0  0
    5.5808    0.6678   26.1668 C   0  0  0  0  0  0  0  0  0  0  0  0
    4.3361    1.8661   26.3830 Cl  0  0  0  0  0  0  0  0  0  0  0  0
    6.2493    0.6460   24.9583 C   0  0  0  0  0  0  0  0  0  0  0  0
    5.9921    1.3605   24.1808 H   0  0  0  0  0  0  0  0  0  0  0  0
    5.4348   -0.0789   28.1773 H   0  0  0  0  0  0  0  0  0  0  0  0
    7.1227   -1.8800   27.7545 H   0  0  0  0  0  0  0  0  0  0  0  0
    8.2802   -2.0326   25.6177 H   0  0  0  0  0  0  0  0  0  0  0  0
    7.6186    3.3003   22.8329 C   0  0  0  0  0  0  0  0  0  0  0  0
    7.9006    4.5778   23.3252 C   0  0  0  0  0  0  0  0  0  0  0  0
    6.8409    3.1666   22.0842 H   0  0  0  0  0  0  0  0  0  0  0  0
    9.9883    1.5460   24.4752 H   0  0  0  0  0  0  0  0  0  0  0  0
   10.5258    3.8324   25.3078 H   0  0  0  0  0  0  0  0  0  0  0  0
   10.1790    6.5577   24.0938 H   0  0  0  0  0  0  0  0  0  0  0  0
    9.6058    6.1921   25.7034 H   0  0  0  0  0  0  0  0  0  0  0  0
    7.3498    7.0239   25.1482 H   0  0  0  0  0  0  0  0  0  0  0  0
    8.5042    8.2240   24.5814 H   0  0  0  0  0  0  0  0  0  0  0  0
    8.4138    7.2043   22.2798 H   0  0  0  0  0  0  0  0  0  0  0  0
    6.8047    7.7130   22.8192 H   0  0  0  0  0  0  0  0  0  0  0  0
    6.2664    6.7696   20.9058 H   0  0  0  0  0  0  0  0  0  0  0  0
    5.2102    5.3998   20.5884 H   0  0  0  0  0  0  0  0  0  0  0  0
    3.9460    7.5656   20.4839 H   0  0  0  0  0  0  0  0  0  0  0  0
    4.3569    7.9160   22.1611 H   0  0  0  0  0  0  0  0  0  0  0  0
    3.3327    6.5289   21.7791 H   0  0  0  0  0  0  0  0  0  0  0  0
  1  2  1  0
  2  3  1  0
  3  4  2  0
  3  5  1  0
  5  6  1  0
  6  7  1  0
  7  8  1  0
  8  9  1  0
  9 10  2  0
 10 11  1  0
 11 12  2  0
 12 13  1  0
 13 14  1  0
 14 15  2  0
 14 16  1  0
 16 17  1  0
 17 18  2  0
 18 19  1  0
 19 20  2  0
 20 21  1  0
 21 22  2  0
 22 23  1  0
 23 24  2  0
 24 25  1  0
 25 26  2  0
 25 27  1  0
 24 28  1  0
 23 29  1  0
 22 30  1  0
 20 31  1  0
 18 32  1  0
 16 33  1  0
 16 34  1  0
 13 35  1  0
 35 36  1  0
 36 37  1  0
 36 38  1  0
 36 39  1  0
 35 40  1  0
 40 41  2  0
 41 42  1  0
 42 43  2  0
 43 44  1  0
 44 45  1  0
 44 46  2  0
 46 47  1  0
 43 48  1  0
 42 49  1  0
 41 50  1  0
 12 51  1  0
 51 52  2  0
 51 53  1  0
 11 54  1  0
 10 55  1  0
  8 56  1  0
  8 57  1  0
  7 58  1  0
  7 59  1  0
  6 60  1  0
  6 61  1  0
  2 62  1  0
  2 63  1  0
  1 64  1  0
  1 65  1  0
  1 66  1  0
 52  5  1  0
 52  9  1  0
 26 17  1  0
 46 40  1  0
 26 21  1  0
M  END
>  <cnnaffinities>  (21) 
[6.13575, 6.46231]

>  <score>  (21) 
6.13575

>  <index>  (21) 
20

>  <Smiles>  (21) 
C(C(C(=O)N1C(C(C(c2c(c(c(N(C(=O)C(c3c(nc(c4c(c(c(c(c34)[H])[H])[H])[H])[H])[H])([H])[H])N(C([H])([H])[H])c3c(c(c(c(Cl)c3[H])[H])[H])[H])c(c12)[H])[H])[H])([H])[H])([H])[H])([H])[H])([H])[H])([H])([H])[H]

>  <h>  (21) 
<NA>

>  <Training>  (21) 
True

>  <Success>  (21) 
True

>  <enamine_searched>  (21) 
False

>  <enamine_id>  (21) 
nan

$$$$

     RDKit          3D

 59 64  0  0  0  0  0  0  0  0999 V2000
    6.8016   -2.2554   23.6489 C   0  0  0  0  0  0  0  0  0  0  0  0
    7.7653   -1.8285   22.5298 C   0  0  1  0  0  0  0  0  0  0  0  0
    7.0363   -1.7852   21.1676 C   0  0  0  0  0  0  0  0  0  0  0  0
    6.8796   -0.3805   20.8764 N   0  0  0  0  0  0  0  0  0  0  0  0
    6.1287    0.1091   19.7791 C   0  0  0  0  0  0  0  0  0  0  0  0
    6.4433   -0.2258   18.4860 C   0  0  0  0  0  0  0  0  0  0  0  0
    5.7701    0.2266   17.4007 N   0  0  0  0  0  0  0  0  0  0  0  0
    4.7482    1.0215   17.6015 C   0  0  0  0  0  0  0  0  0  0  0  0
    4.2956    1.4274   18.8874 C   0  0  0  0  0  0  0  0  0  0  0  0
    3.1688    2.2759   19.0640 C   0  0  0  0  0  0  0  0  0  0  0  0
    2.7446    2.6192   20.3197 C   0  0  0  0  0  0  0  0  0  0  0  0
    3.4289    2.1303   21.4545 C   0  0  0  0  0  0  0  0  0  0  0  0
    4.5238    1.3165   21.3085 C   0  0  0  0  0  0  0  0  0  0  0  0
    5.0004    0.9549   20.0186 C   0  0  0  0  0  0  0  0  0  0  0  0
    5.0304    0.9183   22.1800 H   0  0  0  0  0  0  0  0  0  0  0  0
    3.0760    2.3963   22.4473 H   0  0  0  0  0  0  0  0  0  0  0  0
    1.8815    3.2649   20.4477 H   0  0  0  0  0  0  0  0  0  0  0  0
    2.6574    2.6421   18.1785 H   0  0  0  0  0  0  0  0  0  0  0  0
    4.2220    1.3823   16.7169 H   0  0  0  0  0  0  0  0  0  0  0  0
    7.2889   -0.8740   18.2611 H   0  0  0  0  0  0  0  0  0  0  0  0
    7.7195    0.4356   21.5994 C   0  0  0  0  0  0  0  0  0  0  0  0
    7.8760    1.6163   21.3755 O   0  0  0  0  0  0  0  0  0  0  0  0
    8.4357   -0.4167   22.6807 C   0  0  1  0  0  0  0  0  0  0  0  0
    8.2468    0.1774   24.1008 C   0  0  0  0  0  0  0  0  0  0  0  0
    8.9698    1.4190   24.3207 N   0  0  0  0  0  0  0  0  0  0  0  0
    8.2812    2.5702   24.9058 C   0  0  0  0  0  0  0  0  0  0  0  0
    7.7588    3.5706   23.8962 C   0  0  0  0  0  0  0  0  0  0  0  0
    8.4781    4.5939   23.2387 C   0  0  0  0  0  0  0  0  0  0  0  0
    7.7394    5.2228   22.3328 N   0  0  0  0  0  0  0  0  0  0  0  0
    6.5471    4.6248   22.3920 N   0  0  0  0  0  0  0  0  0  0  0  0
    5.4934    4.9485   21.4549 C   0  0  0  0  0  0  0  0  0  0  0  0
    5.4733    4.2387   20.6146 H   0  0  0  0  0  0  0  0  0  0  0  0
    5.6662    5.9645   21.0918 H   0  0  0  0  0  0  0  0  0  0  0  0
    4.5413    4.8857   21.9907 H   0  0  0  0  0  0  0  0  0  0  0  0
    6.5032    3.6460   23.3257 C   0  0  0  0  0  0  0  0  0  0  0  0
    5.5877    3.0677   23.4435 H   0  0  0  0  0  0  0  0  0  0  0  0
    9.5166    4.8765   23.3658 H   0  0  0  0  0  0  0  0  0  0  0  0
    8.9818    3.0573   25.5881 H   0  0  0  0  0  0  0  0  0  0  0  0
    7.4548    2.1803   25.5088 H   0  0  0  0  0  0  0  0  0  0  0  0
   10.2552    1.5894   23.8887 C   0  0  0  0  0  0  0  0  0  0  0  0
   10.9385    2.5586   24.2055 O   0  0  0  0  0  0  0  0  0  0  0  0
   10.7758    0.5310   22.9755 C   0  0  0  0  0  0  0  0  0  0  0  0
   12.1307    0.5874   22.6570 C   0  0  0  0  0  0  0  0  0  0  0  0
   12.6609   -0.2965   21.7490 C   0  0  0  0  0  0  0  0  0  0  0  0
   11.8300   -1.2540   21.1784 C   0  0  0  0  0  0  0  0  0  0  0  0
   12.3719   -2.0784   20.2675 F   0  0  0  0  0  0  0  0  0  0  0  0
   10.4749   -1.3041   21.4418 C   0  0  0  0  0  0  0  0  0  0  0  0
    9.9350   -0.4249   22.3906 C   0  0  0  0  0  0  0  0  0  0  0  0
    9.8553   -1.9705   20.8502 H   0  0  0  0  0  0  0  0  0  0  0  0
   13.6867   -0.2206   21.4162 H   0  0  0  0  0  0  0  0  0  0  0  0
   12.7414    1.3531   23.1211 H   0  0  0  0  0  0  0  0  0  0  0  0
    7.1890    0.3899   24.2584 H   0  0  0  0  0  0  0  0  0  0  0  0
    8.5716   -0.5871   24.8237 H   0  0  0  0  0  0  0  0  0  0  0  0
    7.6300   -2.2702   20.3881 H   0  0  0  0  0  0  0  0  0  0  0  0
    6.0534   -2.2683   21.2082 H   0  0  0  0  0  0  0  0  0  0  0  0
    8.5620   -2.5803   22.5034 H   0  0  0  0  0  0  0  0  0  0  0  0
    7.3037   -2.3287   24.6177 H   0  0  0  0  0  0  0  0  0  0  0  0
    6.3896   -3.2452   23.4253 H   0  0  0  0  0  0  0  0  0  0  0  0
    5.9605   -1.5611   23.7507 H   0  0  0  0  0  0  0  0  0  0  0  0
  1  2  1  0
  2  3  1  0
  3  4  1  0
  4  5  1  0
  5  6  2  0
  6  7  1  0
  7  8  2  0
  8  9  1  0
  9 10  2  0
 10 11  1  0
 11 12  2  0
 12 13  1  0
 13 14  2  0
 13 15  1  0
 12 16  1  0
 11 17  1  0
 10 18  1  0
  8 19  1  0
  6 20  1  0
  4 21  1  0
 21 22  2  0
 21 23  1  0
 23 24  1  1
 24 25  1  0
 25 26  1  0
 26 27  1  0
 27 28  1  0
 28 29  2  0
 29 30  1  0
 30 31  1  0
 31 32  1  0
 31 33  1  0
 31 34  1  0
 30 35  1  0
 35 36  1  0
 28 37  1  0
 26 38  1  0
 26 39  1  0
 25 40  1  0
 40 41  2  0
 40 42  1  0
 42 43  2  0
 43 44  1  0
 44 45  2  0
 45 46  1  0
 45 47  1  0
 47 48  2  0
 47 49  1  0
 44 50  1  0
 43 51  1  0
 24 52  1  0
 24 53  1  0
  3 54  1  0
  3 55  1  0
  2 56  1  6
  1 57  1  0
  1 58  1  0
  1 59  1  0
 23  2  1  0
 35 27  2  0
 48 42  1  0
 14  5  1  0
 48 23  1  0
 14  9  1  0
M  END
>  <cnnaffinities>  (22) 
[6.47107, 6.43199]

>  <score>  (22) 
6.47107

>  <index>  (22) 
21

>  <Smiles>  (22) 
C([C@]1(C(N(c2c(nc(c3c(c(c(c(c23)[H])[H])[H])[H])[H])[H])C(=O)[C@]21C(N(C(c1c(nn(C([H])([H])[H])c1[H])[H])([H])[H])C(=O)c1c(c(c(F)c(c21)[H])[H])[H])([H])[H])([H])[H])[H])([H])([H])[H]

>  <h>  (22) 
<NA>

>  <Training>  (22) 
True

>  <Success>  (22) 
True

>  <enamine_searched>  (22) 
False

>  <enamine_id>  (22) 
nan

$$$$

     RDKit          3D

 41 44  0  0  0  0  0  0  0  0999 V2000
    7.9640    1.7363   21.0753 O   0  0  0  0  0  0  0  0  0  0  0  0
    8.0380    0.5549   21.3780 C   0  0  0  0  0  0  0  0  0  0  0  0
    6.9839   -0.4455   20.9080 C   0  0  0  0  0  0  0  0  0  0  0  0
    6.1449    0.0951   19.7815 C   0  0  0  0  0  0  0  0  0  0  0  0
    6.4558   -0.2069   18.4812 C   0  0  0  0  0  0  0  0  0  0  0  0
    5.7855    0.2377   17.3865 N   0  0  0  0  0  0  0  0  0  0  0  0
    4.7553    1.0236   17.5951 C   0  0  0  0  0  0  0  0  0  0  0  0
    4.3148    1.4209   18.8828 C   0  0  0  0  0  0  0  0  0  0  0  0
    3.1940    2.2719   19.0500 C   0  0  0  0  0  0  0  0  0  0  0  0
    2.7858    2.6426   20.3027 C   0  0  0  0  0  0  0  0  0  0  0  0
    3.4863    2.1782   21.4405 C   0  0  0  0  0  0  0  0  0  0  0  0
    4.5811    1.3565   21.3009 C   0  0  0  0  0  0  0  0  0  0  0  0
    5.0269    0.9538   20.0142 C   0  0  0  0  0  0  0  0  0  0  0  0
    5.1195    1.0253   22.1826 H   0  0  0  0  0  0  0  0  0  0  0  0
    3.1512    2.4749   22.4293 H   0  0  0  0  0  0  0  0  0  0  0  0
    1.9327    3.3019   20.4306 H   0  0  0  0  0  0  0  0  0  0  0  0
    2.6789    2.6286   18.1598 H   0  0  0  0  0  0  0  0  0  0  0  0
    4.2107    1.3886   16.7230 H   0  0  0  0  0  0  0  0  0  0  0  0
    7.2934   -0.8699   18.2545 H   0  0  0  0  0  0  0  0  0  0  0  0
    6.3737   -0.7560   21.7683 H   0  0  0  0  0  0  0  0  0  0  0  0
    7.5148   -1.3414   20.5656 H   0  0  0  0  0  0  0  0  0  0  0  0
    9.0752    0.0639   22.1165 N   0  0  0  0  0  0  0  0  0  0  0  0
    9.1923   -1.3226   22.5877 C   0  0  0  0  0  0  0  0  0  0  0  0
   10.1020   -1.3999   23.8099 C   0  0  0  0  0  0  0  0  0  0  0  0
   11.4348   -0.7793   23.4971 C   0  0  0  0  0  0  0  0  0  0  0  0
   12.6391   -1.2922   23.9647 C   0  0  0  0  0  0  0  0  0  0  0  0
   12.6571   -2.7412   24.9398 Cl  0  0  0  0  0  0  0  0  0  0  0  0
   13.8489   -0.6861   23.6623 C   0  0  0  0  0  0  0  0  0  0  0  0
   13.8668    0.4186   22.8177 C   0  0  0  0  0  0  0  0  0  0  0  0
   12.6773    0.9521   22.3414 C   0  0  0  0  0  0  0  0  0  0  0  0
   11.4612    0.3807   22.7104 C   0  0  0  0  0  0  0  0  0  0  0  0
   10.1491    1.0250   22.3569 C   0  0  0  0  0  0  0  0  0  0  0  0
    9.8353    1.7080   23.1601 H   0  0  0  0  0  0  0  0  0  0  0  0
   10.2184    1.6538   21.4631 H   0  0  0  0  0  0  0  0  0  0  0  0
   12.7014    1.8118   21.6721 H   0  0  0  0  0  0  0  0  0  0  0  0
   14.8000    0.8772   22.5077 H   0  0  0  0  0  0  0  0  0  0  0  0
   14.7433   -1.1143   24.0874 H   0  0  0  0  0  0  0  0  0  0  0  0
   10.2326   -2.4359   24.1415 H   0  0  0  0  0  0  0  0  0  0  0  0
    9.6373   -0.8473   24.6354 H   0  0  0  0  0  0  0  0  0  0  0  0
    9.5943   -1.9538   21.7862 H   0  0  0  0  0  0  0  0  0  0  0  0
    8.2078   -1.7354   22.8432 H   0  0  0  0  0  0  0  0  0  0  0  0
  1  2  2  0
  2  3  1  0
  3  4  1  0
  4  5  2  0
  5  6  1  0
  6  7  2  0
  7  8  1  0
  8  9  2  0
  9 10  1  0
 10 11  2  0
 11 12  1  0
 12 13  2  0
 12 14  1  0
 11 15  1  0
 10 16  1  0
  9 17  1  0
  7 18  1  0
  5 19  1  0
  3 20  1  0
  3 21  1  0
  2 22  1  0
 22 23  1  0
 23 24  1  0
 24 25  1  0
 25 26  2  0
 26 27  1  0
 26 28  1  0
 28 29  2  0
 29 30  1  0
 30 31  2  0
 31 32  1  0
 32 33  1  0
 32 34  1  0
 30 35  1  0
 29 36  1  0
 28 37  1  0
 24 38  1  0
 24 39  1  0
 23 40  1  0
 23 41  1  0
 13  4  1  0
 32 22  1  0
 13  8  1  0
 31 25  1  0
M  END
>  <cnnaffinities>  (23) 
[5.76687]

>  <score>  (23) 
5.76687

>  <index>  (23) 
22

>  <Smiles>  (23) 
O=C(C(c1c(nc(c2c(c(c(c(c12)[H])[H])[H])[H])[H])[H])([H])[H])N1C(C(c2c(Cl)c(c(c(c2C1([H])[H])[H])[H])[H])([H])[H])([H])[H]

>  <h>  (23) 
<NA>

>  <Training>  (23) 
True

>  <Success>  (23) 
True

>  <enamine_searched>  (23) 
False

>  <enamine_id>  (23) 
nan

$$$$

     RDKit          3D

 69 74  0  0  0  0  0  0  0  0999 V2000
    7.8693    7.7079   22.4763 C   0  0  0  0  0  0  0  0  0  0  0  0
    7.6582    6.3649   21.8029 C   0  0  1  0  0  0  0  0  0  0  0  0
    8.5819    5.2472   22.3362 C   0  0  0  0  0  0  0  0  0  0  0  0
    7.9397    3.8709   22.2374 N   0  0  1  0  0  4  0  0  0  0  0  0
    7.2624    3.4362   23.5047 C   0  0  0  0  0  0  0  0  0  0  0  0
    8.2514    2.8768   24.5219 C   0  0  0  0  0  0  0  0  0  0  0  0
    8.9198    1.6824   24.0126 N   0  0  0  0  0  0  0  0  0  0  0  0
    8.1579    0.4530   23.8497 C   0  0  0  0  0  0  0  0  0  0  0  0
    8.5058   -0.3522   22.5629 C   0  0  2  0  0  0  0  0  0  0  0  0
    7.9694    0.3465   21.2916 C   0  0  0  0  0  0  0  0  0  0  0  0
    8.4156    1.3782   20.8107 O   0  0  0  0  0  0  0  0  0  0  0  0
    6.9035   -0.3711   20.7992 N   0  0  0  0  0  0  0  0  0  0  0  0
    6.1169    0.1213   19.7278 C   0  0  0  0  0  0  0  0  0  0  0  0
    6.4605   -0.1629   18.4310 C   0  0  0  0  0  0  0  0  0  0  0  0
    5.7694    0.2825   17.3567 N   0  0  0  0  0  0  0  0  0  0  0  0
    4.7291    1.0476   17.5727 C   0  0  0  0  0  0  0  0  0  0  0  0
    4.2747    1.4275   18.8675 C   0  0  0  0  0  0  0  0  0  0  0  0
    3.1739    2.3032   19.0556 C   0  0  0  0  0  0  0  0  0  0  0  0
    2.7819    2.6681   20.3147 C   0  0  0  0  0  0  0  0  0  0  0  0
    3.4699    2.1787   21.4444 C   0  0  0  0  0  0  0  0  0  0  0  0
    4.5331    1.3194   21.2887 C   0  0  0  0  0  0  0  0  0  0  0  0
    4.9744    0.9324   19.9912 C   0  0  0  0  0  0  0  0  0  0  0  0
    5.0738    0.9798   22.1662 H   0  0  0  0  0  0  0  0  0  0  0  0
    3.1703    2.4984   22.4385 H   0  0  0  0  0  0  0  0  0  0  0  0
    1.9461    3.3480   20.4540 H   0  0  0  0  0  0  0  0  0  0  0  0
    2.6738    2.6906   18.1737 H   0  0  0  0  0  0  0  0  0  0  0  0
    4.1830    1.4159   16.7018 H   0  0  0  0  0  0  0  0  0  0  0  0
    7.3324   -0.7797   18.2200 H   0  0  0  0  0  0  0  0  0  0  0  0
    6.4619   -1.4244   21.6936 C   0  0  0  0  0  0  0  0  0  0  0  0
    7.7427   -1.7048   22.4886 C   0  0  2  0  0  0  0  0  0  0  0  0
    7.5535   -2.4442   23.8024 C   0  0  0  0  0  0  0  0  0  0  0  0
    6.9214   -1.8710   24.4898 H   0  0  0  0  0  0  0  0  0  0  0  0
    8.5252   -2.6057   24.2849 H   0  0  0  0  0  0  0  0  0  0  0  0
    7.0783   -3.4172   23.6399 H   0  0  0  0  0  0  0  0  0  0  0  0
    8.3211   -2.3398   21.8181 H   0  0  0  0  0  0  0  0  0  0  0  0
    5.6256   -1.1067   22.3353 H   0  0  0  0  0  0  0  0  0  0  0  0
    6.1278   -2.3013   21.1277 H   0  0  0  0  0  0  0  0  0  0  0  0
   10.0119   -0.4484   22.4467 C   0  0  0  0  0  0  0  0  0  0  0  0
   10.6048   -1.4796   21.6991 C   0  0  0  0  0  0  0  0  0  0  0  0
   11.9144   -1.3628   21.2865 C   0  0  0  0  0  0  0  0  0  0  0  0
   12.5439   -2.5678   20.1872 Cl  0  0  0  0  0  0  0  0  0  0  0  0
   12.7028   -0.2753   21.6709 C   0  0  0  0  0  0  0  0  0  0  0  0
   12.1582    0.6871   22.5044 C   0  0  0  0  0  0  0  0  0  0  0  0
   10.8128    0.6214   22.8764 C   0  0  0  0  0  0  0  0  0  0  0  0
   10.2356    1.7784   23.6503 C   0  0  0  0  0  0  0  0  0  0  0  0
   10.9111    2.7729   23.8847 O   0  0  0  0  0  0  0  0  0  0  0  0
   12.7673    1.5176   22.8467 H   0  0  0  0  0  0  0  0  0  0  0  0
   13.7186   -0.2045   21.2950 H   0  0  0  0  0  0  0  0  0  0  0  0
   10.0779   -2.3824   21.4123 H   0  0  0  0  0  0  0  0  0  0  0  0
    8.3303   -0.2020   24.7119 H   0  0  0  0  0  0  0  0  0  0  0  0
    7.0909    0.6890   23.8336 H   0  0  0  0  0  0  0  0  0  0  0  0
    9.0443    3.5929   24.7363 H   0  0  0  0  0  0  0  0  0  0  0  0
    7.7430    2.6586   25.4702 H   0  0  0  0  0  0  0  0  0  0  0  0
    6.7027    4.2731   23.9222 H   0  0  0  0  0  0  0  0  0  0  0  0
    6.5398    2.6559   23.2296 H   0  0  0  0  0  0  0  0  0  0  0  0
    6.9828    3.8606   21.0962 C   0  0  0  0  0  0  0  0  0  0  0  0
    5.8961    4.9129   21.2494 C   0  0  0  0  0  0  0  0  0  0  0  0
    6.3076    6.0072   22.0405 O   0  0  0  0  0  0  0  0  0  0  0  0
    5.6123    5.2695   20.2589 H   0  0  0  0  0  0  0  0  0  0  0  0
    5.0084    4.4914   21.7298 H   0  0  0  0  0  0  0  0  0  0  0  0
    6.5246    2.8832   21.0196 H   0  0  0  0  0  0  0  0  0  0  0  0
    7.5456    4.0085   20.1785 H   0  0  0  0  0  0  0  0  0  0  0  0
    8.6397    3.1578   21.9882 H   0  0  0  0  0  0  0  0  0  0  0  0
    8.8316    5.4300   23.3824 H   0  0  0  0  0  0  0  0  0  0  0  0
    9.5238    5.2398   21.7823 H   0  0  0  0  0  0  0  0  0  0  0  0
    7.8346    6.4785   20.7203 H   0  0  0  0  0  0  0  0  0  0  0  0
    7.6177    7.6209   23.5388 H   0  0  0  0  0  0  0  0  0  0  0  0
    7.1978    8.4444   22.0216 H   0  0  0  0  0  0  0  0  0  0  0  0
    8.8994    8.0714   22.3705 H   0  0  0  0  0  0  0  0  0  0  0  0
  1  2  1  0
  2  3  1  0
  3  4  1  0
  4  5  1  0
  5  6  1  0
  6  7  1  0
  7  8  1  0
  9  8  1  1
  9 10  1  0
 10 11  2  0
 10 12  1  0
 12 13  1  0
 13 14  2  0
 14 15  1  0
 15 16  2  0
 16 17  1  0
 17 18  2  0
 18 19  1  0
 19 20  2  0
 20 21  1  0
 21 22  2  0
 21 23  1  0
 20 24  1  0
 19 25  1  0
 18 26  1  0
 16 27  1  0
 14 28  1  0
 12 29  1  0
 29 30  1  0
 30 31  1  0
 31 32  1  0
 31 33  1  0
 31 34  1  0
 30 35  1  6
 29 36  1  0
 29 37  1  0
  9 38  1  0
 38 39  2  0
 39 40  1  0
 40 41  1  0
 40 42  2  0
 42 43  1  0
 43 44  2  0
 44 45  1  0
 45 46  2  0
 43 47  1  0
 42 48  1  0
 39 49  1  0
  8 50  1  0
  8 51  1  0
  6 52  1  0
  6 53  1  0
  5 54  1  0
  5 55  1  0
  4 56  1  0
 56 57  1  0
 57 58  1  0
 57 59  1  0
 57 60  1  0
 56 61  1  0
 56 62  1  0
  4 63  1  6
  3 64  1  0
  3 65  1  0
  2 66  1  6
  1 67  1  0
  1 68  1  0
  1 69  1  0
 58  2  1  0
 45  7  1  0
 30  9  1  0
 44 38  1  0
 22 13  1  0
 22 17  1  0
M  CHG  1   4   1
M  END
>  <cnnaffinities>  (24) 
[6.37443]

>  <score>  (24) 
6.37443

>  <index>  (24) 
23

>  <Smiles>  (24) 
C([C@]1(C([N@@+](C(C(N2C([C@@]3(C(=O)N(c4c(nc(c5c(c(c(c(c45)[H])[H])[H])[H])[H])[H])C([C@@]3(C([H])([H])[H])[H])([H])[H])c3c(c(Cl)c(c(c3C2=O)[H])[H])[H])([H])[H])([H])[H])([H])[H])(C(C(O1)([H])[H])([H])[H])[H])([H])[H])[H])([H])([H])[H]

>  <h>  (24) 
<NA>

>  <Training>  (24) 
True

>  <Success>  (24) 
True

>  <enamine_searched>  (24) 
False

>  <enamine_id>  (24) 
nan

$$$$

     RDKit          3D

 70 75  0  0  0  0  0  0  0  0999 V2000
    6.5271    4.5782   21.3450 C   0  0  0  0  0  0  0  0  0  0  0  0
    6.8495    3.6251   22.4094 N   0  0  0  0  0  4  0  0  0  0  0  0
    7.9165    4.0586   23.3343 C   0  0  0  0  0  0  0  0  0  0  0  0
    8.1070    3.0633   24.4826 C   0  0  0  0  0  0  0  0  0  0  0  0
    8.7132    1.8130   24.0528 N   0  0  0  0  0  0  0  0  0  0  0  0
    7.9307    0.5908   23.9464 C   0  0  0  0  0  0  0  0  0  0  0  0
    8.2999   -0.2563   22.7025 C   0  0  2  0  0  0  0  0  0  0  0  0
    7.7410    0.4225   21.4493 C   0  0  0  0  0  0  0  0  0  0  0  0
    7.9402    1.5806   21.0980 O   0  0  0  0  0  0  0  0  0  0  0  0
    6.9001   -0.4258   20.7931 N   0  0  0  0  0  0  0  0  0  0  0  0
    6.1119    0.1013   19.7382 C   0  0  0  0  0  0  0  0  0  0  0  0
    6.4512   -0.1935   18.4451 C   0  0  0  0  0  0  0  0  0  0  0  0
    5.7656    0.2560   17.3724 N   0  0  0  0  0  0  0  0  0  0  0  0
    4.7388    1.0360   17.5943 C   0  0  0  0  0  0  0  0  0  0  0  0
    4.3092    1.4477   18.8877 C   0  0  0  0  0  0  0  0  0  0  0  0
    3.2032    2.3180   19.0671 C   0  0  0  0  0  0  0  0  0  0  0  0
    2.8094    2.6959   20.3207 C   0  0  0  0  0  0  0  0  0  0  0  0
    3.5055    2.2235   21.4546 C   0  0  0  0  0  0  0  0  0  0  0  0
    4.5837    1.3831   21.3081 C   0  0  0  0  0  0  0  0  0  0  0  0
    5.0197    0.9731   20.0113 C   0  0  0  0  0  0  0  0  0  0  0  0
    5.0931    1.0140   22.1968 H   0  0  0  0  0  0  0  0  0  0  0  0
    3.1836    2.5255   22.4483 H   0  0  0  0  0  0  0  0  0  0  0  0
    1.9601    3.3609   20.4510 H   0  0  0  0  0  0  0  0  0  0  0  0
    2.6865    2.6718   18.1793 H   0  0  0  0  0  0  0  0  0  0  0  0
    4.1901    1.3917   16.7218 H   0  0  0  0  0  0  0  0  0  0  0  0
    7.3175   -0.8200   18.2406 H   0  0  0  0  0  0  0  0  0  0  0  0
    6.4650   -1.5365   21.6253 C   0  0  0  0  0  0  0  0  0  0  0  0
    7.5968   -1.6490   22.6544 C   0  0  2  0  0  0  0  0  0  0  0  0
    7.1690   -2.2687   23.9769 C   0  0  0  0  0  0  0  0  0  0  0  0
    6.0731   -1.5540   24.5106 O   0  0  0  0  0  0  0  0  0  0  0  0
    5.6901   -2.0047   25.7913 C   0  0  0  0  0  0  0  0  0  0  0  0
    4.5978   -1.0846   26.2962 C   0  0  0  0  0  0  0  0  0  0  0  0
    3.2616   -1.1950   25.5439 C   0  0  0  0  0  0  0  0  0  0  0  0
    2.6183   -1.7847   26.6822 O   0  0  0  0  0  0  0  0  0  0  0  0
    3.8012   -1.6399   27.4811 C   0  0  0  0  0  0  0  0  0  0  0  0
    3.6495   -0.9592   28.3286 H   0  0  0  0  0  0  0  0  0  0  0  0
    4.1501   -2.6051   27.8729 H   0  0  0  0  0  0  0  0  0  0  0  0
    2.7948   -0.2466   25.2501 H   0  0  0  0  0  0  0  0  0  0  0  0
    3.2582   -1.8668   24.6769 H   0  0  0  0  0  0  0  0  0  0  0  0
    4.9681   -0.0624   26.4107 H   0  0  0  0  0  0  0  0  0  0  0  0
    6.5485   -1.9962   26.4853 H   0  0  0  0  0  0  0  0  0  0  0  0
    5.3146   -3.0419   25.7373 H   0  0  0  0  0  0  0  0  0  0  0  0
    8.0162   -2.2529   24.6857 H   0  0  0  0  0  0  0  0  0  0  0  0
    6.8833   -3.3205   23.8149 H   0  0  0  0  0  0  0  0  0  0  0  0
    8.3276   -2.3399   22.2383 H   0  0  0  0  0  0  0  0  0  0  0  0
    5.5081   -1.3153   22.1179 H   0  0  0  0  0  0  0  0  0  0  0  0
    6.3485   -2.4475   21.0270 H   0  0  0  0  0  0  0  0  0  0  0  0
    9.8092   -0.3502   22.6112 C   0  0  0  0  0  0  0  0  0  0  0  0
   10.4270   -1.3440   21.8462 C   0  0  0  0  0  0  0  0  0  0  0  0
   11.7981   -1.4225   21.7363 C   0  0  0  0  0  0  0  0  0  0  0  0
   12.3813   -2.7312   20.7281 Cl  0  0  0  0  0  0  0  0  0  0  0  0
   12.6151   -0.4919   22.3883 C   0  0  0  0  0  0  0  0  0  0  0  0
   12.0118    0.5178   23.1046 C   0  0  0  0  0  0  0  0  0  0  0  0
   10.6283    0.6224   23.1853 C   0  0  0  0  0  0  0  0  0  0  0  0
   10.0594    1.8372   23.8318 C   0  0  0  0  0  0  0  0  0  0  0  0
   10.7662    2.7986   24.1342 O   0  0  0  0  0  0  0  0  0  0  0  0
   12.6267    1.2560   23.6036 H   0  0  0  0  0  0  0  0  0  0  0  0
   13.6950   -0.4865   22.3473 H   0  0  0  0  0  0  0  0  0  0  0  0
    9.8613   -2.0733   21.2847 H   0  0  0  0  0  0  0  0  0  0  0  0
    8.0707   -0.0221   24.8453 H   0  0  0  0  0  0  0  0  0  0  0  0
    6.8769    0.8567   23.8612 H   0  0  0  0  0  0  0  0  0  0  0  0
    8.7721    3.4919   25.2364 H   0  0  0  0  0  0  0  0  0  0  0  0
    7.1485    2.8305   24.9564 H   0  0  0  0  0  0  0  0  0  0  0  0
    8.8624    4.1414   22.7905 H   0  0  0  0  0  0  0  0  0  0  0  0
    7.6863    5.0507   23.7369 H   0  0  0  0  0  0  0  0  0  0  0  0
    5.9824    3.4256   22.9348 H   0  0  0  0  0  0  0  0  0  0  0  0
    7.1531    2.7433   21.9608 H   0  0  0  0  0  0  0  0  0  0  0  0
    6.3700    5.5835   21.7483 H   0  0  0  0  0  0  0  0  0  0  0  0
    7.3438    4.6293   20.6220 H   0  0  0  0  0  0  0  0  0  0  0  0
    5.6191    4.2496   20.8306 H   0  0  0  0  0  0  0  0  0  0  0  0
  1  2  1  0
  2  3  1  0
  3  4  1  0
  4  5  1  0
  5  6  1  0
  7  6  1  1
  7  8  1  0
  8  9  2  0
  8 10  1  0
 10 11  1  0
 11 12  2  0
 12 13  1  0
 13 14  2  0
 14 15  1  0
 15 16  2  0
 16 17  1  0
 17 18  2  0
 18 19  1  0
 19 20  2  0
 19 21  1  0
 18 22  1  0
 17 23  1  0
 16 24  1  0
 14 25  1  0
 12 26  1  0
 10 27  1  0
 27 28  1  0
 28 29  1  0
 29 30  1  0
 30 31  1  0
 31 32  1  0
 32 33  1  0
 33 34  1  0
 34 35  1  0
 35 36  1  0
 35 37  1  0
 33 38  1  0
 33 39  1  0
 32 40  1  0
 31 41  1  0
 31 42  1  0
 29 43  1  0
 29 44  1  0
 28 45  1  6
 27 46  1  0
 27 47  1  0
  7 48  1  0
 48 49  2  0
 49 50  1  0
 50 51  1  0
 50 52  2  0
 52 53  1  0
 53 54  2  0
 54 55  1  0
 55 56  2  0
 53 57  1  0
 52 58  1  0
 49 59  1  0
  6 60  1  0
  6 61  1  0
  4 62  1  0
  4 63  1  0
  3 64  1  0
  3 65  1  0
  2 66  1  0
  2 67  1  0
  1 68  1  0
  1 69  1  0
  1 70  1  0
 55  5  1  0
 28  7  1  0
 35 32  1  0
 54 48  1  0
 20 11  1  0
 20 15  1  0
M  CHG  1   2   1
M  END
>  <cnnaffinities>  (25) 
[6.21072]

>  <score>  (25) 
6.21072

>  <index>  (25) 
24

>  <Smiles>  (25) 
C([N+](C(C(N1C([C@@]2(C(=O)N(c3c(nc(c4c(c(c(c(c34)[H])[H])[H])[H])[H])[H])C([C@@]2(C(OC(C2(C(OC2([H])[H])([H])[H])[H])([H])[H])([H])[H])[H])([H])[H])c2c(c(Cl)c(c(c2C1=O)[H])[H])[H])([H])[H])([H])[H])([H])[H])([H])[H])([H])([H])[H]

>  <h>  (25) 
<NA>

>  <Training>  (25) 
True

>  <Success>  (25) 
True

>  <enamine_searched>  (25) 
False

>  <enamine_id>  (25) 
nan

$$$$

     RDKit          3D

 68 73  0  0  0  0  0  0  0  0999 V2000
    6.4984    4.2754   21.2918 C   0  0  0  0  0  0  0  0  0  0  0  0
    7.4676    3.9165   22.3193 N   0  0  0  0  0  0  0  0  0  0  0  0
    7.0036    3.3085   23.4506 C   0  0  0  0  0  0  0  0  0  0  0  0
    5.8143    3.1041   23.6471 O   0  0  0  0  0  0  0  0  0  0  0  0
    8.0713    2.8832   24.4665 C   0  0  0  0  0  0  0  0  0  0  0  0
    8.7224    1.6474   24.0523 N   0  0  0  0  0  0  0  0  0  0  0  0
    7.9156    0.4439   23.8673 C   0  0  0  0  0  0  0  0  0  0  0  0
    8.3485   -0.4109   22.6433 C   0  0  2  0  0  0  0  0  0  0  0  0
    7.9274    0.2817   21.3175 C   0  0  0  0  0  0  0  0  0  0  0  0
    8.4332    1.2675   20.8186 O   0  0  0  0  0  0  0  0  0  0  0  0
    6.8775   -0.4154   20.7659 N   0  0  0  0  0  0  0  0  0  0  0  0
    6.1148    0.1256   19.7061 C   0  0  0  0  0  0  0  0  0  0  0  0
    6.4572   -0.1605   18.4117 C   0  0  0  0  0  0  0  0  0  0  0  0
    5.7660    0.2851   17.3404 N   0  0  0  0  0  0  0  0  0  0  0  0
    4.7217    1.0446   17.5614 C   0  0  0  0  0  0  0  0  0  0  0  0
    4.2712    1.4287   18.8562 C   0  0  0  0  0  0  0  0  0  0  0  0
    3.1626    2.2918   19.0495 C   0  0  0  0  0  0  0  0  0  0  0  0
    2.7767    2.6563   20.3111 C   0  0  0  0  0  0  0  0  0  0  0  0
    3.4774    2.1751   21.4390 C   0  0  0  0  0  0  0  0  0  0  0  0
    4.5523    1.3331   21.2765 C   0  0  0  0  0  0  0  0  0  0  0  0
    4.9790    0.9430   19.9757 C   0  0  0  0  0  0  0  0  0  0  0  0
    5.1220    1.0227   22.1469 H   0  0  0  0  0  0  0  0  0  0  0  0
    3.1951    2.4981   22.4366 H   0  0  0  0  0  0  0  0  0  0  0  0
    1.9346    3.3274   20.4513 H   0  0  0  0  0  0  0  0  0  0  0  0
    2.6504    2.6699   18.1707 H   0  0  0  0  0  0  0  0  0  0  0  0
    4.1761    1.4047   16.6897 H   0  0  0  0  0  0  0  0  0  0  0  0
    7.3293   -0.7798   18.2089 H   0  0  0  0  0  0  0  0  0  0  0  0
    6.4025   -1.5163   21.5711 C   0  0  0  0  0  0  0  0  0  0  0  0
    7.5758   -1.7629   22.5254 C   0  0  2  0  0  0  0  0  0  0  0  0
    7.1421   -2.4785   23.7982 C   0  0  0  0  0  0  0  0  0  0  0  0
    8.2953   -2.8744   24.5669 N   0  0  0  0  0  0  0  0  0  0  0  0
    8.1996   -3.7017   25.6789 C   0  0  0  0  0  0  0  0  0  0  0  0
    7.1145   -3.8326   26.5861 C   0  0  0  0  0  0  0  0  0  0  0  0
    7.4324   -4.5463   27.6593 N   0  0  0  0  0  0  0  0  0  0  0  0
    8.7075   -4.9106   27.4570 N   0  0  0  0  0  0  0  0  0  0  0  0
    9.5067   -5.4213   28.5507 C   0  0  0  0  0  0  0  0  0  0  0  0
    9.4223   -4.7439   29.4053 H   0  0  0  0  0  0  0  0  0  0  0  0
    9.2007   -6.4243   28.8607 H   0  0  0  0  0  0  0  0  0  0  0  0
   10.5513   -5.4554   28.2292 H   0  0  0  0  0  0  0  0  0  0  0  0
    9.1976   -4.4520   26.2709 C   0  0  0  0  0  0  0  0  0  0  0  0
   10.1685   -4.7757   25.9161 H   0  0  0  0  0  0  0  0  0  0  0  0
    6.1198   -3.4214   26.4658 H   0  0  0  0  0  0  0  0  0  0  0  0
    9.2167   -2.7475   24.1668 H   0  0  0  0  0  0  0  0  0  0  0  0
    6.5256   -3.3503   23.5334 H   0  0  0  0  0  0  0  0  0  0  0  0
    6.4645   -1.8339   24.3785 H   0  0  0  0  0  0  0  0  0  0  0  0
    8.2519   -2.4425   22.0054 H   0  0  0  0  0  0  0  0  0  0  0  0
    5.4766   -1.2584   22.1114 H   0  0  0  0  0  0  0  0  0  0  0  0
    6.1880   -2.3900   20.9411 H   0  0  0  0  0  0  0  0  0  0  0  0
    9.8635   -0.5241   22.6298 C   0  0  0  0  0  0  0  0  0  0  0  0
   10.4851   -1.4530   21.7866 C   0  0  0  0  0  0  0  0  0  0  0  0
   11.8389   -1.3729   21.5294 C   0  0  0  0  0  0  0  0  0  0  0  0
   12.4850   -2.4514   20.3219 Cl  0  0  0  0  0  0  0  0  0  0  0  0
   12.6409   -0.4189   22.1613 C   0  0  0  0  0  0  0  0  0  0  0  0
   12.0510    0.4601   23.0396 C   0  0  0  0  0  0  0  0  0  0  0  0
   10.6689    0.4626   23.2127 C   0  0  0  0  0  0  0  0  0  0  0  0
   10.0736    1.6725   23.8559 C   0  0  0  0  0  0  0  0  0  0  0  0
   10.7633    2.6473   24.1377 O   0  0  0  0  0  0  0  0  0  0  0  0
   12.6382    1.1982   23.5743 H   0  0  0  0  0  0  0  0  0  0  0  0
   13.6912   -0.3031   21.9301 H   0  0  0  0  0  0  0  0  0  0  0  0
    9.9346   -2.1987   21.2260 H   0  0  0  0  0  0  0  0  0  0  0  0
    7.9718   -0.1685   24.7752 H   0  0  0  0  0  0  0  0  0  0  0  0
    6.8783    0.7591   23.7314 H   0  0  0  0  0  0  0  0  0  0  0  0
    8.8659    3.6320   24.5525 H   0  0  0  0  0  0  0  0  0  0  0  0
    7.5981    2.7809   25.4511 H   0  0  0  0  0  0  0  0  0  0  0  0
    8.3968    3.6674   21.9994 H   0  0  0  0  0  0  0  0  0  0  0  0
    5.9888    3.3890   20.8878 H   0  0  0  0  0  0  0  0  0  0  0  0
    7.0020    4.7987   20.4774 H   0  0  0  0  0  0  0  0  0  0  0  0
    5.7410    4.9440   21.7129 H   0  0  0  0  0  0  0  0  0  0  0  0
  1  2  1  0
  2  3  1  0
  3  4  2  0
  3  5  1  0
  5  6  1  0
  6  7  1  0
  8  7  1  1
  8  9  1  0
  9 10  2  0
  9 11  1  0
 11 12  1  0
 12 13  2  0
 13 14  1  0
 14 15  2  0
 15 16  1  0
 16 17  2  0
 17 18  1  0
 18 19  2  0
 19 20  1  0
 20 21  2  0
 20 22  1  0
 19 23  1  0
 18 24  1  0
 17 25  1  0
 15 26  1  0
 13 27  1  0
 11 28  1  0
 28 29  1  0
 29 30  1  0
 30 31  1  0
 31 32  1  0
 32 33  1  0
 33 34  2  0
 34 35  1  0
 35 36  1  0
 36 37  1  0
 36 38  1  0
 36 39  1  0
 35 40  1  0
 40 41  1  0
 33 42  1  0
 31 43  1  0
 30 44  1  0
 30 45  1  0
 29 46  1  6
 28 47  1  0
 28 48  1  0
  8 49  1  0
 49 50  2  0
 50 51  1  0
 51 52  1  0
 51 53  2  0
 53 54  1  0
 54 55  2  0
 55 56  1  0
 56 57  2  0
 54 58  1  0
 53 59  1  0
 50 60  1  0
  7 61  1  0
  7 62  1  0
  5 63  1  0
  5 64  1  0
  2 65  1  0
  1 66  1  0
  1 67  1  0
  1 68  1  0
 56  6  1  0
 29  8  1  0
 40 32  2  0
 55 49  1  0
 21 12  1  0
 21 16  1  0
M  END
>  <cnnaffinities>  (26) 
[6.3461]

>  <score>  (26) 
6.3461

>  <index>  (26) 
25

>  <Smiles>  (26) 
C(N(C(=O)C(N1C([C@@]2(C(=O)N(c3c(nc(c4c(c(c(c(c34)[H])[H])[H])[H])[H])[H])C([C@@]2(C(N(c2c(nn(C([H])([H])[H])c2[H])[H])[H])([H])[H])[H])([H])[H])c2c(c(Cl)c(c(c2C1=O)[H])[H])[H])([H])[H])([H])[H])[H])([H])([H])[H]

>  <h>  (26) 
<NA>

>  <Training>  (26) 
True

>  <Success>  (26) 
True

>  <enamine_searched>  (26) 
False

>  <enamine_id>  (26) 
nan

$$$$

     RDKit          3D

 43 47  0  0  0  0  0  0  0  0999 V2000
    8.8388    0.6154   20.6598 O   0  0  0  0  0  0  0  0  0  0  0  0
    8.1960   -0.3245   21.0665 C   0  0  0  0  0  0  0  0  0  0  0  0
    8.6230   -1.4128   21.7809 N   0  0  0  0  0  0  0  0  0  0  0  0
    7.5293   -2.1036   22.4408 C   0  0  1  0  0  0  0  0  0  0  0  0
    7.5599   -3.6445   22.5299 C   0  0  0  0  0  0  0  0  0  0  0  0
    7.6631   -3.5715   24.0834 C   0  0  2  0  0  0  0  0  0  0  0  0
    6.5728   -4.2473   24.8666 C   0  0  0  0  0  0  0  0  0  0  0  0
    5.2304   -4.0775   24.5025 C   0  0  0  0  0  0  0  0  0  0  0  0
    4.1940   -4.6593   25.2207 C   0  0  0  0  0  0  0  0  0  0  0  0
    4.4733   -5.3602   26.3864 C   0  0  0  0  0  0  0  0  0  0  0  0
    5.7933   -5.5276   26.7765 C   0  0  0  0  0  0  0  0  0  0  0  0
    6.8284   -5.0234   25.9957 C   0  0  0  0  0  0  0  0  0  0  0  0
    8.4656   -5.4319   26.4572 Cl  0  0  0  0  0  0  0  0  0  0  0  0
    6.0173   -6.0722   27.6873 H   0  0  0  0  0  0  0  0  0  0  0  0
    3.6733   -5.7964   26.9741 H   0  0  0  0  0  0  0  0  0  0  0  0
    3.1729   -4.5841   24.8638 H   0  0  0  0  0  0  0  0  0  0  0  0
    4.9829   -3.4563   23.6453 H   0  0  0  0  0  0  0  0  0  0  0  0
    7.5082   -2.0237   23.9850 C   0  0  0  0  0  0  0  0  0  0  0  0
    8.3062   -1.4132   24.4207 H   0  0  0  0  0  0  0  0  0  0  0  0
    6.5368   -1.6800   24.3437 H   0  0  0  0  0  0  0  0  0  0  0  0
    8.6552   -3.8690   24.4299 H   0  0  0  0  0  0  0  0  0  0  0  0
    8.4118   -4.0932   22.0210 H   0  0  0  0  0  0  0  0  0  0  0  0
    6.6417   -4.1122   22.1632 H   0  0  0  0  0  0  0  0  0  0  0  0
    6.3262   -1.5226   21.7192 C   0  0  0  0  0  0  0  0  0  0  0  0
    5.1664   -1.8561   21.8277 O   0  0  0  0  0  0  0  0  0  0  0  0
    6.8142   -0.5038   20.9002 N   0  0  0  0  0  0  0  0  0  0  0  0
    6.1070    0.0675   19.8121 C   0  0  0  0  0  0  0  0  0  0  0  0
    6.4754   -0.2170   18.5206 C   0  0  0  0  0  0  0  0  0  0  0  0
    5.8160    0.2368   17.4293 N   0  0  0  0  0  0  0  0  0  0  0  0
    4.7795    1.0091   17.6271 C   0  0  0  0  0  0  0  0  0  0  0  0
    4.3218    1.4016   18.9137 C   0  0  0  0  0  0  0  0  0  0  0  0
    3.2120    2.2618   19.0674 C   0  0  0  0  0  0  0  0  0  0  0  0
    2.8092    2.6447   20.3140 C   0  0  0  0  0  0  0  0  0  0  0  0
    3.4966    2.1925   21.4610 C   0  0  0  0  0  0  0  0  0  0  0  0
    4.5734    1.3538   21.3404 C   0  0  0  0  0  0  0  0  0  0  0  0
    5.0023    0.9311   20.0525 C   0  0  0  0  0  0  0  0  0  0  0  0
    5.1012    1.0090   22.2251 H   0  0  0  0  0  0  0  0  0  0  0  0
    3.1694    2.5171   22.4424 H   0  0  0  0  0  0  0  0  0  0  0  0
    1.9612    3.3084   20.4286 H   0  0  0  0  0  0  0  0  0  0  0  0
    2.7126    2.6089   18.1701 H   0  0  0  0  0  0  0  0  0  0  0  0
    4.2460    1.3730   16.7492 H   0  0  0  0  0  0  0  0  0  0  0  0
    7.3275   -0.8635   18.3192 H   0  0  0  0  0  0  0  0  0  0  0  0
    9.5667   -1.4031   22.1326 H   0  0  0  0  0  0  0  0  0  0  0  0
  1  2  2  0
  2  3  1  0
  4  3  1  6
  4  5  1  0
  5  6  1  0
  6  7  1  0
  7  8  2  0
  8  9  1  0
  9 10  2  0
 10 11  1  0
 11 12  2  0
 12 13  1  0
 11 14  1  0
 10 15  1  0
  9 16  1  0
  8 17  1  0
  6 18  1  0
 18 19  1  0
 18 20  1  0
  6 21  1  1
  5 22  1  0
  5 23  1  0
  4 24  1  0
 24 25  2  0
 24 26  1  0
 26 27  1  0
 27 28  2  0
 28 29  1  0
 29 30  2  0
 30 31  1  0
 31 32  2  0
 32 33  1  0
 33 34  2  0
 34 35  1  0
 35 36  2  0
 35 37  1  0
 34 38  1  0
 33 39  1  0
 32 40  1  0
 30 41  1  0
 28 42  1  0
  3 43  1  0
 26  2  1  0
 36 27  1  0
 18  4  1  0
 36 31  1  0
 12  7  1  0
M  END
>  <cnnaffinities>  (27) 
[5.78637]

>  <score>  (27) 
5.78637

>  <index>  (27) 
26

>  <Smiles>  (27) 
O=C1N([C@]2(C([C@](c3c(c(c(c(c3Cl)[H])[H])[H])[H])(C2([H])[H])[H])([H])[H])C(=O)N1c1c(nc(c2c(c(c(c(c12)[H])[H])[H])[H])[H])[H])[H]

>  <h>  (27) 
<NA>

>  <Training>  (27) 
True

>  <Success>  (27) 
True

>  <enamine_searched>  (27) 
False

>  <enamine_id>  (27) 
nan

$$$$

     RDKit          3D

 46 48  0  0  0  0  0  0  0  0999 V2000
    7.6393    0.6557   24.4109 C   0  0  0  0  0  0  0  0  0  0  0  0
    7.8385   -0.8031   24.7959 C   0  0  0  0  0  0  0  0  0  0  0  0
    7.7511   -1.7571   23.6032 C   0  0  1  0  0  0  0  0  0  0  0  0
    8.2449   -3.1880   23.9088 C   0  0  0  0  0  0  0  0  0  0  0  0
    7.2354   -4.1512   24.5481 C   0  0  1  0  0  0  0  0  0  0  0  0
    7.2219   -4.1391   26.0740 C   0  0  0  0  0  0  0  0  0  0  0  0
    6.5797   -3.0756   26.6015 F   0  0  0  0  0  0  0  0  0  0  0  0
    8.4579   -4.1515   26.6043 F   0  0  0  0  0  0  0  0  0  0  0  0
    6.5901   -5.2312   26.5549 F   0  0  0  0  0  0  0  0  0  0  0  0
    5.8333   -3.9985   23.9561 C   0  0  0  0  0  0  0  0  0  0  0  0
    5.4210   -2.5411   23.7727 C   0  0  0  0  0  0  0  0  0  0  0  0
    6.4110   -1.7880   23.0034 N   0  0  0  0  0  0  0  0  0  0  0  0
    6.1759   -1.6258   21.6391 C   0  0  0  0  0  0  0  0  0  0  0  0
    5.3616   -2.3091   21.0463 O   0  0  0  0  0  0  0  0  0  0  0  0
    6.9242   -0.4891   20.9096 C   0  0  0  0  0  0  0  0  0  0  0  0
    6.1179    0.0904   19.7693 C   0  0  0  0  0  0  0  0  0  0  0  0
    6.4220   -0.2139   18.4659 C   0  0  0  0  0  0  0  0  0  0  0  0
    5.7567    0.2421   17.3729 N   0  0  0  0  0  0  0  0  0  0  0  0
    4.7325    1.0325   17.5780 C   0  0  0  0  0  0  0  0  0  0  0  0
    4.2853    1.4234   18.8694 C   0  0  0  0  0  0  0  0  0  0  0  0
    3.1650    2.2756   19.0435 C   0  0  0  0  0  0  0  0  0  0  0  0
    2.7501    2.6292   20.3004 C   0  0  0  0  0  0  0  0  0  0  0  0
    3.4425    2.1434   21.4310 C   0  0  0  0  0  0  0  0  0  0  0  0
    4.5321    1.3169   21.2870 C   0  0  0  0  0  0  0  0  0  0  0  0
    4.9901    0.9365   19.9982 C   0  0  0  0  0  0  0  0  0  0  0  0
    5.0422    0.9492   22.1718 H   0  0  0  0  0  0  0  0  0  0  0  0
    3.1051    2.4244   22.4228 H   0  0  0  0  0  0  0  0  0  0  0  0
    1.8939    3.2837   20.4368 H   0  0  0  0  0  0  0  0  0  0  0  0
    2.6443    2.6464   18.1637 H   0  0  0  0  0  0  0  0  0  0  0  0
    4.1993    1.3988   16.6987 H   0  0  0  0  0  0  0  0  0  0  0  0
    7.2645   -0.8669   18.2441 H   0  0  0  0  0  0  0  0  0  0  0  0
    7.2159    0.3033   21.6137 H   0  0  0  0  0  0  0  0  0  0  0  0
    7.8567   -0.9067   20.5085 H   0  0  0  0  0  0  0  0  0  0  0  0
    4.4611   -2.4835   23.2562 H   0  0  0  0  0  0  0  0  0  0  0  0
    5.2892   -2.0704   24.7501 H   0  0  0  0  0  0  0  0  0  0  0  0
    5.8237   -4.4627   22.9685 H   0  0  0  0  0  0  0  0  0  0  0  0
    5.0985   -4.5395   24.5649 H   0  0  0  0  0  0  0  0  0  0  0  0
    7.5818   -5.1706   24.3427 H   0  0  0  0  0  0  0  0  0  0  0  0
    8.5465   -3.6352   22.9566 H   0  0  0  0  0  0  0  0  0  0  0  0
    9.1566   -3.1445   24.5135 H   0  0  0  0  0  0  0  0  0  0  0  0
    8.4330   -1.3655   22.8422 H   0  0  0  0  0  0  0  0  0  0  0  0
    8.8341   -0.9259   25.2404 H   0  0  0  0  0  0  0  0  0  0  0  0
    7.1250   -1.0898   25.5685 H   0  0  0  0  0  0  0  0  0  0  0  0
    7.7335    1.3206   25.2723 H   0  0  0  0  0  0  0  0  0  0  0  0
    8.3785    0.9805   23.6702 H   0  0  0  0  0  0  0  0  0  0  0  0
    6.6424    0.8179   23.9918 H   0  0  0  0  0  0  0  0  0  0  0  0
  1  2  1  0
  2  3  1  0
  3  4  1  0
  4  5  1  0
  5  6  1  0
  6  7  1  0
  6  8  1  0
  6  9  1  0
  5 10  1  0
 10 11  1  0
 11 12  1  0
 12 13  1  0
 13 14  2  0
 13 15  1  0
 15 16  1  0
 16 17  2  0
 17 18  1  0
 18 19  2  0
 19 20  1  0
 20 21  2  0
 21 22  1  0
 22 23  2  0
 23 24  1  0
 24 25  2  0
 24 26  1  0
 23 27  1  0
 22 28  1  0
 21 29  1  0
 19 30  1  0
 17 31  1  0
 15 32  1  0
 15 33  1  0
 11 34  1  0
 11 35  1  0
 10 36  1  0
 10 37  1  0
  5 38  1  1
  4 39  1  0
  4 40  1  0
  3 41  1  6
  2 42  1  0
  2 43  1  0
  1 44  1  0
  1 45  1  0
  1 46  1  0
 12  3  1  0
 25 16  1  0
 25 20  1  0
M  END
>  <cnnaffinities>  (28) 
[5.37161]

>  <score>  (28) 
5.37161

>  <index>  (28) 
27

>  <Smiles>  (28) 
C(C([C@]1(C([C@@](C(F)(F)F)(C(C(N1C(=O)C(c1c(nc(c2c(c(c(c(c12)[H])[H])[H])[H])[H])[H])([H])[H])([H])[H])([H])[H])[H])([H])[H])[H])([H])[H])([H])([H])[H]

>  <h>  (28) 
<NA>

>  <Training>  (28) 
True

>  <Success>  (28) 
True

>  <enamine_searched>  (28) 
False

>  <enamine_id>  (28) 
nan

$$$$

     RDKit          3D

 70 75  0  0  0  0  0  0  0  0999 V2000
    6.4746    4.5915   21.4779 C   0  0  0  0  0  0  0  0  0  0  0  0
    6.8270    3.5787   22.4792 N   0  0  0  0  0  4  0  0  0  0  0  0
    7.8306    4.0200   23.4739 C   0  0  0  0  0  0  0  0  0  0  0  0
    8.0516    2.9717   24.5699 C   0  0  0  0  0  0  0  0  0  0  0  0
    8.6841    1.7564   24.0694 N   0  0  0  0  0  0  0  0  0  0  0  0
    7.9240    0.5225   23.9550 C   0  0  0  0  0  0  0  0  0  0  0  0
    8.3154   -0.2993   22.6979 C   0  0  2  0  0  0  0  0  0  0  0  0
    7.7415    0.4022   21.4625 C   0  0  0  0  0  0  0  0  0  0  0  0
    7.9410    1.5680   21.1326 O   0  0  0  0  0  0  0  0  0  0  0  0
    6.8798   -0.4342   20.8102 N   0  0  0  0  0  0  0  0  0  0  0  0
    6.1035    0.0997   19.7484 C   0  0  0  0  0  0  0  0  0  0  0  0
    6.4512   -0.1934   18.4585 C   0  0  0  0  0  0  0  0  0  0  0  0
    5.7725    0.2564   17.3800 N   0  0  0  0  0  0  0  0  0  0  0  0
    4.7442    1.0365   17.6007 C   0  0  0  0  0  0  0  0  0  0  0  0
    4.3111    1.4485   18.8928 C   0  0  0  0  0  0  0  0  0  0  0  0
    3.2053    2.3207   19.0707 C   0  0  0  0  0  0  0  0  0  0  0  0
    2.8124    2.6994   20.3247 C   0  0  0  0  0  0  0  0  0  0  0  0
    3.5068    2.2312   21.4599 C   0  0  0  0  0  0  0  0  0  0  0  0
    4.5846    1.3895   21.3158 C   0  0  0  0  0  0  0  0  0  0  0  0
    5.0150    0.9738   20.0192 C   0  0  0  0  0  0  0  0  0  0  0  0
    5.0974    1.0238   22.2035 H   0  0  0  0  0  0  0  0  0  0  0  0
    3.1821    2.5380   22.4516 H   0  0  0  0  0  0  0  0  0  0  0  0
    1.9602    3.3605   20.4523 H   0  0  0  0  0  0  0  0  0  0  0  0
    2.6894    2.6722   18.1830 H   0  0  0  0  0  0  0  0  0  0  0  0
    4.1944    1.3895   16.7284 H   0  0  0  0  0  0  0  0  0  0  0  0
    7.3230   -0.8170   18.2661 H   0  0  0  0  0  0  0  0  0  0  0  0
    6.4471   -1.5434   21.6409 C   0  0  0  0  0  0  0  0  0  0  0  0
    7.6226   -1.6943   22.6115 C   0  0  2  0  0  0  0  0  0  0  0  0
    7.2471   -2.3799   23.9107 C   0  0  0  0  0  0  0  0  0  0  0  0
    6.0858   -1.7523   24.4377 O   0  0  0  0  0  0  0  0  0  0  0  0
    5.6842   -2.2231   25.7005 C   0  0  0  0  0  0  0  0  0  0  0  0
    6.2765   -1.3685   26.7942 C   0  0  0  0  0  0  0  0  0  0  0  0
    7.6573   -1.5281   26.7478 F   0  0  0  0  0  0  0  0  0  0  0  0
    5.7491   -1.4735   28.2206 C   0  0  0  0  0  0  0  0  0  0  0  0
    5.2553   -0.1268   28.1796 O   0  0  0  0  0  0  0  0  0  0  0  0
    5.8538    0.1012   26.8975 C   0  0  0  0  0  0  0  0  0  0  0  0
    5.1311    0.4772   26.1632 H   0  0  0  0  0  0  0  0  0  0  0  0
    6.7167    0.7757   26.9566 H   0  0  0  0  0  0  0  0  0  0  0  0
    6.5727   -1.5956   28.9376 H   0  0  0  0  0  0  0  0  0  0  0  0
    4.9533   -2.1986   28.4216 H   0  0  0  0  0  0  0  0  0  0  0  0
    4.5893   -2.1698   25.7359 H   0  0  0  0  0  0  0  0  0  0  0  0
    5.9893   -3.2711   25.8451 H   0  0  0  0  0  0  0  0  0  0  0  0
    7.0433   -3.4447   23.7160 H   0  0  0  0  0  0  0  0  0  0  0  0
    8.0840   -2.3259   24.6176 H   0  0  0  0  0  0  0  0  0  0  0  0
    8.3341   -2.3561   22.1196 H   0  0  0  0  0  0  0  0  0  0  0  0
    5.5161   -1.3085   22.1744 H   0  0  0  0  0  0  0  0  0  0  0  0
    6.2856   -2.4435   21.0366 H   0  0  0  0  0  0  0  0  0  0  0  0
    9.8270   -0.3643   22.5869 C   0  0  0  0  0  0  0  0  0  0  0  0
   10.4414   -1.3325   21.7836 C   0  0  0  0  0  0  0  0  0  0  0  0
   11.8090   -1.3635   21.6304 C   0  0  0  0  0  0  0  0  0  0  0  0
   12.4223   -2.5823   20.5365 Cl  0  0  0  0  0  0  0  0  0  0  0  0
   12.6162   -0.4318   22.2943 C   0  0  0  0  0  0  0  0  0  0  0  0
   12.0205    0.5447   23.0612 C   0  0  0  0  0  0  0  0  0  0  0  0
   10.6342    0.6159   23.1640 C   0  0  0  0  0  0  0  0  0  0  0  0
   10.0260    1.8106   23.8276 C   0  0  0  0  0  0  0  0  0  0  0  0
   10.7077    2.7889   24.1244 O   0  0  0  0  0  0  0  0  0  0  0  0
   12.6193    1.2922   23.5735 H   0  0  0  0  0  0  0  0  0  0  0  0
   13.6933   -0.3881   22.2065 H   0  0  0  0  0  0  0  0  0  0  0  0
    9.8880   -2.0627   21.2051 H   0  0  0  0  0  0  0  0  0  0  0  0
    6.8618    0.7704   23.8811 H   0  0  0  0  0  0  0  0  0  0  0  0
    8.0647   -0.0870   24.8575 H   0  0  0  0  0  0  0  0  0  0  0  0
    8.7095    3.3857   25.3416 H   0  0  0  0  0  0  0  0  0  0  0  0
    7.0995    2.6974   25.0478 H   0  0  0  0  0  0  0  0  0  0  0  0
    7.5176    4.9648   23.9335 H   0  0  0  0  0  0  0  0  0  0  0  0
    8.7891    4.1969   22.9719 H   0  0  0  0  0  0  0  0  0  0  0  0
    7.1793    2.7414   21.9872 H   0  0  0  0  0  0  0  0  0  0  0  0
    5.9495    3.3122   22.9691 H   0  0  0  0  0  0  0  0  0  0  0  0
    7.3149    4.7628   20.7972 H   0  0  0  0  0  0  0  0  0  0  0  0
    5.6110    4.2450   20.9012 H   0  0  0  0  0  0  0  0  0  0  0  0
    6.2257    5.5454   21.9541 H   0  0  0  0  0  0  0  0  0  0  0  0
  1  2  1  0
  2  3  1  0
  3  4  1  0
  4  5  1  0
  5  6  1  0
  7  6  1  1
  7  8  1  0
  8  9  2  0
  8 10  1  0
 10 11  1  0
 11 12  2  0
 12 13  1  0
 13 14  2  0
 14 15  1  0
 15 16  2  0
 16 17  1  0
 17 18  2  0
 18 19  1  0
 19 20  2  0
 19 21  1  0
 18 22  1  0
 17 23  1  0
 16 24  1  0
 14 25  1  0
 12 26  1  0
 10 27  1  0
 27 28  1  0
 28 29  1  0
 29 30  1  0
 30 31  1  0
 31 32  1  0
 32 33  1  0
 32 34  1  0
 34 35  1  0
 35 36  1  0
 36 37  1  0
 36 38  1  0
 34 39  1  0
 34 40  1  0
 31 41  1  0
 31 42  1  0
 29 43  1  0
 29 44  1  0
 28 45  1  6
 27 46  1  0
 27 47  1  0
  7 48  1  0
 48 49  2  0
 49 50  1  0
 50 51  1  0
 50 52  2  0
 52 53  1  0
 53 54  2  0
 54 55  1  0
 55 56  2  0
 53 57  1  0
 52 58  1  0
 49 59  1  0
  6 60  1  0
  6 61  1  0
  4 62  1  0
  4 63  1  0
  3 64  1  0
  3 65  1  0
  2 66  1  0
  2 67  1  0
  1 68  1  0
  1 69  1  0
  1 70  1  0
 55  5  1  0
 28  7  1  0
 36 32  1  0
 54 48  1  0
 20 11  1  0
 20 15  1  0
M  CHG  1   2   1
M  END
>  <cnnaffinities>  (29) 
[6.04217]

>  <score>  (29) 
6.04217

>  <index>  (29) 
28

>  <Smiles>  (29) 
C([N+](C(C(N1C([C@@]2(C(=O)N(c3c(nc(c4c(c(c(c(c34)[H])[H])[H])[H])[H])[H])C([C@@]2(C(OC(C2(F)C(OC2([H])[H])([H])[H])([H])[H])([H])[H])[H])([H])[H])c2c(c(Cl)c(c(c2C1=O)[H])[H])[H])([H])[H])([H])[H])([H])[H])([H])[H])([H])([H])[H]

>  <h>  (29) 
<NA>

>  <Training>  (29) 
True

>  <Success>  (29) 
True

>  <enamine_searched>  (29) 
False

>  <enamine_id>  (29) 
nan

$$$$

     RDKit          3D

 67 72  0  0  0  0  0  0  0  0999 V2000
    6.5705    4.3937   21.2888 C   0  0  0  0  0  0  0  0  0  0  0  0
    6.9515    3.4287   22.3236 N   0  0  0  0  0  4  0  0  0  0  0  0
    7.9594    3.9007   23.2978 C   0  0  0  0  0  0  0  0  0  0  0  0
    8.0939    2.9059   24.4570 C   0  0  0  0  0  0  0  0  0  0  0  0
    8.7001    1.6517   24.0159 N   0  0  0  0  0  0  0  0  0  0  0  0
    7.9597    0.4077   23.8763 C   0  0  0  0  0  0  0  0  0  0  0  0
    8.3573   -0.3971   22.6060 C   0  0  2  0  0  0  0  0  0  0  0  0
    7.8221    0.3192   21.3581 C   0  0  0  0  0  0  0  0  0  0  0  0
    8.1212    1.4467   20.9805 O   0  0  0  0  0  0  0  0  0  0  0  0
    6.8522   -0.4451   20.7790 N   0  0  0  0  0  0  0  0  0  0  0  0
    6.0908    0.1015   19.7209 C   0  0  0  0  0  0  0  0  0  0  0  0
    6.4417   -0.1830   18.4286 C   0  0  0  0  0  0  0  0  0  0  0  0
    5.7586    0.2710   17.3564 N   0  0  0  0  0  0  0  0  0  0  0  0
    4.7294    1.0484   17.5824 C   0  0  0  0  0  0  0  0  0  0  0  0
    4.3005    1.4573   18.8773 C   0  0  0  0  0  0  0  0  0  0  0  0
    3.1999    2.3327   19.0677 C   0  0  0  0  0  0  0  0  0  0  0  0
    2.8217    2.7151   20.3250 C   0  0  0  0  0  0  0  0  0  0  0  0
    3.5260    2.2475   21.4545 C   0  0  0  0  0  0  0  0  0  0  0  0
    4.5977    1.3990   21.2963 C   0  0  0  0  0  0  0  0  0  0  0  0
    5.0083    0.9787   19.9974 C   0  0  0  0  0  0  0  0  0  0  0  0
    5.1194    1.0312   22.1766 H   0  0  0  0  0  0  0  0  0  0  0  0
    3.2175    2.5617   22.4479 H   0  0  0  0  0  0  0  0  0  0  0  0
    1.9787    3.3858   20.4605 H   0  0  0  0  0  0  0  0  0  0  0  0
    2.6780    2.6889   18.1855 H   0  0  0  0  0  0  0  0  0  0  0  0
    4.1748    1.4035   16.7136 H   0  0  0  0  0  0  0  0  0  0  0  0
    7.3123   -0.8064   18.2324 H   0  0  0  0  0  0  0  0  0  0  0  0
    6.3834   -1.5118   21.6436 C   0  0  0  0  0  0  0  0  0  0  0  0
    7.6332   -1.7660   22.4841 C   0  0  2  0  0  0  0  0  0  0  0  0
    7.4086   -2.5169   23.7925 C   0  0  0  0  0  0  0  0  0  0  0  0
    6.8380   -3.8326   23.5966 N   0  0  0  0  0  0  0  0  0  0  0  0
    5.5175   -4.0778   23.5993 C   0  0  0  0  0  0  0  0  0  0  0  0
    5.1249   -5.3258   23.2598 N   0  0  0  0  0  0  0  0  0  0  0  0
    3.8179   -5.5028   23.3137 C   0  0  0  0  0  0  0  0  0  0  0  0
    2.8938   -4.5974   23.6489 N   0  0  0  0  0  0  0  0  0  0  0  0
    3.4070   -3.4090   23.9569 C   0  0  0  0  0  0  0  0  0  0  0  0
    4.6876   -3.0710   23.9394 N   0  0  0  0  0  0  0  0  0  0  0  0
    2.6995   -2.6345   24.2506 H   0  0  0  0  0  0  0  0  0  0  0  0
    3.4501   -6.4967   23.0609 H   0  0  0  0  0  0  0  0  0  0  0  0
    7.4331   -4.6182   23.3952 H   0  0  0  0  0  0  0  0  0  0  0  0
    6.7222   -1.9550   24.4296 H   0  0  0  0  0  0  0  0  0  0  0  0
    8.3682   -2.6208   24.3113 H   0  0  0  0  0  0  0  0  0  0  0  0
    8.2506   -2.3931   21.8417 H   0  0  0  0  0  0  0  0  0  0  0  0
    5.5294   -1.2041   22.2634 H   0  0  0  0  0  0  0  0  0  0  0  0
    6.0813   -2.3847   21.0616 H   0  0  0  0  0  0  0  0  0  0  0  0
    9.8621   -0.4869   22.5477 C   0  0  0  0  0  0  0  0  0  0  0  0
   10.4917   -1.4973   21.8149 C   0  0  0  0  0  0  0  0  0  0  0  0
   11.8394   -1.4365   21.5589 C   0  0  0  0  0  0  0  0  0  0  0  0
   12.4578   -2.6802   20.4941 Cl  0  0  0  0  0  0  0  0  0  0  0  0
   12.6285   -0.4044   22.0837 C   0  0  0  0  0  0  0  0  0  0  0  0
   12.0283    0.5572   22.8706 C   0  0  0  0  0  0  0  0  0  0  0  0
   10.6522    0.5411   23.0731 C   0  0  0  0  0  0  0  0  0  0  0  0
   10.0419    1.7100   23.7751 C   0  0  0  0  0  0  0  0  0  0  0  0
   10.7210    2.6841   24.0896 O   0  0  0  0  0  0  0  0  0  0  0  0
   12.6132    1.3581   23.3138 H   0  0  0  0  0  0  0  0  0  0  0  0
   13.6811   -0.3098   21.8619 H   0  0  0  0  0  0  0  0  0  0  0  0
    9.9720   -2.3392   21.3742 H   0  0  0  0  0  0  0  0  0  0  0  0
    6.8862    0.6183   23.8365 H   0  0  0  0  0  0  0  0  0  0  0  0
    8.1472   -0.2242   24.7528 H   0  0  0  0  0  0  0  0  0  0  0  0
    7.1208    2.6987   24.9173 H   0  0  0  0  0  0  0  0  0  0  0  0
    8.7555    3.3128   25.2262 H   0  0  0  0  0  0  0  0  0  0  0  0
    8.9365    3.9933   22.8117 H   0  0  0  0  0  0  0  0  0  0  0  0
    7.6878    4.8919   23.6759 H   0  0  0  0  0  0  0  0  0  0  0  0
    6.0909    3.1613   22.8300 H   0  0  0  0  0  0  0  0  0  0  0  0
    7.3319    2.5806   21.8628 H   0  0  0  0  0  0  0  0  0  0  0  0
    6.4190    5.3868   21.7226 H   0  0  0  0  0  0  0  0  0  0  0  0
    5.6396    4.0643   20.8228 H   0  0  0  0  0  0  0  0  0  0  0  0
    7.3456    4.4598   20.5236 H   0  0  0  0  0  0  0  0  0  0  0  0
  1  2  1  0
  2  3  1  0
  3  4  1  0
  4  5  1  0
  5  6  1  0
  7  6  1  1
  7  8  1  0
  8  9  2  0
  8 10  1  0
 10 11  1  0
 11 12  2  0
 12 13  1  0
 13 14  2  0
 14 15  1  0
 15 16  2  0
 16 17  1  0
 17 18  2  0
 18 19  1  0
 19 20  2  0
 19 21  1  0
 18 22  1  0
 17 23  1  0
 16 24  1  0
 14 25  1  0
 12 26  1  0
 10 27  1  0
 27 28  1  0
 28 29  1  0
 29 30  1  0
 30 31  1  0
 31 32  2  0
 32 33  1  0
 33 34  2  0
 34 35  1  0
 35 36  2  0
 35 37  1  0
 33 38  1  0
 30 39  1  0
 29 40  1  0
 29 41  1  0
 28 42  1  6
 27 43  1  0
 27 44  1  0
  7 45  1  0
 45 46  2  0
 46 47  1  0
 47 48  1  0
 47 49  2  0
 49 50  1  0
 50 51  2  0
 51 52  1  0
 52 53  2  0
 50 54  1  0
 49 55  1  0
 46 56  1  0
  6 57  1  0
  6 58  1  0
  4 59  1  0
  4 60  1  0
  3 61  1  0
  3 62  1  0
  2 63  1  0
  2 64  1  0
  1 65  1  0
  1 66  1  0
  1 67  1  0
 52  5  1  0
 28  7  1  0
 36 31  1  0
 51 45  1  0
 20 11  1  0
 20 15  1  0
M  CHG  1   2   1
M  END
>  <cnnaffinities>  (30) 
[6.50745]

>  <score>  (30) 
6.50745

>  <index>  (30) 
29

>  <Smiles>  (30) 
C([N+](C(C(N1C([C@@]2(C(=O)N(c3c(nc(c4c(c(c(c(c34)[H])[H])[H])[H])[H])[H])C([C@@]2(C(N(c2nc(nc(n2)[H])[H])[H])([H])[H])[H])([H])[H])c2c(c(Cl)c(c(c2C1=O)[H])[H])[H])([H])[H])([H])[H])([H])[H])([H])[H])([H])([H])[H]

>  <h>  (30) 
<NA>

>  <Training>  (30) 
True

>  <Success>  (30) 
True

>  <enamine_searched>  (30) 
False

>  <enamine_id>  (30) 
nan

$$$$

     RDKit          3D

 66 71  0  0  0  0  0  0  0  0999 V2000
    6.4462    4.2799   21.2916 C   0  0  0  0  0  0  0  0  0  0  0  0
    7.4069    3.8912   22.3135 N   0  0  0  0  0  0  0  0  0  0  0  0
    6.9724    3.3165   23.4622 C   0  0  0  0  0  0  0  0  0  0  0  0
    5.7873    3.1349   23.6996 O   0  0  0  0  0  0  0  0  0  0  0  0
    8.0578    2.8890   24.4536 C   0  0  0  0  0  0  0  0  0  0  0  0
    8.7529    1.6884   24.0168 N   0  0  0  0  0  0  0  0  0  0  0  0
    7.9931    0.4588   23.8581 C   0  0  0  0  0  0  0  0  0  0  0  0
    8.4077   -0.3689   22.6090 C   0  0  2  0  0  0  0  0  0  0  0  0
    7.9133    0.3090   21.3095 C   0  0  0  0  0  0  0  0  0  0  0  0
    8.3707    1.3101   20.7949 O   0  0  0  0  0  0  0  0  0  0  0  0
    6.8548   -0.4111   20.8059 N   0  0  0  0  0  0  0  0  0  0  0  0
    6.0895    0.1017   19.7304 C   0  0  0  0  0  0  0  0  0  0  0  0
    6.4467   -0.1708   18.4355 C   0  0  0  0  0  0  0  0  0  0  0  0
    5.7663    0.2769   17.3561 N   0  0  0  0  0  0  0  0  0  0  0  0
    4.7199    1.0402   17.5656 C   0  0  0  0  0  0  0  0  0  0  0  0
    4.2600    1.4254   18.8573 C   0  0  0  0  0  0  0  0  0  0  0  0
    3.1503    2.2916   19.0450 C   0  0  0  0  0  0  0  0  0  0  0  0
    2.7606    2.6584   20.3080 C   0  0  0  0  0  0  0  0  0  0  0  0
    3.4583    2.1785   21.4377 C   0  0  0  0  0  0  0  0  0  0  0  0
    4.5304    1.3328   21.2774 C   0  0  0  0  0  0  0  0  0  0  0  0
    4.9593    0.9355   19.9812 C   0  0  0  0  0  0  0  0  0  0  0  0
    5.1000    1.0210   22.1456 H   0  0  0  0  0  0  0  0  0  0  0  0
    3.1798    2.5043   22.4353 H   0  0  0  0  0  0  0  0  0  0  0  0
    1.9232    3.3339   20.4444 H   0  0  0  0  0  0  0  0  0  0  0  0
    2.6400    2.6725   18.1663 H   0  0  0  0  0  0  0  0  0  0  0  0
    4.1847    1.3995   16.6871 H   0  0  0  0  0  0  0  0  0  0  0  0
    7.3236   -0.7836   18.2346 H   0  0  0  0  0  0  0  0  0  0  0  0
    6.4255   -1.5022   21.6528 C   0  0  0  0  0  0  0  0  0  0  0  0
    7.6707   -1.7406   22.5240 C   0  0  2  0  0  0  0  0  0  0  0  0
    7.3968   -2.5111   23.8284 C   0  0  0  0  0  0  0  0  0  0  0  0
    6.8475   -3.8903   23.5359 C   0  0  0  0  0  0  0  0  0  0  0  0
    5.4744   -4.1139   23.3738 C   0  0  0  0  0  0  0  0  0  0  0  0
    5.0051   -5.3369   22.9031 C   0  0  0  0  0  0  0  0  0  0  0  0
    5.8924   -6.3666   22.6049 C   0  0  0  0  0  0  0  0  0  0  0  0
    7.2585   -6.1699   22.7985 C   0  0  0  0  0  0  0  0  0  0  0  0
    7.7186   -4.9452   23.2694 C   0  0  0  0  0  0  0  0  0  0  0  0
    8.7791   -4.7921   23.4415 H   0  0  0  0  0  0  0  0  0  0  0  0
    7.9712   -6.9588   22.5674 H   0  0  0  0  0  0  0  0  0  0  0  0
    5.5137   -7.3213   22.2464 H   0  0  0  0  0  0  0  0  0  0  0  0
    3.9388   -5.4835   22.7457 H   0  0  0  0  0  0  0  0  0  0  0  0
    4.7672   -3.3203   23.6116 H   0  0  0  0  0  0  0  0  0  0  0  0
    6.6992   -1.9505   24.4606 H   0  0  0  0  0  0  0  0  0  0  0  0
    8.3362   -2.5871   24.3907 H   0  0  0  0  0  0  0  0  0  0  0  0
    8.3240   -2.3754   21.9237 H   0  0  0  0  0  0  0  0  0  0  0  0
    5.5295   -1.2416   22.2427 H   0  0  0  0  0  0  0  0  0  0  0  0
    6.1676   -2.3808   21.0495 H   0  0  0  0  0  0  0  0  0  0  0  0
    9.9204   -0.4383   22.5295 C   0  0  0  0  0  0  0  0  0  0  0  0
   10.5346   -1.3507   21.6598 C   0  0  0  0  0  0  0  0  0  0  0  0
   11.8880   -1.2636   21.4079 C   0  0  0  0  0  0  0  0  0  0  0  0
   12.5686   -2.3251   20.2051 Cl  0  0  0  0  0  0  0  0  0  0  0  0
   12.6888   -0.3101   22.0464 C   0  0  0  0  0  0  0  0  0  0  0  0
   12.0972    0.5689   22.9294 C   0  0  0  0  0  0  0  0  0  0  0  0
   10.7143    0.5536   23.1171 C   0  0  0  0  0  0  0  0  0  0  0  0
   10.1060    1.7333   23.8201 C   0  0  0  0  0  0  0  0  0  0  0  0
   10.7925    2.6937   24.1393 O   0  0  0  0  0  0  0  0  0  0  0  0
   12.6802    1.3134   23.4620 H   0  0  0  0  0  0  0  0  0  0  0  0
   13.7479   -0.2397   21.8268 H   0  0  0  0  0  0  0  0  0  0  0  0
    9.9730   -2.1140   21.1266 H   0  0  0  0  0  0  0  0  0  0  0  0
    8.1135   -0.1643   24.7524 H   0  0  0  0  0  0  0  0  0  0  0  0
    6.9402    0.7397   23.7833 H   0  0  0  0  0  0  0  0  0  0  0  0
    8.8220    3.6600   24.5505 H   0  0  0  0  0  0  0  0  0  0  0  0
    7.5852    2.7465   25.4317 H   0  0  0  0  0  0  0  0  0  0  0  0
    8.3438    3.6567   22.0242 H   0  0  0  0  0  0  0  0  0  0  0  0
    5.7019    4.9524   21.7309 H   0  0  0  0  0  0  0  0  0  0  0  0
    5.9242    3.4052   20.8761 H   0  0  0  0  0  0  0  0  0  0  0  0
    6.9643    4.8089   20.4844 H   0  0  0  0  0  0  0  0  0  0  0  0
  1  2  1  0
  2  3  1  0
  3  4  2  0
  3  5  1  0
  5  6  1  0
  6  7  1  0
  8  7  1  1
  8  9  1  0
  9 10  2  0
  9 11  1  0
 11 12  1  0
 12 13  2  0
 13 14  1  0
 14 15  2  0
 15 16  1  0
 16 17  2  0
 17 18  1  0
 18 19  2  0
 19 20  1  0
 20 21  2  0
 20 22  1  0
 19 23  1  0
 18 24  1  0
 17 25  1  0
 15 26  1  0
 13 27  1  0
 11 28  1  0
 28 29  1  0
 29 30  1  0
 30 31  1  0
 31 32  2  0
 32 33  1  0
 33 34  2  0
 34 35  1  0
 35 36  2  0
 36 37  1  0
 35 38  1  0
 34 39  1  0
 33 40  1  0
 32 41  1  0
 30 42  1  0
 30 43  1  0
 29 44  1  6
 28 45  1  0
 28 46  1  0
  8 47  1  0
 47 48  2  0
 48 49  1  0
 49 50  1  0
 49 51  2  0
 51 52  1  0
 52 53  2  0
 53 54  1  0
 54 55  2  0
 52 56  1  0
 51 57  1  0
 48 58  1  0
  7 59  1  0
  7 60  1  0
  5 61  1  0
  5 62  1  0
  2 63  1  0
  1 64  1  0
  1 65  1  0
  1 66  1  0
 54  6  1  0
 29  8  1  0
 36 31  1  0
 53 47  1  0
 21 12  1  0
 21 16  1  0
M  END
>  <cnnaffinities>  (31) 
[6.74704, 6.74329]

>  <score>  (31) 
6.74704

>  <index>  (31) 
30

>  <Smiles>  (31) 
C(N(C(=O)C(N1C([C@@]2(C(=O)N(c3c(nc(c4c(c(c(c(c34)[H])[H])[H])[H])[H])[H])C([C@@]2(C(c2c(c(c(c(c2[H])[H])[H])[H])[H])([H])[H])[H])([H])[H])c2c(c(Cl)c(c(c2C1=O)[H])[H])[H])([H])[H])([H])[H])[H])([H])([H])[H]

>  <h>  (31) 
<NA>

>  <Training>  (31) 
True

>  <Success>  (31) 
True

>  <enamine_searched>  (31) 
False

>  <enamine_id>  (31) 
nan

$$$$

     RDKit          3D

 64 70  0  0  0  0  0  0  0  0999 V2000
    8.7385    3.2429   25.0522 O   0  0  0  0  0  0  0  0  0  0  0  0
    8.5937    2.2161   24.4026 C   0  0  0  0  0  0  0  0  0  0  0  0
    9.7301    1.5952   23.6583 C   0  0  0  0  0  0  0  0  0  0  0  0
   10.9741    2.2068   23.7996 C   0  0  0  0  0  0  0  0  0  0  0  0
   12.0727    1.7055   23.1429 C   0  0  0  0  0  0  0  0  0  0  0  0
   11.8988    0.5878   22.3321 C   0  0  0  0  0  0  0  0  0  0  0  0
   13.2915   -0.0213   21.5120 Cl  0  0  0  0  0  0  0  0  0  0  0  0
   10.6713   -0.0297   22.1673 C   0  0  0  0  0  0  0  0  0  0  0  0
    9.5496    0.4702   22.8395 C   0  0  0  0  0  0  0  0  0  0  0  0
    8.1469   -0.0504   22.5871 C   0  0  1  0  0  0  0  0  0  0  0  0
    7.3064    0.1899   23.8678 C   0  0  0  0  0  0  0  0  0  0  0  0
    7.3940    1.5677   24.3218 N   0  0  0  0  0  0  0  0  0  0  0  0
    6.2699    2.1249   25.0501 C   0  0  0  0  0  0  0  0  0  0  0  0
    6.0457    1.4543   26.3707 C   0  0  0  0  0  0  0  0  0  0  0  0
    5.2934    0.4399   26.6328 N   0  0  0  0  0  0  0  0  0  0  0  0
    5.4489    0.1781   27.9910 N   0  0  0  0  0  0  0  0  0  0  0  0
    6.2788    1.0571   28.4292 C   0  0  0  0  0  0  0  0  0  0  0  0
    6.7063    1.9045   27.4654 O   0  0  0  0  0  0  0  0  0  0  0  0
    6.6432    1.2010   29.4382 H   0  0  0  0  0  0  0  0  0  0  0  0
    5.3600    2.0174   24.4482 H   0  0  0  0  0  0  0  0  0  0  0  0
    6.4860    3.1827   25.2076 H   0  0  0  0  0  0  0  0  0  0  0  0
    7.6544   -0.4836   24.6645 H   0  0  0  0  0  0  0  0  0  0  0  0
    6.2517   -0.0434   23.6854 H   0  0  0  0  0  0  0  0  0  0  0  0
    7.5260    0.7385   21.4060 C   0  0  0  0  0  0  0  0  0  0  0  0
    7.7087    1.8945   21.1054 O   0  0  0  0  0  0  0  0  0  0  0  0
    6.7030   -0.1172   20.7131 N   0  0  0  0  0  0  0  0  0  0  0  0
    5.9214    0.3399   19.6306 C   0  0  0  0  0  0  0  0  0  0  0  0
    6.2510   -0.0091   18.3461 C   0  0  0  0  0  0  0  0  0  0  0  0
    5.5987    0.4325   17.2446 N   0  0  0  0  0  0  0  0  0  0  0  0
    4.5741    1.2299   17.4244 C   0  0  0  0  0  0  0  0  0  0  0  0
    4.0963    1.6343   18.7057 C   0  0  0  0  0  0  0  0  0  0  0  0
    2.9618    2.4748   18.8611 C   0  0  0  0  0  0  0  0  0  0  0  0
    2.5189    2.8189   20.1088 C   0  0  0  0  0  0  0  0  0  0  0  0
    3.1783    2.3328   21.2582 C   0  0  0  0  0  0  0  0  0  0  0  0
    4.2750    1.5201   21.1360 C   0  0  0  0  0  0  0  0  0  0  0  0
    4.7763    1.1680   19.8514 C   0  0  0  0  0  0  0  0  0  0  0  0
    4.7684    1.1295   22.0211 H   0  0  0  0  0  0  0  0  0  0  0  0
    2.8130    2.6029   22.2419 H   0  0  0  0  0  0  0  0  0  0  0  0
    1.6566    3.4682   20.2265 H   0  0  0  0  0  0  0  0  0  0  0  0
    2.4539    2.8332   17.9713 H   0  0  0  0  0  0  0  0  0  0  0  0
    4.0663    1.5838   16.5266 H   0  0  0  0  0  0  0  0  0  0  0  0
    7.1033   -0.6659   18.1687 H   0  0  0  0  0  0  0  0  0  0  0  0
    6.7065   -1.4747   21.2061 C   0  0  0  0  0  0  0  0  0  0  0  0
    7.9841   -1.5119   22.0707 C   0  0  2  0  0  0  0  0  0  0  0  0
    7.9688   -2.6367   23.1279 C   0  0  0  0  0  0  0  0  0  0  0  0
    7.8711   -3.9514   22.4555 N   0  0  0  0  0  0  0  0  0  0  0  0
    7.9877   -5.2333   22.9090 C   0  0  0  0  0  0  0  0  0  0  0  0
    8.3232   -5.8304   24.4569 C   0  0  0  0  0  0  0  0  0  0  0  0
    8.4969   -5.8265   24.1010 C   0  0  0  0  0  0  0  0  0  0  0  0
    8.7105   -7.6199   23.6290 N   0  0  0  0  0  0  0  0  0  0  0  0
    8.2265   -7.3650   22.4942 C   0  0  0  0  0  0  0  0  0  0  0  0
    7.8050   -6.1193   21.9719 N   0  0  0  0  0  0  0  0  0  0  0  0
    8.1341   -8.1699   21.7785 H   0  0  0  0  0  0  0  0  0  0  0  0
    8.4550   -4.9307   25.0782 H   0  0  0  0  0  0  0  0  0  0  0  0
    7.5870   -6.1103   25.2588 H   0  0  0  0  0  0  0  0  0  0  0  0
    7.4393   -3.9425   21.5365 H   0  0  0  0  0  0  0  0  0  0  0  0
    8.8642   -2.5562   23.7560 H   0  0  0  0  0  0  0  0  0  0  0  0
    7.0988   -2.4640   23.7901 H   0  0  0  0  0  0  0  0  0  0  0  0
    8.8111   -1.6933   21.3741 H   0  0  0  0  0  0  0  0  0  0  0  0
    5.7828   -1.6887   21.7812 H   0  0  0  0  0  0  0  0  0  0  0  0
    6.7351   -2.1678   20.3624 H   0  0  0  0  0  0  0  0  0  0  0  0
   10.6175   -0.8844   21.5000 H   0  0  0  0  0  0  0  0  0  0  0  0
   13.0505    2.1668   23.2270 H   0  0  0  0  0  0  0  0  0  0  0  0
   11.0402    3.0832   24.4342 H   0  0  0  0  0  0  0  0  0  0  0  0
  1  2  2  0
  2  3  1  0
  3  4  2  0
  4  5  1  0
  5  6  2  0
  6  7  1  0
  6  8  1  0
  8  9  2  0
  9 10  1  0
 10 11  1  1
 11 12  1  0
 12 13  1  0
 13 14  1  0
 14 15  2  0
 15 16  1  0
 16 17  2  0
 17 18  1  0
 17 19  1  0
 13 20  1  0
 13 21  1  0
 11 22  1  0
 11 23  1  0
 10 24  1  0
 24 25  2  0
 24 26  1  0
 26 27  1  0
 27 28  2  0
 28 29  1  0
 29 30  2  0
 30 31  1  0
 31 32  2  0
 32 33  1  0
 33 34  2  0
 34 35  1  0
 35 36  2  0
 35 37  1  0
 34 38  1  0
 33 39  1  0
 32 40  1  0
 30 41  1  0
 28 42  1  0
 26 43  1  0
 43 44  1  0
 44 45  1  0
 45 46  1  0
 46 47  1  0
 47 48  2  0
 48 49  1  0
 49 50  2  0
 50 51  1  0
 51 52  2  0
 51 53  1  0
 49 54  1  0
 48 55  1  0
 46 56  1  0
 45 57  1  0
 45 58  1  0
 44 59  1  6
 43 60  1  0
 43 61  1  0
  8 62  1  0
  5 63  1  0
  4 64  1  0
 12  2  1  0
 18 14  1  0
 36 27  1  0
 52 47  1  0
  9  3  1  0
 44 10  1  0
 36 31  1  0
M  END
>  <cnnaffinities>  (32) 
[6.48357]

>  <score>  (32) 
6.48357

>  <index>  (32) 
31

>  <Smiles>  (32) 
O=C1c2c(c(c(Cl)c(c2[C@@]2(C(N1C(c1nnc(o1)[H])([H])[H])([H])[H])C(=O)N(c1c(nc(c3c(c(c(c(c13)[H])[H])[H])[H])[H])[H])C([C@@]2(C(N(c1c(c(nc(n1)[H])[H])[H])[H])([H])[H])[H])([H])[H])[H])[H])[H]

>  <h>  (32) 
<NA>

>  <Training>  (32) 
True

>  <Success>  (32) 
True

>  <enamine_searched>  (32) 
False

>  <enamine_id>  (32) 
nan

$$$$

     RDKit          3D

 72 77  0  0  0  0  0  0  0  0999 V2000
    6.9385   -2.4992   23.4517 C   0  0  0  0  0  0  0  0  0  0  0  0
    7.8977   -1.8473   22.4415 C   0  0  1  0  0  0  0  0  0  0  0  0
    7.2457   -1.7746   21.0386 C   0  0  0  0  0  0  0  0  0  0  0  0
    6.9033   -0.3791   20.8656 N   0  0  0  0  0  0  0  0  0  0  0  0
    6.1322    0.1056   19.7797 C   0  0  0  0  0  0  0  0  0  0  0  0
    6.4410   -0.2251   18.4846 C   0  0  0  0  0  0  0  0  0  0  0  0
    5.7658    0.2301   17.4004 N   0  0  0  0  0  0  0  0  0  0  0  0
    4.7462    1.0241   17.6011 C   0  0  0  0  0  0  0  0  0  0  0  0
    4.2948    1.4217   18.8873 C   0  0  0  0  0  0  0  0  0  0  0  0
    3.1714    2.2756   19.0592 C   0  0  0  0  0  0  0  0  0  0  0  0
    2.7461    2.6194   20.3118 C   0  0  0  0  0  0  0  0  0  0  0  0
    3.4192    2.1160   21.4500 C   0  0  0  0  0  0  0  0  0  0  0  0
    4.5059    1.2913   21.3085 C   0  0  0  0  0  0  0  0  0  0  0  0
    4.9933    0.9412   20.0187 C   0  0  0  0  0  0  0  0  0  0  0  0
    5.0172    0.9006   22.1821 H   0  0  0  0  0  0  0  0  0  0  0  0
    3.0651    2.3871   22.4413 H   0  0  0  0  0  0  0  0  0  0  0  0
    1.8922    3.2779   20.4396 H   0  0  0  0  0  0  0  0  0  0  0  0
    2.6655    2.6491   18.1718 H   0  0  0  0  0  0  0  0  0  0  0  0
    4.2203    1.3868   16.7164 H   0  0  0  0  0  0  0  0  0  0  0  0
    7.2871   -0.8706   18.2558 H   0  0  0  0  0  0  0  0  0  0  0  0
    7.6158    0.4577   21.6952 C   0  0  0  0  0  0  0  0  0  0  0  0
    7.6501    1.6672   21.5847 O   0  0  0  0  0  0  0  0  0  0  0  0
    8.3608   -0.3854   22.7579 C   0  0  1  0  0  0  0  0  0  0  0  0
    7.9932    0.0848   24.1890 C   0  0  0  0  0  0  0  0  0  0  0  0
    8.4859    1.4157   24.5053 N   0  0  0  0  0  0  0  0  0  0  0  0
    7.5913    2.3609   25.1710 C   0  0  0  0  0  0  0  0  0  0  0  0
    6.8461    3.2421   24.1633 C   0  0  0  0  0  0  0  0  0  0  0  0
    5.9714    4.2846   24.7980 N   0  0  1  0  0  4  0  0  0  0  0  0
    5.5622    5.3187   23.7799 C   0  0  0  0  0  0  0  0  0  0  0  0
    4.6388    6.3564   24.3946 C   0  0  0  0  0  0  0  0  0  0  0  0
    3.4809    5.7642   24.9485 O   0  0  0  0  0  0  0  0  0  0  0  0
    3.7576    4.7969   25.9663 C   0  0  0  0  0  0  0  0  0  0  0  0
    2.4186    4.1363   26.2737 C   0  0  0  0  0  0  0  0  0  0  0  0
    1.9938    3.6940   25.3660 H   0  0  0  0  0  0  0  0  0  0  0  0
    2.5491    3.3452   27.0229 H   0  0  0  0  0  0  0  0  0  0  0  0
    1.7108    4.8739   26.6667 H   0  0  0  0  0  0  0  0  0  0  0  0
    4.2947    5.4733   27.2285 C   0  0  0  0  0  0  0  0  0  0  0  0
    5.2974    5.8927   27.0864 H   0  0  0  0  0  0  0  0  0  0  0  0
    4.3521    4.7366   28.0389 H   0  0  0  0  0  0  0  0  0  0  0  0
    3.6140    6.2758   27.5360 H   0  0  0  0  0  0  0  0  0  0  0  0
    4.7255    3.7190   25.4450 C   0  0  0  0  0  0  0  0  0  0  0  0
    4.2010    3.1173   24.6944 H   0  0  0  0  0  0  0  0  0  0  0  0
    5.0079    3.0682   26.2780 H   0  0  0  0  0  0  0  0  0  0  0  0
    5.1919    6.9424   25.1435 H   0  0  0  0  0  0  0  0  0  0  0  0
    4.2790    7.0446   23.6233 H   0  0  0  0  0  0  0  0  0  0  0  0
    5.0379    4.8075   22.9644 H   0  0  0  0  0  0  0  0  0  0  0  0
    6.4644    5.7877   23.3751 H   0  0  0  0  0  0  0  0  0  0  0  0
    6.5423    4.7643   25.5247 H   0  0  0  0  0  0  0  0  0  0  0  0
    6.2333    2.6111   23.5039 H   0  0  0  0  0  0  0  0  0  0  0  0
    7.5735    3.7608   23.5342 H   0  0  0  0  0  0  0  0  0  0  0  0
    8.1821    2.9788   25.8532 H   0  0  0  0  0  0  0  0  0  0  0  0
    6.8764    1.7824   25.7699 H   0  0  0  0  0  0  0  0  0  0  0  0
    9.6916    1.8694   24.0551 C   0  0  0  0  0  0  0  0  0  0  0  0
   10.0891    3.0068   24.2920 O   0  0  0  0  0  0  0  0  0  0  0  0
   10.4965    0.8932   23.2426 C   0  0  0  0  0  0  0  0  0  0  0  0
   11.8605    1.1224   23.0611 C   0  0  0  0  0  0  0  0  0  0  0  0
   12.6008    0.3392   22.1923 C   0  0  0  0  0  0  0  0  0  0  0  0
   11.9466   -0.6824   21.5062 C   0  0  0  0  0  0  0  0  0  0  0  0
   12.7362   -1.5139   20.1780 Cl  0  0  0  0  0  0  0  0  0  0  0  0
   10.5963   -0.9219   21.6748 C   0  0  0  0  0  0  0  0  0  0  0  0
    9.8623   -0.1754   22.5984 C   0  0  0  0  0  0  0  0  0  0  0  0
   10.1139   -1.5938   20.9724 H   0  0  0  0  0  0  0  0  0  0  0  0
   13.6285    0.5868   21.9488 H   0  0  0  0  0  0  0  0  0  0  0  0
   12.3081    1.9662   23.5739 H   0  0  0  0  0  0  0  0  0  0  0  0
    8.3970   -0.6572   24.8934 H   0  0  0  0  0  0  0  0  0  0  0  0
    6.9072    0.1116   24.3006 H   0  0  0  0  0  0  0  0  0  0  0  0
    7.9436   -2.1031   20.2587 H   0  0  0  0  0  0  0  0  0  0  0  0
    6.3419   -2.3912   20.9702 H   0  0  0  0  0  0  0  0  0  0  0  0
    8.7842   -2.4882   22.4067 H   0  0  0  0  0  0  0  0  0  0  0  0
    6.6864   -3.5163   23.1260 H   0  0  0  0  0  0  0  0  0  0  0  0
    6.0013   -1.9381   23.5448 H   0  0  0  0  0  0  0  0  0  0  0  0
    7.3868   -2.5832   24.4468 H   0  0  0  0  0  0  0  0  0  0  0  0
  1  2  1  0
  2  3  1  0
  3  4  1  0
  4  5  1  0
  5  6  2  0
  6  7  1  0
  7  8  2  0
  8  9  1  0
  9 10  2  0
 10 11  1  0
 11 12  2  0
 12 13  1  0
 13 14  2  0
 13 15  1  0
 12 16  1  0
 11 17  1  0
 10 18  1  0
  8 19  1  0
  6 20  1  0
  4 21  1  0
 21 22  2  0
 21 23  1  0
 23 24  1  1
 24 25  1  0
 25 26  1  0
 26 27  1  0
 27 28  1  0
 28 29  1  0
 29 30  1  0
 30 31  1  0
 31 32  1  0
 32 33  1  0
 33 34  1  0
 33 35  1  0
 33 36  1  0
 32 37  1  0
 37 38  1  0
 37 39  1  0
 37 40  1  0
 32 41  1  0
 41 42  1  0
 41 43  1  0
 30 44  1  0
 30 45  1  0
 29 46  1  0
 29 47  1  0
 28 48  1  1
 27 49  1  0
 27 50  1  0
 26 51  1  0
 26 52  1  0
 25 53  1  0
 53 54  2  0
 53 55  1  0
 55 56  2  0
 56 57  1  0
 57 58  2  0
 58 59  1  0
 58 60  1  0
 60 61  2  0
 60 62  1  0
 57 63  1  0
 56 64  1  0
 24 65  1  0
 24 66  1  0
  3 67  1  0
  3 68  1  0
  2 69  1  6
  1 70  1  0
  1 71  1  0
  1 72  1  0
 23  2  1  0
 41 28  1  0
 61 55  1  0
 14  5  1  0
 61 23  1  0
 14  9  1  0
M  CHG  1  28   1
M  END
>  <cnnaffinities>  (33) 
[6.0812]

>  <score>  (33) 
6.0812

>  <index>  (33) 
32

>  <Smiles>  (33) 
C([C@]1(C(N(c2c(nc(c3c(c(c(c(c23)[H])[H])[H])[H])[H])[H])C(=O)[C@]21C(N(C(C([N@+]1(C(C(OC(C([H])([H])[H])(C([H])([H])[H])C1([H])[H])([H])[H])([H])[H])[H])([H])[H])([H])[H])C(=O)c1c(c(c(Cl)c(c21)[H])[H])[H])([H])[H])([H])[H])[H])([H])([H])[H]

>  <h>  (33) 
<NA>

>  <Training>  (33) 
True

>  <Success>  (33) 
True

>  <enamine_searched>  (33) 
False

>  <enamine_id>  (33) 
nan

$$$$

     RDKit          3D

 44 47  0  0  0  0  0  0  0  0999 V2000
    5.4444   -2.4019   20.9469 O   0  0  0  0  0  0  0  0  0  0  0  0
    6.2315   -1.7171   21.5864 C   0  0  0  0  0  0  0  0  0  0  0  0
    6.9120   -0.4910   20.9255 C   0  0  0  0  0  0  0  0  0  0  0  0
    6.1128    0.0832   19.7747 C   0  0  0  0  0  0  0  0  0  0  0  0
    6.4206   -0.2150   18.4715 C   0  0  0  0  0  0  0  0  0  0  0  0
    5.7557    0.2441   17.3758 N   0  0  0  0  0  0  0  0  0  0  0  0
    4.7330    1.0323   17.5799 C   0  0  0  0  0  0  0  0  0  0  0  0
    4.2839    1.4242   18.8705 C   0  0  0  0  0  0  0  0  0  0  0  0
    3.1653    2.2766   19.0455 C   0  0  0  0  0  0  0  0  0  0  0  0
    2.7518    2.6307   20.2976 C   0  0  0  0  0  0  0  0  0  0  0  0
    3.4490    2.1407   21.4278 C   0  0  0  0  0  0  0  0  0  0  0  0
    4.5346    1.3135   21.2926 C   0  0  0  0  0  0  0  0  0  0  0  0
    4.9888    0.9359   20.0022 C   0  0  0  0  0  0  0  0  0  0  0  0
    5.0483    0.9468   22.1812 H   0  0  0  0  0  0  0  0  0  0  0  0
    3.1102    2.4295   22.4157 H   0  0  0  0  0  0  0  0  0  0  0  0
    1.8966    3.2874   20.4378 H   0  0  0  0  0  0  0  0  0  0  0  0
    2.6464    2.6472   18.1628 H   0  0  0  0  0  0  0  0  0  0  0  0
    4.2004    1.3984   16.6976 H   0  0  0  0  0  0  0  0  0  0  0  0
    7.2641   -0.8658   18.2423 H   0  0  0  0  0  0  0  0  0  0  0  0
    7.8725   -0.8394   20.5200 H   0  0  0  0  0  0  0  0  0  0  0  0
    7.1571    0.2945   21.6516 H   0  0  0  0  0  0  0  0  0  0  0  0
    6.5570   -2.0582   22.8731 N   0  0  0  0  0  0  0  0  0  0  0  0
    6.0867   -3.3288   23.4228 C   0  0  0  0  0  0  0  0  0  0  0  0
    6.5999   -3.3629   24.8644 C   0  0  0  0  0  0  0  0  0  0  0  0
    7.6640   -2.2662   24.9542 C   0  0  0  0  0  0  0  0  0  0  0  0
    7.3554   -1.2850   23.8126 C   0  0  2  0  0  0  0  0  0  0  0  0
    6.6487   -0.0326   24.2988 C   0  0  0  0  0  0  0  0  0  0  0  0
    7.3308    1.1826   24.3539 C   0  0  0  0  0  0  0  0  0  0  0  0
    6.6930    2.3317   24.8064 C   0  0  0  0  0  0  0  0  0  0  0  0
    5.3702    2.2928   25.2264 C   0  0  0  0  0  0  0  0  0  0  0  0
    4.7245    1.0675   25.1920 C   0  0  0  0  0  0  0  0  0  0  0  0
    3.4443    1.0098   25.5942 F   0  0  0  0  0  0  0  0  0  0  0  0
    5.3327   -0.0929   24.7463 C   0  0  0  0  0  0  0  0  0  0  0  0
    4.7622   -1.0172   24.7452 H   0  0  0  0  0  0  0  0  0  0  0  0
    4.8442    3.1789   25.5659 H   0  0  0  0  0  0  0  0  0  0  0  0
    7.2253    3.2734   24.8156 H   0  0  0  0  0  0  0  0  0  0  0  0
    8.3663    1.2320   24.0252 H   0  0  0  0  0  0  0  0  0  0  0  0
    8.2871   -0.9846   23.3315 H   0  0  0  0  0  0  0  0  0  0  0  0
    7.6552   -1.7675   25.9247 H   0  0  0  0  0  0  0  0  0  0  0  0
    8.6672   -2.6858   24.8398 H   0  0  0  0  0  0  0  0  0  0  0  0
    7.0150   -4.3379   25.1239 H   0  0  0  0  0  0  0  0  0  0  0  0
    5.7937   -3.1836   25.5805 H   0  0  0  0  0  0  0  0  0  0  0  0
    6.4892   -4.1491   22.8244 H   0  0  0  0  0  0  0  0  0  0  0  0
    4.9964   -3.4122   23.3724 H   0  0  0  0  0  0  0  0  0  0  0  0
  1  2  2  0
  2  3  1  0
  3  4  1  0
  4  5  2  0
  5  6  1  0
  6  7  2  0
  7  8  1  0
  8  9  2  0
  9 10  1  0
 10 11  2  0
 11 12  1  0
 12 13  2  0
 12 14  1  0
 11 15  1  0
 10 16  1  0
  9 17  1  0
  7 18  1  0
  5 19  1  0
  3 20  1  0
  3 21  1  0
  2 22  1  0
 22 23  1  0
 23 24  1  0
 24 25  1  0
 25 26  1  0
 26 27  1  0
 27 28  2  0
 28 29  1  0
 29 30  2  0
 30 31  1  0
 31 32  1  0
 31 33  2  0
 33 34  1  0
 30 35  1  0
 29 36  1  0
 28 37  1  0
 26 38  1  6
 25 39  1  0
 25 40  1  0
 24 41  1  0
 24 42  1  0
 23 43  1  0
 23 44  1  0
 13  4  1  0
 26 22  1  0
 33 27  1  0
 13  8  1  0
M  END
>  <cnnaffinities>  (34) 
[5.58861, 5.6338]

>  <score>  (34) 
5.58861

>  <index>  (34) 
33

>  <Smiles>  (34) 
O=C(C(c1c(nc(c2c(c(c(c(c12)[H])[H])[H])[H])[H])[H])([H])[H])N1C(C(C([C@@]1(c1c(c(c(c(F)c1[H])[H])[H])[H])[H])([H])[H])([H])[H])([H])[H]

>  <h>  (34) 
<NA>

>  <Training>  (34) 
True

>  <Success>  (34) 
True

>  <enamine_searched>  (34) 
False

>  <enamine_id>  (34) 
nan

$$$$

     RDKit          3D

 58 63  0  0  0  0  0  0  0  0999 V2000
    6.6973   -2.3077   23.6208 C   0  0  0  0  0  0  0  0  0  0  0  0
    7.7025   -1.8421   22.5541 C   0  0  1  0  0  0  0  0  0  0  0  0
    7.0383   -1.7944   21.1571 C   0  0  0  0  0  0  0  0  0  0  0  0
    6.8737   -0.3861   20.8759 N   0  0  0  0  0  0  0  0  0  0  0  0
    6.1257    0.1079   19.7784 C   0  0  0  0  0  0  0  0  0  0  0  0
    6.4408   -0.2251   18.4847 C   0  0  0  0  0  0  0  0  0  0  0  0
    5.7708    0.2280   17.3982 N   0  0  0  0  0  0  0  0  0  0  0  0
    4.7498    1.0234   17.5980 C   0  0  0  0  0  0  0  0  0  0  0  0
    4.2966    1.4310   18.8841 C   0  0  0  0  0  0  0  0  0  0  0  0
    3.1657    2.2760   19.0598 C   0  0  0  0  0  0  0  0  0  0  0  0
    2.7389    2.6147   20.3142 C   0  0  0  0  0  0  0  0  0  0  0  0
    3.4217    2.1261   21.4501 C   0  0  0  0  0  0  0  0  0  0  0  0
    4.5172    1.3152   21.3056 C   0  0  0  0  0  0  0  0  0  0  0  0
    4.9972    0.9557   20.0158 C   0  0  0  0  0  0  0  0  0  0  0  0
    5.0200    0.9262   22.1844 H   0  0  0  0  0  0  0  0  0  0  0  0
    3.0808    2.3972   22.4463 H   0  0  0  0  0  0  0  0  0  0  0  0
    1.8747    3.2604   20.4441 H   0  0  0  0  0  0  0  0  0  0  0  0
    2.6546    2.6411   18.1733 H   0  0  0  0  0  0  0  0  0  0  0  0
    4.2219    1.3832   16.7147 H   0  0  0  0  0  0  0  0  0  0  0  0
    7.2882   -0.8743   18.2666 H   0  0  0  0  0  0  0  0  0  0  0  0
    7.6845    0.4279   21.6330 C   0  0  0  0  0  0  0  0  0  0  0  0
    7.8729    1.6041   21.4119 O   0  0  0  0  0  0  0  0  0  0  0  0
    8.3393   -0.4252   22.7563 C   0  0  1  0  0  0  0  0  0  0  0  0
    8.0518    0.1719   24.1586 C   0  0  0  0  0  0  0  0  0  0  0  0
    8.7337    1.4352   24.3971 N   0  0  0  0  0  0  0  0  0  0  0  0
    7.9805    2.5717   24.9372 C   0  0  0  0  0  0  0  0  0  0  0  0
    7.5873    3.5907   23.8997 C   0  0  0  0  0  0  0  0  0  0  0  0
    8.3751    4.6245   23.3756 C   0  0  0  0  0  0  0  0  0  0  0  0
    7.6889    5.2398   22.4205 N   0  0  0  0  0  0  0  0  0  0  0  0
    6.5387    4.6007   22.3923 N   0  0  0  0  0  0  0  0  0  0  0  0
    5.5367    4.8804   21.3738 C   0  0  0  0  0  0  0  0  0  0  0  0
    4.5567    4.8464   21.8544 H   0  0  0  0  0  0  0  0  0  0  0  0
    5.7399    5.8799   20.9767 H   0  0  0  0  0  0  0  0  0  0  0  0
    5.5772    4.1294   20.5719 H   0  0  0  0  0  0  0  0  0  0  0  0
    6.4061    3.6137   23.2730 N   0  0  0  0  0  0  0  0  0  0  0  0
    9.3798    4.9130   23.6584 H   0  0  0  0  0  0  0  0  0  0  0  0
    8.5891    3.0548   25.7086 H   0  0  0  0  0  0  0  0  0  0  0  0
    7.0797    2.1756   25.4129 H   0  0  0  0  0  0  0  0  0  0  0  0
   10.0147    1.6628   23.9813 C   0  0  0  0  0  0  0  0  0  0  0  0
   10.6029    2.7146   24.2133 O   0  0  0  0  0  0  0  0  0  0  0  0
   10.6409    0.5689   23.1753 C   0  0  0  0  0  0  0  0  0  0  0  0
   12.0163    0.6236   22.9575 C   0  0  0  0  0  0  0  0  0  0  0  0
   12.6139   -0.2316   22.0557 C   0  0  0  0  0  0  0  0  0  0  0  0
   11.8099   -1.1467   21.3801 C   0  0  0  0  0  0  0  0  0  0  0  0
   12.3671   -1.9252   20.4367 F   0  0  0  0  0  0  0  0  0  0  0  0
   10.4497   -1.2379   21.5959 C   0  0  0  0  0  0  0  0  0  0  0  0
    9.8523   -0.4045   22.5502 C   0  0  0  0  0  0  0  0  0  0  0  0
    9.8831   -1.9156   20.9634 H   0  0  0  0  0  0  0  0  0  0  0  0
   13.6693   -0.1581   21.8215 H   0  0  0  0  0  0  0  0  0  0  0  0
   12.5796    1.3891   23.4820 H   0  0  0  0  0  0  0  0  0  0  0  0
    8.3453   -0.5792   24.9066 H   0  0  0  0  0  0  0  0  0  0  0  0
    6.9838    0.3723   24.2515 H   0  0  0  0  0  0  0  0  0  0  0  0
    6.0621   -2.2935   21.1432 H   0  0  0  0  0  0  0  0  0  0  0  0
    7.6811   -2.2598   20.4039 H   0  0  0  0  0  0  0  0  0  0  0  0
    8.5157   -2.5760   22.5529 H   0  0  0  0  0  0  0  0  0  0  0  0
    5.8368   -1.6329   23.6904 H   0  0  0  0  0  0  0  0  0  0  0  0
    6.3215   -3.3039   23.3628 H   0  0  0  0  0  0  0  0  0  0  0  0
    7.1588   -2.3845   24.6094 H   0  0  0  0  0  0  0  0  0  0  0  0
  1  2  1  0
  2  3  1  0
  3  4  1  0
  4  5  1  0
  5  6  2  0
  6  7  1  0
  7  8  2  0
  8  9  1  0
  9 10  2  0
 10 11  1  0
 11 12  2  0
 12 13  1  0
 13 14  2  0
 13 15  1  0
 12 16  1  0
 11 17  1  0
 10 18  1  0
  8 19  1  0
  6 20  1  0
  4 21  1  0
 21 22  2  0
 21 23  1  0
 23 24  1  1
 24 25  1  0
 25 26  1  0
 26 27  1  0
 27 28  1  0
 28 29  2  0
 29 30  1  0
 30 31  1  0
 31 32  1  0
 31 33  1  0
 31 34  1  0
 30 35  1  0
 28 36  1  0
 26 37  1  0
 26 38  1  0
 25 39  1  0
 39 40  2  0
 39 41  1  0
 41 42  2  0
 42 43  1  0
 43 44  2  0
 44 45  1  0
 44 46  1  0
 46 47  2  0
 46 48  1  0
 43 49  1  0
 42 50  1  0
 24 51  1  0
 24 52  1  0
  3 53  1  0
  3 54  1  0
  2 55  1  6
  1 56  1  0
  1 57  1  0
  1 58  1  0
 23  2  1  0
 35 27  2  0
 47 41  1  0
 14  5  1  0
 47 23  1  0
 14  9  1  0
M  END
>  <cnnaffinities>  (35) 
[6.24124]

>  <score>  (35) 
6.24124

>  <index>  (35) 
34

>  <Smiles>  (35) 
C([C@]1(C(N(c2c(nc(c3c(c(c(c(c23)[H])[H])[H])[H])[H])[H])C(=O)[C@]21C(N(C(c1c(nn(C([H])([H])[H])n1)[H])([H])[H])C(=O)c1c(c(c(F)c(c21)[H])[H])[H])([H])[H])([H])[H])[H])([H])([H])[H]

>  <h>  (35) 
<NA>

>  <Training>  (35) 
True

>  <Success>  (35) 
True

>  <enamine_searched>  (35) 
False

>  <enamine_id>  (35) 
nan

$$$$

     RDKit          3D

 51 54  0  0  0  0  0  0  0  0999 V2000
   13.4863    0.4122   22.5287 N   0  0  0  0  0  0  0  0  0  0  0  0
   13.0307   -0.4980   23.0779 C   0  0  0  0  0  0  0  0  0  0  0  0
   12.4624   -1.6726   23.7645 C   0  0  0  0  0  0  0  0  0  0  0  0
   11.0506   -1.9730   23.2969 C   0  0  0  0  0  0  0  0  0  0  0  0
    9.9766   -1.2972   23.8768 C   0  0  0  0  0  0  0  0  0  0  0  0
    8.6798   -1.5157   23.4257 C   0  0  0  0  0  0  0  0  0  0  0  0
    8.4488   -2.4127   22.3820 C   0  0  0  0  0  0  0  0  0  0  0  0
    7.1123   -2.7220   21.9694 N   0  0  0  0  0  0  0  0  0  0  0  0
    6.5700   -4.0442   22.2808 C   0  0  0  0  0  0  0  0  0  0  0  0
    6.0496   -4.1363   23.7027 C   0  0  0  0  0  0  0  0  0  0  0  0
    4.7016   -3.9057   23.9860 C   0  0  0  0  0  0  0  0  0  0  0  0
    4.2518   -3.9394   25.3023 C   0  0  0  0  0  0  0  0  0  0  0  0
    5.1372   -4.1943   26.3448 C   0  0  0  0  0  0  0  0  0  0  0  0
    6.4773   -4.4160   26.0543 C   0  0  0  0  0  0  0  0  0  0  0  0
    7.5998   -4.7204   27.3524 Cl  0  0  0  0  0  0  0  0  0  0  0  0
    6.9397   -4.3900   24.7460 C   0  0  0  0  0  0  0  0  0  0  0  0
    7.9953   -4.5681   24.5512 H   0  0  0  0  0  0  0  0  0  0  0  0
    4.8122   -4.1872   27.3810 H   0  0  0  0  0  0  0  0  0  0  0  0
    3.2013   -3.7628   25.5216 H   0  0  0  0  0  0  0  0  0  0  0  0
    4.0045   -3.6986   23.1756 H   0  0  0  0  0  0  0  0  0  0  0  0
    5.7682   -4.2046   21.5573 H   0  0  0  0  0  0  0  0  0  0  0  0
    7.3603   -4.7829   22.1030 H   0  0  0  0  0  0  0  0  0  0  0  0
    6.2366   -1.8010   21.4279 C   0  0  0  0  0  0  0  0  0  0  0  0
    5.0431   -2.0135   21.3249 O   0  0  0  0  0  0  0  0  0  0  0  0
    6.8881   -0.5303   20.8854 C   0  0  0  0  0  0  0  0  0  0  0  0
    6.1118    0.0807   19.7589 C   0  0  0  0  0  0  0  0  0  0  0  0
    6.4330   -0.2170   18.4587 C   0  0  0  0  0  0  0  0  0  0  0  0
    5.7680    0.2402   17.3682 N   0  0  0  0  0  0  0  0  0  0  0  0
    4.7435    1.0257   17.5821 C   0  0  0  0  0  0  0  0  0  0  0  0
    4.2921    1.4085   18.8713 C   0  0  0  0  0  0  0  0  0  0  0  0
    3.1797    2.2682   19.0443 C   0  0  0  0  0  0  0  0  0  0  0  0
    2.7627    2.6208   20.2986 C   0  0  0  0  0  0  0  0  0  0  0  0
    3.4442    2.1281   21.4356 C   0  0  0  0  0  0  0  0  0  0  0  0
    4.5235    1.2892   21.2931 C   0  0  0  0  0  0  0  0  0  0  0  0
    4.9843    0.9170   20.0009 C   0  0  0  0  0  0  0  0  0  0  0  0
    5.0213    0.8992   22.1763 H   0  0  0  0  0  0  0  0  0  0  0  0
    3.1092    2.4204   22.4286 H   0  0  0  0  0  0  0  0  0  0  0  0
    1.9084    3.2824   20.4307 H   0  0  0  0  0  0  0  0  0  0  0  0
    2.6756    2.6408   18.1554 H   0  0  0  0  0  0  0  0  0  0  0  0
    4.2028    1.3992   16.7111 H   0  0  0  0  0  0  0  0  0  0  0  0
    7.2819   -0.8682   18.2382 H   0  0  0  0  0  0  0  0  0  0  0  0
    7.0250    0.1639   21.7243 H   0  0  0  0  0  0  0  0  0  0  0  0
    7.8959   -0.8092   20.5573 H   0  0  0  0  0  0  0  0  0  0  0  0
    9.5259   -3.0462   21.7681 C   0  0  0  0  0  0  0  0  0  0  0  0
   10.8184   -2.8460   22.2360 C   0  0  0  0  0  0  0  0  0  0  0  0
   11.6395   -3.4123   21.7936 H   0  0  0  0  0  0  0  0  0  0  0  0
    9.3467   -3.6916   20.9145 H   0  0  0  0  0  0  0  0  0  0  0  0
    7.8343   -1.0094   23.8875 H   0  0  0  0  0  0  0  0  0  0  0  0
   10.1618   -0.5843   24.6820 H   0  0  0  0  0  0  0  0  0  0  0  0
   13.1344   -2.5190   23.5862 H   0  0  0  0  0  0  0  0  0  0  0  0
   12.4769   -1.4724   24.8420 H   0  0  0  0  0  0  0  0  0  0  0  0
  1  2  3  0
  2  3  1  0
  3  4  1  0
  4  5  2  0
  5  6  1  0
  6  7  2  0
  7  8  1  0
  8  9  1  0
  9 10  1  0
 10 11  2  0
 11 12  1  0
 12 13  2  0
 13 14  1  0
 14 15  1  0
 14 16  2  0
 16 17  1  0
 13 18  1  0
 12 19  1  0
 11 20  1  0
  9 21  1  0
  9 22  1  0
  8 23  1  0
 23 24  2  0
 23 25  1  0
 25 26  1  0
 26 27  2  0
 27 28  1  0
 28 29  2  0
 29 30  1  0
 30 31  2  0
 31 32  1  0
 32 33  2  0
 33 34  1  0
 34 35  2  0
 34 36  1  0
 33 37  1  0
 32 38  1  0
 31 39  1  0
 29 40  1  0
 27 41  1  0
 25 42  1  0
 25 43  1  0
  7 44  1  0
 44 45  2  0
 45 46  1  0
 44 47  1  0
  6 48  1  0
  5 49  1  0
  3 50  1  0
  3 51  1  0
 45  4  1  0
 16 10  1  0
 35 26  1  0
 35 30  1  0
M  END
>  <cnnaffinities>  (36) 
[6.74706, 6.54942]

>  <score>  (36) 
6.74706

>  <index>  (36) 
35

>  <Smiles>  (36) 
N#CC(c1c(c(c(N(C(c2c(c(c(c(Cl)c2[H])[H])[H])[H])([H])[H])C(=O)C(c2c(nc(c3c(c(c(c(c23)[H])[H])[H])[H])[H])[H])([H])[H])c(c1[H])[H])[H])[H])([H])[H]

>  <h>  (36) 
<NA>

>  <Training>  (36) 
True

>  <Success>  (36) 
True

>  <enamine_searched>  (36) 
False

>  <enamine_id>  (36) 
nan

$$$$

     RDKit          3D

 59 64  0  0  0  0  0  0  0  0999 V2000
    6.7919   -2.3147   23.5823 C   0  0  0  0  0  0  0  0  0  0  0  0
    7.7838   -1.8379   22.5110 C   0  0  1  0  0  0  0  0  0  0  0  0
    7.1094   -1.7878   21.1210 C   0  0  0  0  0  0  0  0  0  0  0  0
    6.8791   -0.3826   20.8758 N   0  0  0  0  0  0  0  0  0  0  0  0
    6.1250    0.1056   19.7809 C   0  0  0  0  0  0  0  0  0  0  0  0
    6.4403   -0.2263   18.4871 C   0  0  0  0  0  0  0  0  0  0  0  0
    5.7690    0.2276   17.4014 N   0  0  0  0  0  0  0  0  0  0  0  0
    4.7471    1.0220   17.5995 C   0  0  0  0  0  0  0  0  0  0  0  0
    4.2925    1.4240   18.8861 C   0  0  0  0  0  0  0  0  0  0  0  0
    3.1675    2.2758   19.0582 C   0  0  0  0  0  0  0  0  0  0  0  0
    2.7416    2.6168   20.3122 C   0  0  0  0  0  0  0  0  0  0  0  0
    3.4172    2.1172   21.4481 C   0  0  0  0  0  0  0  0  0  0  0  0
    4.5048    1.2946   21.3070 C   0  0  0  0  0  0  0  0  0  0  0  0
    4.9884    0.9439   20.0174 C   0  0  0  0  0  0  0  0  0  0  0  0
    5.0167    0.8996   22.1782 H   0  0  0  0  0  0  0  0  0  0  0  0
    3.0672    2.3901   22.4401 H   0  0  0  0  0  0  0  0  0  0  0  0
    1.8876    3.2752   20.4417 H   0  0  0  0  0  0  0  0  0  0  0  0
    2.6619    2.6487   18.1705 H   0  0  0  0  0  0  0  0  0  0  0  0
    4.2225    1.3832   16.7140 H   0  0  0  0  0  0  0  0  0  0  0  0
    7.2878   -0.8719   18.2624 H   0  0  0  0  0  0  0  0  0  0  0  0
    7.6680    0.4480   21.6445 C   0  0  0  0  0  0  0  0  0  0  0  0
    7.7701    1.6389   21.4690 O   0  0  0  0  0  0  0  0  0  0  0  0
    8.4002   -0.4096   22.7142 C   0  0  1  0  0  0  0  0  0  0  0  0
    8.1745    0.1500   24.1422 C   0  0  0  0  0  0  0  0  0  0  0  0
    8.8344    1.4280   24.3746 N   0  0  0  0  0  0  0  0  0  0  0  0
    8.0868    2.5199   24.9962 C   0  0  0  0  0  0  0  0  0  0  0  0
    7.3647    3.4238   24.0205 C   0  0  0  0  0  0  0  0  0  0  0  0
    5.9790    3.4201   23.7220 C   0  0  0  0  0  0  0  0  0  0  0  0
    5.8472    4.3469   22.7189 C   0  0  0  0  0  0  0  0  0  0  0  0
    7.0677    4.8732   22.5040 N   0  0  0  0  0  0  0  0  0  0  0  0
    7.3520    5.7724   21.4095 C   0  0  0  0  0  0  0  0  0  0  0  0
    6.6529    6.6137   21.4395 H   0  0  0  0  0  0  0  0  0  0  0  0
    8.3773    6.1232   21.5119 H   0  0  0  0  0  0  0  0  0  0  0  0
    7.2284    5.2415   20.4528 H   0  0  0  0  0  0  0  0  0  0  0  0
    8.0039    4.3304   23.2928 N   0  0  0  0  0  0  0  0  0  0  0  0
    5.0401    4.6771   22.0762 H   0  0  0  0  0  0  0  0  0  0  0  0
    5.1981    2.8155   24.1705 H   0  0  0  0  0  0  0  0  0  0  0  0
    7.3457    2.0737   25.6718 H   0  0  0  0  0  0  0  0  0  0  0  0
    8.8016    3.0939   25.5931 H   0  0  0  0  0  0  0  0  0  0  0  0
   10.1026    1.6836   23.9287 C   0  0  0  0  0  0  0  0  0  0  0  0
   10.7149    2.7054   24.2183 O   0  0  0  0  0  0  0  0  0  0  0  0
   10.6958    0.6374   23.0450 C   0  0  0  0  0  0  0  0  0  0  0  0
   12.0573    0.7404   22.7649 C   0  0  0  0  0  0  0  0  0  0  0  0
   12.6506   -0.1404   21.8871 C   0  0  0  0  0  0  0  0  0  0  0  0
   11.8568   -1.1147   21.2937 C   0  0  0  0  0  0  0  0  0  0  0  0
   12.4133   -1.9037   20.3594 F   0  0  0  0  0  0  0  0  0  0  0  0
   10.5013   -1.2163   21.5282 C   0  0  0  0  0  0  0  0  0  0  0  0
    9.9048   -0.3576   22.4567 C   0  0  0  0  0  0  0  0  0  0  0  0
    9.9360   -1.9161   20.9233 H   0  0  0  0  0  0  0  0  0  0  0  0
   13.6906   -0.0570   21.5995 H   0  0  0  0  0  0  0  0  0  0  0  0
   12.6122    1.5481   23.2302 H   0  0  0  0  0  0  0  0  0  0  0  0
    8.5384   -0.6085   24.8530 H   0  0  0  0  0  0  0  0  0  0  0  0
    7.1072    0.3039   24.3056 H   0  0  0  0  0  0  0  0  0  0  0  0
    7.7644   -2.2078   20.3506 H   0  0  0  0  0  0  0  0  0  0  0  0
    6.1569   -2.3270   21.1030 H   0  0  0  0  0  0  0  0  0  0  0  0
    8.6037   -2.5637   22.5009 H   0  0  0  0  0  0  0  0  0  0  0  0
    6.4233   -3.3138   23.3278 H   0  0  0  0  0  0  0  0  0  0  0  0
    7.2588   -2.3859   24.5685 H   0  0  0  0  0  0  0  0  0  0  0  0
    5.9252   -1.6500   23.6600 H   0  0  0  0  0  0  0  0  0  0  0  0
  1  2  1  0
  2  3  1  0
  3  4  1  0
  4  5  1  0
  5  6  2  0
  6  7  1  0
  7  8  2  0
  8  9  1  0
  9 10  2  0
 10 11  1  0
 11 12  2  0
 12 13  1  0
 13 14  2  0
 13 15  1  0
 12 16  1  0
 11 17  1  0
 10 18  1  0
  8 19  1  0
  6 20  1  0
  4 21  1  0
 21 22  2  0
 21 23  1  0
 23 24  1  1
 24 25  1  0
 25 26  1  0
 26 27  1  0
 27 28  1  0
 28 29  2  0
 29 30  1  0
 30 31  1  0
 31 32  1  0
 31 33  1  0
 31 34  1  0
 30 35  1  0
 29 36  1  0
 28 37  1  0
 26 38  1  0
 26 39  1  0
 25 40  1  0
 40 41  2  0
 40 42  1  0
 42 43  2  0
 43 44  1  0
 44 45  2  0
 45 46  1  0
 45 47  1  0
 47 48  2  0
 47 49  1  0
 44 50  1  0
 43 51  1  0
 24 52  1  0
 24 53  1  0
  3 54  1  0
  3 55  1  0
  2 56  1  6
  1 57  1  0
  1 58  1  0
  1 59  1  0
 23  2  1  0
 35 27  2  0
 48 42  1  0
 14  5  1  0
 48 23  1  0
 14  9  1  0
M  END
>  <cnnaffinities>  (37) 
[6.12765, 6.28698]

>  <score>  (37) 
6.12765

>  <index>  (37) 
36

>  <Smiles>  (37) 
C([C@]1(C(N(c2c(nc(c3c(c(c(c(c23)[H])[H])[H])[H])[H])[H])C(=O)[C@]21C(N(C(c1c(c(n(C([H])([H])[H])n1)[H])[H])([H])[H])C(=O)c1c(c(c(F)c(c21)[H])[H])[H])([H])[H])([H])[H])[H])([H])([H])[H]

>  <h>  (37) 
<NA>

>  <Training>  (37) 
True

>  <Success>  (37) 
True

>  <enamine_searched>  (37) 
False

>  <enamine_id>  (37) 
nan

$$$$

     RDKit          3D

 48 51  0  0  0  0  0  0  0  0999 V2000
   13.4100   -1.3601   24.3454 N   0  0  0  0  0  0  0  0  0  0  0  0
   12.3496   -1.6031   23.9432 C   0  0  0  0  0  0  0  0  0  0  0  0
   11.0136   -1.8799   23.4646 C   0  0  0  0  0  0  0  0  0  0  0  0
    9.9208   -1.1653   23.9711 C   0  0  0  0  0  0  0  0  0  0  0  0
    8.6344   -1.4224   23.5147 C   0  0  0  0  0  0  0  0  0  0  0  0
    8.4327   -2.3902   22.5303 C   0  0  0  0  0  0  0  0  0  0  0  0
    7.1281   -2.7064   22.0473 N   0  0  0  0  0  0  0  0  0  0  0  0
    6.5458   -3.9983   22.4185 C   0  0  0  0  0  0  0  0  0  0  0  0
    5.9776   -4.0119   23.8317 C   0  0  0  0  0  0  0  0  0  0  0  0
    6.8134   -4.2283   24.9283 C   0  0  0  0  0  0  0  0  0  0  0  0
    6.3160   -4.1706   26.2273 C   0  0  0  0  0  0  0  0  0  0  0  0
    4.9689   -3.9061   26.4504 C   0  0  0  0  0  0  0  0  0  0  0  0
    4.1379   -3.7191   25.3534 C   0  0  0  0  0  0  0  0  0  0  0  0
    2.4493   -3.3759   25.6158 Cl  0  0  0  0  0  0  0  0  0  0  0  0
    4.6214   -3.7708   24.0527 C   0  0  0  0  0  0  0  0  0  0  0  0
    3.9480   -3.5913   23.2202 H   0  0  0  0  0  0  0  0  0  0  0  0
    4.5622   -3.8405   27.4560 H   0  0  0  0  0  0  0  0  0  0  0  0
    6.9861   -4.3139   27.0729 H   0  0  0  0  0  0  0  0  0  0  0  0
    7.8714   -4.4233   24.7639 H   0  0  0  0  0  0  0  0  0  0  0  0
    7.3395   -4.7504   22.3350 H   0  0  0  0  0  0  0  0  0  0  0  0
    5.7550   -4.2196   21.6953 H   0  0  0  0  0  0  0  0  0  0  0  0
    6.2813   -1.7905   21.4649 C   0  0  0  0  0  0  0  0  0  0  0  0
    5.0806   -2.0080   21.3947 O   0  0  0  0  0  0  0  0  0  0  0  0
    6.9245   -0.5194   20.8855 C   0  0  0  0  0  0  0  0  0  0  0  0
    6.1155    0.0811   19.7673 C   0  0  0  0  0  0  0  0  0  0  0  0
    6.4245   -0.2138   18.4669 C   0  0  0  0  0  0  0  0  0  0  0  0
    5.7577    0.2440   17.3773 N   0  0  0  0  0  0  0  0  0  0  0  0
    4.7333    1.0292   17.5858 C   0  0  0  0  0  0  0  0  0  0  0  0
    4.2846    1.4182   18.8750 C   0  0  0  0  0  0  0  0  0  0  0  0
    3.1651    2.2719   19.0468 C   0  0  0  0  0  0  0  0  0  0  0  0
    2.7491    2.6239   20.2998 C   0  0  0  0  0  0  0  0  0  0  0  0
    3.4384    2.1340   21.4327 C   0  0  0  0  0  0  0  0  0  0  0  0
    4.5241    1.3050   21.2910 C   0  0  0  0  0  0  0  0  0  0  0  0
    4.9862    0.9273   20.0019 C   0  0  0  0  0  0  0  0  0  0  0  0
    5.0289    0.9134   22.1686 H   0  0  0  0  0  0  0  0  0  0  0  0
    3.0988    2.4156   22.4247 H   0  0  0  0  0  0  0  0  0  0  0  0
    1.8930    3.2796   20.4290 H   0  0  0  0  0  0  0  0  0  0  0  0
    2.6637    2.6400   18.1552 H   0  0  0  0  0  0  0  0  0  0  0  0
    4.2068    1.3947   16.7032 H   0  0  0  0  0  0  0  0  0  0  0  0
    7.2682   -0.8625   18.2326 H   0  0  0  0  0  0  0  0  0  0  0  0
    7.9319   -0.7865   20.5445 H   0  0  0  0  0  0  0  0  0  0  0  0
    7.0755    0.2056   21.6989 H   0  0  0  0  0  0  0  0  0  0  0  0
    9.5175   -3.0826   22.0040 C   0  0  0  0  0  0  0  0  0  0  0  0
   10.8040   -2.8475   22.4755 C   0  0  0  0  0  0  0  0  0  0  0  0
   11.6528   -3.4102   22.0950 H   0  0  0  0  0  0  0  0  0  0  0  0
    9.3037   -3.7810   21.1995 H   0  0  0  0  0  0  0  0  0  0  0  0
    7.7787   -0.8842   23.9202 H   0  0  0  0  0  0  0  0  0  0  0  0
   10.0917   -0.3991   24.7167 H   0  0  0  0  0  0  0  0  0  0  0  0
  1  2  3  0
  2  3  1  0
  3  4  2  0
  4  5  1  0
  5  6  2  0
  6  7  1  0
  7  8  1  0
  8  9  1  0
  9 10  2  0
 10 11  1  0
 11 12  2  0
 12 13  1  0
 13 14  1  0
 13 15  2  0
 15 16  1  0
 12 17  1  0
 11 18  1  0
 10 19  1  0
  8 20  1  0
  8 21  1  0
  7 22  1  0
 22 23  2  0
 22 24  1  0
 24 25  1  0
 25 26  2  0
 26 27  1  0
 27 28  2  0
 28 29  1  0
 29 30  2  0
 30 31  1  0
 31 32  2  0
 32 33  1  0
 33 34  2  0
 33 35  1  0
 32 36  1  0
 31 37  1  0
 30 38  1  0
 28 39  1  0
 26 40  1  0
 24 41  1  0
 24 42  1  0
  6 43  1  0
 43 44  2  0
 44 45  1  0
 43 46  1  0
  5 47  1  0
  4 48  1  0
 44  3  1  0
 15  9  1  0
 34 25  1  0
 34 29  1  0
M  END
>  <cnnaffinities>  (38) 
[6.51682]

>  <score>  (38) 
6.51682

>  <index>  (38) 
37

>  <Smiles>  (38) 
N#Cc1c(c(c(N(C(c2c(c(c(c(Cl)c2[H])[H])[H])[H])([H])[H])C(=O)C(c2c(nc(c3c(c(c(c(c23)[H])[H])[H])[H])[H])[H])([H])[H])c(c1[H])[H])[H])[H]

>  <h>  (38) 
<NA>

>  <Training>  (38) 
True

>  <Success>  (38) 
True

>  <enamine_searched>  (38) 
False

>  <enamine_id>  (38) 
nan

$$$$

     RDKit          3D

 72 77  0  0  0  0  0  0  0  0999 V2000
    4.9347   -7.5853   20.1273 C   0  0  0  0  0  0  0  0  0  0  0  0
    5.4180   -6.2825   19.6270 N   0  0  0  0  0  4  0  0  0  0  0  0
    5.5184   -5.2424   20.6984 C   0  0  0  0  0  0  0  0  0  0  0  0
    6.6969   -5.4901   21.6545 C   0  0  0  0  0  0  0  0  0  0  0  0
    6.8810   -4.3739   22.5650 N   0  0  0  0  0  0  0  0  0  0  0  0
    7.9116   -3.3815   22.3403 C   0  0  0  0  0  0  0  0  0  0  0  0
    7.4282   -1.9400   22.6674 C   0  0  2  0  0  0  0  0  0  0  0  0
    6.3093   -1.5364   21.6642 C   0  0  0  0  0  0  0  0  0  0  0  0
    5.1973   -2.0187   21.5936 O   0  0  0  0  0  0  0  0  0  0  0  0
    6.7881   -0.5390   20.8357 N   0  0  0  0  0  0  0  0  0  0  0  0
    6.0527    0.0277   19.7698 C   0  0  0  0  0  0  0  0  0  0  0  0
    6.4307   -0.2094   18.4727 C   0  0  0  0  0  0  0  0  0  0  0  0
    5.7855    0.2713   17.3843 N   0  0  0  0  0  0  0  0  0  0  0  0
    4.7465    1.0415   17.5844 C   0  0  0  0  0  0  0  0  0  0  0  0
    4.2777    1.4159   18.8751 C   0  0  0  0  0  0  0  0  0  0  0  0
    3.1737    2.2941   19.0387 C   0  0  0  0  0  0  0  0  0  0  0  0
    2.7809    2.6796   20.2904 C   0  0  0  0  0  0  0  0  0  0  0  0
    3.4695    2.2091   21.4309 C   0  0  0  0  0  0  0  0  0  0  0  0
    4.5312    1.3467   21.2999 C   0  0  0  0  0  0  0  0  0  0  0  0
    4.9534    0.9159   20.0112 C   0  0  0  0  0  0  0  0  0  0  0  0
    5.0637    0.9910   22.1772 H   0  0  0  0  0  0  0  0  0  0  0  0
    3.1549    2.5367   22.4175 H   0  0  0  0  0  0  0  0  0  0  0  0
    1.9443    3.3621   20.4162 H   0  0  0  0  0  0  0  0  0  0  0  0
    2.6666    2.6632   18.1505 H   0  0  0  0  0  0  0  0  0  0  0  0
    4.2271    1.4192   16.7029 H   0  0  0  0  0  0  0  0  0  0  0  0
    7.2918   -0.8434   18.2665 H   0  0  0  0  0  0  0  0  0  0  0  0
    8.2200   -0.3726   20.9343 C   0  0  0  0  0  0  0  0  0  0  0  0
    8.5329   -0.8915   22.3473 C   0  0  2  0  0  0  0  0  0  0  0  0
    9.9933   -1.3473   22.4279 C   0  0  0  0  0  0  0  0  0  0  0  0
   10.8515   -0.2396   22.3645 O   0  0  0  0  0  0  0  0  0  0  0  0
   11.3123    0.0674   23.6430 C   0  0  0  0  0  0  0  0  0  0  0  0
   11.9687    1.3753   23.4621 C   0  0  0  0  0  0  0  0  0  0  0  0
   11.0040    2.3530   23.2722 C   0  0  0  0  0  0  0  0  0  0  0  0
   10.7718    4.0159   24.0036 S   0  0  0  0  0  0  0  0  0  0  0  0
   12.0279    4.6675   24.3680 O   0  0  0  0  0  0  0  0  0  0  0  0
    9.6137    3.9915   24.8958 O   0  0  0  0  0  0  0  0  0  0  0  0
   12.1188    1.3700   23.7735 C   0  0  0  0  0  0  0  0  0  0  0  0
   13.1302    1.1320   24.5767 H   0  0  0  0  0  0  0  0  0  0  0  0
   12.0426    1.5186   24.9859 H   0  0  0  0  0  0  0  0  0  0  0  0
   11.1739    2.4061   22.2063 H   0  0  0  0  0  0  0  0  0  0  0  0
   10.0180    1.9042   23.3260 H   0  0  0  0  0  0  0  0  0  0  0  0
   13.0836    1.6168   22.6833 H   0  0  0  0  0  0  0  0  0  0  0  0
   10.4555    0.1886   24.3116 H   0  0  0  0  0  0  0  0  0  0  0  0
   11.9204   -0.7728   24.0056 H   0  0  0  0  0  0  0  0  0  0  0  0
   10.2289   -2.0164   21.5855 H   0  0  0  0  0  0  0  0  0  0  0  0
   10.1936   -1.9035   23.3547 H   0  0  0  0  0  0  0  0  0  0  0  0
    8.4041   -0.0504   23.0348 H   0  0  0  0  0  0  0  0  0  0  0  0
    8.4960    0.6766   20.7966 H   0  0  0  0  0  0  0  0  0  0  0  0
    8.7605   -0.9612   20.1772 H   0  0  0  0  0  0  0  0  0  0  0  0
    6.9045   -1.9760   24.1025 C   0  0  0  0  0  0  0  0  0  0  0  0
    6.9388   -0.8797   24.9762 C   0  0  0  0  0  0  0  0  0  0  0  0
    6.4624   -1.0124   26.2718 C   0  0  0  0  0  0  0  0  0  0  0  0
    6.4412    0.3704   27.3335 Cl  0  0  0  0  0  0  0  0  0  0  0  0
    5.9582   -2.2172   26.7561 C   0  0  0  0  0  0  0  0  0  0  0  0
    5.8464   -3.2773   25.8795 C   0  0  0  0  0  0  0  0  0  0  0  0
    6.2834   -3.1489   24.5629 C   0  0  0  0  0  0  0  0  0  0  0  0
    6.0311   -4.2886   23.6242 C   0  0  0  0  0  0  0  0  0  0  0  0
    5.1187   -5.0840   23.7967 O   0  0  0  0  0  0  0  0  0  0  0  0
    5.4112   -4.2196   26.1961 H   0  0  0  0  0  0  0  0  0  0  0  0
    5.6433   -2.2987   27.7919 H   0  0  0  0  0  0  0  0  0  0  0  0
    7.3047    0.0891   24.6587 H   0  0  0  0  0  0  0  0  0  0  0  0
    8.7880   -3.6023   22.9631 H   0  0  0  0  0  0  0  0  0  0  0  0
    8.2254   -3.4206   21.2985 H   0  0  0  0  0  0  0  0  0  0  0  0
    7.6360   -5.6322   21.1044 H   0  0  0  0  0  0  0  0  0  0  0  0
    6.5289   -6.3854   22.2647 H   0  0  0  0  0  0  0  0  0  0  0  0
    4.5922   -5.2481   21.2732 H   0  0  0  0  0  0  0  0  0  0  0  0
    5.6109   -4.2725   20.2200 H   0  0  0  0  0  0  0  0  0  0  0  0
    6.3821   -6.4014   19.2351 H   0  0  0  0  0  0  0  0  0  0  0  0
    4.7822   -5.9854   18.8644 H   0  0  0  0  0  0  0  0  0  0  0  0
    4.2182   -7.4376   20.9357 H   0  0  0  0  0  0  0  0  0  0  0  0
    4.4559   -8.1320   19.3186 H   0  0  0  0  0  0  0  0  0  0  0  0
    5.7427   -8.1913   20.5301 H   0  0  0  0  0  0  0  0  0  0  0  0
  1  2  1  0
  2  3  1  0
  3  4  1  0
  4  5  1  0
  5  6  1  0
  7  6  1  6
  7  8  1  0
  8  9  2  0
  8 10  1  0
 10 11  1  0
 11 12  2  0
 12 13  1  0
 13 14  2  0
 14 15  1  0
 15 16  2  0
 16 17  1  0
 17 18  2  0
 18 19  1  0
 19 20  2  0
 19 21  1  0
 18 22  1  0
 17 23  1  0
 16 24  1  0
 14 25  1  0
 12 26  1  0
 10 27  1  0
 27 28  1  0
 28 29  1  0
 29 30  1  0
 30 31  1  0
 31 32  1  0
 32 33  1  0
 33 34  1  0
 34 35  2  0
 34 36  2  0
 34 37  1  0
 37 38  1  0
 37 39  1  0
 33 40  1  0
 33 41  1  0
 32 42  1  0
 31 43  1  0
 31 44  1  0
 29 45  1  0
 29 46  1  0
 28 47  1  1
 27 48  1  0
 27 49  1  0
  7 50  1  0
 50 51  2  0
 51 52  1  0
 52 53  1  0
 52 54  2  0
 54 55  1  0
 55 56  2  0
 56 57  1  0
 57 58  2  0
 55 59  1  0
 54 60  1  0
 51 61  1  0
  6 62  1  0
  6 63  1  0
  4 64  1  0
  4 65  1  0
  3 66  1  0
  3 67  1  0
  2 68  1  0
  2 69  1  0
  1 70  1  0
  1 71  1  0
  1 72  1  0
 57  5  1  0
 28  7  1  0
 37 32  1  0
 56 50  1  0
 20 11  1  0
 20 15  1  0
M  CHG  1   2   1
M  END
>  <cnnaffinities>  (39) 
[6.28043]

>  <score>  (39) 
6.28043

>  <index>  (39) 
38

>  <Smiles>  (39) 
C([N+](C(C(N1C([C@@]2(C(=O)N(c3c(nc(c4c(c(c(c(c34)[H])[H])[H])[H])[H])[H])C([C@@]2(C(OC(C2(C(S(=O)(=O)C2([H])[H])([H])[H])[H])([H])[H])([H])[H])[H])([H])[H])c2c(c(Cl)c(c(c2C1=O)[H])[H])[H])([H])[H])([H])[H])([H])[H])([H])[H])([H])([H])[H]

>  <h>  (39) 
<NA>

>  <Training>  (39) 
True

>  <Success>  (39) 
True

>  <enamine_searched>  (39) 
False

>  <enamine_id>  (39) 
nan

$$$$

     RDKit          3D

 60 64  0  0  0  0  0  0  0  0999 V2000
   11.4887   -0.5166   23.7663 C   0  0  0  0  0  0  0  0  0  0  0  0
   10.4967   -1.6508   23.5576 C   0  0  0  0  0  0  0  0  0  0  0  0
    9.8558   -1.5031   22.3010 O   0  0  0  0  0  0  0  0  0  0  0  0
    8.5914   -0.8851   22.3295 C   0  0  1  0  0  0  0  0  0  0  0  0
    8.3004   -0.3631   20.9296 C   0  0  0  0  0  0  0  0  0  0  0  0
    6.8583   -0.4541   20.8374 N   0  0  0  0  0  0  0  0  0  0  0  0
    6.1109    0.0850   19.7748 C   0  0  0  0  0  0  0  0  0  0  0  0
    6.4581   -0.2033   18.4788 C   0  0  0  0  0  0  0  0  0  0  0  0
    5.7900    0.2465   17.3915 N   0  0  0  0  0  0  0  0  0  0  0  0
    4.7527    1.0186   17.5995 C   0  0  0  0  0  0  0  0  0  0  0  0
    4.3028    1.4122   18.8933 C   0  0  0  0  0  0  0  0  0  0  0  0
    3.1869    2.2739   19.0539 C   0  0  0  0  0  0  0  0  0  0  0  0
    2.7826    2.6613   20.2998 C   0  0  0  0  0  0  0  0  0  0  0  0
    3.4760    2.2122   21.4443 C   0  0  0  0  0  0  0  0  0  0  0  0
    4.5597    1.3778   21.3178 C   0  0  0  0  0  0  0  0  0  0  0  0
    4.9944    0.9441   20.0291 C   0  0  0  0  0  0  0  0  0  0  0  0
    5.0830    1.0487   22.2106 H   0  0  0  0  0  0  0  0  0  0  0  0
    3.1531    2.5404   22.4273 H   0  0  0  0  0  0  0  0  0  0  0  0
    1.9341    3.3278   20.4171 H   0  0  0  0  0  0  0  0  0  0  0  0
    2.6780    2.6246   18.1610 H   0  0  0  0  0  0  0  0  0  0  0  0
    4.2138    1.3912   16.7268 H   0  0  0  0  0  0  0  0  0  0  0  0
    7.3023   -0.8643   18.2885 H   0  0  0  0  0  0  0  0  0  0  0  0
    6.3250   -1.3989   21.6841 C   0  0  0  0  0  0  0  0  0  0  0  0
    5.1949   -1.8366   21.6207 O   0  0  0  0  0  0  0  0  0  0  0  0
    7.4159   -1.8281   22.6889 C   0  0  1  0  0  0  0  0  0  0  0  0
    7.7943   -3.3121   22.4151 C   0  0  0  0  0  0  0  0  0  0  0  0
    6.7475   -4.2308   22.8036 N   0  0  0  0  0  0  0  0  0  0  0  0
    6.2423   -5.2080   21.8562 C   0  0  0  0  0  0  0  0  0  0  0  0
    7.1922   -6.3988   21.7288 C   0  0  0  0  0  0  0  0  0  0  0  0
    8.0921   -6.4607   20.9044 O   0  0  0  0  0  0  0  0  0  0  0  0
    6.9468   -7.3563   22.6588 N   0  0  0  0  0  0  0  0  0  0  0  0
    7.7598   -8.5440   22.7549 C   0  0  0  0  0  0  0  0  0  0  0  0
    8.6201   -8.4190   23.4303 H   0  0  0  0  0  0  0  0  0  0  0  0
    8.1369   -8.7348   21.7663 H   0  0  0  0  0  0  0  0  0  0  0  0
    7.1457   -9.4081   23.0235 H   0  0  0  0  0  0  0  0  0  0  0  0
    6.2057   -7.2135   23.3340 H   0  0  0  0  0  0  0  0  0  0  0  0
    5.2881   -5.5610   22.2606 H   0  0  0  0  0  0  0  0  0  0  0  0
    6.1008   -4.7245   20.8807 H   0  0  0  0  0  0  0  0  0  0  0  0
    6.1058   -4.0958   23.9946 C   0  0  0  0  0  0  0  0  0  0  0  0
    5.2952   -4.9249   24.3867 O   0  0  0  0  0  0  0  0  0  0  0  0
    6.3910   -2.8414   24.7492 C   0  0  0  0  0  0  0  0  0  0  0  0
    5.9793   -2.7885   26.0739 C   0  0  0  0  0  0  0  0  0  0  0  0
    5.9842   -1.5929   26.7609 C   0  0  0  0  0  0  0  0  0  0  0  0
    6.4003   -0.4431   26.0942 C   0  0  0  0  0  0  0  0  0  0  0  0
    6.2719    1.0942   26.9016 Cl  0  0  0  0  0  0  0  0  0  0  0  0
    6.8753   -0.4885   24.7953 C   0  0  0  0  0  0  0  0  0  0  0  0
    6.9148   -1.7135   24.1136 C   0  0  0  0  0  0  0  0  0  0  0  0
    7.1673    0.4360   24.3090 H   0  0  0  0  0  0  0  0  0  0  0  0
    5.6151   -1.5212   27.7761 H   0  0  0  0  0  0  0  0  0  0  0  0
    5.6251   -3.7056   26.5229 H   0  0  0  0  0  0  0  0  0  0  0  0
    8.7305   -3.5494   22.9316 H   0  0  0  0  0  0  0  0  0  0  0  0
    7.9727   -3.4441   21.3544 H   0  0  0  0  0  0  0  0  0  0  0  0
    8.6268    0.6700   20.7974 H   0  0  0  0  0  0  0  0  0  0  0  0
    8.8268   -1.0031   20.2135 H   0  0  0  0  0  0  0  0  0  0  0  0
    8.5896   -0.0496   23.0370 H   0  0  0  0  0  0  0  0  0  0  0  0
    9.7536   -1.7040   24.3745 H   0  0  0  0  0  0  0  0  0  0  0  0
   11.0217   -2.6145   23.5252 H   0  0  0  0  0  0  0  0  0  0  0  0
   12.2254   -0.5251   22.9564 H   0  0  0  0  0  0  0  0  0  0  0  0
   12.0132   -0.6255   24.7208 H   0  0  0  0  0  0  0  0  0  0  0  0
   10.9771    0.4520   23.7547 H   0  0  0  0  0  0  0  0  0  0  0  0
  1  2  1  0
  2  3  1  0
  3  4  1  0
  4  5  1  0
  5  6  1  0
  6  7  1  0
  7  8  2  0
  8  9  1  0
  9 10  2  0
 10 11  1  0
 11 12  2  0
 12 13  1  0
 13 14  2  0
 14 15  1  0
 15 16  2  0
 15 17  1  0
 14 18  1  0
 13 19  1  0
 12 20  1  0
 10 21  1  0
  8 22  1  0
  6 23  1  0
 23 24  2  0
 23 25  1  0
 25 26  1  6
 26 27  1  0
 27 28  1  0
 28 29  1  0
 29 30  2  0
 29 31  1  0
 31 32  1  0
 32 33  1  0
 32 34  1  0
 32 35  1  0
 31 36  1  0
 28 37  1  0
 28 38  1  0
 27 39  1  0
 39 40  2  0
 39 41  1  0
 41 42  2  0
 42 43  1  0
 43 44  2  0
 44 45  1  0
 44 46  1  0
 46 47  2  0
 46 48  1  0
 43 49  1  0
 42 50  1  0
 26 51  1  0
 26 52  1  0
  5 53  1  0
  5 54  1  0
  4 55  1  1
  2 56  1  0
  2 57  1  0
  1 58  1  0
  1 59  1  0
  1 60  1  0
 25  4  1  0
 47 41  1  0
 16  7  1  0
 47 25  1  0
 16 11  1  0
M  END
>  <cnnaffinities>  (40) 
[6.51745]

>  <score>  (40) 
6.51745

>  <index>  (40) 
39

>  <Smiles>  (40) 
C(C(O[C@]1(C(N(c2c(nc(c3c(c(c(c(c23)[H])[H])[H])[H])[H])[H])C(=O)[C@]21C(N(C(C(=O)N(C([H])([H])[H])[H])([H])[H])C(=O)c1c(c(c(Cl)c(c21)[H])[H])[H])([H])[H])([H])[H])[H])([H])[H])([H])([H])[H]

>  <h>  (40) 
<NA>

>  <Training>  (40) 
True

>  <Success>  (40) 
True

>  <enamine_searched>  (40) 
False

>  <enamine_id>  (40) 
nan

$$$$

     RDKit          3D

 57 61  0  0  0  0  0  0  0  0999 V2000
    7.7491   -8.4825   22.8236 C   0  0  0  0  0  0  0  0  0  0  0  0
    6.8705   -7.3573   22.5949 N   0  0  0  0  0  0  0  0  0  0  0  0
    7.1770   -6.4152   21.6698 C   0  0  0  0  0  0  0  0  0  0  0  0
    8.1374   -6.4999   20.9254 O   0  0  0  0  0  0  0  0  0  0  0  0
    6.2402   -5.2096   21.6713 C   0  0  0  0  0  0  0  0  0  0  0  0
    6.7010   -4.2251   22.6350 N   0  0  0  0  0  0  0  0  0  0  0  0
    7.8103   -3.3321   22.3404 C   0  0  0  0  0  0  0  0  0  0  0  0
    7.4441   -1.8557   22.6707 C   0  0  2  0  0  0  0  0  0  0  0  0
    6.3414   -1.4037   21.6868 C   0  0  0  0  0  0  0  0  0  0  0  0
    5.2143   -1.8494   21.6224 O   0  0  0  0  0  0  0  0  0  0  0  0
    6.8616   -0.4325   20.8538 N   0  0  0  0  0  0  0  0  0  0  0  0
    6.1162    0.0981   19.7804 C   0  0  0  0  0  0  0  0  0  0  0  0
    6.4556   -0.2003   18.4858 C   0  0  0  0  0  0  0  0  0  0  0  0
    5.7878    0.2450   17.3958 N   0  0  0  0  0  0  0  0  0  0  0  0
    4.7542    1.0231   17.5989 C   0  0  0  0  0  0  0  0  0  0  0  0
    4.3022    1.4188   18.8883 C   0  0  0  0  0  0  0  0  0  0  0  0
    3.1853    2.2773   19.0485 C   0  0  0  0  0  0  0  0  0  0  0  0
    2.7838    2.6596   20.2974 C   0  0  0  0  0  0  0  0  0  0  0  0
    3.4793    2.2101   21.4401 C   0  0  0  0  0  0  0  0  0  0  0  0
    4.5625    1.3792   21.3127 C   0  0  0  0  0  0  0  0  0  0  0  0
    4.9966    0.9540   20.0248 C   0  0  0  0  0  0  0  0  0  0  0  0
    5.0873    1.0404   22.1998 H   0  0  0  0  0  0  0  0  0  0  0  0
    3.1549    2.5364   22.4231 H   0  0  0  0  0  0  0  0  0  0  0  0
    1.9376    3.3280   20.4170 H   0  0  0  0  0  0  0  0  0  0  0  0
    2.6716    2.6296   18.1586 H   0  0  0  0  0  0  0  0  0  0  0  0
    4.2155    1.3882   16.7237 H   0  0  0  0  0  0  0  0  0  0  0  0
    7.3000   -0.8603   18.2922 H   0  0  0  0  0  0  0  0  0  0  0  0
    8.3088   -0.3386   20.9383 C   0  0  0  0  0  0  0  0  0  0  0  0
    8.6091   -0.8826   22.3450 C   0  0  2  0  0  0  0  0  0  0  0  0
   10.0207   -1.4888   22.4554 C   0  0  0  0  0  0  0  0  0  0  0  0
   11.0503   -0.4531   22.3080 C   0  0  0  0  0  0  0  0  0  0  0  0
   11.8334    0.3913   22.2050 N   0  0  0  0  0  0  0  0  0  0  0  0
   10.1822   -2.2475   21.6802 H   0  0  0  0  0  0  0  0  0  0  0  0
   10.1567   -1.9717   23.4293 H   0  0  0  0  0  0  0  0  0  0  0  0
    8.5680   -0.0382   23.0383 H   0  0  0  0  0  0  0  0  0  0  0  0
    8.8132   -0.9383   20.1635 H   0  0  0  0  0  0  0  0  0  0  0  0
    8.6381    0.6979   20.8215 H   0  0  0  0  0  0  0  0  0  0  0  0
    6.9214   -1.8185   24.0983 C   0  0  0  0  0  0  0  0  0  0  0  0
    6.8899   -0.6363   24.8468 C   0  0  0  0  0  0  0  0  0  0  0  0
    6.4079   -0.6618   26.1444 C   0  0  0  0  0  0  0  0  0  0  0  0
    6.2713    0.8268   27.0278 Cl  0  0  0  0  0  0  0  0  0  0  0  0
    5.9827   -1.8371   26.7622 C   0  0  0  0  0  0  0  0  0  0  0  0
    5.9510   -2.9867   26.0023 C   0  0  0  0  0  0  0  0  0  0  0  0
    6.3402   -2.9613   24.6652 C   0  0  0  0  0  0  0  0  0  0  0  0
    6.0194   -4.1416   23.8088 C   0  0  0  0  0  0  0  0  0  0  0  0
    5.1625   -4.9684   24.1178 O   0  0  0  0  0  0  0  0  0  0  0  0
    5.5954   -3.9176   26.4247 H   0  0  0  0  0  0  0  0  0  0  0  0
    5.6341   -1.8282   27.7910 H   0  0  0  0  0  0  0  0  0  0  0  0
    7.2107    0.3117   24.4263 H   0  0  0  0  0  0  0  0  0  0  0  0
    8.7101   -3.6244   22.9040 H   0  0  0  0  0  0  0  0  0  0  0  0
    8.0337   -3.4282   21.2815 H   0  0  0  0  0  0  0  0  0  0  0  0
    5.2429   -5.5270   21.9815 H   0  0  0  0  0  0  0  0  0  0  0  0
    6.1505   -4.7466   20.6823 H   0  0  0  0  0  0  0  0  0  0  0  0
    6.0832   -7.2068   23.2081 H   0  0  0  0  0  0  0  0  0  0  0  0
    7.1521   -9.3020   23.2303 H   0  0  0  0  0  0  0  0  0  0  0  0
    8.1317   -8.7916   21.8588 H   0  0  0  0  0  0  0  0  0  0  0  0
    8.5942   -8.2265   23.4869 H   0  0  0  0  0  0  0  0  0  0  0  0
  1  2  1  0
  2  3  1  0
  3  4  2  0
  3  5  1  0
  5  6  1  0
  6  7  1  0
  8  7  1  6
  8  9  1  0
  9 10  2  0
  9 11  1  0
 11 12  1  0
 12 13  2  0
 13 14  1  0
 14 15  2  0
 15 16  1  0
 16 17  2  0
 17 18  1  0
 18 19  2  0
 19 20  1  0
 20 21  2  0
 20 22  1  0
 19 23  1  0
 18 24  1  0
 17 25  1  0
 15 26  1  0
 13 27  1  0
 11 28  1  0
 28 29  1  0
 29 30  1  0
 30 31  1  0
 31 32  3  0
 30 33  1  0
 30 34  1  0
 29 35  1  1
 28 36  1  0
 28 37  1  0
  8 38  1  0
 38 39  2  0
 39 40  1  0
 40 41  1  0
 40 42  2  0
 42 43  1  0
 43 44  2  0
 44 45  1  0
 45 46  2  0
 43 47  1  0
 42 48  1  0
 39 49  1  0
  7 50  1  0
  7 51  1  0
  5 52  1  0
  5 53  1  0
  2 54  1  0
  1 55  1  0
  1 56  1  0
  1 57  1  0
 45  6  1  0
 29  8  1  0
 44 38  1  0
 21 12  1  0
 21 16  1  0
M  END
>  <cnnaffinities>  (41) 
[6.99713, 6.33368]

>  <score>  (41) 
6.99713

>  <index>  (41) 
40

>  <Smiles>  (41) 
C(N(C(=O)C(N1C([C@@]2(C(=O)N(c3c(nc(c4c(c(c(c(c34)[H])[H])[H])[H])[H])[H])C([C@@]2(C(C#N)([H])[H])[H])([H])[H])c2c(c(Cl)c(c(c2C1=O)[H])[H])[H])([H])[H])([H])[H])[H])([H])([H])[H]

>  <h>  (41) 
<NA>

>  <Training>  (41) 
True

>  <Success>  (41) 
True

>  <enamine_searched>  (41) 
False

>  <enamine_id>  (41) 
nan

$$$$

     RDKit          3D

 68 73  0  0  0  0  0  0  0  0999 V2000
    7.1283   -2.4699   23.4495 C   0  0  0  0  0  0  0  0  0  0  0  0
    8.0076   -1.7885   22.3942 C   0  0  1  0  0  0  0  0  0  0  0  0
    7.3036   -1.7222   21.0207 C   0  0  0  0  0  0  0  0  0  0  0  0
    6.9423   -0.3307   20.8569 N   0  0  0  0  0  0  0  0  0  0  0  0
    6.1481    0.1282   19.7844 C   0  0  0  0  0  0  0  0  0  0  0  0
    6.4447   -0.2268   18.4917 C   0  0  0  0  0  0  0  0  0  0  0  0
    5.7711    0.2184   17.4060 N   0  0  0  0  0  0  0  0  0  0  0  0
    4.7549    1.0188   17.6080 C   0  0  0  0  0  0  0  0  0  0  0  0
    4.3090    1.4235   18.8972 C   0  0  0  0  0  0  0  0  0  0  0  0
    3.1873    2.2798   19.0611 C   0  0  0  0  0  0  0  0  0  0  0  0
    2.7549    2.6271   20.3119 C   0  0  0  0  0  0  0  0  0  0  0  0
    3.4221    2.1315   21.4558 C   0  0  0  0  0  0  0  0  0  0  0  0
    4.5142    1.3111   21.3226 C   0  0  0  0  0  0  0  0  0  0  0  0
    5.0056    0.9532   20.0318 C   0  0  0  0  0  0  0  0  0  0  0  0
    5.0120    0.9303   22.2090 H   0  0  0  0  0  0  0  0  0  0  0  0
    3.0749    2.4142   22.4473 H   0  0  0  0  0  0  0  0  0  0  0  0
    1.9020    3.2884   20.4370 H   0  0  0  0  0  0  0  0  0  0  0  0
    2.6882    2.6521   18.1705 H   0  0  0  0  0  0  0  0  0  0  0  0
    4.2220    1.3798   16.7281 H   0  0  0  0  0  0  0  0  0  0  0  0
    7.2928   -0.8785   18.2845 H   0  0  0  0  0  0  0  0  0  0  0  0
    7.6423    0.5158   21.6829 C   0  0  0  0  0  0  0  0  0  0  0  0
    7.6265    1.7314   21.6130 O   0  0  0  0  0  0  0  0  0  0  0  0
    8.4468   -0.3240   22.6971 C   0  0  1  0  0  0  0  0  0  0  0  0
    8.1288    0.1263   24.1367 C   0  0  0  0  0  0  0  0  0  0  0  0
    8.6148    1.4604   24.4210 N   0  0  0  0  0  0  0  0  0  0  0  0
    7.7891    2.3257   25.2404 C   0  0  0  0  0  0  0  0  0  0  0  0
    6.7582    3.0967   24.4256 C   0  0  0  0  0  0  0  0  0  0  0  0
    7.3749    4.1735   23.5870 N   0  0  0  0  0  4  0  0  0  0  0  0
    7.9129    5.3008   24.4551 C   0  0  0  0  0  0  0  0  0  0  0  0
    8.0224    6.6257   23.7121 C   0  0  0  0  0  0  0  0  0  0  0  0
    6.4032    7.2600   23.2612 S   0  0  0  0  0  0  0  0  0  0  0  0
    5.8191    7.8954   24.4400 O   0  0  0  0  0  0  0  0  0  0  0  0
    6.5476    8.0173   22.0204 O   0  0  0  0  0  0  0  0  0  0  0  0
    5.4860    5.7516   22.9265 C   0  0  0  0  0  0  0  0  0  0  0  0
    6.4338    4.6381   22.4884 C   0  0  0  0  0  0  0  0  0  0  0  0
    5.8589    3.7732   22.1490 H   0  0  0  0  0  0  0  0  0  0  0  0
    7.0490    4.9681   21.6478 H   0  0  0  0  0  0  0  0  0  0  0  0
    4.7727    6.0233   22.1438 H   0  0  0  0  0  0  0  0  0  0  0  0
    4.9433    5.5042   23.8457 H   0  0  0  0  0  0  0  0  0  0  0  0
    8.6037    6.5440   22.7866 H   0  0  0  0  0  0  0  0  0  0  0  0
    8.4468    7.4112   24.3430 H   0  0  0  0  0  0  0  0  0  0  0  0
    7.2597    5.4162   25.3273 H   0  0  0  0  0  0  0  0  0  0  0  0
    8.9064    5.0068   24.7947 H   0  0  0  0  0  0  0  0  0  0  0  0
    8.1830    3.7567   23.0948 H   0  0  0  0  0  0  0  0  0  0  0  0
    6.2336    2.4095   23.7527 H   0  0  0  0  0  0  0  0  0  0  0  0
    6.0199    3.5360   25.1059 H   0  0  0  0  0  0  0  0  0  0  0  0
    8.4485    2.9996   25.7912 H   0  0  0  0  0  0  0  0  0  0  0  0
    7.2732    1.6889   25.9641 H   0  0  0  0  0  0  0  0  0  0  0  0
    9.8090    1.9187   23.9657 C   0  0  0  0  0  0  0  0  0  0  0  0
   10.1966    3.0631   24.1872 O   0  0  0  0  0  0  0  0  0  0  0  0
   10.5998    0.9581   23.1313 C   0  0  0  0  0  0  0  0  0  0  0  0
   11.9517    1.2144   22.8979 C   0  0  0  0  0  0  0  0  0  0  0  0
   12.6923    0.3693   22.0843 C   0  0  0  0  0  0  0  0  0  0  0  0
   12.0323   -0.6979   21.4647 C   0  0  0  0  0  0  0  0  0  0  0  0
   12.7469   -1.6044   20.1359 Cl  0  0  0  0  0  0  0  0  0  0  0  0
   10.6742   -0.8953   21.6182 C   0  0  0  0  0  0  0  0  0  0  0  0
    9.9413   -0.1035   22.4997 C   0  0  0  0  0  0  0  0  0  0  0  0
   10.2113   -1.6240   20.9620 H   0  0  0  0  0  0  0  0  0  0  0  0
   13.7319    0.5749   21.8596 H   0  0  0  0  0  0  0  0  0  0  0  0
   12.3762    2.1079   23.3521 H   0  0  0  0  0  0  0  0  0  0  0  0
    8.5980   -0.5970   24.8200 H   0  0  0  0  0  0  0  0  0  0  0  0
    7.0473    0.1402   24.2915 H   0  0  0  0  0  0  0  0  0  0  0  0
    6.4040   -2.3457   20.9813 H   0  0  0  0  0  0  0  0  0  0  0  0
    7.9767   -2.0316   20.2129 H   0  0  0  0  0  0  0  0  0  0  0  0
    8.9045   -2.4092   22.3166 H   0  0  0  0  0  0  0  0  0  0  0  0
    7.6497   -2.5513   24.4092 H   0  0  0  0  0  0  0  0  0  0  0  0
    6.8940   -3.4904   23.1275 H   0  0  0  0  0  0  0  0  0  0  0  0
    6.1830   -1.9368   23.6059 H   0  0  0  0  0  0  0  0  0  0  0  0
  1  2  1  0
  2  3  1  0
  3  4  1  0
  4  5  1  0
  5  6  2  0
  6  7  1  0
  7  8  2  0
  8  9  1  0
  9 10  2  0
 10 11  1  0
 11 12  2  0
 12 13  1  0
 13 14  2  0
 13 15  1  0
 12 16  1  0
 11 17  1  0
 10 18  1  0
  8 19  1  0
  6 20  1  0
  4 21  1  0
 21 22  2  0
 21 23  1  0
 23 24  1  1
 24 25  1  0
 25 26  1  0
 26 27  1  0
 27 28  1  0
 28 29  1  0
 29 30  1  0
 30 31  1  0
 31 32  2  0
 31 33  2  0
 31 34  1  0
 34 35  1  0
 35 36  1  0
 35 37  1  0
 34 38  1  0
 34 39  1  0
 30 40  1  0
 30 41  1  0
 29 42  1  0
 29 43  1  0
 28 44  1  0
 27 45  1  0
 27 46  1  0
 26 47  1  0
 26 48  1  0
 25 49  1  0
 49 50  2  0
 49 51  1  0
 51 52  2  0
 52 53  1  0
 53 54  2  0
 54 55  1  0
 54 56  1  0
 56 57  2  0
 56 58  1  0
 53 59  1  0
 52 60  1  0
 24 61  1  0
 24 62  1  0
  3 63  1  0
  3 64  1  0
  2 65  1  6
  1 66  1  0
  1 67  1  0
  1 68  1  0
 23  2  1  0
 35 28  1  0
 57 51  1  0
 14  5  1  0
 57 23  1  0
 14  9  1  0
M  CHG  1  28   1
M  END
>  <cnnaffinities>  (42) 
[6.49413]

>  <score>  (42) 
6.49413

>  <index>  (42) 
41

>  <Smiles>  (42) 
C([C@]1(C(N(c2c(nc(c3c(c(c(c(c23)[H])[H])[H])[H])[H])[H])C(=O)[C@]21C(N(C(C([N+]1(C(C(S(=O)(=O)C(C1([H])[H])([H])[H])([H])[H])([H])[H])[H])([H])[H])([H])[H])C(=O)c1c(c(c(Cl)c(c21)[H])[H])[H])([H])[H])([H])[H])[H])([H])([H])[H]

>  <h>  (42) 
<NA>

>  <Training>  (42) 
True

>  <Success>  (42) 
True

>  <enamine_searched>  (42) 
False

>  <enamine_id>  (42) 
nan

$$$$

     RDKit          3D

 60 65  0  0  0  0  0  0  0  0999 V2000
    6.5473    4.3262   21.3178 C   0  0  0  0  0  0  0  0  0  0  0  0
    7.5311    3.9711   22.3273 N   0  0  0  0  0  0  0  0  0  0  0  0
    7.0644    3.3280   23.4374 C   0  0  0  0  0  0  0  0  0  0  0  0
    5.8750    3.1001   23.5920 O   0  0  0  0  0  0  0  0  0  0  0  0
    8.0810    2.8569   24.4749 C   0  0  0  0  0  0  0  0  0  0  0  0
    8.7561    1.6637   24.0124 N   0  0  0  0  0  0  0  0  0  0  0  0
    8.0106    0.4191   23.8673 C   0  0  0  0  0  0  0  0  0  0  0  0
    8.4191   -0.3751   22.5988 C   0  0  2  0  0  0  0  0  0  0  0  0
    7.9124    0.2978   21.3057 C   0  0  0  0  0  0  0  0  0  0  0  0
    8.3594    1.2899   20.7634 O   0  0  0  0  0  0  0  0  0  0  0  0
    6.8610   -0.4425   20.8210 N   0  0  0  0  0  0  0  0  0  0  0  0
    6.0930    0.0714   19.7544 C   0  0  0  0  0  0  0  0  0  0  0  0
    6.4578   -0.2022   18.4620 C   0  0  0  0  0  0  0  0  0  0  0  0
    5.7880    0.2499   17.3788 N   0  0  0  0  0  0  0  0  0  0  0  0
    4.7484    1.0167   17.5930 C   0  0  0  0  0  0  0  0  0  0  0  0
    4.2915    1.4104   18.8825 C   0  0  0  0  0  0  0  0  0  0  0  0
    3.1821    2.2762   19.0602 C   0  0  0  0  0  0  0  0  0  0  0  0
    2.7836    2.6452   20.3143 C   0  0  0  0  0  0  0  0  0  0  0  0
    3.4776    2.1779   21.4528 C   0  0  0  0  0  0  0  0  0  0  0  0
    4.5549    1.3332   21.3086 C   0  0  0  0  0  0  0  0  0  0  0  0
    4.9831    0.9247   20.0139 C   0  0  0  0  0  0  0  0  0  0  0  0
    5.1144    1.0266   22.1876 H   0  0  0  0  0  0  0  0  0  0  0  0
    3.1785    2.5056   22.4427 H   0  0  0  0  0  0  0  0  0  0  0  0
    1.9300    3.3050   20.4417 H   0  0  0  0  0  0  0  0  0  0  0  0
    2.6718    2.6398   18.1732 H   0  0  0  0  0  0  0  0  0  0  0  0
    4.2111    1.3751   16.7162 H   0  0  0  0  0  0  0  0  0  0  0  0
    7.3335   -0.8193   18.2761 H   0  0  0  0  0  0  0  0  0  0  0  0
    6.5093   -1.5960   21.6212 C   0  0  0  0  0  0  0  0  0  0  0  0
    7.7379   -1.7678   22.5210 C   0  0  2  0  0  0  0  0  0  0  0  0
    7.4405   -2.4869   23.8452 C   0  0  0  0  0  0  0  0  0  0  0  0
    6.9092   -3.8508   23.5466 C   0  0  0  0  0  0  0  0  0  0  0  0
    7.6558   -4.9218   23.3226 N   0  0  0  0  0  0  0  0  0  0  0  0
    6.7890   -5.8788   23.0010 N   0  0  0  0  0  0  0  0  0  0  0  0
    5.5745   -5.3949   23.0225 N   0  0  0  0  0  2  0  0  0  0  0  0
    5.6189   -4.1112   23.3674 N   0  0  0  0  0  0  0  0  0  0  0  0
    6.6824   -1.9471   24.4219 H   0  0  0  0  0  0  0  0  0  0  0  0
    8.3597   -2.5747   24.4339 H   0  0  0  0  0  0  0  0  0  0  0  0
    8.4245   -2.4247   21.9806 H   0  0  0  0  0  0  0  0  0  0  0  0
    5.5926   -1.4263   22.2056 H   0  0  0  0  0  0  0  0  0  0  0  0
    6.3400   -2.4921   21.0136 H   0  0  0  0  0  0  0  0  0  0  0  0
    9.9223   -0.4278   22.5280 C   0  0  0  0  0  0  0  0  0  0  0  0
   10.5458   -1.3309   21.6617 C   0  0  0  0  0  0  0  0  0  0  0  0
   11.9089   -1.2806   21.4629 C   0  0  0  0  0  0  0  0  0  0  0  0
   12.5621   -2.3345   20.2369 Cl  0  0  0  0  0  0  0  0  0  0  0  0
   12.7104   -0.3704   22.1612 C   0  0  0  0  0  0  0  0  0  0  0  0
   12.0971    0.5038   23.0292 C   0  0  0  0  0  0  0  0  0  0  0  0
   10.7111    0.5431   23.1449 C   0  0  0  0  0  0  0  0  0  0  0  0
   10.1023    1.7352   23.8034 C   0  0  0  0  0  0  0  0  0  0  0  0
   10.7735    2.7192   24.1028 O   0  0  0  0  0  0  0  0  0  0  0  0
   12.6815    1.2142   23.5984 H   0  0  0  0  0  0  0  0  0  0  0  0
   13.7784   -0.2826   21.9861 H   0  0  0  0  0  0  0  0  0  0  0  0
    9.9868   -2.0452   21.0667 H   0  0  0  0  0  0  0  0  0  0  0  0
    8.1893   -0.2211   24.7424 H   0  0  0  0  0  0  0  0  0  0  0  0
    6.9422    0.6525   23.8262 H   0  0  0  0  0  0  0  0  0  0  0  0
    7.5435    2.6577   25.4038 H   0  0  0  0  0  0  0  0  0  0  0  0
    8.8610    3.5936   24.6782 H   0  0  0  0  0  0  0  0  0  0  0  0
    8.4669    3.8023   21.9797 H   0  0  0  0  0  0  0  0  0  0  0  0
    7.0277    4.8447   20.4822 H   0  0  0  0  0  0  0  0  0  0  0  0
    6.0283    3.4278   20.9599 H   0  0  0  0  0  0  0  0  0  0  0  0
    5.7916    4.9725   21.7715 H   0  0  0  0  0  0  0  0  0  0  0  0
  1  2  1  0
  2  3  1  0
  3  4  2  0
  3  5  1  0
  5  6  1  0
  6  7  1  0
  8  7  1  1
  8  9  1  0
  9 10  2  0
  9 11  1  0
 11 12  1  0
 12 13  2  0
 13 14  1  0
 14 15  2  0
 15 16  1  0
 16 17  2  0
 17 18  1  0
 18 19  2  0
 19 20  1  0
 20 21  2  0
 20 22  1  0
 19 23  1  0
 18 24  1  0
 17 25  1  0
 15 26  1  0
 13 27  1  0
 11 28  1  0
 28 29  1  0
 29 30  1  0
 30 31  1  0
 31 32  1  0
 32 33  2  0
 33 34  1  0
 34 35  1  0
 30 36  1  0
 30 37  1  0
 29 38  1  6
 28 39  1  0
 28 40  1  0
  8 41  1  0
 41 42  2  0
 42 43  1  0
 43 44  1  0
 43 45  2  0
 45 46  1  0
 46 47  2  0
 47 48  1  0
 48 49  2  0
 46 50  1  0
 45 51  1  0
 42 52  1  0
  7 53  1  0
  7 54  1  0
  5 55  1  0
  5 56  1  0
  2 57  1  0
  1 58  1  0
  1 59  1  0
  1 60  1  0
 48  6  1  0
 29  8  1  0
 35 31  2  0
 47 41  1  0
 21 12  1  0
 21 16  1  0
M  CHG  1  34  -1
M  END
>  <cnnaffinities>  (43) 
[6.57899, 6.58782, 6.57355, 6.57479]

>  <score>  (43) 
6.57899

>  <index>  (43) 
42

>  <Smiles>  (43) 
C(N(C(=O)C(N1C([C@@]2(C(=O)N(c3c(nc(c4c(c(c(c(c34)[H])[H])[H])[H])[H])[H])C([C@@]2(C(c2nn[n-]n2)([H])[H])[H])([H])[H])c2c(c(Cl)c(c(c2C1=O)[H])[H])[H])([H])[H])([H])[H])[H])([H])([H])[H]

>  <h>  (43) 
<NA>

>  <Training>  (43) 
True

>  <Success>  (43) 
True

>  <enamine_searched>  (43) 
False

>  <enamine_id>  (43) 
nan

$$$$

     RDKit          3D

 62 67  0  0  0  0  0  0  0  0999 V2000
    6.5198    4.2505   28.0093 C   0  0  0  0  0  0  0  0  0  0  0  0
    5.2475    3.9203   27.2284 C   0  0  0  0  0  0  0  0  0  0  0  0
    5.4190    3.9573   25.7758 N   0  0  0  0  0  0  0  0  0  0  0  0
    5.1690    5.1114   25.1343 N   0  0  0  0  0  0  0  0  0  0  0  0
    5.4838    4.8857   23.8651 C   0  0  0  0  0  0  0  0  0  0  0  0
    5.9591    3.5733   23.6769 C   0  0  0  0  0  0  0  0  0  0  0  0
    5.9171    3.0116   24.9350 C   0  0  0  0  0  0  0  0  0  0  0  0
    6.3612    1.6582   25.3887 C   0  0  0  0  0  0  0  0  0  0  0  0
    7.4469    1.1492   24.5760 N   0  0  0  0  0  0  0  0  0  0  0  0
    7.3441   -0.2043   24.0584 C   0  0  0  0  0  0  0  0  0  0  0  0
    8.2040   -0.3958   22.7862 C   0  0  2  0  0  0  0  0  0  0  0  0
    7.6022    0.4629   21.6575 C   0  0  0  0  0  0  0  0  0  0  0  0
    7.7046    1.6661   21.5143 O   0  0  0  0  0  0  0  0  0  0  0  0
    6.9088   -0.3711   20.8216 N   0  0  0  0  0  0  0  0  0  0  0  0
    6.1224    0.1193   19.7648 C   0  0  0  0  0  0  0  0  0  0  0  0
    6.4314   -0.2274   18.4757 C   0  0  0  0  0  0  0  0  0  0  0  0
    5.7645    0.2181   17.3889 N   0  0  0  0  0  0  0  0  0  0  0  0
    4.7510    1.0213   17.6008 C   0  0  0  0  0  0  0  0  0  0  0  0
    4.3131    1.4347   18.8901 C   0  0  0  0  0  0  0  0  0  0  0  0
    3.1967    2.2928   19.0562 C   0  0  0  0  0  0  0  0  0  0  0  0
    2.7722    2.6462   20.3051 C   0  0  0  0  0  0  0  0  0  0  0  0
    3.4409    2.1576   21.4507 C   0  0  0  0  0  0  0  0  0  0  0  0
    4.5287    1.3338   21.3187 C   0  0  0  0  0  0  0  0  0  0  0  0
    5.0027    0.9634   20.0257 C   0  0  0  0  0  0  0  0  0  0  0  0
    5.0273    0.9628   22.2105 H   0  0  0  0  0  0  0  0  0  0  0  0
    3.0768    2.4308   22.4366 H   0  0  0  0  0  0  0  0  0  0  0  0
    1.9118    3.2959   20.4252 H   0  0  0  0  0  0  0  0  0  0  0  0
    2.6934    2.6528   18.1631 H   0  0  0  0  0  0  0  0  0  0  0  0
    4.2122    1.3802   16.7253 H   0  0  0  0  0  0  0  0  0  0  0  0
    7.2832   -0.8838   18.3018 H   0  0  0  0  0  0  0  0  0  0  0  0
    6.8907   -1.7569   21.2398 C   0  0  0  0  0  0  0  0  0  0  0  0
    8.0668   -1.8398   22.2209 C   0  0  2  0  0  0  0  0  0  0  0  0
    7.9243   -2.9583   23.2470 C   0  0  0  0  0  0  0  0  0  0  0  0
    7.9488   -3.9333   22.7483 H   0  0  0  0  0  0  0  0  0  0  0  0
    8.7393   -2.9198   23.9795 H   0  0  0  0  0  0  0  0  0  0  0  0
    6.9719   -2.8733   23.7862 H   0  0  0  0  0  0  0  0  0  0  0  0
    8.9525   -2.0470   21.6159 H   0  0  0  0  0  0  0  0  0  0  0  0
    7.0204   -2.3986   20.3705 H   0  0  0  0  0  0  0  0  0  0  0  0
    5.9369   -2.0263   21.7218 H   0  0  0  0  0  0  0  0  0  0  0  0
    9.6001    0.1075   23.0455 C   0  0  0  0  0  0  0  0  0  0  0  0
   10.6902   -0.3897   22.3369 C   0  0  0  0  0  0  0  0  0  0  0  0
   11.9363    0.1422   22.5690 C   0  0  0  0  0  0  0  0  0  0  0  0
   12.9741   -0.3637   21.8979 F   0  0  0  0  0  0  0  0  0  0  0  0
   12.1532    1.1942   23.4534 C   0  0  0  0  0  0  0  0  0  0  0  0
   11.0540    1.7762   24.0479 C   0  0  0  0  0  0  0  0  0  0  0  0
    9.7823    1.2246   23.8746 C   0  0  0  0  0  0  0  0  0  0  0  0
    8.6296    1.8386   24.6103 C   0  0  0  0  0  0  0  0  0  0  0  0
    8.7652    2.8757   25.2512 O   0  0  0  0  0  0  0  0  0  0  0  0
   11.1458    2.6879   24.6331 H   0  0  0  0  0  0  0  0  0  0  0  0
   13.1750    1.4945   23.6572 H   0  0  0  0  0  0  0  0  0  0  0  0
   10.5830   -1.1668   21.5892 H   0  0  0  0  0  0  0  0  0  0  0  0
    7.6555   -0.9303   24.8232 H   0  0  0  0  0  0  0  0  0  0  0  0
    6.2916   -0.3980   23.8043 H   0  0  0  0  0  0  0  0  0  0  0  0
    5.5362    0.9466   25.3039 H   0  0  0  0  0  0  0  0  0  0  0  0
    6.6526    1.6757   26.4474 H   0  0  0  0  0  0  0  0  0  0  0  0
    6.3339    3.1206   22.7618 H   0  0  0  0  0  0  0  0  0  0  0  0
    5.3686    5.6850   23.1398 H   0  0  0  0  0  0  0  0  0  0  0  0
    4.4800    4.6717   27.4398 H   0  0  0  0  0  0  0  0  0  0  0  0
    4.8519    2.9400   27.5266 H   0  0  0  0  0  0  0  0  0  0  0  0
    7.3447    3.5644   27.7747 H   0  0  0  0  0  0  0  0  0  0  0  0
    6.2967    4.1763   29.0786 H   0  0  0  0  0  0  0  0  0  0  0  0
    6.8417    5.2749   27.7946 H   0  0  0  0  0  0  0  0  0  0  0  0
  1  2  1  0
  2  3  1  0
  3  4  1  0
  4  5  2  0
  5  6  1  0
  6  7  2  0
  7  8  1  0
  8  9  1  0
  9 10  1  0
 11 10  1  1
 11 12  1  0
 12 13  2  0
 12 14  1  0
 14 15  1  0
 15 16  2  0
 16 17  1  0
 17 18  2  0
 18 19  1  0
 19 20  2  0
 20 21  1  0
 21 22  2  0
 22 23  1  0
 23 24  2  0
 23 25  1  0
 22 26  1  0
 21 27  1  0
 20 28  1  0
 18 29  1  0
 16 30  1  0
 14 31  1  0
 31 32  1  0
 32 33  1  0
 33 34  1  0
 33 35  1  0
 33 36  1  0
 32 37  1  6
 31 38  1  0
 31 39  1  0
 11 40  1  0
 40 41  2  0
 41 42  1  0
 42 43  1  0
 42 44  2  0
 44 45  1  0
 45 46  2  0
 46 47  1  0
 47 48  2  0
 45 49  1  0
 44 50  1  0
 41 51  1  0
 10 52  1  0
 10 53  1  0
  8 54  1  0
  8 55  1  0
  6 56  1  0
  5 57  1  0
  2 58  1  0
  2 59  1  0
  1 60  1  0
  1 61  1  0
  1 62  1  0
  7  3  1  0
 47  9  1  0
 32 11  1  0
 46 40  1  0
 24 15  1  0
 24 19  1  0
M  END
>  <cnnaffinities>  (44) 
[6.46902]

>  <score>  (44) 
6.46902

>  <index>  (44) 
43

>  <Smiles>  (44) 
C(C(n1nc(c(c1C(N1C([C@@]2(C(=O)N(c3c(nc(c4c(c(c(c(c34)[H])[H])[H])[H])[H])[H])C([C@@]2(C([H])([H])[H])[H])([H])[H])c2c(c(F)c(c(c2C1=O)[H])[H])[H])([H])[H])([H])[H])[H])[H])([H])[H])([H])([H])[H]

>  <h>  (44) 
<NA>

>  <Training>  (44) 
True

>  <Success>  (44) 
True

>  <enamine_searched>  (44) 
False

>  <enamine_id>  (44) 
nan

$$$$

     RDKit          3D

 56 60  0  0  0  0  0  0  0  0999 V2000
    7.2008    3.6823   21.0902 C   0  0  0  0  0  0  0  0  0  0  0  0
    7.6441    3.1475   22.3624 N   0  0  0  0  0  0  0  0  0  0  0  0
    8.9765    3.1164   22.6433 C   0  0  0  0  0  0  0  0  0  0  0  0
    9.8168    3.6401   21.9322 O   0  0  0  0  0  0  0  0  0  0  0  0
    9.3699    2.3434   23.9063 C   0  0  0  0  0  0  0  0  0  0  0  0
    9.7397    0.9873   23.5458 N   0  0  0  0  0  0  0  0  0  0  0  0
    8.7082   -0.0458   23.5410 C   0  0  0  0  0  0  0  0  0  0  0  0
    8.7377   -0.9358   22.2249 C   0  0  2  0  0  0  0  0  0  0  0  0
    8.1287   -0.0686   21.0723 C   0  0  0  0  0  0  0  0  0  0  0  0
    8.6453    0.8826   20.5195 O   0  0  0  0  0  0  0  0  0  0  0  0
    6.8467   -0.4935   20.8207 N   0  0  0  0  0  0  0  0  0  0  0  0
    6.0903    0.0596   19.7558 C   0  0  0  0  0  0  0  0  0  0  0  0
    6.4423   -0.2073   18.4540 C   0  0  0  0  0  0  0  0  0  0  0  0
    5.7723    0.2633   17.3786 N   0  0  0  0  0  0  0  0  0  0  0  0
    4.7391    1.0383   17.5932 C   0  0  0  0  0  0  0  0  0  0  0  0
    4.2770    1.4141   18.8862 C   0  0  0  0  0  0  0  0  0  0  0  0
    3.1778    2.2958   19.0686 C   0  0  0  0  0  0  0  0  0  0  0  0
    2.7850    2.6658   20.3261 C   0  0  0  0  0  0  0  0  0  0  0  0
    3.4695    2.1731   21.4568 C   0  0  0  0  0  0  0  0  0  0  0  0
    4.5353    1.3138   21.3059 C   0  0  0  0  0  0  0  0  0  0  0  0
    4.9668    0.9063   20.0135 C   0  0  0  0  0  0  0  0  0  0  0  0
    5.0734    0.9661   22.1834 H   0  0  0  0  0  0  0  0  0  0  0  0
    3.1631    2.4856   22.4503 H   0  0  0  0  0  0  0  0  0  0  0  0
    1.9535    3.3521   20.4611 H   0  0  0  0  0  0  0  0  0  0  0  0
    2.6717    2.6798   18.1873 H   0  0  0  0  0  0  0  0  0  0  0  0
    4.2135    1.4157   16.7151 H   0  0  0  0  0  0  0  0  0  0  0  0
    7.3022   -0.8386   18.2409 H   0  0  0  0  0  0  0  0  0  0  0  0
    6.4010   -1.5334   21.7167 C   0  0  0  0  0  0  0  0  0  0  0  0
    7.7194   -2.1077   22.2718 C   0  0  2  0  0  0  0  0  0  0  0  0
    7.4255   -2.7774   23.6095 C   0  0  0  0  0  0  0  0  0  0  0  0
    8.8240   -3.5731   24.3858 Cl  0  0  0  0  0  0  0  0  0  0  0  0
    6.6614   -3.5485   23.4800 H   0  0  0  0  0  0  0  0  0  0  0  0
    7.0562   -2.0350   24.3203 H   0  0  0  0  0  0  0  0  0  0  0  0
    8.0497   -2.8676   21.5692 H   0  0  0  0  0  0  0  0  0  0  0  0
    5.8019   -2.2800   21.1831 H   0  0  0  0  0  0  0  0  0  0  0  0
    5.7936   -1.1256   22.5380 H   0  0  0  0  0  0  0  0  0  0  0  0
   10.1353   -1.3564   21.9485 C   0  0  0  0  0  0  0  0  0  0  0  0
   10.4568   -2.6795   21.2816 C   0  0  0  0  0  0  0  0  0  0  0  0
   11.8723   -2.8534   20.8548 C   0  0  0  0  0  0  0  0  0  0  0  0
   11.6366   -4.8588   18.6809 Cl  0  0  0  0  0  0  0  0  0  0  0  0
   11.8559   -2.5675   20.9776 C   0  0  0  0  0  0  0  0  0  0  0  0
   12.4169   -0.7882   21.7138 C   0  0  0  0  0  0  0  0  0  0  0  0
   11.2542   -0.4289   22.2605 C   0  0  0  0  0  0  0  0  0  0  0  0
   11.0383    0.7781   23.1456 C   0  0  0  0  0  0  0  0  0  0  0  0
   11.9460    1.5270   23.4638 O   0  0  0  0  0  0  0  0  0  0  0  0
   13.3810   -0.3180   21.6552 H   0  0  0  0  0  0  0  0  0  0  0  0
   12.7611   -4.3196   18.9695 H   0  0  0  0  0  0  0  0  0  0  0  0
    9.7026   -3.3196   20.8569 H   0  0  0  0  0  0  0  0  0  0  0  0
    7.7448    0.4550   23.6199 H   0  0  0  0  0  0  0  0  0  0  0  0
    8.8416   -0.6904   24.4172 H   0  0  0  0  0  0  0  0  0  0  0  0
   10.2642    2.8193   24.3150 H   0  0  0  0  0  0  0  0  0  0  0  0
    8.5657    2.3213   24.6511 H   0  0  0  0  0  0  0  0  0  0  0  0
    7.0086    2.5489   22.8664 H   0  0  0  0  0  0  0  0  0  0  0  0
    6.1757    3.3526   20.9090 H   0  0  0  0  0  0  0  0  0  0  0  0
    7.8548    3.2895   20.3077 H   0  0  0  0  0  0  0  0  0  0  0  0
    7.2366    4.7768   21.0906 H   0  0  0  0  0  0  0  0  0  0  0  0
  1  2  1  0
  2  3  1  0
  3  4  2  0
  3  5  1  0
  5  6  1  0
  6  7  1  0
  8  7  1  1
  8  9  1  0
  9 10  2  0
  9 11  1  0
 11 12  1  0
 12 13  2  0
 13 14  1  0
 14 15  2  0
 15 16  1  0
 16 17  2  0
 17 18  1  0
 18 19  2  0
 19 20  1  0
 20 21  2  0
 20 22  1  0
 19 23  1  0
 18 24  1  0
 17 25  1  0
 15 26  1  0
 13 27  1  0
 11 28  1  0
 28 29  1  0
 29 30  1  0
 30 31  1  0
 30 32  1  0
 30 33  1  0
 29 34  1  6
 28 35  1  0
 28 36  1  0
  8 37  1  0
 37 38  2  0
 38 39  1  0
 39 40  1  0
 39 41  2  0
 41 42  1  0
 42 43  2  0
 43 44  1  0
 44 45  2  0
 42 46  1  0
 41 47  1  0
 38 48  1  0
  7 49  1  0
  7 50  1  0
  5 51  1  0
  5 52  1  0
  2 53  1  0
  1 54  1  0
  1 55  1  0
  1 56  1  0
 44  6  1  0
 29  8  1  0
 43 37  1  0
 21 12  1  0
 21 16  1  0
M  END
>  <cnnaffinities>  (45) 
[6.6382]

>  <score>  (45) 
6.6382

>  <index>  (45) 
44

>  <Smiles>  (45) 
C(N(C(=O)C(N1C([C@@]2(C(=O)N(c3c(nc(c4c(c(c(c(c34)[H])[H])[H])[H])[H])[H])C([C@@]2(C(Cl)([H])[H])[H])([H])[H])c2c(c(Cl)c(c(c2C1=O)[H])[H])[H])([H])[H])([H])[H])[H])([H])([H])[H]

>  <h>  (45) 
<NA>

>  <Training>  (45) 
True

>  <Success>  (45) 
True

>  <enamine_searched>  (45) 
False

>  <enamine_id>  (45) 
nan

$$$$

     RDKit          3D

 60 64  0  0  0  0  0  0  0  0999 V2000
    7.1963    3.6923   21.1628 C   0  0  0  0  0  0  0  0  0  0  0  0
    7.6258    3.2156   22.4672 N   0  0  0  0  0  0  0  0  0  0  0  0
    8.9618    3.1552   22.7303 C   0  0  0  0  0  0  0  0  0  0  0  0
    9.7841    3.7014   22.0136 O   0  0  0  0  0  0  0  0  0  0  0  0
    9.3826    2.3136   23.9405 C   0  0  0  0  0  0  0  0  0  0  0  0
    9.6310    0.9529   23.5217 N   0  0  0  0  0  0  0  0  0  0  0  0
    8.5000    0.0101   23.5610 C   0  0  0  0  0  0  0  0  0  0  0  0
    8.4367   -0.9133   22.2787 C   0  0  2  0  0  0  0  0  0  0  0  0
    7.8122   -0.0109   21.1539 C   0  0  0  0  0  0  0  0  0  0  0  0
    8.3619    0.9093   20.5872 O   0  0  0  0  0  0  0  0  0  0  0  0
    6.5465   -0.4537   20.8898 N   0  0  0  0  0  0  0  0  0  0  0  0
    5.8387    0.0887   19.7873 C   0  0  0  0  0  0  0  0  0  0  0  0
    6.2403   -0.1856   18.5024 C   0  0  0  0  0  0  0  0  0  0  0  0
    5.6232    0.2985   17.4019 N   0  0  0  0  0  0  0  0  0  0  0  0
    4.6036    1.1028   17.5779 C   0  0  0  0  0  0  0  0  0  0  0  0
    4.1082    1.4978   18.8530 C   0  0  0  0  0  0  0  0  0  0  0  0
    3.0321    2.4128   19.0036 C   0  0  0  0  0  0  0  0  0  0  0  0
    2.6144    2.7896   20.2520 C   0  0  0  0  0  0  0  0  0  0  0  0
    3.2462    2.2768   21.4042 C   0  0  0  0  0  0  0  0  0  0  0  0
    4.2907    1.3912   21.2828 C   0  0  0  0  0  0  0  0  0  0  0  0
    4.7411    0.9743   20.0022 C   0  0  0  0  0  0  0  0  0  0  0  0
    4.7958    1.0264   22.1706 H   0  0  0  0  0  0  0  0  0  0  0  0
    2.9171    2.5874   22.3908 H   0  0  0  0  0  0  0  0  0  0  0  0
    1.7992    3.4964   20.3649 H   0  0  0  0  0  0  0  0  0  0  0  0
    2.5683    2.8168   18.1090 H   0  0  0  0  0  0  0  0  0  0  0  0
    4.1263    1.4950   16.6813 H   0  0  0  0  0  0  0  0  0  0  0  0
    7.0946   -0.8363   18.3257 H   0  0  0  0  0  0  0  0  0  0  0  0
    6.0912   -1.5131   21.7724 C   0  0  0  0  0  0  0  0  0  0  0  0
    7.3951   -2.0755   22.3352 C   0  0  2  0  0  0  0  0  0  0  0  0
    7.2585   -2.8130   23.6576 C   0  0  0  0  0  0  0  0  0  0  0  0
    8.5120   -3.3435   24.0357 O   0  0  0  0  0  0  0  0  0  0  0  0
    8.5135   -3.9799   25.2911 C   0  0  0  0  0  0  0  0  0  0  0  0
    9.5148   -4.3851   25.4619 H   0  0  0  0  0  0  0  0  0  0  0  0
    7.7924   -4.8104   25.3238 H   0  0  0  0  0  0  0  0  0  0  0  0
    8.2818   -3.2774   26.1068 H   0  0  0  0  0  0  0  0  0  0  0  0
    6.8772   -2.1265   24.4304 H   0  0  0  0  0  0  0  0  0  0  0  0
    6.5292   -3.6317   23.5449 H   0  0  0  0  0  0  0  0  0  0  0  0
    7.7997   -2.7904   21.6034 H   0  0  0  0  0  0  0  0  0  0  0  0
    5.4492   -1.1215   22.5762 H   0  0  0  0  0  0  0  0  0  0  0  0
    5.5256   -2.2654   21.2140 H   0  0  0  0  0  0  0  0  0  0  0  0
    9.8190   -1.3882   21.9941 C   0  0  0  0  0  0  0  0  0  0  0  0
   10.4633   -2.8113   21.3649 C   0  0  0  0  0  0  0  0  0  0  0  0
   11.8365   -2.7591   21.3743 C   0  0  0  0  0  0  0  0  0  0  0  0
   12.3548   -4.4399   18.9440 Cl  0  0  0  0  0  0  0  0  0  0  0  0
   11.9556   -2.5316   21.1312 C   0  0  0  0  0  0  0  0  0  0  0  0
   12.2555   -1.3130   21.7000 C   0  0  0  0  0  0  0  0  0  0  0  0
   10.9352   -0.5652   22.2096 C   0  0  0  0  0  0  0  0  0  0  0  0
   10.8864    0.6688   22.9792 C   0  0  0  0  0  0  0  0  0  0  0  0
   11.8566    1.3928   23.1385 O   0  0  0  0  0  0  0  0  0  0  0  0
   12.8230   -0.6230   21.1310 H   0  0  0  0  0  0  0  0  0  0  0  0
   13.2396   -3.5977   19.2797 H   0  0  0  0  0  0  0  0  0  0  0  0
   10.0857   -3.4950   22.0733 H   0  0  0  0  0  0  0  0  0  0  0  0
    8.5892   -0.6148   24.4516 H   0  0  0  0  0  0  0  0  0  0  0  0
    7.5720    0.5733   23.6270 H   0  0  0  0  0  0  0  0  0  0  0  0
   10.3208    2.7259   24.3201 H   0  0  0  0  0  0  0  0  0  0  0  0
    8.6184    2.3342   24.7267 H   0  0  0  0  0  0  0  0  0  0  0  0
    6.9822    2.6460   22.9910 H   0  0  0  0  0  0  0  0  0  0  0  0
    7.8459    3.2434   20.4063 H   0  0  0  0  0  0  0  0  0  0  0  0
    7.2601    4.7840   21.1082 H   0  0  0  0  0  0  0  0  0  0  0  0
    6.1652    3.3712   20.9890 H   0  0  0  0  0  0  0  0  0  0  0  0
  1  2  1  0
  2  3  1  0
  3  4  2  0
  3  5  1  0
  5  6  1  0
  6  7  1  0
  8  7  1  1
  8  9  1  0
  9 10  2  0
  9 11  1  0
 11 12  1  0
 12 13  2  0
 13 14  1  0
 14 15  2  0
 15 16  1  0
 16 17  2  0
 17 18  1  0
 18 19  2  0
 19 20  1  0
 20 21  2  0
 20 22  1  0
 19 23  1  0
 18 24  1  0
 17 25  1  0
 15 26  1  0
 13 27  1  0
 11 28  1  0
 28 29  1  0
 29 30  1  0
 30 31  1  0
 31 32  1  0
 32 33  1  0
 32 34  1  0
 32 35  1  0
 30 36  1  0
 30 37  1  0
 29 38  1  6
 28 39  1  0
 28 40  1  0
  8 41  1  0
 41 42  2  0
 42 43  1  0
 43 44  1  0
 43 45  2  0
 45 46  1  0
 46 47  2  0
 47 48  1  0
 48 49  2  0
 46 50  1  0
 45 51  1  0
 42 52  1  0
  7 53  1  0
  7 54  1  0
  5 55  1  0
  5 56  1  0
  2 57  1  0
  1 58  1  0
  1 59  1  0
  1 60  1  0
 48  6  1  0
 29  8  1  0
 47 41  1  0
 21 12  1  0
 21 16  1  0
M  END
>  <cnnaffinities>  (46) 
[6.4221]

>  <score>  (46) 
6.4221

>  <index>  (46) 
45

>  <Smiles>  (46) 
C(N(C(=O)C(N1C([C@@]2(C(=O)N(c3c(nc(c4c(c(c(c(c34)[H])[H])[H])[H])[H])[H])C([C@@]2(C(OC([H])([H])[H])([H])[H])[H])([H])[H])c2c(c(Cl)c(c(c2C1=O)[H])[H])[H])([H])[H])([H])[H])[H])([H])([H])[H]

>  <h>  (46) 
<NA>

>  <Training>  (46) 
True

>  <Success>  (46) 
True

>  <enamine_searched>  (46) 
False

>  <enamine_id>  (46) 
nan

$$$$

     RDKit          3D

 64 68  0  0  0  0  0  0  0  0999 V2000
    9.0907   -3.7492   25.3480 C   0  0  0  0  0  0  0  0  0  0  0  0
    8.3975   -4.5343   24.2455 C   0  0  0  0  0  0  0  0  0  0  0  0
    6.7934   -3.9619   23.7393 S   0  0  0  0  0  0  0  0  0  0  0  0
    6.5143   -4.6135   22.4625 O   0  0  0  0  0  0  0  0  0  0  0  0
    5.8533   -4.0628   24.8396 O   0  0  0  0  0  0  0  0  0  0  0  0
    7.0584   -2.3222   23.5507 N   0  0  0  0  0  0  0  0  0  0  0  0
    7.8789   -1.8006   22.4547 C   0  0  1  0  0  0  0  0  0  0  0  0
    7.1448   -1.7557   21.1010 C   0  0  0  0  0  0  0  0  0  0  0  0
    6.9036   -0.3517   20.8707 N   0  0  0  0  0  0  0  0  0  0  0  0
    6.1274    0.1162   19.7915 C   0  0  0  0  0  0  0  0  0  0  0  0
    6.4442   -0.2254   18.5002 C   0  0  0  0  0  0  0  0  0  0  0  0
    5.7766    0.2223   17.4128 N   0  0  0  0  0  0  0  0  0  0  0  0
    4.7530    1.0152   17.6114 C   0  0  0  0  0  0  0  0  0  0  0  0
    4.2963    1.4136   18.8996 C   0  0  0  0  0  0  0  0  0  0  0  0
    3.1680    2.2605   19.0639 C   0  0  0  0  0  0  0  0  0  0  0  0
    2.7351    2.6063   20.3147 C   0  0  0  0  0  0  0  0  0  0  0  0
    3.4123    2.1274   21.4578 C   0  0  0  0  0  0  0  0  0  0  0  0
    4.5092    1.3132   21.3258 C   0  0  0  0  0  0  0  0  0  0  0  0
    4.9909    0.9461   20.0346 C   0  0  0  0  0  0  0  0  0  0  0  0
    5.0155    0.9598   22.2179 H   0  0  0  0  0  0  0  0  0  0  0  0
    3.0797    2.4140   22.4516 H   0  0  0  0  0  0  0  0  0  0  0  0
    1.8711    3.2520   20.4339 H   0  0  0  0  0  0  0  0  0  0  0  0
    2.6685    2.6273   18.1726 H   0  0  0  0  0  0  0  0  0  0  0  0
    4.2205    1.3749   16.7309 H   0  0  0  0  0  0  0  0  0  0  0  0
    7.2983   -0.8697   18.2950 H   0  0  0  0  0  0  0  0  0  0  0  0
    7.6740    0.4838   21.6462 C   0  0  0  0  0  0  0  0  0  0  0  0
    7.7399    1.6883   21.5133 O   0  0  0  0  0  0  0  0  0  0  0  0
    8.4193   -0.3672   22.6963 C   0  0  1  0  0  0  0  0  0  0  0  0
    8.1226    0.1616   24.1159 C   0  0  0  0  0  0  0  0  0  0  0  0
    8.7362    1.4580   24.3552 N   0  0  0  0  0  0  0  0  0  0  0  0
    7.9782    2.4602   25.0792 C   0  0  0  0  0  0  0  0  0  0  0  0
    6.8758    3.0786   24.2153 C   0  0  0  0  0  0  0  0  0  0  0  0
    5.7248    2.6526   24.2487 O   0  0  0  0  0  0  0  0  0  0  0  0
    7.2658    4.1169   23.4274 N   0  0  0  0  0  0  0  0  0  0  0  0
    6.3305    4.6284   22.4375 C   0  0  0  0  0  0  0  0  0  0  0  0
    5.4710    5.0896   22.9372 H   0  0  0  0  0  0  0  0  0  0  0  0
    5.9613    3.8171   21.7925 H   0  0  0  0  0  0  0  0  0  0  0  0
    6.8238    5.3849   21.8207 H   0  0  0  0  0  0  0  0  0  0  0  0
    8.2560    4.2228   23.2332 H   0  0  0  0  0  0  0  0  0  0  0  0
    7.4921    1.9924   25.9411 H   0  0  0  0  0  0  0  0  0  0  0  0
    8.6950    3.2182   25.4071 H   0  0  0  0  0  0  0  0  0  0  0  0
    9.9659    1.8060   23.8789 C   0  0  0  0  0  0  0  0  0  0  0  0
   10.4438    2.9176   24.0797 O   0  0  0  0  0  0  0  0  0  0  0  0
   10.6633    0.7620   23.0715 C   0  0  0  0  0  0  0  0  0  0  0  0
   12.0328    0.8931   22.8528 C   0  0  0  0  0  0  0  0  0  0  0  0
   12.6947    0.0049   22.0258 C   0  0  0  0  0  0  0  0  0  0  0  0
   11.9439   -0.9765   21.3761 C   0  0  0  0  0  0  0  0  0  0  0  0
   12.6559   -1.9592   20.1223 Cl  0  0  0  0  0  0  0  0  0  0  0  0
   10.5835   -1.1055   21.5782 C   0  0  0  0  0  0  0  0  0  0  0  0
    9.9242   -0.2620   22.4745 C   0  0  0  0  0  0  0  0  0  0  0  0
   10.0428   -1.8237   20.9716 H   0  0  0  0  0  0  0  0  0  0  0  0
   13.7549    0.1045   21.8175 H   0  0  0  0  0  0  0  0  0  0  0  0
   12.5396    1.7260   23.3281 H   0  0  0  0  0  0  0  0  0  0  0  0
    7.0479    0.2880   24.2597 H   0  0  0  0  0  0  0  0  0  0  0  0
    8.4987   -0.5665   24.8422 H   0  0  0  0  0  0  0  0  0  0  0  0
    7.7957   -2.1600   20.3207 H   0  0  0  0  0  0  0  0  0  0  0  0
    6.2111   -2.3252   21.1157 H   0  0  0  0  0  0  0  0  0  0  0  0
    8.7333   -2.4730   22.3959 H   0  0  0  0  0  0  0  0  0  0  0  0
    6.1776   -1.8389   23.6984 H   0  0  0  0  0  0  0  0  0  0  0  0
    8.9474   -4.5062   23.3029 H   0  0  0  0  0  0  0  0  0  0  0  0
    8.2368   -5.5819   24.5223 H   0  0  0  0  0  0  0  0  0  0  0  0
    8.4508   -3.6395   26.2240 H   0  0  0  0  0  0  0  0  0  0  0  0
    9.9998   -4.2806   25.6403 H   0  0  0  0  0  0  0  0  0  0  0  0
    9.3909   -2.7561   25.0079 H   0  0  0  0  0  0  0  0  0  0  0  0
  1  2  1  0
  2  3  1  0
  3  4  2  0
  3  5  2  0
  3  6  1  0
  6  7  1  0
  7  8  1  0
  8  9  1  0
  9 10  1  0
 10 11  2  0
 11 12  1  0
 12 13  2  0
 13 14  1  0
 14 15  2  0
 15 16  1  0
 16 17  2  0
 17 18  1  0
 18 19  2  0
 18 20  1  0
 17 21  1  0
 16 22  1  0
 15 23  1  0
 13 24  1  0
 11 25  1  0
  9 26  1  0
 26 27  2  0
 26 28  1  0
 28 29  1  1
 29 30  1  0
 30 31  1  0
 31 32  1  0
 32 33  2  0
 32 34  1  0
 34 35  1  0
 35 36  1  0
 35 37  1  0
 35 38  1  0
 34 39  1  0
 31 40  1  0
 31 41  1  0
 30 42  1  0
 42 43  2  0
 42 44  1  0
 44 45  2  0
 45 46  1  0
 46 47  2  0
 47 48  1  0
 47 49  1  0
 49 50  2  0
 49 51  1  0
 46 52  1  0
 45 53  1  0
 29 54  1  0
 29 55  1  0
  8 56  1  0
  8 57  1  0
  7 58  1  6
  6 59  1  0
  2 60  1  0
  2 61  1  0
  1 62  1  0
  1 63  1  0
  1 64  1  0
 28  7  1  0
 50 44  1  0
 19 10  1  0
 50 28  1  0
 19 14  1  0
M  END
>  <cnnaffinities>  (47) 
[6.44154]

>  <score>  (47) 
6.44154

>  <index>  (47) 
46

>  <Smiles>  (47) 
C(C(S(=O)(=O)N([C@]1(C(N(c2c(nc(c3c(c(c(c(c23)[H])[H])[H])[H])[H])[H])C(=O)[C@]21C(N(C(C(=O)N(C([H])([H])[H])[H])([H])[H])C(=O)c1c(c(c(Cl)c(c21)[H])[H])[H])([H])[H])([H])[H])[H])[H])([H])[H])([H])([H])[H]

>  <h>  (47) 
<NA>

>  <Training>  (47) 
True

>  <Success>  (47) 
True

>  <enamine_searched>  (47) 
False

>  <enamine_id>  (47) 
nan

$$$$

     RDKit          3D

 56 60  0  0  0  0  0  0  0  0999 V2000
    7.7115   -8.5157   22.8039 C   0  0  0  0  0  0  0  0  0  0  0  0
    6.8628   -7.3581   22.6160 N   0  0  0  0  0  0  0  0  0  0  0  0
    7.1636   -6.3983   21.7072 C   0  0  0  0  0  0  0  0  0  0  0  0
    8.1099   -6.4717   20.9391 O   0  0  0  0  0  0  0  0  0  0  0  0
    6.2200   -5.1981   21.7607 C   0  0  0  0  0  0  0  0  0  0  0  0
    6.7002   -4.2192   22.7182 N   0  0  0  0  0  0  0  0  0  0  0  0
    7.7975   -3.3305   22.3845 C   0  0  0  0  0  0  0  0  0  0  0  0
    7.4370   -1.8471   22.6779 C   0  0  2  0  0  0  0  0  0  0  0  0
    6.3366   -1.4130   21.6805 C   0  0  0  0  0  0  0  0  0  0  0  0
    5.2154   -1.8713   21.6018 O   0  0  0  0  0  0  0  0  0  0  0  0
    6.8560   -0.4404   20.8509 N   0  0  0  0  0  0  0  0  0  0  0  0
    6.1108    0.0930   19.7801 C   0  0  0  0  0  0  0  0  0  0  0  0
    6.4553   -0.2020   18.4867 C   0  0  0  0  0  0  0  0  0  0  0  0
    5.7907    0.2458   17.3968 N   0  0  0  0  0  0  0  0  0  0  0  0
    4.7565    1.0228   17.6018 C   0  0  0  0  0  0  0  0  0  0  0  0
    4.3019    1.4163   18.8908 C   0  0  0  0  0  0  0  0  0  0  0  0
    3.1853    2.2765   19.0496 C   0  0  0  0  0  0  0  0  0  0  0  0
    2.7834    2.6606   20.2973 C   0  0  0  0  0  0  0  0  0  0  0  0
    3.4776    2.2130   21.4405 C   0  0  0  0  0  0  0  0  0  0  0  0
    4.5600    1.3795   21.3154 C   0  0  0  0  0  0  0  0  0  0  0  0
    4.9940    0.9504   20.0280 C   0  0  0  0  0  0  0  0  0  0  0  0
    5.0842    1.0426   22.2035 H   0  0  0  0  0  0  0  0  0  0  0  0
    3.1524    2.5401   22.4239 H   0  0  0  0  0  0  0  0  0  0  0  0
    1.9360    3.3298   20.4146 H   0  0  0  0  0  0  0  0  0  0  0  0
    2.6746    2.6273   18.1573 H   0  0  0  0  0  0  0  0  0  0  0  0
    4.2188    1.3860   16.7257 H   0  0  0  0  0  0  0  0  0  0  0  0
    7.3018   -0.8595   18.2943 H   0  0  0  0  0  0  0  0  0  0  0  0
    8.3024   -0.3446   20.9318 C   0  0  0  0  0  0  0  0  0  0  0  0
    8.6173   -0.8887   22.3359 C   0  0  2  0  0  0  0  0  0  0  0  0
   10.0116   -1.5040   22.4181 C   0  0  0  0  0  0  0  0  0  0  0  0
   10.1360   -2.2937   21.6662 H   0  0  0  0  0  0  0  0  0  0  0  0
   10.1948   -1.9439   23.4046 H   0  0  0  0  0  0  0  0  0  0  0  0
   10.7779   -0.7460   22.2338 H   0  0  0  0  0  0  0  0  0  0  0  0
    8.5744   -0.0409   23.0270 H   0  0  0  0  0  0  0  0  0  0  0  0
    8.8050   -0.9448   20.1557 H   0  0  0  0  0  0  0  0  0  0  0  0
    8.6216    0.6948   20.8116 H   0  0  0  0  0  0  0  0  0  0  0  0
    6.9142   -1.7691   24.1043 C   0  0  0  0  0  0  0  0  0  0  0  0
    6.8869   -0.5631   24.8169 C   0  0  0  0  0  0  0  0  0  0  0  0
    6.4010   -0.5585   26.1105 C   0  0  0  0  0  0  0  0  0  0  0  0
    6.3382    0.6073   26.7733 F   0  0  0  0  0  0  0  0  0  0  0  0
    5.9676   -1.7030   26.7688 C   0  0  0  0  0  0  0  0  0  0  0  0
    5.9383   -2.8746   26.0432 C   0  0  0  0  0  0  0  0  0  0  0  0
    6.3327   -2.8928   24.7074 C   0  0  0  0  0  0  0  0  0  0  0  0
    6.0176   -4.1042   23.8931 C   0  0  0  0  0  0  0  0  0  0  0  0
    5.1623   -4.9184   24.2270 O   0  0  0  0  0  0  0  0  0  0  0  0
    5.5790   -3.7967   26.4813 H   0  0  0  0  0  0  0  0  0  0  0  0
    5.6143   -1.6524   27.7944 H   0  0  0  0  0  0  0  0  0  0  0  0
    7.2122    0.3790   24.3868 H   0  0  0  0  0  0  0  0  0  0  0  0
    8.7052   -3.6023   22.9462 H   0  0  0  0  0  0  0  0  0  0  0  0
    8.0076   -3.4524   21.3241 H   0  0  0  0  0  0  0  0  0  0  0  0
    5.2340   -5.5222   22.1023 H   0  0  0  0  0  0  0  0  0  0  0  0
    6.1008   -4.7215   20.7819 H   0  0  0  0  0  0  0  0  0  0  0  0
    6.1059   -7.1928   23.2617 H   0  0  0  0  0  0  0  0  0  0  0  0
    8.5797   -8.3090   23.4521 H   0  0  0  0  0  0  0  0  0  0  0  0
    7.1104   -9.3300   23.2161 H   0  0  0  0  0  0  0  0  0  0  0  0
    8.0698   -8.8243   21.8300 H   0  0  0  0  0  0  0  0  0  0  0  0
  1  2  1  0
  2  3  1  0
  3  4  2  0
  3  5  1  0
  5  6  1  0
  6  7  1  0
  8  7  1  6
  8  9  1  0
  9 10  2  0
  9 11  1  0
 11 12  1  0
 12 13  2  0
 13 14  1  0
 14 15  2  0
 15 16  1  0
 16 17  2  0
 17 18  1  0
 18 19  2  0
 19 20  1  0
 20 21  2  0
 20 22  1  0
 19 23  1  0
 18 24  1  0
 17 25  1  0
 15 26  1  0
 13 27  1  0
 11 28  1  0
 28 29  1  0
 29 30  1  0
 30 31  1  0
 30 32  1  0
 30 33  1  0
 29 34  1  1
 28 35  1  0
 28 36  1  0
  8 37  1  0
 37 38  2  0
 38 39  1  0
 39 40  1  0
 39 41  2  0
 41 42  1  0
 42 43  2  0
 43 44  1  0
 44 45  2  0
 42 46  1  0
 41 47  1  0
 38 48  1  0
  7 49  1  0
  7 50  1  0
  5 51  1  0
  5 52  1  0
  2 53  1  0
  1 54  1  0
  1 55  1  0
  1 56  1  0
 44  6  1  0
 29  8  1  0
 43 37  1  0
 21 12  1  0
 21 16  1  0
M  END
>  <cnnaffinities>  (48) 
[6.38302]

>  <score>  (48) 
6.38302

>  <index>  (48) 
47

>  <Smiles>  (48) 
C(N(C(=O)C(N1C([C@@]2(C(=O)N(c3c(nc(c4c(c(c(c(c34)[H])[H])[H])[H])[H])[H])C([C@@]2(C([H])([H])[H])[H])([H])[H])c2c(c(F)c(c(c2C1=O)[H])[H])[H])([H])[H])([H])[H])[H])([H])([H])[H]

>  <h>  (48) 
<NA>

>  <Training>  (48) 
True

>  <Success>  (48) 
True

>  <enamine_searched>  (48) 
False

>  <enamine_id>  (48) 
nan

$$$$

     RDKit          3D

 41 43  0  0  0  0  0  0  0  0999 V2000
   10.9124   -2.4405   23.7869 C   0  0  0  0  0  0  0  0  0  0  0  0
   10.0170   -1.2674   23.4568 C   0  0  1  0  0  0  0  0  0  0  0  0
    8.5429   -1.5710   23.7528 C   0  0  0  0  0  0  0  0  0  0  0  0
    7.6629   -0.3158   23.8320 C   0  0  0  0  0  0  0  0  0  0  0  0
    8.0171    0.7486   22.8949 N   0  0  0  0  0  0  0  0  0  0  0  0
    7.8622    0.6369   21.5252 C   0  0  0  0  0  0  0  0  0  0  0  0
    8.4376    1.3988   20.7671 O   0  0  0  0  0  0  0  0  0  0  0  0
    6.9378   -0.4477   20.9206 C   0  0  0  0  0  0  0  0  0  0  0  0
    6.1112    0.0848   19.7694 C   0  0  0  0  0  0  0  0  0  0  0  0
    6.4264   -0.2068   18.4653 C   0  0  0  0  0  0  0  0  0  0  0  0
    5.7590    0.2470   17.3714 N   0  0  0  0  0  0  0  0  0  0  0  0
    4.7313    1.0313   17.5775 C   0  0  0  0  0  0  0  0  0  0  0  0
    4.2849    1.4248   18.8689 C   0  0  0  0  0  0  0  0  0  0  0  0
    3.1682    2.2819   19.0434 C   0  0  0  0  0  0  0  0  0  0  0  0
    2.7640    2.6465   20.2996 C   0  0  0  0  0  0  0  0  0  0  0  0
    3.4647    2.1703   21.4295 C   0  0  0  0  0  0  0  0  0  0  0  0
    4.5490    1.3396   21.2861 C   0  0  0  0  0  0  0  0  0  0  0  0
    4.9918    0.9424   19.9965 C   0  0  0  0  0  0  0  0  0  0  0  0
    5.0714    0.9901   22.1708 H   0  0  0  0  0  0  0  0  0  0  0  0
    3.1370    2.4637   22.4215 H   0  0  0  0  0  0  0  0  0  0  0  0
    1.9115    3.3056   20.4367 H   0  0  0  0  0  0  0  0  0  0  0  0
    2.6449    2.6493   18.1639 H   0  0  0  0  0  0  0  0  0  0  0  0
    4.1982    1.3989   16.6991 H   0  0  0  0  0  0  0  0  0  0  0  0
    7.2727   -0.8563   18.2437 H   0  0  0  0  0  0  0  0  0  0  0  0
    7.5901   -1.2393   20.5269 H   0  0  0  0  0  0  0  0  0  0  0  0
    6.2854   -0.9121   21.6668 H   0  0  0  0  0  0  0  0  0  0  0  0
    9.0465    1.6771   23.3759 C   0  0  0  0  0  0  0  0  0  0  0  0
   10.4536    1.0786   23.4662 C   0  0  0  0  0  0  0  0  0  0  0  0
   10.4887   -0.1381   24.1814 O   0  0  0  0  0  0  0  0  0  0  0  0
   10.8642    0.9345   22.4563 H   0  0  0  0  0  0  0  0  0  0  0  0
   11.1276    1.7687   23.9970 H   0  0  0  0  0  0  0  0  0  0  0  0
    8.7539    1.9988   24.3790 H   0  0  0  0  0  0  0  0  0  0  0  0
    9.0628    2.5597   22.7329 H   0  0  0  0  0  0  0  0  0  0  0  0
    6.6067   -0.5752   23.7189 H   0  0  0  0  0  0  0  0  0  0  0  0
    7.7519    0.1103   24.8313 H   0  0  0  0  0  0  0  0  0  0  0  0
    8.4668   -2.1275   24.6972 H   0  0  0  0  0  0  0  0  0  0  0  0
    8.1658   -2.2440   22.9723 H   0  0  0  0  0  0  0  0  0  0  0  0
   10.1185   -1.0531   22.3874 H   0  0  0  0  0  0  0  0  0  0  0  0
   10.5889   -3.3068   23.2114 H   0  0  0  0  0  0  0  0  0  0  0  0
   11.9486   -2.2235   23.5150 H   0  0  0  0  0  0  0  0  0  0  0  0
   10.8698   -2.6770   24.8529 H   0  0  0  0  0  0  0  0  0  0  0  0
  1  2  1  0
  2  3  1  0
  3  4  1  0
  4  5  1  0
  5  6  1  0
  6  7  2  0
  6  8  1  0
  8  9  1  0
  9 10  2  0
 10 11  1  0
 11 12  2  0
 12 13  1  0
 13 14  2  0
 14 15  1  0
 15 16  2  0
 16 17  1  0
 17 18  2  0
 17 19  1  0
 16 20  1  0
 15 21  1  0
 14 22  1  0
 12 23  1  0
 10 24  1  0
  8 25  1  0
  8 26  1  0
  5 27  1  0
 27 28  1  0
 28 29  1  0
 28 30  1  0
 28 31  1  0
 27 32  1  0
 27 33  1  0
  4 34  1  0
  4 35  1  0
  3 36  1  0
  3 37  1  0
  2 38  1  6
  1 39  1  0
  1 40  1  0
  1 41  1  0
 29  2  1  0
 18  9  1  0
 18 13  1  0
M  END
>  <cnnaffinities>  (49) 
[5.2631]

>  <score>  (49) 
5.2631

>  <index>  (49) 
48

>  <Smiles>  (49) 
C([C@]1(C(C(N(C(=O)C(c2c(nc(c3c(c(c(c(c23)[H])[H])[H])[H])[H])[H])([H])[H])C(C(O1)([H])[H])([H])[H])([H])[H])([H])[H])[H])([H])([H])[H]

>  <h>  (49) 
<NA>

>  <Training>  (49) 
True

>  <Success>  (49) 
True

>  <enamine_searched>  (49) 
False

>  <enamine_id>  (49) 
nan

$$$$

     RDKit          3D

 42 45  0  0  0  0  0  0  0  0999 V2000
   12.2332   -1.1618   22.4776 C   0  0  0  0  0  0  0  0  0  0  0  0
   10.8134   -1.2793   22.7096 N   0  0  0  0  0  0  0  0  0  0  0  0
    9.8770   -0.7061   21.7701 C   0  0  0  0  0  0  0  0  0  0  0  0
    8.6661   -0.2307   22.5681 C   0  0  1  0  0  0  0  0  0  0  0  0
    7.6639    0.4380   21.6404 C   0  0  0  0  0  0  0  0  0  0  0  0
    7.5746    1.6497   21.5783 O   0  0  0  0  0  0  0  0  0  0  0  0
    6.9117   -0.4000   20.8407 N   0  0  0  0  0  0  0  0  0  0  0  0
    6.1246    0.1024   19.7704 C   0  0  0  0  0  0  0  0  0  0  0  0
    6.4363   -0.2193   18.4750 C   0  0  0  0  0  0  0  0  0  0  0  0
    5.7646    0.2378   17.3898 N   0  0  0  0  0  0  0  0  0  0  0  0
    4.7439    1.0285   17.5933 C   0  0  0  0  0  0  0  0  0  0  0  0
    4.2905    1.4193   18.8794 C   0  0  0  0  0  0  0  0  0  0  0  0
    3.1642    2.2676   19.0538 C   0  0  0  0  0  0  0  0  0  0  0  0
    2.7385    2.6046   20.3072 C   0  0  0  0  0  0  0  0  0  0  0  0
    3.4163    2.1029   21.4428 C   0  0  0  0  0  0  0  0  0  0  0  0
    4.5058    1.2827   21.2997 C   0  0  0  0  0  0  0  0  0  0  0  0
    4.9909    0.9367   20.0101 C   0  0  0  0  0  0  0  0  0  0  0  0
    5.0167    0.8959   22.1752 H   0  0  0  0  0  0  0  0  0  0  0  0
    3.0689    2.3697   22.4349 H   0  0  0  0  0  0  0  0  0  0  0  0
    1.8796    3.2566   20.4409 H   0  0  0  0  0  0  0  0  0  0  0  0
    2.6571    2.6402   18.1666 H   0  0  0  0  0  0  0  0  0  0  0  0
    4.2151    1.3909   16.7104 H   0  0  0  0  0  0  0  0  0  0  0  0
    7.2808   -0.8696   18.2520 H   0  0  0  0  0  0  0  0  0  0  0  0
    7.1332   -1.3870   20.8428 H   0  0  0  0  0  0  0  0  0  0  0  0
    8.1481   -1.3455   23.4520 C   0  0  0  0  0  0  0  0  0  0  0  0
    6.8447   -1.3111   23.9375 C   0  0  0  0  0  0  0  0  0  0  0  0
    6.3885   -2.3272   24.7557 C   0  0  0  0  0  0  0  0  0  0  0  0
    4.7417   -2.2859   25.3109 Cl  0  0  0  0  0  0  0  0  0  0  0  0
    7.2160   -3.3792   25.1420 C   0  0  0  0  0  0  0  0  0  0  0  0
    8.5312   -3.3858   24.7104 C   0  0  0  0  0  0  0  0  0  0  0  0
    9.0018   -2.3665   23.8806 C   0  0  0  0  0  0  0  0  0  0  0  0
   10.4506   -2.3106   23.5346 C   0  0  0  0  0  0  0  0  0  0  0  0
   11.2817   -3.0929   23.9830 O   0  0  0  0  0  0  0  0  0  0  0  0
    9.2157   -4.1667   25.0309 H   0  0  0  0  0  0  0  0  0  0  0  0
    6.8317   -4.1606   25.7874 H   0  0  0  0  0  0  0  0  0  0  0  0
    6.1844   -0.4931   23.6726 H   0  0  0  0  0  0  0  0  0  0  0  0
    9.0274    0.5752   23.2132 H   0  0  0  0  0  0  0  0  0  0  0  0
   10.3709    0.1516   21.3067 H   0  0  0  0  0  0  0  0  0  0  0  0
    9.5752   -1.3977   20.9597 H   0  0  0  0  0  0  0  0  0  0  0  0
   12.4336   -0.4477   21.6757 H   0  0  0  0  0  0  0  0  0  0  0  0
   12.5958   -2.1602   22.2344 H   0  0  0  0  0  0  0  0  0  0  0  0
   12.7407   -0.8123   23.3808 H   0  0  0  0  0  0  0  0  0  0  0  0
  1  2  1  0
  2  3  1  0
  3  4  1  0
  4  5  1  0
  5  6  2  0
  5  7  1  0
  7  8  1  0
  8  9  2  0
  9 10  1  0
 10 11  2  0
 11 12  1  0
 12 13  2  0
 13 14  1  0
 14 15  2  0
 15 16  1  0
 16 17  2  0
 16 18  1  0
 15 19  1  0
 14 20  1  0
 13 21  1  0
 11 22  1  0
  9 23  1  0
  7 24  1  0
  4 25  1  0
 25 26  2  0
 26 27  1  0
 27 28  1  0
 27 29  2  0
 29 30  1  0
 30 31  2  0
 31 32  1  0
 32 33  2  0
 30 34  1  0
 29 35  1  0
 26 36  1  0
  4 37  1  1
  3 38  1  0
  3 39  1  0
  1 40  1  0
  1 41  1  0
  1 42  1  0
 32  2  1  0
 17  8  1  0
 31 25  1  0
 17 12  1  0
M  END
>  <cnnaffinities>  (50) 
[5.9027, 5.5448]

>  <score>  (50) 
5.9027

>  <index>  (50) 
49

>  <Smiles>  (50) 
C(N1C([C@@](C(=O)N(c2c(nc(c3c(c(c(c(c23)[H])[H])[H])[H])[H])[H])[H])(c2c(c(Cl)c(c(c2C1=O)[H])[H])[H])[H])([H])[H])([H])([H])[H]

>  <h>  (50) 
<NA>

>  <Training>  (50) 
True

>  <Success>  (50) 
True

>  <enamine_searched>  (50) 
False

>  <enamine_id>  (50) 
nan

$$$$

     RDKit          3D

 38 41  0  0  0  0  0  0  0  0999 V2000
    8.5185    1.0498   20.1597 O   0  0  0  0  0  0  0  0  0  0  0  0
    7.9111    0.5117   21.0693 C   0  0  0  0  0  0  0  0  0  0  0  0
    6.8173   -0.5228   20.7562 C   0  0  0  0  0  0  0  0  0  0  0  0
    5.9657    0.0205   19.6522 C   0  0  0  0  0  0  0  0  0  0  0  0
    6.3135   -0.2169   18.3479 C   0  0  0  0  0  0  0  0  0  0  0  0
    5.6622    0.2855   17.2731 N   0  0  0  0  0  0  0  0  0  0  0  0
    4.6490    1.0789   17.5069 C   0  0  0  0  0  0  0  0  0  0  0  0
    4.1978    1.4361   18.8043 C   0  0  0  0  0  0  0  0  0  0  0  0
    3.1144    2.3251   19.0000 C   0  0  0  0  0  0  0  0  0  0  0  0
    2.7350    2.6901   20.2567 C   0  0  0  0  0  0  0  0  0  0  0  0
    3.4315    2.1919   21.3783 C   0  0  0  0  0  0  0  0  0  0  0  0
    4.4858    1.3227   21.2198 C   0  0  0  0  0  0  0  0  0  0  0  0
    4.8878    0.9116   19.9219 C   0  0  0  0  0  0  0  0  0  0  0  0
    5.0104    0.9749   22.1030 H   0  0  0  0  0  0  0  0  0  0  0  0
    3.1392    2.4947   22.3776 H   0  0  0  0  0  0  0  0  0  0  0  0
    1.9016    3.3732   20.4065 H   0  0  0  0  0  0  0  0  0  0  0  0
    2.6169    2.7178   18.1169 H   0  0  0  0  0  0  0  0  0  0  0  0
    4.1393    1.4985   16.6399 H   0  0  0  0  0  0  0  0  0  0  0  0
    7.1794   -0.8371   18.1120 H   0  0  0  0  0  0  0  0  0  0  0  0
    7.3360   -1.4313   20.4188 H   0  0  0  0  0  0  0  0  0  0  0  0
    6.2316   -0.8303   21.6265 H   0  0  0  0  0  0  0  0  0  0  0  0
    8.2313    0.7829   22.3680 N   0  0  0  0  0  0  0  0  0  0  0  0
    7.4228    0.4547   23.5334 C   0  0  0  0  0  0  0  0  0  0  0  0
    8.0651   -0.7234   24.2501 C   0  0  0  0  0  0  0  0  0  0  0  0
    9.5308   -0.4224   24.3935 C   0  0  0  0  0  0  0  0  0  0  0  0
   10.5293   -1.1762   25.5599 S   0  0  0  0  0  0  0  0  0  0  0  0
   11.9062   -0.2499   25.0989 C   0  0  0  0  0  0  0  0  0  0  0  0
   11.6118    0.5744   24.0542 C   0  0  0  0  0  0  0  0  0  0  0  0
   10.2410    0.4840   23.6679 C   0  0  0  0  0  0  0  0  0  0  0  0
    9.5659    1.3214   22.6288 C   0  0  0  0  0  0  0  0  0  0  0  0
   10.1553    1.3082   21.7048 H   0  0  0  0  0  0  0  0  0  0  0  0
    9.5125    2.3770   22.9425 H   0  0  0  0  0  0  0  0  0  0  0  0
   12.3388    1.2115   23.5605 H   0  0  0  0  0  0  0  0  0  0  0  0
   12.8157   -0.3417   25.6801 H   0  0  0  0  0  0  0  0  0  0  0  0
    7.5722   -0.9126   25.2079 H   0  0  0  0  0  0  0  0  0  0  0  0
    7.9594   -1.6305   23.6396 H   0  0  0  0  0  0  0  0  0  0  0  0
    6.3902    0.2354   23.2482 H   0  0  0  0  0  0  0  0  0  0  0  0
    7.3782    1.3351   24.1930 H   0  0  0  0  0  0  0  0  0  0  0  0
  1  2  2  0
  2  3  1  0
  3  4  1  0
  4  5  2  0
  5  6  1  0
  6  7  2  0
  7  8  1  0
  8  9  2  0
  9 10  1  0
 10 11  2  0
 11 12  1  0
 12 13  2  0
 12 14  1  0
 11 15  1  0
 10 16  1  0
  9 17  1  0
  7 18  1  0
  5 19  1  0
  3 20  1  0
  3 21  1  0
  2 22  1  0
 22 23  1  0
 23 24  1  0
 24 25  1  0
 25 26  1  0
 26 27  1  0
 27 28  2  0
 28 29  1  0
 29 30  1  0
 30 31  1  0
 30 32  1  0
 28 33  1  0
 27 34  1  0
 24 35  1  0
 24 36  1  0
 23 37  1  0
 23 38  1  0
 13  4  1  0
 30 22  1  0
 13  8  1  0
 29 25  2  0
M  END
>  <cnnaffinities>  (51) 
[5.29566, 5.19077]

>  <score>  (51) 
5.29566

>  <index>  (51) 
50

>  <Smiles>  (51) 
O=C(C(c1c(nc(c2c(c(c(c(c12)[H])[H])[H])[H])[H])[H])([H])[H])N1C(C(c2sc(c(c2C1([H])[H])[H])[H])([H])[H])([H])[H]

>  <h>  (51) 
<NA>

>  <Training>  (51) 
True

>  <Success>  (51) 
True

>  <enamine_searched>  (51) 
False

>  <enamine_id>  (51) 
nan

$$$$

     RDKit          3D

 67 73  0  0  0  0  0  0  0  0999 V2000
    5.5586    4.9277   21.3559 C   0  0  0  0  0  0  0  0  0  0  0  0
    6.0020    4.5380   22.7231 C   0  0  0  0  0  0  0  0  0  0  0  0
    6.2803    5.3159   23.7198 N   0  0  0  0  0  0  0  0  0  0  0  0
    6.5321    4.5007   24.8047 N   0  0  0  0  0  0  0  0  0  0  0  0
    6.4323    3.2885   24.3859 C   0  0  0  0  0  0  0  0  0  0  0  0
    6.7132    2.0268   25.1440 C   0  0  0  0  0  0  0  0  0  0  0  0
    7.8156    1.2558   24.5519 N   0  0  0  0  0  0  0  0  0  0  0  0
    7.5999   -0.1207   24.0960 C   0  0  0  0  0  0  0  0  0  0  0  0
    8.3414   -0.4034   22.7555 C   0  0  2  0  0  0  0  0  0  0  0  0
    7.7160    0.4507   21.6176 C   0  0  0  0  0  0  0  0  0  0  0  0
    7.8784    1.6304   21.4113 O   0  0  0  0  0  0  0  0  0  0  0  0
    6.9384   -0.3801   20.8435 N   0  0  0  0  0  0  0  0  0  0  0  0
    6.1405    0.1090   19.7721 C   0  0  0  0  0  0  0  0  0  0  0  0
    6.4409   -0.2201   18.4731 C   0  0  0  0  0  0  0  0  0  0  0  0
    5.7646    0.2312   17.3911 N   0  0  0  0  0  0  0  0  0  0  0  0
    4.7422    1.0258   17.5901 C   0  0  0  0  0  0  0  0  0  0  0  0
    4.2910    1.4208   18.8793 C   0  0  0  0  0  0  0  0  0  0  0  0
    3.1664    2.2734   19.0588 C   0  0  0  0  0  0  0  0  0  0  0  0
    2.7436    2.6095   20.3163 C   0  0  0  0  0  0  0  0  0  0  0  0
    3.4213    2.1079   21.4482 C   0  0  0  0  0  0  0  0  0  0  0  0
    4.5092    1.2838   21.2979 C   0  0  0  0  0  0  0  0  0  0  0  0
    4.9938    0.9375   20.0088 C   0  0  0  0  0  0  0  0  0  0  0  0
    5.0104    0.8803   22.1711 H   0  0  0  0  0  0  0  0  0  0  0  0
    3.0735    2.3711   22.4423 H   0  0  0  0  0  0  0  0  0  0  0  0
    1.8861    3.2644   20.4504 H   0  0  0  0  0  0  0  0  0  0  0  0
    2.6556    2.6518   18.1777 H   0  0  0  0  0  0  0  0  0  0  0  0
    4.2114    1.3907   16.7090 H   0  0  0  0  0  0  0  0  0  0  0  0
    7.2888   -0.8683   18.2555 H   0  0  0  0  0  0  0  0  0  0  0  0
    6.9448   -1.7633   21.2782 C   0  0  0  0  0  0  0  0  0  0  0  0
    8.1328   -1.8646   22.2539 C   0  0  2  0  0  0  0  0  0  0  0  0
    7.9415   -2.9117   23.4013 C   0  0  0  0  0  0  0  0  0  0  0  0
    7.9195   -4.2902   22.9451 N   0  0  0  0  0  0  0  0  0  0  0  0
    7.8821   -5.5357   23.5474 C   0  0  0  0  0  0  0  0  0  0  0  0
    7.3012   -5.8423   24.8449 C   0  0  0  0  0  0  0  0  0  0  0  0
    7.4690   -5.7799   25.2233 C   0  0  0  0  0  0  0  0  0  0  0  0
    7.7345   -6.6792   22.6599 N   0  0  0  0  0  0  0  0  0  0  0  0
    7.9628   -7.4133   23.9447 C   0  0  0  0  0  0  0  0  0  0  0  0
    7.7346   -6.6792   22.6599 N   0  0  0  0  0  0  0  0  0  0  0  0
    7.4642   -8.2894   23.5794 H   0  0  0  0  0  0  0  0  0  0  0  0
    7.8951   -6.2068   26.2294 H   0  0  0  0  0  0  0  0  0  0  0  0
    7.6771   -4.7818   25.5326 H   0  0  0  0  0  0  0  0  0  0  0  0
    7.9793   -4.3269   21.9433 H   0  0  0  0  0  0  0  0  0  0  0  0
    8.7810   -2.7322   24.0898 H   0  0  0  0  0  0  0  0  0  0  0  0
    6.9973   -2.6254   23.8940 H   0  0  0  0  0  0  0  0  0  0  0  0
    9.0259   -2.1445   21.6798 H   0  0  0  0  0  0  0  0  0  0  0  0
    7.0521   -2.4021   20.4077 H   0  0  0  0  0  0  0  0  0  0  0  0
    6.0004   -2.0332   21.7693 H   0  0  0  0  0  0  0  0  0  0  0  0
    9.7824    0.0313   22.8974 C   0  0  0  0  0  0  0  0  0  0  0  0
   10.7677   -0.3783   22.0093 C   0  0  0  0  0  0  0  0  0  0  0  0
   12.0621    0.0738   22.1466 C   0  0  0  0  0  0  0  0  0  0  0  0
   13.2025   -0.3738   20.9454 Cl  0  0  0  0  0  0  0  0  0  0  0  0
   12.4511    0.9162   23.1754 C   0  0  0  0  0  0  0  0  0  0  0  0
   11.4551    1.4301   23.9673 C   0  0  0  0  0  0  0  0  0  0  0  0
   10.1239    1.0594   23.7711 C   0  0  0  0  0  0  0  0  0  0  0  0
    9.0418    1.8771   24.4040 C   0  0  0  0  0  0  0  0  0  0  0  0
    9.2901    3.0258   24.7307 O   0  0  0  0  0  0  0  0  0  0  0  0
   11.7138    2.1587   24.7086 H   0  0  0  0  0  0  0  0  0  0  0  0
   13.4853    1.2167   23.2646 H   0  0  0  0  0  0  0  0  0  0  0  0
   10.5290   -0.9937   21.1596 H   0  0  0  0  0  0  0  0  0  0  0  0
    7.9305   -0.8523   24.8489 H   0  0  0  0  0  0  0  0  0  0  0  0
    6.5270   -0.2806   23.9237 H   0  0  0  0  0  0  0  0  0  0  0  0
    6.9382    2.3455   26.1699 H   0  0  0  0  0  0  0  0  0  0  0  0
    5.7971    1.4150   25.1863 H   0  0  0  0  0  0  0  0  0  0  0  0
    6.0772    3.2248   23.0798 O   0  0  0  0  0  0  0  0  0  0  0  0
    4.4918    5.1816   21.3667 H   0  0  0  0  0  0  0  0  0  0  0  0
    6.0917    5.8288   21.0467 H   0  0  0  0  0  0  0  0  0  0  0  0
    5.7137    4.1214   20.6345 H   0  0  0  0  0  0  0  0  0  0  0  0
  1  2  1  0
  2  3  2  0
  3  4  1  0
  4  5  2  0
  5  6  1  0
  6  7  1  0
  7  8  1  0
  9  8  1  1
  9 10  1  0
 10 11  2  0
 10 12  1  0
 12 13  1  0
 13 14  2  0
 14 15  1  0
 15 16  2  0
 16 17  1  0
 17 18  2  0
 18 19  1  0
 19 20  2  0
 20 21  1  0
 21 22  2  0
 21 23  1  0
 20 24  1  0
 19 25  1  0
 18 26  1  0
 16 27  1  0
 14 28  1  0
 12 29  1  0
 29 30  1  0
 30 31  1  0
 31 32  1  0
 32 33  1  0
 33 34  2  0
 34 35  1  0
 35 36  2  0
 36 37  1  0
 37 38  2  0
 37 39  1  0
 35 40  1  0
 34 41  1  0
 32 42  1  0
 31 43  1  0
 31 44  1  0
 30 45  1  6
 29 46  1  0
 29 47  1  0
  9 48  1  0
 48 49  2  0
 49 50  1  0
 50 51  1  0
 50 52  2  0
 52 53  1  0
 53 54  2  0
 54 55  1  0
 55 56  2  0
 53 57  1  0
 52 58  1  0
 49 59  1  0
  8 60  1  0
  8 61  1  0
  6 62  1  0
  6 63  1  0
  5 64  1  0
  1 65  1  0
  1 66  1  0
  1 67  1  0
 64  2  1  0
 55  7  1  0
 30  9  1  0
 38 33  1  0
 54 48  1  0
 22 13  1  0
 22 17  1  0
M  END
>  <cnnaffinities>  (52) 
[6.63636]

>  <score>  (52) 
6.63636

>  <index>  (52) 
51

>  <Smiles>  (52) 
C(c1nnc(C(N2C([C@@]3(C(=O)N(c4c(nc(c5c(c(c(c(c45)[H])[H])[H])[H])[H])[H])C([C@@]3(C(N(c3c(c(nc(n3)[H])[H])[H])[H])([H])[H])[H])([H])[H])c3c(c(Cl)c(c(c3C2=O)[H])[H])[H])([H])[H])([H])[H])o1)([H])([H])[H]

>  <h>  (52) 
<NA>

>  <Training>  (52) 
True

>  <Success>  (52) 
True

>  <enamine_searched>  (52) 
False

>  <enamine_id>  (52) 
nan

$$$$

     RDKit          3D

 66 71  0  0  0  0  0  0  0  0999 V2000
    6.5116    4.2643   21.2682 C   0  0  0  0  0  0  0  0  0  0  0  0
    7.5031    3.8957   22.2657 N   0  0  0  0  0  0  0  0  0  0  0  0
    7.0542    3.2919   23.4050 C   0  0  0  0  0  0  0  0  0  0  0  0
    5.8637    3.1022   23.5998 O   0  0  0  0  0  0  0  0  0  0  0  0
    8.0881    2.8466   24.4439 C   0  0  0  0  0  0  0  0  0  0  0  0
    8.7477    1.6216   24.0156 N   0  0  0  0  0  0  0  0  0  0  0  0
    7.9905    0.3793   23.8647 C   0  0  0  0  0  0  0  0  0  0  0  0
    8.4068   -0.4277   22.5993 C   0  0  2  0  0  0  0  0  0  0  0  0
    7.9416    0.2756   21.3015 C   0  0  0  0  0  0  0  0  0  0  0  0
    8.4528    1.2333   20.7560 O   0  0  0  0  0  0  0  0  0  0  0  0
    6.8511   -0.4061   20.8186 N   0  0  0  0  0  0  0  0  0  0  0  0
    6.0988    0.1082   19.7438 C   0  0  0  0  0  0  0  0  0  0  0  0
    6.4586   -0.1786   18.4522 C   0  0  0  0  0  0  0  0  0  0  0  0
    5.7814    0.2647   17.3708 N   0  0  0  0  0  0  0  0  0  0  0  0
    4.7368    1.0279   17.5822 C   0  0  0  0  0  0  0  0  0  0  0  0
    4.2775    1.4188   18.8724 C   0  0  0  0  0  0  0  0  0  0  0  0
    3.1694    2.2857   19.0518 C   0  0  0  0  0  0  0  0  0  0  0  0
    2.7738    2.6537   20.3097 C   0  0  0  0  0  0  0  0  0  0  0  0
    3.4657    2.1825   21.4460 C   0  0  0  0  0  0  0  0  0  0  0  0
    4.5440    1.3398   21.2982 C   0  0  0  0  0  0  0  0  0  0  0  0
    4.9715    0.9378   20.0005 C   0  0  0  0  0  0  0  0  0  0  0  0
    5.1140    1.0423   22.1727 H   0  0  0  0  0  0  0  0  0  0  0  0
    3.1721    2.5096   22.4387 H   0  0  0  0  0  0  0  0  0  0  0  0
    1.9271    3.3208   20.4394 H   0  0  0  0  0  0  0  0  0  0  0  0
    2.6621    2.6560   18.1675 H   0  0  0  0  0  0  0  0  0  0  0  0
    4.1969    1.3829   16.7060 H   0  0  0  0  0  0  0  0  0  0  0  0
    7.3341   -0.7966   18.2633 H   0  0  0  0  0  0  0  0  0  0  0  0
    6.4312   -1.5348   21.6169 C   0  0  0  0  0  0  0  0  0  0  0  0
    7.6785   -1.7990   22.4660 C   0  0  2  0  0  0  0  0  0  0  0  0
    7.4455   -2.5690   23.7697 C   0  0  0  0  0  0  0  0  0  0  0  0
    6.9694   -3.9247   23.5833 N   0  0  0  0  0  0  0  0  0  0  0  0
    5.6764   -4.2779   23.3408 C   0  0  0  0  0  0  0  0  0  0  0  0
    4.5708   -3.4857   23.7122 C   0  0  0  0  0  0  0  0  0  0  0  0
    3.3284   -4.0033   23.4085 C   0  0  0  0  0  0  0  0  0  0  0  0
    3.1468   -5.1681   22.7730 N   0  0  0  0  0  0  0  0  0  0  0  0
    4.2599   -5.8250   22.4750 C   0  0  0  0  0  0  0  0  0  0  0  0
    5.5097   -5.4684   22.7377 N   0  0  0  0  0  0  0  0  0  0  0  0
    4.1360   -6.7725   21.9486 H   0  0  0  0  0  0  0  0  0  0  0  0
    2.4252   -3.4612   23.6833 H   0  0  0  0  0  0  0  0  0  0  0  0
    4.6641   -2.5195   24.2067 H   0  0  0  0  0  0  0  0  0  0  0  0
    7.6342   -4.5851   23.2069 H   0  0  0  0  0  0  0  0  0  0  0  0
    6.7297   -2.0266   24.3931 H   0  0  0  0  0  0  0  0  0  0  0  0
    8.3964   -2.6011   24.3193 H   0  0  0  0  0  0  0  0  0  0  0  0
    8.3152   -2.4231   21.8368 H   0  0  0  0  0  0  0  0  0  0  0  0
    6.1666   -2.3810   20.9753 H   0  0  0  0  0  0  0  0  0  0  0  0
    5.5484   -1.2957   22.2267 H   0  0  0  0  0  0  0  0  0  0  0  0
    9.9161   -0.5054   22.5613 C   0  0  0  0  0  0  0  0  0  0  0  0
   10.5458   -1.4169   21.7080 C   0  0  0  0  0  0  0  0  0  0  0  0
   11.8997   -1.3312   21.4608 C   0  0  0  0  0  0  0  0  0  0  0  0
   12.5507   -2.4055   20.2501 Cl  0  0  0  0  0  0  0  0  0  0  0  0
   12.6928   -0.3701   22.0934 C   0  0  0  0  0  0  0  0  0  0  0  0
   12.0896    0.4934   22.9818 C   0  0  0  0  0  0  0  0  0  0  0  0
   10.7072    0.4809   23.1555 C   0  0  0  0  0  0  0  0  0  0  0  0
   10.1002    1.6715   23.8239 C   0  0  0  0  0  0  0  0  0  0  0  0
   10.7758    2.6476   24.1312 O   0  0  0  0  0  0  0  0  0  0  0  0
   12.6702    1.2321   23.5215 H   0  0  0  0  0  0  0  0  0  0  0  0
   13.7441   -0.2509   21.8528 H   0  0  0  0  0  0  0  0  0  0  0  0
   10.0005   -2.1635   21.1483 H   0  0  0  0  0  0  0  0  0  0  0  0
    8.1564   -0.2470   24.7523 H   0  0  0  0  0  0  0  0  0  0  0  0
    6.9241    0.6239   23.8193 H   0  0  0  0  0  0  0  0  0  0  0  0
    8.8841    3.5874   24.5716 H   0  0  0  0  0  0  0  0  0  0  0  0
    7.5843    2.7178   25.4154 H   0  0  0  0  0  0  0  0  0  0  0  0
    8.4225    3.6631   21.9182 H   0  0  0  0  0  0  0  0  0  0  0  0
    5.8019    4.9790   21.6910 H   0  0  0  0  0  0  0  0  0  0  0  0
    7.0150    4.7319   20.4244 H   0  0  0  0  0  0  0  0  0  0  0  0
    5.9595    3.3855   20.9194 H   0  0  0  0  0  0  0  0  0  0  0  0
  1  2  1  0
  2  3  1  0
  3  4  2  0
  3  5  1  0
  5  6  1  0
  6  7  1  0
  8  7  1  1
  8  9  1  0
  9 10  2  0
  9 11  1  0
 11 12  1  0
 12 13  2  0
 13 14  1  0
 14 15  2  0
 15 16  1  0
 16 17  2  0
 17 18  1  0
 18 19  2  0
 19 20  1  0
 20 21  2  0
 20 22  1  0
 19 23  1  0
 18 24  1  0
 17 25  1  0
 15 26  1  0
 13 27  1  0
 11 28  1  0
 28 29  1  0
 29 30  1  0
 30 31  1  0
 31 32  1  0
 32 33  2  0
 33 34  1  0
 34 35  2  0
 35 36  1  0
 36 37  2  0
 36 38  1  0
 34 39  1  0
 33 40  1  0
 31 41  1  0
 30 42  1  0
 30 43  1  0
 29 44  1  6
 28 45  1  0
 28 46  1  0
  8 47  1  0
 47 48  2  0
 48 49  1  0
 49 50  1  0
 49 51  2  0
 51 52  1  0
 52 53  2  0
 53 54  1  0
 54 55  2  0
 52 56  1  0
 51 57  1  0
 48 58  1  0
  7 59  1  0
  7 60  1  0
  5 61  1  0
  5 62  1  0
  2 63  1  0
  1 64  1  0
  1 65  1  0
  1 66  1  0
 54  6  1  0
 29  8  1  0
 37 32  1  0
 53 47  1  0
 21 12  1  0
 21 16  1  0
M  END
>  <cnnaffinities>  (53) 
[6.78959, 6.33854]

>  <score>  (53) 
6.78959

>  <index>  (53) 
52

>  <Smiles>  (53) 
C(N(C(=O)C(N1C([C@@]2(C(=O)N(c3c(nc(c4c(c(c(c(c34)[H])[H])[H])[H])[H])[H])C([C@@]2(C(N(c2c(c(nc(n2)[H])[H])[H])[H])([H])[H])[H])([H])[H])c2c(c(Cl)c(c(c2C1=O)[H])[H])[H])([H])[H])([H])[H])[H])([H])([H])[H]

>  <h>  (53) 
<NA>

>  <Training>  (53) 
True

>  <Success>  (53) 
True

>  <enamine_searched>  (53) 
False

>  <enamine_id>  (53) 
nan

$$$$

     RDKit          3D

 77 84  0  0  0  0  0  0  0  0999 V2000
   10.1061    2.9667   24.1971 O   0  0  0  0  0  0  0  0  0  0  0  0
    9.6987    1.8190   24.0162 C   0  0  0  0  0  0  0  0  0  0  0  0
   10.5274    0.7836   23.3014 C   0  0  0  0  0  0  0  0  0  0  0  0
   11.9182    0.9172   23.2216 C   0  0  0  0  0  0  0  0  0  0  0  0
   12.6538    0.1145   22.3603 C   0  0  0  0  0  0  0  0  0  0  0  0
   11.9771   -0.7991   21.5481 C   0  0  0  0  0  0  0  0  0  0  0  0
   12.7243   -1.5838   20.1676 Cl  0  0  0  0  0  0  0  0  0  0  0  0
   10.6157   -0.9886   21.6782 C   0  0  0  0  0  0  0  0  0  0  0  0
    9.8866   -0.2569   22.6202 C   0  0  0  0  0  0  0  0  0  0  0  0
    8.3780   -0.4023   22.6928 C   0  0  1  0  0  0  0  0  0  0  0  0
    7.8590    0.1688   24.0332 C   0  0  0  0  0  0  0  0  0  0  0  0
    8.4379    1.4573   24.3755 N   0  0  0  0  0  0  0  0  0  0  0  0
    7.5380    2.4651   24.9353 C   0  0  0  0  0  0  0  0  0  0  0  0
    6.7980    3.2486   23.8572 C   0  0  0  0  0  0  0  0  0  0  0  0
    7.7265    4.1977   23.1775 N   0  0  0  0  0  4  0  0  0  0  0  0
    8.1968    5.4560   23.9267 C   0  0  0  0  0  0  0  0  0  0  0  0
    7.6972    6.3739   22.7910 C   0  0  0  0  0  0  0  0  0  0  0  0
    8.6243    7.3286   22.0551 C   0  0  0  0  0  0  0  0  0  0  0  0
    7.7071    8.4160   22.2212 O   0  0  0  0  0  0  0  0  0  0  0  0
    6.7965    7.5950   22.9620 C   0  0  0  0  0  0  0  0  0  0  0  0
    5.8194    7.5106   22.4669 H   0  0  0  0  0  0  0  0  0  0  0  0
    6.6443    7.9617   23.9860 H   0  0  0  0  0  0  0  0  0  0  0  0
    8.7941    7.0577   21.0062 H   0  0  0  0  0  0  0  0  0  0  0  0
    9.5899    7.5280   22.5373 H   0  0  0  0  0  0  0  0  0  0  0  0
    7.1578    5.1042   22.0988 C   0  0  0  0  0  0  0  0  0  0  0  0
    6.0711    5.0338   22.0502 H   0  0  0  0  0  0  0  0  0  0  0  0
    7.5796    4.8620   21.1273 H   0  0  0  0  0  0  0  0  0  0  0  0
    9.2752    5.4141   24.0629 H   0  0  0  0  0  0  0  0  0  0  0  0
    7.6957    5.5662   24.8866 H   0  0  0  0  0  0  0  0  0  0  0  0
    8.5339    3.6744   22.8061 H   0  0  0  0  0  0  0  0  0  0  0  0
    5.9433    3.8057   24.2622 H   0  0  0  0  0  0  0  0  0  0  0  0
    6.4364    2.5641   23.0885 H   0  0  0  0  0  0  0  0  0  0  0  0
    6.8098    1.9536   25.5720 H   0  0  0  0  0  0  0  0  0  0  0  0
    8.1205    3.1362   25.5742 H   0  0  0  0  0  0  0  0  0  0  0  0
    6.7718    0.2883   23.9465 H   0  0  0  0  0  0  0  0  0  0  0  0
    8.0639   -0.5541   24.8288 H   0  0  0  0  0  0  0  0  0  0  0  0
    7.7850    0.4109   21.5210 C   0  0  0  0  0  0  0  0  0  0  0  0
    8.0176    1.5702   21.2279 O   0  0  0  0  0  0  0  0  0  0  0  0
    6.9397   -0.4010   20.8141 N   0  0  0  0  0  0  0  0  0  0  0  0
    6.1506    0.1086   19.7651 C   0  0  0  0  0  0  0  0  0  0  0  0
    6.4618   -0.2358   18.4798 C   0  0  0  0  0  0  0  0  0  0  0  0
    5.7785    0.1989   17.3986 N   0  0  0  0  0  0  0  0  0  0  0  0
    4.7663    1.0002   17.6136 C   0  0  0  0  0  0  0  0  0  0  0  0
    4.3361    1.4243   18.9016 C   0  0  0  0  0  0  0  0  0  0  0  0
    3.2312    2.2964   19.0699 C   0  0  0  0  0  0  0  0  0  0  0  0
    2.8142    2.6550   20.3200 C   0  0  0  0  0  0  0  0  0  0  0  0
    3.4793    2.1559   21.4641 C   0  0  0  0  0  0  0  0  0  0  0  0
    4.5578    1.3147   21.3269 C   0  0  0  0  0  0  0  0  0  0  0  0
    5.0323    0.9503   20.0328 C   0  0  0  0  0  0  0  0  0  0  0  0
    5.0489    0.9216   22.2143 H   0  0  0  0  0  0  0  0  0  0  0  0
    3.1288    2.4403   22.4516 H   0  0  0  0  0  0  0  0  0  0  0  0
    1.9652    3.3213   20.4402 H   0  0  0  0  0  0  0  0  0  0  0  0
    2.7400    2.6677   18.1748 H   0  0  0  0  0  0  0  0  0  0  0  0
    4.2267    1.3527   16.7360 H   0  0  0  0  0  0  0  0  0  0  0  0
    7.3107   -0.8922   18.2933 H   0  0  0  0  0  0  0  0  0  0  0  0
    6.6654   -1.6695   21.4367 C   0  0  0  0  0  0  0  0  0  0  0  0
    7.8254   -1.8360   22.4202 C   0  0  2  0  0  0  0  0  0  0  0  0
    7.3721   -2.6779   23.6046 C   0  0  0  0  0  0  0  0  0  0  0  0
    8.4689   -2.9728   24.4909 N   0  0  0  0  0  0  0  0  0  0  0  0
    8.3296   -3.8326   25.5309 C   0  0  0  0  0  0  0  0  0  0  0  0
    9.4539   -4.2533   26.1360 N   0  0  0  0  0  0  0  0  0  0  0  0
    9.2829   -5.0715   27.1686 C   0  0  0  0  0  0  0  0  0  0  0  0
    8.0300   -5.4613   27.6276 C   0  0  0  0  0  0  0  0  0  0  0  0
    6.9488   -4.9697   26.9114 C   0  0  0  0  0  0  0  0  0  0  0  0
    7.0704   -4.1789   25.8505 N   0  0  0  0  0  0  0  0  0  0  0  0
    5.9323   -5.2283   27.1986 H   0  0  0  0  0  0  0  0  0  0  0  0
    7.8965   -6.1197   28.4785 H   0  0  0  0  0  0  0  0  0  0  0  0
   10.1962   -5.4379   27.6394 H   0  0  0  0  0  0  0  0  0  0  0  0
    9.4015   -2.7025   24.2250 H   0  0  0  0  0  0  0  0  0  0  0  0
    6.9232   -3.6072   23.2390 H   0  0  0  0  0  0  0  0  0  0  0  0
    6.5780   -2.1701   24.1625 H   0  0  0  0  0  0  0  0  0  0  0  0
    8.6271   -2.3874   21.9256 H   0  0  0  0  0  0  0  0  0  0  0  0
    5.6997   -1.6571   21.9701 H   0  0  0  0  0  0  0  0  0  0  0  0
    6.6196   -2.4665   20.6892 H   0  0  0  0  0  0  0  0  0  0  0  0
   10.1278   -1.6254   20.9506 H   0  0  0  0  0  0  0  0  0  0  0  0
   13.7270    0.2436   22.2688 H   0  0  0  0  0  0  0  0  0  0  0  0
   12.4071    1.6843   23.8124 H   0  0  0  0  0  0  0  0  0  0  0  0
  1  2  2  0
  2  3  1  0
  3  4  2  0
  4  5  1  0
  5  6  2  0
  6  7  1  0
  6  8  1  0
  8  9  2  0
  9 10  1  0
 10 11  1  1
 11 12  1  0
 12 13  1  0
 13 14  1  0
 14 15  1  0
 15 16  1  0
 16 17  1  0
 17 18  1  0
 18 19  1  0
 19 20  1  0
 20 21  1  0
 20 22  1  0
 18 23  1  0
 18 24  1  0
 17 25  1  0
 25 26  1  0
 25 27  1  0
 16 28  1  0
 16 29  1  0
 15 30  1  0
 14 31  1  0
 14 32  1  0
 13 33  1  0
 13 34  1  0
 11 35  1  0
 11 36  1  0
 10 37  1  0
 37 38  2  0
 37 39  1  0
 39 40  1  0
 40 41  2  0
 41 42  1  0
 42 43  2  0
 43 44  1  0
 44 45  2  0
 45 46  1  0
 46 47  2  0
 47 48  1  0
 48 49  2  0
 48 50  1  0
 47 51  1  0
 46 52  1  0
 45 53  1  0
 43 54  1  0
 41 55  1  0
 39 56  1  0
 56 57  1  0
 57 58  1  0
 58 59  1  0
 59 60  1  0
 60 61  2  0
 61 62  1  0
 62 63  2  0
 63 64  1  0
 64 65  2  0
 64 66  1  0
 63 67  1  0
 62 68  1  0
 59 69  1  0
 58 70  1  0
 58 71  1  0
 57 72  1  6
 56 73  1  0
 56 74  1  0
  8 75  1  0
  5 76  1  0
  4 77  1  0
 12  2  1  0
 25 15  1  0
 49 40  1  0
 65 60  1  0
  9  3  1  0
 57 10  1  0
 20 17  1  0
 49 44  1  0
M  CHG  1  15   1
M  END
>  <cnnaffinities>  (54) 
[6.40217]

>  <score>  (54) 
6.40217

>  <index>  (54) 
53

>  <Smiles>  (54) 
O=C1c2c(c(c(Cl)c(c2[C@@]2(C(N1C(C([N+]1(C(C3(C(OC3([H])[H])([H])[H])C1([H])[H])([H])[H])[H])([H])[H])([H])[H])([H])[H])C(=O)N(c1c(nc(c3c(c(c(c(c13)[H])[H])[H])[H])[H])[H])C([C@@]2(C(N(c1nc(c(c(n1)[H])[H])[H])[H])([H])[H])[H])([H])[H])[H])[H])[H]

>  <h>  (54) 
<NA>

>  <Training>  (54) 
True

>  <Success>  (54) 
True

>  <enamine_searched>  (54) 
False

>  <enamine_id>  (54) 
nan

$$$$

     RDKit          3D

 66 71  0  0  0  0  0  0  0  0999 V2000
    6.4735    4.3073   21.2489 C   0  0  0  0  0  0  0  0  0  0  0  0
    7.4255    3.9123   22.2683 N   0  0  0  0  0  0  0  0  0  0  0  0
    7.0013    3.3459   23.4231 C   0  0  0  0  0  0  0  0  0  0  0  0
    5.8174    3.1710   23.6847 O   0  0  0  0  0  0  0  0  0  0  0  0
    8.1047    2.9278   24.3984 C   0  0  0  0  0  0  0  0  0  0  0  0
    8.7679    1.6981   23.9893 N   0  0  0  0  0  0  0  0  0  0  0  0
    7.9604    0.5024   23.8101 C   0  0  0  0  0  0  0  0  0  0  0  0
    8.3742   -0.3380   22.5707 C   0  0  2  0  0  0  0  0  0  0  0  0
    7.9445    0.3774   21.2690 C   0  0  0  0  0  0  0  0  0  0  0  0
    8.4388    1.3840   20.8047 O   0  0  0  0  0  0  0  0  0  0  0  0
    6.8979   -0.3235   20.7124 N   0  0  0  0  0  0  0  0  0  0  0  0
    6.1226    0.1928   19.6509 C   0  0  0  0  0  0  0  0  0  0  0  0
    6.4386   -0.1181   18.3556 C   0  0  0  0  0  0  0  0  0  0  0  0
    5.7269    0.3138   17.2899 N   0  0  0  0  0  0  0  0  0  0  0  0
    4.6847    1.0747   17.5196 C   0  0  0  0  0  0  0  0  0  0  0  0
    4.2468    1.4647   18.8189 C   0  0  0  0  0  0  0  0  0  0  0  0
    3.1323    2.3170   19.0325 C   0  0  0  0  0  0  0  0  0  0  0  0
    2.7548    2.6687   20.3001 C   0  0  0  0  0  0  0  0  0  0  0  0
    3.4654    2.1820   21.4179 C   0  0  0  0  0  0  0  0  0  0  0  0
    4.5438    1.3511   21.2367 C   0  0  0  0  0  0  0  0  0  0  0  0
    4.9713    0.9845   19.9296 C   0  0  0  0  0  0  0  0  0  0  0  0
    5.1112    1.0247   22.1024 H   0  0  0  0  0  0  0  0  0  0  0  0
    3.1913    2.4873   22.4224 H   0  0  0  0  0  0  0  0  0  0  0  0
    1.9174    3.3413   20.4535 H   0  0  0  0  0  0  0  0  0  0  0  0
    2.6021    2.6953   18.1651 H   0  0  0  0  0  0  0  0  0  0  0  0
    4.1261    1.4227   16.6510 H   0  0  0  0  0  0  0  0  0  0  0  0
    7.3050   -0.7451   18.1485 H   0  0  0  0  0  0  0  0  0  0  0  0
    6.4094   -1.4178   21.5180 C   0  0  0  0  0  0  0  0  0  0  0  0
    7.5860   -1.6770   22.4575 C   0  0  2  0  0  0  0  0  0  0  0  0
    7.1831   -2.3856   23.7418 C   0  0  0  0  0  0  0  0  0  0  0  0
    8.3766   -2.8441   24.4078 N   0  0  0  0  0  0  0  0  0  0  0  0
    8.3018   -3.5614   25.5624 C   0  0  0  0  0  0  0  0  0  0  0  0
    9.4145   -4.3373   25.9694 C   0  0  0  0  0  0  0  0  0  0  0  0
    9.3894   -5.0654   27.0657 N   0  0  0  0  0  0  0  0  0  0  0  0
    8.2508   -5.0269   27.7783 C   0  0  0  0  0  0  0  0  0  0  0  0
    7.1662   -4.2605   27.3844 C   0  0  0  0  0  0  0  0  0  0  0  0
    7.1667   -3.5252   26.2645 N   0  0  0  0  0  0  0  0  0  0  0  0
    6.2419   -4.2465   27.9607 H   0  0  0  0  0  0  0  0  0  0  0  0
    8.2228   -5.6032   28.6960 H   0  0  0  0  0  0  0  0  0  0  0  0
   10.3204   -4.3530   25.3573 H   0  0  0  0  0  0  0  0  0  0  0  0
    9.2790   -2.7037   23.9684 H   0  0  0  0  0  0  0  0  0  0  0  0
    6.5171   -3.2345   23.5138 H   0  0  0  0  0  0  0  0  0  0  0  0
    6.6135   -1.7322   24.4212 H   0  0  0  0  0  0  0  0  0  0  0  0
    8.2508   -2.3551   21.9179 H   0  0  0  0  0  0  0  0  0  0  0  0
    6.1970   -2.2800   20.8764 H   0  0  0  0  0  0  0  0  0  0  0  0
    5.4748   -1.1652   22.0479 H   0  0  0  0  0  0  0  0  0  0  0  0
    9.8886   -0.4617   22.5297 C   0  0  0  0  0  0  0  0  0  0  0  0
   10.4990   -1.3968   21.6812 C   0  0  0  0  0  0  0  0  0  0  0  0
   11.8548   -1.3175   21.4129 C   0  0  0  0  0  0  0  0  0  0  0  0
   12.5419   -2.3978   20.2267 Cl  0  0  0  0  0  0  0  0  0  0  0  0
   12.6598   -0.3509   22.0238 C   0  0  0  0  0  0  0  0  0  0  0  0
   12.0781    0.5365   22.8995 C   0  0  0  0  0  0  0  0  0  0  0  0
   10.7007    0.5185   23.1121 C   0  0  0  0  0  0  0  0  0  0  0  0
   10.1250    1.7021   23.8254 C   0  0  0  0  0  0  0  0  0  0  0  0
   10.8316    2.6347   24.1791 O   0  0  0  0  0  0  0  0  0  0  0  0
   12.6598    1.3056   23.3966 H   0  0  0  0  0  0  0  0  0  0  0  0
   13.7139   -0.2608   21.7822 H   0  0  0  0  0  0  0  0  0  0  0  0
    9.9266   -2.1669   21.1768 H   0  0  0  0  0  0  0  0  0  0  0  0
    6.9242    0.8343   23.7111 H   0  0  0  0  0  0  0  0  0  0  0  0
    8.0298   -0.1227   24.7096 H   0  0  0  0  0  0  0  0  0  0  0  0
    8.8838    3.6941   24.4434 H   0  0  0  0  0  0  0  0  0  0  0  0
    7.6352    2.8289   25.3852 H   0  0  0  0  0  0  0  0  0  0  0  0
    8.3715    3.7231   21.9689 H   0  0  0  0  0  0  0  0  0  0  0  0
    6.9885    4.8499   20.4546 H   0  0  0  0  0  0  0  0  0  0  0  0
    5.7243    4.9696   21.6884 H   0  0  0  0  0  0  0  0  0  0  0  0
    5.9658    3.4362   20.8160 H   0  0  0  0  0  0  0  0  0  0  0  0
  1  2  1  0
  2  3  1  0
  3  4  2  0
  3  5  1  0
  5  6  1  0
  6  7  1  0
  8  7  1  1
  8  9  1  0
  9 10  2  0
  9 11  1  0
 11 12  1  0
 12 13  2  0
 13 14  1  0
 14 15  2  0
 15 16  1  0
 16 17  2  0
 17 18  1  0
 18 19  2  0
 19 20  1  0
 20 21  2  0
 20 22  1  0
 19 23  1  0
 18 24  1  0
 17 25  1  0
 15 26  1  0
 13 27  1  0
 11 28  1  0
 28 29  1  0
 29 30  1  0
 30 31  1  0
 31 32  1  0
 32 33  2  0
 33 34  1  0
 34 35  2  0
 35 36  1  0
 36 37  2  0
 36 38  1  0
 35 39  1  0
 33 40  1  0
 31 41  1  0
 30 42  1  0
 30 43  1  0
 29 44  1  6
 28 45  1  0
 28 46  1  0
  8 47  1  0
 47 48  2  0
 48 49  1  0
 49 50  1  0
 49 51  2  0
 51 52  1  0
 52 53  2  0
 53 54  1  0
 54 55  2  0
 52 56  1  0
 51 57  1  0
 48 58  1  0
  7 59  1  0
  7 60  1  0
  5 61  1  0
  5 62  1  0
  2 63  1  0
  1 64  1  0
  1 65  1  0
  1 66  1  0
 54  6  1  0
 29  8  1  0
 37 32  1  0
 53 47  1  0
 21 12  1  0
 21 16  1  0
M  END
>  <cnnaffinities>  (55) 
[6.51251]

>  <score>  (55) 
6.51251

>  <index>  (55) 
54

>  <Smiles>  (55) 
C(N(C(=O)C(N1C([C@@]2(C(=O)N(c3c(nc(c4c(c(c(c(c34)[H])[H])[H])[H])[H])[H])C([C@@]2(C(N(c2c(nc(c(n2)[H])[H])[H])[H])([H])[H])[H])([H])[H])c2c(c(Cl)c(c(c2C1=O)[H])[H])[H])([H])[H])([H])[H])[H])([H])([H])[H]

>  <h>  (55) 
<NA>

>  <Training>  (55) 
True

>  <Success>  (55) 
True

>  <enamine_searched>  (55) 
False

>  <enamine_id>  (55) 
nan

$$$$

     RDKit          3D

 56 61  0  0  0  0  0  0  0  0999 V2000
    5.5669    4.8333   21.4504 C   0  0  0  0  0  0  0  0  0  0  0  0
    6.5729    4.5688   22.4578 N   0  0  0  0  0  0  0  0  0  0  0  0
    7.7720    5.1792   22.5717 C   0  0  0  0  0  0  0  0  0  0  0  0
    8.4572    4.5443   23.5750 C   0  0  0  0  0  0  0  0  0  0  0  0
    7.5823    3.5208   24.0005 C   0  0  0  0  0  0  0  0  0  0  0  0
    7.9084    2.4519   25.0086 C   0  0  0  0  0  0  0  0  0  0  0  0
    8.6886    1.3391   24.4503 N   0  0  0  0  0  0  0  0  0  0  0  0
    8.0220    0.0868   24.1437 C   0  0  0  0  0  0  0  0  0  0  0  0
    8.3705   -0.4541   22.7295 C   0  0  1  0  0  0  0  0  0  0  0  0
    7.7268   -1.8432   22.5307 C   0  0  0  0  0  0  0  0  0  0  0  0
    6.9839   -1.8082   21.1825 C   0  0  0  0  0  0  0  0  0  0  0  0
    6.8684   -0.3963   20.8853 N   0  0  0  0  0  0  0  0  0  0  0  0
    6.1287    0.1100   19.7851 C   0  0  0  0  0  0  0  0  0  0  0  0
    6.4434   -0.2241   18.4907 C   0  0  0  0  0  0  0  0  0  0  0  0
    5.7728    0.2290   17.4030 N   0  0  0  0  0  0  0  0  0  0  0  0
    4.7502    1.0229   17.5986 C   0  0  0  0  0  0  0  0  0  0  0  0
    4.2946    1.4274   18.8834 C   0  0  0  0  0  0  0  0  0  0  0  0
    3.1648    2.2709   19.0592 C   0  0  0  0  0  0  0  0  0  0  0  0
    2.7379    2.6112   20.3129 C   0  0  0  0  0  0  0  0  0  0  0  0
    3.4227    2.1244   21.4508 C   0  0  0  0  0  0  0  0  0  0  0  0
    4.5213    1.3169   21.3065 C   0  0  0  0  0  0  0  0  0  0  0  0
    4.9993    0.9554   20.0187 C   0  0  0  0  0  0  0  0  0  0  0  0
    5.0282    0.9385   22.1890 H   0  0  0  0  0  0  0  0  0  0  0  0
    3.0813    2.3946   22.4459 H   0  0  0  0  0  0  0  0  0  0  0  0
    1.8741    3.2553   20.4458 H   0  0  0  0  0  0  0  0  0  0  0  0
    2.6512    2.6384   18.1741 H   0  0  0  0  0  0  0  0  0  0  0  0
    4.2208    1.3829   16.7147 H   0  0  0  0  0  0  0  0  0  0  0  0
    7.2885   -0.8753   18.2705 H   0  0  0  0  0  0  0  0  0  0  0  0
    7.7208    0.4001   21.6186 C   0  0  0  0  0  0  0  0  0  0  0  0
    7.9194    1.5738   21.4073 O   0  0  0  0  0  0  0  0  0  0  0  0
    5.9869   -2.2624   21.2318 H   0  0  0  0  0  0  0  0  0  0  0  0
    7.5607   -2.3096   20.4036 H   0  0  0  0  0  0  0  0  0  0  0  0
    8.4782   -2.6373   22.5683 H   0  0  0  0  0  0  0  0  0  0  0  0
    7.0144   -2.0431   23.3398 H   0  0  0  0  0  0  0  0  0  0  0  0
    9.8720   -0.4182   22.5476 C   0  0  0  0  0  0  0  0  0  0  0  0
   10.4955   -1.2305   21.5961 C   0  0  0  0  0  0  0  0  0  0  0  0
   11.8623   -1.1566   21.4074 C   0  0  0  0  0  0  0  0  0  0  0  0
   12.5976   -2.0778   20.1180 Cl  0  0  0  0  0  0  0  0  0  0  0  0
   12.6358   -0.2701   22.1595 C   0  0  0  0  0  0  0  0  0  0  0  0
   12.0206    0.5671   23.0684 C   0  0  0  0  0  0  0  0  0  0  0  0
   10.6396    0.5157   23.2443 C   0  0  0  0  0  0  0  0  0  0  0  0
    9.9821    1.5835   24.0607 C   0  0  0  0  0  0  0  0  0  0  0  0
   10.5649    2.6313   24.3090 O   0  0  0  0  0  0  0  0  0  0  0  0
   12.5969    1.2704   23.6609 H   0  0  0  0  0  0  0  0  0  0  0  0
   13.6959   -0.1861   21.9710 H   0  0  0  0  0  0  0  0  0  0  0  0
    9.9258   -1.8670   20.9294 H   0  0  0  0  0  0  0  0  0  0  0  0
    8.2871   -0.6884   24.8819 H   0  0  0  0  0  0  0  0  0  0  0  0
    6.9433    0.2674   24.1879 H   0  0  0  0  0  0  0  0  0  0  0  0
    6.9882    2.0344   25.4345 H   0  0  0  0  0  0  0  0  0  0  0  0
    8.5005    2.8874   25.8195 H   0  0  0  0  0  0  0  0  0  0  0  0
    6.4303    3.5548   23.3346 N   0  0  0  0  0  0  0  0  0  0  0  0
    9.4578    4.7136   23.9491 H   0  0  0  0  0  0  0  0  0  0  0  0
    8.0508    5.9843   21.9024 H   0  0  0  0  0  0  0  0  0  0  0  0
    4.5783    4.7736   21.9104 H   0  0  0  0  0  0  0  0  0  0  0  0
    5.7261    5.8456   21.0670 H   0  0  0  0  0  0  0  0  0  0  0  0
    5.6219    4.1112   20.6245 H   0  0  0  0  0  0  0  0  0  0  0  0
  1  2  1  0
  2  3  1  0
  3  4  2  0
  4  5  1  0
  5  6  1  0
  6  7  1  0
  7  8  1  0
  9  8  1  1
  9 10  1  0
 10 11  1  0
 11 12  1  0
 12 13  1  0
 13 14  2  0
 14 15  1  0
 15 16  2  0
 16 17  1  0
 17 18  2  0
 18 19  1  0
 19 20  2  0
 20 21  1  0
 21 22  2  0
 21 23  1  0
 20 24  1  0
 19 25  1  0
 18 26  1  0
 16 27  1  0
 14 28  1  0
 12 29  1  0
 29 30  2  0
 11 31  1  0
 11 32  1  0
 10 33  1  0
 10 34  1  0
  9 35  1  0
 35 36  2  0
 36 37  1  0
 37 38  1  0
 37 39  2  0
 39 40  1  0
 40 41  2  0
 41 42  1  0
 42 43  2  0
 40 44  1  0
 39 45  1  0
 36 46  1  0
  8 47  1  0
  8 48  1  0
  6 49  1  0
  6 50  1  0
  5 51  2  0
  4 52  1  0
  3 53  1  0
  1 54  1  0
  1 55  1  0
  1 56  1  0
 51  2  1  0
 42  7  1  0
 29  9  1  0
 41 35  1  0
 22 13  1  0
 22 17  1  0
M  END
>  <cnnaffinities>  (56) 
[6.26365]

>  <score>  (56) 
6.26365

>  <index>  (56) 
55

>  <Smiles>  (56) 
C(n1c(c(c(C(N2C([C@]3(C(C(N(c4c(nc(c5c(c(c(c(c45)[H])[H])[H])[H])[H])[H])C3=O)([H])[H])([H])[H])c3c(c(Cl)c(c(c3C2=O)[H])[H])[H])([H])[H])([H])[H])n1)[H])[H])([H])([H])[H]

>  <h>  (56) 
<NA>

>  <Training>  (56) 
True

>  <Success>  (56) 
True

>  <enamine_searched>  (56) 
False

>  <enamine_id>  (56) 
nan

$$$$

     RDKit          3D

 41 43  0  0  0  0  0  0  0  0999 V2000
    8.3905    1.4743   20.6695 O   0  0  0  0  0  0  0  0  0  0  0  0
    7.9656    0.6265   21.4265 C   0  0  0  0  0  0  0  0  0  0  0  0
    6.9666   -0.4306   20.9091 C   0  0  0  0  0  0  0  0  0  0  0  0
    6.1113    0.0842   19.7711 C   0  0  0  0  0  0  0  0  0  0  0  0
    6.4257   -0.2074   18.4662 C   0  0  0  0  0  0  0  0  0  0  0  0
    5.7590    0.2456   17.3727 N   0  0  0  0  0  0  0  0  0  0  0  0
    4.7310    1.0312   17.5773 C   0  0  0  0  0  0  0  0  0  0  0  0
    4.2855    1.4252   18.8684 C   0  0  0  0  0  0  0  0  0  0  0  0
    3.1708    2.2845   19.0418 C   0  0  0  0  0  0  0  0  0  0  0  0
    2.7671    2.6505   20.2988 C   0  0  0  0  0  0  0  0  0  0  0  0
    3.4661    2.1719   21.4289 C   0  0  0  0  0  0  0  0  0  0  0  0
    4.5520    1.3382   21.2880 C   0  0  0  0  0  0  0  0  0  0  0  0
    4.9916    0.9404   19.9977 C   0  0  0  0  0  0  0  0  0  0  0  0
    5.0751    0.9854   22.1726 H   0  0  0  0  0  0  0  0  0  0  0  0
    3.1354    2.4670   22.4197 H   0  0  0  0  0  0  0  0  0  0  0  0
    1.9165    3.3125   20.4350 H   0  0  0  0  0  0  0  0  0  0  0  0
    2.6482    2.6528   18.1621 H   0  0  0  0  0  0  0  0  0  0  0  0
    4.1987    1.3988   16.6984 H   0  0  0  0  0  0  0  0  0  0  0  0
    7.2733   -0.8530   18.2421 H   0  0  0  0  0  0  0  0  0  0  0  0
    6.3331   -0.8096   21.7224 H   0  0  0  0  0  0  0  0  0  0  0  0
    7.5525   -1.2858   20.5414 H   0  0  0  0  0  0  0  0  0  0  0  0
    8.3506    0.5371   22.7726 N   0  0  0  0  0  0  0  0  0  0  0  0
    8.7802   -0.7586   23.3043 C   0  0  0  0  0  0  0  0  0  0  0  0
   10.0260   -1.3671   22.6266 C   0  0  0  0  0  0  0  0  0  0  0  0
   11.0884   -0.3445   22.2242 C   0  0  0  0  0  0  0  0  0  0  0  0
   11.5080    0.8823   23.4946 S   0  0  0  0  0  0  0  0  0  0  0  0
   10.2795    2.1499   23.0881 C   0  0  0  0  0  0  0  0  0  0  0  0
    8.8598    1.7255   23.4591 C   0  0  1  0  0  0  0  0  0  0  0  0
    7.8727    2.8903   23.3739 C   0  0  0  0  0  0  0  0  0  0  0  0
    8.1701    3.8173   24.3133 F   0  0  0  0  0  0  0  0  0  0  0  0
    6.6209    2.4719   23.6212 F   0  0  0  0  0  0  0  0  0  0  0  0
    7.8744    3.5131   22.1959 F   0  0  0  0  0  0  0  0  0  0  0  0
    8.8733    1.4802   24.5235 H   0  0  0  0  0  0  0  0  0  0  0  0
   10.5732    3.0528   23.6394 H   0  0  0  0  0  0  0  0  0  0  0  0
   10.3424    2.3618   22.0215 H   0  0  0  0  0  0  0  0  0  0  0  0
   10.7575    0.2186   21.3502 H   0  0  0  0  0  0  0  0  0  0  0  0
   12.0191   -0.8549   21.9515 H   0  0  0  0  0  0  0  0  0  0  0  0
   10.4787   -2.1020   23.3034 H   0  0  0  0  0  0  0  0  0  0  0  0
    9.7283   -1.9222   21.7251 H   0  0  0  0  0  0  0  0  0  0  0  0
    7.9455   -1.4604   23.2321 H   0  0  0  0  0  0  0  0  0  0  0  0
    8.9817   -0.6313   24.3713 H   0  0  0  0  0  0  0  0  0  0  0  0
  1  2  2  0
  2  3  1  0
  3  4  1  0
  4  5  2  0
  5  6  1  0
  6  7  2  0
  7  8  1  0
  8  9  2  0
  9 10  1  0
 10 11  2  0
 11 12  1  0
 12 13  2  0
 12 14  1  0
 11 15  1  0
 10 16  1  0
  9 17  1  0
  7 18  1  0
  5 19  1  0
  3 20  1  0
  3 21  1  0
  2 22  1  0
 22 23  1  0
 23 24  1  0
 24 25  1  0
 25 26  1  0
 26 27  1  0
 27 28  1  0
 28 29  1  0
 29 30  1  0
 29 31  1  0
 29 32  1  0
 28 33  1  1
 27 34  1  0
 27 35  1  0
 25 36  1  0
 25 37  1  0
 24 38  1  0
 24 39  1  0
 23 40  1  0
 23 41  1  0
 13  4  1  0
 28 22  1  0
 13  8  1  0
M  END
>  <cnnaffinities>  (57) 
[5.6947, 5.69377, 5.71225, 5.71231, 5.71232, 5.30176, 5.30176]

>  <score>  (57) 
5.6947

>  <index>  (57) 
56

>  <Smiles>  (57) 
O=C(C(c1c(nc(c2c(c(c(c(c12)[H])[H])[H])[H])[H])[H])([H])[H])N1C(C(C(SC([C@]1(C(F)(F)F)[H])([H])[H])([H])[H])([H])[H])([H])[H]

>  <h>  (57) 
<NA>

>  <Training>  (57) 
True

>  <Success>  (57) 
True

>  <enamine_searched>  (57) 
False

>  <enamine_id>  (57) 
nan

$$$$

     RDKit          3D

 67 72  0  0  0  0  0  0  0  0999 V2000
    6.4220    4.5134   22.4031 C   0  0  0  0  0  0  0  0  0  0  0  0
    7.2672    4.0260   23.4787 N   0  0  0  0  0  0  0  0  0  0  0  0
    6.8601    2.9715   24.2230 C   0  0  0  0  0  0  0  0  0  0  0  0
    5.7245    2.5109   24.1693 O   0  0  0  0  0  0  0  0  0  0  0  0
    7.9377    2.3653   25.1276 C   0  0  0  0  0  0  0  0  0  0  0  0
    8.7268    1.3850   24.4074 N   0  0  0  0  0  0  0  0  0  0  0  0
    8.1316    0.0828   24.1700 C   0  0  0  0  0  0  0  0  0  0  0  0
    8.3936   -0.4303   22.7366 C   0  0  2  0  0  0  0  0  0  0  0  0
    7.6592    0.4580   21.6910 C   0  0  0  0  0  0  0  0  0  0  0  0
    7.7217    1.6676   21.6047 O   0  0  0  0  0  0  0  0  0  0  0  0
    6.9127   -0.3540   20.8576 N   0  0  0  0  0  0  0  0  0  0  0  0
    6.1256    0.1444   19.7880 C   0  0  0  0  0  0  0  0  0  0  0  0
    6.3999   -0.2162   18.4898 C   0  0  0  0  0  0  0  0  0  0  0  0
    5.7179    0.2236   17.4052 N   0  0  0  0  0  0  0  0  0  0  0  0
    4.7129    1.0368   17.6042 C   0  0  0  0  0  0  0  0  0  0  0  0
    4.2945    1.4724   18.8907 C   0  0  0  0  0  0  0  0  0  0  0  0
    3.1782    2.3389   19.0462 C   0  0  0  0  0  0  0  0  0  0  0  0
    2.7659    2.7233   20.2918 C   0  0  0  0  0  0  0  0  0  0  0  0
    3.4655    2.2695   21.4326 C   0  0  0  0  0  0  0  0  0  0  0  0
    4.5566    1.4452   21.3067 C   0  0  0  0  0  0  0  0  0  0  0  0
    5.0096    1.0194   20.0253 C   0  0  0  0  0  0  0  0  0  0  0  0
    5.0978    1.1524   22.1999 H   0  0  0  0  0  0  0  0  0  0  0  0
    3.1542    2.5850   22.4246 H   0  0  0  0  0  0  0  0  0  0  0  0
    1.9089    3.3807   20.4086 H   0  0  0  0  0  0  0  0  0  0  0  0
    2.6682    2.6886   18.1518 H   0  0  0  0  0  0  0  0  0  0  0  0
    4.1684    1.3855   16.7257 H   0  0  0  0  0  0  0  0  0  0  0  0
    7.2330   -0.8827   18.2725 H   0  0  0  0  0  0  0  0  0  0  0  0
    7.3312   -1.7429   20.9899 C   0  0  0  0  0  0  0  0  0  0  0  0
    7.7801   -1.8280   22.4661 C   0  0  2  0  0  0  0  0  0  0  0  0
    6.6312   -2.2161   23.4191 C   0  0  0  0  0  0  0  0  0  0  0  0
    6.2015   -3.5741   23.1838 N   0  0  0  0  0  0  0  0  0  0  0  0
    7.0634   -4.6038   23.5180 C   0  0  0  0  0  0  0  0  0  0  0  0
    7.8055   -4.7781   24.6488 C   0  0  0  0  0  0  0  0  0  0  0  0
    8.5634   -5.9224   24.7178 N   0  0  0  0  0  0  0  0  0  0  0  0
    8.4384   -6.6287   23.6405 C   0  0  0  0  0  0  0  0  0  0  0  0
    9.1813   -7.8975   23.3909 C   0  0  0  0  0  0  0  0  0  0  0  0
    9.4002   -8.3221   24.3625 H   0  0  0  0  0  0  0  0  0  0  0  0
    8.5982   -8.6158   22.8095 H   0  0  0  0  0  0  0  0  0  0  0  0
   10.1454   -7.7031   22.9007 H   0  0  0  0  0  0  0  0  0  0  0  0
    7.3518   -5.9647   22.4544 S   0  0  0  0  0  0  0  0  0  0  0  0
    7.8119   -4.1063   25.5012 H   0  0  0  0  0  0  0  0  0  0  0  0
    5.6345   -3.7311   22.3651 H   0  0  0  0  0  0  0  0  0  0  0  0
    5.7775   -1.5357   23.3121 H   0  0  0  0  0  0  0  0  0  0  0  0
    6.9686   -2.1583   24.4616 H   0  0  0  0  0  0  0  0  0  0  0  0
    8.5295   -2.6132   22.6006 H   0  0  0  0  0  0  0  0  0  0  0  0
    8.1867   -1.9511   20.3301 H   0  0  0  0  0  0  0  0  0  0  0  0
    6.5176   -2.4161   20.7110 H   0  0  0  0  0  0  0  0  0  0  0  0
    9.9027   -0.3572   22.5179 C   0  0  0  0  0  0  0  0  0  0  0  0
   10.5787   -1.2418   21.6740 C   0  0  0  0  0  0  0  0  0  0  0  0
   11.9252   -1.0661   21.4199 C   0  0  0  0  0  0  0  0  0  0  0  0
   12.6445   -2.0154   20.1481 Cl  0  0  0  0  0  0  0  0  0  0  0  0
   12.6600   -0.0555   22.0432 C   0  0  0  0  0  0  0  0  0  0  0  0
   11.9991    0.8249   22.8802 C   0  0  0  0  0  0  0  0  0  0  0  0
   10.6242    0.7042   23.0793 C   0  0  0  0  0  0  0  0  0  0  0  0
    9.9029    1.7739   23.8415 C   0  0  0  0  0  0  0  0  0  0  0  0
   10.3270    2.9237   23.9298 O   0  0  0  0  0  0  0  0  0  0  0  0
   12.5303    1.6287   23.3846 H   0  0  0  0  0  0  0  0  0  0  0  0
   13.7171    0.0625   21.8342 H   0  0  0  0  0  0  0  0  0  0  0  0
   10.0718   -2.0453   21.1559 H   0  0  0  0  0  0  0  0  0  0  0  0
    7.0615    0.1877   24.3520 H   0  0  0  0  0  0  0  0  0  0  0  0
    8.5391   -0.6432   24.8873 H   0  0  0  0  0  0  0  0  0  0  0  0
    8.6161    3.1297   25.5081 H   0  0  0  0  0  0  0  0  0  0  0  0
    7.4420    1.8674   25.9649 H   0  0  0  0  0  0  0  0  0  0  0  0
    8.2616    4.1858   23.4112 H   0  0  0  0  0  0  0  0  0  0  0  0
    5.4472    4.8009   22.8079 H   0  0  0  0  0  0  0  0  0  0  0  0
    6.8993    5.3874   21.9519 H   0  0  0  0  0  0  0  0  0  0  0  0
    6.2584    3.7411   21.6380 H   0  0  0  0  0  0  0  0  0  0  0  0
  1  2  1  0
  2  3  1  0
  3  4  2  0
  3  5  1  0
  5  6  1  0
  6  7  1  0
  8  7  1  1
  8  9  1  0
  9 10  2  0
  9 11  1  0
 11 12  1  0
 12 13  2  0
 13 14  1  0
 14 15  2  0
 15 16  1  0
 16 17  2  0
 17 18  1  0
 18 19  2  0
 19 20  1  0
 20 21  2  0
 20 22  1  0
 19 23  1  0
 18 24  1  0
 17 25  1  0
 15 26  1  0
 13 27  1  0
 11 28  1  0
 28 29  1  0
 29 30  1  0
 30 31  1  0
 31 32  1  0
 32 33  2  0
 33 34  1  0
 34 35  2  0
 35 36  1  0
 36 37  1  0
 36 38  1  0
 36 39  1  0
 35 40  1  0
 33 41  1  0
 31 42  1  0
 30 43  1  0
 30 44  1  0
 29 45  1  6
 28 46  1  0
 28 47  1  0
  8 48  1  0
 48 49  2  0
 49 50  1  0
 50 51  1  0
 50 52  2  0
 52 53  1  0
 53 54  2  0
 54 55  1  0
 55 56  2  0
 53 57  1  0
 52 58  1  0
 49 59  1  0
  7 60  1  0
  7 61  1  0
  5 62  1  0
  5 63  1  0
  2 64  1  0
  1 65  1  0
  1 66  1  0
  1 67  1  0
 55  6  1  0
 29  8  1  0
 40 32  1  0
 54 48  1  0
 21 12  1  0
 21 16  1  0
M  END
>  <cnnaffinities>  (58) 
[7.05953]

>  <score>  (58) 
7.05953

>  <index>  (58) 
57

>  <Smiles>  (58) 
C(N(C(=O)C(N1C([C@@]2(C(=O)N(c3c(nc(c4c(c(c(c(c34)[H])[H])[H])[H])[H])[H])C([C@@]2(C(N(c2c(nc(C([H])([H])[H])s2)[H])[H])([H])[H])[H])([H])[H])c2c(c(Cl)c(c(c2C1=O)[H])[H])[H])([H])[H])([H])[H])[H])([H])([H])[H]

>  <h>  (58) 
<NA>

>  <Training>  (58) 
True

>  <Success>  (58) 
True

>  <enamine_searched>  (58) 
False

>  <enamine_id>  (58) 
nan

$$$$

     RDKit          3D

 57 62  0  0  0  0  0  0  0  0999 V2000
   10.0216   -1.4679   22.4363 C   0  0  0  0  0  0  0  0  0  0  0  0
    8.6074   -0.8964   22.3452 C   0  0  1  0  0  0  0  0  0  0  0  0
    8.2896   -0.3632   20.9391 C   0  0  0  0  0  0  0  0  0  0  0  0
    6.8455   -0.4662   20.8594 N   0  0  0  0  0  0  0  0  0  0  0  0
    6.1012    0.0745   19.7872 C   0  0  0  0  0  0  0  0  0  0  0  0
    6.4575   -0.2000   18.4909 C   0  0  0  0  0  0  0  0  0  0  0  0
    5.7968    0.2544   17.4007 N   0  0  0  0  0  0  0  0  0  0  0  0
    4.7580    1.0261   17.5980 C   0  0  0  0  0  0  0  0  0  0  0  0
    4.2983    1.4187   18.8866 C   0  0  0  0  0  0  0  0  0  0  0  0
    3.1817    2.2821   19.0420 C   0  0  0  0  0  0  0  0  0  0  0  0
    2.7793    2.6718   20.2899 C   0  0  0  0  0  0  0  0  0  0  0  0
    3.4730    2.2196   21.4343 C   0  0  0  0  0  0  0  0  0  0  0  0
    4.5519    1.3785   21.3095 C   0  0  0  0  0  0  0  0  0  0  0  0
    4.9868    0.9449   20.0248 C   0  0  0  0  0  0  0  0  0  0  0  0
    5.0827    1.0373   22.1923 H   0  0  0  0  0  0  0  0  0  0  0  0
    3.1480    2.5426   22.4195 H   0  0  0  0  0  0  0  0  0  0  0  0
    1.9299    3.3392   20.4094 H   0  0  0  0  0  0  0  0  0  0  0  0
    2.6707    2.6342   18.1496 H   0  0  0  0  0  0  0  0  0  0  0  0
    4.2272    1.3853   16.7157 H   0  0  0  0  0  0  0  0  0  0  0  0
    7.3085   -0.8489   18.2884 H   0  0  0  0  0  0  0  0  0  0  0  0
    6.3434   -1.4565   21.6790 C   0  0  0  0  0  0  0  0  0  0  0  0
    5.2321   -1.9365   21.5904 O   0  0  0  0  0  0  0  0  0  0  0  0
    7.4389   -1.8689   22.6944 C   0  0  1  0  0  0  0  0  0  0  0  0
    7.8340   -3.3461   22.4238 C   0  0  0  0  0  0  0  0  0  0  0  0
    6.7967   -4.3105   22.7641 N   0  0  0  0  0  0  0  0  0  0  0  0
    6.4144   -5.3776   21.8105 C   0  0  0  0  0  0  0  0  0  0  0  0
    7.1176   -6.7512   21.8448 C   0  0  0  0  0  0  0  0  0  0  0  0
    8.1927   -6.9503   20.8374 C   0  0  0  0  0  0  0  0  0  0  0  0
    8.5301   -6.9283   20.9796 C   0  0  0  0  0  0  0  0  0  0  0  0
    7.1635   -9.0418   22.4127 N   0  0  0  0  0  0  0  0  0  0  0  0
    7.4945   -9.0214   22.5795 C   0  0  0  0  0  0  0  0  0  0  0  0
    6.5166   -7.5592   22.5596 N   0  0  0  0  0  0  0  0  0  0  0  0
    6.5729   -9.4421   23.1843 H   0  0  0  0  0  0  0  0  0  0  0  0
    9.4872   -7.2477   21.4274 H   0  0  0  0  0  0  0  0  0  0  0  0
    8.5783   -5.9579   20.2954 H   0  0  0  0  0  0  0  0  0  0  0  0
    5.3590   -5.5446   22.0657 H   0  0  0  0  0  0  0  0  0  0  0  0
    6.3787   -4.9110   20.8098 H   0  0  0  0  0  0  0  0  0  0  0  0
    6.0042   -4.1167   23.8749 C   0  0  0  0  0  0  0  0  0  0  0  0
    5.0841   -4.8680   24.1678 O   0  0  0  0  0  0  0  0  0  0  0  0
    6.3152   -2.9068   24.6981 C   0  0  0  0  0  0  0  0  0  0  0  0
    5.8881   -2.8949   26.0252 C   0  0  0  0  0  0  0  0  0  0  0  0
    5.9559   -1.7343   26.7689 C   0  0  0  0  0  0  0  0  0  0  0  0
    6.4181   -0.5861   26.1367 C   0  0  0  0  0  0  0  0  0  0  0  0
    6.4010    0.5697   26.8226 F   0  0  0  0  0  0  0  0  0  0  0  0
    6.9020   -0.5846   24.8439 C   0  0  0  0  0  0  0  0  0  0  0  0
    6.9142   -1.7816   24.1171 C   0  0  0  0  0  0  0  0  0  0  0  0
    7.2424    0.3545   24.4226 H   0  0  0  0  0  0  0  0  0  0  0  0
    5.6295   -1.6902   27.8016 H   0  0  0  0  0  0  0  0  0  0  0  0
    5.4841   -3.8098   26.4461 H   0  0  0  0  0  0  0  0  0  0  0  0
    8.0622   -3.4066   21.3602 H   0  0  0  0  0  0  0  0  0  0  0  0
    8.7411   -3.5841   22.9912 H   0  0  0  0  0  0  0  0  0  0  0  0
    8.7905   -0.9702   20.1694 H   0  0  0  0  0  0  0  0  0  0  0  0
    8.6037    0.6755   20.8014 H   0  0  0  0  0  0  0  0  0  0  0  0
    8.5345   -0.0509   23.0305 H   0  0  0  0  0  0  0  0  0  0  0  0
   10.1731   -2.2553   21.6888 H   0  0  0  0  0  0  0  0  0  0  0  0
   10.2262   -1.9006   23.4215 H   0  0  0  0  0  0  0  0  0  0  0  0
   10.7731   -0.6945   22.2470 H   0  0  0  0  0  0  0  0  0  0  0  0
  1  2  1  0
  2  3  1  0
  3  4  1  0
  4  5  1  0
  5  6  2  0
  6  7  1  0
  7  8  2  0
  8  9  1  0
  9 10  2  0
 10 11  1  0
 11 12  2  0
 12 13  1  0
 13 14  2  0
 13 15  1  0
 12 16  1  0
 11 17  1  0
 10 18  1  0
  8 19  1  0
  6 20  1  0
  4 21  1  0
 21 22  2  0
 21 23  1  0
 23 24  1  6
 24 25  1  0
 25 26  1  0
 26 27  1  0
 27 28  2  0
 28 29  1  0
 29 30  2  0
 30 31  1  0
 31 32  2  0
 31 33  1  0
 29 34  1  0
 28 35  1  0
 26 36  1  0
 26 37  1  0
 25 38  1  0
 38 39  2  0
 38 40  1  0
 40 41  2  0
 41 42  1  0
 42 43  2  0
 43 44  1  0
 43 45  1  0
 45 46  2  0
 45 47  1  0
 42 48  1  0
 41 49  1  0
 24 50  1  0
 24 51  1  0
  3 52  1  0
  3 53  1  0
  2 54  1  1
  1 55  1  0
  1 56  1  0
  1 57  1  0
 23  2  1  0
 32 27  1  0
 46 40  1  0
 14  5  1  0
 46 23  1  0
 14  9  1  0
M  END
>  <cnnaffinities>  (59) 
[6.36175]

>  <score>  (59) 
6.36175

>  <index>  (59) 
58

>  <Smiles>  (59) 
C([C@]1(C(N(c2c(nc(c3c(c(c(c(c23)[H])[H])[H])[H])[H])[H])C(=O)[C@]21C(N(C(c1c(c(nc(n1)[H])[H])[H])([H])[H])C(=O)c1c(c(c(F)c(c21)[H])[H])[H])([H])[H])([H])[H])[H])([H])([H])[H]

>  <h>  (59) 
<NA>

>  <Training>  (59) 
True

>  <Success>  (59) 
True

>  <enamine_searched>  (59) 
False

>  <enamine_id>  (59) 
nan

$$$$

     RDKit          3D

 60 65  0  0  0  0  0  0  0  0999 V2000
   12.1871   -0.9522   22.2773 C   0  0  0  0  0  0  0  0  0  0  0  0
   10.8808   -0.4449   22.3564 O   0  0  0  0  0  0  0  0  0  0  0  0
    9.9264   -1.4650   22.5124 C   0  0  0  0  0  0  0  0  0  0  0  0
    8.5466   -0.8453   22.3635 C   0  0  1  0  0  0  0  0  0  0  0  0
    8.3000   -0.3279   20.9328 C   0  0  0  0  0  0  0  0  0  0  0  0
    6.8546   -0.3605   20.8413 N   0  0  0  0  0  0  0  0  0  0  0  0
    6.1255    0.1532   19.7561 C   0  0  0  0  0  0  0  0  0  0  0  0
    6.4698   -0.1587   18.4673 C   0  0  0  0  0  0  0  0  0  0  0  0
    5.7921    0.2731   17.3802 N   0  0  0  0  0  0  0  0  0  0  0  0
    4.7487    1.0400   17.5793 C   0  0  0  0  0  0  0  0  0  0  0  0
    4.2956    1.4462   18.8658 C   0  0  0  0  0  0  0  0  0  0  0  0
    3.1721    2.2964   19.0291 C   0  0  0  0  0  0  0  0  0  0  0  0
    2.7717    2.6834   20.2786 C   0  0  0  0  0  0  0  0  0  0  0  0
    3.4726    2.2359   21.4216 C   0  0  0  0  0  0  0  0  0  0  0  0
    4.5602    1.4106   21.2896 C   0  0  0  0  0  0  0  0  0  0  0  0
    4.9964    0.9925   19.9997 C   0  0  0  0  0  0  0  0  0  0  0  0
    5.0895    1.0555   22.1680 H   0  0  0  0  0  0  0  0  0  0  0  0
    3.1437    2.5479   22.4089 H   0  0  0  0  0  0  0  0  0  0  0  0
    1.9185    3.3452   20.3996 H   0  0  0  0  0  0  0  0  0  0  0  0
    2.6535    2.6364   18.1370 H   0  0  0  0  0  0  0  0  0  0  0  0
    4.2072    1.3812   16.6967 H   0  0  0  0  0  0  0  0  0  0  0  0
    7.3175   -0.8140   18.2684 H   0  0  0  0  0  0  0  0  0  0  0  0
    6.2828   -1.3044   21.6705 C   0  0  0  0  0  0  0  0  0  0  0  0
    5.1613   -1.7404   21.5274 O   0  0  0  0  0  0  0  0  0  0  0  0
    7.3342   -1.7597   22.7111 C   0  0  1  0  0  0  0  0  0  0  0  0
    7.5768   -3.2582   22.4136 C   0  0  0  0  0  0  0  0  0  0  0  0
    6.3487   -3.9904   22.6744 N   0  0  0  0  0  0  0  0  0  0  0  0
    5.7787   -4.8989   21.6814 C   0  0  0  0  0  0  0  0  0  0  0  0
    6.6378   -6.1117   21.6196 C   0  0  0  0  0  0  0  0  0  0  0  0
    7.7700   -6.1812   20.9647 N   0  0  0  0  0  0  0  0  0  0  0  0
    8.4309   -7.2369   21.5281 C   0  0  0  0  0  0  0  0  0  0  0  0
    7.6841   -7.8233   22.5114 C   0  0  0  0  0  0  0  0  0  0  0  0
    6.5053   -7.1080   22.5285 N   0  0  0  0  0  0  0  0  0  0  0  0
    5.7325   -7.2007   23.1684 H   0  0  0  0  0  0  0  0  0  0  0  0
    7.8519   -8.6642   23.1636 H   0  0  0  0  0  0  0  0  0  0  0  0
    9.4455   -7.4014   21.2188 H   0  0  0  0  0  0  0  0  0  0  0  0
    4.7662   -5.1570   22.0088 H   0  0  0  0  0  0  0  0  0  0  0  0
    5.7548   -4.3942   20.7116 H   0  0  0  0  0  0  0  0  0  0  0  0
    5.8143   -3.9779   23.9261 C   0  0  0  0  0  0  0  0  0  0  0  0
    5.0322   -4.8412   24.3088 O   0  0  0  0  0  0  0  0  0  0  0  0
    6.2268   -2.8034   24.7604 C   0  0  0  0  0  0  0  0  0  0  0  0
    5.9029   -2.8033   26.1180 C   0  0  0  0  0  0  0  0  0  0  0  0
    5.9998   -1.6394   26.8550 C   0  0  0  0  0  0  0  0  0  0  0  0
    6.4297   -0.4849   26.2046 C   0  0  0  0  0  0  0  0  0  0  0  0
    6.3548    1.0323   27.0501 Cl  0  0  0  0  0  0  0  0  0  0  0  0
    6.8830   -0.5032   24.8979 C   0  0  0  0  0  0  0  0  0  0  0  0
    6.8252   -1.6852   24.1509 C   0  0  0  0  0  0  0  0  0  0  0  0
    7.2664    0.4128   24.4671 H   0  0  0  0  0  0  0  0  0  0  0  0
    5.7288   -1.6051   27.9041 H   0  0  0  0  0  0  0  0  0  0  0  0
    5.5618   -3.7230   26.5819 H   0  0  0  0  0  0  0  0  0  0  0  0
    8.3938   -3.6536   23.0363 H   0  0  0  0  0  0  0  0  0  0  0  0
    7.8561   -3.4111   21.3728 H   0  0  0  0  0  0  0  0  0  0  0  0
    8.6725    0.6878   20.7814 H   0  0  0  0  0  0  0  0  0  0  0  0
    8.7729   -0.9731   20.1767 H   0  0  0  0  0  0  0  0  0  0  0  0
    8.5118    0.0284   23.0136 H   0  0  0  0  0  0  0  0  0  0  0  0
   10.0336   -1.9564   23.4943 H   0  0  0  0  0  0  0  0  0  0  0  0
   10.0678   -2.2411   21.7375 H   0  0  0  0  0  0  0  0  0  0  0  0
   12.4978   -1.4583   23.2056 H   0  0  0  0  0  0  0  0  0  0  0  0
   12.2810   -1.6714   21.4492 H   0  0  0  0  0  0  0  0  0  0  0  0
   12.8640   -0.1144   22.0947 H   0  0  0  0  0  0  0  0  0  0  0  0
  1  2  1  0
  2  3  1  0
  3  4  1  0
  4  5  1  0
  5  6  1  0
  6  7  1  0
  7  8  2  0
  8  9  1  0
  9 10  2  0
 10 11  1  0
 11 12  2  0
 12 13  1  0
 13 14  2  0
 14 15  1  0
 15 16  2  0
 15 17  1  0
 14 18  1  0
 13 19  1  0
 12 20  1  0
 10 21  1  0
  8 22  1  0
  6 23  1  0
 23 24  2  0
 23 25  1  0
 25 26  1  6
 26 27  1  0
 27 28  1  0
 28 29  1  0
 29 30  2  0
 30 31  1  0
 31 32  2  0
 32 33  1  0
 33 34  1  0
 32 35  1  0
 31 36  1  0
 28 37  1  0
 28 38  1  0
 27 39  1  0
 39 40  2  0
 39 41  1  0
 41 42  2  0
 42 43  1  0
 43 44  2  0
 44 45  1  0
 44 46  1  0
 46 47  2  0
 46 48  1  0
 43 49  1  0
 42 50  1  0
 26 51  1  0
 26 52  1  0
  5 53  1  0
  5 54  1  0
  4 55  1  1
  3 56  1  0
  3 57  1  0
  1 58  1  0
  1 59  1  0
  1 60  1  0
 25  4  1  0
 33 29  1  0
 47 41  1  0
 16  7  1  0
 47 25  1  0
 16 11  1  0
M  END
>  <cnnaffinities>  (60) 
[6.60964, 6.5217, 6.47758]

>  <score>  (60) 
6.60964

>  <index>  (60) 
59

>  <Smiles>  (60) 
C(OC([C@]1(C(N(c2c(nc(c3c(c(c(c(c23)[H])[H])[H])[H])[H])[H])C(=O)[C@]21C(N(C(c1nc(c(n1[H])[H])[H])([H])[H])C(=O)c1c(c(c(Cl)c(c21)[H])[H])[H])([H])[H])([H])[H])[H])([H])[H])([H])([H])[H]

>  <h>  (60) 
<NA>

>  <Training>  (60) 
True

>  <Success>  (60) 
True

>  <enamine_searched>  (60) 
False

>  <enamine_id>  (60) 
nan

$$$$

     RDKit          3D

 38 41  0  0  0  0  0  0  0  0999 V2000
    8.5195    1.0483   20.1599 O   0  0  0  0  0  0  0  0  0  0  0  0
    7.9115    0.5112   21.0694 C   0  0  0  0  0  0  0  0  0  0  0  0
    6.8172   -0.5230   20.7560 C   0  0  0  0  0  0  0  0  0  0  0  0
    5.9653    0.0205   19.6516 C   0  0  0  0  0  0  0  0  0  0  0  0
    6.3130   -0.2167   18.3472 C   0  0  0  0  0  0  0  0  0  0  0  0
    5.6614    0.2856   17.2724 N   0  0  0  0  0  0  0  0  0  0  0  0
    4.6483    1.0792   17.5065 C   0  0  0  0  0  0  0  0  0  0  0  0
    4.1973    1.4362   18.8039 C   0  0  0  0  0  0  0  0  0  0  0  0
    3.1138    2.3254   18.9996 C   0  0  0  0  0  0  0  0  0  0  0  0
    2.7347    2.6904   20.2566 C   0  0  0  0  0  0  0  0  0  0  0  0
    3.4313    2.1918   21.3779 C   0  0  0  0  0  0  0  0  0  0  0  0
    4.4855    1.3225   21.2191 C   0  0  0  0  0  0  0  0  0  0  0  0
    4.8873    0.9117   19.9212 C   0  0  0  0  0  0  0  0  0  0  0  0
    5.0102    0.9743   22.1021 H   0  0  0  0  0  0  0  0  0  0  0  0
    3.1394    2.4946   22.3772 H   0  0  0  0  0  0  0  0  0  0  0  0
    1.9016    3.3735   20.4064 H   0  0  0  0  0  0  0  0  0  0  0  0
    2.6167    2.7181   18.1166 H   0  0  0  0  0  0  0  0  0  0  0  0
    4.1389    1.4990   16.6396 H   0  0  0  0  0  0  0  0  0  0  0  0
    7.1784   -0.8374   18.1111 H   0  0  0  0  0  0  0  0  0  0  0  0
    7.3357   -1.4316   20.4183 H   0  0  0  0  0  0  0  0  0  0  0  0
    6.2313   -0.8309   21.6262 H   0  0  0  0  0  0  0  0  0  0  0  0
    8.2315    0.7833   22.3682 N   0  0  0  0  0  0  0  0  0  0  0  0
    7.4225    0.4554   23.5335 C   0  0  0  0  0  0  0  0  0  0  0  0
    8.0653   -0.7230   24.2498 C   0  0  0  0  0  0  0  0  0  0  0  0
    9.5310   -0.4225   24.3935 C   0  0  0  0  0  0  0  0  0  0  0  0
   10.5301   -1.1763   25.5601 S   0  0  0  0  0  0  0  0  0  0  0  0
   11.9065   -0.2497   25.0984 C   0  0  0  0  0  0  0  0  0  0  0  0
   11.6118    0.5753   24.0540 C   0  0  0  0  0  0  0  0  0  0  0  0
   10.2412    0.4844   23.6677 C   0  0  0  0  0  0  0  0  0  0  0  0
    9.5661    1.3221   22.6288 C   0  0  0  0  0  0  0  0  0  0  0  0
   10.1554    1.3090   21.7046 H   0  0  0  0  0  0  0  0  0  0  0  0
    9.5119    2.3777   22.9426 H   0  0  0  0  0  0  0  0  0  0  0  0
   12.3380    1.2139   23.5607 H   0  0  0  0  0  0  0  0  0  0  0  0
   12.8161   -0.3432   25.6787 H   0  0  0  0  0  0  0  0  0  0  0  0
    7.5727   -0.9130   25.2075 H   0  0  0  0  0  0  0  0  0  0  0  0
    7.9588   -1.6299   23.6390 H   0  0  0  0  0  0  0  0  0  0  0  0
    6.3895    0.2364   23.2484 H   0  0  0  0  0  0  0  0  0  0  0  0
    7.3784    1.3357   24.1935 H   0  0  0  0  0  0  0  0  0  0  0  0
  1  2  2  0
  2  3  1  0
  3  4  1  0
  4  5  2  0
  5  6  1  0
  6  7  2  0
  7  8  1  0
  8  9  2  0
  9 10  1  0
 10 11  2  0
 11 12  1  0
 12 13  2  0
 12 14  1  0
 11 15  1  0
 10 16  1  0
  9 17  1  0
  7 18  1  0
  5 19  1  0
  3 20  1  0
  3 21  1  0
  2 22  1  0
 22 23  1  0
 23 24  1  0
 24 25  1  0
 25 26  1  0
 26 27  1  0
 27 28  2  0
 28 29  1  0
 29 30  1  0
 30 31  1  0
 30 32  1  0
 28 33  1  0
 27 34  1  0
 24 35  1  0
 24 36  1  0
 23 37  1  0
 23 38  1  0
 13  4  1  0
 30 22  1  0
 13  8  1  0
 29 25  2  0
M  END
>  <cnnaffinities>  (61) 
[5.29593, 5.19078]

>  <score>  (61) 
5.29593

>  <index>  (61) 
60

>  <Smiles>  (61) 
O=C(C(c1c(nc(c2c(c(c(c(c12)[H])[H])[H])[H])[H])[H])([H])[H])N1C(C(c2sc(c(c2C1([H])[H])[H])[H])([H])[H])([H])[H]

>  <h>  (61) 
<NA>

>  <Training>  (61) 
True

>  <Success>  (61) 
True

>  <enamine_searched>  (61) 
False

>  <enamine_id>  (61) 
nan

$$$$

     RDKit          3D

 64 70  0  0  0  0  0  0  0  0999 V2000
   10.9610    2.6270   23.9984 O   0  0  0  0  0  0  0  0  0  0  0  0
   10.3112    1.6292   23.7059 C   0  0  0  0  0  0  0  0  0  0  0  0
   10.8488    0.5907   22.7799 C   0  0  0  0  0  0  0  0  0  0  0  0
   12.1999    0.6651   22.4520 C   0  0  0  0  0  0  0  0  0  0  0  0
   12.7828   -0.2976   21.6567 C   0  0  0  0  0  0  0  0  0  0  0  0
   11.9837   -1.3374   21.1707 C   0  0  0  0  0  0  0  0  0  0  0  0
   12.6290   -2.6189   20.1751 Cl  0  0  0  0  0  0  0  0  0  0  0  0
   10.6279   -1.3773   21.4340 C   0  0  0  0  0  0  0  0  0  0  0  0
   10.0361   -0.4315   22.2722 C   0  0  0  0  0  0  0  0  0  0  0  0
    8.5475   -0.4708   22.6053 C   0  0  1  0  0  0  0  0  0  0  0  0
    8.4099    0.0924   24.0502 C   0  0  0  0  0  0  0  0  0  0  0  0
    9.0725    1.3773   24.2248 N   0  0  0  0  0  0  0  0  0  0  0  0
    8.4045    2.4700   24.9248 C   0  0  0  0  0  0  0  0  0  0  0  0
    7.6750    3.4053   23.9958 C   0  0  0  0  0  0  0  0  0  0  0  0
    8.3112    4.4419   23.3521 C   0  0  0  0  0  0  0  0  0  0  0  0
    7.5315    5.2520   22.5285 C   0  0  0  0  0  0  0  0  0  0  0  0
    6.2263    5.0787   22.3342 N   0  0  0  0  0  0  0  0  0  0  0  0
    5.6204    4.0747   22.9469 N   0  0  0  0  0  0  0  0  0  0  0  0
    6.3137    3.2591   23.7316 C   0  0  0  0  0  0  0  0  0  0  0  0
    5.7429    2.4524   24.1836 H   0  0  0  0  0  0  0  0  0  0  0  0
    7.9758    6.0888   22.0022 H   0  0  0  0  0  0  0  0  0  0  0  0
    9.3797    4.6200   23.4773 H   0  0  0  0  0  0  0  0  0  0  0  0
    7.7116    2.0590   25.6677 H   0  0  0  0  0  0  0  0  0  0  0  0
    9.1678    3.0420   25.4546 H   0  0  0  0  0  0  0  0  0  0  0  0
    8.8560   -0.6460   24.7389 H   0  0  0  0  0  0  0  0  0  0  0  0
    7.3536    0.2285   24.2977 H   0  0  0  0  0  0  0  0  0  0  0  0
    7.7804    0.4103   21.5915 C   0  0  0  0  0  0  0  0  0  0  0  0
    7.9637    1.5911   21.3841 O   0  0  0  0  0  0  0  0  0  0  0  0
    6.8762   -0.3770   20.9073 N   0  0  0  0  0  0  0  0  0  0  0  0
    6.1236    0.1156   19.8136 C   0  0  0  0  0  0  0  0  0  0  0  0
    6.4421   -0.2261   18.5227 C   0  0  0  0  0  0  0  0  0  0  0  0
    5.7777    0.2157   17.4293 N   0  0  0  0  0  0  0  0  0  0  0  0
    4.7521    1.0069   17.6188 C   0  0  0  0  0  0  0  0  0  0  0  0
    4.2947    1.4132   18.9023 C   0  0  0  0  0  0  0  0  0  0  0  0
    3.1706    2.2657   19.0581 C   0  0  0  0  0  0  0  0  0  0  0  0
    2.7494    2.6340   20.3049 C   0  0  0  0  0  0  0  0  0  0  0  0
    3.4339    2.1731   21.4496 C   0  0  0  0  0  0  0  0  0  0  0  0
    4.5295    1.3548   21.3257 C   0  0  0  0  0  0  0  0  0  0  0  0
    4.9910    0.9569   20.0425 C   0  0  0  0  0  0  0  0  0  0  0  0
    5.0723    1.0406   22.2130 H   0  0  0  0  0  0  0  0  0  0  0  0
    3.1431    2.5233   22.4359 H   0  0  0  0  0  0  0  0  0  0  0  0
    1.8920    3.2905   20.4226 H   0  0  0  0  0  0  0  0  0  0  0  0
    2.6648    2.6230   18.1653 H   0  0  0  0  0  0  0  0  0  0  0  0
    4.2292    1.3680   16.7335 H   0  0  0  0  0  0  0  0  0  0  0  0
    7.2946   -0.8727   18.3185 H   0  0  0  0  0  0  0  0  0  0  0  0
    7.1084   -1.7915   21.0944 C   0  0  0  0  0  0  0  0  0  0  0  0
    7.8822   -1.8820   22.4276 C   0  0  2  0  0  0  0  0  0  0  0  0
    6.9817   -2.3430   23.6070 C   0  0  0  0  0  0  0  0  0  0  0  0
    6.4381   -3.6884   23.4594 N   0  0  0  0  0  0  0  0  0  0  0  0
    7.1895   -4.8262   23.5969 C   0  0  0  0  0  0  0  0  0  0  0  0
    6.9713   -5.9373   22.9463 N   0  0  0  0  0  0  0  0  0  0  0  0
    7.8822   -6.9128   23.2569 N   0  0  0  0  0  0  0  0  0  0  0  0
    8.7426   -6.5489   24.1470 C   0  0  0  0  0  0  0  0  0  0  0  0
    8.5153   -4.9155   24.7186 S   0  0  0  0  0  0  0  0  0  0  0  0
    9.5497   -7.1870   24.5035 H   0  0  0  0  0  0  0  0  0  0  0  0
    5.6507   -3.8058   22.8384 H   0  0  0  0  0  0  0  0  0  0  0  0
    7.5633   -2.3159   24.5345 H   0  0  0  0  0  0  0  0  0  0  0  0
    6.1369   -1.6573   23.7372 H   0  0  0  0  0  0  0  0  0  0  0  0
    8.6543   -2.6587   22.3679 H   0  0  0  0  0  0  0  0  0  0  0  0
    6.1508   -2.3267   21.0860 H   0  0  0  0  0  0  0  0  0  0  0  0
    7.7249   -2.1814   20.2772 H   0  0  0  0  0  0  0  0  0  0  0  0
   10.0606   -2.1596   20.9457 H   0  0  0  0  0  0  0  0  0  0  0  0
   13.8349   -0.2096   21.4094 H   0  0  0  0  0  0  0  0  0  0  0  0
   12.7947    1.4806   22.8518 H   0  0  0  0  0  0  0  0  0  0  0  0
  1  2  2  0
  2  3  1  0
  3  4  2  0
  4  5  1  0
  5  6  2  0
  6  7  1  0
  6  8  1  0
  8  9  2  0
  9 10  1  0
 10 11  1  1
 11 12  1  0
 12 13  1  0
 13 14  1  0
 14 15  2  0
 15 16  1  0
 16 17  2  0
 17 18  1  0
 18 19  2  0
 19 20  1  0
 16 21  1  0
 15 22  1  0
 13 23  1  0
 13 24  1  0
 11 25  1  0
 11 26  1  0
 10 27  1  0
 27 28  2  0
 27 29  1  0
 29 30  1  0
 30 31  2  0
 31 32  1  0
 32 33  2  0
 33 34  1  0
 34 35  2  0
 35 36  1  0
 36 37  2  0
 37 38  1  0
 38 39  2  0
 38 40  1  0
 37 41  1  0
 36 42  1  0
 35 43  1  0
 33 44  1  0
 31 45  1  0
 29 46  1  0
 46 47  1  0
 47 48  1  0
 48 49  1  0
 49 50  1  0
 50 51  2  0
 51 52  1  0
 52 53  2  0
 53 54  1  0
 53 55  1  0
 49 56  1  0
 48 57  1  0
 48 58  1  0
 47 59  1  6
 46 60  1  0
 46 61  1  0
  8 62  1  0
  5 63  1  0
  4 64  1  0
 12  2  1  0
 19 14  1  0
 39 30  1  0
 54 50  1  0
  9  3  1  0
 47 10  1  0
 39 34  1  0
M  END
>  <cnnaffinities>  (62) 
[6.9478]

>  <score>  (62) 
6.9478

>  <index>  (62) 
61

>  <Smiles>  (62) 
O=C1c2c(c(c(Cl)c(c2[C@@]2(C(N1C(c1c(c(nnc1[H])[H])[H])([H])[H])([H])[H])C(=O)N(c1c(nc(c3c(c(c(c(c13)[H])[H])[H])[H])[H])[H])C([C@@]2(C(N(c1nnc(s1)[H])[H])([H])[H])[H])([H])[H])[H])[H])[H]

>  <h>  (62) 
<NA>

>  <Training>  (62) 
True

>  <Success>  (62) 
True

>  <enamine_searched>  (62) 
False

>  <enamine_id>  (62) 
nan

$$$$

     RDKit          3D

 70 76  0  0  0  0  0  0  0  0999 V2000
    7.0263   -2.5599   23.8634 C   0  0  0  0  0  0  0  0  0  0  0  0
    7.5107   -1.9243   22.5617 C   0  0  1  0  0  0  0  0  0  0  0  0
    6.3627   -1.6372   21.5827 C   0  0  0  0  0  0  0  0  0  0  0  0
    6.8423   -0.5065   20.8216 N   0  0  0  0  0  0  0  0  0  0  0  0
    6.1074    0.0733   19.7610 C   0  0  0  0  0  0  0  0  0  0  0  0
    6.4504   -0.2162   18.4681 C   0  0  0  0  0  0  0  0  0  0  0  0
    5.7820    0.2467   17.3831 N   0  0  0  0  0  0  0  0  0  0  0  0
    4.7486    1.0213   17.5932 C   0  0  0  0  0  0  0  0  0  0  0  0
    4.2951    1.4112   18.8863 C   0  0  0  0  0  0  0  0  0  0  0  0
    3.1780    2.2669   19.0605 C   0  0  0  0  0  0  0  0  0  0  0  0
    2.7739    2.6326   20.3139 C   0  0  0  0  0  0  0  0  0  0  0  0
    3.4703    2.1673   21.4536 C   0  0  0  0  0  0  0  0  0  0  0  0
    4.5542    1.3364   21.3140 C   0  0  0  0  0  0  0  0  0  0  0  0
    4.9920    0.9320   20.0183 C   0  0  0  0  0  0  0  0  0  0  0  0
    5.0848    0.9961   22.2005 H   0  0  0  0  0  0  0  0  0  0  0  0
    3.1414    2.4690   22.4439 H   0  0  0  0  0  0  0  0  0  0  0  0
    1.9199    3.2909   20.4458 H   0  0  0  0  0  0  0  0  0  0  0  0
    2.6632    2.6274   18.1737 H   0  0  0  0  0  0  0  0  0  0  0  0
    4.2076    1.3869   16.7179 H   0  0  0  0  0  0  0  0  0  0  0  0
    7.3102   -0.8561   18.2736 H   0  0  0  0  0  0  0  0  0  0  0  0
    7.9226    0.1409   21.3720 C   0  0  0  0  0  0  0  0  0  0  0  0
    8.4585    1.1154   20.8855 O   0  0  0  0  0  0  0  0  0  0  0  0
    8.3072   -0.5858   22.6733 C   0  0  1  0  0  0  0  0  0  0  0  0
    7.8910    0.2295   23.9258 C   0  0  0  0  0  0  0  0  0  0  0  0
    8.6747    1.4354   24.1364 N   0  0  0  0  0  0  0  0  0  0  0  0
    8.0216    2.7390   24.1210 C   0  0  0  0  0  0  0  0  0  0  0  0
    8.0464    3.4264   25.4825 C   0  0  0  0  0  0  0  0  0  0  0  0
    7.5293    2.4975   26.5516 N   0  0  2  0  0  4  0  0  0  0  0  0
    6.0367    2.2365   26.5555 C   0  0  0  0  0  0  0  0  0  0  0  0
    5.4377    3.2434   27.5516 C   0  0  0  0  0  0  0  0  0  0  0  0
    6.5977    3.7686   28.4027 C   0  0  0  0  0  0  0  0  0  0  0  0
    6.4397    3.8827   29.9255 C   0  0  0  0  0  0  0  0  0  0  0  0
    6.6537    5.2975   29.9062 O   0  0  0  0  0  0  0  0  0  0  0  0
    6.8163    5.2895   28.4863 C   0  0  0  0  0  0  0  0  0  0  0  0
    7.8218    5.6173   28.1933 H   0  0  0  0  0  0  0  0  0  0  0  0
    6.0652    5.9145   27.9901 H   0  0  0  0  0  0  0  0  0  0  0  0
    7.2170    3.3699   30.5064 H   0  0  0  0  0  0  0  0  0  0  0  0
    5.4543    3.6265   30.3314 H   0  0  0  0  0  0  0  0  0  0  0  0
    7.7938    2.9400   27.9578 C   0  0  0  0  0  0  0  0  0  0  0  0
    7.8720    2.0550   28.5923 H   0  0  0  0  0  0  0  0  0  0  0  0
    8.7340    3.4866   28.0259 H   0  0  0  0  0  0  0  0  0  0  0  0
    4.6807    2.7595   28.1709 H   0  0  0  0  0  0  0  0  0  0  0  0
    4.9452    4.0597   27.0189 H   0  0  0  0  0  0  0  0  0  0  0  0
    5.6335    2.3460   25.5512 H   0  0  0  0  0  0  0  0  0  0  0  0
    5.8823    1.2024   26.8782 H   0  0  0  0  0  0  0  0  0  0  0  0
    8.0215    1.6152   26.3753 H   0  0  0  0  0  0  0  0  0  0  0  0
    7.4550    4.3437   25.4674 H   0  0  0  0  0  0  0  0  0  0  0  0
    9.0752    3.6938   25.7359 H   0  0  0  0  0  0  0  0  0  0  0  0
    6.9926    2.5872   23.7770 H   0  0  0  0  0  0  0  0  0  0  0  0
    8.5364    3.3606   23.3827 H   0  0  0  0  0  0  0  0  0  0  0  0
   10.0239    1.4556   23.9097 C   0  0  0  0  0  0  0  0  0  0  0  0
   10.7038    2.4619   24.0981 O   0  0  0  0  0  0  0  0  0  0  0  0
   10.6050    0.1898   23.3982 C   0  0  0  0  0  0  0  0  0  0  0  0
   11.9715    0.0032   23.5273 C   0  0  0  0  0  0  0  0  0  0  0  0
   12.5612   -1.1007   22.9487 C   0  0  0  0  0  0  0  0  0  0  0  0
   11.7960   -1.9611   22.1467 C   0  0  0  0  0  0  0  0  0  0  0  0
   12.4636   -3.2904   21.2201 Cl  0  0  0  0  0  0  0  0  0  0  0  0
   10.4350   -1.7754   22.0302 C   0  0  0  0  0  0  0  0  0  0  0  0
    9.8077   -0.7459   22.7307 C   0  0  0  0  0  0  0  0  0  0  0  0
    9.8847   -2.4284   21.3617 H   0  0  0  0  0  0  0  0  0  0  0  0
   13.6135   -1.2429   23.1309 H   0  0  0  0  0  0  0  0  0  0  0  0
   12.5336    0.7504   24.0855 H   0  0  0  0  0  0  0  0  0  0  0  0
    6.8310    0.5089   23.8795 H   0  0  0  0  0  0  0  0  0  0  0  0
    8.0292   -0.4304   24.7887 H   0  0  0  0  0  0  0  0  0  0  0  0
    6.1490   -2.4808   20.9150 H   0  0  0  0  0  0  0  0  0  0  0  0
    5.4360   -1.3980   22.1248 H   0  0  0  0  0  0  0  0  0  0  0  0
    8.1720   -2.6438   22.0796 H   0  0  0  0  0  0  0  0  0  0  0  0
    6.3021   -1.9092   24.3646 H   0  0  0  0  0  0  0  0  0  0  0  0
    7.8459   -2.7558   24.5641 H   0  0  0  0  0  0  0  0  0  0  0  0
    6.5240   -3.5152   23.6747 H   0  0  0  0  0  0  0  0  0  0  0  0
  1  2  1  0
  2  3  1  0
  3  4  1  0
  4  5  1  0
  5  6  2  0
  6  7  1  0
  7  8  2  0
  8  9  1  0
  9 10  2  0
 10 11  1  0
 11 12  2  0
 12 13  1  0
 13 14  2  0
 13 15  1  0
 12 16  1  0
 11 17  1  0
 10 18  1  0
  8 19  1  0
  6 20  1  0
  4 21  1  0
 21 22  2  0
 21 23  1  0
 23 24  1  1
 24 25  1  0
 25 26  1  0
 26 27  1  0
 27 28  1  0
 28 29  1  0
 29 30  1  0
 30 31  1  0
 31 32  1  0
 32 33  1  0
 33 34  1  0
 34 35  1  0
 34 36  1  0
 32 37  1  0
 32 38  1  0
 31 39  1  0
 39 40  1  0
 39 41  1  0
 30 42  1  0
 30 43  1  0
 29 44  1  0
 29 45  1  0
 28 46  1  6
 27 47  1  0
 27 48  1  0
 26 49  1  0
 26 50  1  0
 25 51  1  0
 51 52  2  0
 51 53  1  0
 53 54  2  0
 54 55  1  0
 55 56  2  0
 56 57  1  0
 56 58  1  0
 58 59  2  0
 58 60  1  0
 55 61  1  0
 54 62  1  0
 24 63  1  0
 24 64  1  0
  3 65  1  0
  3 66  1  0
  2 67  1  6
  1 68  1  0
  1 69  1  0
  1 70  1  0
 23  2  1  0
 39 28  1  0
 59 53  1  0
 14  5  1  0
 59 23  1  0
 14  9  1  0
 34 31  1  0
M  CHG  1  28   1
M  END
>  <cnnaffinities>  (63) 
[5.91048, 6.24465]

>  <score>  (63) 
5.91048

>  <index>  (63) 
62

>  <Smiles>  (63) 
C([C@]1(C(N(c2c(nc(c3c(c(c(c(c23)[H])[H])[H])[H])[H])[H])C(=O)[C@]21C(N(C(C([N@@+]1(C(C(C3(C(OC3([H])[H])([H])[H])C1([H])[H])([H])[H])([H])[H])[H])([H])[H])([H])[H])C(=O)c1c(c(c(Cl)c(c21)[H])[H])[H])([H])[H])([H])[H])[H])([H])([H])[H]

>  <h>  (63) 
<NA>

>  <Training>  (63) 
True

>  <Success>  (63) 
True

>  <enamine_searched>  (63) 
False

>  <enamine_id>  (63) 
nan

$$$$

     RDKit          3D

 56 61  0  0  0  0  0  0  0  0999 V2000
    5.5669    4.8333   21.4504 C   0  0  0  0  0  0  0  0  0  0  0  0
    6.5729    4.5688   22.4578 N   0  0  0  0  0  0  0  0  0  0  0  0
    7.7720    5.1792   22.5717 C   0  0  0  0  0  0  0  0  0  0  0  0
    8.4572    4.5443   23.5750 C   0  0  0  0  0  0  0  0  0  0  0  0
    7.5823    3.5208   24.0005 C   0  0  0  0  0  0  0  0  0  0  0  0
    7.9084    2.4519   25.0086 C   0  0  0  0  0  0  0  0  0  0  0  0
    8.6886    1.3391   24.4503 N   0  0  0  0  0  0  0  0  0  0  0  0
    8.0220    0.0868   24.1437 C   0  0  0  0  0  0  0  0  0  0  0  0
    8.3705   -0.4541   22.7295 C   0  0  1  0  0  0  0  0  0  0  0  0
    7.7268   -1.8432   22.5307 C   0  0  0  0  0  0  0  0  0  0  0  0
    6.9839   -1.8082   21.1825 C   0  0  0  0  0  0  0  0  0  0  0  0
    6.8684   -0.3963   20.8853 N   0  0  0  0  0  0  0  0  0  0  0  0
    6.1287    0.1100   19.7851 C   0  0  0  0  0  0  0  0  0  0  0  0
    6.4434   -0.2241   18.4907 C   0  0  0  0  0  0  0  0  0  0  0  0
    5.7728    0.2290   17.4030 N   0  0  0  0  0  0  0  0  0  0  0  0
    4.7502    1.0229   17.5986 C   0  0  0  0  0  0  0  0  0  0  0  0
    4.2946    1.4274   18.8834 C   0  0  0  0  0  0  0  0  0  0  0  0
    3.1648    2.2709   19.0592 C   0  0  0  0  0  0  0  0  0  0  0  0
    2.7379    2.6112   20.3129 C   0  0  0  0  0  0  0  0  0  0  0  0
    3.4227    2.1244   21.4508 C   0  0  0  0  0  0  0  0  0  0  0  0
    4.5213    1.3169   21.3064 C   0  0  0  0  0  0  0  0  0  0  0  0
    4.9993    0.9554   20.0187 C   0  0  0  0  0  0  0  0  0  0  0  0
    5.0282    0.9385   22.1890 H   0  0  0  0  0  0  0  0  0  0  0  0
    3.0813    2.3946   22.4459 H   0  0  0  0  0  0  0  0  0  0  0  0
    1.8741    3.2553   20.4458 H   0  0  0  0  0  0  0  0  0  0  0  0
    2.6512    2.6384   18.1741 H   0  0  0  0  0  0  0  0  0  0  0  0
    4.2208    1.3829   16.7147 H   0  0  0  0  0  0  0  0  0  0  0  0
    7.2885   -0.8753   18.2705 H   0  0  0  0  0  0  0  0  0  0  0  0
    7.7208    0.4001   21.6185 C   0  0  0  0  0  0  0  0  0  0  0  0
    7.9194    1.5738   21.4073 O   0  0  0  0  0  0  0  0  0  0  0  0
    5.9869   -2.2624   21.2318 H   0  0  0  0  0  0  0  0  0  0  0  0
    7.5607   -2.3096   20.4036 H   0  0  0  0  0  0  0  0  0  0  0  0
    8.4782   -2.6373   22.5683 H   0  0  0  0  0  0  0  0  0  0  0  0
    7.0144   -2.0431   23.3398 H   0  0  0  0  0  0  0  0  0  0  0  0
    9.8720   -0.4182   22.5475 C   0  0  0  0  0  0  0  0  0  0  0  0
   10.4955   -1.2305   21.5961 C   0  0  0  0  0  0  0  0  0  0  0  0
   11.8623   -1.1566   21.4075 C   0  0  0  0  0  0  0  0  0  0  0  0
   12.5976   -2.0778   20.1180 Cl  0  0  0  0  0  0  0  0  0  0  0  0
   12.6358   -0.2701   22.1595 C   0  0  0  0  0  0  0  0  0  0  0  0
   12.0206    0.5671   23.0684 C   0  0  0  0  0  0  0  0  0  0  0  0
   10.6396    0.5157   23.2443 C   0  0  0  0  0  0  0  0  0  0  0  0
    9.9821    1.5835   24.0607 C   0  0  0  0  0  0  0  0  0  0  0  0
   10.5649    2.6314   24.3090 O   0  0  0  0  0  0  0  0  0  0  0  0
   12.5969    1.2704   23.6609 H   0  0  0  0  0  0  0  0  0  0  0  0
   13.6959   -0.1861   21.9710 H   0  0  0  0  0  0  0  0  0  0  0  0
    9.9258   -1.8670   20.9294 H   0  0  0  0  0  0  0  0  0  0  0  0
    8.2871   -0.6884   24.8819 H   0  0  0  0  0  0  0  0  0  0  0  0
    6.9433    0.2674   24.1879 H   0  0  0  0  0  0  0  0  0  0  0  0
    6.9882    2.0344   25.4345 H   0  0  0  0  0  0  0  0  0  0  0  0
    8.5005    2.8874   25.8195 H   0  0  0  0  0  0  0  0  0  0  0  0
    6.4303    3.5548   23.3345 N   0  0  0  0  0  0  0  0  0  0  0  0
    9.4578    4.7136   23.9491 H   0  0  0  0  0  0  0  0  0  0  0  0
    8.0508    5.9844   21.9024 H   0  0  0  0  0  0  0  0  0  0  0  0
    4.5783    4.7736   21.9104 H   0  0  0  0  0  0  0  0  0  0  0  0
    5.7261    5.8456   21.0670 H   0  0  0  0  0  0  0  0  0  0  0  0
    5.6219    4.1112   20.6245 H   0  0  0  0  0  0  0  0  0  0  0  0
  1  2  1  0
  2  3  1  0
  3  4  2  0
  4  5  1  0
  5  6  1  0
  6  7  1  0
  7  8  1  0
  9  8  1  1
  9 10  1  0
 10 11  1  0
 11 12  1  0
 12 13  1  0
 13 14  2  0
 14 15  1  0
 15 16  2  0
 16 17  1  0
 17 18  2  0
 18 19  1  0
 19 20  2  0
 20 21  1  0
 21 22  2  0
 21 23  1  0
 20 24  1  0
 19 25  1  0
 18 26  1  0
 16 27  1  0
 14 28  1  0
 12 29  1  0
 29 30  2  0
 11 31  1  0
 11 32  1  0
 10 33  1  0
 10 34  1  0
  9 35  1  0
 35 36  2  0
 36 37  1  0
 37 38  1  0
 37 39  2  0
 39 40  1  0
 40 41  2  0
 41 42  1  0
 42 43  2  0
 40 44  1  0
 39 45  1  0
 36 46  1  0
  8 47  1  0
  8 48  1  0
  6 49  1  0
  6 50  1  0
  5 51  2  0
  4 52  1  0
  3 53  1  0
  1 54  1  0
  1 55  1  0
  1 56  1  0
 51  2  1  0
 42  7  1  0
 29  9  1  0
 41 35  1  0
 22 13  1  0
 22 17  1  0
M  END
>  <cnnaffinities>  (64) 
[6.26364]

>  <score>  (64) 
6.26364

>  <index>  (64) 
63

>  <Smiles>  (64) 
C(n1c(c(c(C(N2C([C@]3(C(C(N(c4c(nc(c5c(c(c(c(c45)[H])[H])[H])[H])[H])[H])C3=O)([H])[H])([H])[H])c3c(c(Cl)c(c(c3C2=O)[H])[H])[H])([H])[H])([H])[H])n1)[H])[H])([H])([H])[H]

>  <h>  (64) 
<NA>

>  <Training>  (64) 
True

>  <Success>  (64) 
True

>  <enamine_searched>  (64) 
False

>  <enamine_id>  (64) 
nan

$$$$

     RDKit          3D

 66 71  0  0  0  0  0  0  0  0999 V2000
    7.1515   -2.4791   23.4303 C   0  0  0  0  0  0  0  0  0  0  0  0
    8.0267   -1.7776   22.3854 C   0  0  1  0  0  0  0  0  0  0  0  0
    7.3309   -1.7078   21.0088 C   0  0  0  0  0  0  0  0  0  0  0  0
    6.9497   -0.3185   20.8557 N   0  0  0  0  0  0  0  0  0  0  0  0
    6.1511    0.1314   19.7838 C   0  0  0  0  0  0  0  0  0  0  0  0
    6.4455   -0.2273   18.4909 C   0  0  0  0  0  0  0  0  0  0  0  0
    5.7706    0.2160   17.4068 N   0  0  0  0  0  0  0  0  0  0  0  0
    4.7550    1.0172   17.6078 C   0  0  0  0  0  0  0  0  0  0  0  0
    4.3082    1.4220   18.8967 C   0  0  0  0  0  0  0  0  0  0  0  0
    3.1877    2.2796   19.0606 C   0  0  0  0  0  0  0  0  0  0  0  0
    2.7558    2.6274   20.3115 C   0  0  0  0  0  0  0  0  0  0  0  0
    3.4206    2.1284   21.4544 C   0  0  0  0  0  0  0  0  0  0  0  0
    4.5119    1.3064   21.3211 C   0  0  0  0  0  0  0  0  0  0  0  0
    5.0046    0.9519   20.0305 C   0  0  0  0  0  0  0  0  0  0  0  0
    5.0114    0.9261   22.2063 H   0  0  0  0  0  0  0  0  0  0  0  0
    3.0724    2.4084   22.4464 H   0  0  0  0  0  0  0  0  0  0  0  0
    1.9044    3.2914   20.4355 H   0  0  0  0  0  0  0  0  0  0  0  0
    2.6901    2.6522   18.1692 H   0  0  0  0  0  0  0  0  0  0  0  0
    4.2238    1.3783   16.7270 H   0  0  0  0  0  0  0  0  0  0  0  0
    7.2919   -0.8806   18.2808 H   0  0  0  0  0  0  0  0  0  0  0  0
    7.6233    0.5322   21.7008 C   0  0  0  0  0  0  0  0  0  0  0  0
    7.5745    1.7448   21.6602 O   0  0  0  0  0  0  0  0  0  0  0  0
    8.4432   -0.3096   22.7050 C   0  0  1  0  0  0  0  0  0  0  0  0
    8.1158    0.1211   24.1452 C   0  0  0  0  0  0  0  0  0  0  0  0
    8.5784    1.4604   24.4420 N   0  0  0  0  0  0  0  0  0  0  0  0
    7.7515    2.2884   25.2957 C   0  0  0  0  0  0  0  0  0  0  0  0
    6.6947    3.0724   24.5277 C   0  0  0  0  0  0  0  0  0  0  0  0
    7.2745    4.1342   23.6642 N   0  0  0  0  0  4  0  0  0  0  0  0
    7.7898    5.3123   24.4595 C   0  0  0  0  0  0  0  0  0  0  0  0
    8.2628    6.4240   23.5340 C   0  0  0  0  0  0  0  0  0  0  0  0
    7.2403    6.8433   22.6555 O   0  0  0  0  0  0  0  0  0  0  0  0
    6.8232    5.7672   21.8417 C   0  0  0  0  0  0  0  0  0  0  0  0
    6.2562    4.6218   22.6633 C   0  0  0  0  0  0  0  0  0  0  0  0
    5.9930    3.7840   22.0135 H   0  0  0  0  0  0  0  0  0  0  0  0
    5.3607    4.9567   23.2013 H   0  0  0  0  0  0  0  0  0  0  0  0
    7.6737    5.3939   21.2541 H   0  0  0  0  0  0  0  0  0  0  0  0
    6.0734    6.1620   21.1508 H   0  0  0  0  0  0  0  0  0  0  0  0
    8.5564    7.3062   24.1103 H   0  0  0  0  0  0  0  0  0  0  0  0
    9.1419    6.0809   22.9598 H   0  0  0  0  0  0  0  0  0  0  0  0
    6.9757    5.6897   25.0917 H   0  0  0  0  0  0  0  0  0  0  0  0
    8.6172    4.9886   25.0896 H   0  0  0  0  0  0  0  0  0  0  0  0
    8.0447    3.7003   23.1210 H   0  0  0  0  0  0  0  0  0  0  0  0
    6.1226    2.3899   23.8857 H   0  0  0  0  0  0  0  0  0  0  0  0
    5.9959    3.5246   25.2423 H   0  0  0  0  0  0  0  0  0  0  0  0
    7.2544    1.6289   26.0117 H   0  0  0  0  0  0  0  0  0  0  0  0
    8.4156    2.9570   25.8456 H   0  0  0  0  0  0  0  0  0  0  0  0
    9.7545    1.9558   23.9804 C   0  0  0  0  0  0  0  0  0  0  0  0
   10.0998    3.1165   24.2042 O   0  0  0  0  0  0  0  0  0  0  0  0
   10.5660    1.0170   23.1488 C   0  0  0  0  0  0  0  0  0  0  0  0
   11.9130    1.2978   22.9205 C   0  0  0  0  0  0  0  0  0  0  0  0
   12.6764    0.4610   22.1126 C   0  0  0  0  0  0  0  0  0  0  0  0
   12.0430   -0.6189   21.5011 C   0  0  0  0  0  0  0  0  0  0  0  0
   12.7627   -1.5208   20.1656 Cl  0  0  0  0  0  0  0  0  0  0  0  0
   10.6924   -0.8517   21.6544 C   0  0  0  0  0  0  0  0  0  0  0  0
    9.9353   -0.0697   22.5236 C   0  0  0  0  0  0  0  0  0  0  0  0
   10.2501   -1.5894   20.9912 H   0  0  0  0  0  0  0  0  0  0  0  0
   13.7141    0.6965   21.8903 H   0  0  0  0  0  0  0  0  0  0  0  0
   12.3116    2.2134   23.3563 H   0  0  0  0  0  0  0  0  0  0  0  0
    7.0346    0.1158   24.2944 H   0  0  0  0  0  0  0  0  0  0  0  0
    8.5929   -0.6043   24.8208 H   0  0  0  0  0  0  0  0  0  0  0  0
    8.0103   -2.0031   20.2002 H   0  0  0  0  0  0  0  0  0  0  0  0
    6.4418   -2.3450   20.9615 H   0  0  0  0  0  0  0  0  0  0  0  0
    8.9332   -2.3829   22.3081 H   0  0  0  0  0  0  0  0  0  0  0  0
    6.1979   -1.9612   23.5840 H   0  0  0  0  0  0  0  0  0  0  0  0
    7.6658   -2.5568   24.3939 H   0  0  0  0  0  0  0  0  0  0  0  0
    6.9342   -3.5008   23.1017 H   0  0  0  0  0  0  0  0  0  0  0  0
  1  2  1  0
  2  3  1  0
  3  4  1  0
  4  5  1  0
  5  6  2  0
  6  7  1  0
  7  8  2  0
  8  9  1  0
  9 10  2  0
 10 11  1  0
 11 12  2  0
 12 13  1  0
 13 14  2  0
 13 15  1  0
 12 16  1  0
 11 17  1  0
 10 18  1  0
  8 19  1  0
  6 20  1  0
  4 21  1  0
 21 22  2  0
 21 23  1  0
 23 24  1  1
 24 25  1  0
 25 26  1  0
 26 27  1  0
 27 28  1  0
 28 29  1  0
 29 30  1  0
 30 31  1  0
 31 32  1  0
 32 33  1  0
 33 34  1  0
 33 35  1  0
 32 36  1  0
 32 37  1  0
 30 38  1  0
 30 39  1  0
 29 40  1  0
 29 41  1  0
 28 42  1  0
 27 43  1  0
 27 44  1  0
 26 45  1  0
 26 46  1  0
 25 47  1  0
 47 48  2  0
 47 49  1  0
 49 50  2  0
 50 51  1  0
 51 52  2  0
 52 53  1  0
 52 54  1  0
 54 55  2  0
 54 56  1  0
 51 57  1  0
 50 58  1  0
 24 59  1  0
 24 60  1  0
  3 61  1  0
  3 62  1  0
  2 63  1  6
  1 64  1  0
  1 65  1  0
  1 66  1  0
 23  2  1  0
 33 28  1  0
 55 49  1  0
 14  5  1  0
 55 23  1  0
 14  9  1  0
M  CHG  1  28   1
M  END
>  <cnnaffinities>  (65) 
[6.39916, 6.45502]

>  <score>  (65) 
6.39916

>  <index>  (65) 
64

>  <Smiles>  (65) 
C([C@]1(C(N(c2c(nc(c3c(c(c(c(c23)[H])[H])[H])[H])[H])[H])C(=O)[C@]21C(N(C(C([N+]1(C(C(OC(C1([H])[H])([H])[H])([H])[H])([H])[H])[H])([H])[H])([H])[H])C(=O)c1c(c(c(Cl)c(c21)[H])[H])[H])([H])[H])([H])[H])[H])([H])([H])[H]

>  <h>  (65) 
<NA>

>  <Training>  (65) 
True

>  <Success>  (65) 
True

>  <enamine_searched>  (65) 
False

>  <enamine_id>  (65) 
nan

$$$$

     RDKit          3D

 54 59  0  0  0  0  0  0  0  0999 V2000
   12.1384   -3.1789   21.2795 C   0  0  0  0  0  0  0  0  0  0  0  0
   11.9302   -2.0069   22.0965 N   0  0  0  0  0  0  0  0  0  0  0  0
   12.2164   -2.0315   23.4237 C   0  0  0  0  0  0  0  0  0  0  0  0
   12.7958   -2.9505   23.9724 O   0  0  0  0  0  0  0  0  0  0  0  0
   11.7015   -0.7896   24.1620 C   0  0  0  0  0  0  0  0  0  0  0  0
   10.2556   -0.7709   24.2576 N   0  0  0  0  0  0  0  0  0  0  0  0
    9.5636   -1.6318   25.0970 C   0  0  0  0  0  0  0  0  0  0  0  0
   10.0190   -2.6604   25.5546 O   0  0  0  0  0  0  0  0  0  0  0  0
    8.1809   -1.0634   25.2053 C   0  0  0  0  0  0  0  0  0  0  0  0
    7.2203   -1.3691   26.1344 C   0  0  0  0  0  0  0  0  0  0  0  0
    6.0428   -0.5856   26.1685 C   0  0  0  0  0  0  0  0  0  0  0  0
    5.9221    0.5254   25.3739 C   0  0  0  0  0  0  0  0  0  0  0  0
    4.4570    1.4588   25.3734 Cl  0  0  0  0  0  0  0  0  0  0  0  0
    7.0453    1.0907   24.5807 C   0  0  0  0  0  0  0  0  0  0  0  0
    8.0431    0.0072   24.2291 C   0  0  1  0  0  0  0  0  0  0  0  0
    9.3968    0.1579   23.5886 C   0  0  2  0  0  0  0  0  0  0  0  0
    8.2743   -0.3836   22.7463 C   0  0  2  0  0  0  0  0  0  0  0  0
    7.7131    0.4896   21.6493 C   0  0  0  0  0  0  0  0  0  0  0  0
    7.8748    1.6758   21.4643 O   0  0  0  0  0  0  0  0  0  0  0  0
    6.9353   -0.3265   20.8516 N   0  0  0  0  0  0  0  0  0  0  0  0
    6.1542    0.1493   19.7783 C   0  0  0  0  0  0  0  0  0  0  0  0
    6.4560   -0.2097   18.4890 C   0  0  0  0  0  0  0  0  0  0  0  0
    5.7797    0.2276   17.4038 N   0  0  0  0  0  0  0  0  0  0  0  0
    4.7580    1.0226   17.6068 C   0  0  0  0  0  0  0  0  0  0  0  0
    4.3109    1.4287   18.8953 C   0  0  0  0  0  0  0  0  0  0  0  0
    3.1844    2.2737   19.0667 C   0  0  0  0  0  0  0  0  0  0  0  0
    2.7571    2.6156   20.3206 C   0  0  0  0  0  0  0  0  0  0  0  0
    3.4279    2.1215   21.4634 C   0  0  0  0  0  0  0  0  0  0  0  0
    4.5181    1.3006   21.3227 C   0  0  0  0  0  0  0  0  0  0  0  0
    5.0074    0.9629   20.0284 C   0  0  0  0  0  0  0  0  0  0  0  0
    5.0022    0.8968   22.2078 H   0  0  0  0  0  0  0  0  0  0  0  0
    3.0846    2.3827   22.4622 H   0  0  0  0  0  0  0  0  0  0  0  0
    1.8993    3.2695   20.4447 H   0  0  0  0  0  0  0  0  0  0  0  0
    2.6786    2.6394   18.1781 H   0  0  0  0  0  0  0  0  0  0  0  0
    4.2197    1.3741   16.7276 H   0  0  0  0  0  0  0  0  0  0  0  0
    7.3067   -0.8626   18.2916 H   0  0  0  0  0  0  0  0  0  0  0  0
    7.1028   -1.7368   21.1228 C   0  0  0  0  0  0  0  0  0  0  0  0
    8.1121   -1.7612   22.2342 C   0  0  0  0  0  0  0  0  0  0  0  0
    8.6872   -2.9101   22.6152 C   0  0  0  0  0  0  0  0  0  0  0  0
    8.3046   -4.0715   22.0538 F   0  0  0  0  0  0  0  0  0  0  0  0
    9.4697   -3.0469   23.3484 H   0  0  0  0  0  0  0  0  0  0  0  0
    7.4663   -2.2391   20.2291 H   0  0  0  0  0  0  0  0  0  0  0  0
    6.1559   -2.1957   21.4358 H   0  0  0  0  0  0  0  0  0  0  0  0
    9.8245    1.1065   23.2724 H   0  0  0  0  0  0  0  0  0  0  0  0
    6.6826    1.6127   23.6858 H   0  0  0  0  0  0  0  0  0  0  0  0
    7.5517    1.8817   25.1645 H   0  0  0  0  0  0  0  0  0  0  0  0
    5.2420   -0.8306   26.8593 H   0  0  0  0  0  0  0  0  0  0  0  0
    7.3571   -2.2005   26.8185 H   0  0  0  0  0  0  0  0  0  0  0  0
   12.0105    0.1091   23.6118 H   0  0  0  0  0  0  0  0  0  0  0  0
   12.1545   -0.7774   25.1566 H   0  0  0  0  0  0  0  0  0  0  0  0
   11.4999   -1.1954   21.6901 H   0  0  0  0  0  0  0  0  0  0  0  0
   11.3406   -3.8977   21.4449 H   0  0  0  0  0  0  0  0  0  0  0  0
   13.0825   -3.6526   21.5478 H   0  0  0  0  0  0  0  0  0  0  0  0
   12.1457   -2.8976   20.2267 H   0  0  0  0  0  0  0  0  0  0  0  0
  1  2  1  0
  2  3  1  0
  3  4  2  0
  3  5  1  0
  5  6  1  0
  6  7  1  0
  7  8  2  0
  7  9  1  0
  9 10  2  0
 10 11  1  0
 11 12  2  0
 12 13  1  0
 12 14  1  0
 15 14  1  6
 15 16  1  0
 16 17  1  0
 17 18  1  6
 18 19  2  0
 18 20  1  0
 20 21  1  0
 21 22  2  0
 22 23  1  0
 23 24  2  0
 24 25  1  0
 25 26  2  0
 26 27  1  0
 27 28  2  0
 28 29  1  0
 29 30  2  0
 29 31  1  0
 28 32  1  0
 27 33  1  0
 26 34  1  0
 24 35  1  0
 22 36  1  0
 20 37  1  0
 37 38  1  0
 38 39  2  0
 39 40  1  0
 39 41  1  0
 37 42  1  0
 37 43  1  0
 16 44  1  6
 14 45  1  0
 14 46  1  0
 11 47  1  0
 10 48  1  0
  5 49  1  0
  5 50  1  0
  2 51  1  0
  1 52  1  0
  1 53  1  0
  1 54  1  0
 16  6  1  0
 38 17  1  0
 15  9  1  0
 30 21  1  0
 17 15  1  0
 30 25  1  0
M  END
>  <cnnaffinities>  (66) 
[6.69423]

>  <score>  (66) 
6.69423

>  <index>  (66) 
65

>  <Smiles>  (66) 
C(N(C(=O)C(N1C(=O)C2=C(C(=C(Cl)C([C@]32[C@@]1([C@@]13C(=O)N(c2c(nc(c3c(c(c(c(c23)[H])[H])[H])[H])[H])[H])C(/C/1=C(\F)/[H])([H])[H])[H])([H])[H])[H])[H])([H])[H])[H])([H])([H])[H]

>  <h>  (66) 
<NA>

>  <Training>  (66) 
True

>  <Success>  (66) 
True

>  <enamine_searched>  (66) 
False

>  <enamine_id>  (66) 
nan

$$$$

     RDKit          3D

 47 50  0  0  0  0  0  0  0  0999 V2000
    5.4683   -2.4326   20.9151 O   0  0  0  0  0  0  0  0  0  0  0  0
    6.1366   -1.6667   21.5837 C   0  0  0  0  0  0  0  0  0  0  0  0
    6.9050   -0.5053   20.9151 C   0  0  0  0  0  0  0  0  0  0  0  0
    6.1171    0.0892   19.7681 C   0  0  0  0  0  0  0  0  0  0  0  0
    6.4226   -0.2137   18.4665 C   0  0  0  0  0  0  0  0  0  0  0  0
    5.7571    0.2444   17.3739 N   0  0  0  0  0  0  0  0  0  0  0  0
    4.7333    1.0319   17.5787 C   0  0  0  0  0  0  0  0  0  0  0  0
    4.2848    1.4224   18.8691 C   0  0  0  0  0  0  0  0  0  0  0  0
    3.1624    2.2715   19.0462 C   0  0  0  0  0  0  0  0  0  0  0  0
    2.7480    2.6230   20.3020 C   0  0  0  0  0  0  0  0  0  0  0  0
    3.4441    2.1408   21.4339 C   0  0  0  0  0  0  0  0  0  0  0  0
    4.5359    1.3203   21.2847 C   0  0  0  0  0  0  0  0  0  0  0  0
    4.9915    0.9376   19.9975 C   0  0  0  0  0  0  0  0  0  0  0  0
    5.0616    0.9621   22.1643 H   0  0  0  0  0  0  0  0  0  0  0  0
    3.1073    2.4227   22.4280 H   0  0  0  0  0  0  0  0  0  0  0  0
    1.8888    3.2753   20.4389 H   0  0  0  0  0  0  0  0  0  0  0  0
    2.6412    2.6417   18.1654 H   0  0  0  0  0  0  0  0  0  0  0  0
    4.1996    1.3981   16.6985 H   0  0  0  0  0  0  0  0  0  0  0  0
    7.2649   -0.8682   18.2418 H   0  0  0  0  0  0  0  0  0  0  0  0
    7.8522   -0.9033   20.5239 H   0  0  0  0  0  0  0  0  0  0  0  0
    7.1649    0.2744   21.6462 H   0  0  0  0  0  0  0  0  0  0  0  0
    6.1911   -1.7441   22.9672 N   0  0  0  0  0  0  0  0  0  0  0  0
    7.4433   -1.6674   23.7139 C   0  0  0  0  0  0  0  0  0  0  0  0
    7.2187   -1.0325   25.0741 C   0  0  0  0  0  0  0  0  0  0  0  0
    6.1364   -1.7613   25.8672 C   0  0  1  0  0  0  0  0  0  0  0  0
    5.8697   -1.1105   27.2362 C   0  0  0  0  0  0  0  0  0  0  0  0
    5.1189    0.2183   27.1461 C   0  0  0  0  0  0  0  0  0  0  0  0
    3.8594    0.0736   26.3217 C   0  0  0  0  0  0  0  0  0  0  0  0
    3.2391    1.2891   26.1829 F   0  0  0  0  0  0  0  0  0  0  0  0
    2.9674   -0.7134   27.0058 F   0  0  0  0  0  0  0  0  0  0  0  0
    4.1016   -0.5395   24.9584 C   0  0  0  0  0  0  0  0  0  0  0  0
    4.8425   -1.8786   25.0487 C   0  0  1  0  0  0  0  0  0  0  0  0
    5.1295   -2.4696   23.6632 C   0  0  0  0  0  0  0  0  0  0  0  0
    5.3647   -3.5410   23.7617 H   0  0  0  0  0  0  0  0  0  0  0  0
    4.2340   -2.4181   23.0421 H   0  0  0  0  0  0  0  0  0  0  0  0
    4.1704   -2.5627   25.5774 H   0  0  0  0  0  0  0  0  0  0  0  0
    4.6726    0.1798   24.3671 H   0  0  0  0  0  0  0  0  0  0  0  0
    3.1315   -0.6632   24.4723 H   0  0  0  0  0  0  0  0  0  0  0  0
    4.8537    0.5979   28.1378 H   0  0  0  0  0  0  0  0  0  0  0  0
    5.7351    0.9798   26.6628 H   0  0  0  0  0  0  0  0  0  0  0  0
    6.8165   -0.9556   27.7644 H   0  0  0  0  0  0  0  0  0  0  0  0
    5.2845   -1.7989   27.8556 H   0  0  0  0  0  0  0  0  0  0  0  0
    6.5065   -2.7795   26.0506 H   0  0  0  0  0  0  0  0  0  0  0  0
    6.9608    0.0211   24.9438 H   0  0  0  0  0  0  0  0  0  0  0  0
    8.1573   -1.0575   25.6321 H   0  0  0  0  0  0  0  0  0  0  0  0
    7.8828   -2.6683   23.8601 H   0  0  0  0  0  0  0  0  0  0  0  0
    8.1733   -1.0990   23.1362 H   0  0  0  0  0  0  0  0  0  0  0  0
  1  2  2  0
  2  3  1  0
  3  4  1  0
  4  5  2  0
  5  6  1  0
  6  7  2  0
  7  8  1  0
  8  9  2  0
  9 10  1  0
 10 11  2  0
 11 12  1  0
 12 13  2  0
 12 14  1  0
 11 15  1  0
 10 16  1  0
  9 17  1  0
  7 18  1  0
  5 19  1  0
  3 20  1  0
  3 21  1  0
  2 22  1  0
 22 23  1  0
 23 24  1  0
 24 25  1  0
 25 26  1  0
 26 27  1  0
 27 28  1  0
 28 29  1  0
 28 30  1  0
 28 31  1  0
 31 32  1  0
 32 33  1  0
 33 34  1  0
 33 35  1  0
 32 36  1  1
 31 37  1  0
 31 38  1  0
 27 39  1  0
 27 40  1  0
 26 41  1  0
 26 42  1  0
 25 43  1  1
 24 44  1  0
 24 45  1  0
 23 46  1  0
 23 47  1  0
 13  4  1  0
 33 22  1  0
 13  8  1  0
 32 25  1  0
M  END
>  <cnnaffinities>  (67) 
[5.28965, 5.28973]

>  <score>  (67) 
5.28965

>  <index>  (67) 
66

>  <Smiles>  (67) 
O=C(C(c1c(nc(c2c(c(c(c(c12)[H])[H])[H])[H])[H])[H])([H])[H])N1C(C([C@]2(C(C(C(F)(F)C([C@]2(C1([H])[H])[H])([H])[H])([H])[H])([H])[H])[H])([H])[H])([H])[H]

>  <h>  (67) 
<NA>

>  <Training>  (67) 
True

>  <Success>  (67) 
True

>  <enamine_searched>  (67) 
False

>  <enamine_id>  (67) 
nan

$$$$

     RDKit          3D

 69 74  0  0  0  0  0  0  0  0999 V2000
   10.3242    5.0908   23.9627 C   0  0  0  0  0  0  0  0  0  0  0  0
    9.1439    4.4072   23.3905 N   0  0  0  0  0  4  0  0  0  0  0  0
    9.4490    3.0304   22.8614 C   0  0  0  0  0  0  0  0  0  0  0  0
    9.6182    1.9910   23.9627 C   0  0  0  0  0  0  0  0  0  0  0  0
    9.9015    0.6792   23.4195 N   0  0  0  0  0  0  0  0  0  0  0  0
    8.8956   -0.3710   23.4430 C   0  0  0  0  0  0  0  0  0  0  0  0
    8.7947   -1.1570   22.0879 C   0  0  2  0  0  0  0  0  0  0  0  0
    8.2194   -0.2019   21.0189 C   0  0  0  0  0  0  0  0  0  0  0  0
    8.8533    0.6919   20.4681 O   0  0  0  0  0  0  0  0  0  0  0  0
    6.8796   -0.4690   20.8356 N   0  0  0  0  0  0  0  0  0  0  0  0
    6.1279    0.0903   19.7649 C   0  0  0  0  0  0  0  0  0  0  0  0
    6.4354   -0.2158   18.4627 C   0  0  0  0  0  0  0  0  0  0  0  0
    5.7573    0.2400   17.3768 N   0  0  0  0  0  0  0  0  0  0  0  0
    4.7317    1.0310   17.5767 C   0  0  0  0  0  0  0  0  0  0  0  0
    4.2850    1.4251   18.8725 C   0  0  0  0  0  0  0  0  0  0  0  0
    3.1680    2.2886   19.0504 C   0  0  0  0  0  0  0  0  0  0  0  0
    2.7815    2.6540   20.3115 C   0  0  0  0  0  0  0  0  0  0  0  0
    3.4880    2.1856   21.4401 C   0  0  0  0  0  0  0  0  0  0  0  0
    4.5688    1.3505   21.2912 C   0  0  0  0  0  0  0  0  0  0  0  0
    4.9941    0.9420   19.9998 C   0  0  0  0  0  0  0  0  0  0  0  0
    5.1222    1.0104   22.1582 H   0  0  0  0  0  0  0  0  0  0  0  0
    3.1776    2.4909   22.4324 H   0  0  0  0  0  0  0  0  0  0  0  0
    1.9337    3.3138   20.4547 H   0  0  0  0  0  0  0  0  0  0  0  0
    2.6355    2.6558   18.1762 H   0  0  0  0  0  0  0  0  0  0  0  0
    4.1948    1.4025   16.7008 H   0  0  0  0  0  0  0  0  0  0  0  0
    7.2759   -0.8730   18.2598 H   0  0  0  0  0  0  0  0  0  0  0  0
    6.4159   -1.5931   21.6306 C   0  0  0  0  0  0  0  0  0  0  0  0
    7.7151   -2.2409   22.0975 C   0  0  2  0  0  0  0  0  0  0  0  0
    7.5202   -2.8311   23.3352 C   0  0  0  0  0  0  0  0  0  0  0  0
    6.5959   -3.8672   23.0447 O   0  0  0  0  0  0  0  0  0  0  0  0
    7.9187   -5.5468   25.0961 C   0  0  0  0  0  0  0  0  0  0  0  0
    7.9989   -5.5559   25.0824 C   0  0  0  0  0  0  0  0  0  0  0  0
    7.8525   -6.8886   22.8999 F   0  0  0  0  0  0  0  0  0  0  0  0
    7.9203   -5.5471   25.0952 C   0  0  0  0  0  0  0  0  0  0  0  0
    7.9188   -5.5469   25.0960 C   0  0  0  0  0  0  0  0  0  0  0  0
    7.3588   -5.7329   26.3695 H   0  0  0  0  0  0  0  0  0  0  0  0
    7.8956   -5.3238   25.7863 H   0  0  0  0  0  0  0  0  0  0  0  0
    9.3741   -6.0434   25.0855 H   0  0  0  0  0  0  0  0  0  0  0  0
    8.5385   -4.8397   26.0759 H   0  0  0  0  0  0  0  0  0  0  0  0
    5.4315   -5.3354   24.2836 H   0  0  0  0  0  0  0  0  0  0  0  0
    7.2753   -4.8244   25.9572 H   0  0  0  0  0  0  0  0  0  0  0  0
    8.5943   -3.0742   23.6050 H   0  0  0  0  0  0  0  0  0  0  0  0
    7.1158   -2.2128   24.1969 H   0  0  0  0  0  0  0  0  0  0  0  0
    7.9634   -3.0282   21.3879 H   0  0  0  0  0  0  0  0  0  0  0  0
    5.7970   -1.2582   22.4760 H   0  0  0  0  0  0  0  0  0  0  0  0
    5.8267   -2.2890   21.0284 H   0  0  0  0  0  0  0  0  0  0  0  0
   10.1717   -1.5762   21.7060 C   0  0  0  0  0  0  0  0  0  0  0  0
   10.3449   -2.7069   20.8711 C   0  0  0  0  0  0  0  0  0  0  0  0
   11.4498   -3.2324   20.3429 C   0  0  0  0  0  0  0  0  0  0  0  0
   11.9118   -4.3053   19.1177 Cl  0  0  0  0  0  0  0  0  0  0  0  0
   12.6792   -2.1841   20.5882 C   0  0  0  0  0  0  0  0  0  0  0  0
   12.5285   -1.1924   21.6079 C   0  0  0  0  0  0  0  0  0  0  0  0
   11.2349   -0.8432   22.1476 C   0  0  0  0  0  0  0  0  0  0  0  0
   11.1605    0.3899   22.9892 C   0  0  0  0  0  0  0  0  0  0  0  0
   12.1529    1.0876   23.2232 O   0  0  0  0  0  0  0  0  0  0  0  0
   13.3538   -0.6174   22.1054 H   0  0  0  0  0  0  0  0  0  0  0  0
   13.4136   -2.8634   19.8736 H   0  0  0  0  0  0  0  0  0  0  0  0
    9.6136   -3.0623   20.2606 H   0  0  0  0  0  0  0  0  0  0  0  0
    7.9105    0.0598   23.6711 H   0  0  0  0  0  0  0  0  0  0  0  0
    9.1522   -1.0389   24.2480 H   0  0  0  0  0  0  0  0  0  0  0  0
   10.4522    2.2858   24.5819 H   0  0  0  0  0  0  0  0  0  0  0  0
    8.7066    1.9647   24.5781 H   0  0  0  0  0  0  0  0  0  0  0  0
   10.3599    3.0874   22.2701 H   0  0  0  0  0  0  0  0  0  0  0  0
    8.6382    2.7351   22.2141 H   0  0  0  0  0  0  0  0  0  0  0  0
    8.4044    4.3240   24.1321 H   0  0  0  0  0  0  0  0  0  0  0  0
    8.7716    4.9898   22.6094 H   0  0  0  0  0  0  0  0  0  0  0  0
   10.6850    4.5704   24.8460 H   0  0  0  0  0  0  0  0  0  0  0  0
   11.1256    5.1147   23.2277 H   0  0  0  0  0  0  0  0  0  0  0  0
   10.0608    6.1039   24.2342 H   0  0  0  0  0  0  0  0  0  0  0  0
  1  2  1  0
  2  3  1  0
  3  4  1  0
  4  5  1  0
  5  6  1  0
  7  6  1  1
  7  8  1  0
  8  9  2  0
  8 10  1  0
 10 11  1  0
 11 12  2  0
 12 13  1  0
 13 14  2  0
 14 15  1  0
 15 16  2  0
 16 17  1  0
 17 18  2  0
 18 19  1  0
 19 20  2  0
 19 21  1  0
 18 22  1  0
 17 23  1  0
 16 24  1  0
 14 25  1  0
 12 26  1  0
 10 27  1  0
 27 28  1  0
 28 29  1  0
 29 30  1  0
 30 31  1  0
 31 32  1  0
 32 33  1  0
 32 34  1  0
 34 35  1  0
 35 36  1  0
 35 37  1  0
 34 38  1  0
 34 39  1  0
 31 40  1  0
 31 41  1  0
 29 42  1  0
 29 43  1  0
 28 44  1  6
 27 45  1  0
 27 46  1  0
  7 47  1  0
 47 48  2  0
 48 49  1  0
 49 50  1  0
 49 51  2  0
 51 52  1  0
 52 53  2  0
 53 54  1  0
 54 55  2  0
 52 56  1  0
 51 57  1  0
 48 58  1  0
  6 59  1  0
  6 60  1  0
  4 61  1  0
  4 62  1  0
  3 63  1  0
  3 64  1  0
  2 65  1  0
  2 66  1  0
  1 67  1  0
  1 68  1  0
  1 69  1  0
 54  5  1  0
 28  7  1  0
 35 32  1  0
 53 47  1  0
 20 11  1  0
 20 15  1  0
M  CHG  1   2   1
M  END
>  <cnnaffinities>  (68) 
[6.90793]

>  <score>  (68) 
6.90793

>  <index>  (68) 
67

>  <Smiles>  (68) 
C([N+](C(C(N1C([C@@]2(C(=O)N(c3c(nc(c4c(c(c(c(c34)[H])[H])[H])[H])[H])[H])C([C@@]2(C(OC(C2(F)C(C2([H])[H])([H])[H])([H])[H])([H])[H])[H])([H])[H])c2c(c(Cl)c(c(c2C1=O)[H])[H])[H])([H])[H])([H])[H])([H])[H])([H])[H])([H])([H])[H]

>  <h>  (68) 
<NA>

>  <Training>  (68) 
True

>  <Success>  (68) 
True

>  <enamine_searched>  (68) 
False

>  <enamine_id>  (68) 
nan

$$$$

     RDKit          3D

 57 62  0  0  0  0  0  0  0  0999 V2000
    5.4025    4.9795   21.5224 C   0  0  0  0  0  0  0  0  0  0  0  0
    6.3757    4.5192   22.5542 C   0  0  0  0  0  0  0  0  0  0  0  0
    6.2983    3.5114   23.3770 N   0  0  0  0  0  0  0  0  0  0  0  0
    7.5232    3.5485   24.0008 C   0  0  0  0  0  0  0  0  0  0  0  0
    7.9630    2.5157   25.0009 C   0  0  0  0  0  0  0  0  0  0  0  0
    8.7284    1.4324   24.3918 N   0  0  0  0  0  0  0  0  0  0  0  0
    8.0964    0.1416   24.1504 C   0  0  0  0  0  0  0  0  0  0  0  0
    8.3796   -0.4134   22.7309 C   0  0  2  0  0  0  0  0  0  0  0  0
    7.6686    0.4452   21.6465 C   0  0  0  0  0  0  0  0  0  0  0  0
    7.7951    1.6348   21.4705 O   0  0  0  0  0  0  0  0  0  0  0  0
    6.8821   -0.3818   20.8720 N   0  0  0  0  0  0  0  0  0  0  0  0
    6.1255    0.1052   19.7781 C   0  0  0  0  0  0  0  0  0  0  0  0
    6.4410   -0.2257   18.4828 C   0  0  0  0  0  0  0  0  0  0  0  0
    5.7706    0.2277   17.3979 N   0  0  0  0  0  0  0  0  0  0  0  0
    4.7478    1.0216   17.5984 C   0  0  0  0  0  0  0  0  0  0  0  0
    4.2918    1.4235   18.8849 C   0  0  0  0  0  0  0  0  0  0  0  0
    3.1641    2.2729   19.0586 C   0  0  0  0  0  0  0  0  0  0  0  0
    2.7368    2.6120   20.3142 C   0  0  0  0  0  0  0  0  0  0  0  0
    3.4189    2.1201   21.4481 C   0  0  0  0  0  0  0  0  0  0  0  0
    4.5129    1.3058   21.3058 C   0  0  0  0  0  0  0  0  0  0  0  0
    4.9915    0.9464   20.0151 C   0  0  0  0  0  0  0  0  0  0  0  0
    5.0197    0.9247   22.1849 H   0  0  0  0  0  0  0  0  0  0  0  0
    3.0820    2.3943   22.4451 H   0  0  0  0  0  0  0  0  0  0  0  0
    1.8769    3.2643   20.4431 H   0  0  0  0  0  0  0  0  0  0  0  0
    2.6586    2.6435   18.1721 H   0  0  0  0  0  0  0  0  0  0  0  0
    4.2224    1.3836   16.7160 H   0  0  0  0  0  0  0  0  0  0  0  0
    7.2894   -0.8726   18.2626 H   0  0  0  0  0  0  0  0  0  0  0  0
    7.1172   -1.7890   21.1079 C   0  0  0  0  0  0  0  0  0  0  0  0
    7.7980   -1.8483   22.4970 C   0  0  2  0  0  0  0  0  0  0  0  0
    6.8270   -2.3828   23.5622 C   0  0  0  0  0  0  0  0  0  0  0  0
    7.3052   -2.4638   24.5433 H   0  0  0  0  0  0  0  0  0  0  0  0
    5.9403   -1.7457   23.6591 H   0  0  0  0  0  0  0  0  0  0  0  0
    6.4903   -3.3882   23.2836 H   0  0  0  0  0  0  0  0  0  0  0  0
    8.6383   -2.5504   22.4652 H   0  0  0  0  0  0  0  0  0  0  0  0
    6.1659   -2.3343   21.0885 H   0  0  0  0  0  0  0  0  0  0  0  0
    7.7742   -2.1994   20.3328 H   0  0  0  0  0  0  0  0  0  0  0  0
    9.8893   -0.3370   22.5130 C   0  0  0  0  0  0  0  0  0  0  0  0
   10.5150   -1.1485   21.5596 C   0  0  0  0  0  0  0  0  0  0  0  0
   11.8723   -1.0137   21.3503 C   0  0  0  0  0  0  0  0  0  0  0  0
   12.4508   -1.7550   20.3887 F   0  0  0  0  0  0  0  0  0  0  0  0
   12.6446   -0.0614   22.0076 C   0  0  0  0  0  0  0  0  0  0  0  0
   12.0184    0.7792   22.9043 C   0  0  0  0  0  0  0  0  0  0  0  0
   10.6477    0.6626   23.1312 C   0  0  0  0  0  0  0  0  0  0  0  0
    9.9996    1.7104   23.9721 C   0  0  0  0  0  0  0  0  0  0  0  0
   10.5667    2.7599   24.2480 O   0  0  0  0  0  0  0  0  0  0  0  0
   12.5451    1.5838   23.4076 H   0  0  0  0  0  0  0  0  0  0  0  0
   13.6874    0.0554   21.7401 H   0  0  0  0  0  0  0  0  0  0  0  0
    9.9675   -1.8154   20.9018 H   0  0  0  0  0  0  0  0  0  0  0  0
    7.0210    0.2830   24.2746 H   0  0  0  0  0  0  0  0  0  0  0  0
    8.4474   -0.6111   24.8734 H   0  0  0  0  0  0  0  0  0  0  0  0
    8.5696    2.9916   25.7767 H   0  0  0  0  0  0  0  0  0  0  0  0
    7.0688    2.0826   25.4563 H   0  0  0  0  0  0  0  0  0  0  0  0
    8.2778    4.5466   23.6450 N   0  0  0  0  0  0  0  0  0  0  0  0
    7.5268    5.1940   22.6792 O   0  0  0  0  0  0  0  0  0  0  0  0
    5.6396    5.9938   21.1992 H   0  0  0  0  0  0  0  0  0  0  0  0
    4.3940    4.9464   21.9359 H   0  0  0  0  0  0  0  0  0  0  0  0
    5.4270    4.3061   20.6602 H   0  0  0  0  0  0  0  0  0  0  0  0
  1  2  1  0
  2  3  2  0
  3  4  1  0
  4  5  1  0
  5  6  1  0
  6  7  1  0
  8  7  1  1
  8  9  1  0
  9 10  2  0
  9 11  1  0
 11 12  1  0
 12 13  2  0
 13 14  1  0
 14 15  2  0
 15 16  1  0
 16 17  2  0
 17 18  1  0
 18 19  2  0
 19 20  1  0
 20 21  2  0
 20 22  1  0
 19 23  1  0
 18 24  1  0
 17 25  1  0
 15 26  1  0
 13 27  1  0
 11 28  1  0
 28 29  1  0
 29 30  1  0
 30 31  1  0
 30 32  1  0
 30 33  1  0
 29 34  1  6
 28 35  1  0
 28 36  1  0
  8 37  1  0
 37 38  2  0
 38 39  1  0
 39 40  1  0
 39 41  2  0
 41 42  1  0
 42 43  2  0
 43 44  1  0
 44 45  2  0
 42 46  1  0
 41 47  1  0
 38 48  1  0
  7 49  1  0
  7 50  1  0
  5 51  1  0
  5 52  1  0
  4 53  2  0
 53 54  1  0
  1 55  1  0
  1 56  1  0
  1 57  1  0
 54  2  1  0
 44  6  1  0
 29  8  1  0
 43 37  1  0
 21 12  1  0
 21 16  1  0
M  END
>  <cnnaffinities>  (69) 
[6.30779]

>  <score>  (69) 
6.30779

>  <index>  (69) 
68

>  <Smiles>  (69) 
C(c1nc(C(N2C([C@@]3(C(=O)N(c4c(nc(c5c(c(c(c(c45)[H])[H])[H])[H])[H])[H])C([C@@]3(C([H])([H])[H])[H])([H])[H])c3c(c(F)c(c(c3C2=O)[H])[H])[H])([H])[H])([H])[H])no1)([H])([H])[H]

>  <h>  (69) 
<NA>

>  <Training>  (69) 
True

>  <Success>  (69) 
True

>  <enamine_searched>  (69) 
False

>  <enamine_id>  (69) 
nan

$$$$

     RDKit          3D

 64 68  0  0  0  0  0  0  0  0999 V2000
    2.4754   -1.8868   27.4711 C   0  0  0  0  0  0  0  0  0  0  0  0
    3.1721   -1.8203   26.1137 C   0  0  0  0  0  0  0  0  0  0  0  0
    4.6538   -1.5241   26.1857 C   0  0  0  0  0  0  0  0  0  0  0  0
    5.0432   -0.4242   26.5304 O   0  0  0  0  0  0  0  0  0  0  0  0
    5.5225   -2.5401   25.7903 N   0  0  0  0  0  0  0  0  0  0  0  0
    5.2568   -3.9345   26.1372 C   0  0  0  0  0  0  0  0  0  0  0  0
    6.5301   -4.5881   26.6543 C   0  0  0  0  0  0  0  0  0  0  0  0
    7.5879   -4.5464   25.5562 C   0  0  0  0  0  0  0  0  0  0  0  0
    7.7089   -3.1709   24.9376 C   0  0  0  0  0  0  0  0  0  0  0  0
    8.8438   -2.8257   24.2116 C   0  0  0  0  0  0  0  0  0  0  0  0
    8.9489   -1.6090   23.5498 C   0  0  0  0  0  0  0  0  0  0  0  0
    7.9018   -0.6891   23.6446 C   0  0  0  0  0  0  0  0  0  0  0  0
    7.9655    0.5665   22.9481 N   0  0  0  0  0  0  0  0  0  0  0  0
    8.3893    1.7645   23.6835 C   0  0  0  0  0  0  0  0  0  0  0  0
    7.2490    2.4547   24.4107 C   0  0  0  0  0  0  0  0  0  0  0  0
    6.2579    3.1379   23.7006 C   0  0  0  0  0  0  0  0  0  0  0  0
    5.1613    3.6690   24.3650 C   0  0  0  0  0  0  0  0  0  0  0  0
    4.9910    3.4853   25.7289 C   0  0  0  0  0  0  0  0  0  0  0  0
    5.9859    2.8225   26.4316 C   0  0  0  0  0  0  0  0  0  0  0  0
    5.8208    2.5264   28.1387 Cl  0  0  0  0  0  0  0  0  0  0  0  0
    7.1409    2.3936   25.7970 C   0  0  0  0  0  0  0  0  0  0  0  0
    7.9606    2.0799   26.4172 H   0  0  0  0  0  0  0  0  0  0  0  0
    4.1240    3.8726   26.2452 H   0  0  0  0  0  0  0  0  0  0  0  0
    4.4295    4.2511   23.8125 H   0  0  0  0  0  0  0  0  0  0  0  0
    6.3374    3.2811   22.6277 H   0  0  0  0  0  0  0  0  0  0  0  0
    9.1552    1.4536   24.4017 H   0  0  0  0  0  0  0  0  0  0  0  0
    8.8449    2.4198   22.9322 H   0  0  0  0  0  0  0  0  0  0  0  0
    7.7525    0.6980   21.5836 C   0  0  0  0  0  0  0  0  0  0  0  0
    8.1497    1.6568   20.9508 O   0  0  0  0  0  0  0  0  0  0  0  0
    6.9583   -0.4194   20.9025 C   0  0  0  0  0  0  0  0  0  0  0  0
    6.1192    0.1018   19.7740 C   0  0  0  0  0  0  0  0  0  0  0  0
    6.4363   -0.1891   18.4735 C   0  0  0  0  0  0  0  0  0  0  0  0
    5.7695    0.2607   17.3829 N   0  0  0  0  0  0  0  0  0  0  0  0
    4.7370    1.0413   17.5909 C   0  0  0  0  0  0  0  0  0  0  0  0
    4.3021    1.4256   18.8850 C   0  0  0  0  0  0  0  0  0  0  0  0
    3.1886    2.2711   19.0785 C   0  0  0  0  0  0  0  0  0  0  0  0
    2.5440    2.7090   17.9809 F   0  0  0  0  0  0  0  0  0  0  0  0
    2.7480    2.6374   20.3145 C   0  0  0  0  0  0  0  0  0  0  0  0
    3.4383    2.1435   21.4418 C   0  0  0  0  0  0  0  0  0  0  0  0
    4.5359    1.3295   21.3117 C   0  0  0  0  0  0  0  0  0  0  0  0
    5.0009    0.9489   20.0224 C   0  0  0  0  0  0  0  0  0  0  0  0
    5.0448    0.9709   22.2041 H   0  0  0  0  0  0  0  0  0  0  0  0
    3.0724    2.4122   22.4279 H   0  0  0  0  0  0  0  0  0  0  0  0
    1.8905    3.2945   20.4055 H   0  0  0  0  0  0  0  0  0  0  0  0
    4.1901    1.4079   16.7243 H   0  0  0  0  0  0  0  0  0  0  0  0
    7.2874   -0.8349   18.2557 H   0  0  0  0  0  0  0  0  0  0  0  0
    7.6813   -1.1559   20.5268 H   0  0  0  0  0  0  0  0  0  0  0  0
    6.3477   -0.9176   21.6598 H   0  0  0  0  0  0  0  0  0  0  0  0
    6.7972   -0.9744   24.4293 C   0  0  0  0  0  0  0  0  0  0  0  0
    6.6859   -2.2196   25.0651 C   0  0  0  0  0  0  0  0  0  0  0  0
    6.0111   -0.2312   24.5044 H   0  0  0  0  0  0  0  0  0  0  0  0
    9.8258   -1.3752   22.9538 H   0  0  0  0  0  0  0  0  0  0  0  0
    9.6690   -3.5299   24.1651 H   0  0  0  0  0  0  0  0  0  0  0  0
    8.5679   -4.8616   25.9377 H   0  0  0  0  0  0  0  0  0  0  0  0
    7.3195   -5.2706   24.7722 H   0  0  0  0  0  0  0  0  0  0  0  0
    6.3215   -5.6177   26.9661 H   0  0  0  0  0  0  0  0  0  0  0  0
    6.8863   -4.0448   27.5359 H   0  0  0  0  0  0  0  0  0  0  0  0
    4.4739   -3.9419   26.8992 H   0  0  0  0  0  0  0  0  0  0  0  0
    4.8837   -4.4884   25.2633 H   0  0  0  0  0  0  0  0  0  0  0  0
    2.9997   -2.7226   25.5218 H   0  0  0  0  0  0  0  0  0  0  0  0
    2.7552   -0.9739   25.5574 H   0  0  0  0  0  0  0  0  0  0  0  0
    2.6429   -0.9599   28.0269 H   0  0  0  0  0  0  0  0  0  0  0  0
    2.8189   -2.7218   28.0920 H   0  0  0  0  0  0  0  0  0  0  0  0
    1.3963   -2.0040   27.3237 H   0  0  0  0  0  0  0  0  0  0  0  0
  1  2  1  0
  2  3  1  0
  3  4  2  0
  3  5  1  0
  5  6  1  0
  6  7  1  0
  7  8  1  0
  8  9  1  0
  9 10  2  0
 10 11  1  0
 11 12  2  0
 12 13  1  0
 13 14  1  0
 14 15  1  0
 15 16  2  0
 16 17  1  0
 17 18  2  0
 18 19  1  0
 19 20  1  0
 19 21  2  0
 21 22  1  0
 18 23  1  0
 17 24  1  0
 16 25  1  0
 14 26  1  0
 14 27  1  0
 13 28  1  0
 28 29  2  0
 28 30  1  0
 30 31  1  0
 31 32  2  0
 32 33  1  0
 33 34  2  0
 34 35  1  0
 35 36  2  0
 36 37  1  0
 36 38  1  0
 38 39  2  0
 39 40  1  0
 40 41  2  0
 40 42  1  0
 39 43  1  0
 38 44  1  0
 34 45  1  0
 32 46  1  0
 30 47  1  0
 30 48  1  0
 12 49  1  0
 49 50  2  0
 49 51  1  0
 11 52  1  0
 10 53  1  0
  8 54  1  0
  8 55  1  0
  7 56  1  0
  7 57  1  0
  6 58  1  0
  6 59  1  0
  2 60  1  0
  2 61  1  0
  1 62  1  0
  1 63  1  0
  1 64  1  0
 50  5  1  0
 50  9  1  0
 21 15  1  0
 41 31  1  0
 41 35  1  0
M  END
>  <cnnaffinities>  (70) 
[6.36002]

>  <score>  (70) 
6.36002

>  <index>  (70) 
69

>  <Smiles>  (70) 
C(C(C(=O)N1C(C(C(c2c(c(c(N(C(c3c(c(c(c(Cl)c3[H])[H])[H])[H])([H])[H])C(=O)C(c3c(nc(c4c(F)c(c(c(c34)[H])[H])[H])[H])[H])([H])[H])c(c12)[H])[H])[H])([H])[H])([H])[H])([H])[H])([H])[H])([H])([H])[H]

>  <h>  (70) 
<NA>

>  <Training>  (70) 
True

>  <Success>  (70) 
True

>  <enamine_searched>  (70) 
False

>  <enamine_id>  (70) 
nan

$$$$

     RDKit          3D

 57 62  0  0  0  0  0  0  0  0999 V2000
    7.1884   -2.3602   23.5652 C   0  0  0  0  0  0  0  0  0  0  0  0
    7.9954   -1.8168   22.3833 C   0  0  1  0  0  0  0  0  0  0  0  0
    7.1684   -1.7431   21.0843 C   0  0  0  0  0  0  0  0  0  0  0  0
    6.8881   -0.3350   20.9113 N   0  0  0  0  0  0  0  0  0  0  0  0
    6.1351    0.1330   19.8044 C   0  0  0  0  0  0  0  0  0  0  0  0
    6.4556   -0.2141   18.5144 C   0  0  0  0  0  0  0  0  0  0  0  0
    5.7883    0.2250   17.4197 N   0  0  0  0  0  0  0  0  0  0  0  0
    4.7628    1.0194   17.6037 C   0  0  0  0  0  0  0  0  0  0  0  0
    4.3068    1.4363   18.8857 C   0  0  0  0  0  0  0  0  0  0  0  0
    3.1780    2.2845   19.0495 C   0  0  0  0  0  0  0  0  0  0  0  0
    2.7539    2.6428   20.3011 C   0  0  0  0  0  0  0  0  0  0  0  0
    3.4323    2.1672   21.4445 C   0  0  0  0  0  0  0  0  0  0  0  0
    4.5259    1.3450   21.3120 C   0  0  0  0  0  0  0  0  0  0  0  0
    5.0014    0.9726   20.0265 C   0  0  0  0  0  0  0  0  0  0  0  0
    5.0347    0.9606   22.1909 H   0  0  0  0  0  0  0  0  0  0  0  0
    3.1072    2.4656   22.4376 H   0  0  0  0  0  0  0  0  0  0  0  0
    1.8897    3.2921   20.4184 H   0  0  0  0  0  0  0  0  0  0  0  0
    2.6664    2.6406   18.1600 H   0  0  0  0  0  0  0  0  0  0  0  0
    4.2289    1.3664   16.7178 H   0  0  0  0  0  0  0  0  0  0  0  0
    7.3082   -0.8611   18.3042 H   0  0  0  0  0  0  0  0  0  0  0  0
    7.8178    0.4757   21.5417 C   0  0  0  0  0  0  0  0  0  0  0  0
    7.9506    1.6570   21.3304 O   0  0  0  0  0  0  0  0  0  0  0  0
    8.6311   -0.3925   22.5322 C   0  0  1  0  0  0  0  0  0  0  0  0
    8.5376    0.1793   23.9759 C   0  0  0  0  0  0  0  0  0  0  0  0
    9.2038    1.4659   24.1221 N   0  0  0  0  0  0  0  0  0  0  0  0
    8.5660    2.5111   24.9181 C   0  0  0  0  0  0  0  0  0  0  0  0
    7.3636    3.0966   24.2581 C   0  0  0  0  0  0  0  0  0  0  0  0
    6.0949    2.7780   24.6028 N   0  0  0  0  0  0  0  0  0  0  0  0
    5.3232    3.4642   23.8026 N   0  0  0  0  0  0  0  0  0  0  0  0
    6.1200    4.1673   23.0266 N   0  0  0  0  0  0  0  0  0  0  0  0
    5.6286    4.9150   21.8869 C   0  0  0  0  0  0  0  0  0  0  0  0
    6.2978    5.7597   21.7170 H   0  0  0  0  0  0  0  0  0  0  0  0
    4.6218    5.2716   22.1121 H   0  0  0  0  0  0  0  0  0  0  0  0
    5.6061    4.2625   21.0058 H   0  0  0  0  0  0  0  0  0  0  0  0
    7.4068    3.9855   23.2780 N   0  0  0  0  0  0  0  0  0  0  0  0
    8.2349    2.1385   25.8905 H   0  0  0  0  0  0  0  0  0  0  0  0
    9.3144    3.2890   25.0897 H   0  0  0  0  0  0  0  0  0  0  0  0
   10.4333    1.7109   23.5668 C   0  0  0  0  0  0  0  0  0  0  0  0
   11.0949    2.6972   23.8614 O   0  0  0  0  0  0  0  0  0  0  0  0
   10.9326    0.6686   22.6109 C   0  0  0  0  0  0  0  0  0  0  0  0
   12.2831    0.7063   22.2728 C   0  0  0  0  0  0  0  0  0  0  0  0
   12.8443   -0.2768   21.4807 C   0  0  0  0  0  0  0  0  0  0  0  0
   12.0235   -1.3083   21.0274 C   0  0  0  0  0  0  0  0  0  0  0  0
   12.5348   -2.2595   20.2259 F   0  0  0  0  0  0  0  0  0  0  0  0
   10.6722   -1.3366   21.3072 C   0  0  0  0  0  0  0  0  0  0  0  0
   10.1065   -0.3606   22.1409 C   0  0  0  0  0  0  0  0  0  0  0  0
   10.0620   -2.1264   20.8725 H   0  0  0  0  0  0  0  0  0  0  0  0
   13.8925   -0.2680   21.2152 H   0  0  0  0  0  0  0  0  0  0  0  0
   12.8886    1.5349   22.6221 H   0  0  0  0  0  0  0  0  0  0  0  0
    7.4963    0.3217   24.2743 H   0  0  0  0  0  0  0  0  0  0  0  0
    9.0024   -0.5520   24.6533 H   0  0  0  0  0  0  0  0  0  0  0  0
    6.2362   -2.3157   21.1312 H   0  0  0  0  0  0  0  0  0  0  0  0
    7.7504   -2.1152   20.2329 H   0  0  0  0  0  0  0  0  0  0  0  0
    8.8012   -2.5429   22.2688 H   0  0  0  0  0  0  0  0  0  0  0  0
    6.3249   -1.7362   23.8069 H   0  0  0  0  0  0  0  0  0  0  0  0
    7.8143   -2.4582   24.4559 H   0  0  0  0  0  0  0  0  0  0  0  0
    6.8280   -3.3699   23.3420 H   0  0  0  0  0  0  0  0  0  0  0  0
  1  2  1  0
  2  3  1  0
  3  4  1  0
  4  5  1  0
  5  6  2  0
  6  7  1  0
  7  8  2  0
  8  9  1  0
  9 10  2  0
 10 11  1  0
 11 12  2  0
 12 13  1  0
 13 14  2  0
 13 15  1  0
 12 16  1  0
 11 17  1  0
 10 18  1  0
  8 19  1  0
  6 20  1  0
  4 21  1  0
 21 22  2  0
 21 23  1  0
 23 24  1  1
 24 25  1  0
 25 26  1  0
 26 27  1  0
 27 28  1  0
 28 29  2  0
 29 30  1  0
 30 31  1  0
 31 32  1  0
 31 33  1  0
 31 34  1  0
 30 35  1  0
 26 36  1  0
 26 37  1  0
 25 38  1  0
 38 39  2  0
 38 40  1  0
 40 41  2  0
 41 42  1  0
 42 43  2  0
 43 44  1  0
 43 45  1  0
 45 46  2  0
 45 47  1  0
 42 48  1  0
 41 49  1  0
 24 50  1  0
 24 51  1  0
  3 52  1  0
  3 53  1  0
  2 54  1  6
  1 55  1  0
  1 56  1  0
  1 57  1  0
 23  2  1  0
 35 27  2  0
 46 40  1  0
 14  5  1  0
 46 23  1  0
 14  9  1  0
M  END
>  <cnnaffinities>  (71) 
[6.36737, 6.27121]

>  <score>  (71) 
6.36737

>  <index>  (71) 
70

>  <Smiles>  (71) 
C([C@]1(C(N(c2c(nc(c3c(c(c(c(c23)[H])[H])[H])[H])[H])[H])C(=O)[C@]21C(N(C(c1nnn(C([H])([H])[H])n1)([H])[H])C(=O)c1c(c(c(F)c(c21)[H])[H])[H])([H])[H])([H])[H])[H])([H])([H])[H]

>  <h>  (71) 
<NA>

>  <Training>  (71) 
True

>  <Success>  (71) 
True

>  <enamine_searched>  (71) 
False

>  <enamine_id>  (71) 
nan

$$$$

     RDKit          3D

 59 64  0  0  0  0  0  0  0  0999 V2000
    7.8397   -2.9844   23.2511 C   0  0  0  0  0  0  0  0  0  0  0  0
    8.0129   -1.8765   22.2207 C   0  0  1  0  0  0  0  0  0  0  0  0
    6.8461   -1.7793   21.2295 C   0  0  0  0  0  0  0  0  0  0  0  0
    6.8778   -0.3958   20.8179 N   0  0  0  0  0  0  0  0  0  0  0  0
    6.1058    0.1124   19.7589 C   0  0  0  0  0  0  0  0  0  0  0  0
    6.4224   -0.2229   18.4692 C   0  0  0  0  0  0  0  0  0  0  0  0
    5.7587    0.2288   17.3825 N   0  0  0  0  0  0  0  0  0  0  0  0
    4.7421    1.0262   17.5904 C   0  0  0  0  0  0  0  0  0  0  0  0
    4.2953    1.4285   18.8795 C   0  0  0  0  0  0  0  0  0  0  0  0
    3.1792    2.2865   19.0425 C   0  0  0  0  0  0  0  0  0  0  0  0
    2.7456    2.6307   20.2907 C   0  0  0  0  0  0  0  0  0  0  0  0
    3.4085    2.1356   21.4372 C   0  0  0  0  0  0  0  0  0  0  0  0
    4.4962    1.3132   21.3068 C   0  0  0  0  0  0  0  0  0  0  0  0
    4.9798    0.9499   20.0156 C   0  0  0  0  0  0  0  0  0  0  0  0
    5.0014    0.9441   22.1966 H   0  0  0  0  0  0  0  0  0  0  0  0
    3.0446    2.4064   22.4231 H   0  0  0  0  0  0  0  0  0  0  0  0
    1.8852    3.2810   20.4113 H   0  0  0  0  0  0  0  0  0  0  0  0
    2.6824    2.6545   18.1490 H   0  0  0  0  0  0  0  0  0  0  0  0
    4.2106    1.3929   16.7117 H   0  0  0  0  0  0  0  0  0  0  0  0
    7.2745   -0.8756   18.2841 H   0  0  0  0  0  0  0  0  0  0  0  0
    7.5917    0.4302   21.6475 C   0  0  0  0  0  0  0  0  0  0  0  0
    7.7079    1.6273   21.4941 O   0  0  0  0  0  0  0  0  0  0  0  0
    8.2064   -0.4345   22.7682 C   0  0  1  0  0  0  0  0  0  0  0  0
    7.4167   -0.1819   24.0784 C   0  0  0  0  0  0  0  0  0  0  0  0
    7.5540    1.2026   24.5004 N   0  0  0  0  0  0  0  0  0  0  0  0
    6.4004    1.8982   25.0374 C   0  0  0  0  0  0  0  0  0  0  0  0
    6.2176    1.7074   26.5165 C   0  0  0  0  0  0  0  0  0  0  0  0
    6.0130    0.5385   27.0911 N   0  0  0  0  0  0  0  0  0  0  0  0
    5.8011    0.8248   28.4203 C   0  0  0  0  0  0  0  0  0  0  0  0
    5.8749    2.1714   28.6369 C   0  0  0  0  0  0  0  0  0  0  0  0
    6.1417    2.7367   27.4107 N   0  0  0  0  0  0  0  0  0  0  0  0
    6.3411    4.1460   27.1348 C   0  0  0  0  0  0  0  0  0  0  0  0
    6.2653    4.6895   28.0793 H   0  0  0  0  0  0  0  0  0  0  0  0
    7.3292    4.3016   26.6935 H   0  0  0  0  0  0  0  0  0  0  0  0
    5.5701    4.5254   26.4545 H   0  0  0  0  0  0  0  0  0  0  0  0
    5.7573    2.7648   29.5355 H   0  0  0  0  0  0  0  0  0  0  0  0
    5.5960    0.0418   29.1420 H   0  0  0  0  0  0  0  0  0  0  0  0
    6.4629    2.9592   24.7676 H   0  0  0  0  0  0  0  0  0  0  0  0
    5.5103    1.4889   24.5419 H   0  0  0  0  0  0  0  0  0  0  0  0
    8.7560    1.8461   24.4747 C   0  0  0  0  0  0  0  0  0  0  0  0
    8.9131    2.9741   24.9334 O   0  0  0  0  0  0  0  0  0  0  0  0
    9.8941    1.0901   23.8476 C   0  0  0  0  0  0  0  0  0  0  0  0
   11.2056    1.5199   24.0408 C   0  0  0  0  0  0  0  0  0  0  0  0
   12.2551    0.9299   23.3624 C   0  0  0  0  0  0  0  0  0  0  0  0
   11.9480    0.0169   22.3588 C   0  0  0  0  0  0  0  0  0  0  0  0
   12.9227   -0.3854   21.5315 F   0  0  0  0  0  0  0  0  0  0  0  0
   10.6656   -0.4411   22.1506 C   0  0  0  0  0  0  0  0  0  0  0  0
    9.6330    0.0270   22.9730 C   0  0  0  0  0  0  0  0  0  0  0  0
   10.4990   -1.1196   21.3195 H   0  0  0  0  0  0  0  0  0  0  0  0
   13.2949    1.1861   23.5430 H   0  0  0  0  0  0  0  0  0  0  0  0
   11.3665    2.3672   24.6891 H   0  0  0  0  0  0  0  0  0  0  0  0
    6.3464   -0.3658   23.9382 H   0  0  0  0  0  0  0  0  0  0  0  0
    7.7605   -0.8564   24.8772 H   0  0  0  0  0  0  0  0  0  0  0  0
    6.9805   -2.4170   20.3592 H   0  0  0  0  0  0  0  0  0  0  0  0
    5.8825   -2.0476   21.6899 H   0  0  0  0  0  0  0  0  0  0  0  0
    8.8996   -2.1079   21.6287 H   0  0  0  0  0  0  0  0  0  0  0  0
    7.8142   -3.9591   22.7510 H   0  0  0  0  0  0  0  0  0  0  0  0
    8.6687   -2.9745   23.9673 H   0  0  0  0  0  0  0  0  0  0  0  0
    6.9023   -2.8592   23.8070 H   0  0  0  0  0  0  0  0  0  0  0  0
  1  2  1  0
  2  3  1  0
  3  4  1  0
  4  5  1  0
  5  6  2  0
  6  7  1  0
  7  8  2  0
  8  9  1  0
  9 10  2  0
 10 11  1  0
 11 12  2  0
 12 13  1  0
 13 14  2  0
 13 15  1  0
 12 16  1  0
 11 17  1  0
 10 18  1  0
  8 19  1  0
  6 20  1  0
  4 21  1  0
 21 22  2  0
 21 23  1  0
 23 24  1  1
 24 25  1  0
 25 26  1  0
 26 27  1  0
 27 28  2  0
 28 29  1  0
 29 30  2  0
 30 31  1  0
 31 32  1  0
 32 33  1  0
 32 34  1  0
 32 35  1  0
 30 36  1  0
 29 37  1  0
 26 38  1  0
 26 39  1  0
 25 40  1  0
 40 41  2  0
 40 42  1  0
 42 43  2  0
 43 44  1  0
 44 45  2  0
 45 46  1  0
 45 47  1  0
 47 48  2  0
 47 49  1  0
 44 50  1  0
 43 51  1  0
 24 52  1  0
 24 53  1  0
  3 54  1  0
  3 55  1  0
  2 56  1  6
  1 57  1  0
  1 58  1  0
  1 59  1  0
 23  2  1  0
 31 27  1  0
 48 42  1  0
 14  5  1  0
 48 23  1  0
 14  9  1  0
M  END
>  <cnnaffinities>  (72) 
[6.30682, 6.24376]

>  <score>  (72) 
6.30682

>  <index>  (72) 
71

>  <Smiles>  (72) 
C([C@]1(C(N(c2c(nc(c3c(c(c(c(c23)[H])[H])[H])[H])[H])[H])C(=O)[C@]21C(N(C(c1nc(c(n1C([H])([H])[H])[H])[H])([H])[H])C(=O)c1c(c(c(F)c(c21)[H])[H])[H])([H])[H])([H])[H])[H])([H])([H])[H]

>  <h>  (72) 
<NA>

>  <Training>  (72) 
True

>  <Success>  (72) 
True

>  <enamine_searched>  (72) 
False

>  <enamine_id>  (72) 
nan

$$$$

     RDKit          3D

 60 64  0  0  0  0  0  0  0  0999 V2000
    7.8164   -8.4592   22.8211 C   0  0  0  0  0  0  0  0  0  0  0  0
    6.9651   -7.2990   22.6925 N   0  0  0  0  0  0  0  0  0  0  0  0
    7.1880   -6.3932   21.7107 C   0  0  0  0  0  0  0  0  0  0  0  0
    8.0974   -6.4917   20.9055 O   0  0  0  0  0  0  0  0  0  0  0  0
    6.2269   -5.2100   21.7436 C   0  0  0  0  0  0  0  0  0  0  0  0
    6.6912   -4.2157   22.6912 N   0  0  0  0  0  0  0  0  0  0  0  0
    7.8108   -3.3398   22.3743 C   0  0  0  0  0  0  0  0  0  0  0  0
    7.4565   -1.8571   22.6746 C   0  0  2  0  0  0  0  0  0  0  0  0
    6.3753   -1.3936   21.6836 C   0  0  0  0  0  0  0  0  0  0  0  0
    5.2474   -1.8346   21.5916 O   0  0  0  0  0  0  0  0  0  0  0  0
    6.9018   -0.4051   20.8769 N   0  0  0  0  0  0  0  0  0  0  0  0
    6.1511    0.1151   19.8000 C   0  0  0  0  0  0  0  0  0  0  0  0
    6.4824   -0.2000   18.5055 C   0  0  0  0  0  0  0  0  0  0  0  0
    5.8101    0.2353   17.4155 N   0  0  0  0  0  0  0  0  0  0  0  0
    4.7754    1.0137   17.6151 C   0  0  0  0  0  0  0  0  0  0  0  0
    4.3243    1.4129   18.9036 C   0  0  0  0  0  0  0  0  0  0  0  0
    3.2026    2.2670   19.0535 C   0  0  0  0  0  0  0  0  0  0  0  0
    2.7928    2.6558   20.2992 C   0  0  0  0  0  0  0  0  0  0  0  0
    3.4845    2.2123   21.4456 C   0  0  0  0  0  0  0  0  0  0  0  0
    4.5726    1.3839   21.3269 C   0  0  0  0  0  0  0  0  0  0  0  0
    5.0201    0.9589   20.0415 C   0  0  0  0  0  0  0  0  0  0  0  0
    5.0869    1.0459   22.2195 H   0  0  0  0  0  0  0  0  0  0  0  0
    3.1520    2.5372   22.4279 H   0  0  0  0  0  0  0  0  0  0  0  0
    1.9422    3.3216   20.4110 H   0  0  0  0  0  0  0  0  0  0  0  0
    2.6929    2.6106   18.1592 H   0  0  0  0  0  0  0  0  0  0  0  0
    4.2318    1.3680   16.7392 H   0  0  0  0  0  0  0  0  0  0  0  0
    7.3243   -0.8630   18.3089 H   0  0  0  0  0  0  0  0  0  0  0  0
    8.3518   -0.3515   20.9499 C   0  0  0  0  0  0  0  0  0  0  0  0
    8.6401   -0.8991   22.3553 C   0  0  2  0  0  0  0  0  0  0  0  0
    9.9649   -1.4662   22.4489 N   0  0  0  0  0  0  0  0  0  0  0  0
   10.5687   -1.7090   23.6564 C   0  0  0  0  0  0  0  0  0  0  0  0
   10.0582   -1.3727   24.7088 O   0  0  0  0  0  0  0  0  0  0  0  0
   11.8944   -2.4312   23.5596 C   0  0  0  0  0  0  0  0  0  0  0  0
   11.7686   -3.4210   23.1131 H   0  0  0  0  0  0  0  0  0  0  0  0
   12.3105   -2.5512   24.5580 H   0  0  0  0  0  0  0  0  0  0  0  0
   12.5984   -1.8717   22.9381 H   0  0  0  0  0  0  0  0  0  0  0  0
   10.3988   -1.7917   21.5969 H   0  0  0  0  0  0  0  0  0  0  0  0
    8.6020   -0.0742   23.0657 H   0  0  0  0  0  0  0  0  0  0  0  0
    8.7035    0.6753   20.8278 H   0  0  0  0  0  0  0  0  0  0  0  0
    8.8379   -0.9825   20.1867 H   0  0  0  0  0  0  0  0  0  0  0  0
    6.9235   -1.7862   24.0943 C   0  0  0  0  0  0  0  0  0  0  0  0
    6.8793   -0.5834   24.8104 C   0  0  0  0  0  0  0  0  0  0  0  0
    6.4049   -0.5809   26.1116 C   0  0  0  0  0  0  0  0  0  0  0  0
    6.2751    0.9231   26.9722 Cl  0  0  0  0  0  0  0  0  0  0  0  0
    5.9938   -1.7453   26.7599 C   0  0  0  0  0  0  0  0  0  0  0  0
    5.9650   -2.9141   26.0290 C   0  0  0  0  0  0  0  0  0  0  0  0
    6.3476   -2.9152   24.6915 C   0  0  0  0  0  0  0  0  0  0  0  0
    6.0125   -4.1130   23.8660 C   0  0  0  0  0  0  0  0  0  0  0  0
    5.1508   -4.9252   24.1929 O   0  0  0  0  0  0  0  0  0  0  0  0
    5.6182   -3.8457   26.4592 H   0  0  0  0  0  0  0  0  0  0  0  0
    5.6458   -1.7173   27.7886 H   0  0  0  0  0  0  0  0  0  0  0  0
    7.1913    0.3562   24.3686 H   0  0  0  0  0  0  0  0  0  0  0  0
    8.0254   -3.4584   21.3165 H   0  0  0  0  0  0  0  0  0  0  0  0
    8.7106   -3.6232   22.9363 H   0  0  0  0  0  0  0  0  0  0  0  0
    6.1081   -4.7494   20.7604 H   0  0  0  0  0  0  0  0  0  0  0  0
    5.2452   -5.5409   22.0907 H   0  0  0  0  0  0  0  0  0  0  0  0
    6.2046   -7.1518   23.3389 H   0  0  0  0  0  0  0  0  0  0  0  0
    8.6880   -8.2856   23.4745 H   0  0  0  0  0  0  0  0  0  0  0  0
    8.1607   -8.6870   21.8203 H   0  0  0  0  0  0  0  0  0  0  0  0
    7.2273   -9.3055   23.1832 H   0  0  0  0  0  0  0  0  0  0  0  0
  1  2  1  0
  2  3  1  0
  3  4  2  0
  3  5  1  0
  5  6  1  0
  6  7  1  0
  8  7  1  6
  8  9  1  0
  9 10  2  0
  9 11  1  0
 11 12  1  0
 12 13  2  0
 13 14  1  0
 14 15  2  0
 15 16  1  0
 16 17  2  0
 17 18  1  0
 18 19  2  0
 19 20  1  0
 20 21  2  0
 20 22  1  0
 19 23  1  0
 18 24  1  0
 17 25  1  0
 15 26  1  0
 13 27  1  0
 11 28  1  0
 28 29  1  0
 29 30  1  0
 30 31  1  0
 31 32  2  0
 31 33  1  0
 33 34  1  0
 33 35  1  0
 33 36  1  0
 30 37  1  0
 29 38  1  1
 28 39  1  0
 28 40  1  0
  8 41  1  0
 41 42  2  0
 42 43  1  0
 43 44  1  0
 43 45  2  0
 45 46  1  0
 46 47  2  0
 47 48  1  0
 48 49  2  0
 46 50  1  0
 45 51  1  0
 42 52  1  0
  7 53  1  0
  7 54  1  0
  5 55  1  0
  5 56  1  0
  2 57  1  0
  1 58  1  0
  1 59  1  0
  1 60  1  0
 48  6  1  0
 29  8  1  0
 47 41  1  0
 21 12  1  0
 21 16  1  0
M  END
>  <cnnaffinities>  (73) 
[6.75639]

>  <score>  (73) 
6.75639

>  <index>  (73) 
72

>  <Smiles>  (73) 
C(N(C(=O)C(N1C([C@@]2(C(=O)N(c3c(nc(c4c(c(c(c(c34)[H])[H])[H])[H])[H])[H])C([C@@]2(N(C(=O)C([H])([H])[H])[H])[H])([H])[H])c2c(c(Cl)c(c(c2C1=O)[H])[H])[H])([H])[H])([H])[H])[H])([H])([H])[H]

>  <h>  (73) 
<NA>

>  <Training>  (73) 
True

>  <Success>  (73) 
True

>  <enamine_searched>  (73) 
False

>  <enamine_id>  (73) 
nan

$$$$

     RDKit          3D

 56 61  0  0  0  0  0  0  0  0999 V2000
    8.0355   -2.9585   23.1494 C   0  0  0  0  0  0  0  0  0  0  0  0
    8.0812   -1.8012   22.1495 C   0  0  1  0  0  0  0  0  0  0  0  0
    6.8377   -1.7404   21.2409 C   0  0  0  0  0  0  0  0  0  0  0  0
    6.8120   -0.3590   20.8223 N   0  0  0  0  0  0  0  0  0  0  0  0
    6.0562    0.1234   19.7376 C   0  0  0  0  0  0  0  0  0  0  0  0
    6.3842   -0.2127   18.4510 C   0  0  0  0  0  0  0  0  0  0  0  0
    5.7300    0.2468   17.3594 N   0  0  0  0  0  0  0  0  0  0  0  0
    4.7144    1.0516   17.5592 C   0  0  0  0  0  0  0  0  0  0  0  0
    4.2605    1.4633   18.8435 C   0  0  0  0  0  0  0  0  0  0  0  0
    3.1524    2.3347   19.0144 C   0  0  0  0  0  0  0  0  0  0  0  0
    2.7312    2.6882   20.2664 C   0  0  0  0  0  0  0  0  0  0  0  0
    3.3943    2.1860   21.4093 C   0  0  0  0  0  0  0  0  0  0  0  0
    4.4646    1.3443   21.2715 C   0  0  0  0  0  0  0  0  0  0  0  0
    4.9382    0.9758   19.9797 C   0  0  0  0  0  0  0  0  0  0  0  0
    4.9709    0.9526   22.1496 H   0  0  0  0  0  0  0  0  0  0  0  0
    3.0464    2.4695   22.4009 H   0  0  0  0  0  0  0  0  0  0  0  0
    1.8902    3.3632   20.3946 H   0  0  0  0  0  0  0  0  0  0  0  0
    2.6559    2.7183   18.1264 H   0  0  0  0  0  0  0  0  0  0  0  0
    4.1924    1.4097   16.6728 H   0  0  0  0  0  0  0  0  0  0  0  0
    7.2419   -0.8617   18.2691 H   0  0  0  0  0  0  0  0  0  0  0  0
    7.5673    0.4851   21.5973 C   0  0  0  0  0  0  0  0  0  0  0  0
    7.7040    1.6749   21.3826 O   0  0  0  0  0  0  0  0  0  0  0  0
    8.2197   -0.3556   22.7202 C   0  0  1  0  0  0  0  0  0  0  0  0
    7.4399   -0.1696   24.0324 C   0  0  0  0  0  0  0  0  0  0  0  0
    7.4213    1.2373   24.4071 N   0  0  0  0  0  0  0  0  0  0  0  0
    6.1467    1.8202   24.8100 C   0  0  0  0  0  0  0  0  0  0  0  0
    5.8797    3.2886   24.4025 C   0  0  0  0  0  0  0  0  0  0  0  0
    6.2940    3.7219   25.7854 N   0  0  0  0  0  4  0  0  0  0  0  0
    6.0602    2.3203   26.2695 C   0  0  0  0  0  0  0  0  0  0  0  0
    5.0726    2.1819   26.7085 H   0  0  0  0  0  0  0  0  0  0  0  0
    6.8410    1.9798   26.9424 H   0  0  0  0  0  0  0  0  0  0  0  0
    5.9175    4.5515   26.2654 H   0  0  0  0  0  0  0  0  0  0  0  0
    7.3347    3.8103   25.7123 H   0  0  0  0  0  0  0  0  0  0  0  0
    4.8241    3.4898   24.2030 H   0  0  0  0  0  0  0  0  0  0  0  0
    6.5060    3.7016   23.6115 H   0  0  0  0  0  0  0  0  0  0  0  0
    5.3902    1.0975   24.4895 H   0  0  0  0  0  0  0  0  0  0  0  0
    8.5810    1.9536   24.4656 C   0  0  0  0  0  0  0  0  0  0  0  0
    8.7019    3.0297   25.0681 O   0  0  0  0  0  0  0  0  0  0  0  0
    9.7498    1.3459   23.7748 C   0  0  0  0  0  0  0  0  0  0  0  0
   10.9864    1.9795   23.9021 C   0  0  0  0  0  0  0  0  0  0  0  0
   12.0794    1.5029   23.2177 C   0  0  0  0  0  0  0  0  0  0  0  0
   11.9135    0.4113   22.3749 C   0  0  0  0  0  0  0  0  0  0  0  0
   13.2443   -0.0896   21.4037 Cl  0  0  0  0  0  0  0  0  0  0  0  0
   10.7068   -0.2443   22.2515 C   0  0  0  0  0  0  0  0  0  0  0  0
    9.6008    0.2071   22.9657 C   0  0  0  0  0  0  0  0  0  0  0  0
   10.6539   -1.1172   21.6118 H   0  0  0  0  0  0  0  0  0  0  0  0
   13.0590    1.9575   23.3113 H   0  0  0  0  0  0  0  0  0  0  0  0
   11.0899    2.8675   24.5116 H   0  0  0  0  0  0  0  0  0  0  0  0
    6.4114   -0.5243   23.9025 H   0  0  0  0  0  0  0  0  0  0  0  0
    7.9272   -0.7659   24.8208 H   0  0  0  0  0  0  0  0  0  0  0  0
    5.9150   -2.0283   21.7725 H   0  0  0  0  0  0  0  0  0  0  0  0
    6.9107   -2.3773   20.3590 H   0  0  0  0  0  0  0  0  0  0  0  0
    8.9309   -1.9460   21.4781 H   0  0  0  0  0  0  0  0  0  0  0  0
    8.0303   -3.9229   22.6268 H   0  0  0  0  0  0  0  0  0  0  0  0
    7.1267   -2.9118   23.7625 H   0  0  0  0  0  0  0  0  0  0  0  0
    8.8958   -2.9528   23.8282 H   0  0  0  0  0  0  0  0  0  0  0  0
  1  2  1  0
  2  3  1  0
  3  4  1  0
  4  5  1  0
  5  6  2  0
  6  7  1  0
  7  8  2  0
  8  9  1  0
  9 10  2  0
 10 11  1  0
 11 12  2  0
 12 13  1  0
 13 14  2  0
 13 15  1  0
 12 16  1  0
 11 17  1  0
 10 18  1  0
  8 19  1  0
  6 20  1  0
  4 21  1  0
 21 22  2  0
 21 23  1  0
 23 24  1  1
 24 25  1  0
 25 26  1  0
 26 27  1  0
 27 28  1  0
 28 29  1  0
 29 30  1  0
 29 31  1  0
 28 32  1  0
 28 33  1  0
 27 34  1  0
 27 35  1  0
 26 36  1  0
 25 37  1  0
 37 38  2  0
 37 39  1  0
 39 40  2  0
 40 41  1  0
 41 42  2  0
 42 43  1  0
 42 44  1  0
 44 45  2  0
 44 46  1  0
 41 47  1  0
 40 48  1  0
 24 49  1  0
 24 50  1  0
  3 51  1  0
  3 52  1  0
  2 53  1  6
  1 54  1  0
  1 55  1  0
  1 56  1  0
 23  2  1  0
 29 26  1  0
 45 39  1  0
 14  5  1  0
 45 23  1  0
 14  9  1  0
M  CHG  1  28   1
M  END
>  <cnnaffinities>  (74) 
[5.82338, 5.81798]

>  <score>  (74) 
5.82338

>  <index>  (74) 
73

>  <Smiles>  (74) 
C([C@]1(C(N(c2c(nc(c3c(c(c(c(c23)[H])[H])[H])[H])[H])[H])C(=O)[C@]21C(N(C1(C([N+](C1([H])[H])([H])[H])([H])[H])[H])C(=O)c1c(c(c(Cl)c(c21)[H])[H])[H])([H])[H])([H])[H])[H])([H])([H])[H]

>  <h>  (74) 
<NA>

>  <Training>  (74) 
True

>  <Success>  (74) 
True

>  <enamine_searched>  (74) 
False

>  <enamine_id>  (74) 
nan

$$$$

     RDKit          3D

 55 60  0  0  0  0  0  0  0  0999 V2000
    7.0703   -2.4451   23.4812 C   0  0  0  0  0  0  0  0  0  0  0  0
    7.9537   -1.8416   22.3841 C   0  0  1  0  0  0  0  0  0  0  0  0
    7.2277   -1.7552   21.0257 C   0  0  0  0  0  0  0  0  0  0  0  0
    6.8895   -0.3558   20.8847 N   0  0  0  0  0  0  0  0  0  0  0  0
    6.1238    0.1153   19.7934 C   0  0  0  0  0  0  0  0  0  0  0  0
    6.4413   -0.2264   18.5016 C   0  0  0  0  0  0  0  0  0  0  0  0
    5.7760    0.2202   17.4100 N   0  0  0  0  0  0  0  0  0  0  0  0
    4.7543    1.0161   17.6059 C   0  0  0  0  0  0  0  0  0  0  0  0
    4.2970    1.4165   18.8920 C   0  0  0  0  0  0  0  0  0  0  0  0
    3.1784    2.2756   19.0562 C   0  0  0  0  0  0  0  0  0  0  0  0
    2.7511    2.6254   20.3063 C   0  0  0  0  0  0  0  0  0  0  0  0
    3.4064    2.1189   21.4497 C   0  0  0  0  0  0  0  0  0  0  0  0
    4.4800    1.2741   21.3173 C   0  0  0  0  0  0  0  0  0  0  0  0
    4.9781    0.9367   20.0302 C   0  0  0  0  0  0  0  0  0  0  0  0
    4.9608    0.8647   22.2008 H   0  0  0  0  0  0  0  0  0  0  0  0
    3.0638    2.4069   22.4383 H   0  0  0  0  0  0  0  0  0  0  0  0
    1.9013    3.2913   20.4258 H   0  0  0  0  0  0  0  0  0  0  0  0
    2.6830    2.6495   18.1646 H   0  0  0  0  0  0  0  0  0  0  0  0
    4.2293    1.3790   16.7231 H   0  0  0  0  0  0  0  0  0  0  0  0
    7.2920   -0.8765   18.2972 H   0  0  0  0  0  0  0  0  0  0  0  0
    7.7056    0.4717   21.6347 C   0  0  0  0  0  0  0  0  0  0  0  0
    7.7885    1.6718   21.4960 O   0  0  0  0  0  0  0  0  0  0  0  0
    8.4963   -0.3994   22.6425 C   0  0  1  0  0  0  0  0  0  0  0  0
    8.2721    0.0747   24.0980 C   0  0  0  0  0  0  0  0  0  0  0  0
    8.8742    1.3638   24.3749 N   0  0  0  0  0  0  0  0  0  0  0  0
    8.1044    2.3650   25.0948 C   0  0  0  0  0  0  0  0  0  0  0  0
    7.3387    3.2884   24.1817 C   0  0  0  0  0  0  0  0  0  0  0  0
    7.8222    4.4209   23.4634 C   0  0  0  0  0  0  0  0  0  0  0  0
    6.7257    4.8591   22.8020 C   0  0  0  0  0  0  0  0  0  0  0  0
    5.6650    4.1053   23.1051 O   0  0  0  0  0  0  0  0  0  0  0  0
    6.0589    3.1043   23.9681 N   0  0  0  0  0  0  0  0  0  0  0  0
    6.5359    5.6571   22.0961 H   0  0  0  0  0  0  0  0  0  0  0  0
    8.8299    4.8068   23.4592 H   0  0  0  0  0  0  0  0  0  0  0  0
    7.3966    1.8491   25.7503 H   0  0  0  0  0  0  0  0  0  0  0  0
    8.8073    2.9387   25.7020 H   0  0  0  0  0  0  0  0  0  0  0  0
   10.0739    1.7554   23.8482 C   0  0  0  0  0  0  0  0  0  0  0  0
   10.5777    2.8407   24.1125 O   0  0  0  0  0  0  0  0  0  0  0  0
   10.7269    0.7777   22.9382 C   0  0  0  0  0  0  0  0  0  0  0  0
   12.0861    0.9370   22.6671 C   0  0  0  0  0  0  0  0  0  0  0  0
   12.7436    0.0170   21.8708 C   0  0  0  0  0  0  0  0  0  0  0  0
   11.9967   -1.0189   21.3109 C   0  0  0  0  0  0  0  0  0  0  0  0
   12.5684   -1.9056   20.4765 F   0  0  0  0  0  0  0  0  0  0  0  0
   10.6400   -1.1343   21.5039 C   0  0  0  0  0  0  0  0  0  0  0  0
    9.9909   -0.2674   22.3760 C   0  0  0  0  0  0  0  0  0  0  0  0
   10.1079   -1.8890   20.9359 H   0  0  0  0  0  0  0  0  0  0  0  0
   13.7998    0.0995   21.6500 H   0  0  0  0  0  0  0  0  0  0  0  0
   12.5736    1.8185   23.0705 H   0  0  0  0  0  0  0  0  0  0  0  0
    8.7110   -0.6787   24.7635 H   0  0  0  0  0  0  0  0  0  0  0  0
    7.2050    0.1559   24.3170 H   0  0  0  0  0  0  0  0  0  0  0  0
    7.8932   -2.0797   20.2138 H   0  0  0  0  0  0  0  0  0  0  0  0
    6.3164   -2.3616   20.9897 H   0  0  0  0  0  0  0  0  0  0  0  0
    8.8026   -2.5249   22.3086 H   0  0  0  0  0  0  0  0  0  0  0  0
    6.7680   -3.4589   23.1993 H   0  0  0  0  0  0  0  0  0  0  0  0
    6.1650   -1.8572   23.6600 H   0  0  0  0  0  0  0  0  0  0  0  0
    7.6185   -2.5298   24.4248 H   0  0  0  0  0  0  0  0  0  0  0  0
  1  2  1  0
  2  3  1  0
  3  4  1  0
  4  5  1  0
  5  6  2  0
  6  7  1  0
  7  8  2  0
  8  9  1  0
  9 10  2  0
 10 11  1  0
 11 12  2  0
 12 13  1  0
 13 14  2  0
 13 15  1  0
 12 16  1  0
 11 17  1  0
 10 18  1  0
  8 19  1  0
  6 20  1  0
  4 21  1  0
 21 22  2  0
 21 23  1  0
 23 24  1  1
 24 25  1  0
 25 26  1  0
 26 27  1  0
 27 28  1  0
 28 29  2  0
 29 30  1  0
 30 31  1  0
 29 32  1  0
 28 33  1  0
 26 34  1  0
 26 35  1  0
 25 36  1  0
 36 37  2  0
 36 38  1  0
 38 39  2  0
 39 40  1  0
 40 41  2  0
 41 42  1  0
 41 43  1  0
 43 44  2  0
 43 45  1  0
 40 46  1  0
 39 47  1  0
 24 48  1  0
 24 49  1  0
  3 50  1  0
  3 51  1  0
  2 52  1  6
  1 53  1  0
  1 54  1  0
  1 55  1  0
 23  2  1  0
 31 27  2  0
 44 38  1  0
 14  5  1  0
 44 23  1  0
 14  9  1  0
M  END
>  <cnnaffinities>  (75) 
[6.18484, 5.90581]

>  <score>  (75) 
6.18484

>  <index>  (75) 
74

>  <Smiles>  (75) 
C([C@]1(C(N(c2c(nc(c3c(c(c(c(c23)[H])[H])[H])[H])[H])[H])C(=O)[C@]21C(N(C(c1c(c(on1)[H])[H])([H])[H])C(=O)c1c(c(c(F)c(c21)[H])[H])[H])([H])[H])([H])[H])[H])([H])([H])[H]

>  <h>  (75) 
<NA>

>  <Training>  (75) 
True

>  <Success>  (75) 
True

>  <enamine_searched>  (75) 
False

>  <enamine_id>  (75) 
nan

$$$$

     RDKit          3D

 70 75  0  0  0  0  0  0  0  0999 V2000
    6.8628    8.1919   31.6414 C   0  0  0  0  0  0  0  0  0  0  0  0
    6.3280    7.0680   30.9814 O   0  0  0  0  0  0  0  0  0  0  0  0
    7.1634    6.0469   30.6579 C   0  0  0  0  0  0  0  0  0  0  0  0
    8.5217    6.0126   30.9611 C   0  0  0  0  0  0  0  0  0  0  0  0
    9.2559    4.8939   30.5734 C   0  0  0  0  0  0  0  0  0  0  0  0
    8.6531    3.8429   29.8984 C   0  0  0  0  0  0  0  0  0  0  0  0
    7.2901    3.8756   29.5793 C   0  0  0  0  0  0  0  0  0  0  0  0
    6.6543    2.7293   28.8116 C   0  0  0  0  0  0  0  0  0  0  0  0
    6.7892    2.8715   27.3636 N   0  0  0  0  0  0  0  0  0  0  0  0
    6.3396    1.8713   26.5596 C   0  0  0  0  0  0  0  0  0  0  0  0
    5.7602    0.8898   26.9925 O   0  0  0  0  0  0  0  0  0  0  0  0
    6.5767    2.0673   25.0601 C   0  0  0  0  0  0  0  0  0  0  0  0
    7.6765    1.2833   24.5586 N   0  0  0  0  0  0  0  0  0  0  0  0
    7.4884   -0.0832   24.1076 C   0  0  0  0  0  0  0  0  0  0  0  0
    8.2595   -0.3605   22.7952 C   0  0  2  0  0  0  0  0  0  0  0  0
    7.6450    0.4758   21.6525 C   0  0  0  0  0  0  0  0  0  0  0  0
    7.7613    1.6689   21.4846 O   0  0  0  0  0  0  0  0  0  0  0  0
    6.9417   -0.3667   20.8306 N   0  0  0  0  0  0  0  0  0  0  0  0
    6.1459    0.1210   19.7704 C   0  0  0  0  0  0  0  0  0  0  0  0
    6.4464   -0.2219   18.4765 C   0  0  0  0  0  0  0  0  0  0  0  0
    5.7676    0.2233   17.3949 N   0  0  0  0  0  0  0  0  0  0  0  0
    4.7477    1.0175   17.6030 C   0  0  0  0  0  0  0  0  0  0  0  0
    4.3014    1.4183   18.8927 C   0  0  0  0  0  0  0  0  0  0  0  0
    3.1749    2.2678   19.0601 C   0  0  0  0  0  0  0  0  0  0  0  0
    2.7455    2.6154   20.3104 C   0  0  0  0  0  0  0  0  0  0  0  0
    3.4205    2.1230   21.4513 C   0  0  0  0  0  0  0  0  0  0  0  0
    4.5131    1.3050   21.3146 C   0  0  0  0  0  0  0  0  0  0  0  0
    5.0028    0.9482   20.0234 C   0  0  0  0  0  0  0  0  0  0  0  0
    5.0191    0.9298   22.2003 H   0  0  0  0  0  0  0  0  0  0  0  0
    3.0709    2.4006   22.4413 H   0  0  0  0  0  0  0  0  0  0  0  0
    1.8917    3.2763   20.4361 H   0  0  0  0  0  0  0  0  0  0  0  0
    2.6726    2.6361   18.1694 H   0  0  0  0  0  0  0  0  0  0  0  0
    4.2172    1.3793   16.7225 H   0  0  0  0  0  0  0  0  0  0  0  0
    7.2920   -0.8775   18.2679 H   0  0  0  0  0  0  0  0  0  0  0  0
    6.9471   -1.7498   21.2578 C   0  0  0  0  0  0  0  0  0  0  0  0
    8.0824   -1.8244   22.2958 C   0  0  2  0  0  0  0  0  0  0  0  0
    7.8489   -2.8993   23.3643 C   0  0  0  0  0  0  0  0  0  0  0  0
    7.7965   -3.8996   22.9174 H   0  0  0  0  0  0  0  0  0  0  0  0
    6.9005   -2.7240   23.8853 H   0  0  0  0  0  0  0  0  0  0  0  0
    8.6446   -2.9172   24.1202 H   0  0  0  0  0  0  0  0  0  0  0  0
    9.0037   -2.0727   21.7699 H   0  0  0  0  0  0  0  0  0  0  0  0
    5.9868   -2.0287   21.7122 H   0  0  0  0  0  0  0  0  0  0  0  0
    7.1058   -2.3870   20.3905 H   0  0  0  0  0  0  0  0  0  0  0  0
    9.6828    0.0944   22.9868 C   0  0  0  0  0  0  0  0  0  0  0  0
   10.6791   -0.3353   22.1051 C   0  0  0  0  0  0  0  0  0  0  0  0
   11.9643    0.1295   22.2863 C   0  0  0  0  0  0  0  0  0  0  0  0
   13.1784   -0.2804   21.1408 Cl  0  0  0  0  0  0  0  0  0  0  0  0
   12.3126    0.9873   23.3294 C   0  0  0  0  0  0  0  0  0  0  0  0
   11.3011    1.4983   24.1105 C   0  0  0  0  0  0  0  0  0  0  0  0
    9.9865    1.1023   23.9075 C   0  0  0  0  0  0  0  0  0  0  0  0
    8.8944    1.8895   24.5507 C   0  0  0  0  0  0  0  0  0  0  0  0
    9.0617    3.0039   25.0342 O   0  0  0  0  0  0  0  0  0  0  0  0
   11.4768    2.2599   24.8454 H   0  0  0  0  0  0  0  0  0  0  0  0
   13.3485    1.2813   23.4658 H   0  0  0  0  0  0  0  0  0  0  0  0
   10.4665   -0.9901   21.2608 H   0  0  0  0  0  0  0  0  0  0  0  0
    6.4174   -0.2515   23.9552 H   0  0  0  0  0  0  0  0  0  0  0  0
    7.8441   -0.7653   24.8903 H   0  0  0  0  0  0  0  0  0  0  0  0
    6.7945    3.1105   24.8182 H   0  0  0  0  0  0  0  0  0  0  0  0
    5.6696    1.7606   24.5360 H   0  0  0  0  0  0  0  0  0  0  0  0
    7.3615    3.6023   26.9669 H   0  0  0  0  0  0  0  0  0  0  0  0
    7.1097    1.7755   29.1085 H   0  0  0  0  0  0  0  0  0  0  0  0
    5.5886    2.6392   29.0573 H   0  0  0  0  0  0  0  0  0  0  0  0
    6.5529    4.9837   29.9790 C   0  0  0  0  0  0  0  0  0  0  0  0
    5.4832    5.0594   29.7963 H   0  0  0  0  0  0  0  0  0  0  0  0
    9.2503    2.9791   29.6310 H   0  0  0  0  0  0  0  0  0  0  0  0
   10.3177    4.8429   30.8077 H   0  0  0  0  0  0  0  0  0  0  0  0
    9.0080    6.8313   31.4847 H   0  0  0  0  0  0  0  0  0  0  0  0
    6.0125    8.8628   31.7735 H   0  0  0  0  0  0  0  0  0  0  0  0
    7.2857    7.9260   32.6198 H   0  0  0  0  0  0  0  0  0  0  0  0
    7.6396    8.6863   31.0420 H   0  0  0  0  0  0  0  0  0  0  0  0
  1  2  1  0
  2  3  1  0
  3  4  2  0
  4  5  1  0
  5  6  2  0
  6  7  1  0
  7  8  1  0
  8  9  1  0
  9 10  1  0
 10 11  2  0
 10 12  1  0
 12 13  1  0
 13 14  1  0
 15 14  1  1
 15 16  1  0
 16 17  2  0
 16 18  1  0
 18 19  1  0
 19 20  2  0
 20 21  1  0
 21 22  2  0
 22 23  1  0
 23 24  2  0
 24 25  1  0
 25 26  2  0
 26 27  1  0
 27 28  2  0
 27 29  1  0
 26 30  1  0
 25 31  1  0
 24 32  1  0
 22 33  1  0
 20 34  1  0
 18 35  1  0
 35 36  1  0
 36 37  1  0
 37 38  1  0
 37 39  1  0
 37 40  1  0
 36 41  1  6
 35 42  1  0
 35 43  1  0
 15 44  1  0
 44 45  2  0
 45 46  1  0
 46 47  1  0
 46 48  2  0
 48 49  1  0
 49 50  2  0
 50 51  1  0
 51 52  2  0
 49 53  1  0
 48 54  1  0
 45 55  1  0
 14 56  1  0
 14 57  1  0
 12 58  1  0
 12 59  1  0
  9 60  1  0
  8 61  1  0
  8 62  1  0
  7 63  2  0
 63 64  1  0
  6 65  1  0
  5 66  1  0
  4 67  1  0
  1 68  1  0
  1 69  1  0
  1 70  1  0
 63  3  1  0
 51 13  1  0
 36 15  1  0
 50 44  1  0
 28 19  1  0
 28 23  1  0
M  END
>  <cnnaffinities>  (76) 
[6.26034]

>  <score>  (76) 
6.26034

>  <index>  (76) 
75

>  <Smiles>  (76) 
C(Oc1c(c(c(c(C(N(C(=O)C(N2C([C@@]3(C(=O)N(c4c(nc(c5c(c(c(c(c45)[H])[H])[H])[H])[H])[H])C([C@@]3(C([H])([H])[H])[H])([H])[H])c3c(c(Cl)c(c(c3C2=O)[H])[H])[H])([H])[H])([H])[H])[H])([H])[H])c1[H])[H])[H])[H])([H])([H])[H]

>  <h>  (76) 
<NA>

>  <Training>  (76) 
True

>  <Success>  (76) 
True

>  <enamine_searched>  (76) 
False

>  <enamine_id>  (76) 
nan

$$$$

     RDKit          3D

 61 65  0  0  0  0  0  0  0  0999 V2000
    7.4734   -2.5238   23.7803 C   0  0  0  0  0  0  0  0  0  0  0  0
    7.8497   -1.7408   22.5200 C   0  0  1  0  0  0  0  0  0  0  0  0
    6.6827   -1.6150   21.5239 C   0  0  0  0  0  0  0  0  0  0  0  0
    6.9495   -0.3705   20.8293 N   0  0  0  0  0  0  0  0  0  0  0  0
    6.1515    0.1212   19.7650 C   0  0  0  0  0  0  0  0  0  0  0  0
    6.4520   -0.2176   18.4705 C   0  0  0  0  0  0  0  0  0  0  0  0
    5.7635    0.2245   17.3919 N   0  0  0  0  0  0  0  0  0  0  0  0
    4.7461    1.0212   17.5981 C   0  0  0  0  0  0  0  0  0  0  0  0
    4.3107    1.4321   18.8903 C   0  0  0  0  0  0  0  0  0  0  0  0
    3.1937    2.2925   19.0653 C   0  0  0  0  0  0  0  0  0  0  0  0
    2.7861    2.6561   20.3178 C   0  0  0  0  0  0  0  0  0  0  0  0
    3.4703    2.1713   21.4557 C   0  0  0  0  0  0  0  0  0  0  0  0
    4.5535    1.3356   21.3112 C   0  0  0  0  0  0  0  0  0  0  0  0
    5.0197    0.9603   20.0176 C   0  0  0  0  0  0  0  0  0  0  0  0
    5.0557    0.9560   22.1966 H   0  0  0  0  0  0  0  0  0  0  0  0
    3.1362    2.4591   22.4473 H   0  0  0  0  0  0  0  0  0  0  0  0
    1.9381    3.3231   20.4472 H   0  0  0  0  0  0  0  0  0  0  0  0
    2.6799    2.6559   18.1790 H   0  0  0  0  0  0  0  0  0  0  0  0
    4.2065    1.3793   16.7202 H   0  0  0  0  0  0  0  0  0  0  0  0
    7.2969   -0.8690   18.2525 H   0  0  0  0  0  0  0  0  0  0  0  0
    7.8412    0.4471   21.4732 C   0  0  0  0  0  0  0  0  0  0  0  0
    8.1447    1.5692   21.1091 O   0  0  0  0  0  0  0  0  0  0  0  0
    8.3853   -0.2884   22.7146 C   0  0  1  0  0  0  0  0  0  0  0  0
    7.8528    0.3633   24.0056 C   0  0  0  0  0  0  0  0  0  0  0  0
    8.4311    1.6669   24.2498 N   0  0  0  0  0  0  0  0  0  0  0  0
    7.5547    2.7177   24.7343 C   0  0  0  0  0  0  0  0  0  0  0  0
    6.8936    3.5168   23.6167 C   0  0  0  0  0  0  0  0  0  0  0  0
    7.8607    4.3429   22.8292 N   0  0  0  0  0  4  0  0  0  0  0  0
    8.3702    5.5210   23.5816 C   0  0  0  0  0  0  0  0  0  0  0  0
    8.9577    5.2045   24.4403 H   0  0  0  0  0  0  0  0  0  0  0  0
    7.5242    6.1376   23.9090 H   0  0  0  0  0  0  0  0  0  0  0  0
    9.0015    6.1205   22.9202 H   0  0  0  0  0  0  0  0  0  0  0  0
    7.2006    4.8344   21.5911 C   0  0  0  0  0  0  0  0  0  0  0  0
    6.9493    3.9841   20.9573 H   0  0  0  0  0  0  0  0  0  0  0  0
    7.8680    5.5172   21.0645 H   0  0  0  0  0  0  0  0  0  0  0  0
    6.2877    5.3858   21.8477 H   0  0  0  0  0  0  0  0  0  0  0  0
    8.6497    3.7433   22.5468 H   0  0  0  0  0  0  0  0  0  0  0  0
    6.1354    4.1868   24.0386 H   0  0  0  0  0  0  0  0  0  0  0  0
    6.3919    2.8452   22.9122 H   0  0  0  0  0  0  0  0  0  0  0  0
    6.7778    2.2419   25.3400 H   0  0  0  0  0  0  0  0  0  0  0  0
    8.1466    3.3682   25.3794 H   0  0  0  0  0  0  0  0  0  0  0  0
    9.7417    1.9475   24.0251 C   0  0  0  0  0  0  0  0  0  0  0  0
   10.2137    3.0557   24.2684 O   0  0  0  0  0  0  0  0  0  0  0  0
   10.5561    0.8537   23.3969 C   0  0  0  0  0  0  0  0  0  0  0  0
   11.9564    0.9178   23.3842 C   0  0  0  0  0  0  0  0  0  0  0  0
   12.6726    0.0872   22.5363 C   0  0  0  0  0  0  0  0  0  0  0  0
   11.9736   -0.7714   21.6796 C   0  0  0  0  0  0  0  0  0  0  0  0
   12.7077   -1.5229   20.2738 Cl  0  0  0  0  0  0  0  0  0  0  0  0
   10.6139   -0.9421   21.8002 C   0  0  0  0  0  0  0  0  0  0  0  0
    9.8898   -0.1608   22.6973 C   0  0  0  0  0  0  0  0  0  0  0  0
   10.1498   -1.6497   21.1224 H   0  0  0  0  0  0  0  0  0  0  0  0
   13.7527    0.1509   22.4626 H   0  0  0  0  0  0  0  0  0  0  0  0
   12.4535    1.6583   24.0122 H   0  0  0  0  0  0  0  0  0  0  0  0
    6.7692    0.4912   23.9242 H   0  0  0  0  0  0  0  0  0  0  0  0
    8.0627   -0.3032   24.8511 H   0  0  0  0  0  0  0  0  0  0  0  0
    6.6456   -2.4442   20.8116 H   0  0  0  0  0  0  0  0  0  0  0  0
    5.7179   -1.5845   22.0538 H   0  0  0  0  0  0  0  0  0  0  0  0
    8.6498   -2.2929   22.0252 H   0  0  0  0  0  0  0  0  0  0  0  0
    6.6325   -2.0525   24.3024 H   0  0  0  0  0  0  0  0  0  0  0  0
    7.1704   -3.5456   23.5261 H   0  0  0  0  0  0  0  0  0  0  0  0
    8.3094   -2.5960   24.4860 H   0  0  0  0  0  0  0  0  0  0  0  0
  1  2  1  0
  2  3  1  0
  3  4  1  0
  4  5  1  0
  5  6  2  0
  6  7  1  0
  7  8  2  0
  8  9  1  0
  9 10  2  0
 10 11  1  0
 11 12  2  0
 12 13  1  0
 13 14  2  0
 13 15  1  0
 12 16  1  0
 11 17  1  0
 10 18  1  0
  8 19  1  0
  6 20  1  0
  4 21  1  0
 21 22  2  0
 21 23  1  0
 23 24  1  1
 24 25  1  0
 25 26  1  0
 26 27  1  0
 27 28  1  0
 28 29  1  0
 29 30  1  0
 29 31  1  0
 29 32  1  0
 28 33  1  0
 33 34  1  0
 33 35  1  0
 33 36  1  0
 28 37  1  0
 27 38  1  0
 27 39  1  0
 26 40  1  0
 26 41  1  0
 25 42  1  0
 42 43  2  0
 42 44  1  0
 44 45  2  0
 45 46  1  0
 46 47  2  0
 47 48  1  0
 47 49  1  0
 49 50  2  0
 49 51  1  0
 46 52  1  0
 45 53  1  0
 24 54  1  0
 24 55  1  0
  3 56  1  0
  3 57  1  0
  2 58  1  6
  1 59  1  0
  1 60  1  0
  1 61  1  0
 23  2  1  0
 50 44  1  0
 14  5  1  0
 50 23  1  0
 14  9  1  0
M  CHG  1  28   1
M  END
>  <cnnaffinities>  (77) 
[6.14767]

>  <score>  (77) 
6.14767

>  <index>  (77) 
76

>  <Smiles>  (77) 
C([C@]1(C(N(c2c(nc(c3c(c(c(c(c23)[H])[H])[H])[H])[H])[H])C(=O)[C@]21C(N(C(C([N+](C([H])([H])[H])(C([H])([H])[H])[H])([H])[H])([H])[H])C(=O)c1c(c(c(Cl)c(c21)[H])[H])[H])([H])[H])([H])[H])[H])([H])([H])[H]

>  <h>  (77) 
<NA>

>  <Training>  (77) 
True

>  <Success>  (77) 
True

>  <enamine_searched>  (77) 
False

>  <enamine_id>  (77) 
nan

$$$$

     RDKit          3D

 57 60  0  0  0  0  0  0  0  0999 V2000
    9.6904    7.0847   23.4722 C   0  0  0  0  0  0  0  0  0  0  0  0
    9.3198    6.1964   24.6799 C   0  0  0  0  0  0  0  0  0  0  0  0
    8.1264    6.8109   25.4438 C   0  0  0  0  0  0  0  0  0  0  0  0
    7.8406    6.1786   26.2852 H   0  0  0  0  0  0  0  0  0  0  0  0
    8.3758    7.8043   25.8209 H   0  0  0  0  0  0  0  0  0  0  0  0
    7.2627    6.9077   24.7855 H   0  0  0  0  0  0  0  0  0  0  0  0
   10.4789    6.2133   25.6012 C   0  0  0  0  0  0  0  0  0  0  0  0
   11.3792    6.2698   26.3236 N   0  0  0  0  0  0  0  0  0  0  0  0
    8.9935    4.7623   24.2216 C   0  0  0  0  0  0  0  0  0  0  0  0
    9.7185    3.6392   24.6172 C   0  0  0  0  0  0  0  0  0  0  0  0
    9.3729    2.3597   24.1839 C   0  0  0  0  0  0  0  0  0  0  0  0
    8.3123    2.1536   23.3028 C   0  0  0  0  0  0  0  0  0  0  0  0
    7.9611    0.8345   22.8612 N   0  0  0  0  0  0  0  0  0  0  0  0
    7.6587   -0.1922   23.8603 C   0  0  0  0  0  0  0  0  0  0  0  0
    6.2479   -0.1186   24.4155 C   0  0  0  0  0  0  0  0  0  0  0  0
    5.8456    1.0001   25.1464 C   0  0  0  0  0  0  0  0  0  0  0  0
    4.5364    1.1009   25.6029 C   0  0  0  0  0  0  0  0  0  0  0  0
    3.6122    0.0938   25.3522 C   0  0  0  0  0  0  0  0  0  0  0  0
    4.0283   -1.0279   24.6502 C   0  0  0  0  0  0  0  0  0  0  0  0
    2.8974   -2.3074   24.3330 Cl  0  0  0  0  0  0  0  0  0  0  0  0
    5.3329   -1.1450   24.1851 C   0  0  0  0  0  0  0  0  0  0  0  0
    5.6283   -2.0410   23.6437 H   0  0  0  0  0  0  0  0  0  0  0  0
    2.5891    0.1747   25.7032 H   0  0  0  0  0  0  0  0  0  0  0  0
    4.2287    1.9779   26.1628 H   0  0  0  0  0  0  0  0  0  0  0  0
    6.5565    1.7998   25.3562 H   0  0  0  0  0  0  0  0  0  0  0  0
    8.3663   -0.0953   24.6892 H   0  0  0  0  0  0  0  0  0  0  0  0
    7.8492   -1.1743   23.4262 H   0  0  0  0  0  0  0  0  0  0  0  0
    7.8757    0.6306   21.4803 C   0  0  0  0  0  0  0  0  0  0  0  0
    8.5268    1.3070   20.7057 O   0  0  0  0  0  0  0  0  0  0  0  0
    6.9397   -0.4531   20.9118 C   0  0  0  0  0  0  0  0  0  0  0  0
    6.1110    0.0792   19.7617 C   0  0  0  0  0  0  0  0  0  0  0  0
    6.4261   -0.2076   18.4593 C   0  0  0  0  0  0  0  0  0  0  0  0
    5.7571    0.2468   17.3664 N   0  0  0  0  0  0  0  0  0  0  0  0
    4.7309    1.0314   17.5766 C   0  0  0  0  0  0  0  0  0  0  0  0
    4.2834    1.4259   18.8688 C   0  0  0  0  0  0  0  0  0  0  0  0
    3.1654    2.2842   19.0452 C   0  0  0  0  0  0  0  0  0  0  0  0
    2.7629    2.6466   20.2987 C   0  0  0  0  0  0  0  0  0  0  0  0
    3.4646    2.1689   21.4279 C   0  0  0  0  0  0  0  0  0  0  0  0
    4.5529    1.3422   21.2863 C   0  0  0  0  0  0  0  0  0  0  0  0
    4.9938    0.9425   19.9951 C   0  0  0  0  0  0  0  0  0  0  0  0
    5.0743    0.9970   22.1768 H   0  0  0  0  0  0  0  0  0  0  0  0
    3.1382    2.4639   22.4212 H   0  0  0  0  0  0  0  0  0  0  0  0
    1.9104    3.3050   20.4375 H   0  0  0  0  0  0  0  0  0  0  0  0
    2.6418    2.6502   18.1651 H   0  0  0  0  0  0  0  0  0  0  0  0
    4.1968    1.4003   16.6991 H   0  0  0  0  0  0  0  0  0  0  0  0
    7.2740   -0.8582   18.2457 H   0  0  0  0  0  0  0  0  0  0  0  0
    6.2883   -0.8878   21.6716 H   0  0  0  0  0  0  0  0  0  0  0  0
    7.5794   -1.2589   20.5325 H   0  0  0  0  0  0  0  0  0  0  0  0
    7.5775    3.2786   22.9062 C   0  0  0  0  0  0  0  0  0  0  0  0
    7.9182    4.5504   23.3579 C   0  0  0  0  0  0  0  0  0  0  0  0
    7.3243    5.3895   23.0002 H   0  0  0  0  0  0  0  0  0  0  0  0
    6.7319    3.1568   22.2326 H   0  0  0  0  0  0  0  0  0  0  0  0
    9.9813    1.5179   24.5008 H   0  0  0  0  0  0  0  0  0  0  0  0
   10.5690    3.7686   25.2818 H   0  0  0  0  0  0  0  0  0  0  0  0
   10.5204    6.6501   22.9142 H   0  0  0  0  0  0  0  0  0  0  0  0
    8.8411    7.1787   22.7948 H   0  0  0  0  0  0  0  0  0  0  0  0
    9.9740    8.0868   23.7990 H   0  0  0  0  0  0  0  0  0  0  0  0
  1  2  1  0
  2  3  1  0
  3  4  1  0
  3  5  1  0
  3  6  1  0
  2  7  1  0
  7  8  3  0
  2  9  1  0
  9 10  2  0
 10 11  1  0
 11 12  2  0
 12 13  1  0
 13 14  1  0
 14 15  1  0
 15 16  2  0
 16 17  1  0
 17 18  2  0
 18 19  1  0
 19 20  1  0
 19 21  2  0
 21 22  1  0
 18 23  1  0
 17 24  1  0
 16 25  1  0
 14 26  1  0
 14 27  1  0
 13 28  1  0
 28 29  2  0
 28 30  1  0
 30 31  1  0
 31 32  2  0
 32 33  1  0
 33 34  2  0
 34 35  1  0
 35 36  2  0
 36 37  1  0
 37 38  2  0
 38 39  1  0
 39 40  2  0
 39 41  1  0
 38 42  1  0
 37 43  1  0
 36 44  1  0
 34 45  1  0
 32 46  1  0
 30 47  1  0
 30 48  1  0
 12 49  1  0
 49 50  2  0
 50 51  1  0
 49 52  1  0
 11 53  1  0
 10 54  1  0
  1 55  1  0
  1 56  1  0
  1 57  1  0
 50  9  1  0
 21 15  1  0
 40 31  1  0
 40 35  1  0
M  END
>  <cnnaffinities>  (78) 
[5.73208, 5.66705, 5.66492, 5.82247, 5.81966, 5.8181, 5.8152, 5.66309, 5.66004, 5.65558, 5.80102, 5.79298, 5.62888]

>  <score>  (78) 
5.73208

>  <index>  (78) 
77

>  <Smiles>  (78) 
C(C(C([H])([H])[H])(C#N)c1c(c(c(N(C(c2c(c(c(c(Cl)c2[H])[H])[H])[H])([H])[H])C(=O)C(c2c(nc(c3c(c(c(c(c23)[H])[H])[H])[H])[H])[H])([H])[H])c(c1[H])[H])[H])[H])([H])([H])[H]

>  <h>  (78) 
<NA>

>  <Training>  (78) 
True

>  <Success>  (78) 
True

>  <enamine_searched>  (78) 
False

>  <enamine_id>  (78) 
nan

$$$$

     RDKit          3D

 40 42  0  0  0  0  0  0  0  0999 V2000
   12.3643   -0.5417   24.8830 C   0  0  0  0  0  0  0  0  0  0  0  0
   11.5145   -0.5508   23.6135 C   0  0  0  0  0  0  0  0  0  0  0  0
   10.1724   -1.2597   23.8129 C   0  0  0  0  0  0  0  0  0  0  0  0
    9.3077   -1.2644   22.5492 C   0  0  0  0  0  0  0  0  0  0  0  0
    9.1031    0.1039   22.0969 N   0  0  0  0  0  0  0  0  0  0  0  0
    8.0076    0.5605   21.3969 C   0  0  0  0  0  0  0  0  0  0  0  0
    7.8689    1.7514   21.1556 O   0  0  0  0  0  0  0  0  0  0  0  0
    6.9616   -0.4635   20.8982 C   0  0  0  0  0  0  0  0  0  0  0  0
    6.1116    0.0799   19.7721 C   0  0  0  0  0  0  0  0  0  0  0  0
    6.4261   -0.2088   18.4726 C   0  0  0  0  0  0  0  0  0  0  0  0
    5.7639    0.2507   17.3799 N   0  0  0  0  0  0  0  0  0  0  0  0
    4.7363    1.0328   17.5868 C   0  0  0  0  0  0  0  0  0  0  0  0
    4.2887    1.4238   18.8734 C   0  0  0  0  0  0  0  0  0  0  0  0
    3.1722    2.2804   19.0454 C   0  0  0  0  0  0  0  0  0  0  0  0
    2.7679    2.6510   20.2980 C   0  0  0  0  0  0  0  0  0  0  0  0
    3.4729    2.1803   21.4298 C   0  0  0  0  0  0  0  0  0  0  0  0
    4.5578    1.3536   21.2888 C   0  0  0  0  0  0  0  0  0  0  0  0
    4.9965    0.9439   20.0024 C   0  0  0  0  0  0  0  0  0  0  0  0
    5.1024    1.0158   22.1655 H   0  0  0  0  0  0  0  0  0  0  0  0
    3.1461    2.4815   22.4217 H   0  0  0  0  0  0  0  0  0  0  0  0
    1.9164    3.3137   20.4278 H   0  0  0  0  0  0  0  0  0  0  0  0
    2.6591    2.6396   18.1567 H   0  0  0  0  0  0  0  0  0  0  0  0
    4.2058    1.3917   16.7031 H   0  0  0  0  0  0  0  0  0  0  0  0
    7.2710   -0.8572   18.2359 H   0  0  0  0  0  0  0  0  0  0  0  0
    6.3385   -0.7692   21.7497 H   0  0  0  0  0  0  0  0  0  0  0  0
    7.4818   -1.3690   20.5509 H   0  0  0  0  0  0  0  0  0  0  0  0
   10.3493    0.8363   21.9162 C   0  0  0  0  0  0  0  0  0  0  0  0
   11.2298    0.8774   23.1482 C   0  0  0  0  0  0  0  0  0  0  0  0
   12.1764    1.3506   22.8616 H   0  0  0  0  0  0  0  0  0  0  0  0
   10.7885    1.4719   23.9670 H   0  0  0  0  0  0  0  0  0  0  0  0
   10.9336    0.2720   21.1929 H   0  0  0  0  0  0  0  0  0  0  0  0
   10.0875    1.8281   21.5551 H   0  0  0  0  0  0  0  0  0  0  0  0
    8.3269   -1.6977   22.7578 H   0  0  0  0  0  0  0  0  0  0  0  0
    9.7995   -1.8963   21.7802 H   0  0  0  0  0  0  0  0  0  0  0  0
    9.6290   -0.7350   24.6092 H   0  0  0  0  0  0  0  0  0  0  0  0
   10.3369   -2.2914   24.1401 H   0  0  0  0  0  0  0  0  0  0  0  0
   12.0698   -1.0874   22.8206 H   0  0  0  0  0  0  0  0  0  0  0  0
   11.8423    0.0143   25.6724 H   0  0  0  0  0  0  0  0  0  0  0  0
   13.3309   -0.0497   24.7129 H   0  0  0  0  0  0  0  0  0  0  0  0
   12.5568   -1.5572   25.2495 H   0  0  0  0  0  0  0  0  0  0  0  0
  1  2  1  0
  2  3  1  0
  3  4  1  0
  4  5  1  0
  5  6  1  0
  6  7  2  0
  6  8  1  0
  8  9  1  0
  9 10  2  0
 10 11  1  0
 11 12  2  0
 12 13  1  0
 13 14  2  0
 14 15  1  0
 15 16  2  0
 16 17  1  0
 17 18  2  0
 17 19  1  0
 16 20  1  0
 15 21  1  0
 14 22  1  0
 12 23  1  0
 10 24  1  0
  8 25  1  0
  8 26  1  0
  5 27  1  0
 27 28  1  0
 28 29  1  0
 28 30  1  0
 27 31  1  0
 27 32  1  0
  4 33  1  0
  4 34  1  0
  3 35  1  0
  3 36  1  0
  2 37  1  0
  1 38  1  0
  1 39  1  0
  1 40  1  0
 28  2  1  0
 18  9  1  0
 18 13  1  0
M  END
>  <cnnaffinities>  (79) 
[5.27523, 5.27491, 5.15844, 5.15839, 4.57397, 4.57453, 4.57058, 4.57089]

>  <score>  (79) 
5.27523

>  <index>  (79) 
79

>  <Smiles>  (79) 
C(C1(C(C(N(C(=O)C(c2c(nc(c3c(c(c(c(c23)[H])[H])[H])[H])[H])[H])([H])[H])C(C1([H])[H])([H])[H])([H])[H])([H])[H])[H])([H])([H])[H]

>  <h>  (79) 
<NA>

>  <Training>  (79) 
True

>  <Success>  (79) 
True

>  <enamine_searched>  (79) 
False

>  <enamine_id>  (79) 
nan

$$$$

     RDKit          3D

 59 64  0  0  0  0  0  0  0  0999 V2000
    6.8328   -2.2290   23.6731 C   0  0  0  0  0  0  0  0  0  0  0  0
    7.7570   -1.8454   22.5091 C   0  0  1  0  0  0  0  0  0  0  0  0
    6.9677   -1.7802   21.1882 C   0  0  0  0  0  0  0  0  0  0  0  0
    6.8590   -0.3766   20.8956 N   0  0  0  0  0  0  0  0  0  0  0  0
    6.1182    0.1113   19.7926 C   0  0  0  0  0  0  0  0  0  0  0  0
    6.4402   -0.2298   18.5010 C   0  0  0  0  0  0  0  0  0  0  0  0
    5.7786    0.2265   17.4096 N   0  0  0  0  0  0  0  0  0  0  0  0
    4.7541    1.0224   17.5986 C   0  0  0  0  0  0  0  0  0  0  0  0
    4.2948    1.4218   18.8861 C   0  0  0  0  0  0  0  0  0  0  0  0
    3.1704    2.2722   19.0528 C   0  0  0  0  0  0  0  0  0  0  0  0
    2.7374    2.6082   20.3078 C   0  0  0  0  0  0  0  0  0  0  0  0
    3.4026    2.1087   21.4481 C   0  0  0  0  0  0  0  0  0  0  0  0
    4.4977    1.2916   21.3134 C   0  0  0  0  0  0  0  0  0  0  0  0
    4.9815    0.9455   20.0224 C   0  0  0  0  0  0  0  0  0  0  0  0
    5.0017    0.8975   22.1894 H   0  0  0  0  0  0  0  0  0  0  0  0
    3.0502    2.3843   22.4394 H   0  0  0  0  0  0  0  0  0  0  0  0
    1.8830    3.2655   20.4414 H   0  0  0  0  0  0  0  0  0  0  0  0
    2.6632    2.6442   18.1685 H   0  0  0  0  0  0  0  0  0  0  0  0
    4.2238    1.3803   16.7145 H   0  0  0  0  0  0  0  0  0  0  0  0
    7.2929   -0.8784   18.2929 H   0  0  0  0  0  0  0  0  0  0  0  0
    7.7946    0.3936   21.5476 C   0  0  0  0  0  0  0  0  0  0  0  0
    8.0138    1.5549   21.2926 O   0  0  0  0  0  0  0  0  0  0  0  0
    8.4947   -0.4705   22.6193 C   0  0  1  0  0  0  0  0  0  0  0  0
    8.3685    0.1497   24.0264 C   0  0  0  0  0  0  0  0  0  0  0  0
    9.1748    1.3453   24.2163 N   0  0  0  0  0  0  0  0  0  0  0  0
    8.5681    2.5158   24.8430 C   0  0  0  0  0  0  0  0  0  0  0  0
    7.6654    3.3018   23.9361 C   0  0  0  0  0  0  0  0  0  0  0  0
    6.2912    3.2941   23.7987 C   0  0  0  0  0  0  0  0  0  0  0  0
    6.0314    4.2313   22.7806 C   0  0  0  0  0  0  0  0  0  0  0  0
    7.1468    4.7889   22.3376 N   0  0  0  0  0  0  0  0  0  0  0  0
    8.1272    4.2168   23.0468 N   0  0  0  0  0  0  0  0  0  0  0  0
    9.4919    4.5794   22.7448 C   0  0  0  0  0  0  0  0  0  0  0  0
    9.9918    3.7990   22.1692 H   0  0  0  0  0  0  0  0  0  0  0  0
   10.0617    4.7755   23.6523 H   0  0  0  0  0  0  0  0  0  0  0  0
    9.4559    5.4855   22.1463 H   0  0  0  0  0  0  0  0  0  0  0  0
    5.0952    4.5081   22.3195 H   0  0  0  0  0  0  0  0  0  0  0  0
    5.6003    2.6826   24.3709 H   0  0  0  0  0  0  0  0  0  0  0  0
    9.3879    3.1471   25.1925 H   0  0  0  0  0  0  0  0  0  0  0  0
    7.9965    2.1873   25.7212 H   0  0  0  0  0  0  0  0  0  0  0  0
   10.4772    1.4057   23.8191 C   0  0  0  0  0  0  0  0  0  0  0  0
   11.2560    2.2775   24.2020 O   0  0  0  0  0  0  0  0  0  0  0  0
   10.8964    0.3584   22.8506 C   0  0  0  0  0  0  0  0  0  0  0  0
   12.2297    0.3999   22.4555 C   0  0  0  0  0  0  0  0  0  0  0  0
   12.6967   -0.4772   21.5058 C   0  0  0  0  0  0  0  0  0  0  0  0
   11.8181   -1.4521   21.0415 C   0  0  0  0  0  0  0  0  0  0  0  0
   12.2883   -2.3925   20.2043 F   0  0  0  0  0  0  0  0  0  0  0  0
   10.4715   -1.4584   21.3591 C   0  0  0  0  0  0  0  0  0  0  0  0
    9.9850   -0.5540   22.3072 C   0  0  0  0  0  0  0  0  0  0  0  0
    9.8340   -2.1516   20.8203 H   0  0  0  0  0  0  0  0  0  0  0  0
   13.6939   -0.3959   21.0827 H   0  0  0  0  0  0  0  0  0  0  0  0
   12.8511    1.1503   22.9266 H   0  0  0  0  0  0  0  0  0  0  0  0
    8.6878   -0.6144   24.7430 H   0  0  0  0  0  0  0  0  0  0  0  0
    7.3325    0.4155   24.2359 H   0  0  0  0  0  0  0  0  0  0  0  0
    5.9717   -2.2264   21.2662 H   0  0  0  0  0  0  0  0  0  0  0  0
    7.4973   -2.2886   20.3827 H   0  0  0  0  0  0  0  0  0  0  0  0
    8.5110   -2.6353   22.4573 H   0  0  0  0  0  0  0  0  0  0  0  0
    6.3655   -3.1997   23.4778 H   0  0  0  0  0  0  0  0  0  0  0  0
    6.0268   -1.5033   23.8198 H   0  0  0  0  0  0  0  0  0  0  0  0
    7.3759   -2.3296   24.6164 H   0  0  0  0  0  0  0  0  0  0  0  0
  1  2  1  0
  2  3  1  0
  3  4  1  0
  4  5  1  0
  5  6  2  0
  6  7  1  0
  7  8  2  0
  8  9  1  0
  9 10  2  0
 10 11  1  0
 11 12  2  0
 12 13  1  0
 13 14  2  0
 13 15  1  0
 12 16  1  0
 11 17  1  0
 10 18  1  0
  8 19  1  0
  6 20  1  0
  4 21  1  0
 21 22  2  0
 21 23  1  0
 23 24  1  1
 24 25  1  0
 25 26  1  0
 26 27  1  0
 27 28  2  0
 28 29  1  0
 29 30  2  0
 30 31  1  0
 31 32  1  0
 32 33  1  0
 32 34  1  0
 32 35  1  0
 29 36  1  0
 28 37  1  0
 26 38  1  0
 26 39  1  0
 25 40  1  0
 40 41  2  0
 40 42  1  0
 42 43  2  0
 43 44  1  0
 44 45  2  0
 45 46  1  0
 45 47  1  0
 47 48  2  0
 47 49  1  0
 44 50  1  0
 43 51  1  0
 24 52  1  0
 24 53  1  0
  3 54  1  0
  3 55  1  0
  2 56  1  6
  1 57  1  0
  1 58  1  0
  1 59  1  0
 23  2  1  0
 31 27  1  0
 48 42  1  0
 14  5  1  0
 48 23  1  0
 14  9  1  0
M  END
>  <cnnaffinities>  (80) 
[6.53135, 6.33372, 6.19802]

>  <score>  (80) 
6.53135

>  <index>  (80) 
80

>  <Smiles>  (80) 
C([C@]1(C(N(c2c(nc(c3c(c(c(c(c23)[H])[H])[H])[H])[H])[H])C(=O)[C@]21C(N(C(c1c(c(nn1C([H])([H])[H])[H])[H])([H])[H])C(=O)c1c(c(c(F)c(c21)[H])[H])[H])([H])[H])([H])[H])[H])([H])([H])[H]

>  <h>  (80) 
<NA>

>  <Training>  (80) 
True

>  <Success>  (80) 
True

>  <enamine_searched>  (80) 
False

>  <enamine_id>  (80) 
nan

$$$$

     RDKit          3D

 58 63  0  0  0  0  0  0  0  0999 V2000
    5.4567    4.9483   21.4144 C   0  0  0  0  0  0  0  0  0  0  0  0
    6.4423    4.5411   22.4642 C   0  0  0  0  0  0  0  0  0  0  0  0
    6.3560    3.5792   23.3316 N   0  0  0  0  0  0  0  0  0  0  0  0
    7.5892    3.5770   23.9812 C   0  0  0  0  0  0  0  0  0  0  0  0
    7.9882    2.5361   24.9883 C   0  0  0  0  0  0  0  0  0  0  0  0
    8.7416    1.4221   24.4084 N   0  0  0  0  0  0  0  0  0  0  0  0
    8.0724    0.1549   24.1573 C   0  0  0  0  0  0  0  0  0  0  0  0
    8.3581   -0.4211   22.7459 C   0  0  2  0  0  0  0  0  0  0  0  0
    7.6838    0.4360   21.6355 C   0  0  0  0  0  0  0  0  0  0  0  0
    7.8543    1.6146   21.4258 O   0  0  0  0  0  0  0  0  0  0  0  0
    6.8777   -0.3837   20.8745 N   0  0  0  0  0  0  0  0  0  0  0  0
    6.1254    0.1061   19.7781 C   0  0  0  0  0  0  0  0  0  0  0  0
    6.4408   -0.2256   18.4832 C   0  0  0  0  0  0  0  0  0  0  0  0
    5.7704    0.2276   17.3976 N   0  0  0  0  0  0  0  0  0  0  0  0
    4.7478    1.0217   17.5973 C   0  0  0  0  0  0  0  0  0  0  0  0
    4.2917    1.4241   18.8838 C   0  0  0  0  0  0  0  0  0  0  0  0
    3.1636    2.2725   19.0591 C   0  0  0  0  0  0  0  0  0  0  0  0
    2.7360    2.6100   20.3146 C   0  0  0  0  0  0  0  0  0  0  0  0
    3.4186    2.1195   21.4490 C   0  0  0  0  0  0  0  0  0  0  0  0
    4.5144    1.3080   21.3052 C   0  0  0  0  0  0  0  0  0  0  0  0
    4.9923    0.9485   20.0143 C   0  0  0  0  0  0  0  0  0  0  0  0
    5.0218    0.9275   22.1844 H   0  0  0  0  0  0  0  0  0  0  0  0
    3.0810    2.3932   22.4458 H   0  0  0  0  0  0  0  0  0  0  0  0
    1.8752    3.2608   20.4446 H   0  0  0  0  0  0  0  0  0  0  0  0
    2.6567    2.6435   18.1735 H   0  0  0  0  0  0  0  0  0  0  0  0
    4.2218    1.3837   16.7149 H   0  0  0  0  0  0  0  0  0  0  0  0
    7.2886   -0.8736   18.2636 H   0  0  0  0  0  0  0  0  0  0  0  0
    7.0667   -1.7919   21.1397 C   0  0  0  0  0  0  0  0  0  0  0  0
    7.7397   -1.8444   22.5325 C   0  0  2  0  0  0  0  0  0  0  0  0
    6.7465   -2.3350   23.5999 C   0  0  0  0  0  0  0  0  0  0  0  0
    7.2146   -2.4142   24.5857 H   0  0  0  0  0  0  0  0  0  0  0  0
    5.8764   -1.6730   23.6808 H   0  0  0  0  0  0  0  0  0  0  0  0
    6.3830   -3.3347   23.3351 H   0  0  0  0  0  0  0  0  0  0  0  0
    8.5612   -2.5694   22.5192 H   0  0  0  0  0  0  0  0  0  0  0  0
    6.0984   -2.3069   21.1259 H   0  0  0  0  0  0  0  0  0  0  0  0
    7.7131   -2.2390   20.3774 H   0  0  0  0  0  0  0  0  0  0  0  0
    9.8697   -0.3797   22.5321 C   0  0  0  0  0  0  0  0  0  0  0  0
   10.4744   -1.2043   21.5755 C   0  0  0  0  0  0  0  0  0  0  0  0
   11.8335   -1.0981   21.3592 C   0  0  0  0  0  0  0  0  0  0  0  0
   12.3965   -1.8615   20.4067 F   0  0  0  0  0  0  0  0  0  0  0  0
   12.6287   -0.1722   22.0282 C   0  0  0  0  0  0  0  0  0  0  0  0
   12.0233    0.6788   22.9295 C   0  0  0  0  0  0  0  0  0  0  0  0
   10.6490    0.6024   23.1542 C   0  0  0  0  0  0  0  0  0  0  0  0
   10.0118    1.6771   23.9737 C   0  0  0  0  0  0  0  0  0  0  0  0
   10.5843    2.7369   24.2086 O   0  0  0  0  0  0  0  0  0  0  0  0
   12.5777    1.4547   23.4475 H   0  0  0  0  0  0  0  0  0  0  0  0
   13.6806   -0.0899   21.7820 H   0  0  0  0  0  0  0  0  0  0  0  0
    9.9130   -1.8797   20.9369 H   0  0  0  0  0  0  0  0  0  0  0  0
    7.0016    0.3370   24.2582 H   0  0  0  0  0  0  0  0  0  0  0  0
    8.3806   -0.6022   24.8938 H   0  0  0  0  0  0  0  0  0  0  0  0
    7.0867    2.1270   25.4528 H   0  0  0  0  0  0  0  0  0  0  0  0
    8.5991    2.9992   25.7702 H   0  0  0  0  0  0  0  0  0  0  0  0
    8.3297    4.5980   23.5032 C   0  0  0  0  0  0  0  0  0  0  0  0
    7.6146    5.2253   22.5287 O   0  0  0  0  0  0  0  0  0  0  0  0
    9.3165    4.9631   23.7434 H   0  0  0  0  0  0  0  0  0  0  0  0
    5.6679    5.9499   21.0350 H   0  0  0  0  0  0  0  0  0  0  0  0
    4.4535    4.9201   21.8402 H   0  0  0  0  0  0  0  0  0  0  0  0
    5.4732    4.2376   20.5812 H   0  0  0  0  0  0  0  0  0  0  0  0
  1  2  1  0
  2  3  2  0
  3  4  1  0
  4  5  1  0
  5  6  1  0
  6  7  1  0
  8  7  1  1
  8  9  1  0
  9 10  2  0
  9 11  1  0
 11 12  1  0
 12 13  2  0
 13 14  1  0
 14 15  2  0
 15 16  1  0
 16 17  2  0
 17 18  1  0
 18 19  2  0
 19 20  1  0
 20 21  2  0
 20 22  1  0
 19 23  1  0
 18 24  1  0
 17 25  1  0
 15 26  1  0
 13 27  1  0
 11 28  1  0
 28 29  1  0
 29 30  1  0
 30 31  1  0
 30 32  1  0
 30 33  1  0
 29 34  1  6
 28 35  1  0
 28 36  1  0
  8 37  1  0
 37 38  2  0
 38 39  1  0
 39 40  1  0
 39 41  2  0
 41 42  1  0
 42 43  2  0
 43 44  1  0
 44 45  2  0
 42 46  1  0
 41 47  1  0
 38 48  1  0
  7 49  1  0
  7 50  1  0
  5 51  1  0
  5 52  1  0
  4 53  2  0
 53 54  1  0
 53 55  1  0
  1 56  1  0
  1 57  1  0
  1 58  1  0
 54  2  1  0
 44  6  1  0
 29  8  1  0
 43 37  1  0
 21 12  1  0
 21 16  1  0
M  END
>  <cnnaffinities>  (81) 
[6.21407]

>  <score>  (81) 
6.21407

>  <index>  (81) 
81

>  <Smiles>  (81) 
C(c1nc(C(N2C([C@@]3(C(=O)N(c4c(nc(c5c(c(c(c(c45)[H])[H])[H])[H])[H])[H])C([C@@]3(C([H])([H])[H])[H])([H])[H])c3c(c(F)c(c(c3C2=O)[H])[H])[H])([H])[H])([H])[H])c(o1)[H])([H])([H])[H]

>  <h>  (81) 
<NA>

>  <Training>  (81) 
True

>  <Success>  (81) 
True

>  <enamine_searched>  (81) 
False

>  <enamine_id>  (81) 
nan

$$$$

     RDKit          3D

 55 60  0  0  0  0  0  0  0  0999 V2000
    6.9937   -2.4481   23.4784 C   0  0  0  0  0  0  0  0  0  0  0  0
    7.9062   -1.8488   22.4064 C   0  0  1  0  0  0  0  0  0  0  0  0
    7.2168   -1.7611   21.0296 C   0  0  0  0  0  0  0  0  0  0  0  0
    6.8867   -0.3628   20.8754 N   0  0  0  0  0  0  0  0  0  0  0  0
    6.1182    0.1165   19.7930 C   0  0  0  0  0  0  0  0  0  0  0  0
    6.4345   -0.2266   18.5027 C   0  0  0  0  0  0  0  0  0  0  0  0
    5.7743    0.2236   17.4095 N   0  0  0  0  0  0  0  0  0  0  0  0
    4.7535    1.0222   17.5983 C   0  0  0  0  0  0  0  0  0  0  0  0
    4.2948    1.4207   18.8856 C   0  0  0  0  0  0  0  0  0  0  0  0
    3.1766    2.2783   19.0465 C   0  0  0  0  0  0  0  0  0  0  0  0
    2.7380    2.6193   20.2954 C   0  0  0  0  0  0  0  0  0  0  0  0
    3.3870    2.1091   21.4394 C   0  0  0  0  0  0  0  0  0  0  0  0
    4.4703    1.2784   21.3134 C   0  0  0  0  0  0  0  0  0  0  0  0
    4.9752    0.9420   20.0267 C   0  0  0  0  0  0  0  0  0  0  0  0
    4.9406    0.8679   22.2000 H   0  0  0  0  0  0  0  0  0  0  0  0
    3.0303    2.3860   22.4272 H   0  0  0  0  0  0  0  0  0  0  0  0
    1.8861    3.2781   20.4227 H   0  0  0  0  0  0  0  0  0  0  0  0
    2.6805    2.6552   18.1577 H   0  0  0  0  0  0  0  0  0  0  0  0
    4.2235    1.3867   16.7159 H   0  0  0  0  0  0  0  0  0  0  0  0
    7.2864   -0.8761   18.3040 H   0  0  0  0  0  0  0  0  0  0  0  0
    7.6617    0.4604   21.6670 C   0  0  0  0  0  0  0  0  0  0  0  0
    7.7011    1.6661   21.5899 O   0  0  0  0  0  0  0  0  0  0  0  0
    8.4411   -0.4096   22.6765 C   0  0  1  0  0  0  0  0  0  0  0  0
    8.1815    0.0931   24.1172 C   0  0  0  0  0  0  0  0  0  0  0  0
    8.7500    1.4036   24.3590 N   0  0  0  0  0  0  0  0  0  0  0  0
    7.9994    2.4252   25.0660 C   0  0  0  0  0  0  0  0  0  0  0  0
    7.4536    3.4595   24.1275 C   0  0  0  0  0  0  0  0  0  0  0  0
    8.0363    4.5235   23.6844 N   0  0  0  0  0  0  0  0  0  0  0  0
    7.0973    5.0826   22.8240 C   0  0  0  0  0  0  0  0  0  0  0  0
    5.9845    4.3213   22.8217 C   0  0  0  0  0  0  0  0  0  0  0  0
    6.2030    3.2727   23.6659 O   0  0  0  0  0  0  0  0  0  0  0  0
    5.0284    4.3410   22.3215 H   0  0  0  0  0  0  0  0  0  0  0  0
    7.3031    5.9814   22.2652 H   0  0  0  0  0  0  0  0  0  0  0  0
    8.6815    2.9221   25.7567 H   0  0  0  0  0  0  0  0  0  0  0  0
    7.1837    1.9518   25.6192 H   0  0  0  0  0  0  0  0  0  0  0  0
    9.9904    1.7537   23.9067 C   0  0  0  0  0  0  0  0  0  0  0  0
   10.5067    2.8218   24.2060 O   0  0  0  0  0  0  0  0  0  0  0  0
   10.6664    0.7631   23.0190 C   0  0  0  0  0  0  0  0  0  0  0  0
   12.0311    0.9245   22.7711 C   0  0  0  0  0  0  0  0  0  0  0  0
   12.7092    0.0412   21.9523 C   0  0  0  0  0  0  0  0  0  0  0  0
   11.9606   -0.9774   21.3688 C   0  0  0  0  0  0  0  0  0  0  0  0
   12.5290   -1.8170   20.4852 F   0  0  0  0  0  0  0  0  0  0  0  0
   10.6014   -1.1105   21.5378 C   0  0  0  0  0  0  0  0  0  0  0  0
    9.9371   -0.2744   22.4284 C   0  0  0  0  0  0  0  0  0  0  0  0
   10.1042   -1.8936   20.9734 H   0  0  0  0  0  0  0  0  0  0  0  0
   13.7777    0.1178   21.7586 H   0  0  0  0  0  0  0  0  0  0  0  0
   12.5345    1.7686   23.2296 H   0  0  0  0  0  0  0  0  0  0  0  0
    7.1101    0.1389   24.3206 H   0  0  0  0  0  0  0  0  0  0  0  0
    8.6277   -0.6229   24.8143 H   0  0  0  0  0  0  0  0  0  0  0  0
    6.3082   -2.3660   20.9666 H   0  0  0  0  0  0  0  0  0  0  0  0
    7.8995   -2.0871   20.2363 H   0  0  0  0  0  0  0  0  0  0  0  0
    8.7542   -2.5342   22.3513 H   0  0  0  0  0  0  0  0  0  0  0  0
    6.0867   -1.8572   23.6309 H   0  0  0  0  0  0  0  0  0  0  0  0
    6.6941   -3.4606   23.1898 H   0  0  0  0  0  0  0  0  0  0  0  0
    7.5159   -2.5308   24.4358 H   0  0  0  0  0  0  0  0  0  0  0  0
  1  2  1  0
  2  3  1  0
  3  4  1  0
  4  5  1  0
  5  6  2  0
  6  7  1  0
  7  8  2  0
  8  9  1  0
  9 10  2  0
 10 11  1  0
 11 12  2  0
 12 13  1  0
 13 14  2  0
 13 15  1  0
 12 16  1  0
 11 17  1  0
 10 18  1  0
  8 19  1  0
  6 20  1  0
  4 21  1  0
 21 22  2  0
 21 23  1  0
 23 24  1  1
 24 25  1  0
 25 26  1  0
 26 27  1  0
 27 28  2  0
 28 29  1  0
 29 30  2  0
 30 31  1  0
 30 32  1  0
 29 33  1  0
 26 34  1  0
 26 35  1  0
 25 36  1  0
 36 37  2  0
 36 38  1  0
 38 39  2  0
 39 40  1  0
 40 41  2  0
 41 42  1  0
 41 43  1  0
 43 44  2  0
 43 45  1  0
 40 46  1  0
 39 47  1  0
 24 48  1  0
 24 49  1  0
  3 50  1  0
  3 51  1  0
  2 52  1  6
  1 53  1  0
  1 54  1  0
  1 55  1  0
 23  2  1  0
 31 27  1  0
 44 38  1  0
 14  5  1  0
 44 23  1  0
 14  9  1  0
M  END
>  <cnnaffinities>  (82) 
[6.20303, 6.20045]

>  <score>  (82) 
6.20303

>  <index>  (82) 
82

>  <Smiles>  (82) 
C([C@]1(C(N(c2c(nc(c3c(c(c(c(c23)[H])[H])[H])[H])[H])[H])C(=O)[C@]21C(N(C(c1nc(c(o1)[H])[H])([H])[H])C(=O)c1c(c(c(F)c(c21)[H])[H])[H])([H])[H])([H])[H])[H])([H])([H])[H]

>  <h>  (82) 
<NA>

>  <Training>  (82) 
True

>  <Success>  (82) 
True

>  <enamine_searched>  (82) 
False

>  <enamine_id>  (82) 
nan

$$$$

     RDKit          3D

 72 77  0  0  0  0  0  0  0  0999 V2000
    9.2308    6.0363   23.5461 C   0  0  0  0  0  0  0  0  0  0  0  0
    8.0152    6.0320   22.6300 C   0  0  2  0  0  0  0  0  0  0  0  0
    7.2496    7.3439   22.6907 C   0  0  0  0  0  0  0  0  0  0  0  0
    6.1072    7.3309   21.8605 O   0  0  0  0  0  0  0  0  0  0  0  0
    5.1874    6.3510   22.3010 C   0  0  0  0  0  0  0  0  0  0  0  0
    5.7593    4.9410   22.2430 C   0  0  1  0  0  0  0  0  0  0  0  0
    5.9519    4.4895   20.8105 C   0  0  0  0  0  0  0  0  0  0  0  0
    6.5076    3.5529   20.7549 H   0  0  0  0  0  0  0  0  0  0  0  0
    6.4885    5.2532   20.2550 H   0  0  0  0  0  0  0  0  0  0  0  0
    4.9866    4.3179   20.3363 H   0  0  0  0  0  0  0  0  0  0  0  0
    7.0642    4.9078   23.0101 N   0  0  0  0  0  4  0  0  0  0  0  0
    7.6884    3.5710   22.9239 C   0  0  0  0  0  0  0  0  0  0  0  0
    8.0447    2.9853   24.2783 C   0  0  0  0  0  0  0  0  0  0  0  0
    8.7048    1.7083   24.0683 N   0  0  0  0  0  0  0  0  0  0  0  0
    7.9165    0.5028   23.8523 C   0  0  0  0  0  0  0  0  0  0  0  0
    8.3565   -0.3432   22.6188 C   0  0  2  0  0  0  0  0  0  0  0  0
    7.9313    0.2692   21.2704 C   0  0  0  0  0  0  0  0  0  0  0  0
    8.4801    1.1721   20.6655 O   0  0  0  0  0  0  0  0  0  0  0  0
    6.8347   -0.4148   20.8003 N   0  0  0  0  0  0  0  0  0  0  0  0
    6.0922    0.1189   19.7269 C   0  0  0  0  0  0  0  0  0  0  0  0
    6.4519   -0.1611   18.4364 C   0  0  0  0  0  0  0  0  0  0  0  0
    5.7795    0.2989   17.3587 N   0  0  0  0  0  0  0  0  0  0  0  0
    4.7429    1.0697   17.5825 C   0  0  0  0  0  0  0  0  0  0  0  0
    4.2838    1.4543   18.8721 C   0  0  0  0  0  0  0  0  0  0  0  0
    3.1665    2.3084   19.0649 C   0  0  0  0  0  0  0  0  0  0  0  0
    2.7579    2.6560   20.3232 C   0  0  0  0  0  0  0  0  0  0  0  0
    3.4708    2.1954   21.4519 C   0  0  0  0  0  0  0  0  0  0  0  0
    4.5671    1.3832   21.2961 C   0  0  0  0  0  0  0  0  0  0  0  0
    4.9868    0.9733   19.9979 C   0  0  0  0  0  0  0  0  0  0  0  0
    5.1156    1.0514   22.1724 H   0  0  0  0  0  0  0  0  0  0  0  0
    3.1507    2.4852   22.4487 H   0  0  0  0  0  0  0  0  0  0  0  0
    1.8983    3.3068   20.4570 H   0  0  0  0  0  0  0  0  0  0  0  0
    2.6682    2.6938   18.1820 H   0  0  0  0  0  0  0  0  0  0  0  0
    4.2067    1.4339   16.7069 H   0  0  0  0  0  0  0  0  0  0  0  0
    7.3205   -0.7882   18.2421 H   0  0  0  0  0  0  0  0  0  0  0  0
    6.3799   -1.4838   21.6646 C   0  0  0  0  0  0  0  0  0  0  0  0
    7.6137   -1.7101   22.5495 C   0  0  2  0  0  0  0  0  0  0  0  0
    7.3601   -2.4110   23.8723 C   0  0  0  0  0  0  0  0  0  0  0  0
    8.3012   -2.5297   24.4223 H   0  0  0  0  0  0  0  0  0  0  0  0
    6.6675   -1.8430   24.5018 H   0  0  0  0  0  0  0  0  0  0  0  0
    6.9251   -3.4016   23.7058 H   0  0  0  0  0  0  0  0  0  0  0  0
    8.2492   -2.3648   21.9532 H   0  0  0  0  0  0  0  0  0  0  0  0
    6.1228   -2.3792   21.0824 H   0  0  0  0  0  0  0  0  0  0  0  0
    5.4884   -1.1957   22.2407 H   0  0  0  0  0  0  0  0  0  0  0  0
    9.8582   -0.4405   22.6181 C   0  0  0  0  0  0  0  0  0  0  0  0
   10.4829   -1.4321   21.8620 C   0  0  0  0  0  0  0  0  0  0  0  0
   11.8501   -1.4703   21.7280 C   0  0  0  0  0  0  0  0  0  0  0  0
   12.4266   -2.7718   20.6991 Cl  0  0  0  0  0  0  0  0  0  0  0  0
   12.6439   -0.4967   22.3534 C   0  0  0  0  0  0  0  0  0  0  0  0
   12.0353    0.5045   23.0756 C   0  0  0  0  0  0  0  0  0  0  0  0
   10.6532    0.5617   23.1794 C   0  0  0  0  0  0  0  0  0  0  0  0
   10.0401    1.7742   23.7946 C   0  0  0  0  0  0  0  0  0  0  0  0
   10.7070    2.7803   24.0072 O   0  0  0  0  0  0  0  0  0  0  0  0
   12.6319    1.2765   23.5536 H   0  0  0  0  0  0  0  0  0  0  0  0
   13.7174   -0.4430   22.2852 H   0  0  0  0  0  0  0  0  0  0  0  0
    9.9398   -2.1830   21.3049 H   0  0  0  0  0  0  0  0  0  0  0  0
    6.8588    0.7772   23.7441 H   0  0  0  0  0  0  0  0  0  0  0  0
    8.0298   -0.1298   24.7425 H   0  0  0  0  0  0  0  0  0  0  0  0
    8.7402    3.6290   24.8181 H   0  0  0  0  0  0  0  0  0  0  0  0
    7.1394    2.8667   24.8891 H   0  0  0  0  0  0  0  0  0  0  0  0
    8.5685    3.6104   22.2734 H   0  0  0  0  0  0  0  0  0  0  0  0
    6.9861    2.8755   22.4622 H   0  0  0  0  0  0  0  0  0  0  0  0
    6.8346    5.0556   24.0105 H   0  0  0  0  0  0  0  0  0  0  0  0
    5.0718    4.2402   22.7390 H   0  0  0  0  0  0  0  0  0  0  0  0
    4.3159    6.4204   21.6446 H   0  0  0  0  0  0  0  0  0  0  0  0
    4.8650    6.5710   23.3299 H   0  0  0  0  0  0  0  0  0  0  0  0
    6.9508    7.5325   23.7360 H   0  0  0  0  0  0  0  0  0  0  0  0
    7.8826    8.1645   22.3442 H   0  0  0  0  0  0  0  0  0  0  0  0
    8.3396    5.8671   21.5976 H   0  0  0  0  0  0  0  0  0  0  0  0
    9.8554    5.1515   23.3994 H   0  0  0  0  0  0  0  0  0  0  0  0
    9.8534    6.9161   23.3668 H   0  0  0  0  0  0  0  0  0  0  0  0
    8.9179    6.0540   24.5968 H   0  0  0  0  0  0  0  0  0  0  0  0
  1  2  1  0
  2  3  1  0
  3  4  1  0
  4  5  1  0
  5  6  1  0
  6  7  1  0
  7  8  1  0
  7  9  1  0
  7 10  1  0
  6 11  1  0
 11 12  1  0
 12 13  1  0
 13 14  1  0
 14 15  1  0
 16 15  1  1
 16 17  1  0
 17 18  2  0
 17 19  1  0
 19 20  1  0
 20 21  2  0
 21 22  1  0
 22 23  2  0
 23 24  1  0
 24 25  2  0
 25 26  1  0
 26 27  2  0
 27 28  1  0
 28 29  2  0
 28 30  1  0
 27 31  1  0
 26 32  1  0
 25 33  1  0
 23 34  1  0
 21 35  1  0
 19 36  1  0
 36 37  1  0
 37 38  1  0
 38 39  1  0
 38 40  1  0
 38 41  1  0
 37 42  1  6
 36 43  1  0
 36 44  1  0
 16 45  1  0
 45 46  2  0
 46 47  1  0
 47 48  1  0
 47 49  2  0
 49 50  1  0
 50 51  2  0
 51 52  1  0
 52 53  2  0
 50 54  1  0
 49 55  1  0
 46 56  1  0
 15 57  1  0
 15 58  1  0
 13 59  1  0
 13 60  1  0
 12 61  1  0
 12 62  1  0
 11 63  1  0
  6 64  1  1
  5 65  1  0
  5 66  1  0
  3 67  1  0
  3 68  1  0
  2 69  1  6
  1 70  1  0
  1 71  1  0
  1 72  1  0
 11  2  1  0
 52 14  1  0
 37 16  1  0
 51 45  1  0
 29 20  1  0
 29 24  1  0
M  CHG  1  11   1
M  END
>  <cnnaffinities>  (83) 
[6.32564]

>  <score>  (83) 
6.32564

>  <index>  (83) 
83

>  <Smiles>  (83) 
C([C@@]1(C(OC([C@@](C([H])([H])[H])([N+]1(C(C(N1C([C@@]2(C(=O)N(c3c(nc(c4c(c(c(c(c34)[H])[H])[H])[H])[H])[H])C([C@@]2(C([H])([H])[H])[H])([H])[H])c2c(c(Cl)c(c(c2C1=O)[H])[H])[H])([H])[H])([H])[H])([H])[H])[H])[H])([H])[H])([H])[H])[H])([H])([H])[H]

>  <h>  (83) 
<NA>

>  <Training>  (83) 
True

>  <Success>  (83) 
True

>  <enamine_searched>  (83) 
False

>  <enamine_id>  (83) 
nan

$$$$

     RDKit          3D

 60 65  0  0  0  0  0  0  0  0999 V2000
    7.5129   -8.6563   22.7815 C   0  0  0  0  0  0  0  0  0  0  0  0
    6.7691   -7.4602   22.4835 N   0  0  0  0  0  0  0  0  0  0  0  0
    7.2165   -6.5671   21.5663 C   0  0  0  0  0  0  0  0  0  0  0  0
    8.2308   -6.7418   20.9113 O   0  0  0  0  0  0  0  0  0  0  0  0
    6.3485   -5.3238   21.4956 C   0  0  0  0  0  0  0  0  0  0  0  0
    6.6997   -4.2830   22.4249 N   0  0  0  0  0  0  0  0  0  0  0  0
    7.8071   -3.3704   22.1977 C   0  0  0  0  0  0  0  0  0  0  0  0
    7.4507   -1.9233   22.6218 C   0  0  2  0  0  0  0  0  0  0  0  0
    6.3457   -1.4230   21.6728 C   0  0  0  0  0  0  0  0  0  0  0  0
    5.2065   -1.8439   21.6291 O   0  0  0  0  0  0  0  0  0  0  0  0
    6.8604   -0.4474   20.8503 N   0  0  0  0  0  0  0  0  0  0  0  0
    6.1138    0.0859   19.7766 C   0  0  0  0  0  0  0  0  0  0  0  0
    6.4541   -0.2059   18.4793 C   0  0  0  0  0  0  0  0  0  0  0  0
    5.7829    0.2434   17.3925 N   0  0  0  0  0  0  0  0  0  0  0  0
    4.7487    1.0214   17.5954 C   0  0  0  0  0  0  0  0  0  0  0  0
    4.2988    1.4144   18.8886 C   0  0  0  0  0  0  0  0  0  0  0  0
    3.1824    2.2756   19.0539 C   0  0  0  0  0  0  0  0  0  0  0  0
    2.7820    2.6559   20.3054 C   0  0  0  0  0  0  0  0  0  0  0  0
    3.4777    2.1982   21.4459 C   0  0  0  0  0  0  0  0  0  0  0  0
    4.5595    1.3631   21.3137 C   0  0  0  0  0  0  0  0  0  0  0  0
    4.9928    0.9413   20.0226 C   0  0  0  0  0  0  0  0  0  0  0  0
    5.0922    1.0208   22.1956 H   0  0  0  0  0  0  0  0  0  0  0  0
    3.1552    2.5173   22.4334 H   0  0  0  0  0  0  0  0  0  0  0  0
    1.9311    3.3194   20.4320 H   0  0  0  0  0  0  0  0  0  0  0  0
    2.6662    2.6338   18.1676 H   0  0  0  0  0  0  0  0  0  0  0  0
    4.2122    1.3913   16.7194 H   0  0  0  0  0  0  0  0  0  0  0  0
    7.2953   -0.8701   18.2817 H   0  0  0  0  0  0  0  0  0  0  0  0
    8.3022   -0.3226   20.9623 C   0  0  0  0  0  0  0  0  0  0  0  0
    8.6150   -0.9262   22.3433 C   0  0  2  0  0  0  0  0  0  0  0  0
   10.0314   -1.4940   22.4227 C   0  0  0  0  0  0  0  0  0  0  0  0
   10.7844   -0.7082   22.2968 H   0  0  0  0  0  0  0  0  0  0  0  0
   10.2196   -1.9861   23.3830 H   0  0  0  0  0  0  0  0  0  0  0  0
   10.1996   -2.2298   21.6290 H   0  0  0  0  0  0  0  0  0  0  0  0
    8.5363   -0.1194   23.0725 H   0  0  0  0  0  0  0  0  0  0  0  0
    8.8218   -0.8863   20.1756 H   0  0  0  0  0  0  0  0  0  0  0  0
    8.5931    0.7290   20.8840 H   0  0  0  0  0  0  0  0  0  0  0  0
    6.9379   -1.9664   24.0471 C   0  0  0  0  0  0  0  0  0  0  0  0
    6.8922   -0.8288   24.8611 C   0  0  0  0  0  0  0  0  0  0  0  0
    6.4046   -0.9297   26.1522 C   0  0  0  0  0  0  0  0  0  0  0  0
    6.2587    0.5057   27.1248 Cl  0  0  0  0  0  0  0  0  0  0  0  0
    5.9745   -2.1471   26.6822 C   0  0  0  0  0  0  0  0  0  0  0  0
    5.9561   -3.2529   25.8633 C   0  0  0  0  0  0  0  0  0  0  0  0
    6.3785   -3.1489   24.5421 C   0  0  0  0  0  0  0  0  0  0  0  0
    6.0718   -4.2869   23.6413 C   0  0  0  0  0  0  0  0  0  0  0  0
    5.2422   -5.1369   23.9421 O   0  0  0  0  0  0  0  0  0  0  0  0
    5.5968   -4.2151   26.2109 H   0  0  0  0  0  0  0  0  0  0  0  0
    5.5996   -2.1963   27.6969 H   0  0  0  0  0  0  0  0  0  0  0  0
    7.1863    0.1452   24.4857 H   0  0  0  0  0  0  0  0  0  0  0  0
    8.0857   -3.3532   21.1575 H   0  0  0  0  0  0  0  0  0  0  0  0
    8.6865   -3.7059   22.7523 H   0  0  0  0  0  0  0  0  0  0  0  0
    4.8913   -5.5931   21.2545 C   0  0  0  0  0  0  0  0  0  0  0  0
    5.6999   -4.9653   20.1841 C   0  0  0  0  0  0  0  0  0  0  0  0
    5.9888   -5.5603   19.3224 H   0  0  0  0  0  0  0  0  0  0  0  0
    5.5790   -3.8931   20.0400 H   0  0  0  0  0  0  0  0  0  0  0  0
    4.6172   -6.6421   21.1551 H   0  0  0  0  0  0  0  0  0  0  0  0
    4.1856   -4.9658   21.7849 H   0  0  0  0  0  0  0  0  0  0  0  0
    5.8664   -7.3368   22.9206 H   0  0  0  0  0  0  0  0  0  0  0  0
    7.7107   -9.1932   21.8742 H   0  0  0  0  0  0  0  0  0  0  0  0
    8.4757   -8.4305   23.2534 H   0  0  0  0  0  0  0  0  0  0  0  0
    6.8972   -9.3193   23.3887 H   0  0  0  0  0  0  0  0  0  0  0  0
  1  2  1  0
  2  3  1  0
  3  4  2  0
  3  5  1  0
  5  6  1  0
  6  7  1  0
  8  7  1  6
  8  9  1  0
  9 10  2  0
  9 11  1  0
 11 12  1  0
 12 13  2  0
 13 14  1  0
 14 15  2  0
 15 16  1  0
 16 17  2  0
 17 18  1  0
 18 19  2  0
 19 20  1  0
 20 21  2  0
 20 22  1  0
 19 23  1  0
 18 24  1  0
 17 25  1  0
 15 26  1  0
 13 27  1  0
 11 28  1  0
 28 29  1  0
 29 30  1  0
 30 31  1  0
 30 32  1  0
 30 33  1  0
 29 34  1  1
 28 35  1  0
 28 36  1  0
  8 37  1  0
 37 38  2  0
 38 39  1  0
 39 40  1  0
 39 41  2  0
 41 42  1  0
 42 43  2  0
 43 44  1  0
 44 45  2  0
 42 46  1  0
 41 47  1  0
 38 48  1  0
  7 49  1  0
  7 50  1  0
  5 51  1  0
 51 52  1  0
 52 53  1  0
 52 54  1  0
 51 55  1  0
 51 56  1  0
  2 57  1  0
  1 58  1  0
  1 59  1  0
  1 60  1  0
 52  5  1  0
 44  6  1  0
 29  8  1  0
 43 37  1  0
 21 12  1  0
 21 16  1  0
M  END
>  <cnnaffinities>  (84) 
[6.55008, 6.43157, 6.00882]

>  <score>  (84) 
6.55008

>  <index>  (84) 
84

>  <Smiles>  (84) 
C(N(C(=O)C1(N2C([C@@]3(C(=O)N(c4c(nc(c5c(c(c(c(c45)[H])[H])[H])[H])[H])[H])C([C@@]3(C([H])([H])[H])[H])([H])[H])c3c(c(Cl)c(c(c3C2=O)[H])[H])[H])([H])[H])C(C1([H])[H])([H])[H])[H])([H])([H])[H]

>  <h>  (84) 
<NA>

>  <Training>  (84) 
True

>  <Success>  (84) 
True

>  <enamine_searched>  (84) 
False

>  <enamine_id>  (84) 
nan

$$$$

     RDKit          3D

 55 60  0  0  0  0  0  0  0  0999 V2000
    7.0055   -2.4337   23.5065 C   0  0  0  0  0  0  0  0  0  0  0  0
    7.9109   -1.8513   22.4156 C   0  0  1  0  0  0  0  0  0  0  0  0
    7.1895   -1.7694   21.0539 C   0  0  0  0  0  0  0  0  0  0  0  0
    6.8937   -0.3661   20.8756 N   0  0  0  0  0  0  0  0  0  0  0  0
    6.1284    0.1116   19.7864 C   0  0  0  0  0  0  0  0  0  0  0  0
    6.4410   -0.2272   18.4914 C   0  0  0  0  0  0  0  0  0  0  0  0
    5.7746    0.2257   17.4028 N   0  0  0  0  0  0  0  0  0  0  0  0
    4.7513    1.0200   17.6014 C   0  0  0  0  0  0  0  0  0  0  0  0
    4.2959    1.4184   18.8912 C   0  0  0  0  0  0  0  0  0  0  0  0
    3.1702    2.2715   19.0559 C   0  0  0  0  0  0  0  0  0  0  0  0
    2.7391    2.6131   20.3091 C   0  0  0  0  0  0  0  0  0  0  0  0
    3.4071    2.1132   21.4479 C   0  0  0  0  0  0  0  0  0  0  0  0
    4.4951    1.2872   21.3151 C   0  0  0  0  0  0  0  0  0  0  0  0
    4.9846    0.9387   20.0254 C   0  0  0  0  0  0  0  0  0  0  0  0
    4.9900    0.8997   22.1975 H   0  0  0  0  0  0  0  0  0  0  0  0
    3.0747    2.4018   22.4415 H   0  0  0  0  0  0  0  0  0  0  0  0
    1.8891    3.2765   20.4367 H   0  0  0  0  0  0  0  0  0  0  0  0
    2.6714    2.6461   18.1659 H   0  0  0  0  0  0  0  0  0  0  0  0
    4.2234    1.3821   16.7191 H   0  0  0  0  0  0  0  0  0  0  0  0
    7.2922   -0.8732   18.2794 H   0  0  0  0  0  0  0  0  0  0  0  0
    7.6858    0.4605   21.6488 C   0  0  0  0  0  0  0  0  0  0  0  0
    7.7580    1.6632   21.5214 O   0  0  0  0  0  0  0  0  0  0  0  0
    8.4672   -0.4128   22.6683 C   0  0  1  0  0  0  0  0  0  0  0  0
    8.2394    0.0740   24.1172 C   0  0  0  0  0  0  0  0  0  0  0  0
    8.8498    1.3644   24.3848 N   0  0  0  0  0  0  0  0  0  0  0  0
    8.0825    2.3846   25.0837 C   0  0  0  0  0  0  0  0  0  0  0  0
    7.4382    3.3739   24.1544 C   0  0  0  0  0  0  0  0  0  0  0  0
    7.9990    4.4539   23.5645 C   0  0  0  0  0  0  0  0  0  0  0  0
    7.0649    5.0441   22.7712 O   0  0  0  0  0  0  0  0  0  0  0  0
    5.9740    4.2667   22.9088 C   0  0  0  0  0  0  0  0  0  0  0  0
    6.1173    3.2665   23.7182 N   0  0  0  0  0  0  0  0  0  0  0  0
    5.1119    4.5585   22.3242 H   0  0  0  0  0  0  0  0  0  0  0  0
    8.9729    4.9150   23.6059 H   0  0  0  0  0  0  0  0  0  0  0  0
    8.7699    2.9000   25.7602 H   0  0  0  0  0  0  0  0  0  0  0  0
    7.3197    1.8720   25.6780 H   0  0  0  0  0  0  0  0  0  0  0  0
   10.0721    1.7247   23.8920 C   0  0  0  0  0  0  0  0  0  0  0  0
   10.5875    2.8107   24.1404 O   0  0  0  0  0  0  0  0  0  0  0  0
   10.7244    0.7135   23.0140 C   0  0  0  0  0  0  0  0  0  0  0  0
   12.0746    0.8824   22.7088 C   0  0  0  0  0  0  0  0  0  0  0  0
   12.7075   -0.0105   21.8613 C   0  0  0  0  0  0  0  0  0  0  0  0
   11.9532   -1.0359   21.2932 C   0  0  0  0  0  0  0  0  0  0  0  0
   12.5352   -1.8695   20.4076 F   0  0  0  0  0  0  0  0  0  0  0  0
   10.5920   -1.1389   21.4851 C   0  0  0  0  0  0  0  0  0  0  0  0
    9.9667   -0.3002   22.4129 C   0  0  0  0  0  0  0  0  0  0  0  0
   10.0382   -1.8319   20.8586 H   0  0  0  0  0  0  0  0  0  0  0  0
   13.7506    0.0893   21.5838 H   0  0  0  0  0  0  0  0  0  0  0  0
   12.5729    1.7504   23.1290 H   0  0  0  0  0  0  0  0  0  0  0  0
    7.1688    0.1799   24.3100 H   0  0  0  0  0  0  0  0  0  0  0  0
    8.6645   -0.6938   24.7801 H   0  0  0  0  0  0  0  0  0  0  0  0
    6.2637   -2.3530   21.0379 H   0  0  0  0  0  0  0  0  0  0  0  0
    7.8386   -2.1227   20.2451 H   0  0  0  0  0  0  0  0  0  0  0  0
    8.7621   -2.5321   22.3399 H   0  0  0  0  0  0  0  0  0  0  0  0
    6.6912   -3.4420   23.2216 H   0  0  0  0  0  0  0  0  0  0  0  0
    7.5354   -2.5240   24.4592 H   0  0  0  0  0  0  0  0  0  0  0  0
    6.1080   -1.8257   23.6605 H   0  0  0  0  0  0  0  0  0  0  0  0
  1  2  1  0
  2  3  1  0
  3  4  1  0
  4  5  1  0
  5  6  2  0
  6  7  1  0
  7  8  2  0
  8  9  1  0
  9 10  2  0
 10 11  1  0
 11 12  2  0
 12 13  1  0
 13 14  2  0
 13 15  1  0
 12 16  1  0
 11 17  1  0
 10 18  1  0
  8 19  1  0
  6 20  1  0
  4 21  1  0
 21 22  2  0
 21 23  1  0
 23 24  1  1
 24 25  1  0
 25 26  1  0
 26 27  1  0
 27 28  2  0
 28 29  1  0
 29 30  1  0
 30 31  2  0
 30 32  1  0
 28 33  1  0
 26 34  1  0
 26 35  1  0
 25 36  1  0
 36 37  2  0
 36 38  1  0
 38 39  2  0
 39 40  1  0
 40 41  2  0
 41 42  1  0
 41 43  1  0
 43 44  2  0
 43 45  1  0
 40 46  1  0
 39 47  1  0
 24 48  1  0
 24 49  1  0
  3 50  1  0
  3 51  1  0
  2 52  1  6
  1 53  1  0
  1 54  1  0
  1 55  1  0
 23  2  1  0
 31 27  1  0
 44 38  1  0
 14  5  1  0
 44 23  1  0
 14  9  1  0
M  END
>  <cnnaffinities>  (85) 
[6.11088, 5.87184]

>  <score>  (85) 
6.11088

>  <index>  (85) 
85

>  <Smiles>  (85) 
C([C@]1(C(N(c2c(nc(c3c(c(c(c(c23)[H])[H])[H])[H])[H])[H])C(=O)[C@]21C(N(C(c1c(oc(n1)[H])[H])([H])[H])C(=O)c1c(c(c(F)c(c21)[H])[H])[H])([H])[H])([H])[H])[H])([H])([H])[H]

>  <h>  (85) 
<NA>

>  <Training>  (85) 
True

>  <Success>  (85) 
True

>  <enamine_searched>  (85) 
False

>  <enamine_id>  (85) 
nan

$$$$

     RDKit          3D

 65 70  0  0  0  0  0  0  0  0999 V2000
    6.6260    4.3121   21.2567 C   0  0  0  0  0  0  0  0  0  0  0  0
    7.6113    3.9637   22.2641 N   0  0  0  0  0  0  0  0  0  0  0  0
    7.1309    3.3291   23.3684 C   0  0  0  0  0  0  0  0  0  0  0  0
    5.9344    3.1420   23.5283 O   0  0  0  0  0  0  0  0  0  0  0  0
    8.1003    2.8284   24.4314 C   0  0  0  0  0  0  0  0  0  0  0  0
    8.7661    1.6204   23.9962 N   0  0  0  0  0  0  0  0  0  0  0  0
    8.0211    0.3756   23.8710 C   0  0  0  0  0  0  0  0  0  0  0  0
    8.4294   -0.4264   22.6053 C   0  0  2  0  0  0  0  0  0  0  0  0
    7.9563    0.2743   21.3153 C   0  0  0  0  0  0  0  0  0  0  0  0
    8.4370    1.2605   20.7934 O   0  0  0  0  0  0  0  0  0  0  0  0
    6.8808   -0.4220   20.8233 N   0  0  0  0  0  0  0  0  0  0  0  0
    6.1151    0.0964   19.7580 C   0  0  0  0  0  0  0  0  0  0  0  0
    6.4618   -0.1987   18.4665 C   0  0  0  0  0  0  0  0  0  0  0  0
    5.7872    0.2474   17.3832 N   0  0  0  0  0  0  0  0  0  0  0  0
    4.7519    1.0223   17.5914 C   0  0  0  0  0  0  0  0  0  0  0  0
    4.2990    1.4202   18.8824 C   0  0  0  0  0  0  0  0  0  0  0  0
    3.1854    2.2808   19.0608 C   0  0  0  0  0  0  0  0  0  0  0  0
    2.7835    2.6473   20.3156 C   0  0  0  0  0  0  0  0  0  0  0  0
    3.4746    2.1777   21.4542 C   0  0  0  0  0  0  0  0  0  0  0  0
    4.5536    1.3377   21.3084 C   0  0  0  0  0  0  0  0  0  0  0  0
    4.9937    0.9373   20.0147 C   0  0  0  0  0  0  0  0  0  0  0  0
    5.1019    1.0215   22.1908 H   0  0  0  0  0  0  0  0  0  0  0  0
    3.1688    2.4968   22.4460 H   0  0  0  0  0  0  0  0  0  0  0  0
    1.9305    3.3064   20.4425 H   0  0  0  0  0  0  0  0  0  0  0  0
    2.6722    2.6442   18.1749 H   0  0  0  0  0  0  0  0  0  0  0  0
    4.2074    1.3753   16.7140 H   0  0  0  0  0  0  0  0  0  0  0  0
    7.3266   -0.8308   18.2779 H   0  0  0  0  0  0  0  0  0  0  0  0
    6.4835   -1.5642   21.6119 C   0  0  0  0  0  0  0  0  0  0  0  0
    7.7150   -1.8049   22.4955 C   0  0  2  0  0  0  0  0  0  0  0  0
    7.3737   -2.5272   23.8040 C   0  0  0  0  0  0  0  0  0  0  0  0
    6.8364   -3.8525   23.5621 N   0  0  0  0  0  0  0  0  0  0  0  0
    5.5224   -4.1456   23.5250 C   0  0  0  0  0  0  0  0  0  0  0  0
    4.6147   -3.1988   23.8427 N   0  0  0  0  0  0  0  0  0  0  0  0
    3.3552   -3.6152   23.7944 C   0  0  0  0  0  0  0  0  0  0  0  0
    2.9240   -4.8257   23.4451 N   0  0  0  0  0  0  0  0  0  0  0  0
    3.9200   -5.6683   23.1480 C   0  0  0  0  0  0  0  0  0  0  0  0
    5.2113   -5.4099   23.1616 N   0  0  0  0  0  0  0  0  0  0  0  0
    3.6378   -6.6845   22.8672 H   0  0  0  0  0  0  0  0  0  0  0  0
    2.5920   -2.8846   24.0675 H   0  0  0  0  0  0  0  0  0  0  0  0
    7.4513   -4.6305   23.3807 H   0  0  0  0  0  0  0  0  0  0  0  0
    6.6043   -1.9796   24.3546 H   0  0  0  0  0  0  0  0  0  0  0  0
    8.2628   -2.6154   24.4406 H   0  0  0  0  0  0  0  0  0  0  0  0
    8.3868   -2.4680   21.9407 H   0  0  0  0  0  0  0  0  0  0  0  0
    6.2589   -2.4158   20.9640 H   0  0  0  0  0  0  0  0  0  0  0  0
    5.5804   -1.3566   22.2056 H   0  0  0  0  0  0  0  0  0  0  0  0
    9.9316   -0.4879   22.5623 C   0  0  0  0  0  0  0  0  0  0  0  0
   10.5477   -1.4016   21.7117 C   0  0  0  0  0  0  0  0  0  0  0  0
   11.9146   -1.3822   21.5532 C   0  0  0  0  0  0  0  0  0  0  0  0
   12.5264   -2.4990   20.3572 Cl  0  0  0  0  0  0  0  0  0  0  0  0
   12.7111   -0.4675   22.2642 C   0  0  0  0  0  0  0  0  0  0  0  0
   12.1025    0.4366   23.1009 C   0  0  0  0  0  0  0  0  0  0  0  0
   10.7199    0.4803   23.1835 C   0  0  0  0  0  0  0  0  0  0  0  0
   10.1146    1.6809   23.8167 C   0  0  0  0  0  0  0  0  0  0  0  0
   10.7793    2.6622   24.1216 O   0  0  0  0  0  0  0  0  0  0  0  0
   12.6766    1.1681   23.6589 H   0  0  0  0  0  0  0  0  0  0  0  0
   13.7793   -0.3536   22.1397 H   0  0  0  0  0  0  0  0  0  0  0  0
    9.9711   -2.1019   21.1176 H   0  0  0  0  0  0  0  0  0  0  0  0
    8.2109   -0.2536   24.7508 H   0  0  0  0  0  0  0  0  0  0  0  0
    6.9526    0.6155   23.8632 H   0  0  0  0  0  0  0  0  0  0  0  0
    8.8941    3.5461   24.6525 H   0  0  0  0  0  0  0  0  0  0  0  0
    7.5161    2.6245   25.3383 H   0  0  0  0  0  0  0  0  0  0  0  0
    8.5611    3.8283   21.9483 H   0  0  0  0  0  0  0  0  0  0  0  0
    5.9161    5.0239   21.6871 H   0  0  0  0  0  0  0  0  0  0  0  0
    7.1242    4.7713   20.4039 H   0  0  0  0  0  0  0  0  0  0  0  0
    6.0843    3.4100   20.9440 H   0  0  0  0  0  0  0  0  0  0  0  0
  1  2  1  0
  2  3  1  0
  3  4  2  0
  3  5  1  0
  5  6  1  0
  6  7  1  0
  8  7  1  1
  8  9  1  0
  9 10  2  0
  9 11  1  0
 11 12  1  0
 12 13  2  0
 13 14  1  0
 14 15  2  0
 15 16  1  0
 16 17  2  0
 17 18  1  0
 18 19  2  0
 19 20  1  0
 20 21  2  0
 20 22  1  0
 19 23  1  0
 18 24  1  0
 17 25  1  0
 15 26  1  0
 13 27  1  0
 11 28  1  0
 28 29  1  0
 29 30  1  0
 30 31  1  0
 31 32  1  0
 32 33  2  0
 33 34  1  0
 34 35  2  0
 35 36  1  0
 36 37  2  0
 36 38  1  0
 34 39  1  0
 31 40  1  0
 30 41  1  0
 30 42  1  0
 29 43  1  6
 28 44  1  0
 28 45  1  0
  8 46  1  0
 46 47  2  0
 47 48  1  0
 48 49  1  0
 48 50  2  0
 50 51  1  0
 51 52  2  0
 52 53  1  0
 53 54  2  0
 51 55  1  0
 50 56  1  0
 47 57  1  0
  7 58  1  0
  7 59  1  0
  5 60  1  0
  5 61  1  0
  2 62  1  0
  1 63  1  0
  1 64  1  0
  1 65  1  0
 53  6  1  0
 29  8  1  0
 37 32  1  0
 52 46  1  0
 21 12  1  0
 21 16  1  0
M  END
>  <cnnaffinities>  (86) 
[6.56674]

>  <score>  (86) 
6.56674

>  <index>  (86) 
86

>  <Smiles>  (86) 
C(N(C(=O)C(N1C([C@@]2(C(=O)N(c3c(nc(c4c(c(c(c(c34)[H])[H])[H])[H])[H])[H])C([C@@]2(C(N(c2nc(nc(n2)[H])[H])[H])([H])[H])[H])([H])[H])c2c(c(Cl)c(c(c2C1=O)[H])[H])[H])([H])[H])([H])[H])[H])([H])([H])[H]

>  <h>  (86) 
<NA>

>  <Training>  (86) 
True

>  <Success>  (86) 
True

>  <enamine_searched>  (86) 
False

>  <enamine_id>  (86) 
nan

$$$$

     RDKit          3D

 63 68  0  0  0  0  0  0  0  0999 V2000
    7.7089   -8.4066   22.8552 C   0  0  0  0  0  0  0  0  0  0  0  0
    6.8867   -7.2394   22.6512 N   0  0  0  0  0  0  0  0  0  0  0  0
    7.1425   -6.3473   21.6658 C   0  0  0  0  0  0  0  0  0  0  0  0
    8.0570   -6.4629   20.8701 O   0  0  0  0  0  0  0  0  0  0  0  0
    6.1864   -5.1542   21.6668 C   0  0  0  0  0  0  0  0  0  0  0  0
    6.5915   -4.1784   22.6544 N   0  0  0  0  0  0  0  0  0  0  0  0
    7.7354   -3.3287   22.4076 C   0  0  0  0  0  0  0  0  0  0  0  0
    7.3779   -1.8526   22.7193 C   0  0  2  0  0  0  0  0  0  0  0  0
    6.3545   -1.3970   21.6599 C   0  0  0  0  0  0  0  0  0  0  0  0
    5.2341   -1.8372   21.4905 O   0  0  0  0  0  0  0  0  0  0  0  0
    6.9456   -0.4389   20.8570 N   0  0  0  0  0  0  0  0  0  0  0  0
    6.2077    0.1256   19.7927 C   0  0  0  0  0  0  0  0  0  0  0  0
    6.5338   -0.1807   18.4947 C   0  0  0  0  0  0  0  0  0  0  0  0
    5.8484    0.2498   17.4107 N   0  0  0  0  0  0  0  0  0  0  0  0
    4.8058    1.0141   17.6175 C   0  0  0  0  0  0  0  0  0  0  0  0
    4.3614    1.4193   18.9059 C   0  0  0  0  0  0  0  0  0  0  0  0
    3.2307    2.2650   19.0538 C   0  0  0  0  0  0  0  0  0  0  0  0
    2.8136    2.6556   20.2957 C   0  0  0  0  0  0  0  0  0  0  0  0
    3.5095    2.2106   21.4413 C   0  0  0  0  0  0  0  0  0  0  0  0
    4.6063    1.3896   21.3227 C   0  0  0  0  0  0  0  0  0  0  0  0
    5.0686    0.9677   20.0403 C   0  0  0  0  0  0  0  0  0  0  0  0
    5.1174    1.0449   22.2148 H   0  0  0  0  0  0  0  0  0  0  0  0
    3.1662    2.5215   22.4240 H   0  0  0  0  0  0  0  0  0  0  0  0
    1.9528    3.3110   20.4062 H   0  0  0  0  0  0  0  0  0  0  0  0
    2.7165    2.5925   18.1545 H   0  0  0  0  0  0  0  0  0  0  0  0
    4.2524    1.3496   16.7404 H   0  0  0  0  0  0  0  0  0  0  0  0
    7.3750   -0.8413   18.2892 H   0  0  0  0  0  0  0  0  0  0  0  0
    8.4008   -0.4064   21.0103 C   0  0  0  0  0  0  0  0  0  0  0  0
    8.5569   -0.8922   22.4604 C   0  0  2  0  0  0  0  0  0  0  0  0
    9.9172   -1.4763   22.8609 C   0  0  0  0  0  0  0  0  0  0  0  0
   10.9571   -0.4750   22.9187 N   0  0  0  0  0  0  0  0  0  0  0  0
   11.2237    0.3373   23.9664 C   0  0  0  0  0  0  0  0  0  0  0  0
   12.1262    1.2750   23.5143 C   0  0  0  0  0  0  0  0  0  0  0  0
   12.3585    0.9148   22.1708 C   0  0  0  0  0  0  0  0  0  0  0  0
   11.6322   -0.1372   21.8212 N   0  0  0  0  0  0  0  0  0  0  0  0
   13.0353    1.3603   21.4546 H   0  0  0  0  0  0  0  0  0  0  0  0
   12.5697    2.0982   24.0474 H   0  0  0  0  0  0  0  0  0  0  0  0
   10.7809    0.1165   24.9314 H   0  0  0  0  0  0  0  0  0  0  0  0
    9.8334   -1.9028   23.8693 H   0  0  0  0  0  0  0  0  0  0  0  0
   10.2358   -2.2543   22.1581 H   0  0  0  0  0  0  0  0  0  0  0  0
    8.3770   -0.0140   23.0822 H   0  0  0  0  0  0  0  0  0  0  0  0
    8.7852    0.6071   20.8697 H   0  0  0  0  0  0  0  0  0  0  0  0
    8.9179   -1.0657   20.2936 H   0  0  0  0  0  0  0  0  0  0  0  0
    6.8396   -1.7992   24.1381 C   0  0  0  0  0  0  0  0  0  0  0  0
    6.8668   -0.6245   24.9051 C   0  0  0  0  0  0  0  0  0  0  0  0
    6.4073   -0.6407   26.2081 C   0  0  0  0  0  0  0  0  0  0  0  0
    6.3429    0.8532   27.1019 Cl  0  0  0  0  0  0  0  0  0  0  0  0
    5.9759   -1.8159   26.8211 C   0  0  0  0  0  0  0  0  0  0  0  0
    5.8898   -2.9607   26.0516 C   0  0  0  0  0  0  0  0  0  0  0  0
    6.2530   -2.9372   24.7048 C   0  0  0  0  0  0  0  0  0  0  0  0
    5.9252   -4.1171   23.8410 C   0  0  0  0  0  0  0  0  0  0  0  0
    5.0888   -4.9558   24.1611 O   0  0  0  0  0  0  0  0  0  0  0  0
    5.5196   -3.8878   26.4760 H   0  0  0  0  0  0  0  0  0  0  0  0
    5.6987   -1.8113   27.8710 H   0  0  0  0  0  0  0  0  0  0  0  0
    7.2323    0.3110   24.4993 H   0  0  0  0  0  0  0  0  0  0  0  0
    8.0229   -3.4277   21.3625 H   0  0  0  0  0  0  0  0  0  0  0  0
    8.5867   -3.6648   23.0161 H   0  0  0  0  0  0  0  0  0  0  0  0
    6.1660   -4.6830   20.6819 H   0  0  0  0  0  0  0  0  0  0  0  0
    5.1734   -5.4680   21.9293 H   0  0  0  0  0  0  0  0  0  0  0  0
    6.2314   -6.9652   23.3676 H   0  0  0  0  0  0  0  0  0  0  0  0
    8.1970   -8.6196   21.9164 H   0  0  0  0  0  0  0  0  0  0  0  0
    7.0940   -9.2750   23.1174 H   0  0  0  0  0  0  0  0  0  0  0  0
    8.4826   -8.2330   23.6136 H   0  0  0  0  0  0  0  0  0  0  0  0
  1  2  1  0
  2  3  1  0
  3  4  2  0
  3  5  1  0
  5  6  1  0
  6  7  1  0
  8  7  1  6
  8  9  1  0
  9 10  2  0
  9 11  1  0
 11 12  1  0
 12 13  2  0
 13 14  1  0
 14 15  2  0
 15 16  1  0
 16 17  2  0
 17 18  1  0
 18 19  2  0
 19 20  1  0
 20 21  2  0
 20 22  1  0
 19 23  1  0
 18 24  1  0
 17 25  1  0
 15 26  1  0
 13 27  1  0
 11 28  1  0
 28 29  1  0
 29 30  1  0
 30 31  1  0
 31 32  1  0
 32 33  2  0
 33 34  1  0
 34 35  2  0
 34 36  1  0
 33 37  1  0
 32 38  1  0
 30 39  1  0
 30 40  1  0
 29 41  1  1
 28 42  1  0
 28 43  1  0
  8 44  1  0
 44 45  2  0
 45 46  1  0
 46 47  1  0
 46 48  2  0
 48 49  1  0
 49 50  2  0
 50 51  1  0
 51 52  2  0
 49 53  1  0
 48 54  1  0
 45 55  1  0
  7 56  1  0
  7 57  1  0
  5 58  1  0
  5 59  1  0
  2 60  1  0
  1 61  1  0
  1 62  1  0
  1 63  1  0
 51  6  1  0
 29  8  1  0
 35 31  1  0
 50 44  1  0
 21 12  1  0
 21 16  1  0
M  END
>  <cnnaffinities>  (87) 
[7.1831, 6.54965]

>  <score>  (87) 
7.1831

>  <index>  (87) 
87

>  <Smiles>  (87) 
C(N(C(=O)C(N1C([C@@]2(C(=O)N(c3c(nc(c4c(c(c(c(c34)[H])[H])[H])[H])[H])[H])C([C@@]2(C(n2c(c(c(n2)[H])[H])[H])([H])[H])[H])([H])[H])c2c(c(Cl)c(c(c2C1=O)[H])[H])[H])([H])[H])([H])[H])[H])([H])([H])[H]

>  <h>  (87) 
<NA>

>  <Training>  (87) 
True

>  <Success>  (87) 
True

>  <enamine_searched>  (87) 
False

>  <enamine_id>  (87) 
nan

$$$$

     RDKit          3D

 64 68  0  0  0  0  0  0  0  0999 V2000
    1.9171    1.7493   27.5130 C   0  0  0  0  0  0  0  0  0  0  0  0
    3.4162    2.0032   27.3157 C   0  0  0  0  0  0  0  0  0  0  0  0
    4.0382    1.1848   26.1822 C   0  0  0  0  0  0  0  0  0  0  0  0
    3.9052    1.6051   25.0361 O   0  0  0  0  0  0  0  0  0  0  0  0
    4.9031    0.1323   26.4625 N   0  0  0  0  0  0  0  0  0  0  0  0
    4.7956   -0.5800   27.7370 C   0  0  0  0  0  0  0  0  0  0  0  0
    4.9069   -2.0859   27.4878 C   0  0  0  0  0  0  0  0  0  0  0  0
    6.2810   -2.4004   26.8856 C   0  0  0  0  0  0  0  0  0  0  0  0
    6.5986   -1.4703   25.7259 C   0  0  0  0  0  0  0  0  0  0  0  0
    7.6123   -1.8123   24.8157 C   0  0  0  0  0  0  0  0  0  0  0  0
    7.9139   -0.9651   23.7409 C   0  0  0  0  0  0  0  0  0  0  0  0
    7.2612    0.2603   23.5861 C   0  0  0  0  0  0  0  0  0  0  0  0
    7.6439    1.1199   22.5473 N   0  0  0  0  0  0  0  0  0  0  0  0
    8.4065    2.3389   22.8566 C   0  0  0  0  0  0  0  0  0  0  0  0
    9.8345    1.9564   23.1853 C   0  0  0  0  0  0  0  0  0  0  0  0
   10.0744    0.9218   24.1139 C   0  0  0  0  0  0  0  0  0  0  0  0
   11.3644    0.4905   24.4050 C   0  0  0  0  0  0  0  0  0  0  0  0
   12.4342    1.0742   23.7259 C   0  0  0  0  0  0  0  0  0  0  0  0
   12.2260    2.0889   22.7824 C   0  0  0  0  0  0  0  0  0  0  0  0
   13.7230    2.8611   21.8827 Br  0  0  0  0  0  0  0  0  0  0  0  0
   10.9273    2.5590   22.5251 C   0  0  0  0  0  0  0  0  0  0  0  0
   10.7707    3.3649   21.7988 H   0  0  0  0  0  0  0  0  0  0  0  0
   13.4388    0.7113   23.8905 H   0  0  0  0  0  0  0  0  0  0  0  0
   11.5313   -0.3083   25.1239 H   0  0  0  0  0  0  0  0  0  0  0  0
    9.2404    0.4188   24.5887 H   0  0  0  0  0  0  0  0  0  0  0  0
    7.9522    2.8912   23.6857 H   0  0  0  0  0  0  0  0  0  0  0  0
    8.3936    3.0162   21.9903 H   0  0  0  0  0  0  0  0  0  0  0  0
    7.7747    0.5751   21.2771 C   0  0  0  0  0  0  0  0  0  0  0  0
    8.4924    1.1354   20.4531 O   0  0  0  0  0  0  0  0  0  0  0  0
    6.8550   -0.5522   20.7933 C   0  0  0  0  0  0  0  0  0  0  0  0
    5.9981   -0.0461   19.6409 C   0  0  0  0  0  0  0  0  0  0  0  0
    6.3239   -0.3401   18.3038 C   0  0  0  0  0  0  0  0  0  0  0  0
    5.6585    0.1792   17.2587 N   0  0  0  0  0  0  0  0  0  0  0  0
    4.6424    1.0205   17.5059 C   0  0  0  0  0  0  0  0  0  0  0  0
    4.2387    1.3742   18.7996 C   0  0  0  0  0  0  0  0  0  0  0  0
    3.1777    2.2665   19.0233 C   0  0  0  0  0  0  0  0  0  0  0  0
    2.8264    2.6247   20.3299 C   0  0  0  0  0  0  0  0  0  0  0  0
    3.5388    2.1074   21.4164 C   0  0  0  0  0  0  0  0  0  0  0  0
    4.5912    1.2144   21.1960 C   0  0  0  0  0  0  0  0  0  0  0  0
    4.9382    0.8341   19.8916 C   0  0  0  0  0  0  0  0  0  0  0  0
    5.1484    0.8209   22.0415 H   0  0  0  0  0  0  0  0  0  0  0  0
    3.2784    2.3980   22.4304 H   0  0  0  0  0  0  0  0  0  0  0  0
    2.0098    3.3184   20.5040 H   0  0  0  0  0  0  0  0  0  0  0  0
    2.6361    2.7013   18.1876 H   0  0  0  0  0  0  0  0  0  0  0  0
    4.1213    1.4480   16.6555 H   0  0  0  0  0  0  0  0  0  0  0  0
    7.1799   -0.9814   18.1108 H   0  0  0  0  0  0  0  0  0  0  0  0
    6.2092   -0.8661   21.6204 H   0  0  0  0  0  0  0  0  0  0  0  0
    7.4638   -1.4087   20.4919 H   0  0  0  0  0  0  0  0  0  0  0  0
    6.2869    0.6213   24.5123 C   0  0  0  0  0  0  0  0  0  0  0  0
    5.9182   -0.2428   25.5609 C   0  0  0  0  0  0  0  0  0  0  0  0
    5.8110    1.5879   24.4082 H   0  0  0  0  0  0  0  0  0  0  0  0
    8.6974   -1.2264   23.0347 H   0  0  0  0  0  0  0  0  0  0  0  0
    8.1659   -2.7397   24.9381 H   0  0  0  0  0  0  0  0  0  0  0  0
    7.0448   -2.2899   27.6630 H   0  0  0  0  0  0  0  0  0  0  0  0
    6.3032   -3.4433   26.5530 H   0  0  0  0  0  0  0  0  0  0  0  0
    4.1170   -2.4088   26.8017 H   0  0  0  0  0  0  0  0  0  0  0  0
    4.7751   -2.6327   28.4264 H   0  0  0  0  0  0  0  0  0  0  0  0
    5.5924   -0.2516   28.4104 H   0  0  0  0  0  0  0  0  0  0  0  0
    3.8400   -0.3708   28.2287 H   0  0  0  0  0  0  0  0  0  0  0  0
    3.9499    1.7851   28.2444 H   0  0  0  0  0  0  0  0  0  0  0  0
    3.5785    3.0608   27.0914 H   0  0  0  0  0  0  0  0  0  0  0  0
    1.7419    0.7285   27.8642 H   0  0  0  0  0  0  0  0  0  0  0  0
    1.3745    1.8962   26.5734 H   0  0  0  0  0  0  0  0  0  0  0  0
    1.5133    2.4434   28.2591 H   0  0  0  0  0  0  0  0  0  0  0  0
  1  2  1  0
  2  3  1  0
  3  4  2  0
  3  5  1  0
  5  6  1  0
  6  7  1  0
  7  8  1  0
  8  9  1  0
  9 10  2  0
 10 11  1  0
 11 12  2  0
 12 13  1  0
 13 14  1  0
 14 15  1  0
 15 16  2  0
 16 17  1  0
 17 18  2  0
 18 19  1  0
 19 20  1  0
 19 21  2  0
 21 22  1  0
 18 23  1  0
 17 24  1  0
 16 25  1  0
 14 26  1  0
 14 27  1  0
 13 28  1  0
 28 29  2  0
 28 30  1  0
 30 31  1  0
 31 32  2  0
 32 33  1  0
 33 34  2  0
 34 35  1  0
 35 36  2  0
 36 37  1  0
 37 38  2  0
 38 39  1  0
 39 40  2  0
 39 41  1  0
 38 42  1  0
 37 43  1  0
 36 44  1  0
 34 45  1  0
 32 46  1  0
 30 47  1  0
 30 48  1  0
 12 49  1  0
 49 50  2  0
 49 51  1  0
 11 52  1  0
 10 53  1  0
  8 54  1  0
  8 55  1  0
  7 56  1  0
  7 57  1  0
  6 58  1  0
  6 59  1  0
  2 60  1  0
  2 61  1  0
  1 62  1  0
  1 63  1  0
  1 64  1  0
 50  5  1  0
 50  9  1  0
 21 15  1  0
 40 31  1  0
 40 35  1  0
M  END
>  <cnnaffinities>  (88) 
[6.39216, 6.27258]

>  <score>  (88) 
6.39216

>  <index>  (88) 
88

>  <Smiles>  (88) 
C(C(C(=O)N1C(C(C(c2c(c(c(N(C(c3c(c(c(c(Br)c3[H])[H])[H])[H])([H])[H])C(=O)C(c3c(nc(c4c(c(c(c(c34)[H])[H])[H])[H])[H])[H])([H])[H])c(c12)[H])[H])[H])([H])[H])([H])[H])([H])[H])([H])[H])([H])([H])[H]

>  <h>  (88) 
<NA>

>  <Training>  (88) 
True

>  <Success>  (88) 
True

>  <enamine_searched>  (88) 
False

>  <enamine_id>  (88) 
nan

$$$$

     RDKit          3D

 38 40  0  0  0  0  0  0  0  0999 V2000
    8.0563    1.6761   20.9676 O   0  0  0  0  0  0  0  0  0  0  0  0
    7.8876    0.6107   21.5301 C   0  0  0  0  0  0  0  0  0  0  0  0
    6.9520   -0.4561   20.9126 C   0  0  0  0  0  0  0  0  0  0  0  0
    6.1171    0.0869   19.7740 C   0  0  0  0  0  0  0  0  0  0  0  0
    6.4280   -0.2067   18.4723 C   0  0  0  0  0  0  0  0  0  0  0  0
    5.7612    0.2472   17.3783 N   0  0  0  0  0  0  0  0  0  0  0  0
    4.7335    1.0305   17.5809 C   0  0  0  0  0  0  0  0  0  0  0  0
    4.2885    1.4250   18.8696 C   0  0  0  0  0  0  0  0  0  0  0  0
    3.1709    2.2811   19.0442 C   0  0  0  0  0  0  0  0  0  0  0  0
    2.7671    2.6485   20.2989 C   0  0  0  0  0  0  0  0  0  0  0  0
    3.4690    2.1751   21.4296 C   0  0  0  0  0  0  0  0  0  0  0  0
    4.5548    1.3453   21.2868 C   0  0  0  0  0  0  0  0  0  0  0  0
    4.9981    0.9455   19.9995 C   0  0  0  0  0  0  0  0  0  0  0  0
    5.0836    0.9937   22.1670 H   0  0  0  0  0  0  0  0  0  0  0  0
    3.1419    2.4722   22.4215 H   0  0  0  0  0  0  0  0  0  0  0  0
    1.9137    3.3094   20.4349 H   0  0  0  0  0  0  0  0  0  0  0  0
    2.6479    2.6471   18.1631 H   0  0  0  0  0  0  0  0  0  0  0  0
    4.2001    1.3967   16.7000 H   0  0  0  0  0  0  0  0  0  0  0  0
    7.2731   -0.8552   18.2429 H   0  0  0  0  0  0  0  0  0  0  0  0
    6.2996   -0.8840   21.6865 H   0  0  0  0  0  0  0  0  0  0  0  0
    7.5689   -1.2877   20.5381 H   0  0  0  0  0  0  0  0  0  0  0  0
    8.4970    0.3266   22.7432 N   0  0  0  0  0  0  0  0  0  0  0  0
    8.8162   -1.0454   23.1446 C   0  0  0  0  0  0  0  0  0  0  0  0
    9.9940   -1.6536   22.4095 C   0  0  0  0  0  0  0  0  0  0  0  0
   11.2166   -1.1280   22.4437 C   0  0  0  0  0  0  0  0  0  0  0  0
   11.5859    0.1018   23.2432 C   0  0  0  0  0  0  0  0  0  0  0  0
   10.8024    1.3666   22.8561 C   0  0  0  0  0  0  0  0  0  0  0  0
    9.3456    1.3716   23.3243 C   0  0  0  0  0  0  0  0  0  0  0  0
    9.3357    1.2340   24.4097 H   0  0  0  0  0  0  0  0  0  0  0  0
    8.8845    2.3383   23.1143 H   0  0  0  0  0  0  0  0  0  0  0  0
   10.8167    1.4878   21.7711 H   0  0  0  0  0  0  0  0  0  0  0  0
   11.3143    2.2484   23.2711 H   0  0  0  0  0  0  0  0  0  0  0  0
   12.6582    0.2939   23.1278 H   0  0  0  0  0  0  0  0  0  0  0  0
   11.4272   -0.0904   24.3144 H   0  0  0  0  0  0  0  0  0  0  0  0
   11.9977   -1.5802   21.8308 H   0  0  0  0  0  0  0  0  0  0  0  0
    9.8151   -2.5468   21.8075 H   0  0  0  0  0  0  0  0  0  0  0  0
    9.0349   -1.0195   24.2176 H   0  0  0  0  0  0  0  0  0  0  0  0
    7.9271   -1.6684   23.0336 H   0  0  0  0  0  0  0  0  0  0  0  0
  1  2  2  0
  2  3  1  0
  3  4  1  0
  4  5  2  0
  5  6  1  0
  6  7  2  0
  7  8  1  0
  8  9  2  0
  9 10  1  0
 10 11  2  0
 11 12  1  0
 12 13  2  0
 12 14  1  0
 11 15  1  0
 10 16  1  0
  9 17  1  0
  7 18  1  0
  5 19  1  0
  3 20  1  0
  3 21  1  0
  2 22  1  0
 22 23  1  0
 23 24  1  0
 24 25  2  0
 25 26  1  0
 26 27  1  0
 27 28  1  0
 28 29  1  0
 28 30  1  0
 27 31  1  0
 27 32  1  0
 26 33  1  0
 26 34  1  0
 25 35  1  0
 24 36  1  0
 23 37  1  0
 23 38  1  0
 13  4  1  0
 28 22  1  0
 13  8  1  0
M  END
>  <cnnaffinities>  (89) 
[5.39712, 5.31038]

>  <score>  (89) 
5.39712

>  <index>  (89) 
89

>  <Smiles>  (89) 
O=C(C(c1c(nc(c2c(c(c(c(c12)[H])[H])[H])[H])[H])[H])([H])[H])N1C(C(=C(C(C(C1([H])[H])([H])[H])([H])[H])[H])[H])([H])[H]

>  <h>  (89) 
<NA>

>  <Training>  (89) 
True

>  <Success>  (89) 
True

>  <enamine_searched>  (89) 
False

>  <enamine_id>  (89) 
nan

$$$$

     RDKit          3D

 62 67  0  0  0  0  0  0  0  0999 V2000
    7.9813   -2.9711   23.0821 C   0  0  0  0  0  0  0  0  0  0  0  0
    7.9610   -1.7953   22.1048 C   0  0  1  0  0  0  0  0  0  0  0  0
    6.6843   -1.7290   21.2496 C   0  0  0  0  0  0  0  0  0  0  0  0
    6.7076   -0.3716   20.7442 N   0  0  0  0  0  0  0  0  0  0  0  0
    5.9408    0.1192   19.6535 C   0  0  0  0  0  0  0  0  0  0  0  0
    6.2557   -0.1966   18.3530 C   0  0  0  0  0  0  0  0  0  0  0  0
    5.6090    0.3050   17.2688 N   0  0  0  0  0  0  0  0  0  0  0  0
    4.6195    1.1413   17.4636 C   0  0  0  0  0  0  0  0  0  0  0  0
    4.1707    1.5290   18.7565 C   0  0  0  0  0  0  0  0  0  0  0  0
    3.0930    2.4372   18.9400 C   0  0  0  0  0  0  0  0  0  0  0  0
    2.6726    2.7722   20.1987 C   0  0  0  0  0  0  0  0  0  0  0  0
    3.2907    2.1976   21.3310 C   0  0  0  0  0  0  0  0  0  0  0  0
    4.3252    1.3103   21.1762 C   0  0  0  0  0  0  0  0  0  0  0  0
    4.8241    0.9837   19.8850 C   0  0  0  0  0  0  0  0  0  0  0  0
    4.7907    0.8511   22.0429 H   0  0  0  0  0  0  0  0  0  0  0  0
    2.9383    2.4544   22.3264 H   0  0  0  0  0  0  0  0  0  0  0  0
    1.8603    3.4794   20.3384 H   0  0  0  0  0  0  0  0  0  0  0  0
    2.6168    2.8619   18.0591 H   0  0  0  0  0  0  0  0  0  0  0  0
    4.1161    1.5555   16.5831 H   0  0  0  0  0  0  0  0  0  0  0  0
    7.0851   -0.8684   18.1268 H   0  0  0  0  0  0  0  0  0  0  0  0
    7.4073    0.4763   21.5669 C   0  0  0  0  0  0  0  0  0  0  0  0
    7.4324    1.6859   21.4412 O   0  0  0  0  0  0  0  0  0  0  0  0
    8.1074   -0.3534   22.6812 C   0  0  1  0  0  0  0  0  0  0  0  0
    7.3540   -0.1799   24.0258 C   0  0  0  0  0  0  0  0  0  0  0  0
    7.4671    1.1709   24.5566 N   0  0  0  0  0  0  0  0  0  0  0  0
    6.3033    1.9340   24.9739 C   0  0  0  0  0  0  0  0  0  0  0  0
    5.9677    3.0587   23.9903 C   0  0  0  0  0  0  0  0  0  0  0  0
    6.8666    4.2407   24.1278 N   0  0  0  0  0  4  0  0  0  0  0  0
    7.7259    4.6290   22.9265 C   0  0  0  0  0  0  0  0  0  0  0  0
    7.1155    6.0530   22.8719 C   0  0  0  0  0  0  0  0  0  0  0  0
    6.2175    5.6096   24.0615 C   0  0  0  0  0  0  0  0  0  0  0  0
    5.1681    5.5059   23.7833 H   0  0  0  0  0  0  0  0  0  0  0  0
    6.2910    6.1457   25.0093 H   0  0  0  0  0  0  0  0  0  0  0  0
    6.5801    6.2784   21.9414 H   0  0  0  0  0  0  0  0  0  0  0  0
    7.8161    6.8628   23.0933 H   0  0  0  0  0  0  0  0  0  0  0  0
    7.5135    3.9590   22.0958 H   0  0  0  0  0  0  0  0  0  0  0  0
    8.7875    4.5738   23.1811 H   0  0  0  0  0  0  0  0  0  0  0  0
    7.4939    4.0760   24.9309 H   0  0  0  0  0  0  0  0  0  0  0  0
    6.0642    2.6876   22.9655 H   0  0  0  0  0  0  0  0  0  0  0  0
    4.9401    3.3899   24.1625 H   0  0  0  0  0  0  0  0  0  0  0  0
    5.4626    1.2445   25.0374 H   0  0  0  0  0  0  0  0  0  0  0  0
    6.4775    2.3394   25.9777 H   0  0  0  0  0  0  0  0  0  0  0  0
    8.6443    1.8229   24.5963 C   0  0  0  0  0  0  0  0  0  0  0  0
    8.7865    2.8752   25.2419 O   0  0  0  0  0  0  0  0  0  0  0  0
    9.7412    1.2378   23.7898 C   0  0  0  0  0  0  0  0  0  0  0  0
   10.9775    1.8577   23.9076 C   0  0  0  0  0  0  0  0  0  0  0  0
   12.0353    1.4389   23.1423 C   0  0  0  0  0  0  0  0  0  0  0  0
   11.8334    0.3701   22.2815 C   0  0  0  0  0  0  0  0  0  0  0  0
   13.1771   -0.1438   21.3349 Cl  0  0  0  0  0  0  0  0  0  0  0  0
   10.6176   -0.2793   22.1644 C   0  0  0  0  0  0  0  0  0  0  0  0
    9.5197    0.1662   22.9063 C   0  0  0  0  0  0  0  0  0  0  0  0
   10.5565   -1.1129   21.4768 H   0  0  0  0  0  0  0  0  0  0  0  0
   13.0006    1.9273   23.1774 H   0  0  0  0  0  0  0  0  0  0  0  0
   11.0685    2.6926   24.5900 H   0  0  0  0  0  0  0  0  0  0  0  0
    7.7675   -0.8876   24.7560 H   0  0  0  0  0  0  0  0  0  0  0  0
    6.2916   -0.4113   23.9175 H   0  0  0  0  0  0  0  0  0  0  0  0
    6.6584   -2.4422   20.4248 H   0  0  0  0  0  0  0  0  0  0  0  0
    5.7948   -1.9010   21.8770 H   0  0  0  0  0  0  0  0  0  0  0  0
    8.7877   -1.9177   21.4016 H   0  0  0  0  0  0  0  0  0  0  0  0
    7.1009   -2.9744   23.7408 H   0  0  0  0  0  0  0  0  0  0  0  0
    7.9891   -3.9167   22.5246 H   0  0  0  0  0  0  0  0  0  0  0  0
    8.8768   -2.9507   23.7142 H   0  0  0  0  0  0  0  0  0  0  0  0
  1  2  1  0
  2  3  1  0
  3  4  1  0
  4  5  1  0
  5  6  2  0
  6  7  1  0
  7  8  2  0
  8  9  1  0
  9 10  2  0
 10 11  1  0
 11 12  2  0
 12 13  1  0
 13 14  2  0
 13 15  1  0
 12 16  1  0
 11 17  1  0
 10 18  1  0
  8 19  1  0
  6 20  1  0
  4 21  1  0
 21 22  2  0
 21 23  1  0
 23 24  1  1
 24 25  1  0
 25 26  1  0
 26 27  1  0
 27 28  1  0
 28 29  1  0
 29 30  1  0
 30 31  1  0
 31 32  1  0
 31 33  1  0
 30 34  1  0
 30 35  1  0
 29 36  1  0
 29 37  1  0
 28 38  1  0
 27 39  1  0
 27 40  1  0
 26 41  1  0
 26 42  1  0
 25 43  1  0
 43 44  2  0
 43 45  1  0
 45 46  2  0
 46 47  1  0
 47 48  2  0
 48 49  1  0
 48 50  1  0
 50 51  2  0
 50 52  1  0
 47 53  1  0
 46 54  1  0
 24 55  1  0
 24 56  1  0
  3 57  1  0
  3 58  1  0
  2 59  1  6
  1 60  1  0
  1 61  1  0
  1 62  1  0
 23  2  1  0
 31 28  1  0
 51 45  1  0
 14  5  1  0
 51 23  1  0
 14  9  1  0
M  CHG  1  28   1
M  END
>  <cnnaffinities>  (90) 
[6.29728]

>  <score>  (90) 
6.29728

>  <index>  (90) 
90

>  <Smiles>  (90) 
C([C@]1(C(N(c2c(nc(c3c(c(c(c(c23)[H])[H])[H])[H])[H])[H])C(=O)[C@]21C(N(C(C([N+]1(C(C(C1([H])[H])([H])[H])([H])[H])[H])([H])[H])([H])[H])C(=O)c1c(c(c(Cl)c(c21)[H])[H])[H])([H])[H])([H])[H])[H])([H])([H])[H]

>  <h>  (90) 
<NA>

>  <Training>  (90) 
True

>  <Success>  (90) 
True

>  <enamine_searched>  (90) 
False

>  <enamine_id>  (90) 
nan

$$$$

     RDKit          3D

 56 61  0  0  0  0  0  0  0  0999 V2000
   10.0487    0.0449   21.4664 C   0  0  0  0  0  0  0  0  0  0  0  0
    8.7757   -0.1883   22.2738 C   0  0  1  0  0  0  0  0  0  0  0  0
    7.6179    0.6555   21.7150 C   0  0  0  0  0  0  0  0  0  0  0  0
    6.9336   -0.2554   20.8111 N   0  0  0  0  0  0  0  0  0  0  0  0
    6.0953    0.1456   19.7353 C   0  0  0  0  0  0  0  0  0  0  0  0
    6.3761   -0.2192   18.4397 C   0  0  0  0  0  0  0  0  0  0  0  0
    5.7021    0.2446   17.3568 N   0  0  0  0  0  0  0  0  0  0  0  0
    4.7034    1.0678   17.5538 C   0  0  0  0  0  0  0  0  0  0  0  0
    4.2669    1.4820   18.8426 C   0  0  0  0  0  0  0  0  0  0  0  0
    3.1565    2.3489   19.0176 C   0  0  0  0  0  0  0  0  0  0  0  0
    2.7381    2.6911   20.2736 C   0  0  0  0  0  0  0  0  0  0  0  0
    3.4136    2.1879   21.4066 C   0  0  0  0  0  0  0  0  0  0  0  0
    4.4951    1.3572   21.2622 C   0  0  0  0  0  0  0  0  0  0  0  0
    4.9647    0.9972   19.9710 C   0  0  0  0  0  0  0  0  0  0  0  0
    4.9899    0.9604   22.1427 H   0  0  0  0  0  0  0  0  0  0  0  0
    3.0760    2.4565   22.4017 H   0  0  0  0  0  0  0  0  0  0  0  0
    1.8846    3.3480   20.4108 H   0  0  0  0  0  0  0  0  0  0  0  0
    2.6498    2.7277   18.1346 H   0  0  0  0  0  0  0  0  0  0  0  0
    4.1735    1.4370   16.6730 H   0  0  0  0  0  0  0  0  0  0  0  0
    7.1958   -0.8994   18.2159 H   0  0  0  0  0  0  0  0  0  0  0  0
    7.1114   -1.5754   21.1762 C   0  0  0  0  0  0  0  0  0  0  0  0
    6.4559   -2.5028   20.7460 O   0  0  0  0  0  0  0  0  0  0  0  0
    8.2249   -1.6569   22.2379 C   0  0  1  0  0  0  0  0  0  0  0  0
    9.2829   -2.7192   21.8555 C   0  0  0  0  0  0  0  0  0  0  0  0
   10.3161   -2.7743   22.8870 N   0  0  0  0  0  0  0  0  0  0  0  0
   11.7342   -2.6704   22.5443 C   0  0  0  0  0  0  0  0  0  0  0  0
   12.5783   -1.9047   23.5412 C   0  0  0  0  0  0  0  0  0  0  0  0
   13.6821   -2.4320   24.2414 C   0  0  0  0  0  0  0  0  0  0  0  0
   14.1555   -1.5898   25.1517 N   0  0  0  0  0  0  0  0  0  0  0  0
   13.3918   -0.5001   24.9976 N   0  0  0  0  0  0  0  0  0  0  0  0
   12.4407   -0.6264   24.0399 C   0  0  0  0  0  0  0  0  0  0  0  0
   11.7509    0.1883   23.8245 H   0  0  0  0  0  0  0  0  0  0  0  0
   13.4603    0.2442   25.6761 H   0  0  0  0  0  0  0  0  0  0  0  0
   14.0949   -3.4343   24.1499 H   0  0  0  0  0  0  0  0  0  0  0  0
   12.1506   -3.6696   22.3944 H   0  0  0  0  0  0  0  0  0  0  0  0
   11.7795   -2.1772   21.5710 H   0  0  0  0  0  0  0  0  0  0  0  0
    9.9639   -3.0250   24.1860 C   0  0  0  0  0  0  0  0  0  0  0  0
   10.7299   -3.4798   25.0291 O   0  0  0  0  0  0  0  0  0  0  0  0
    8.5446   -2.7375   24.5171 C   0  0  0  0  0  0  0  0  0  0  0  0
    8.1057   -3.1169   25.7853 C   0  0  0  0  0  0  0  0  0  0  0  0
    6.8045   -2.8665   26.1737 C   0  0  0  0  0  0  0  0  0  0  0  0
    5.9648   -2.2489   25.2519 C   0  0  0  0  0  0  0  0  0  0  0  0
    4.6912   -2.0195   25.6078 F   0  0  0  0  0  0  0  0  0  0  0  0
    6.3795   -1.8587   23.9898 C   0  0  0  0  0  0  0  0  0  0  0  0
    7.6952   -2.1033   23.6000 C   0  0  0  0  0  0  0  0  0  0  0  0
    5.6779   -1.3999   23.2994 H   0  0  0  0  0  0  0  0  0  0  0  0
    6.4317   -3.1365   27.1577 H   0  0  0  0  0  0  0  0  0  0  0  0
    8.8117   -3.6138   26.4470 H   0  0  0  0  0  0  0  0  0  0  0  0
    8.7616   -3.6841   21.7783 H   0  0  0  0  0  0  0  0  0  0  0  0
    9.7259   -2.5034   20.8806 H   0  0  0  0  0  0  0  0  0  0  0  0
    7.9574    1.5410   21.1696 H   0  0  0  0  0  0  0  0  0  0  0  0
    6.9753    0.9797   22.5440 H   0  0  0  0  0  0  0  0  0  0  0  0
    8.9860    0.0793   23.3150 H   0  0  0  0  0  0  0  0  0  0  0  0
    9.9551   -0.3334   20.4443 H   0  0  0  0  0  0  0  0  0  0  0  0
   10.2592    1.1170   21.4306 H   0  0  0  0  0  0  0  0  0  0  0  0
   10.9050   -0.4475   21.9237 H   0  0  0  0  0  0  0  0  0  0  0  0
  1  2  1  0
  2  3  1  0
  3  4  1  0
  4  5  1  0
  5  6  2  0
  6  7  1  0
  7  8  2  0
  8  9  1  0
  9 10  2  0
 10 11  1  0
 11 12  2  0
 12 13  1  0
 13 14  2  0
 13 15  1  0
 12 16  1  0
 11 17  1  0
 10 18  1  0
  8 19  1  0
  6 20  1  0
  4 21  1  0
 21 22  2  0
 21 23  1  0
 23 24  1  6
 24 25  1  0
 25 26  1  0
 26 27  1  0
 27 28  1  0
 28 29  2  0
 29 30  1  0
 30 31  1  0
 31 32  1  0
 30 33  1  0
 28 34  1  0
 26 35  1  0
 26 36  1  0
 25 37  1  0
 37 38  2  0
 37 39  1  0
 39 40  2  0
 40 41  1  0
 41 42  2  0
 42 43  1  0
 42 44  1  0
 44 45  2  0
 44 46  1  0
 41 47  1  0
 40 48  1  0
 24 49  1  0
 24 50  1  0
  3 51  1  0
  3 52  1  0
  2 53  1  1
  1 54  1  0
  1 55  1  0
  1 56  1  0
 23  2  1  0
 31 27  2  0
 45 39  1  0
 14  5  1  0
 45 23  1  0
 14  9  1  0
M  END
>  <cnnaffinities>  (91) 
[6.73827]

>  <score>  (91) 
6.73827

>  <index>  (91) 
91

>  <Smiles>  (91) 
C([C@]1(C(N(c2c(nc(c3c(c(c(c(c23)[H])[H])[H])[H])[H])[H])C(=O)[C@]21C(N(C(c1c(nn(c1[H])[H])[H])([H])[H])C(=O)c1c(c(c(F)c(c21)[H])[H])[H])([H])[H])([H])[H])[H])([H])([H])[H]

>  <h>  (91) 
<NA>

>  <Training>  (91) 
True

>  <Success>  (91) 
True

>  <enamine_searched>  (91) 
False

>  <enamine_id>  (91) 
nan

$$$$

     RDKit          3D

 47 50  0  0  0  0  0  0  0  0999 V2000
    5.5677   -2.4603   20.9434 O   0  0  0  0  0  0  0  0  0  0  0  0
    6.1403   -1.6121   21.5945 C   0  0  0  0  0  0  0  0  0  0  0  0
    6.9158   -0.4797   20.9101 C   0  0  0  0  0  0  0  0  0  0  0  0
    6.1183    0.0953   19.7654 C   0  0  0  0  0  0  0  0  0  0  0  0
    6.4229   -0.2129   18.4645 C   0  0  0  0  0  0  0  0  0  0  0  0
    5.7554    0.2439   17.3724 N   0  0  0  0  0  0  0  0  0  0  0  0
    4.7320    1.0328   17.5795 C   0  0  0  0  0  0  0  0  0  0  0  0
    4.2856    1.4232   18.8696 C   0  0  0  0  0  0  0  0  0  0  0  0
    3.1652    2.2732   19.0450 C   0  0  0  0  0  0  0  0  0  0  0  0
    2.7497    2.6281   20.3004 C   0  0  0  0  0  0  0  0  0  0  0  0
    3.4458    2.1429   21.4318 C   0  0  0  0  0  0  0  0  0  0  0  0
    4.5357    1.3190   21.2877 C   0  0  0  0  0  0  0  0  0  0  0  0
    4.9916    0.9394   19.9974 C   0  0  0  0  0  0  0  0  0  0  0  0
    5.0514    0.9526   22.1710 H   0  0  0  0  0  0  0  0  0  0  0  0
    3.1097    2.4274   22.4226 H   0  0  0  0  0  0  0  0  0  0  0  0
    1.8933    3.2831   20.4363 H   0  0  0  0  0  0  0  0  0  0  0  0
    2.6483    2.6428   18.1633 H   0  0  0  0  0  0  0  0  0  0  0  0
    4.2011    1.3975   16.6984 H   0  0  0  0  0  0  0  0  0  0  0  0
    7.2642   -0.8656   18.2387 H   0  0  0  0  0  0  0  0  0  0  0  0
    7.2032    0.2977   21.6254 H   0  0  0  0  0  0  0  0  0  0  0  0
    7.8432   -0.9214   20.5306 H   0  0  0  0  0  0  0  0  0  0  0  0
    6.0653   -1.6454   22.9937 N   0  0  0  0  0  0  0  0  0  0  0  0
    4.9000   -2.2928   23.4856 C   0  0  0  0  0  0  0  0  0  0  0  0
    4.8676   -3.4761   24.0995 C   0  0  0  0  0  0  0  0  0  0  0  0
    6.0434   -4.2444   24.5091 C   0  0  0  0  0  0  0  0  0  0  0  0
    6.9986   -3.7790   25.3318 C   0  0  0  0  0  0  0  0  0  0  0  0
    6.9518   -2.4596   25.9804 C   0  0  0  0  0  0  0  0  0  0  0  0
    6.8204   -1.2785   25.3672 C   0  0  0  0  0  0  0  0  0  0  0  0
    7.0374   -0.9798   23.8918 C   0  0  1  0  0  0  0  0  0  0  0  0
    8.4908   -1.2650   23.5066 C   0  0  0  0  0  0  0  0  0  0  0  0
    8.9003   -2.4793   22.9681 C   0  0  0  0  0  0  0  0  0  0  0  0
   10.2445   -2.6710   22.6606 C   0  0  0  0  0  0  0  0  0  0  0  0
   11.2082   -1.7064   22.9162 C   0  0  0  0  0  0  0  0  0  0  0  0
   10.8093   -0.5024   23.4760 C   0  0  0  0  0  0  0  0  0  0  0  0
    9.4631   -0.2963   23.7656 C   0  0  0  0  0  0  0  0  0  0  0  0
    9.1642    0.6465   24.2054 H   0  0  0  0  0  0  0  0  0  0  0  0
   11.5476    0.2700   23.6612 H   0  0  0  0  0  0  0  0  0  0  0  0
   12.2482   -1.9054   22.6596 H   0  0  0  0  0  0  0  0  0  0  0  0
   10.5635   -3.5545   22.1390 H   0  0  0  0  0  0  0  0  0  0  0  0
    8.1737   -3.2691   22.7860 H   0  0  0  0  0  0  0  0  0  0  0  0
    6.8874    0.1023   23.7799 H   0  0  0  0  0  0  0  0  0  0  0  0
    6.7325   -0.3951   25.9960 H   0  0  0  0  0  0  0  0  0  0  0  0
    6.9934   -2.5004   27.0730 H   0  0  0  0  0  0  0  0  0  0  0  0
    7.8314   -4.4249   25.6055 H   0  0  0  0  0  0  0  0  0  0  0  0
    6.0934   -5.2682   24.1429 H   0  0  0  0  0  0  0  0  0  0  0  0
    3.8937   -3.9106   24.3309 H   0  0  0  0  0  0  0  0  0  0  0  0
    3.9719   -1.7645   23.2677 H   0  0  0  0  0  0  0  0  0  0  0  0
  1  2  2  0
  2  3  1  0
  3  4  1  0
  4  5  2  0
  5  6  1  0
  6  7  2  0
  7  8  1  0
  8  9  2  0
  9 10  1  0
 10 11  2  0
 11 12  1  0
 12 13  2  0
 12 14  1  0
 11 15  1  0
 10 16  1  0
  9 17  1  0
  7 18  1  0
  5 19  1  0
  3 20  1  0
  3 21  1  0
  2 22  1  0
 22 23  1  0
 23 24  2  3
 24 25  1  0
 25 26  2  3
 26 27  1  0
 27 28  2  3
 28 29  1  0
 29 30  1  0
 30 31  2  0
 31 32  1  0
 32 33  2  0
 33 34  1  0
 34 35  2  0
 35 36  1  0
 34 37  1  0
 33 38  1  0
 32 39  1  0
 31 40  1  0
 29 41  1  1
 28 42  1  0
 27 43  1  0
 26 44  1  0
 25 45  1  0
 24 46  1  0
 23 47  1  0
 13  4  1  0
 29 22  1  0
 35 30  1  0
 13  8  1  0
M  END
>  <cnnaffinities>  (92) 
[6.01515, 6.01507, 5.56121, 5.56105]

>  <score>  (92) 
6.01515

>  <index>  (92) 
92

>  <Smiles>  (92) 
O=C(C(c1c(nc(c2c(c(c(c(c12)[H])[H])[H])[H])[H])[H])([H])[H])N1C(=C(C(=C(C(=C([C@]1(c1c(c(c(c(c1[H])[H])[H])[H])[H])[H])[H])[H])[H])[H])[H])[H]

>  <h>  (92) 
<NA>

>  <Training>  (92) 
True

>  <Success>  (92) 
True

>  <enamine_searched>  (92) 
False

>  <enamine_id>  (92) 
nan

$$$$

     RDKit          3D

 58 62  0  0  0  0  0  0  0  0999 V2000
    6.5481    4.4965   21.3925 C   0  0  0  0  0  0  0  0  0  0  0  0
    6.9104    3.5068   22.4087 N   0  0  0  0  0  4  0  0  0  0  0  0
    7.9137    3.9538   23.3987 C   0  0  0  0  0  0  0  0  0  0  0  0
    8.0835    2.9240   24.5140 C   0  0  0  0  0  0  0  0  0  0  0  0
    8.6932    1.7011   24.0081 N   0  0  0  0  0  0  0  0  0  0  0  0
    7.9561    0.4551   23.8675 C   0  0  0  0  0  0  0  0  0  0  0  0
    8.3705   -0.3439   22.6046 C   0  0  2  0  0  0  0  0  0  0  0  0
    7.8053    0.3669   21.3669 C   0  0  0  0  0  0  0  0  0  0  0  0
    8.0419    1.5133   21.0009 O   0  0  0  0  0  0  0  0  0  0  0  0
    6.8840   -0.4427   20.7698 N   0  0  0  0  0  0  0  0  0  0  0  0
    6.0990    0.0936   19.7217 C   0  0  0  0  0  0  0  0  0  0  0  0
    6.4432   -0.1884   18.4300 C   0  0  0  0  0  0  0  0  0  0  0  0
    5.7607    0.2642   17.3544 N   0  0  0  0  0  0  0  0  0  0  0  0
    4.7329    1.0408   17.5898 C   0  0  0  0  0  0  0  0  0  0  0  0
    4.3130    1.4499   18.8859 C   0  0  0  0  0  0  0  0  0  0  0  0
    3.2121    2.3245   19.0694 C   0  0  0  0  0  0  0  0  0  0  0  0
    2.8271    2.7025   20.3257 C   0  0  0  0  0  0  0  0  0  0  0  0
    3.5263    2.2346   21.4570 C   0  0  0  0  0  0  0  0  0  0  0  0
    4.6027    1.3916   21.3090 C   0  0  0  0  0  0  0  0  0  0  0  0
    5.0183    0.9698   20.0096 C   0  0  0  0  0  0  0  0  0  0  0  0
    5.1214    1.0312   22.1945 H   0  0  0  0  0  0  0  0  0  0  0  0
    3.2009    2.5400   22.4483 H   0  0  0  0  0  0  0  0  0  0  0  0
    1.9757    3.3617   20.4571 H   0  0  0  0  0  0  0  0  0  0  0  0
    2.6899    2.6724   18.1843 H   0  0  0  0  0  0  0  0  0  0  0  0
    4.1716    1.3946   16.7241 H   0  0  0  0  0  0  0  0  0  0  0  0
    7.3197   -0.8056   18.2426 H   0  0  0  0  0  0  0  0  0  0  0  0
    6.4423   -1.5224   21.6348 C   0  0  0  0  0  0  0  0  0  0  0  0
    7.6698   -1.7283   22.5204 C   0  0  2  0  0  0  0  0  0  0  0  0
    7.4040   -2.4142   23.8454 C   0  0  0  0  0  0  0  0  0  0  0  0
    6.9725   -3.4041   23.6813 H   0  0  0  0  0  0  0  0  0  0  0  0
    8.3369   -2.5295   24.4072 H   0  0  0  0  0  0  0  0  0  0  0  0
    6.7036   -1.8398   24.4594 H   0  0  0  0  0  0  0  0  0  0  0  0
    8.3145   -2.3838   21.9380 H   0  0  0  0  0  0  0  0  0  0  0  0
    6.1992   -2.4129   21.0515 H   0  0  0  0  0  0  0  0  0  0  0  0
    5.5521   -1.2533   22.2220 H   0  0  0  0  0  0  0  0  0  0  0  0
    9.8789   -0.4095   22.5385 C   0  0  0  0  0  0  0  0  0  0  0  0
   10.5320   -1.3790   21.7763 C   0  0  0  0  0  0  0  0  0  0  0  0
   11.8892   -1.3159   21.5836 C   0  0  0  0  0  0  0  0  0  0  0  0
   12.4058   -2.2170   20.7283 F   0  0  0  0  0  0  0  0  0  0  0  0
   12.6813   -0.3419   22.1909 C   0  0  0  0  0  0  0  0  0  0  0  0
   12.0438    0.5888   22.9838 C   0  0  0  0  0  0  0  0  0  0  0  0
   10.6582    0.5956   23.1164 C   0  0  0  0  0  0  0  0  0  0  0  0
   10.0413    1.7693   23.7972 C   0  0  0  0  0  0  0  0  0  0  0  0
   10.7116    2.7401   24.1295 O   0  0  0  0  0  0  0  0  0  0  0  0
   12.6251    1.3502   23.4866 H   0  0  0  0  0  0  0  0  0  0  0  0
   13.7498   -0.2823   22.0211 H   0  0  0  0  0  0  0  0  0  0  0  0
   10.0085   -2.1839   21.2782 H   0  0  0  0  0  0  0  0  0  0  0  0
    8.1428   -0.1682   24.7480 H   0  0  0  0  0  0  0  0  0  0  0  0
    6.8797    0.6647   23.8244 H   0  0  0  0  0  0  0  0  0  0  0  0
    7.1245    2.6911   24.9875 H   0  0  0  0  0  0  0  0  0  0  0  0
    8.7456    3.3185   25.2882 H   0  0  0  0  0  0  0  0  0  0  0  0
    8.8798    4.0770   22.9043 H   0  0  0  0  0  0  0  0  0  0  0  0
    7.6371    4.9248   23.8225 H   0  0  0  0  0  0  0  0  0  0  0  0
    6.0410    3.2499   22.9017 H   0  0  0  0  0  0  0  0  0  0  0  0
    7.2651    2.6609   21.9247 H   0  0  0  0  0  0  0  0  0  0  0  0
    5.6585    4.1578   20.8559 H   0  0  0  0  0  0  0  0  0  0  0  0
    7.3615    4.6346   20.6802 H   0  0  0  0  0  0  0  0  0  0  0  0
    6.3368    5.4666   21.8495 H   0  0  0  0  0  0  0  0  0  0  0  0
  1  2  1  0
  2  3  1  0
  3  4  1  0
  4  5  1  0
  5  6  1  0
  7  6  1  1
  7  8  1  0
  8  9  2  0
  8 10  1  0
 10 11  1  0
 11 12  2  0
 12 13  1  0
 13 14  2  0
 14 15  1  0
 15 16  2  0
 16 17  1  0
 17 18  2  0
 18 19  1  0
 19 20  2  0
 19 21  1  0
 18 22  1  0
 17 23  1  0
 16 24  1  0
 14 25  1  0
 12 26  1  0
 10 27  1  0
 27 28  1  0
 28 29  1  0
 29 30  1  0
 29 31  1  0
 29 32  1  0
 28 33  1  6
 27 34  1  0
 27 35  1  0
  7 36  1  0
 36 37  2  0
 37 38  1  0
 38 39  1  0
 38 40  2  0
 40 41  1  0
 41 42  2  0
 42 43  1  0
 43 44  2  0
 41 45  1  0
 40 46  1  0
 37 47  1  0
  6 48  1  0
  6 49  1  0
  4 50  1  0
  4 51  1  0
  3 52  1  0
  3 53  1  0
  2 54  1  0
  2 55  1  0
  1 56  1  0
  1 57  1  0
  1 58  1  0
 43  5  1  0
 28  7  1  0
 42 36  1  0
 20 11  1  0
 20 15  1  0
M  CHG  1   2   1
M  END
>  <cnnaffinities>  (93) 
[6.09441]

>  <score>  (93) 
6.09441

>  <index>  (93) 
93

>  <Smiles>  (93) 
C([N+](C(C(N1C([C@@]2(C(=O)N(c3c(nc(c4c(c(c(c(c34)[H])[H])[H])[H])[H])[H])C([C@@]2(C([H])([H])[H])[H])([H])[H])c2c(c(F)c(c(c2C1=O)[H])[H])[H])([H])[H])([H])[H])([H])[H])([H])[H])([H])([H])[H]

>  <h>  (93) 
<NA>

>  <Training>  (93) 
True

>  <Success>  (93) 
True

>  <enamine_searched>  (93) 
False

>  <enamine_id>  (93) 
nan

$$$$

     RDKit          3D

 65 69  0  0  0  0  0  0  0  0999 V2000
    3.8763   -3.8529   28.0527 C   0  0  0  0  0  0  0  0  0  0  0  0
    4.5485   -4.2176   26.7230 C   0  0  0  0  0  0  0  0  0  0  0  0
    4.7594   -2.9506   25.9322 C   0  0  0  0  0  0  0  0  0  0  0  0
    4.0615   -2.5662   25.0351 O   0  0  0  0  0  0  0  0  0  0  0  0
    5.9560   -2.1137   26.3847 N   0  0  2  0  0  4  0  0  0  0  0  0
    5.5418   -0.7509   26.9920 C   0  0  0  0  0  0  0  0  0  0  0  0
    5.2166    0.2301   25.8836 C   0  0  0  0  0  0  0  0  0  0  0  0
    6.4958    0.5171   25.1043 C   0  0  0  0  0  0  0  0  0  0  0  0
    7.2075   -0.7422   24.6479 C   0  0  0  0  0  0  0  0  0  0  0  0
    8.0846   -0.7190   23.5510 C   0  0  0  0  0  0  0  0  0  0  0  0
    8.2807    0.5114   22.8608 N   0  0  0  0  0  0  0  0  0  0  0  0
    9.1395    1.5052   23.5240 C   0  0  0  0  0  0  0  0  0  0  0  0
   10.6064    1.2749   23.2440 C   0  0  0  0  0  0  0  0  0  0  0  0
   11.2497    2.0295   22.2696 C   0  0  0  0  0  0  0  0  0  0  0  0
   12.5745    1.7714   21.9452 C   0  0  0  0  0  0  0  0  0  0  0  0
   13.2537    0.7137   22.5465 C   0  0  0  0  0  0  0  0  0  0  0  0
   12.6048   -0.0284   23.5255 C   0  0  0  0  0  0  0  0  0  0  0  0
   13.4152   -1.3713   24.2797 Cl  0  0  0  0  0  0  0  0  0  0  0  0
   11.2973    0.2541   23.8941 C   0  0  0  0  0  0  0  0  0  0  0  0
   10.7912   -0.3473   24.6452 H   0  0  0  0  0  0  0  0  0  0  0  0
   14.2587    0.4317   22.2474 H   0  0  0  0  0  0  0  0  0  0  0  0
   13.0723    2.3823   21.1983 H   0  0  0  0  0  0  0  0  0  0  0  0
   10.6860    2.7875   21.7300 H   0  0  0  0  0  0  0  0  0  0  0  0
    8.8345    2.5134   23.2138 H   0  0  0  0  0  0  0  0  0  0  0  0
    8.9663    1.4093   24.6031 H   0  0  0  0  0  0  0  0  0  0  0  0
    7.9732    0.6617   21.5201 C   0  0  0  0  0  0  0  0  0  0  0  0
    8.4193    1.5716   20.8524 O   0  0  0  0  0  0  0  0  0  0  0  0
    6.9973   -0.3780   20.9200 C   0  0  0  0  0  0  0  0  0  0  0  0
    6.1638    0.1431   19.7828 C   0  0  0  0  0  0  0  0  0  0  0  0
    6.4848   -0.1659   18.4875 C   0  0  0  0  0  0  0  0  0  0  0  0
    5.8070    0.2593   17.3909 N   0  0  0  0  0  0  0  0  0  0  0  0
    4.7693    1.0300   17.5896 C   0  0  0  0  0  0  0  0  0  0  0  0
    4.3168    1.4350   18.8741 C   0  0  0  0  0  0  0  0  0  0  0  0
    3.1967    2.2881   19.0409 C   0  0  0  0  0  0  0  0  0  0  0  0
    2.7848    2.6550   20.2929 C   0  0  0  0  0  0  0  0  0  0  0  0
    3.4720    2.1804   21.4333 C   0  0  0  0  0  0  0  0  0  0  0  0
    4.5616    1.3550   21.2967 C   0  0  0  0  0  0  0  0  0  0  0  0
    5.0232    0.9707   20.0086 C   0  0  0  0  0  0  0  0  0  0  0  0
    5.0753    0.9866   22.1806 H   0  0  0  0  0  0  0  0  0  0  0  0
    3.1297    2.4684   22.4238 H   0  0  0  0  0  0  0  0  0  0  0  0
    1.9321    3.3170   20.4195 H   0  0  0  0  0  0  0  0  0  0  0  0
    2.6855    2.6480   18.1514 H   0  0  0  0  0  0  0  0  0  0  0  0
    4.2268    1.3708   16.7064 H   0  0  0  0  0  0  0  0  0  0  0  0
    7.3405   -0.8052   18.2656 H   0  0  0  0  0  0  0  0  0  0  0  0
    7.6091   -1.2155   20.5556 H   0  0  0  0  0  0  0  0  0  0  0  0
    6.3683   -0.7890   21.7188 H   0  0  0  0  0  0  0  0  0  0  0  0
    8.7801   -1.8583   23.1609 C   0  0  0  0  0  0  0  0  0  0  0  0
    8.6182   -3.0387   23.8715 C   0  0  0  0  0  0  0  0  0  0  0  0
    7.7593   -3.0827   24.9580 C   0  0  0  0  0  0  0  0  0  0  0  0
    7.0237   -1.9531   25.3059 C   0  0  0  0  0  0  0  0  0  0  0  0
    7.6444   -3.9959   25.5300 H   0  0  0  0  0  0  0  0  0  0  0  0
    9.1342   -3.9316   23.5531 H   0  0  0  0  0  0  0  0  0  0  0  0
    9.4804   -1.8198   22.3279 H   0  0  0  0  0  0  0  0  0  0  0  0
    7.1679    1.0792   25.7675 H   0  0  0  0  0  0  0  0  0  0  0  0
    6.2893    1.1614   24.2437 H   0  0  0  0  0  0  0  0  0  0  0  0
    4.8359    1.1548   26.3266 H   0  0  0  0  0  0  0  0  0  0  0  0
    4.4460   -0.1892   25.2291 H   0  0  0  0  0  0  0  0  0  0  0  0
    4.7088   -0.8913   27.6867 H   0  0  0  0  0  0  0  0  0  0  0  0
    6.4050   -0.3930   27.5562 H   0  0  0  0  0  0  0  0  0  0  0  0
    6.3991   -2.6600   27.1476 H   0  0  0  0  0  0  0  0  0  0  0  0
    5.5258   -4.6895   26.8898 H   0  0  0  0  0  0  0  0  0  0  0  0
    3.9349   -4.8881   26.1205 H   0  0  0  0  0  0  0  0  0  0  0  0
    2.9595   -3.2823   27.8605 H   0  0  0  0  0  0  0  0  0  0  0  0
    4.5496   -3.2217   28.6483 H   0  0  0  0  0  0  0  0  0  0  0  0
    3.6309   -4.7430   28.6396 H   0  0  0  0  0  0  0  0  0  0  0  0
  1  2  1  0
  2  3  1  0
  3  4  2  0
  3  5  1  0
  5  6  1  0
  6  7  1  0
  7  8  1  0
  8  9  1  0
  9 10  2  0
 10 11  1  0
 11 12  1  0
 12 13  1  0
 13 14  2  0
 14 15  1  0
 15 16  2  0
 16 17  1  0
 17 18  1  0
 17 19  2  0
 19 20  1  0
 16 21  1  0
 15 22  1  0
 14 23  1  0
 12 24  1  0
 12 25  1  0
 11 26  1  0
 26 27  2  0
 26 28  1  0
 28 29  1  0
 29 30  2  0
 30 31  1  0
 31 32  2  0
 32 33  1  0
 33 34  2  0
 34 35  1  0
 35 36  2  0
 36 37  1  0
 37 38  2  0
 37 39  1  0
 36 40  1  0
 35 41  1  0
 34 42  1  0
 32 43  1  0
 30 44  1  0
 28 45  1  0
 28 46  1  0
 10 47  1  0
 47 48  2  0
 48 49  1  0
 49 50  2  0
 49 51  1  0
 48 52  1  0
 47 53  1  0
  8 54  1  0
  8 55  1  0
  7 56  1  0
  7 57  1  0
  6 58  1  0
  6 59  1  0
  5 60  1  1
  2 61  1  0
  2 62  1  0
  1 63  1  0
  1 64  1  0
  1 65  1  0
 50  5  1  0
 50  9  1  0
 19 13  1  0
 38 29  1  0
 38 33  1  0
M  CHG  1   5   1
M  END
>  <cnnaffinities>  (94) 
[6.72581, 6.64353]

>  <score>  (94) 
6.72581

>  <index>  (94) 
94

>  <Smiles>  (94) 
C(C(C(=O)[N@@+]1(C(C(C(c2c(N(C(c3c(c(c(c(Cl)c3[H])[H])[H])[H])([H])[H])C(=O)C(c3c(nc(c4c(c(c(c(c34)[H])[H])[H])[H])[H])[H])([H])[H])c(c(c(c12)[H])[H])[H])([H])[H])([H])[H])([H])[H])[H])([H])[H])([H])([H])[H]

>  <h>  (94) 
<NA>

>  <Training>  (94) 
True

>  <Success>  (94) 
True

>  <enamine_searched>  (94) 
False

>  <enamine_id>  (94) 
nan

$$$$

     RDKit          3D

 67 71  0  0  0  0  0  0  0  0999 V2000
    7.6701   -8.3442   22.9083 C   0  0  0  0  0  0  0  0  0  0  0  0
    6.7871   -7.2521   22.5745 N   0  0  0  0  0  0  0  0  0  0  0  0
    7.0966   -6.3807   21.5849 C   0  0  0  0  0  0  0  0  0  0  0  0
    8.0650   -6.5106   20.8578 O   0  0  0  0  0  0  0  0  0  0  0  0
    6.1585   -5.1739   21.4845 C   0  0  0  0  0  0  0  0  0  0  0  0
    6.5490   -4.1733   22.4611 N   0  0  0  0  0  0  0  0  0  0  0  0
    7.7297   -3.3365   22.3000 C   0  0  0  0  0  0  0  0  0  0  0  0
    7.4017   -1.8593   22.6548 C   0  0  2  0  0  0  0  0  0  0  0  0
    6.3173   -1.3833   21.6586 C   0  0  0  0  0  0  0  0  0  0  0  0
    5.1853   -1.8054   21.5602 O   0  0  0  0  0  0  0  0  0  0  0  0
    6.8610   -0.4173   20.8358 N   0  0  0  0  0  0  0  0  0  0  0  0
    6.1232    0.1206   19.7657 C   0  0  0  0  0  0  0  0  0  0  0  0
    6.4667   -0.1766   18.4725 C   0  0  0  0  0  0  0  0  0  0  0  0
    5.7946    0.2648   17.3858 N   0  0  0  0  0  0  0  0  0  0  0  0
    4.7531    1.0332   17.5888 C   0  0  0  0  0  0  0  0  0  0  0  0
    4.3019    1.4340   18.8782 C   0  0  0  0  0  0  0  0  0  0  0  0
    3.1801    2.2888   19.0399 C   0  0  0  0  0  0  0  0  0  0  0  0
    2.7784    2.6744   20.2901 C   0  0  0  0  0  0  0  0  0  0  0  0
    3.4784    2.2245   21.4328 C   0  0  0  0  0  0  0  0  0  0  0  0
    4.5654    1.3953   21.3030 C   0  0  0  0  0  0  0  0  0  0  0  0
    5.0003    0.9719   20.0128 C   0  0  0  0  0  0  0  0  0  0  0  0
    5.0950    1.0456   22.1842 H   0  0  0  0  0  0  0  0  0  0  0  0
    3.1491    2.5402   22.4196 H   0  0  0  0  0  0  0  0  0  0  0  0
    1.9249    3.3368   20.4104 H   0  0  0  0  0  0  0  0  0  0  0  0
    2.6636    2.6326   18.1474 H   0  0  0  0  0  0  0  0  0  0  0  0
    4.2138    1.3843   16.7085 H   0  0  0  0  0  0  0  0  0  0  0  0
    7.3143   -0.8320   18.2755 H   0  0  0  0  0  0  0  0  0  0  0  0
    8.3031   -0.3577   20.9208 C   0  0  0  0  0  0  0  0  0  0  0  0
    8.5658   -0.8607   22.3493 C   0  0  2  0  0  0  0  0  0  0  0  0
   10.0122   -1.3318   22.4885 C   0  0  0  0  0  0  0  0  0  0  0  0
   10.5281   -1.5089   24.1999 S   0  0  0  0  0  0  0  0  0  0  0  0
   10.3663   -0.2090   24.8390 O   0  0  0  0  0  0  0  0  0  0  0  0
    9.9304   -2.7129   24.7540 O   0  0  0  0  0  0  0  0  0  0  0  0
   12.1527   -1.8306   24.1014 N   0  0  0  0  0  0  0  0  0  0  0  0
   13.0332   -0.7650   23.6628 C   0  0  0  0  0  0  0  0  0  0  0  0
   14.0588   -1.1053   23.8154 H   0  0  0  0  0  0  0  0  0  0  0  0
   12.8690    0.1086   24.2918 H   0  0  0  0  0  0  0  0  0  0  0  0
   12.9158   -0.4917   22.6038 H   0  0  0  0  0  0  0  0  0  0  0  0
   12.4603   -3.1616   23.6101 C   0  0  0  0  0  0  0  0  0  0  0  0
   11.8734   -3.8544   24.2098 H   0  0  0  0  0  0  0  0  0  0  0  0
   12.2252   -3.3194   22.5466 H   0  0  0  0  0  0  0  0  0  0  0  0
   13.5225   -3.3534   23.7700 H   0  0  0  0  0  0  0  0  0  0  0  0
   10.1505   -2.2882   21.9736 H   0  0  0  0  0  0  0  0  0  0  0  0
   10.6916   -0.5946   22.0422 H   0  0  0  0  0  0  0  0  0  0  0  0
    8.4307    0.0008   23.0013 H   0  0  0  0  0  0  0  0  0  0  0  0
    8.6512    0.6682   20.7626 H   0  0  0  0  0  0  0  0  0  0  0  0
    8.7879   -1.0001   20.1691 H   0  0  0  0  0  0  0  0  0  0  0  0
    6.8780   -1.8880   24.0866 C   0  0  0  0  0  0  0  0  0  0  0  0
    6.9366   -0.7849   24.9436 C   0  0  0  0  0  0  0  0  0  0  0  0
    6.4762   -0.9095   26.2419 C   0  0  0  0  0  0  0  0  0  0  0  0
    6.4834    0.1759   27.0330 F   0  0  0  0  0  0  0  0  0  0  0  0
    6.0102   -2.1071   26.7679 C   0  0  0  0  0  0  0  0  0  0  0  0
    5.8981   -3.1822   25.9120 C   0  0  0  0  0  0  0  0  0  0  0  0
    6.2586   -3.0549   24.5738 C   0  0  0  0  0  0  0  0  0  0  0  0
    5.8961   -4.1742   23.6519 C   0  0  0  0  0  0  0  0  0  0  0  0
    5.0531   -5.0233   23.9341 O   0  0  0  0  0  0  0  0  0  0  0  0
    5.5227   -4.1385   26.2559 H   0  0  0  0  0  0  0  0  0  0  0  0
    5.7330   -2.1683   27.8141 H   0  0  0  0  0  0  0  0  0  0  0  0
    7.3275    0.1738   24.6233 H   0  0  0  0  0  0  0  0  0  0  0  0
    8.5255   -3.6937   22.9654 H   0  0  0  0  0  0  0  0  0  0  0  0
    8.0916   -3.4185   21.2815 H   0  0  0  0  0  0  0  0  0  0  0  0
    6.1583   -4.7400   20.4826 H   0  0  0  0  0  0  0  0  0  0  0  0
    5.1307   -5.4583   21.7241 H   0  0  0  0  0  0  0  0  0  0  0  0
    6.0624   -6.9873   23.2309 H   0  0  0  0  0  0  0  0  0  0  0  0
    8.3798   -8.0574   23.6915 H   0  0  0  0  0  0  0  0  0  0  0  0
    8.2321   -8.6102   22.0229 H   0  0  0  0  0  0  0  0  0  0  0  0
    7.0918   -9.2144   23.2287 H   0  0  0  0  0  0  0  0  0  0  0  0
  1  2  1  0
  2  3  1  0
  3  4  2  0
  3  5  1  0
  5  6  1  0
  6  7  1  0
  8  7  1  6
  8  9  1  0
  9 10  2  0
  9 11  1  0
 11 12  1  0
 12 13  2  0
 13 14  1  0
 14 15  2  0
 15 16  1  0
 16 17  2  0
 17 18  1  0
 18 19  2  0
 19 20  1  0
 20 21  2  0
 20 22  1  0
 19 23  1  0
 18 24  1  0
 17 25  1  0
 15 26  1  0
 13 27  1  0
 11 28  1  0
 28 29  1  0
 29 30  1  0
 30 31  1  0
 31 32  2  0
 31 33  2  0
 31 34  1  0
 34 35  1  0
 35 36  1  0
 35 37  1  0
 35 38  1  0
 34 39  1  0
 39 40  1  0
 39 41  1  0
 39 42  1  0
 30 43  1  0
 30 44  1  0
 29 45  1  1
 28 46  1  0
 28 47  1  0
  8 48  1  0
 48 49  2  0
 49 50  1  0
 50 51  1  0
 50 52  2  0
 52 53  1  0
 53 54  2  0
 54 55  1  0
 55 56  2  0
 53 57  1  0
 52 58  1  0
 49 59  1  0
  7 60  1  0
  7 61  1  0
  5 62  1  0
  5 63  1  0
  2 64  1  0
  1 65  1  0
  1 66  1  0
  1 67  1  0
 55  6  1  0
 29  8  1  0
 54 48  1  0
 21 12  1  0
 21 16  1  0
M  END
>  <cnnaffinities>  (95) 
[7.01254]

>  <score>  (95) 
7.01254

>  <index>  (95) 
95

>  <Smiles>  (95) 
C(N(C(=O)C(N1C([C@@]2(C(=O)N(c3c(nc(c4c(c(c(c(c34)[H])[H])[H])[H])[H])[H])C([C@@]2(C(S(=O)(=O)N(C([H])([H])[H])C([H])([H])[H])([H])[H])[H])([H])[H])c2c(c(F)c(c(c2C1=O)[H])[H])[H])([H])[H])([H])[H])[H])([H])([H])[H]

>  <h>  (95) 
<NA>

>  <Training>  (95) 
True

>  <Success>  (95) 
True

>  <enamine_searched>  (95) 
False

>  <enamine_id>  (95) 
nan

$$$$

     RDKit          3D

 37 39  0  0  0  0  0  0  0  0999 V2000
    5.8604   -2.6596   20.8489 O   0  0  0  0  0  0  0  0  0  0  0  0
    6.1759   -1.7002   21.5303 C   0  0  0  0  0  0  0  0  0  0  0  0
    6.9016   -0.4908   20.9148 C   0  0  0  0  0  0  0  0  0  0  0  0
    6.1110    0.0956   19.7677 C   0  0  0  0  0  0  0  0  0  0  0  0
    6.4221   -0.2109   18.4676 C   0  0  0  0  0  0  0  0  0  0  0  0
    5.7559    0.2438   17.3745 N   0  0  0  0  0  0  0  0  0  0  0  0
    4.7330    1.0328   17.5791 C   0  0  0  0  0  0  0  0  0  0  0  0
    4.2839    1.4267   18.8666 C   0  0  0  0  0  0  0  0  0  0  0  0
    3.1630    2.2762   19.0425 C   0  0  0  0  0  0  0  0  0  0  0  0
    2.7491    2.6289   20.2978 C   0  0  0  0  0  0  0  0  0  0  0  0
    3.4419    2.1454   21.4297 C   0  0  0  0  0  0  0  0  0  0  0  0
    4.5319    1.3224   21.2862 C   0  0  0  0  0  0  0  0  0  0  0  0
    4.9869    0.9429   19.9970 C   0  0  0  0  0  0  0  0  0  0  0  0
    5.0450    0.9557   22.1700 H   0  0  0  0  0  0  0  0  0  0  0  0
    3.1050    2.4304   22.4216 H   0  0  0  0  0  0  0  0  0  0  0  0
    1.8920    3.2838   20.4334 H   0  0  0  0  0  0  0  0  0  0  0  0
    2.6445    2.6448   18.1606 H   0  0  0  0  0  0  0  0  0  0  0  0
    4.2001    1.3981   16.6984 H   0  0  0  0  0  0  0  0  0  0  0  0
    7.2649   -0.8652   18.2431 H   0  0  0  0  0  0  0  0  0  0  0  0
    7.8567   -0.8594   20.5176 H   0  0  0  0  0  0  0  0  0  0  0  0
    7.1495    0.2714   21.6666 H   0  0  0  0  0  0  0  0  0  0  0  0
    5.8683   -1.6492   22.8609 N   0  0  0  0  0  0  0  0  0  0  0  0
    5.2101   -2.7748   23.5130 C   0  0  0  0  0  0  0  0  0  0  0  0
    6.1037   -3.9840   23.6824 C   0  0  0  0  0  0  0  0  0  0  0  0
    5.9218   -5.1261   22.9061 C   0  0  0  0  0  0  0  0  0  0  0  0
    6.7931   -6.2025   23.0243 C   0  0  0  0  0  0  0  0  0  0  0  0
    7.8464   -6.1612   23.9291 C   0  0  0  0  0  0  0  0  0  0  0  0
    8.0152   -5.0196   24.7022 C   0  0  0  0  0  0  0  0  0  0  0  0
    9.3330   -4.9500   25.8355 Cl  0  0  0  0  0  0  0  0  0  0  0  0
    7.1604   -3.9327   24.5880 C   0  0  0  0  0  0  0  0  0  0  0  0
    7.3280   -3.0500   25.2002 H   0  0  0  0  0  0  0  0  0  0  0  0
    8.5283   -6.9991   24.0411 H   0  0  0  0  0  0  0  0  0  0  0  0
    6.6450   -7.0882   22.4152 H   0  0  0  0  0  0  0  0  0  0  0  0
    5.1128   -5.1526   22.1805 H   0  0  0  0  0  0  0  0  0  0  0  0
    4.8680   -2.4260   24.4900 H   0  0  0  0  0  0  0  0  0  0  0  0
    4.3188   -3.0414   22.9421 H   0  0  0  0  0  0  0  0  0  0  0  0
    6.1668   -0.8693   23.4201 H   0  0  0  0  0  0  0  0  0  0  0  0
  1  2  2  0
  2  3  1  0
  3  4  1  0
  4  5  2  0
  5  6  1  0
  6  7  2  0
  7  8  1  0
  8  9  2  0
  9 10  1  0
 10 11  2  0
 11 12  1  0
 12 13  2  0
 12 14  1  0
 11 15  1  0
 10 16  1  0
  9 17  1  0
  7 18  1  0
  5 19  1  0
  3 20  1  0
  3 21  1  0
  2 22  1  0
 22 23  1  0
 23 24  1  0
 24 25  2  0
 25 26  1  0
 26 27  2  0
 27 28  1  0
 28 29  1  0
 28 30  2  0
 30 31  1  0
 27 32  1  0
 26 33  1  0
 25 34  1  0
 23 35  1  0
 23 36  1  0
 22 37  1  0
 13  4  1  0
 30 24  1  0
 13  8  1  0
M  END
>  <cnnaffinities>  (96) 
[5.03034, 4.78046, 4.54435, 4.92727, 5.37248]

>  <score>  (96) 
5.03034

>  <index>  (96) 
96

>  <Smiles>  (96) 
O=C(C(c1c(nc(c2c(c(c(c(c12)[H])[H])[H])[H])[H])[H])([H])[H])N(C(c1c(c(c(c(Cl)c1[H])[H])[H])[H])([H])[H])[H]

>  <h>  (96) 
<NA>

>  <Training>  (96) 
True

>  <Success>  (96) 
True

>  <enamine_searched>  (96) 
False

>  <enamine_id>  (96) 
nan

$$$$
