
     RDKit          3D

 63 69  0  0  0  0  0  0  0  0999 V2000
   10.4837    2.7893   24.2462 O   0  0  0  0  0  0  0  0  0  0  0  0
    9.8854    1.7683   23.9232 C   0  0  0  0  0  0  0  0  0  0  0  0
   10.5964    0.5903   23.3290 C   0  0  0  0  0  0  0  0  0  0  0  0
   11.9892    0.5794   23.3516 C   0  0  0  0  0  0  0  0  0  0  0  0
   12.6906   -0.3379   22.5972 C   0  0  0  0  0  0  0  0  0  0  0  0
   11.9647   -1.2355   21.8135 C   0  0  0  0  0  0  0  0  0  0  0  0
   12.7578   -2.2103   20.6152 Cl  0  0  0  0  0  0  0  0  0  0  0  0
   10.5908   -1.3231   21.8859 C   0  0  0  0  0  0  0  0  0  0  0  0
    9.8799   -0.4237   22.6836 C   0  0  0  0  0  0  0  0  0  0  0  0
    8.3673   -0.4113   22.6673 C   0  0  1  0  0  0  0  0  0  0  0  0
    7.8766    0.3463   23.9280 C   0  0  0  0  0  0  0  0  0  0  0  0
    8.5270    1.6409   24.0479 N   0  0  0  0  0  0  0  0  0  0  0  0
    7.7662    2.8231   24.3990 C   0  0  0  0  0  0  0  0  0  0  0  0
    7.5199    3.7315   23.2325 C   0  0  0  0  0  0  0  0  0  0  0  0
    8.0096    4.8946   22.9649 N   0  0  0  0  0  0  0  0  0  0  0  0
    7.3605    5.3457   21.8206 N   0  0  0  0  0  0  0  0  0  0  0  0
    6.5275    4.4192   21.4946 C   0  0  0  0  0  0  0  0  0  0  0  0
    6.5710    3.3636   22.3408 O   0  0  0  0  0  0  0  0  0  0  0  0
    5.7818    4.4421   20.7072 H   0  0  0  0  0  0  0  0  0  0  0  0
    6.7978    2.5123   24.8026 H   0  0  0  0  0  0  0  0  0  0  0  0
    8.3041    3.3680   25.1782 H   0  0  0  0  0  0  0  0  0  0  0  0
    6.7941    0.5096   23.8615 H   0  0  0  0  0  0  0  0  0  0  0  0
    8.0880   -0.2675   24.8155 H   0  0  0  0  0  0  0  0  0  0  0  0
    7.8981    0.3287   21.3902 C   0  0  0  0  0  0  0  0  0  0  0  0
    8.2925    1.3867   20.9593 O   0  0  0  0  0  0  0  0  0  0  0  0
    6.9159   -0.4394   20.7957 N   0  0  0  0  0  0  0  0  0  0  0  0
    6.1273    0.0916   19.7481 C   0  0  0  0  0  0  0  0  0  0  0  0
    6.4604   -0.1988   18.4543 C   0  0  0  0  0  0  0  0  0  0  0  0
    5.7783    0.2494   17.3769 N   0  0  0  0  0  0  0  0  0  0  0  0
    4.7469    1.0250   17.5957 C   0  0  0  0  0  0  0  0  0  0  0  0
    4.2958    1.4053   18.8934 C   0  0  0  0  0  0  0  0  0  0  0  0
    3.1695    2.2487   19.0769 C   0  0  0  0  0  0  0  0  0  0  0  0
    2.7614    2.5979   20.3317 C   0  0  0  0  0  0  0  0  0  0  0  0
    3.4456    2.1044   21.4621 C   0  0  0  0  0  0  0  0  0  0  0  0
    4.5379    1.2841   21.3152 C   0  0  0  0  0  0  0  0  0  0  0  0
    4.9949    0.9179   20.0161 C   0  0  0  0  0  0  0  0  0  0  0  0
    5.0663    0.9361   22.1980 H   0  0  0  0  0  0  0  0  0  0  0  0
    3.1089    2.3909   22.4539 H   0  0  0  0  0  0  0  0  0  0  0  0
    1.9085    3.2578   20.4611 H   0  0  0  0  0  0  0  0  0  0  0  0
    2.6520    2.6050   18.1914 H   0  0  0  0  0  0  0  0  0  0  0  0
    4.2066    1.3929   16.7234 H   0  0  0  0  0  0  0  0  0  0  0  0
    7.3238   -0.8310   18.2604 H   0  0  0  0  0  0  0  0  0  0  0  0
    6.4843   -1.5662   21.5943 C   0  0  0  0  0  0  0  0  0  0  0  0
    7.6923   -1.8030   22.5044 C   0  0  2  0  0  0  0  0  0  0  0  0
    7.4173   -2.6424   23.7604 C   0  0  0  0  0  0  0  0  0  0  0  0
    6.2018   -2.3087   24.4856 N   0  0  0  0  0  0  0  0  0  0  0  0
    5.0173   -2.9269   24.2778 C   0  0  0  0  0  0  0  0  0  0  0  0
    3.9971   -2.5403   25.0765 N   0  0  0  0  0  0  0  0  0  0  0  0
    2.8323   -3.0808   24.7647 C   0  0  0  0  0  0  0  0  0  0  0  0
    2.5995   -3.9722   23.7957 N   0  0  0  0  0  0  0  0  0  0  0  0
    3.6897   -4.3196   23.1139 C   0  0  0  0  0  0  0  0  0  0  0  0
    4.9201   -3.8475   23.2912 N   0  0  0  0  0  0  0  0  0  0  0  0
    3.5605   -5.0670   22.3227 H   0  0  0  0  0  0  0  0  0  0  0  0
    1.9601   -2.7675   25.3495 H   0  0  0  0  0  0  0  0  0  0  0  0
    6.2314   -1.6624   25.2661 H   0  0  0  0  0  0  0  0  0  0  0  0
    7.3215   -3.6887   23.4627 H   0  0  0  0  0  0  0  0  0  0  0  0
    8.2708   -2.5611   24.4442 H   0  0  0  0  0  0  0  0  0  0  0  0
    8.3918   -2.4040   21.9183 H   0  0  0  0  0  0  0  0  0  0  0  0
    6.2761   -2.4372   20.9683 H   0  0  0  0  0  0  0  0  0  0  0  0
    5.5598   -1.3304   22.1380 H   0  0  0  0  0  0  0  0  0  0  0  0
   10.1069   -2.0807   21.2792 H   0  0  0  0  0  0  0  0  0  0  0  0
   13.7738   -0.3341   22.5661 H   0  0  0  0  0  0  0  0  0  0  0  0
   12.4937    1.3419   23.9324 H   0  0  0  0  0  0  0  0  0  0  0  0
  1  2  2  0
  2  3  1  0
  3  4  2  0
  4  5  1  0
  5  6  2  0
  6  7  1  0
  6  8  1  0
  8  9  2  0
  9 10  1  0
 10 11  1  1
 11 12  1  0
 12 13  1  0
 13 14  1  0
 14 15  2  0
 15 16  1  0
 16 17  2  0
 17 18  1  0
 17 19  1  0
 13 20  1  0
 13 21  1  0
 11 22  1  0
 11 23  1  0
 10 24  1  0
 24 25  2  0
 24 26  1  0
 26 27  1  0
 27 28  2  0
 28 29  1  0
 29 30  2  0
 30 31  1  0
 31 32  2  0
 32 33  1  0
 33 34  2  0
 34 35  1  0
 35 36  2  0
 35 37  1  0
 34 38  1  0
 33 39  1  0
 32 40  1  0
 30 41  1  0
 28 42  1  0
 26 43  1  0
 43 44  1  0
 44 45  1  0
 45 46  1  0
 46 47  1  0
 47 48  2  0
 48 49  1  0
 49 50  2  0
 50 51  1  0
 51 52  2  0
 51 53  1  0
 49 54  1  0
 46 55  1  0
 45 56  1  0
 45 57  1  0
 44 58  1  6
 43 59  1  0
 43 60  1  0
  8 61  1  0
  5 62  1  0
  4 63  1  0
 12  2  1  0
 18 14  1  0
 36 27  1  0
 52 47  1  0
  9  3  1  0
 44 10  1  0
 36 31  1  0
M  END
>  <cnnaffinities>  (1) 
[6.09352, 6.23285, 6.62054]

>  <score>  (1) 
6.09352

>  <index>  (1) 
0

>  <Smiles>  (1) 
O=C1c2c(c(c(Cl)c(c2[C@@]2(C(N1C(c1nnc(o1)[H])([H])[H])([H])[H])C(=O)N(c1c(nc(c3c(c(c(c(c13)[H])[H])[H])[H])[H])[H])C([C@@]2(C(N(c1nc(nc(n1)[H])[H])[H])([H])[H])[H])([H])[H])[H])[H])[H]

>  <h>  (1) 
<NA>

>  <Training>  (1) 
True

>  <Success>  (1) 
True

>  <enamine_searched>  (1) 
False

>  <enamine_id>  (1) 
nan

$$$$

     RDKit          3D

 51 54  0  0  0  0  0  0  0  0999 V2000
   12.6017   -0.6367   24.7093 C   0  0  0  0  0  0  0  0  0  0  0  0
   12.3305   -1.6234   23.7508 O   0  0  0  0  0  0  0  0  0  0  0  0
   11.0263   -1.8482   23.4538 C   0  0  0  0  0  0  0  0  0  0  0  0
   10.8127   -2.8516   22.5144 C   0  0  0  0  0  0  0  0  0  0  0  0
    9.5317   -3.1147   22.0613 C   0  0  0  0  0  0  0  0  0  0  0  0
    8.4421   -2.3980   22.5518 C   0  0  0  0  0  0  0  0  0  0  0  0
    7.1355   -2.7106   22.0535 N   0  0  0  0  0  0  0  0  0  0  0  0
    6.5461   -4.0041   22.4248 C   0  0  0  0  0  0  0  0  0  0  0  0
    5.9777   -4.0099   23.8354 C   0  0  0  0  0  0  0  0  0  0  0  0
    6.8148   -4.2174   24.9320 C   0  0  0  0  0  0  0  0  0  0  0  0
    6.3143   -4.1554   26.2293 C   0  0  0  0  0  0  0  0  0  0  0  0
    4.9667   -3.8927   26.4507 C   0  0  0  0  0  0  0  0  0  0  0  0
    4.1349   -3.7066   25.3539 C   0  0  0  0  0  0  0  0  0  0  0  0
    2.4453   -3.3655   25.6143 Cl  0  0  0  0  0  0  0  0  0  0  0  0
    4.6210   -3.7654   24.0535 C   0  0  0  0  0  0  0  0  0  0  0  0
    3.9484   -3.5901   23.2186 H   0  0  0  0  0  0  0  0  0  0  0  0
    4.5621   -3.8272   27.4571 H   0  0  0  0  0  0  0  0  0  0  0  0
    6.9825   -4.2982   27.0758 H   0  0  0  0  0  0  0  0  0  0  0  0
    7.8740   -4.4062   24.7696 H   0  0  0  0  0  0  0  0  0  0  0  0
    5.7572   -4.2353   21.7025 H   0  0  0  0  0  0  0  0  0  0  0  0
    7.3301   -4.7661   22.3430 H   0  0  0  0  0  0  0  0  0  0  0  0
    6.2904   -1.7870   21.4688 C   0  0  0  0  0  0  0  0  0  0  0  0
    5.0903   -1.9966   21.3910 O   0  0  0  0  0  0  0  0  0  0  0  0
    6.9295   -0.5146   20.8872 C   0  0  0  0  0  0  0  0  0  0  0  0
    6.1159    0.0835   19.7690 C   0  0  0  0  0  0  0  0  0  0  0  0
    6.4231   -0.2140   18.4681 C   0  0  0  0  0  0  0  0  0  0  0  0
    5.7555    0.2390   17.3782 N   0  0  0  0  0  0  0  0  0  0  0  0
    4.7326    1.0304   17.5851 C   0  0  0  0  0  0  0  0  0  0  0  0
    4.2829    1.4140   18.8762 C   0  0  0  0  0  0  0  0  0  0  0  0
    3.1571    2.2593   19.0510 C   0  0  0  0  0  0  0  0  0  0  0  0
    2.7431    2.6158   20.3053 C   0  0  0  0  0  0  0  0  0  0  0  0
    3.4337    2.1279   21.4370 C   0  0  0  0  0  0  0  0  0  0  0  0
    4.5224    1.3021   21.2931 C   0  0  0  0  0  0  0  0  0  0  0  0
    4.9854    0.9273   20.0027 C   0  0  0  0  0  0  0  0  0  0  0  0
    5.0285    0.9138   22.1704 H   0  0  0  0  0  0  0  0  0  0  0  0
    3.0970    2.4117   22.4302 H   0  0  0  0  0  0  0  0  0  0  0  0
    1.8885    3.2747   20.4313 H   0  0  0  0  0  0  0  0  0  0  0  0
    2.6453    2.6218   18.1635 H   0  0  0  0  0  0  0  0  0  0  0  0
    4.2073    1.3989   16.7033 H   0  0  0  0  0  0  0  0  0  0  0  0
    7.2676   -0.8641   18.2382 H   0  0  0  0  0  0  0  0  0  0  0  0
    7.0751    0.2127   21.6992 H   0  0  0  0  0  0  0  0  0  0  0  0
    7.9374   -0.7784   20.5438 H   0  0  0  0  0  0  0  0  0  0  0  0
    8.6596   -1.4241   23.5196 C   0  0  0  0  0  0  0  0  0  0  0  0
    9.9460   -1.1467   23.9811 C   0  0  0  0  0  0  0  0  0  0  0  0
   10.0774   -0.3648   24.7199 H   0  0  0  0  0  0  0  0  0  0  0  0
    7.8102   -0.8821   23.9276 H   0  0  0  0  0  0  0  0  0  0  0  0
    9.3286   -3.8376   21.2817 H   0  0  0  0  0  0  0  0  0  0  0  0
   11.7085   -3.3514   22.1604 H   0  0  0  0  0  0  0  0  0  0  0  0
   12.4446    0.3596   24.2843 H   0  0  0  0  0  0  0  0  0  0  0  0
   13.6519   -0.7645   24.9724 H   0  0  0  0  0  0  0  0  0  0  0  0
   11.9533   -0.7804   25.5746 H   0  0  0  0  0  0  0  0  0  0  0  0
  1  2  1  0
  2  3  1  0
  3  4  2  0
  4  5  1  0
  5  6  2  0
  6  7  1  0
  7  8  1  0
  8  9  1  0
  9 10  2  0
 10 11  1  0
 11 12  2  0
 12 13  1  0
 13 14  1  0
 13 15  2  0
 15 16  1  0
 12 17  1  0
 11 18  1  0
 10 19  1  0
  8 20  1  0
  8 21  1  0
  7 22  1  0
 22 23  2  0
 22 24  1  0
 24 25  1  0
 25 26  2  0
 26 27  1  0
 27 28  2  0
 28 29  1  0
 29 30  2  0
 30 31  1  0
 31 32  2  0
 32 33  1  0
 33 34  2  0
 33 35  1  0
 32 36  1  0
 31 37  1  0
 30 38  1  0
 28 39  1  0
 26 40  1  0
 24 41  1  0
 24 42  1  0
  6 43  1  0
 43 44  2  0
 44 45  1  0
 43 46  1  0
  5 47  1  0
  4 48  1  0
  1 49  1  0
  1 50  1  0
  1 51  1  0
 44  3  1  0
 15  9  1  0
 34 25  1  0
 34 29  1  0
M  END
>  <cnnaffinities>  (2) 
[6.47751, 5.98753, 5.97172, 6.35338, 6.38526]

>  <score>  (2) 
6.47751

>  <index>  (2) 
1

>  <Smiles>  (2) 
C(Oc1c(c(c(N(C(c2c(c(c(c(Cl)c2[H])[H])[H])[H])([H])[H])C(=O)C(c2c(nc(c3c(c(c(c(c23)[H])[H])[H])[H])[H])[H])([H])[H])c(c1[H])[H])[H])[H])([H])([H])[H]

>  <h>  (2) 
<NA>

>  <Training>  (2) 
True

>  <Success>  (2) 
True

>  <enamine_searched>  (2) 
False

>  <enamine_id>  (2) 
nan

$$$$

     RDKit          3D

 56 60  0  0  0  0  0  0  0  0999 V2000
   13.5313    0.0069   23.7783 C   0  0  0  0  0  0  0  0  0  0  0  0
   12.5502   -0.9881   23.3850 N   0  0  0  0  0  0  0  0  0  0  0  0
   12.4959   -1.2678   22.0464 C   0  0  0  0  0  0  0  0  0  0  0  0
   12.9304   -0.4826   21.2237 O   0  0  0  0  0  0  0  0  0  0  0  0
   11.8695   -2.6201   21.7048 C   0  0  0  0  0  0  0  0  0  0  0  0
   10.5359   -2.7600   22.2561 N   0  0  0  0  0  0  0  0  0  0  0  0
    9.3958   -2.5186   21.3960 C   0  0  0  0  0  0  0  0  0  0  0  0
    8.2238   -1.8699   22.1598 C   0  0  2  0  0  0  0  0  0  0  0  0
    7.0650   -1.7401   21.1625 C   0  0  0  0  0  0  0  0  0  0  0  0
    6.4195   -2.6509   20.6867 O   0  0  0  0  0  0  0  0  0  0  0  0
    6.8689   -0.4034   20.8800 N   0  0  0  0  0  0  0  0  0  0  0  0
    6.0825    0.0302   19.7899 C   0  0  0  0  0  0  0  0  0  0  0  0
    6.4166   -0.2902   18.4986 C   0  0  0  0  0  0  0  0  0  0  0  0
    5.7776    0.2075   17.4120 N   0  0  0  0  0  0  0  0  0  0  0  0
    4.7693    1.0199   17.6110 C   0  0  0  0  0  0  0  0  0  0  0  0
    4.2933    1.3916   18.9013 C   0  0  0  0  0  0  0  0  0  0  0  0
    3.1645    2.2303   19.0801 C   0  0  0  0  0  0  0  0  0  0  0  0
    2.7570    2.5814   20.3367 C   0  0  0  0  0  0  0  0  0  0  0  0
    3.4461    2.1013   21.4728 C   0  0  0  0  0  0  0  0  0  0  0  0
    4.5303    1.2713   21.3280 C   0  0  0  0  0  0  0  0  0  0  0  0
    4.9765    0.8993   20.0319 C   0  0  0  0  0  0  0  0  0  0  0  0
    5.0461    0.8798   22.1992 H   0  0  0  0  0  0  0  0  0  0  0  0
    3.1160    2.3902   22.4654 H   0  0  0  0  0  0  0  0  0  0  0  0
    1.9018    3.2371   20.4693 H   0  0  0  0  0  0  0  0  0  0  0  0
    2.6438    2.5854   18.1954 H   0  0  0  0  0  0  0  0  0  0  0  0
    4.2670    1.4245   16.7306 H   0  0  0  0  0  0  0  0  0  0  0  0
    7.2463   -0.9640   18.2922 H   0  0  0  0  0  0  0  0  0  0  0  0
    7.8532    0.4772   21.4810 C   0  0  0  0  0  0  0  0  0  0  0  0
    8.4223   -0.3833   22.6100 C   0  0  2  0  0  0  0  0  0  0  0  0
    9.8165    0.0112   22.9443 N   0  0  0  0  0  4  0  0  0  0  0  0
   10.2076   -0.6888   23.6005 H   0  0  0  0  0  0  0  0  0  0  0  0
   10.3997    0.0362   22.0817 H   0  0  0  0  0  0  0  0  0  0  0  0
    9.8527    0.9381   23.4105 H   0  0  0  0  0  0  0  0  0  0  0  0
    7.8144   -0.2494   23.5058 H   0  0  0  0  0  0  0  0  0  0  0  0
    8.6453    0.7518   20.7633 H   0  0  0  0  0  0  0  0  0  0  0  0
    7.3827    1.4022   21.8355 H   0  0  0  0  0  0  0  0  0  0  0  0
    7.9198   -2.8059   23.3106 C   0  0  0  0  0  0  0  0  0  0  0  0
    6.6204   -2.9359   23.8037 C   0  0  0  0  0  0  0  0  0  0  0  0
    6.3656   -3.8233   24.8350 C   0  0  0  0  0  0  0  0  0  0  0  0
    4.7497   -3.9402   25.4710 Cl  0  0  0  0  0  0  0  0  0  0  0  0
    7.3656   -4.6513   25.3468 C   0  0  0  0  0  0  0  0  0  0  0  0
    8.6664   -4.4853   24.8946 C   0  0  0  0  0  0  0  0  0  0  0  0
    8.9544   -3.5359   23.9145 C   0  0  0  0  0  0  0  0  0  0  0  0
   10.3736   -3.3011   23.4972 C   0  0  0  0  0  0  0  0  0  0  0  0
   11.3293   -3.5086   24.2483 O   0  0  0  0  0  0  0  0  0  0  0  0
    9.4804   -5.0870   25.2899 H   0  0  0  0  0  0  0  0  0  0  0  0
    7.1181   -5.4025   26.0904 H   0  0  0  0  0  0  0  0  0  0  0  0
    5.8078   -2.3829   23.3458 H   0  0  0  0  0  0  0  0  0  0  0  0
    9.6992   -1.8823   20.5647 H   0  0  0  0  0  0  0  0  0  0  0  0
    9.0259   -3.4719   21.0062 H   0  0  0  0  0  0  0  0  0  0  0  0
   12.4989   -3.3931   22.1545 H   0  0  0  0  0  0  0  0  0  0  0  0
   11.8407   -2.7768   20.6235 H   0  0  0  0  0  0  0  0  0  0  0  0
   12.2857   -1.7138   24.0405 H   0  0  0  0  0  0  0  0  0  0  0  0
   13.0997    1.0054   23.7610 H   0  0  0  0  0  0  0  0  0  0  0  0
   14.3606    0.0113   23.0710 H   0  0  0  0  0  0  0  0  0  0  0  0
   13.9091   -0.2170   24.7730 H   0  0  0  0  0  0  0  0  0  0  0  0
  1  2  1  0
  2  3  1  0
  3  4  2  0
  3  5  1  0
  5  6  1  0
  6  7  1  0
  8  7  1  6
  8  9  1  0
  9 10  2  0
  9 11  1  0
 11 12  1  0
 12 13  2  0
 13 14  1  0
 14 15  2  0
 15 16  1  0
 16 17  2  0
 17 18  1  0
 18 19  2  0
 19 20  1  0
 20 21  2  0
 20 22  1  0
 19 23  1  0
 18 24  1  0
 17 25  1  0
 15 26  1  0
 13 27  1  0
 11 28  1  0
 28 29  1  0
 29 30  1  0
 30 31  1  0
 30 32  1  0
 30 33  1  0
 29 34  1  1
 28 35  1  0
 28 36  1  0
  8 37  1  0
 37 38  2  0
 38 39  1  0
 39 40  1  0
 39 41  2  0
 41 42  1  0
 42 43  2  0
 43 44  1  0
 44 45  2  0
 42 46  1  0
 41 47  1  0
 38 48  1  0
  7 49  1  0
  7 50  1  0
  5 51  1  0
  5 52  1  0
  2 53  1  0
  1 54  1  0
  1 55  1  0
  1 56  1  0
 44  6  1  0
 29  8  1  0
 43 37  1  0
 21 12  1  0
 21 16  1  0
M  CHG  1  30   1
M  END
>  <cnnaffinities>  (3) 
[6.69603]

>  <score>  (3) 
6.69603

>  <index>  (3) 
2

>  <Smiles>  (3) 
C(N(C(=O)C(N1C([C@@]2(C(=O)N(c3c(nc(c4c(c(c(c(c34)[H])[H])[H])[H])[H])[H])C([C@@]2([N+]([H])([H])[H])[H])([H])[H])c2c(c(Cl)c(c(c2C1=O)[H])[H])[H])([H])[H])([H])[H])[H])([H])([H])[H]

>  <h>  (3) 
<NA>

>  <Training>  (3) 
True

>  <Success>  (3) 
True

>  <enamine_searched>  (3) 
False

>  <enamine_id>  (3) 
nan

$$$$

     RDKit          3D

 67 73  0  0  0  0  0  0  0  0999 V2000
   11.2623    2.8039   23.4030 O   0  0  0  0  0  0  0  0  0  0  0  0
   10.6678    1.7438   23.2467 C   0  0  0  0  0  0  0  0  0  0  0  0
   11.1664    0.6751   22.3216 C   0  0  0  0  0  0  0  0  0  0  0  0
   12.5077    0.7386   21.9218 C   0  0  0  0  0  0  0  0  0  0  0  0
   13.0891   -0.3169   21.2341 C   0  0  0  0  0  0  0  0  0  0  0  0
   12.2838   -1.4144   20.9210 C   0  0  0  0  0  0  0  0  0  0  0  0
   12.9100   -2.7617   20.0177 Cl  0  0  0  0  0  0  0  0  0  0  0  0
   10.9483   -1.4720   21.2815 C   0  0  0  0  0  0  0  0  0  0  0  0
   10.3483   -0.4140   21.9787 C   0  0  0  0  0  0  0  0  0  0  0  0
    8.8761   -0.4285   22.4222 C   0  0  1  0  0  0  0  0  0  0  0  0
    8.8896    0.1454   23.8692 C   0  0  0  0  0  0  0  0  0  0  0  0
    9.5311    1.4463   23.9443 N   0  0  0  0  0  0  0  0  0  0  0  0
    8.9264    2.5009   24.7453 C   0  0  0  0  0  0  0  0  0  0  0  0
    7.8303    3.2481   24.0385 C   0  0  0  0  0  0  0  0  0  0  0  0
    8.1097    4.3121   23.2147 C   0  0  0  0  0  0  0  0  0  0  0  0
    7.0270    4.9820   22.6489 C   0  0  0  0  0  0  0  0  0  0  0  0
    5.7625    4.6359   22.8588 N   0  0  0  0  0  0  0  0  0  0  0  0
    5.4984    3.5733   23.6038 N   0  0  0  0  0  0  0  0  0  0  0  0
    6.4909    2.8980   24.1749 C   0  0  0  0  0  0  0  0  0  0  0  0
    6.2014    2.0399   24.7806 H   0  0  0  0  0  0  0  0  0  0  0  0
    7.1742    5.8488   22.0127 H   0  0  0  0  0  0  0  0  0  0  0  0
    9.1347    4.6162   23.0142 H   0  0  0  0  0  0  0  0  0  0  0  0
    8.5240    2.0972   25.6778 H   0  0  0  0  0  0  0  0  0  0  0  0
    9.7209    3.2066   24.9991 H   0  0  0  0  0  0  0  0  0  0  0  0
    9.4459   -0.5592   24.5003 H   0  0  0  0  0  0  0  0  0  0  0  0
    7.8793    0.2404   24.2674 H   0  0  0  0  0  0  0  0  0  0  0  0
    7.9984    0.4606   21.4923 C   0  0  0  0  0  0  0  0  0  0  0  0
    8.1862    1.6209   21.2221 O   0  0  0  0  0  0  0  0  0  0  0  0
    6.9386   -0.3085   20.9957 N   0  0  0  0  0  0  0  0  0  0  0  0
    6.1667    0.1427   19.8796 C   0  0  0  0  0  0  0  0  0  0  0  0
    6.4768   -0.2192   18.5879 C   0  0  0  0  0  0  0  0  0  0  0  0
    5.8062    0.2009   17.4879 N   0  0  0  0  0  0  0  0  0  0  0  0
    4.7735    0.9872   17.6625 C   0  0  0  0  0  0  0  0  0  0  0  0
    4.3031    1.3935   18.9417 C   0  0  0  0  0  0  0  0  0  0  0  0
    3.1537    2.2151   19.0901 C   0  0  0  0  0  0  0  0  0  0  0  0
    2.7214    2.5882   20.3307 C   0  0  0  0  0  0  0  0  0  0  0  0
    3.4174    2.1530   21.4818 C   0  0  0  0  0  0  0  0  0  0  0  0
    4.5306    1.3564   21.3641 C   0  0  0  0  0  0  0  0  0  0  0  0
    5.0097    0.9615   20.0899 C   0  0  0  0  0  0  0  0  0  0  0  0
    5.0741    1.0512   22.2549 H   0  0  0  0  0  0  0  0  0  0  0  0
    3.1058    2.4820   22.4672 H   0  0  0  0  0  0  0  0  0  0  0  0
    1.8535    3.2343   20.4364 H   0  0  0  0  0  0  0  0  0  0  0  0
    2.6403    2.5494   18.1912 H   0  0  0  0  0  0  0  0  0  0  0  0
    4.2504    1.3333   16.7702 H   0  0  0  0  0  0  0  0  0  0  0  0
    7.3260   -0.8692   18.3760 H   0  0  0  0  0  0  0  0  0  0  0  0
    7.2387   -1.7247   21.1079 C   0  0  0  0  0  0  0  0  0  0  0  0
    8.1991   -1.8270   22.2993 C   0  0  2  0  0  0  0  0  0  0  0  0
    7.5000   -2.4144   23.5293 C   0  0  0  0  0  0  0  0  0  0  0  0
    6.2854   -1.7130   23.8792 N   0  0  0  0  0  0  0  0  0  0  0  0
    5.5958   -2.0102   25.0092 C   0  0  0  0  0  0  0  0  0  0  0  0
    4.4895   -1.2376   25.4167 C   0  0  0  0  0  0  0  0  0  0  0  0
    3.8549   -1.6434   26.5669 C   0  0  0  0  0  0  0  0  0  0  0  0
    4.2314   -2.7067   27.2929 N   0  0  0  0  0  0  0  0  0  0  0  0
    5.2895   -3.3493   26.8199 C   0  0  0  0  0  0  0  0  0  0  0  0
    5.9982   -3.0696   25.7261 N   0  0  0  0  0  0  0  0  0  0  0  0
    5.6212   -4.2151   27.3947 H   0  0  0  0  0  0  0  0  0  0  0  0
    2.9897   -1.0983   26.9403 H   0  0  0  0  0  0  0  0  0  0  0  0
    4.1638   -0.3664   24.8537 H   0  0  0  0  0  0  0  0  0  0  0  0
    5.9582   -0.9764   23.2711 H   0  0  0  0  0  0  0  0  0  0  0  0
    7.2566   -3.4698   23.3480 H   0  0  0  0  0  0  0  0  0  0  0  0
    8.1718   -2.4169   24.3951 H   0  0  0  0  0  0  0  0  0  0  0  0
    8.9667   -2.5668   22.0859 H   0  0  0  0  0  0  0  0  0  0  0  0
    7.7183   -2.0886   20.1935 H   0  0  0  0  0  0  0  0  0  0  0  0
    6.3183   -2.2989   21.2550 H   0  0  0  0  0  0  0  0  0  0  0  0
   10.4055   -2.3558   20.9697 H   0  0  0  0  0  0  0  0  0  0  0  0
   14.1321   -0.3036   20.9226 H   0  0  0  0  0  0  0  0  0  0  0  0
   13.0867    1.6300   22.1558 H   0  0  0  0  0  0  0  0  0  0  0  0
  1  2  2  0
  2  3  1  0
  3  4  2  0
  4  5  1  0
  5  6  2  0
  6  7  1  0
  6  8  1  0
  8  9  2  0
  9 10  1  0
 10 11  1  1
 11 12  1  0
 12 13  1  0
 13 14  1  0
 14 15  2  0
 15 16  1  0
 16 17  2  0
 17 18  1  0
 18 19  2  0
 19 20  1  0
 16 21  1  0
 15 22  1  0
 13 23  1  0
 13 24  1  0
 11 25  1  0
 11 26  1  0
 10 27  1  0
 27 28  2  0
 27 29  1  0
 29 30  1  0
 30 31  2  0
 31 32  1  0
 32 33  2  0
 33 34  1  0
 34 35  2  0
 35 36  1  0
 36 37  2  0
 37 38  1  0
 38 39  2  0
 38 40  1  0
 37 41  1  0
 36 42  1  0
 35 43  1  0
 33 44  1  0
 31 45  1  0
 29 46  1  0
 46 47  1  0
 47 48  1  0
 48 49  1  0
 49 50  1  0
 50 51  2  0
 51 52  1  0
 52 53  2  0
 53 54  1  0
 54 55  2  0
 54 56  1  0
 52 57  1  0
 51 58  1  0
 49 59  1  0
 48 60  1  0
 48 61  1  0
 47 62  1  6
 46 63  1  0
 46 64  1  0
  8 65  1  0
  5 66  1  0
  4 67  1  0
 12  2  1  0
 19 14  1  0
 39 30  1  0
 55 50  1  0
  9  3  1  0
 47 10  1  0
 39 34  1  0
M  END
>  <cnnaffinities>  (4) 
[6.92936, 7.01449, 6.53847]

>  <score>  (4) 
6.92936

>  <index>  (4) 
3

>  <Smiles>  (4) 
O=C1c2c(c(c(Cl)c(c2[C@@]2(C(N1C(c1c(c(nnc1[H])[H])[H])([H])[H])([H])[H])C(=O)N(c1c(nc(c3c(c(c(c(c13)[H])[H])[H])[H])[H])[H])C([C@@]2(C(N(c1c(c(nc(n1)[H])[H])[H])[H])([H])[H])[H])([H])[H])[H])[H])[H]

>  <h>  (4) 
<NA>

>  <Training>  (4) 
True

>  <Success>  (4) 
True

>  <enamine_searched>  (4) 
False

>  <enamine_id>  (4) 
nan

$$$$

     RDKit          3D

 41 44  0  0  0  0  0  0  0  0999 V2000
    9.0899    2.1683   23.9924 C   0  0  0  0  0  0  0  0  0  0  0  0
    9.7450    1.2203   22.9816 C   0  0  1  0  0  0  0  0  0  0  0  0
   10.9861    0.6212   23.5559 C   0  0  0  0  0  0  0  0  0  0  0  0
   12.2966    1.2039   23.6227 C   0  0  0  0  0  0  0  0  0  0  0  0
   13.1861    0.3687   24.2228 C   0  0  0  0  0  0  0  0  0  0  0  0
   12.4343   -1.0782   24.7671 S   0  0  0  0  0  0  0  0  0  0  0  0
   10.9130   -0.5888   24.1526 C   0  0  0  0  0  0  0  0  0  0  0  0
    9.6438   -1.3586   24.2867 C   0  0  0  0  0  0  0  0  0  0  0  0
    8.8118   -1.1897   23.0185 C   0  0  0  0  0  0  0  0  0  0  0  0
    8.8008    0.1850   22.5061 N   0  0  0  0  0  0  0  0  0  0  0  0
    7.9553    0.5856   21.5049 C   0  0  0  0  0  0  0  0  0  0  0  0
    7.9864    1.7300   21.0742 O   0  0  0  0  0  0  0  0  0  0  0  0
    6.9637   -0.4513   20.9173 C   0  0  0  0  0  0  0  0  0  0  0  0
    6.1278    0.0934   19.7837 C   0  0  0  0  0  0  0  0  0  0  0  0
    6.4337   -0.2073   18.4834 C   0  0  0  0  0  0  0  0  0  0  0  0
    5.7655    0.2438   17.3912 N   0  0  0  0  0  0  0  0  0  0  0  0
    4.7414    1.0301   17.5919 C   0  0  0  0  0  0  0  0  0  0  0  0
    4.2907    1.4186   18.8808 C   0  0  0  0  0  0  0  0  0  0  0  0
    3.1668    2.2636   19.0565 C   0  0  0  0  0  0  0  0  0  0  0  0
    2.7650    2.6398   20.3054 C   0  0  0  0  0  0  0  0  0  0  0  0
    3.4717    2.1716   21.4399 C   0  0  0  0  0  0  0  0  0  0  0  0
    4.5599    1.3477   21.2957 C   0  0  0  0  0  0  0  0  0  0  0  0
    5.0026    0.9464   20.0084 C   0  0  0  0  0  0  0  0  0  0  0  0
    5.1002    0.9944   22.1697 H   0  0  0  0  0  0  0  0  0  0  0  0
    3.1468    2.4725   22.4303 H   0  0  0  0  0  0  0  0  0  0  0  0
    1.9164    3.3062   20.4310 H   0  0  0  0  0  0  0  0  0  0  0  0
    2.6496    2.6138   18.1664 H   0  0  0  0  0  0  0  0  0  0  0  0
    4.2139    1.3901   16.7070 H   0  0  0  0  0  0  0  0  0  0  0  0
    7.2746   -0.8576   18.2407 H   0  0  0  0  0  0  0  0  0  0  0  0
    6.3181   -0.8452   21.7162 H   0  0  0  0  0  0  0  0  0  0  0  0
    7.5431   -1.3104   20.5509 H   0  0  0  0  0  0  0  0  0  0  0  0
    9.1976   -1.8721   22.2458 H   0  0  0  0  0  0  0  0  0  0  0  0
    7.7829   -1.4818   23.2405 H   0  0  0  0  0  0  0  0  0  0  0  0
    9.8394   -2.4194   24.4503 H   0  0  0  0  0  0  0  0  0  0  0  0
    9.0994   -0.9900   25.1697 H   0  0  0  0  0  0  0  0  0  0  0  0
   14.2604    0.4152   24.2829 H   0  0  0  0  0  0  0  0  0  0  0  0
   12.5604    2.1790   23.2243 H   0  0  0  0  0  0  0  0  0  0  0  0
   10.0076    1.7925   22.0855 H   0  0  0  0  0  0  0  0  0  0  0  0
    8.7867    1.6021   24.8815 H   0  0  0  0  0  0  0  0  0  0  0  0
    9.8360    2.9079   24.2997 H   0  0  0  0  0  0  0  0  0  0  0  0
    8.2280    2.6816   23.5568 H   0  0  0  0  0  0  0  0  0  0  0  0
  1  2  1  0
  2  3  1  0
  3  4  1  0
  4  5  2  0
  5  6  1  0
  6  7  1  0
  7  8  1  0
  8  9  1  0
  9 10  1  0
 10 11  1  0
 11 12  2  0
 11 13  1  0
 13 14  1  0
 14 15  2  0
 15 16  1  0
 16 17  2  0
 17 18  1  0
 18 19  2  0
 19 20  1  0
 20 21  2  0
 21 22  1  0
 22 23  2  0
 22 24  1  0
 21 25  1  0
 20 26  1  0
 19 27  1  0
 17 28  1  0
 15 29  1  0
 13 30  1  0
 13 31  1  0
  9 32  1  0
  9 33  1  0
  8 34  1  0
  8 35  1  0
  5 36  1  0
  4 37  1  0
  2 38  1  6
  1 39  1  0
  1 40  1  0
  1 41  1  0
 10  2  1  0
 23 14  1  0
  7  3  2  0
 23 18  1  0
M  END
>  <cnnaffinities>  (5) 
[5.85215]

>  <score>  (5) 
5.85215

>  <index>  (5) 
4

>  <Smiles>  (5) 
C([C@]1(c2c(c(sc2C(C(N1C(=O)C(c1c(nc(c2c(c(c(c(c12)[H])[H])[H])[H])[H])[H])([H])[H])([H])[H])([H])[H])[H])[H])[H])([H])([H])[H]

>  <h>  (5) 
<NA>

>  <Training>  (5) 
True

>  <Success>  (5) 
True

>  <enamine_searched>  (5) 
False

>  <enamine_id>  (5) 
nan

$$$$

     RDKit          3D

 50 54  0  0  0  0  0  0  0  0999 V2000
    7.0136   -2.4225   23.5145 C   0  0  0  0  0  0  0  0  0  0  0  0
    7.9151   -1.8310   22.4356 C   0  0  1  0  0  0  0  0  0  0  0  0
    7.2292   -1.7123   21.0659 C   0  0  0  0  0  0  0  0  0  0  0  0
    6.9250   -0.3073   20.9219 N   0  0  0  0  0  0  0  0  0  0  0  0
    6.1470    0.1554   19.8389 C   0  0  0  0  0  0  0  0  0  0  0  0
    6.4493   -0.2194   18.5528 C   0  0  0  0  0  0  0  0  0  0  0  0
    5.7864    0.2065   17.4531 N   0  0  0  0  0  0  0  0  0  0  0  0
    4.7633    1.0052   17.6326 C   0  0  0  0  0  0  0  0  0  0  0  0
    4.2939    1.4048   18.9163 C   0  0  0  0  0  0  0  0  0  0  0  0
    3.1529    2.2346   19.0654 C   0  0  0  0  0  0  0  0  0  0  0  0
    2.7169    2.5927   20.3111 C   0  0  0  0  0  0  0  0  0  0  0  0
    3.3764    2.1148   21.4642 C   0  0  0  0  0  0  0  0  0  0  0  0
    4.4745    1.3004   21.3465 C   0  0  0  0  0  0  0  0  0  0  0  0
    4.9833    0.9558   20.0633 C   0  0  0  0  0  0  0  0  0  0  0  0
    4.9658    0.9155   22.2336 H   0  0  0  0  0  0  0  0  0  0  0  0
    3.0125    2.3964   22.4475 H   0  0  0  0  0  0  0  0  0  0  0  0
    1.8592    3.2485   20.4201 H   0  0  0  0  0  0  0  0  0  0  0  0
    2.6459    2.5800   18.1679 H   0  0  0  0  0  0  0  0  0  0  0  0
    4.2404    1.3678   16.7457 H   0  0  0  0  0  0  0  0  0  0  0  0
    7.2916   -0.8820   18.3619 H   0  0  0  0  0  0  0  0  0  0  0  0
    7.6893    0.4999   21.7399 C   0  0  0  0  0  0  0  0  0  0  0  0
    7.7135    1.7141   21.6923 O   0  0  0  0  0  0  0  0  0  0  0  0
    8.4835   -0.4118   22.7123 C   0  0  1  0  0  0  0  0  0  0  0  0
    8.2938    0.0863   24.1682 C   0  0  0  0  0  0  0  0  0  0  0  0
    8.8658    1.4135   24.3365 N   0  0  0  0  0  0  0  0  0  0  0  0
    7.9978    2.5269   24.6360 C   0  0  0  0  0  0  0  0  0  0  0  0
    8.1627    3.0514   25.9987 C   0  0  0  0  0  0  0  0  0  0  0  0
    8.2161    3.4763   27.0736 N   0  0  0  0  0  0  0  0  0  0  0  0
    8.2018    3.3264   23.9183 H   0  0  0  0  0  0  0  0  0  0  0  0
    6.9516    2.2259   24.5219 H   0  0  0  0  0  0  0  0  0  0  0  0
   10.0998    1.7501   23.8265 C   0  0  0  0  0  0  0  0  0  0  0  0
   10.5989    2.8447   24.0490 O   0  0  0  0  0  0  0  0  0  0  0  0
   10.7490    0.7153   22.9717 C   0  0  0  0  0  0  0  0  0  0  0  0
   12.1187    0.8306   22.7259 C   0  0  0  0  0  0  0  0  0  0  0  0
   12.7742   -0.1176   21.9673 C   0  0  0  0  0  0  0  0  0  0  0  0
   12.0045   -1.1483   21.4405 C   0  0  0  0  0  0  0  0  0  0  0  0
   12.6065   -2.0897   20.7030 F   0  0  0  0  0  0  0  0  0  0  0  0
   10.6417   -1.2523   21.6179 C   0  0  0  0  0  0  0  0  0  0  0  0
    9.9854   -0.3314   22.4366 C   0  0  0  0  0  0  0  0  0  0  0  0
   10.1249   -2.0345   21.0752 H   0  0  0  0  0  0  0  0  0  0  0  0
   13.8353   -0.0601   21.7469 H   0  0  0  0  0  0  0  0  0  0  0  0
   12.6421    1.6737   23.1618 H   0  0  0  0  0  0  0  0  0  0  0  0
    8.7649   -0.6259   24.8618 H   0  0  0  0  0  0  0  0  0  0  0  0
    7.2355    0.1349   24.4415 H   0  0  0  0  0  0  0  0  0  0  0  0
    6.3078   -2.2951   20.9964 H   0  0  0  0  0  0  0  0  0  0  0  0
    7.8997   -2.0333   20.2610 H   0  0  0  0  0  0  0  0  0  0  0  0
    8.7512   -2.5279   22.3697 H   0  0  0  0  0  0  0  0  0  0  0  0
    6.1160   -1.8230   23.6909 H   0  0  0  0  0  0  0  0  0  0  0  0
    6.7113   -3.4291   23.2141 H   0  0  0  0  0  0  0  0  0  0  0  0
    7.5605   -2.5175   24.4571 H   0  0  0  0  0  0  0  0  0  0  0  0
  1  2  1  0
  2  3  1  0
  3  4  1  0
  4  5  1  0
  5  6  2  0
  6  7  1  0
  7  8  2  0
  8  9  1  0
  9 10  2  0
 10 11  1  0
 11 12  2  0
 12 13  1  0
 13 14  2  0
 13 15  1  0
 12 16  1  0
 11 17  1  0
 10 18  1  0
  8 19  1  0
  6 20  1  0
  4 21  1  0
 21 22  2  0
 21 23  1  0
 23 24  1  1
 24 25  1  0
 25 26  1  0
 26 27  1  0
 27 28  3  0
 26 29  1  0
 26 30  1  0
 25 31  1  0
 31 32  2  0
 31 33  1  0
 33 34  2  0
 34 35  1  0
 35 36  2  0
 36 37  1  0
 36 38  1  0
 38 39  2  0
 38 40  1  0
 35 41  1  0
 34 42  1  0
 24 43  1  0
 24 44  1  0
  3 45  1  0
  3 46  1  0
  2 47  1  6
  1 48  1  0
  1 49  1  0
  1 50  1  0
 23  2  1  0
 39 33  1  0
 14  5  1  0
 39 23  1  0
 14  9  1  0
M  END
>  <cnnaffinities>  (6) 
[5.73386, 5.9432, 5.99385, 5.92947]

>  <score>  (6) 
5.73386

>  <index>  (6) 
5

>  <Smiles>  (6) 
C([C@]1(C(N(c2c(nc(c3c(c(c(c(c23)[H])[H])[H])[H])[H])[H])C(=O)[C@]21C(N(C(C#N)([H])[H])C(=O)c1c(c(c(F)c(c21)[H])[H])[H])([H])[H])([H])[H])[H])([H])([H])[H]

>  <h>  (6) 
<NA>

>  <Training>  (6) 
True

>  <Success>  (6) 
True

>  <enamine_searched>  (6) 
False

>  <enamine_id>  (6) 
nan

$$$$

     RDKit          3D

 65 69  0  0  0  0  0  0  0  0999 V2000
    8.0407   -8.0602   23.1407 C   0  0  0  0  0  0  0  0  0  0  0  0
    7.6364   -7.0225   24.2178 C   0  0  0  0  0  0  0  0  0  0  0  0
    7.4388   -5.6307   23.7234 C   0  0  0  0  0  0  0  0  0  0  0  0
    6.7560   -5.2318   22.8553 O   0  0  0  0  0  0  0  0  0  0  0  0
    9.2007   -3.6505   24.8958 N   0  0  1  0  0  4  0  0  0  0  0  0
   10.4572   -3.6134   24.1701 C   0  0  0  0  0  0  0  0  0  0  0  0
   10.2300   -3.2199   22.7251 C   0  0  0  0  0  0  0  0  0  0  0  0
    9.6585   -1.8144   22.6393 C   0  0  0  0  0  0  0  0  0  0  0  0
    8.5939   -1.5861   23.6972 C   0  0  0  0  0  0  0  0  0  0  0  0
    7.8269   -0.4150   23.7210 C   0  0  0  0  0  0  0  0  0  0  0  0
    8.1413    0.6894   22.8626 N   0  0  0  0  0  0  0  0  0  0  0  0
    8.8731    1.8139   23.4722 C   0  0  0  0  0  0  0  0  0  0  0  0
   10.3773    1.6223   23.4653 C   0  0  0  0  0  0  0  0  0  0  0  0
   11.1687    2.3649   22.5952 C   0  0  0  0  0  0  0  0  0  0  0  0
   12.5246    2.0796   22.4730 C   0  0  0  0  0  0  0  0  0  0  0  0
   13.1025    1.0373   23.1728 C   0  0  0  0  0  0  0  0  0  0  0  0
   12.3242    0.3567   24.0947 C   0  0  0  0  0  0  0  0  0  0  0  0
   13.0385   -0.9603   24.9650 Cl  0  0  0  0  0  0  0  0  0  0  0  0
   10.9893    0.6806   24.2951 C   0  0  0  0  0  0  0  0  0  0  0  0
   10.4206    0.1474   25.0505 H   0  0  0  0  0  0  0  0  0  0  0  0
   14.1364    0.7594   23.0036 H   0  0  0  0  0  0  0  0  0  0  0  0
   13.1677    2.6623   21.8369 H   0  0  0  0  0  0  0  0  0  0  0  0
   10.7026    3.1538   22.0064 H   0  0  0  0  0  0  0  0  0  0  0  0
    8.5225    1.9042   24.5083 H   0  0  0  0  0  0  0  0  0  0  0  0
    8.6113    2.7288   22.9307 H   0  0  0  0  0  0  0  0  0  0  0  0
    7.9224    0.7006   21.4951 C   0  0  0  0  0  0  0  0  0  0  0  0
    8.4299    1.5430   20.7726 O   0  0  0  0  0  0  0  0  0  0  0  0
    6.9955   -0.3811   20.9021 C   0  0  0  0  0  0  0  0  0  0  0  0
    6.1431    0.1213   19.7694 C   0  0  0  0  0  0  0  0  0  0  0  0
    6.4547   -0.1826   18.4721 C   0  0  0  0  0  0  0  0  0  0  0  0
    5.7689    0.2416   17.3800 N   0  0  0  0  0  0  0  0  0  0  0  0
    4.7259    1.0044   17.5885 C   0  0  0  0  0  0  0  0  0  0  0  0
    4.2724    1.3892   18.8801 C   0  0  0  0  0  0  0  0  0  0  0  0
    3.1336    2.2130   19.0647 C   0  0  0  0  0  0  0  0  0  0  0  0
    2.7382    2.5814   20.3211 C   0  0  0  0  0  0  0  0  0  0  0  0
    3.4631    2.1372   21.4506 C   0  0  0  0  0  0  0  0  0  0  0  0
    4.5666    1.3359   21.2993 C   0  0  0  0  0  0  0  0  0  0  0  0
    5.0009    0.9404   20.0063 C   0  0  0  0  0  0  0  0  0  0  0  0
    5.1187    1.0031   22.1757 H   0  0  0  0  0  0  0  0  0  0  0  0
    3.1418    2.4363   22.4442 H   0  0  0  0  0  0  0  0  0  0  0  0
    1.8737    3.2250   20.4587 H   0  0  0  0  0  0  0  0  0  0  0  0
    2.5946    2.5521   18.1833 H   0  0  0  0  0  0  0  0  0  0  0  0
    4.1788    1.3519   16.7100 H   0  0  0  0  0  0  0  0  0  0  0  0
    7.3161   -0.8133   18.2526 H   0  0  0  0  0  0  0  0  0  0  0  0
    7.6386   -1.1805   20.5126 H   0  0  0  0  0  0  0  0  0  0  0  0
    6.3841   -0.8209   21.6958 H   0  0  0  0  0  0  0  0  0  0  0  0
    6.7834   -0.2697   24.6292 C   0  0  0  0  0  0  0  0  0  0  0  0
    6.4437   -1.3163   25.4831 C   0  0  0  0  0  0  0  0  0  0  0  0
    7.2126   -2.4681   25.4948 C   0  0  0  0  0  0  0  0  0  0  0  0
    8.3434   -2.5572   24.6829 C   0  0  0  0  0  0  0  0  0  0  0  0
    6.9856   -3.3177   26.1335 H   0  0  0  0  0  0  0  0  0  0  0  0
    5.6151   -1.2161   26.1738 H   0  0  0  0  0  0  0  0  0  0  0  0
    6.2492    0.6744   24.6558 H   0  0  0  0  0  0  0  0  0  0  0  0
   10.4465   -1.0636   22.7458 H   0  0  0  0  0  0  0  0  0  0  0  0
    9.2537   -1.6582   21.6330 H   0  0  0  0  0  0  0  0  0  0  0  0
   11.1742   -3.2611   22.1743 H   0  0  0  0  0  0  0  0  0  0  0  0
    9.4902   -3.8995   22.2899 H   0  0  0  0  0  0  0  0  0  0  0  0
   10.9190   -4.5980   24.2500 H   0  0  0  0  0  0  0  0  0  0  0  0
   11.1345   -2.8871   24.6347 H   0  0  0  0  0  0  0  0  0  0  0  0
    8.6768   -4.5164   24.7275 H   0  0  0  0  0  0  0  0  0  0  0  0
    6.6814   -7.2757   24.6880 H   0  0  0  0  0  0  0  0  0  0  0  0
    8.4087   -6.9266   24.9848 H   0  0  0  0  0  0  0  0  0  0  0  0
    7.7013   -9.0653   23.3903 H   0  0  0  0  0  0  0  0  0  0  0  0
    9.1328   -8.1054   23.0718 H   0  0  0  0  0  0  0  0  0  0  0  0
    7.6372   -7.8132   22.1523 H   0  0  0  0  0  0  0  0  0  0  0  0
  1  2  1  0
  2  3  1  0
  3  4  2  0
  3  5  1  0
  5  6  1  0
  6  7  1  0
  7  8  1  0
  8  9  1  0
  9 10  2  0
 10 11  1  0
 11 12  1  0
 12 13  1  0
 13 14  2  0
 14 15  1  0
 15 16  2  0
 16 17  1  0
 17 18  1  0
 17 19  2  0
 19 20  1  0
 16 21  1  0
 15 22  1  0
 14 23  1  0
 12 24  1  0
 12 25  1  0
 11 26  1  0
 26 27  2  0
 26 28  1  0
 28 29  1  0
 29 30  2  0
 30 31  1  0
 31 32  2  0
 32 33  1  0
 33 34  2  0
 34 35  1  0
 35 36  2  0
 36 37  1  0
 37 38  2  0
 37 39  1  0
 36 40  1  0
 35 41  1  0
 34 42  1  0
 32 43  1  0
 30 44  1  0
 28 45  1  0
 28 46  1  0
 10 47  1  0
 47 48  2  0
 48 49  1  0
 49 50  2  0
 49 51  1  0
 48 52  1  0
 47 53  1  0
  8 54  1  0
  8 55  1  0
  7 56  1  0
  7 57  1  0
  6 58  1  0
  6 59  1  0
  5 60  1  1
  2 61  1  0
  2 62  1  0
  1 63  1  0
  1 64  1  0
  1 65  1  0
 50  5  1  0
 50  9  1  0
 19 13  1  0
 38 29  1  0
 38 33  1  0
M  CHG  1   5   1
M  END
>  <cnnaffinities>  (7) 
[7.07284, 6.84138]

>  <score>  (7) 
7.07284

>  <index>  (7) 
6

>  <Smiles>  (7) 
C(C(C(=O)[N@+]1(C(C(C(c2c(N(C(c3c(c(c(c(Cl)c3[H])[H])[H])[H])([H])[H])C(=O)C(c3c(nc(c4c(c(c(c(c34)[H])[H])[H])[H])[H])[H])([H])[H])c(c(c(c12)[H])[H])[H])([H])[H])([H])[H])([H])[H])[H])([H])[H])([H])([H])[H]

>  <h>  (7) 
<NA>

>  <Training>  (7) 
True

>  <Success>  (7) 
True

>  <enamine_searched>  (7) 
False

>  <enamine_id>  (7) 
nan

$$$$

     RDKit          3D

 37 39  0  0  0  0  0  0  0  0999 V2000
    5.0740   -2.2323   20.7841 O   0  0  0  0  0  0  0  0  0  0  0  0
    5.8474   -1.6427   21.5182 C   0  0  0  0  0  0  0  0  0  0  0  0
    6.7742   -0.5443   21.0000 C   0  0  0  0  0  0  0  0  0  0  0  0
    6.1079    0.1143   19.8384 C   0  0  0  0  0  0  0  0  0  0  0  0
    6.4808   -0.1786   18.5552 C   0  0  0  0  0  0  0  0  0  0  0  0
    5.8499    0.2667   17.4415 N   0  0  0  0  0  0  0  0  0  0  0  0
    4.7950    1.0255   17.6149 C   0  0  0  0  0  0  0  0  0  0  0  0
    4.2880    1.3982   18.8897 C   0  0  0  0  0  0  0  0  0  0  0  0
    3.1298    2.2020   19.0355 C   0  0  0  0  0  0  0  0  0  0  0  0
    2.6889    2.5795   20.2752 C   0  0  0  0  0  0  0  0  0  0  0  0
    3.3822    2.1513   21.4298 C   0  0  0  0  0  0  0  0  0  0  0  0
    4.4908    1.3493   21.3151 C   0  0  0  0  0  0  0  0  0  0  0  0
    4.9734    0.9482   20.0393 C   0  0  0  0  0  0  0  0  0  0  0  0
    5.0018    1.0215   22.2120 H   0  0  0  0  0  0  0  0  0  0  0  0
    3.0375    2.4614   22.4128 H   0  0  0  0  0  0  0  0  0  0  0  0
    1.8142    3.2158   20.3792 H   0  0  0  0  0  0  0  0  0  0  0  0
    2.6162    2.5289   18.1348 H   0  0  0  0  0  0  0  0  0  0  0  0
    4.2855    1.3870   16.7192 H   0  0  0  0  0  0  0  0  0  0  0  0
    7.3385   -0.8278   18.3745 H   0  0  0  0  0  0  0  0  0  0  0  0
    7.7115   -1.0204   20.6807 H   0  0  0  0  0  0  0  0  0  0  0  0
    7.0241    0.1743   21.7848 H   0  0  0  0  0  0  0  0  0  0  0  0
    5.9306   -2.0218   22.8724 N   0  0  0  0  0  0  0  0  0  0  0  0
    5.1715   -3.0446   23.1658 C   0  0  0  0  0  0  0  0  0  0  0  0
    4.4209   -1.7605   25.2377 C   0  0  0  0  0  0  0  0  0  0  0  0
    4.3898   -1.6627   25.4908 C   0  0  0  0  0  0  0  0  0  0  0  0
    5.9720    0.0243   24.3565 C   0  0  0  0  0  0  0  0  0  0  0  0
    6.6433   -1.2907   23.9722 C   0  0  0  0  0  0  0  0  0  0  0  0
    6.6838   -1.9801   24.8121 H   0  0  0  0  0  0  0  0  0  0  0  0
    7.6624   -1.1090   23.6405 H   0  0  0  0  0  0  0  0  0  0  0  0
    6.4155    0.8501   23.7845 H   0  0  0  0  0  0  0  0  0  0  0  0
    6.1674    0.2887   25.3988 H   0  0  0  0  0  0  0  0  0  0  0  0
    4.5190   -2.7927   25.9631 H   0  0  0  0  0  0  0  0  0  0  0  0
    4.4301   -1.0500   26.4494 H   0  0  0  0  0  0  0  0  0  0  0  0
    3.1542   -1.6093   25.2306 H   0  0  0  0  0  0  0  0  0  0  0  0
    4.9152    0.0296   24.1361 H   0  0  0  0  0  0  0  0  0  0  0  0
    4.1261   -2.9948   22.9035 H   0  0  0  0  0  0  0  0  0  0  0  0
    5.4134   -3.6728   23.9982 H   0  0  0  0  0  0  0  0  0  0  0  0
  1  2  2  0
  2  3  1  0
  3  4  1  0
  4  5  2  0
  5  6  1  0
  6  7  2  0
  7  8  1  0
  8  9  2  0
  9 10  1  0
 10 11  2  0
 11 12  1  0
 12 13  2  0
 12 14  1  0
 11 15  1  0
 10 16  1  0
  9 17  1  0
  7 18  1  0
  5 19  1  0
  3 20  1  0
  3 21  1  0
  2 22  1  0
 22 23  1  0
 23 24  1  0
 24 25  1  0
 25 26  1  0
 26 27  1  0
 27 28  1  0
 27 29  1  0
 26 30  1  0
 26 31  1  0
 25 32  1  0
 25 33  1  0
 24 34  1  0
 24 35  1  0
 23 36  1  0
 23 37  1  0
 13  4  1  0
 27 22  1  0
 13  8  1  0
M  END
>  <cnnaffinities>  (8) 
[4.78551]

>  <score>  (8) 
4.78551

>  <index>  (8) 
7

>  <Smiles>  (8) 
O=C(C(c1c(nc(c2c(c(c(c(c12)[H])[H])[H])[H])[H])[H])([H])[H])N1C(C(C(C(C1([H])[H])([H])[H])([H])[H])([H])[H])([H])[H]

>  <h>  (8) 
<NA>

>  <Training>  (8) 
True

>  <Success>  (8) 
True

>  <enamine_searched>  (8) 
False

>  <enamine_id>  (8) 
nan

$$$$

     RDKit          3D

 66 71  0  0  0  0  0  0  0  0999 V2000
    7.7409   -3.0200   23.3015 C   0  0  0  0  0  0  0  0  0  0  0  0
    8.0120   -1.9251   22.2653 C   0  0  1  0  0  0  0  0  0  0  0  0
    6.8838   -1.8041   21.2251 C   0  0  0  0  0  0  0  0  0  0  0  0
    6.9174   -0.4145   20.8252 N   0  0  0  0  0  0  0  0  0  0  0  0
    6.1325    0.1036   19.7706 C   0  0  0  0  0  0  0  0  0  0  0  0
    6.4387   -0.2295   18.4755 C   0  0  0  0  0  0  0  0  0  0  0  0
    5.7682    0.2252   17.3933 N   0  0  0  0  0  0  0  0  0  0  0  0
    4.7494    1.0224   17.6021 C   0  0  0  0  0  0  0  0  0  0  0  0
    4.2961    1.4092   18.8948 C   0  0  0  0  0  0  0  0  0  0  0  0
    3.1646    2.2495   19.0668 C   0  0  0  0  0  0  0  0  0  0  0  0
    2.7386    2.5997   20.3171 C   0  0  0  0  0  0  0  0  0  0  0  0
    3.4132    2.1073   21.4575 C   0  0  0  0  0  0  0  0  0  0  0  0
    4.5045    1.2884   21.3176 C   0  0  0  0  0  0  0  0  0  0  0  0
    4.9938    0.9343   20.0253 C   0  0  0  0  0  0  0  0  0  0  0  0
    5.0104    0.9126   22.2031 H   0  0  0  0  0  0  0  0  0  0  0  0
    3.0667    2.3843   22.4487 H   0  0  0  0  0  0  0  0  0  0  0  0
    1.8847    3.2595   20.4395 H   0  0  0  0  0  0  0  0  0  0  0  0
    2.6550    2.6097   18.1776 H   0  0  0  0  0  0  0  0  0  0  0  0
    4.2190    1.3918   16.7246 H   0  0  0  0  0  0  0  0  0  0  0  0
    7.2874   -0.8828   18.2718 H   0  0  0  0  0  0  0  0  0  0  0  0
    7.6198    0.3961   21.6828 C   0  0  0  0  0  0  0  0  0  0  0  0
    7.7258    1.5956   21.5675 O   0  0  0  0  0  0  0  0  0  0  0  0
    8.2091   -0.4799   22.8115 C   0  0  1  0  0  0  0  0  0  0  0  0
    7.4211   -0.2508   24.1365 C   0  0  0  0  0  0  0  0  0  0  0  0
    7.6258    1.0736   24.6827 N   0  0  0  0  0  0  0  0  0  0  0  0
    6.4728    1.8482   25.0992 C   0  0  0  0  0  0  0  0  0  0  0  0
    5.7376    1.3273   26.3353 C   0  0  0  0  0  0  0  0  0  0  0  0
    4.6657    0.7577   26.2407 O   0  0  0  0  0  0  0  0  0  0  0  0
    6.3384    1.6005   27.5401 N   0  0  0  0  0  0  0  0  0  0  0  0
    5.8757    0.8411   28.7063 C   0  0  0  0  0  0  0  0  0  0  0  0
    6.8314    0.8879   29.8563 C   0  0  0  0  0  0  0  0  0  0  0  0
    7.6905   -0.0577   30.3810 C   0  0  0  0  0  0  0  0  0  0  0  0
    8.3359    0.6000   31.4458 C   0  0  0  0  0  0  0  0  0  0  0  0
    7.9044    1.8457   31.5843 N   0  0  0  0  0  0  0  0  0  0  0  0
    6.9951    2.0045   30.6112 N   0  0  0  0  0  0  0  0  0  0  0  0
    6.2733    3.2506   30.5171 C   0  0  0  0  0  0  0  0  0  0  0  0
    6.7299    3.9253   31.2400 H   0  0  0  0  0  0  0  0  0  0  0  0
    5.2165    3.1158   30.7669 H   0  0  0  0  0  0  0  0  0  0  0  0
    6.3580    3.6600   29.5077 H   0  0  0  0  0  0  0  0  0  0  0  0
    9.1002    0.2341   32.1192 H   0  0  0  0  0  0  0  0  0  0  0  0
    7.8371   -1.0671   30.0157 H   0  0  0  0  0  0  0  0  0  0  0  0
    5.7000   -0.2026   28.4259 H   0  0  0  0  0  0  0  0  0  0  0  0
    4.8934    1.2355   28.9933 H   0  0  0  0  0  0  0  0  0  0  0  0
    7.3341    1.7683   27.4502 H   0  0  0  0  0  0  0  0  0  0  0  0
    6.8523    2.8569   25.2634 H   0  0  0  0  0  0  0  0  0  0  0  0
    5.7348    1.8710   24.2917 H   0  0  0  0  0  0  0  0  0  0  0  0
    8.8501    1.6878   24.6473 C   0  0  0  0  0  0  0  0  0  0  0  0
    9.0176    2.8128   25.1011 O   0  0  0  0  0  0  0  0  0  0  0  0
    9.9593    0.8971   23.9832 C   0  0  0  0  0  0  0  0  0  0  0  0
   11.2959    1.2189   24.2216 C   0  0  0  0  0  0  0  0  0  0  0  0
   12.3088    0.7048   23.4368 C   0  0  0  0  0  0  0  0  0  0  0  0
   11.9891   -0.1308   22.3644 C   0  0  0  0  0  0  0  0  0  0  0  0
   10.6685   -0.4984   22.1541 C   0  0  0  0  0  0  0  0  0  0  0  0
    9.6500   -0.0661   23.0170 C   0  0  0  0  0  0  0  0  0  0  0  0
   10.4259   -1.1240   21.2978 H   0  0  0  0  0  0  0  0  0  0  0  0
   12.7676   -0.5026   21.6996 H   0  0  0  0  0  0  0  0  0  0  0  0
   13.3421    0.9801   23.6368 H   0  0  0  0  0  0  0  0  0  0  0  0
   11.5559    1.9038   25.0031 H   0  0  0  0  0  0  0  0  0  0  0  0
    6.3489   -0.3779   23.9466 H   0  0  0  0  0  0  0  0  0  0  0  0
    7.7539   -0.9941   24.8742 H   0  0  0  0  0  0  0  0  0  0  0  0
    5.9107   -2.0689   21.6653 H   0  0  0  0  0  0  0  0  0  0  0  0
    7.0359   -2.4426   20.3547 H   0  0  0  0  0  0  0  0  0  0  0  0
    8.9330   -2.1920   21.7377 H   0  0  0  0  0  0  0  0  0  0  0  0
    7.6793   -4.0052   22.8261 H   0  0  0  0  0  0  0  0  0  0  0  0
    6.7889   -2.8473   23.8186 H   0  0  0  0  0  0  0  0  0  0  0  0
    8.5267   -3.0737   24.0646 H   0  0  0  0  0  0  0  0  0  0  0  0
  1  2  1  0
  2  3  1  0
  3  4  1  0
  4  5  1  0
  5  6  2  0
  6  7  1  0
  7  8  2  0
  8  9  1  0
  9 10  2  0
 10 11  1  0
 11 12  2  0
 12 13  1  0
 13 14  2  0
 13 15  1  0
 12 16  1  0
 11 17  1  0
 10 18  1  0
  8 19  1  0
  6 20  1  0
  4 21  1  0
 21 22  2  0
 21 23  1  0
 23 24  1  1
 24 25  1  0
 25 26  1  0
 26 27  1  0
 27 28  2  0
 27 29  1  0
 29 30  1  0
 30 31  1  0
 31 32  2  0
 32 33  1  0
 33 34  2  0
 34 35  1  0
 35 36  1  0
 36 37  1  0
 36 38  1  0
 36 39  1  0
 33 40  1  0
 32 41  1  0
 30 42  1  0
 30 43  1  0
 29 44  1  0
 26 45  1  0
 26 46  1  0
 25 47  1  0
 47 48  2  0
 47 49  1  0
 49 50  2  0
 50 51  1  0
 51 52  2  0
 52 53  1  0
 53 54  2  0
 53 55  1  0
 52 56  1  0
 51 57  1  0
 50 58  1  0
 24 59  1  0
 24 60  1  0
  3 61  1  0
  3 62  1  0
  2 63  1  6
  1 64  1  0
  1 65  1  0
  1 66  1  0
 23  2  1  0
 35 31  1  0
 54 49  1  0
 14  5  1  0
 54 23  1  0
 14  9  1  0
M  END
>  <cnnaffinities>  (9) 
[6.3971, 6.45853, 6.48886]

>  <score>  (9) 
6.3971

>  <index>  (9) 
8

>  <Smiles>  (9) 
C([C@]1(C(N(c2c(nc(c3c(c(c(c(c23)[H])[H])[H])[H])[H])[H])C(=O)[C@]21C(N(C(C(=O)N(C(c1c(c(nn1C([H])([H])[H])[H])[H])([H])[H])[H])([H])[H])C(=O)c1c(c(c(c(c21)[H])[H])[H])[H])([H])[H])([H])[H])[H])([H])([H])[H]

>  <h>  (9) 
<NA>

>  <Training>  (9) 
True

>  <Success>  (9) 
True

>  <enamine_searched>  (9) 
False

>  <enamine_id>  (9) 
nan

$$$$

     RDKit          3D

 58 63  0  0  0  0  0  0  0  0999 V2000
    5.2987    5.1096   21.6444 C   0  0  0  0  0  0  0  0  0  0  0  0
    6.3726    4.6097   22.5585 C   0  0  0  0  0  0  0  0  0  0  0  0
    6.2874    3.5375   23.4906 C   0  0  0  0  0  0  0  0  0  0  0  0
    7.5387    3.4532   24.0136 C   0  0  0  0  0  0  0  0  0  0  0  0
    8.1863    2.4966   24.9719 C   0  0  0  0  0  0  0  0  0  0  0  0
    8.9068    1.4365   24.2915 N   0  0  0  0  0  0  0  0  0  0  0  0
    8.2582    0.1576   24.0818 C   0  0  0  0  0  0  0  0  0  0  0  0
    8.4698   -0.3942   22.6563 C   0  0  2  0  0  0  0  0  0  0  0  0
    7.7249    0.4562   21.6077 C   0  0  0  0  0  0  0  0  0  0  0  0
    7.8600    1.6427   21.4063 O   0  0  0  0  0  0  0  0  0  0  0  0
    6.8711   -0.3589   20.8995 N   0  0  0  0  0  0  0  0  0  0  0  0
    6.1205    0.1149   19.8035 C   0  0  0  0  0  0  0  0  0  0  0  0
    6.4390   -0.2330   18.5143 C   0  0  0  0  0  0  0  0  0  0  0  0
    5.7779    0.2184   17.4228 N   0  0  0  0  0  0  0  0  0  0  0  0
    4.7577    1.0199   17.6145 C   0  0  0  0  0  0  0  0  0  0  0  0
    4.2934    1.4137   18.9028 C   0  0  0  0  0  0  0  0  0  0  0  0
    3.1591    2.2486   19.0723 C   0  0  0  0  0  0  0  0  0  0  0  0
    2.7316    2.6004   20.3248 C   0  0  0  0  0  0  0  0  0  0  0  0
    3.4100    2.1240   21.4675 C   0  0  0  0  0  0  0  0  0  0  0  0
    4.5070    1.3099   21.3338 C   0  0  0  0  0  0  0  0  0  0  0  0
    4.9860    0.9481   20.0405 C   0  0  0  0  0  0  0  0  0  0  0  0
    5.0172    0.9325   22.2143 H   0  0  0  0  0  0  0  0  0  0  0  0
    3.0571    2.4061   22.4579 H   0  0  0  0  0  0  0  0  0  0  0  0
    1.8697    3.2512   20.4431 H   0  0  0  0  0  0  0  0  0  0  0  0
    2.6427    2.5991   18.1852 H   0  0  0  0  0  0  0  0  0  0  0  0
    4.2282    1.3842   16.7326 H   0  0  0  0  0  0  0  0  0  0  0  0
    7.2936   -0.8795   18.3103 H   0  0  0  0  0  0  0  0  0  0  0  0
    7.1320   -1.7591   21.1073 C   0  0  0  0  0  0  0  0  0  0  0  0
    7.8559   -1.8160   22.4650 C   0  0  2  0  0  0  0  0  0  0  0  0
    6.9281   -2.3292   23.5726 C   0  0  0  0  0  0  0  0  0  0  0  0
    6.5748   -3.3366   23.3248 H   0  0  0  0  0  0  0  0  0  0  0  0
    6.0496   -1.6900   23.7093 H   0  0  0  0  0  0  0  0  0  0  0  0
    7.4507   -2.4067   24.5306 H   0  0  0  0  0  0  0  0  0  0  0  0
    8.6736   -2.5379   22.4210 H   0  0  0  0  0  0  0  0  0  0  0  0
    6.1938   -2.3207   21.0949 H   0  0  0  0  0  0  0  0  0  0  0  0
    7.7703   -2.1445   20.3091 H   0  0  0  0  0  0  0  0  0  0  0  0
    9.9705   -0.3502   22.3964 C   0  0  0  0  0  0  0  0  0  0  0  0
   10.5783   -1.2415   21.5071 C   0  0  0  0  0  0  0  0  0  0  0  0
   11.9459   -1.1669   21.3161 C   0  0  0  0  0  0  0  0  0  0  0  0
   12.5234   -2.0789   20.5160 F   0  0  0  0  0  0  0  0  0  0  0  0
   12.7354   -0.1502   21.8501 C   0  0  0  0  0  0  0  0  0  0  0  0
   12.1178    0.7729   22.6718 C   0  0  0  0  0  0  0  0  0  0  0  0
   10.7683    0.6375   22.9867 C   0  0  0  0  0  0  0  0  0  0  0  0
   10.1754    1.6909   23.8614 C   0  0  0  0  0  0  0  0  0  0  0  0
   10.7730    2.7228   24.1351 O   0  0  0  0  0  0  0  0  0  0  0  0
   12.6428    1.6113   23.1193 H   0  0  0  0  0  0  0  0  0  0  0  0
   13.7870   -0.0929   21.5864 H   0  0  0  0  0  0  0  0  0  0  0  0
   10.0128   -1.9845   20.9534 H   0  0  0  0  0  0  0  0  0  0  0  0
    8.6657   -0.5810   24.7833 H   0  0  0  0  0  0  0  0  0  0  0  0
    7.1944    0.2807   24.2908 H   0  0  0  0  0  0  0  0  0  0  0  0
    7.4327    2.0174   25.6042 H   0  0  0  0  0  0  0  0  0  0  0  0
    8.9025    3.0209   25.6059 H   0  0  0  0  0  0  0  0  0  0  0  0
    8.3077    4.4095   23.4788 O   0  0  0  0  0  0  0  0  0  0  0  0
    7.5716    5.1463   22.5785 N   0  0  0  0  0  0  0  0  0  0  0  0
    5.4340    2.9189   23.7151 H   0  0  0  0  0  0  0  0  0  0  0  0
    5.4690    6.1446   21.3454 H   0  0  0  0  0  0  0  0  0  0  0  0
    5.2601    4.4957   20.7377 H   0  0  0  0  0  0  0  0  0  0  0  0
    4.3192    5.0366   22.1283 H   0  0  0  0  0  0  0  0  0  0  0  0
  1  2  1  0
  2  3  1  0
  3  4  2  0
  4  5  1  0
  5  6  1  0
  6  7  1  0
  8  7  1  1
  8  9  1  0
  9 10  2  0
  9 11  1  0
 11 12  1  0
 12 13  2  0
 13 14  1  0
 14 15  2  0
 15 16  1  0
 16 17  2  0
 17 18  1  0
 18 19  2  0
 19 20  1  0
 20 21  2  0
 20 22  1  0
 19 23  1  0
 18 24  1  0
 17 25  1  0
 15 26  1  0
 13 27  1  0
 11 28  1  0
 28 29  1  0
 29 30  1  0
 30 31  1  0
 30 32  1  0
 30 33  1  0
 29 34  1  6
 28 35  1  0
 28 36  1  0
  8 37  1  0
 37 38  2  0
 38 39  1  0
 39 40  1  0
 39 41  2  0
 41 42  1  0
 42 43  2  0
 43 44  1  0
 44 45  2  0
 42 46  1  0
 41 47  1  0
 38 48  1  0
  7 49  1  0
  7 50  1  0
  5 51  1  0
  5 52  1  0
  4 53  1  0
 53 54  1  0
  3 55  1  0
  1 56  1  0
  1 57  1  0
  1 58  1  0
 54  2  2  0
 44  6  1  0
 29  8  1  0
 43 37  1  0
 21 12  1  0
 21 16  1  0
M  END
>  <cnnaffinities>  (10) 
[6.67323]

>  <score>  (10) 
6.67323

>  <index>  (10) 
9

>  <Smiles>  (10) 
C(c1c(c(C(N2C([C@@]3(C(=O)N(c4c(nc(c5c(c(c(c(c45)[H])[H])[H])[H])[H])[H])C([C@@]3(C([H])([H])[H])[H])([H])[H])c3c(c(F)c(c(c3C2=O)[H])[H])[H])([H])[H])([H])[H])on1)[H])([H])([H])[H]

>  <h>  (10) 
<NA>

>  <Training>  (10) 
True

>  <Success>  (10) 
True

>  <enamine_searched>  (10) 
False

>  <enamine_id>  (10) 
nan

$$$$

     RDKit          3D

 72 77  0  0  0  0  0  0  0  0999 V2000
    5.8870    5.1743   21.5061 C   0  0  0  0  0  0  0  0  0  0  0  0
    5.4109    5.9002   22.7641 C   0  0  1  0  0  0  0  0  0  0  0  0
    5.1285    4.9701   23.9502 C   0  0  0  0  0  0  0  0  0  0  0  0
    6.3648    4.4995   24.6726 N   0  0  0  0  0  4  0  0  0  0  0  0
    7.1265    3.3766   24.0241 C   0  0  0  0  0  0  0  0  0  0  0  0
    7.7854    2.4612   25.0586 C   0  0  0  0  0  0  0  0  0  0  0  0
    8.6092    1.4637   24.4094 N   0  0  0  0  0  0  0  0  0  0  0  0
    8.0635    0.1474   24.1459 C   0  0  0  0  0  0  0  0  0  0  0  0
    8.3930   -0.3604   22.7232 C   0  0  2  0  0  0  0  0  0  0  0  0
    7.6527    0.4832   21.6667 C   0  0  0  0  0  0  0  0  0  0  0  0
    7.7095    1.6889   21.5343 O   0  0  0  0  0  0  0  0  0  0  0  0
    6.8970   -0.3509   20.8805 N   0  0  0  0  0  0  0  0  0  0  0  0
    6.1317    0.1222   19.7960 C   0  0  0  0  0  0  0  0  0  0  0  0
    6.4387   -0.2311   18.5041 C   0  0  0  0  0  0  0  0  0  0  0  0
    5.7743    0.2191   17.4153 N   0  0  0  0  0  0  0  0  0  0  0  0
    4.7574    1.0243   17.6112 C   0  0  0  0  0  0  0  0  0  0  0  0
    4.3020    1.4208   18.9027 C   0  0  0  0  0  0  0  0  0  0  0  0
    3.1660    2.2557   19.0687 C   0  0  0  0  0  0  0  0  0  0  0  0
    2.7301    2.5980   20.3214 C   0  0  0  0  0  0  0  0  0  0  0  0
    3.4046    2.1166   21.4651 C   0  0  0  0  0  0  0  0  0  0  0  0
    4.5115    1.3147   21.3323 C   0  0  0  0  0  0  0  0  0  0  0  0
    4.9981    0.9567   20.0387 C   0  0  0  0  0  0  0  0  0  0  0  0
    5.0191    0.9413   22.2159 H   0  0  0  0  0  0  0  0  0  0  0  0
    3.0383    2.3775   22.4554 H   0  0  0  0  0  0  0  0  0  0  0  0
    1.8679    3.2459   20.4430 H   0  0  0  0  0  0  0  0  0  0  0  0
    2.6502    2.6073   18.1812 H   0  0  0  0  0  0  0  0  0  0  0  0
    4.2253    1.3884   16.7315 H   0  0  0  0  0  0  0  0  0  0  0  0
    7.2900   -0.8822   18.3026 H   0  0  0  0  0  0  0  0  0  0  0  0
    7.2162   -1.7453   21.0650 C   0  0  0  0  0  0  0  0  0  0  0  0
    7.8799   -1.8072   22.4555 C   0  0  2  0  0  0  0  0  0  0  0  0
    6.9352   -2.4085   23.5022 C   0  0  0  0  0  0  0  0  0  0  0  0
    7.4165   -2.4821   24.4821 H   0  0  0  0  0  0  0  0  0  0  0  0
    6.0143   -1.8255   23.6097 H   0  0  0  0  0  0  0  0  0  0  0  0
    6.6563   -3.4267   23.2103 H   0  0  0  0  0  0  0  0  0  0  0  0
    8.7447   -2.4728   22.4257 H   0  0  0  0  0  0  0  0  0  0  0  0
    7.9055   -2.0780   20.2844 H   0  0  0  0  0  0  0  0  0  0  0  0
    6.3063   -2.3478   20.9999 H   0  0  0  0  0  0  0  0  0  0  0  0
    9.8981   -0.2102   22.5333 C   0  0  0  0  0  0  0  0  0  0  0  0
   10.6099   -1.0285   21.6467 C   0  0  0  0  0  0  0  0  0  0  0  0
   11.9793   -0.8588   21.5085 C   0  0  0  0  0  0  0  0  0  0  0  0
   12.8439   -1.8590   20.3641 Cl  0  0  0  0  0  0  0  0  0  0  0  0
   12.6542    0.1954   22.1290 C   0  0  0  0  0  0  0  0  0  0  0  0
   11.9387    1.0478   22.9515 C   0  0  0  0  0  0  0  0  0  0  0  0
   10.5802    0.8345   23.1696 C   0  0  0  0  0  0  0  0  0  0  0  0
    9.8307    1.8554   23.9648 C   0  0  0  0  0  0  0  0  0  0  0  0
   10.2857    2.9751   24.1850 O   0  0  0  0  0  0  0  0  0  0  0  0
   12.4007    1.9043   23.4347 H   0  0  0  0  0  0  0  0  0  0  0  0
   13.7105    0.3457   21.9302 H   0  0  0  0  0  0  0  0  0  0  0  0
   10.1141   -1.7895   21.0504 H   0  0  0  0  0  0  0  0  0  0  0  0
    6.9817    0.1971   24.2915 H   0  0  0  0  0  0  0  0  0  0  0  0
    8.4843   -0.5755   24.8570 H   0  0  0  0  0  0  0  0  0  0  0  0
    7.0411    1.9310   25.6612 H   0  0  0  0  0  0  0  0  0  0  0  0
    8.4311    3.0334   25.7304 H   0  0  0  0  0  0  0  0  0  0  0  0
    7.9073    3.7884   23.3883 H   0  0  0  0  0  0  0  0  0  0  0  0
    6.4575    2.7979   23.3815 H   0  0  0  0  0  0  0  0  0  0  0  0
    7.2256    5.7079   24.9766 C   0  0  0  0  0  0  0  0  0  0  0  0
    7.4915    6.5429   23.7244 C   0  0  2  0  0  0  0  0  0  0  0  0
    8.3085    7.7811   24.0431 C   0  0  0  0  0  0  0  0  0  0  0  0
    9.2760    7.5093   24.4841 H   0  0  0  0  0  0  0  0  0  0  0  0
    8.4915    8.3642   23.1348 H   0  0  0  0  0  0  0  0  0  0  0  0
    7.7630    8.4149   24.7508 H   0  0  0  0  0  0  0  0  0  0  0  0
    6.2672    6.9676   23.1462 O   0  0  0  0  0  0  0  0  0  0  0  0
    8.0345    5.9304   22.9891 H   0  0  0  0  0  0  0  0  0  0  0  0
    6.7033    6.3200   25.7162 H   0  0  0  0  0  0  0  0  0  0  0  0
    8.1728    5.3756   25.4092 H   0  0  0  0  0  0  0  0  0  0  0  0
    6.0500    4.1133   25.5778 H   0  0  0  0  0  0  0  0  0  0  0  0
    4.5168    5.5004   24.6808 H   0  0  0  0  0  0  0  0  0  0  0  0
    4.5634    4.0988   23.6087 H   0  0  0  0  0  0  0  0  0  0  0  0
    4.4631    6.3978   22.5230 H   0  0  0  0  0  0  0  0  0  0  0  0
    6.8338    4.6453   21.6602 H   0  0  0  0  0  0  0  0  0  0  0  0
    6.0229    5.8868   20.6854 H   0  0  0  0  0  0  0  0  0  0  0  0
    5.1489    4.4215   21.2048 H   0  0  0  0  0  0  0  0  0  0  0  0
  1  2  1  0
  2  3  1  0
  3  4  1  0
  4  5  1  0
  5  6  1  0
  6  7  1  0
  7  8  1  0
  9  8  1  1
  9 10  1  0
 10 11  2  0
 10 12  1  0
 12 13  1  0
 13 14  2  0
 14 15  1  0
 15 16  2  0
 16 17  1  0
 17 18  2  0
 18 19  1  0
 19 20  2  0
 20 21  1  0
 21 22  2  0
 21 23  1  0
 20 24  1  0
 19 25  1  0
 18 26  1  0
 16 27  1  0
 14 28  1  0
 12 29  1  0
 29 30  1  0
 30 31  1  0
 31 32  1  0
 31 33  1  0
 31 34  1  0
 30 35  1  6
 29 36  1  0
 29 37  1  0
  9 38  1  0
 38 39  2  0
 39 40  1  0
 40 41  1  0
 40 42  2  0
 42 43  1  0
 43 44  2  0
 44 45  1  0
 45 46  2  0
 43 47  1  0
 42 48  1  0
 39 49  1  0
  8 50  1  0
  8 51  1  0
  6 52  1  0
  6 53  1  0
  5 54  1  0
  5 55  1  0
  4 56  1  0
 56 57  1  0
 57 58  1  0
 58 59  1  0
 58 60  1  0
 58 61  1  0
 57 62  1  0
 57 63  1  6
 56 64  1  0
 56 65  1  0
  4 66  1  0
  3 67  1  0
  3 68  1  0
  2 69  1  6
  1 70  1  0
  1 71  1  0
  1 72  1  0
 62  2  1  0
 45  7  1  0
 30  9  1  0
 44 38  1  0
 22 13  1  0
 22 17  1  0
M  CHG  1   4   1
M  END
>  <cnnaffinities>  (11) 
[6.78312, 6.64485]

>  <score>  (11) 
6.78312

>  <index>  (11) 
10

>  <Smiles>  (11) 
C([C@]1(C([N+](C(C(N2C([C@@]3(C(=O)N(c4c(nc(c5c(c(c(c(c45)[H])[H])[H])[H])[H])[H])C([C@@]3(C([H])([H])[H])[H])([H])[H])c3c(c(Cl)c(c(c3C2=O)[H])[H])[H])([H])[H])([H])[H])([H])[H])(C([C@](C([H])([H])[H])(O1)[H])([H])[H])[H])([H])[H])[H])([H])([H])[H]

>  <h>  (11) 
<NA>

>  <Training>  (11) 
True

>  <Success>  (11) 
True

>  <enamine_searched>  (11) 
False

>  <enamine_id>  (11) 
nan

$$$$

     RDKit          3D

 54 57  0  0  0  0  0  0  0  0999 V2000
    4.8799    1.9201   25.3042 C   0  0  0  0  0  0  0  0  0  0  0  0
    6.1336    1.9660   24.6595 O   0  0  0  0  0  0  0  0  0  0  0  0
    6.4397    2.9888   23.8096 C   0  0  0  0  0  0  0  0  0  0  0  0
    5.5513    4.0281   23.5133 C   0  0  0  0  0  0  0  0  0  0  0  0
    5.9384    5.0323   22.6257 C   0  0  0  0  0  0  0  0  0  0  0  0
    7.1973    5.0155   22.0460 C   0  0  0  0  0  0  0  0  0  0  0  0
    8.0721    3.9819   22.3669 C   0  0  0  0  0  0  0  0  0  0  0  0
    7.7271    2.9603   23.2380 C   0  0  0  0  0  0  0  0  0  0  0  0
    8.6563    1.7830   23.5101 C   0  0  2  0  0  0  0  0  0  0  0  0
   10.1644    2.0522   23.3441 C   0  0  0  0  0  0  0  0  0  0  0  0
   10.9933    0.8533   23.8273 C   0  0  2  0  0  0  0  0  0  0  0  0
   12.4893    1.0790   23.6095 C   0  0  0  0  0  0  0  0  0  0  0  0
   12.8385    1.9806   24.1223 H   0  0  0  0  0  0  0  0  0  0  0  0
   13.0858    0.2309   23.9676 H   0  0  0  0  0  0  0  0  0  0  0  0
   12.7101    1.2061   22.5431 H   0  0  0  0  0  0  0  0  0  0  0  0
   10.5197   -0.4279   23.1375 C   0  0  0  0  0  0  0  0  0  0  0  0
    8.9990   -0.6101   23.2637 C   0  0  0  0  0  0  0  0  0  0  0  0
    8.2618    0.5604   22.7864 N   0  0  0  0  0  0  0  0  0  0  0  0
    7.9307    0.6546   21.4242 C   0  0  0  0  0  0  0  0  0  0  0  0
    8.3453    1.5314   20.6965 O   0  0  0  0  0  0  0  0  0  0  0  0
    6.9765   -0.4301   20.8968 C   0  0  0  0  0  0  0  0  0  0  0  0
    6.1115    0.0835   19.7696 C   0  0  0  0  0  0  0  0  0  0  0  0
    6.4254   -0.2087   18.4686 C   0  0  0  0  0  0  0  0  0  0  0  0
    5.7572    0.2425   17.3751 N   0  0  0  0  0  0  0  0  0  0  0  0
    4.7329    1.0320   17.5799 C   0  0  0  0  0  0  0  0  0  0  0  0
    4.2853    1.4213   18.8701 C   0  0  0  0  0  0  0  0  0  0  0  0
    3.1664    2.2722   19.0492 C   0  0  0  0  0  0  0  0  0  0  0  0
    2.7626    2.6438   20.3018 C   0  0  0  0  0  0  0  0  0  0  0  0
    3.4647    2.1648   21.4336 C   0  0  0  0  0  0  0  0  0  0  0  0
    4.5479    1.3320   21.2913 C   0  0  0  0  0  0  0  0  0  0  0  0
    4.9926    0.9377   20.0021 C   0  0  0  0  0  0  0  0  0  0  0  0
    5.0714    0.9755   22.1743 H   0  0  0  0  0  0  0  0  0  0  0  0
    3.1374    2.4652   22.4259 H   0  0  0  0  0  0  0  0  0  0  0  0
    1.9108    3.3081   20.4273 H   0  0  0  0  0  0  0  0  0  0  0  0
    2.6472    2.6372   18.1661 H   0  0  0  0  0  0  0  0  0  0  0  0
    4.2030    1.3979   16.6972 H   0  0  0  0  0  0  0  0  0  0  0  0
    7.2731   -0.8524   18.2393 H   0  0  0  0  0  0  0  0  0  0  0  0
    6.3698   -0.8299   21.7214 H   0  0  0  0  0  0  0  0  0  0  0  0
    7.5888   -1.2635   20.5238 H   0  0  0  0  0  0  0  0  0  0  0  0
    8.6688   -1.4845   22.6994 H   0  0  0  0  0  0  0  0  0  0  0  0
    8.7403   -0.7772   24.3188 H   0  0  0  0  0  0  0  0  0  0  0  0
   10.7963   -0.3860   22.0773 H   0  0  0  0  0  0  0  0  0  0  0  0
   11.0498   -1.2956   23.5534 H   0  0  0  0  0  0  0  0  0  0  0  0
   10.8244    0.7287   24.9064 H   0  0  0  0  0  0  0  0  0  0  0  0
   10.4539    2.9446   23.9143 H   0  0  0  0  0  0  0  0  0  0  0  0
   10.3980    2.2590   22.2927 H   0  0  0  0  0  0  0  0  0  0  0  0
    8.5159    1.5168   24.5635 H   0  0  0  0  0  0  0  0  0  0  0  0
    9.0398    3.9577   21.8781 H   0  0  0  0  0  0  0  0  0  0  0  0
    7.5026    5.7830   21.3389 H   0  0  0  0  0  0  0  0  0  0  0  0
    5.2502    5.8353   22.3813 H   0  0  0  0  0  0  0  0  0  0  0  0
    4.5621    4.0686   23.9631 H   0  0  0  0  0  0  0  0  0  0  0  0
    4.6971    2.7756   25.9655 H   0  0  0  0  0  0  0  0  0  0  0  0
    4.9081    1.0231   25.9180 H   0  0  0  0  0  0  0  0  0  0  0  0
    4.0299    1.8260   24.6156 H   0  0  0  0  0  0  0  0  0  0  0  0
  1  2  1  0
  2  3  1  0
  3  4  2  0
  4  5  1  0
  5  6  2  0
  6  7  1  0
  7  8  2  0
  8  9  1  0
  9 10  1  0
 10 11  1  0
 11 12  1  0
 12 13  1  0
 12 14  1  0
 12 15  1  0
 11 16  1  0
 16 17  1  0
 17 18  1  0
 18 19  1  0
 19 20  2  0
 19 21  1  0
 21 22  1  0
 22 23  2  0
 23 24  1  0
 24 25  2  0
 25 26  1  0
 26 27  2  0
 27 28  1  0
 28 29  2  0
 29 30  1  0
 30 31  2  0
 30 32  1  0
 29 33  1  0
 28 34  1  0
 27 35  1  0
 25 36  1  0
 23 37  1  0
 21 38  1  0
 21 39  1  0
 17 40  1  0
 17 41  1  0
 16 42  1  0
 16 43  1  0
 11 44  1  1
 10 45  1  0
 10 46  1  0
  9 47  1  1
  7 48  1  0
  6 49  1  0
  5 50  1  0
  4 51  1  0
  1 52  1  0
  1 53  1  0
  1 54  1  0
  8  3  1  0
 18  9  1  0
 31 22  1  0
 31 26  1  0
M  END
>  <cnnaffinities>  (12) 
[5.95364]

>  <score>  (12) 
5.95364

>  <index>  (12) 
11

>  <Smiles>  (12) 
C(Oc1c(c(c(c(c1[C@@]1(C([C@](C([H])([H])[H])(C(C(N1C(=O)C(c1c(nc(c2c(c(c(c(c12)[H])[H])[H])[H])[H])[H])([H])[H])([H])[H])([H])[H])[H])([H])[H])[H])[H])[H])[H])[H])([H])([H])[H]

>  <h>  (12) 
<NA>

>  <Training>  (12) 
True

>  <Success>  (12) 
True

>  <enamine_searched>  (12) 
False

>  <enamine_id>  (12) 
nan

$$$$

     RDKit          3D

 47 50  0  0  0  0  0  0  0  0999 V2000
    5.5792   -2.4856   20.9684 O   0  0  0  0  0  0  0  0  0  0  0  0
    6.1374   -1.6246   21.6286 C   0  0  0  0  0  0  0  0  0  0  0  0
    6.9074   -0.4868   20.9208 C   0  0  0  0  0  0  0  0  0  0  0  0
    6.1155    0.0914   19.7698 C   0  0  0  0  0  0  0  0  0  0  0  0
    6.4210   -0.2145   18.4661 C   0  0  0  0  0  0  0  0  0  0  0  0
    5.7551    0.2390   17.3722 N   0  0  0  0  0  0  0  0  0  0  0  0
    4.7336    1.0343   17.5765 C   0  0  0  0  0  0  0  0  0  0  0  0
    4.2846    1.4229   18.8706 C   0  0  0  0  0  0  0  0  0  0  0  0
    3.1581    2.2678   19.0467 C   0  0  0  0  0  0  0  0  0  0  0  0
    2.7457    2.6248   20.3031 C   0  0  0  0  0  0  0  0  0  0  0  0
    3.4393    2.1409   21.4332 C   0  0  0  0  0  0  0  0  0  0  0  0
    4.5322    1.3195   21.2886 C   0  0  0  0  0  0  0  0  0  0  0  0
    4.9896    0.9409   19.9970 C   0  0  0  0  0  0  0  0  0  0  0  0
    5.0487    0.9564   22.1719 H   0  0  0  0  0  0  0  0  0  0  0  0
    3.1047    2.4249   22.4246 H   0  0  0  0  0  0  0  0  0  0  0  0
    1.8891    3.2783   20.4358 H   0  0  0  0  0  0  0  0  0  0  0  0
    2.6373    2.6358   18.1670 H   0  0  0  0  0  0  0  0  0  0  0  0
    4.1997    1.4002   16.6981 H   0  0  0  0  0  0  0  0  0  0  0  0
    7.2650   -0.8670   18.2463 H   0  0  0  0  0  0  0  0  0  0  0  0
    7.2145    0.3101   21.6088 H   0  0  0  0  0  0  0  0  0  0  0  0
    7.8292   -0.9226   20.5169 H   0  0  0  0  0  0  0  0  0  0  0  0
    6.0710   -1.6163   22.9923 N   0  0  0  0  0  0  0  0  0  0  0  0
    6.9091   -0.8604   23.9118 C   0  0  0  0  0  0  0  0  0  0  0  0
    6.6357   -1.4615   25.3034 C   0  0  2  0  0  0  0  0  0  0  0  0
    7.7175   -2.4351   25.7265 C   0  0  0  0  0  0  0  0  0  0  0  0
    7.7725   -3.5129   24.8555 F   0  0  0  0  0  0  0  0  0  0  0  0
    8.6759   -1.9177   25.6591 H   0  0  0  0  0  0  0  0  0  0  0  0
    7.5707   -2.8391   26.7378 H   0  0  0  0  0  0  0  0  0  0  0  0
    5.2328   -2.0840   25.1858 C   0  0  0  0  0  0  0  0  0  0  0  0
    4.8983   -3.2227   26.1630 C   0  0  0  0  0  0  0  0  0  0  0  0
    3.3669   -3.2851   26.2533 C   0  0  0  0  0  0  0  0  0  0  0  0
    2.8663   -1.8738   25.8933 C   0  0  0  0  0  0  0  0  0  0  0  0
    4.1174   -1.0615   25.5130 C   0  0  0  0  0  0  0  0  0  0  0  0
    3.9424   -0.3726   24.6833 H   0  0  0  0  0  0  0  0  0  0  0  0
    4.4259   -0.4376   26.3598 H   0  0  0  0  0  0  0  0  0  0  0  0
    2.3394   -1.4031   26.7277 H   0  0  0  0  0  0  0  0  0  0  0  0
    2.1579   -1.9194   25.0631 H   0  0  0  0  0  0  0  0  0  0  0  0
    2.9726   -4.0215   25.5471 H   0  0  0  0  0  0  0  0  0  0  0  0
    3.0381   -3.5965   27.2495 H   0  0  0  0  0  0  0  0  0  0  0  0
    5.3396   -4.1744   25.8541 H   0  0  0  0  0  0  0  0  0  0  0  0
    5.3091   -2.9966   27.1549 H   0  0  0  0  0  0  0  0  0  0  0  0
    5.1778   -2.5235   23.7045 C   0  0  0  0  0  0  0  0  0  0  0  0
    4.1677   -2.4617   23.3072 H   0  0  0  0  0  0  0  0  0  0  0  0
    5.4716   -3.5691   23.5797 H   0  0  0  0  0  0  0  0  0  0  0  0
    6.6528   -0.6771   26.0632 H   0  0  0  0  0  0  0  0  0  0  0  0
    7.9659   -0.9491   23.6497 H   0  0  0  0  0  0  0  0  0  0  0  0
    6.6409    0.2016   23.8992 H   0  0  0  0  0  0  0  0  0  0  0  0
  1  2  2  0
  2  3  1  0
  3  4  1  0
  4  5  2  0
  5  6  1  0
  6  7  2  0
  7  8  1  0
  8  9  2  0
  9 10  1  0
 10 11  2  0
 11 12  1  0
 12 13  2  0
 12 14  1  0
 11 15  1  0
 10 16  1  0
  9 17  1  0
  7 18  1  0
  5 19  1  0
  3 20  1  0
  3 21  1  0
  2 22  1  0
 22 23  1  0
 23 24  1  0
 24 25  1  0
 25 26  1  0
 25 27  1  0
 25 28  1  0
 24 29  1  0
 29 30  1  0
 30 31  1  0
 31 32  1  0
 32 33  1  0
 33 34  1  0
 33 35  1  0
 32 36  1  0
 32 37  1  0
 31 38  1  0
 31 39  1  0
 30 40  1  0
 30 41  1  0
 29 42  1  0
 42 43  1  0
 42 44  1  0
 24 45  1  1
 23 46  1  0
 23 47  1  0
 13  4  1  0
 42 22  1  0
 13  8  1  0
 33 29  1  0
M  END
>  <cnnaffinities>  (13) 
[5.39248, 5.20233, 5.423]

>  <score>  (13) 
5.39248

>  <index>  (13) 
12

>  <Smiles>  (13) 
O=C(C(c1c(nc(c2c(c(c(c(c12)[H])[H])[H])[H])[H])[H])([H])[H])N1C([C@](C(F)([H])[H])(C2(C(C(C(C2([H])[H])([H])[H])([H])[H])([H])[H])C1([H])[H])[H])([H])[H]

>  <h>  (13) 
<NA>

>  <Training>  (13) 
True

>  <Success>  (13) 
True

>  <enamine_searched>  (13) 
False

>  <enamine_id>  (13) 
nan

$$$$

     RDKit          3D

 67 72  0  0  0  0  0  0  0  0999 V2000
    7.7221   -8.3963   22.9920 C   0  0  0  0  0  0  0  0  0  0  0  0
    6.7790   -7.3536   22.6645 N   0  0  0  0  0  0  0  0  0  0  0  0
    7.0772   -6.5167   21.6339 C   0  0  0  0  0  0  0  0  0  0  0  0
    7.9847   -6.7008   20.8370 O   0  0  0  0  0  0  0  0  0  0  0  0
    6.2016   -5.2588   21.5927 C   0  0  0  0  0  0  0  0  0  0  0  0
    6.6695   -4.2966   22.5763 N   0  0  0  0  0  0  0  0  0  0  0  0
    7.7719   -3.3992   22.2733 C   0  0  0  0  0  0  0  0  0  0  0  0
    7.4135   -1.9442   22.6561 C   0  0  2  0  0  0  0  0  0  0  0  0
    6.3235   -1.4672   21.6674 C   0  0  0  0  0  0  0  0  0  0  0  0
    5.2037   -1.9189   21.5540 O   0  0  0  0  0  0  0  0  0  0  0  0
    6.8398   -0.4590   20.8777 N   0  0  0  0  0  0  0  0  0  0  0  0
    6.1042    0.0790   19.8036 C   0  0  0  0  0  0  0  0  0  0  0  0
    6.4632   -0.2024   18.5072 C   0  0  0  0  0  0  0  0  0  0  0  0
    5.8002    0.2456   17.4192 N   0  0  0  0  0  0  0  0  0  0  0  0
    4.7573    1.0131   17.6158 C   0  0  0  0  0  0  0  0  0  0  0  0
    4.2893    1.3961   18.9069 C   0  0  0  0  0  0  0  0  0  0  0  0
    3.1545    2.2318   19.0653 C   0  0  0  0  0  0  0  0  0  0  0  0
    2.7587    2.6323   20.3115 C   0  0  0  0  0  0  0  0  0  0  0  0
    3.4657    2.2003   21.4557 C   0  0  0  0  0  0  0  0  0  0  0  0
    4.5534    1.3704   21.3312 C   0  0  0  0  0  0  0  0  0  0  0  0
    4.9845    0.9371   20.0431 C   0  0  0  0  0  0  0  0  0  0  0  0
    5.0950    1.0349   22.2109 H   0  0  0  0  0  0  0  0  0  0  0  0
    3.1478    2.5308   22.4406 H   0  0  0  0  0  0  0  0  0  0  0  0
    1.9023    3.2916   20.4277 H   0  0  0  0  0  0  0  0  0  0  0  0
    2.6307    2.5596   18.1719 H   0  0  0  0  0  0  0  0  0  0  0  0
    4.2293    1.3770   16.7345 H   0  0  0  0  0  0  0  0  0  0  0  0
    7.3126   -0.8558   18.3086 H   0  0  0  0  0  0  0  0  0  0  0  0
    8.2829   -0.3729   20.9697 C   0  0  0  0  0  0  0  0  0  0  0  0
    8.5692   -0.9419   22.3635 C   0  0  2  0  0  0  0  0  0  0  0  0
    9.9876   -1.4730   22.4707 C   0  0  0  0  0  0  0  0  0  0  0  0
   10.1621   -1.9943   23.7691 O   0  0  0  0  0  0  0  0  0  0  0  0
   11.4946   -2.3601   24.0557 C   0  0  0  0  0  0  0  0  0  0  0  0
   12.3182   -1.2074   24.5700 C   0  0  0  0  0  0  0  0  0  0  0  0
   13.1943   -0.4612   23.6100 C   0  0  0  0  0  0  0  0  0  0  0  0
   13.8010   -1.4054   24.6168 C   0  0  0  0  0  0  0  0  0  0  0  0
   14.3574   -1.0016   25.4566 H   0  0  0  0  0  0  0  0  0  0  0  0
   14.1659   -2.3753   24.2919 H   0  0  0  0  0  0  0  0  0  0  0  0
   13.1543   -0.7511   22.5628 H   0  0  0  0  0  0  0  0  0  0  0  0
   13.3469    0.6025   23.7467 H   0  0  0  0  0  0  0  0  0  0  0  0
   11.8638   -0.6240   25.3620 H   0  0  0  0  0  0  0  0  0  0  0  0
   11.4369   -3.1512   24.8087 H   0  0  0  0  0  0  0  0  0  0  0  0
   11.9950   -2.7980   23.1717 H   0  0  0  0  0  0  0  0  0  0  0  0
   10.1541   -2.2534   21.7057 H   0  0  0  0  0  0  0  0  0  0  0  0
   10.7164   -0.6708   22.2719 H   0  0  0  0  0  0  0  0  0  0  0  0
    8.4670   -0.1260   23.0791 H   0  0  0  0  0  0  0  0  0  0  0  0
    8.6101    0.6649   20.8570 H   0  0  0  0  0  0  0  0  0  0  0  0
    8.7774   -0.9693   20.1868 H   0  0  0  0  0  0  0  0  0  0  0  0
    6.9058   -1.9736   24.0948 C   0  0  0  0  0  0  0  0  0  0  0  0
    6.8165   -0.8030   24.8628 C   0  0  0  0  0  0  0  0  0  0  0  0
    6.2918   -0.8493   26.1442 C   0  0  0  0  0  0  0  0  0  0  0  0
    6.0227    0.6450   27.0066 Cl  0  0  0  0  0  0  0  0  0  0  0  0
    5.9296   -2.0537   26.7484 C   0  0  0  0  0  0  0  0  0  0  0  0
    5.9898   -3.2113   25.9963 C   0  0  0  0  0  0  0  0  0  0  0  0
    6.4086   -3.1553   24.6689 C   0  0  0  0  0  0  0  0  0  0  0  0
    6.1905   -4.3722   23.8414 C   0  0  0  0  0  0  0  0  0  0  0  0
    5.5661   -5.3553   24.2514 O   0  0  0  0  0  0  0  0  0  0  0  0
    5.6884   -4.1697   26.4039 H   0  0  0  0  0  0  0  0  0  0  0  0
    5.5735   -2.0709   27.7707 H   0  0  0  0  0  0  0  0  0  0  0  0
    7.1392    0.1548   24.4718 H   0  0  0  0  0  0  0  0  0  0  0  0
    8.6716   -3.7046   22.8189 H   0  0  0  0  0  0  0  0  0  0  0  0
    7.9878   -3.4523   21.2119 H   0  0  0  0  0  0  0  0  0  0  0  0
    5.1504   -5.4831   21.8209 H   0  0  0  0  0  0  0  0  0  0  0  0
    6.2539   -4.8002   20.6013 H   0  0  0  0  0  0  0  0  0  0  0  0
    6.1974   -6.9718   23.4117 H   0  0  0  0  0  0  0  0  0  0  0  0
    7.1995   -9.2728   23.3635 H   0  0  0  0  0  0  0  0  0  0  0  0
    8.4593   -8.0493   23.7246 H   0  0  0  0  0  0  0  0  0  0  0  0
    8.2383   -8.6856   22.0846 H   0  0  0  0  0  0  0  0  0  0  0  0
  1  2  1  0
  2  3  1  0
  3  4  2  0
  3  5  1  0
  5  6  1  0
  6  7  1  0
  8  7  1  6
  8  9  1  0
  9 10  2  0
  9 11  1  0
 11 12  1  0
 12 13  2  0
 13 14  1  0
 14 15  2  0
 15 16  1  0
 16 17  2  0
 17 18  1  0
 18 19  2  0
 19 20  1  0
 20 21  2  0
 20 22  1  0
 19 23  1  0
 18 24  1  0
 17 25  1  0
 15 26  1  0
 13 27  1  0
 11 28  1  0
 28 29  1  0
 29 30  1  0
 30 31  1  0
 31 32  1  0
 32 33  1  0
 33 34  1  0
 34 35  1  0
 35 36  1  0
 35 37  1  0
 34 38  1  0
 34 39  1  0
 33 40  1  0
 32 41  1  0
 32 42  1  0
 30 43  1  0
 30 44  1  0
 29 45  1  1
 28 46  1  0
 28 47  1  0
  8 48  1  0
 48 49  2  0
 49 50  1  0
 50 51  1  0
 50 52  2  0
 52 53  1  0
 53 54  2  0
 54 55  1  0
 55 56  2  0
 53 57  1  0
 52 58  1  0
 49 59  1  0
  7 60  1  0
  7 61  1  0
  5 62  1  0
  5 63  1  0
  2 64  1  0
  1 65  1  0
  1 66  1  0
  1 67  1  0
 55  6  1  0
 29  8  1  0
 35 33  1  0
 54 48  1  0
 21 12  1  0
 21 16  1  0
M  END
>  <cnnaffinities>  (14) 
[7.17503, 6.51865, 7.20437]

>  <score>  (14) 
7.17503

>  <index>  (14) 
13

>  <Smiles>  (14) 
C(N(C(=O)C(N1C([C@@]2(C(=O)N(c3c(nc(c4c(c(c(c(c34)[H])[H])[H])[H])[H])[H])C([C@@]2(C(OC(C2(C(C2([H])[H])([H])[H])[H])([H])[H])([H])[H])[H])([H])[H])c2c(c(Cl)c(c(c2C1=O)[H])[H])[H])([H])[H])([H])[H])[H])([H])([H])[H]

>  <h>  (14) 
<NA>

>  <Training>  (14) 
True

>  <Success>  (14) 
True

>  <enamine_searched>  (14) 
False

>  <enamine_id>  (14) 
nan

$$$$

     RDKit          3D

 67 73  0  0  0  0  0  0  0  0999 V2000
    7.3901   -2.4028   23.9114 C   0  0  0  0  0  0  0  0  0  0  0  0
    7.7625   -1.7731   22.5631 C   0  0  1  0  0  0  0  0  0  0  0  0
    6.5360   -1.5415   21.6532 C   0  0  0  0  0  0  0  0  0  0  0  0
    6.9238   -0.4127   20.8278 N   0  0  0  0  0  0  0  0  0  0  0  0
    6.1409    0.1102   19.7637 C   0  0  0  0  0  0  0  0  0  0  0  0
    6.4564   -0.2074   18.4693 C   0  0  0  0  0  0  0  0  0  0  0  0
    5.7683    0.2307   17.3894 N   0  0  0  0  0  0  0  0  0  0  0  0
    4.7458    1.0204   17.6003 C   0  0  0  0  0  0  0  0  0  0  0  0
    4.2945    1.4219   18.8890 C   0  0  0  0  0  0  0  0  0  0  0  0
    3.1645    2.2638   19.0689 C   0  0  0  0  0  0  0  0  0  0  0  0
    2.7570    2.6274   20.3218 C   0  0  0  0  0  0  0  0  0  0  0  0
    3.4569    2.1565   21.4538 C   0  0  0  0  0  0  0  0  0  0  0  0
    4.5606    1.3490   21.3077 C   0  0  0  0  0  0  0  0  0  0  0  0
    5.0121    0.9547   20.0178 C   0  0  0  0  0  0  0  0  0  0  0  0
    5.0919    1.0001   22.1877 H   0  0  0  0  0  0  0  0  0  0  0  0
    3.1251    2.4425   22.4476 H   0  0  0  0  0  0  0  0  0  0  0  0
    1.9064    3.2944   20.4467 H   0  0  0  0  0  0  0  0  0  0  0  0
    2.6482    2.6179   18.1814 H   0  0  0  0  0  0  0  0  0  0  0  0
    4.2172    1.3845   16.7193 H   0  0  0  0  0  0  0  0  0  0  0  0
    7.2999   -0.8616   18.2620 H   0  0  0  0  0  0  0  0  0  0  0  0
    8.0452    0.2524   21.2710 C   0  0  0  0  0  0  0  0  0  0  0  0
    8.5629    1.1861   20.6925 O   0  0  0  0  0  0  0  0  0  0  0  0
    8.4969   -0.3937   22.6064 C   0  0  1  0  0  0  0  0  0  0  0  0
    8.0457    0.4626   23.8117 C   0  0  0  0  0  0  0  0  0  0  0  0
    8.7303    1.7396   23.8552 N   0  0  0  0  0  0  0  0  0  0  0  0
    7.9706    2.9653   24.0259 C   0  0  0  0  0  0  0  0  0  0  0  0
    7.7008    3.6429   22.6797 C   0  0  0  0  0  0  0  0  0  0  0  0
    6.9472    4.9288   22.8275 N   0  0  2  0  0  4  0  0  0  0  0  0
    5.4599    4.7674   23.2096 C   0  0  0  0  0  0  0  0  0  0  0  0
    4.7364    5.5056   22.0728 C   0  0  2  0  0  0  0  0  0  0  0  0
    5.5881    5.1315   20.8578 C   0  0  0  0  0  0  0  0  0  0  0  0
    6.8431    5.7174   21.5206 C   0  0  1  0  0  0  0  0  0  0  0  0
    6.3371    7.1141   21.8581 C   0  0  0  0  0  0  0  0  0  0  0  0
    4.9613    6.9118   22.2176 O   0  0  0  0  0  0  0  0  0  0  0  0
    6.8824    7.5634   22.6955 H   0  0  0  0  0  0  0  0  0  0  0  0
    6.3890    7.7932   20.9977 H   0  0  0  0  0  0  0  0  0  0  0  0
    7.7936    5.6858   20.9995 H   0  0  0  0  0  0  0  0  0  0  0  0
    5.6224    4.0511   20.6595 H   0  0  0  0  0  0  0  0  0  0  0  0
    5.2960    5.6710   19.9526 H   0  0  0  0  0  0  0  0  0  0  0  0
    3.6608    5.3436   22.0243 H   0  0  0  0  0  0  0  0  0  0  0  0
    5.2155    3.7019   23.2261 H   0  0  0  0  0  0  0  0  0  0  0  0
    5.2761    5.2123   24.1847 H   0  0  0  0  0  0  0  0  0  0  0  0
    7.4504    5.4944   23.5373 H   0  0  0  0  0  0  0  0  0  0  0  0
    8.6563    3.8515   22.1819 H   0  0  0  0  0  0  0  0  0  0  0  0
    7.1322    2.9621   22.0335 H   0  0  0  0  0  0  0  0  0  0  0  0
    8.5440    3.6247   24.6842 H   0  0  0  0  0  0  0  0  0  0  0  0
    7.0266    2.6956   24.5182 H   0  0  0  0  0  0  0  0  0  0  0  0
   10.0919    1.8201   23.7557 C   0  0  0  0  0  0  0  0  0  0  0  0
   10.7140    2.8312   24.0510 O   0  0  0  0  0  0  0  0  0  0  0  0
   10.7584    0.5915   23.2076 C   0  0  0  0  0  0  0  0  0  0  0  0
   12.1472    0.5370   23.1792 C   0  0  0  0  0  0  0  0  0  0  0  0
   12.8090   -0.4818   22.5290 C   0  0  0  0  0  0  0  0  0  0  0  0
   12.0438   -1.4514   21.8729 C   0  0  0  0  0  0  0  0  0  0  0  0
   12.7210   -2.6820   20.8443 Cl  0  0  0  0  0  0  0  0  0  0  0  0
   10.6700   -1.4496   21.9532 C   0  0  0  0  0  0  0  0  0  0  0  0
   10.0022   -0.4454   22.6467 C   0  0  0  0  0  0  0  0  0  0  0  0
   10.1490   -2.2286   21.4101 H   0  0  0  0  0  0  0  0  0  0  0  0
   13.8912   -0.4698   22.5375 H   0  0  0  0  0  0  0  0  0  0  0  0
   12.6920    1.3436   23.6500 H   0  0  0  0  0  0  0  0  0  0  0  0
    6.9700    0.6533   23.7242 H   0  0  0  0  0  0  0  0  0  0  0  0
    8.2483   -0.1160   24.7300 H   0  0  0  0  0  0  0  0  0  0  0  0
    6.3035   -2.4136   21.0282 H   0  0  0  0  0  0  0  0  0  0  0  0
    5.6368   -1.3158   22.2488 H   0  0  0  0  0  0  0  0  0  0  0  0
    8.4280   -2.4651   22.0374 H   0  0  0  0  0  0  0  0  0  0  0  0
    8.2617   -2.5115   24.5701 H   0  0  0  0  0  0  0  0  0  0  0  0
    6.9487   -3.3986   23.7742 H   0  0  0  0  0  0  0  0  0  0  0  0
    6.6479   -1.7881   24.4387 H   0  0  0  0  0  0  0  0  0  0  0  0
  1  2  1  0
  2  3  1  0
  3  4  1  0
  4  5  1  0
  5  6  2  0
  6  7  1  0
  7  8  2  0
  8  9  1  0
  9 10  2  0
 10 11  1  0
 11 12  2  0
 12 13  1  0
 13 14  2  0
 13 15  1  0
 12 16  1  0
 11 17  1  0
 10 18  1  0
  8 19  1  0
  6 20  1  0
  4 21  1  0
 21 22  2  0
 21 23  1  0
 23 24  1  1
 24 25  1  0
 25 26  1  0
 26 27  1  0
 27 28  1  0
 28 29  1  0
 29 30  1  0
 30 31  1  0
 31 32  1  0
 32 33  1  0
 33 34  1  0
 33 35  1  0
 33 36  1  0
 32 37  1  6
 31 38  1  0
 31 39  1  0
 30 40  1  6
 29 41  1  0
 29 42  1  0
 28 43  1  1
 27 44  1  0
 27 45  1  0
 26 46  1  0
 26 47  1  0
 25 48  1  0
 48 49  2  0
 48 50  1  0
 50 51  2  0
 51 52  1  0
 52 53  2  0
 53 54  1  0
 53 55  1  0
 55 56  2  0
 55 57  1  0
 52 58  1  0
 51 59  1  0
 24 60  1  0
 24 61  1  0
  3 62  1  0
  3 63  1  0
  2 64  1  6
  1 65  1  0
  1 66  1  0
  1 67  1  0
 23  2  1  0
 32 28  1  0
 56 50  1  0
 14  5  1  0
 56 23  1  0
 14  9  1  0
 34 30  1  0
M  CHG  1  28   1
M  END
>  <cnnaffinities>  (15) 
[6.69854]

>  <score>  (15) 
6.69854

>  <index>  (15) 
14

>  <Smiles>  (15) 
C([C@]1(C(N(c2c(nc(c3c(c(c(c(c23)[H])[H])[H])[H])[H])[H])C(=O)[C@]21C(N(C(C([N@@+]1(C([C@@]3(C([C@]1(C(O3)([H])[H])[H])([H])[H])[H])([H])[H])[H])([H])[H])([H])[H])C(=O)c1c(c(c(Cl)c(c21)[H])[H])[H])([H])[H])([H])[H])[H])([H])([H])[H]

>  <h>  (15) 
<NA>

>  <Training>  (15) 
True

>  <Success>  (15) 
True

>  <enamine_searched>  (15) 
False

>  <enamine_id>  (15) 
nan

$$$$

     RDKit          3D

 72 77  0  0  0  0  0  0  0  0999 V2000
    5.1882    5.7202   20.0494 C   0  0  0  0  0  0  0  0  0  0  0  0
    5.6887    5.2328   21.4026 C   0  0  1  0  0  0  0  0  0  0  0  0
    6.8245    4.2314   21.1834 C   0  0  0  0  0  0  0  0  0  0  0  0
    7.7753    4.1311   22.3407 N   0  0  2  0  0  4  0  0  0  0  0  0
    7.0824    3.4170   23.4758 C   0  0  0  0  0  0  0  0  0  0  0  0
    8.0658    2.8430   24.4780 C   0  0  0  0  0  0  0  0  0  0  0  0
    8.7909    1.7227   23.9066 N   0  0  0  0  0  0  0  0  0  0  0  0
    8.1173    0.4395   23.8293 C   0  0  0  0  0  0  0  0  0  0  0  0
    8.5316   -0.3465   22.5578 C   0  0  2  0  0  0  0  0  0  0  0  0
    7.9861    0.3814   21.3037 C   0  0  0  0  0  0  0  0  0  0  0  0
    8.3640    1.4484   20.8503 O   0  0  0  0  0  0  0  0  0  0  0  0
    6.9510   -0.3679   20.7986 N   0  0  0  0  0  0  0  0  0  0  0  0
    6.1443    0.1262   19.7469 C   0  0  0  0  0  0  0  0  0  0  0  0
    6.4777   -0.1698   18.4542 C   0  0  0  0  0  0  0  0  0  0  0  0
    5.7892    0.2576   17.3759 N   0  0  0  0  0  0  0  0  0  0  0  0
    4.7460    1.0217   17.6000 C   0  0  0  0  0  0  0  0  0  0  0  0
    4.2900    1.4026   18.8945 C   0  0  0  0  0  0  0  0  0  0  0  0
    3.1639    2.2441   19.0800 C   0  0  0  0  0  0  0  0  0  0  0  0
    2.7681    2.6164   20.3367 C   0  0  0  0  0  0  0  0  0  0  0  0
    3.4685    2.1446   21.4680 C   0  0  0  0  0  0  0  0  0  0  0  0
    4.5486    1.3075   21.3191 C   0  0  0  0  0  0  0  0  0  0  0  0
    5.0001    0.9303   20.0209 C   0  0  0  0  0  0  0  0  0  0  0  0
    5.0783    0.9612   22.2020 H   0  0  0  0  0  0  0  0  0  0  0  0
    3.1475    2.4547   22.4571 H   0  0  0  0  0  0  0  0  0  0  0  0
    1.9138    3.2727   20.4632 H   0  0  0  0  0  0  0  0  0  0  0  0
    2.6441    2.5954   18.1955 H   0  0  0  0  0  0  0  0  0  0  0  0
    4.2075    1.3865   16.7283 H   0  0  0  0  0  0  0  0  0  0  0  0
    7.3481   -0.7965   18.2704 H   0  0  0  0  0  0  0  0  0  0  0  0
    6.5754   -1.5083   21.6123 C   0  0  0  0  0  0  0  0  0  0  0  0
    7.8240   -1.7355   22.4755 C   0  0  2  0  0  0  0  0  0  0  0  0
    7.5178   -2.4221   23.8015 C   0  0  0  0  0  0  0  0  0  0  0  0
    7.0941   -3.4156   23.6197 H   0  0  0  0  0  0  0  0  0  0  0  0
    8.4325   -2.5355   24.3933 H   0  0  0  0  0  0  0  0  0  0  0  0
    6.7938   -1.8474   24.3939 H   0  0  0  0  0  0  0  0  0  0  0  0
    8.4740   -2.4016   21.9004 H   0  0  0  0  0  0  0  0  0  0  0  0
    6.3448   -2.3763   20.9854 H   0  0  0  0  0  0  0  0  0  0  0  0
    5.6792   -1.3127   22.2250 H   0  0  0  0  0  0  0  0  0  0  0  0
   10.0424   -0.3806   22.4857 C   0  0  0  0  0  0  0  0  0  0  0  0
   10.6952   -1.3273   21.6908 C   0  0  0  0  0  0  0  0  0  0  0  0
   12.0662   -1.2741   21.5453 C   0  0  0  0  0  0  0  0  0  0  0  0
   12.8479   -2.3649   20.4397 Cl  0  0  0  0  0  0  0  0  0  0  0  0
   12.8332   -0.3284   22.2267 C   0  0  0  0  0  0  0  0  0  0  0  0
   12.1941    0.6176   22.9987 C   0  0  0  0  0  0  0  0  0  0  0  0
   10.8012    0.6389   23.0748 C   0  0  0  0  0  0  0  0  0  0  0  0
   10.1398    1.8190   23.7288 C   0  0  0  0  0  0  0  0  0  0  0  0
   10.7866    2.8116   24.0446 O   0  0  0  0  0  0  0  0  0  0  0  0
   12.7521    1.3743   23.5376 H   0  0  0  0  0  0  0  0  0  0  0  0
   13.9113   -0.3312   22.1161 H   0  0  0  0  0  0  0  0  0  0  0  0
   10.1524   -2.0951   21.1491 H   0  0  0  0  0  0  0  0  0  0  0  0
    8.3409   -0.1613   24.7248 H   0  0  0  0  0  0  0  0  0  0  0  0
    7.0370    0.6118   23.8119 H   0  0  0  0  0  0  0  0  0  0  0  0
    7.5353    2.5217   25.3804 H   0  0  0  0  0  0  0  0  0  0  0  0
    8.8107    3.5807   24.7669 H   0  0  0  0  0  0  0  0  0  0  0  0
    6.3839    4.1114   23.9544 H   0  0  0  0  0  0  0  0  0  0  0  0
    6.5099    2.5899   23.0377 H   0  0  0  0  0  0  0  0  0  0  0  0
    8.3012    5.5303   22.7438 C   0  0  1  0  0  0  0  0  0  0  0  0
    9.7831    5.7586   22.4966 C   0  0  0  0  0  0  0  0  0  0  0  0
   10.0478    6.7365   22.9118 H   0  0  0  0  0  0  0  0  0  0  0  0
   10.0396    5.7865   21.4345 H   0  0  0  0  0  0  0  0  0  0  0  0
   10.3758    4.9857   22.9893 H   0  0  0  0  0  0  0  0  0  0  0  0
    7.4378    6.6231   22.1091 C   0  0  0  0  0  0  0  0  0  0  0  0
    6.0737    6.3032   22.2600 O   0  0  0  0  0  0  0  0  0  0  0  0
    7.6161    7.5735   22.6243 H   0  0  0  0  0  0  0  0  0  0  0  0
    7.6931    6.7601   21.0467 H   0  0  0  0  0  0  0  0  0  0  0  0
    8.1360    5.5733   23.8231 H   0  0  0  0  0  0  0  0  0  0  0  0
    8.5547    3.5292   21.9969 H   0  0  0  0  0  0  0  0  0  0  0  0
    7.4131    4.5020   20.3049 H   0  0  0  0  0  0  0  0  0  0  0  0
    6.3920    3.2512   20.9734 H   0  0  0  0  0  0  0  0  0  0  0  0
    4.8837    4.7348   21.9571 H   0  0  0  0  0  0  0  0  0  0  0  0
    4.7337    4.8810   19.5146 H   0  0  0  0  0  0  0  0  0  0  0  0
    4.4404    6.5028   20.1762 H   0  0  0  0  0  0  0  0  0  0  0  0
    6.0209    6.1122   19.4483 H   0  0  0  0  0  0  0  0  0  0  0  0
  1  2  1  0
  2  3  1  0
  3  4  1  0
  4  5  1  0
  5  6  1  0
  6  7  1  0
  7  8  1  0
  9  8  1  1
  9 10  1  0
 10 11  2  0
 10 12  1  0
 12 13  1  0
 13 14  2  0
 14 15  1  0
 15 16  2  0
 16 17  1  0
 17 18  2  0
 18 19  1  0
 19 20  2  0
 20 21  1  0
 21 22  2  0
 21 23  1  0
 20 24  1  0
 19 25  1  0
 18 26  1  0
 16 27  1  0
 14 28  1  0
 12 29  1  0
 29 30  1  0
 30 31  1  0
 31 32  1  0
 31 33  1  0
 31 34  1  0
 30 35  1  6
 29 36  1  0
 29 37  1  0
  9 38  1  0
 38 39  2  0
 39 40  1  0
 40 41  1  0
 40 42  2  0
 42 43  1  0
 43 44  2  0
 44 45  1  0
 45 46  2  0
 43 47  1  0
 42 48  1  0
 39 49  1  0
  8 50  1  0
  8 51  1  0
  6 52  1  0
  6 53  1  0
  5 54  1  0
  5 55  1  0
  4 56  1  0
 56 57  1  0
 57 58  1  0
 57 59  1  0
 57 60  1  0
 56 61  1  0
 61 62  1  0
 61 63  1  0
 61 64  1  0
 56 65  1  1
  4 66  1  6
  3 67  1  0
  3 68  1  0
  2 69  1  1
  1 70  1  0
  1 71  1  0
  1 72  1  0
 62  2  1  0
 45  7  1  0
 30  9  1  0
 44 38  1  0
 22 13  1  0
 22 17  1  0
M  CHG  1   4   1
M  END
>  <cnnaffinities>  (16) 
[6.80307]

>  <score>  (16) 
6.80307

>  <index>  (16) 
15

>  <Smiles>  (16) 
C([C@]1(C([N@+](C(C(N2C([C@@]3(C(=O)N(c4c(nc(c5c(c(c(c(c45)[H])[H])[H])[H])[H])[H])C([C@@]3(C([H])([H])[H])[H])([H])[H])c3c(c(Cl)c(c(c3C2=O)[H])[H])[H])([H])[H])([H])[H])([H])[H])([C@@](C([H])([H])[H])(C(O1)([H])[H])[H])[H])([H])[H])[H])([H])([H])[H]

>  <h>  (16) 
<NA>

>  <Training>  (16) 
True

>  <Success>  (16) 
True

>  <enamine_searched>  (16) 
False

>  <enamine_id>  (16) 
nan

$$$$

     RDKit          3D

 47 50  0  0  0  0  0  0  0  0999 V2000
    7.1253   -4.7468   25.2883 C   0  0  0  0  0  0  0  0  0  0  0  0
    6.6083   -3.3792   24.8582 C   0  0  1  0  0  0  0  0  0  0  0  0
    7.6749   -2.2832   24.9344 C   0  0  0  0  0  0  0  0  0  0  0  0
    7.3650   -1.2917   23.7999 C   0  0  2  0  0  0  0  0  0  0  0  0
    6.6570   -0.0449   24.2965 C   0  0  0  0  0  0  0  0  0  0  0  0
    7.3497    1.1611   24.3873 C   0  0  0  0  0  0  0  0  0  0  0  0
    6.7192    2.3096   24.8530 C   0  0  0  0  0  0  0  0  0  0  0  0
    5.3870    2.2595   25.2523 C   0  0  0  0  0  0  0  0  0  0  0  0
    4.6990    1.0503   25.1978 C   0  0  0  0  0  0  0  0  0  0  0  0
    5.3320   -0.0925   24.7288 C   0  0  0  0  0  0  0  0  0  0  0  0
    4.7802   -1.0271   24.6985 H   0  0  0  0  0  0  0  0  0  0  0  0
    3.6608    0.9978   25.5104 H   0  0  0  0  0  0  0  0  0  0  0  0
    4.8876    3.1562   25.6021 H   0  0  0  0  0  0  0  0  0  0  0  0
    7.2679    3.2444   24.8885 H   0  0  0  0  0  0  0  0  0  0  0  0
    8.3927    1.2007   24.0806 H   0  0  0  0  0  0  0  0  0  0  0  0
    6.5641   -2.0654   22.8608 N   0  0  0  0  0  0  0  0  0  0  0  0
    6.2340   -1.7224   21.5776 C   0  0  0  0  0  0  0  0  0  0  0  0
    5.4448   -2.4046   20.9374 O   0  0  0  0  0  0  0  0  0  0  0  0
    6.9114   -0.4917   20.9246 C   0  0  0  0  0  0  0  0  0  0  0  0
    6.1131    0.0839   19.7752 C   0  0  0  0  0  0  0  0  0  0  0  0
    6.4201   -0.2153   18.4725 C   0  0  0  0  0  0  0  0  0  0  0  0
    5.7538    0.2401   17.3760 N   0  0  0  0  0  0  0  0  0  0  0  0
    4.7346    1.0338   17.5796 C   0  0  0  0  0  0  0  0  0  0  0  0
    4.2832    1.4220   18.8713 C   0  0  0  0  0  0  0  0  0  0  0  0
    3.1604    2.2683   19.0505 C   0  0  0  0  0  0  0  0  0  0  0  0
    2.7495    2.6276   20.3011 C   0  0  0  0  0  0  0  0  0  0  0  0
    3.4469    2.1371   21.4319 C   0  0  0  0  0  0  0  0  0  0  0  0
    4.5337    1.3116   21.2947 C   0  0  0  0  0  0  0  0  0  0  0  0
    4.9889    0.9352   20.0039 C   0  0  0  0  0  0  0  0  0  0  0  0
    5.0482    0.9468   22.1845 H   0  0  0  0  0  0  0  0  0  0  0  0
    3.1121    2.4257   22.4213 H   0  0  0  0  0  0  0  0  0  0  0  0
    1.8951    3.2860   20.4380 H   0  0  0  0  0  0  0  0  0  0  0  0
    2.6408    2.6369   18.1669 H   0  0  0  0  0  0  0  0  0  0  0  0
    4.2016    1.4001   16.6968 H   0  0  0  0  0  0  0  0  0  0  0  0
    7.2639   -0.8654   18.2430 H   0  0  0  0  0  0  0  0  0  0  0  0
    7.8735   -0.8360   20.5203 H   0  0  0  0  0  0  0  0  0  0  0  0
    7.1526    0.2911   21.6548 H   0  0  0  0  0  0  0  0  0  0  0  0
    6.1063   -3.3375   23.4108 C   0  0  0  0  0  0  0  0  0  0  0  0
    6.5189   -4.1590   22.8208 H   0  0  0  0  0  0  0  0  0  0  0  0
    5.0186   -3.4438   23.3461 H   0  0  0  0  0  0  0  0  0  0  0  0
    8.2978   -0.9926   23.3155 H   0  0  0  0  0  0  0  0  0  0  0  0
    8.6694   -2.7183   24.8035 H   0  0  0  0  0  0  0  0  0  0  0  0
    7.6905   -1.7957   25.9103 H   0  0  0  0  0  0  0  0  0  0  0  0
    5.7863   -3.1126   25.5289 H   0  0  0  0  0  0  0  0  0  0  0  0
    7.4986   -4.7443   26.3177 H   0  0  0  0  0  0  0  0  0  0  0  0
    7.9591   -5.0576   24.6527 H   0  0  0  0  0  0  0  0  0  0  0  0
    6.3557   -5.5210   25.2203 H   0  0  0  0  0  0  0  0  0  0  0  0
  1  2  1  0
  2  3  1  0
  3  4  1  0
  4  5  1  0
  5  6  2  0
  6  7  1  0
  7  8  2  0
  8  9  1  0
  9 10  2  0
 10 11  1  0
  9 12  1  0
  8 13  1  0
  7 14  1  0
  6 15  1  0
  4 16  1  0
 16 17  1  0
 17 18  2  0
 17 19  1  0
 19 20  1  0
 20 21  2  0
 21 22  1  0
 22 23  2  0
 23 24  1  0
 24 25  2  0
 25 26  1  0
 26 27  2  0
 27 28  1  0
 28 29  2  0
 28 30  1  0
 27 31  1  0
 26 32  1  0
 25 33  1  0
 23 34  1  0
 21 35  1  0
 19 36  1  0
 19 37  1  0
 16 38  1  0
 38 39  1  0
 38 40  1  0
  4 41  1  6
  3 42  1  0
  3 43  1  0
  2 44  1  1
  1 45  1  0
  1 46  1  0
  1 47  1  0
 38  2  1  0
 10  5  1  0
 29 20  1  0
 29 24  1  0
M  END
>  <cnnaffinities>  (17) 
[5.59373]

>  <score>  (17) 
5.59373

>  <index>  (17) 
16

>  <Smiles>  (17) 
C([C@]1(C([C@](c2c(c(c(c(c2[H])[H])[H])[H])[H])(N(C(=O)C(c2c(nc(c3c(c(c(c(c23)[H])[H])[H])[H])[H])[H])([H])[H])C1([H])[H])[H])([H])[H])[H])([H])([H])[H]

>  <h>  (17) 
<NA>

>  <Training>  (17) 
True

>  <Success>  (17) 
True

>  <enamine_searched>  (17) 
False

>  <enamine_id>  (17) 
nan

$$$$

     RDKit          3D

 58 63  0  0  0  0  0  0  0  0999 V2000
    7.1677   -2.3650   23.5435 C   0  0  0  0  0  0  0  0  0  0  0  0
    7.9926   -1.8473   22.3598 C   0  0  1  0  0  0  0  0  0  0  0  0
    7.1496   -1.7390   21.0773 C   0  0  0  0  0  0  0  0  0  0  0  0
    6.9118   -0.3248   20.9109 N   0  0  0  0  0  0  0  0  0  0  0  0
    6.1404    0.1363   19.8150 C   0  0  0  0  0  0  0  0  0  0  0  0
    6.4527   -0.2197   18.5248 C   0  0  0  0  0  0  0  0  0  0  0  0
    5.7848    0.2147   17.4300 N   0  0  0  0  0  0  0  0  0  0  0  0
    4.7588    1.0065   17.6208 C   0  0  0  0  0  0  0  0  0  0  0  0
    4.2911    1.3998   18.9064 C   0  0  0  0  0  0  0  0  0  0  0  0
    3.1539    2.2321   19.0683 C   0  0  0  0  0  0  0  0  0  0  0  0
    2.7281    2.5881   20.3158 C   0  0  0  0  0  0  0  0  0  0  0  0
    3.3975    2.1092   21.4637 C   0  0  0  0  0  0  0  0  0  0  0  0
    4.4969    1.2945   21.3359 C   0  0  0  0  0  0  0  0  0  0  0  0
    4.9843    0.9430   20.0481 C   0  0  0  0  0  0  0  0  0  0  0  0
    4.9978    0.8987   22.2151 H   0  0  0  0  0  0  0  0  0  0  0  0
    3.0490    2.4033   22.4493 H   0  0  0  0  0  0  0  0  0  0  0  0
    1.8704    3.2447   20.4294 H   0  0  0  0  0  0  0  0  0  0  0  0
    2.6449    2.5832   18.1751 H   0  0  0  0  0  0  0  0  0  0  0  0
    4.2369    1.3712   16.7365 H   0  0  0  0  0  0  0  0  0  0  0  0
    7.3021   -0.8716   18.3190 H   0  0  0  0  0  0  0  0  0  0  0  0
    7.8432    0.4632   21.5637 C   0  0  0  0  0  0  0  0  0  0  0  0
    7.9753    1.6546   21.3932 O   0  0  0  0  0  0  0  0  0  0  0  0
    8.6610   -0.4433   22.5272 C   0  0  1  0  0  0  0  0  0  0  0  0
    8.5616    0.1004   23.9666 C   0  0  0  0  0  0  0  0  0  0  0  0
    9.2441    1.3743   24.1103 N   0  0  0  0  0  0  0  0  0  0  0  0
    8.5790    2.4137   24.8610 C   0  0  0  0  0  0  0  0  0  0  0  0
    7.4570    3.0917   24.1361 C   0  0  0  0  0  0  0  0  0  0  0  0
    6.1876    2.8755   24.3838 N   0  0  0  0  0  0  0  0  0  0  0  0
    5.4625    3.7295   23.5917 N   0  0  0  0  0  0  0  0  0  0  0  0
    6.3167    4.4262   22.8975 C   0  0  0  0  0  0  0  0  0  0  0  0
    7.6018    4.0829   23.2158 N   0  0  0  0  0  0  0  0  0  0  0  0
    8.8606    4.6518   22.7558 C   0  0  0  0  0  0  0  0  0  0  0  0
    9.5102    4.8551   23.6143 H   0  0  0  0  0  0  0  0  0  0  0  0
    8.6593    5.5953   22.2460 H   0  0  0  0  0  0  0  0  0  0  0  0
    9.3697    3.9741   22.0637 H   0  0  0  0  0  0  0  0  0  0  0  0
    6.0533    5.1717   22.1572 H   0  0  0  0  0  0  0  0  0  0  0  0
    9.3451    3.1239   25.1835 H   0  0  0  0  0  0  0  0  0  0  0  0
    8.0997    1.9606   25.7225 H   0  0  0  0  0  0  0  0  0  0  0  0
   10.5010    1.5980   23.6332 C   0  0  0  0  0  0  0  0  0  0  0  0
   11.1895    2.5505   24.0007 O   0  0  0  0  0  0  0  0  0  0  0  0
   10.9976    0.5785   22.6637 C   0  0  0  0  0  0  0  0  0  0  0  0
   12.3511    0.6058   22.3286 C   0  0  0  0  0  0  0  0  0  0  0  0
   12.9186   -0.3893   21.5474 C   0  0  0  0  0  0  0  0  0  0  0  0
   12.0745   -1.4118   21.1121 C   0  0  0  0  0  0  0  0  0  0  0  0
   12.5629   -2.4229   20.3734 F   0  0  0  0  0  0  0  0  0  0  0  0
   10.7218   -1.4259   21.3890 C   0  0  0  0  0  0  0  0  0  0  0  0
   10.1486   -0.4329   22.1849 C   0  0  0  0  0  0  0  0  0  0  0  0
   10.1284   -2.2016   20.9159 H   0  0  0  0  0  0  0  0  0  0  0  0
   13.9710   -0.3829   21.2736 H   0  0  0  0  0  0  0  0  0  0  0  0
   12.9354    1.4456   22.6921 H   0  0  0  0  0  0  0  0  0  0  0  0
    8.9998   -0.6403   24.6487 H   0  0  0  0  0  0  0  0  0  0  0  0
    7.5205    0.2612   24.2516 H   0  0  0  0  0  0  0  0  0  0  0  0
    6.1958   -2.2719   21.1521 H   0  0  0  0  0  0  0  0  0  0  0  0
    7.6910   -2.1335   20.2119 H   0  0  0  0  0  0  0  0  0  0  0  0
    8.7707   -2.5991   22.2281 H   0  0  0  0  0  0  0  0  0  0  0  0
    7.7832   -2.4617   24.4440 H   0  0  0  0  0  0  0  0  0  0  0  0
    6.3189   -1.7120   23.7699 H   0  0  0  0  0  0  0  0  0  0  0  0
    6.7783   -3.3627   23.3110 H   0  0  0  0  0  0  0  0  0  0  0  0
  1  2  1  0
  2  3  1  0
  3  4  1  0
  4  5  1  0
  5  6  2  0
  6  7  1  0
  7  8  2  0
  8  9  1  0
  9 10  2  0
 10 11  1  0
 11 12  2  0
 12 13  1  0
 13 14  2  0
 13 15  1  0
 12 16  1  0
 11 17  1  0
 10 18  1  0
  8 19  1  0
  6 20  1  0
  4 21  1  0
 21 22  2  0
 21 23  1  0
 23 24  1  1
 24 25  1  0
 25 26  1  0
 26 27  1  0
 27 28  2  0
 28 29  1  0
 29 30  2  0
 30 31  1  0
 31 32  1  0
 32 33  1  0
 32 34  1  0
 32 35  1  0
 30 36  1  0
 26 37  1  0
 26 38  1  0
 25 39  1  0
 39 40  2  0
 39 41  1  0
 41 42  2  0
 42 43  1  0
 43 44  2  0
 44 45  1  0
 44 46  1  0
 46 47  2  0
 46 48  1  0
 43 49  1  0
 42 50  1  0
 24 51  1  0
 24 52  1  0
  3 53  1  0
  3 54  1  0
  2 55  1  6
  1 56  1  0
  1 57  1  0
  1 58  1  0
 23  2  1  0
 31 27  1  0
 47 41  1  0
 14  5  1  0
 47 23  1  0
 14  9  1  0
M  END
>  <cnnaffinities>  (18) 
[6.49866, 5.89892]

>  <score>  (18) 
6.49866

>  <index>  (18) 
17

>  <Smiles>  (18) 
C([C@]1(C(N(c2c(nc(c3c(c(c(c(c23)[H])[H])[H])[H])[H])[H])C(=O)[C@]21C(N(C(c1nnc(n1C([H])([H])[H])[H])([H])[H])C(=O)c1c(c(c(F)c(c21)[H])[H])[H])([H])[H])([H])[H])[H])([H])([H])[H]

>  <h>  (18) 
<NA>

>  <Training>  (18) 
True

>  <Success>  (18) 
True

>  <enamine_searched>  (18) 
False

>  <enamine_id>  (18) 
nan

$$$$

     RDKit          3D

 50 53  0  0  0  0  0  0  0  0999 V2000
    3.9010   -1.8263   29.3972 C   0  0  0  0  0  0  0  0  0  0  0  0
    3.9694   -2.1646   27.9152 C   0  0  1  0  0  0  0  0  0  0  0  0
    4.0174   -0.9054   27.0491 C   0  0  0  0  0  0  0  0  0  0  0  0
    4.1270   -1.2249   25.5559 C   0  0  0  0  0  0  0  0  0  0  0  0
    5.2873   -2.1855   25.1959 C   0  0  2  0  0  0  0  0  0  0  0  0
    6.6536   -1.4724   25.2926 C   0  0  0  0  0  0  0  0  0  0  0  0
    6.9252   -0.8662   23.9100 C   0  0  0  0  0  0  0  0  0  0  0  0
    6.0984   -1.6409   22.9923 N   0  0  0  0  0  0  0  0  0  0  0  0
    6.1460   -1.6292   21.6268 C   0  0  0  0  0  0  0  0  0  0  0  0
    5.5833   -2.4857   20.9630 O   0  0  0  0  0  0  0  0  0  0  0  0
    6.9093   -0.4856   20.9200 C   0  0  0  0  0  0  0  0  0  0  0  0
    6.1154    0.0918   19.7691 C   0  0  0  0  0  0  0  0  0  0  0  0
    6.4211   -0.2140   18.4663 C   0  0  0  0  0  0  0  0  0  0  0  0
    5.7549    0.2392   17.3722 N   0  0  0  0  0  0  0  0  0  0  0  0
    4.7338    1.0340   17.5766 C   0  0  0  0  0  0  0  0  0  0  0  0
    4.2845    1.4235   18.8700 C   0  0  0  0  0  0  0  0  0  0  0  0
    3.1587    2.2691   19.0468 C   0  0  0  0  0  0  0  0  0  0  0  0
    2.7473    2.6255   20.3027 C   0  0  0  0  0  0  0  0  0  0  0  0
    3.4405    2.1409   21.4332 C   0  0  0  0  0  0  0  0  0  0  0  0
    4.5322    1.3193   21.2886 C   0  0  0  0  0  0  0  0  0  0  0  0
    4.9894    0.9410   19.9969 C   0  0  0  0  0  0  0  0  0  0  0  0
    5.0483    0.9558   22.1724 H   0  0  0  0  0  0  0  0  0  0  0  0
    3.1057    2.4252   22.4249 H   0  0  0  0  0  0  0  0  0  0  0  0
    1.8907    3.2796   20.4362 H   0  0  0  0  0  0  0  0  0  0  0  0
    2.6371    2.6373   18.1670 H   0  0  0  0  0  0  0  0  0  0  0  0
    4.1991    1.4005   16.6985 H   0  0  0  0  0  0  0  0  0  0  0  0
    7.2656   -0.8671   18.2472 H   0  0  0  0  0  0  0  0  0  0  0  0
    7.8356   -0.9158   20.5175 H   0  0  0  0  0  0  0  0  0  0  0  0
    7.2119    0.3112   21.6096 H   0  0  0  0  0  0  0  0  0  0  0  0
    5.2338   -2.5813   23.7014 C   0  0  0  0  0  0  0  0  0  0  0  0
    5.5697   -3.6133   23.5497 H   0  0  0  0  0  0  0  0  0  0  0  0
    4.2165   -2.5396   23.3111 H   0  0  0  0  0  0  0  0  0  0  0  0
    7.9832   -0.9509   23.6510 H   0  0  0  0  0  0  0  0  0  0  0  0
    6.6511    0.1944   23.8878 H   0  0  0  0  0  0  0  0  0  0  0  0
    6.6772   -0.7044   26.0701 H   0  0  0  0  0  0  0  0  0  0  0  0
    7.4349   -2.1936   25.5541 H   0  0  0  0  0  0  0  0  0  0  0  0
    5.2164   -3.4243   26.1118 C   0  0  0  0  0  0  0  0  0  0  0  0
    5.1542   -3.0770   27.5990 C   0  0  0  0  0  0  0  0  0  0  0  0
    5.0914   -3.9942   28.1992 H   0  0  0  0  0  0  0  0  0  0  0  0
    6.0866   -2.5833   27.9017 H   0  0  0  0  0  0  0  0  0  0  0  0
    4.3270   -4.0140   25.8507 H   0  0  0  0  0  0  0  0  0  0  0  0
    6.0769   -4.0774   25.9184 H   0  0  0  0  0  0  0  0  0  0  0  0
    3.1812   -1.6859   25.2436 H   0  0  0  0  0  0  0  0  0  0  0  0
    4.2225   -0.2977   24.9774 H   0  0  0  0  0  0  0  0  0  0  0  0
    3.1213   -0.2973   27.2313 H   0  0  0  0  0  0  0  0  0  0  0  0
    4.8640   -0.2822   27.3636 H   0  0  0  0  0  0  0  0  0  0  0  0
    3.0563   -2.7116   27.6474 H   0  0  0  0  0  0  0  0  0  0  0  0
    3.0367   -1.1950   29.6233 H   0  0  0  0  0  0  0  0  0  0  0  0
    3.8335   -2.7309   30.0091 H   0  0  0  0  0  0  0  0  0  0  0  0
    4.7999   -1.2838   29.7065 H   0  0  0  0  0  0  0  0  0  0  0  0
  1  2  1  0
  2  3  1  0
  3  4  1  0
  5  4  1  1
  5  6  1  0
  6  7  1  0
  7  8  1  0
  8  9  1  0
  9 10  2  0
  9 11  1  0
 11 12  1  0
 12 13  2  0
 13 14  1  0
 14 15  2  0
 15 16  1  0
 16 17  2  0
 17 18  1  0
 18 19  2  0
 19 20  1  0
 20 21  2  0
 20 22  1  0
 19 23  1  0
 18 24  1  0
 17 25  1  0
 15 26  1  0
 13 27  1  0
 11 28  1  0
 11 29  1  0
  8 30  1  0
 30 31  1  0
 30 32  1  0
  7 33  1  0
  7 34  1  0
  6 35  1  0
  6 36  1  0
  5 37  1  0
 37 38  1  0
 38 39  1  0
 38 40  1  0
 37 41  1  0
 37 42  1  0
  4 43  1  0
  4 44  1  0
  3 45  1  0
  3 46  1  0
  2 47  1  6
  1 48  1  0
  1 49  1  0
  1 50  1  0
 38  2  1  0
 30  5  1  0
 21 12  1  0
 21 16  1  0
M  END
>  <cnnaffinities>  (19) 
[5.42446]

>  <score>  (19) 
5.42446

>  <index>  (19) 
18

>  <Smiles>  (19) 
C([C@]1(C(C([C@@]2(C(C(N(C(=O)C(c3c(nc(c4c(c(c(c(c34)[H])[H])[H])[H])[H])[H])([H])[H])C2([H])[H])([H])[H])([H])[H])C(C1([H])[H])([H])[H])([H])[H])([H])[H])[H])([H])([H])[H]

>  <h>  (19) 
<NA>

>  <Training>  (19) 
True

>  <Success>  (19) 
True

>  <enamine_searched>  (19) 
False

>  <enamine_id>  (19) 
nan

$$$$

     RDKit          3D

 67 71  0  0  0  0  0  0  0  0999 V2000
    3.6061   -5.2756   21.8695 O   0  0  0  0  0  0  0  0  0  0  0  0
    4.1761   -5.8482   22.7899 C   0  0  0  0  0  0  0  0  0  0  0  0
    5.6906   -5.6976   22.8737 C   0  0  0  0  0  0  0  0  0  0  0  0
    5.9137   -4.2227   22.7826 N   0  0  1  0  0  4  0  0  0  0  0  0
    5.1947   -3.5943   23.9514 C   0  0  0  0  0  0  0  0  0  0  0  0
    5.5269   -2.1564   24.2442 C   0  0  0  0  0  0  0  0  0  0  0  0
    4.7266   -1.4480   25.1444 C   0  0  0  0  0  0  0  0  0  0  0  0
    5.0704   -0.1670   25.5510 C   0  0  0  0  0  0  0  0  0  0  0  0
    6.2398    0.4004   25.0501 C   0  0  0  0  0  0  0  0  0  0  0  0
    6.6962    2.0067   25.5547 Cl  0  0  0  0  0  0  0  0  0  0  0  0
    7.0238   -0.2757   24.1256 C   0  0  0  0  0  0  0  0  0  0  0  0
    6.6453   -1.5489   23.6899 C   0  0  0  0  0  0  0  0  0  0  0  0
    7.3483   -2.2401   22.5407 C   0  0  2  0  0  0  0  0  0  0  0  0
    6.6246   -1.8628   21.2379 C   0  0  0  0  0  0  0  0  0  0  0  0
    5.9230   -2.6519   20.6220 O   0  0  0  0  0  0  0  0  0  0  0  0
    6.8040   -0.5590   20.8381 N   0  0  0  0  0  0  0  0  0  0  0  0
    6.0845    0.0186   19.7643 C   0  0  0  0  0  0  0  0  0  0  0  0
    6.4282   -0.2634   18.4698 C   0  0  0  0  0  0  0  0  0  0  0  0
    5.7869    0.2347   17.3848 N   0  0  0  0  0  0  0  0  0  0  0  0
    4.7657    1.0286   17.5932 C   0  0  0  0  0  0  0  0  0  0  0  0
    4.3055    1.4093   18.8872 C   0  0  0  0  0  0  0  0  0  0  0  0
    3.1763    2.2470   19.0658 C   0  0  0  0  0  0  0  0  0  0  0  0
    2.7677    2.5977   20.3228 C   0  0  0  0  0  0  0  0  0  0  0  0
    3.4577    2.1135   21.4553 C   0  0  0  0  0  0  0  0  0  0  0  0
    4.5427    1.2850   21.3127 C   0  0  0  0  0  0  0  0  0  0  0  0
    4.9924    0.9127   20.0143 C   0  0  0  0  0  0  0  0  0  0  0  0
    5.0417    0.8957   22.1965 H   0  0  0  0  0  0  0  0  0  0  0  0
    3.1194    2.4006   22.4463 H   0  0  0  0  0  0  0  0  0  0  0  0
    1.9118    3.2507   20.4546 H   0  0  0  0  0  0  0  0  0  0  0  0
    2.6533    2.5987   18.1830 H   0  0  0  0  0  0  0  0  0  0  0  0
    4.2411    1.4100   16.7172 H   0  0  0  0  0  0  0  0  0  0  0  0
    7.2727   -0.9227   18.2821 H   0  0  0  0  0  0  0  0  0  0  0  0
    7.1888    0.0908   21.5118 H   0  0  0  0  0  0  0  0  0  0  0  0
    7.3294   -3.7631   22.6967 C   0  0  0  0  0  0  0  0  0  0  0  0
    7.8193   -4.2217   21.8357 H   0  0  0  0  0  0  0  0  0  0  0  0
    7.8812   -4.0707   23.5915 H   0  0  0  0  0  0  0  0  0  0  0  0
    8.3798   -1.8734   22.4818 H   0  0  0  0  0  0  0  0  0  0  0  0
    7.9308    0.1922   23.7542 H   0  0  0  0  0  0  0  0  0  0  0  0
    4.4588    0.3810   26.2613 H   0  0  0  0  0  0  0  0  0  0  0  0
    3.8249   -1.9075   25.5458 H   0  0  0  0  0  0  0  0  0  0  0  0
    5.4117   -4.1961   24.8424 H   0  0  0  0  0  0  0  0  0  0  0  0
    4.1201   -3.6701   23.7745 H   0  0  0  0  0  0  0  0  0  0  0  0
    5.4477   -3.9144   21.8960 H   0  0  0  0  0  0  0  0  0  0  0  0
    6.1034   -6.0967   23.8103 H   0  0  0  0  0  0  0  0  0  0  0  0
    6.1360   -6.2110   22.0149 H   0  0  0  0  0  0  0  0  0  0  0  0
    3.5184   -6.4749   23.7931 N   0  0  0  0  0  0  0  0  0  0  0  0
    2.0793   -6.7006   23.7023 C   0  0  0  0  0  0  0  0  0  0  0  0
    1.2868   -5.3830   23.6208 C   0  0  0  0  0  0  0  0  0  0  0  0
   -0.2073   -5.5771   23.5811 C   0  0  0  0  0  0  0  0  0  0  0  0
   -0.9383   -5.6154   24.7691 C   0  0  0  0  0  0  0  0  0  0  0  0
   -2.3119   -5.8329   24.7574 C   0  0  0  0  0  0  0  0  0  0  0  0
   -2.9836   -6.0157   23.5526 C   0  0  0  0  0  0  0  0  0  0  0  0
   -4.4634   -6.2482   23.5369 C   0  0  0  0  0  0  0  0  0  0  0  0
   -5.0830   -5.3348   22.7340 F   0  0  0  0  0  0  0  0  0  0  0  0
   -4.7399   -7.4774   23.0121 F   0  0  0  0  0  0  0  0  0  0  0  0
   -4.9134   -6.1908   24.5358 H   0  0  0  0  0  0  0  0  0  0  0  0
   -2.2632   -5.9787   22.3589 C   0  0  0  0  0  0  0  0  0  0  0  0
   -0.8898   -5.7567   22.3737 C   0  0  0  0  0  0  0  0  0  0  0  0
   -0.3512   -5.7070   21.4269 H   0  0  0  0  0  0  0  0  0  0  0  0
   -2.7831   -6.1062   21.4138 H   0  0  0  0  0  0  0  0  0  0  0  0
   -2.8596   -5.8409   25.6989 H   0  0  0  0  0  0  0  0  0  0  0  0
   -0.4229   -5.4619   25.7157 H   0  0  0  0  0  0  0  0  0  0  0  0
    1.5557   -4.7465   24.4758 H   0  0  0  0  0  0  0  0  0  0  0  0
    1.6292   -4.8702   22.7206 H   0  0  0  0  0  0  0  0  0  0  0  0
    1.7665   -7.2939   24.5645 H   0  0  0  0  0  0  0  0  0  0  0  0
    1.8464   -7.2962   22.8091 H   0  0  0  0  0  0  0  0  0  0  0  0
    4.0319   -6.7893   24.6007 H   0  0  0  0  0  0  0  0  0  0  0  0
  1  2  2  0
  2  3  1  0
  3  4  1  0
  4  5  1  0
  5  6  1  0
  6  7  2  0
  7  8  1  0
  8  9  2  0
  9 10  1  0
  9 11  1  0
 11 12  2  0
 12 13  1  0
 13 14  1  0
 14 15  2  0
 14 16  1  0
 16 17  1  0
 17 18  2  0
 18 19  1  0
 19 20  2  0
 20 21  1  0
 21 22  2  0
 22 23  1  0
 23 24  2  0
 24 25  1  0
 25 26  2  0
 25 27  1  0
 24 28  1  0
 23 29  1  0
 22 30  1  0
 20 31  1  0
 18 32  1  0
 16 33  1  0
 13 34  1  0
 34 35  1  0
 34 36  1  0
 13 37  1  6
 11 38  1  0
  8 39  1  0
  7 40  1  0
  5 41  1  0
  5 42  1  0
  4 43  1  6
  3 44  1  0
  3 45  1  0
  2 46  1  0
 46 47  1  0
 47 48  1  0
 48 49  1  0
 49 50  2  0
 50 51  1  0
 51 52  2  0
 52 53  1  0
 53 54  1  0
 53 55  1  0
 53 56  1  0
 52 57  1  0
 57 58  2  0
 58 59  1  0
 57 60  1  0
 51 61  1  0
 50 62  1  0
 48 63  1  0
 48 64  1  0
 47 65  1  0
 47 66  1  0
 46 67  1  0
 34  4  1  0
 58 49  1  0
 12  6  1  0
 26 17  1  0
 26 21  1  0
M  CHG  1   4   1
M  END
>  <cnnaffinities>  (20) 
[5.64243, 6.18055]

>  <score>  (20) 
5.64243

>  <index>  (20) 
19

>  <Smiles>  (20) 
O=C(C([N@+]1(C(c2c(c(c(Cl)c(c2[C@](C(=O)N(c2c(nc(c3c(c(c(c(c23)[H])[H])[H])[H])[H])[H])[H])(C1([H])[H])[H])[H])[H])[H])([H])[H])[H])([H])[H])N(C(C(c1c(c(c(C(F)(F)[H])c(c1[H])[H])[H])[H])([H])[H])([H])[H])[H]

>  <h>  (20) 
<NA>

>  <Training>  (20) 
True

>  <Success>  (20) 
True

>  <enamine_searched>  (20) 
False

>  <enamine_id>  (20) 
nan

$$$$

     RDKit          3D

 66 70  0  0  0  0  0  0  0  0999 V2000
    4.2643    6.1530   20.5665 C   0  0  0  0  0  0  0  0  0  0  0  0
    5.3343    5.0603   20.7642 C   0  0  0  0  0  0  0  0  0  0  0  0
    6.6944    5.7430   20.6529 C   0  0  0  0  0  0  0  0  0  0  0  0
    7.0134    6.3639   19.6555 O   0  0  0  0  0  0  0  0  0  0  0  0
    7.4772    5.8537   21.8116 N   0  0  0  0  0  0  0  0  0  0  0  0
    8.0707    7.1832   22.0029 C   0  0  0  0  0  0  0  0  0  0  0  0
    8.0495    7.5323   23.4812 C   0  0  0  0  0  0  0  0  0  0  0  0
    8.8924    6.5067   24.2353 C   0  0  0  0  0  0  0  0  0  0  0  0
    8.5419    5.0787   23.8417 C   0  0  0  0  0  0  0  0  0  0  0  0
    8.9065    4.0168   24.6669 C   0  0  0  0  0  0  0  0  0  0  0  0
    8.6635    2.6921   24.3343 C   0  0  0  0  0  0  0  0  0  0  0  0
    8.0537    2.4017   23.1139 C   0  0  0  0  0  0  0  0  0  0  0  0
    7.7753    1.0441   22.7722 N   0  0  0  0  0  0  0  0  0  0  0  0
    7.8652    0.6770   21.4217 C   0  0  0  0  0  0  0  0  0  0  0  0
    8.6468    1.2374   20.6806 O   0  0  0  0  0  0  0  0  0  0  0  0
    6.9397   -0.4289   20.9169 C   0  0  0  0  0  0  0  0  0  0  0  0
    6.1031    0.0861   19.7731 C   0  0  0  0  0  0  0  0  0  0  0  0
    6.4282   -0.2042   18.4737 C   0  0  0  0  0  0  0  0  0  0  0  0
    5.7691    0.2511   17.3805 N   0  0  0  0  0  0  0  0  0  0  0  0
    4.7419    1.0385   17.5840 C   0  0  0  0  0  0  0  0  0  0  0  0
    4.2824    1.4271   18.8734 C   0  0  0  0  0  0  0  0  0  0  0  0
    3.1505    2.2615   19.0549 C   0  0  0  0  0  0  0  0  0  0  0  0
    2.7478    2.6250   20.3104 C   0  0  0  0  0  0  0  0  0  0  0  0
    3.4548    2.1653   21.4419 C   0  0  0  0  0  0  0  0  0  0  0  0
    4.5548    1.3555   21.2926 C   0  0  0  0  0  0  0  0  0  0  0  0
    4.9935    0.9524   20.0022 C   0  0  0  0  0  0  0  0  0  0  0  0
    5.0896    1.0082   22.1735 H   0  0  0  0  0  0  0  0  0  0  0  0
    3.1347    2.4596   22.4372 H   0  0  0  0  0  0  0  0  0  0  0  0
    1.8983    3.2871   20.4355 H   0  0  0  0  0  0  0  0  0  0  0  0
    2.6346    2.6133   18.1683 H   0  0  0  0  0  0  0  0  0  0  0  0
    4.2112    1.3966   16.7001 H   0  0  0  0  0  0  0  0  0  0  0  0
    7.2714   -0.8560   18.2468 H   0  0  0  0  0  0  0  0  0  0  0  0
    6.3387   -0.8194   21.7426 H   0  0  0  0  0  0  0  0  0  0  0  0
    7.5865   -1.2364   20.5586 H   0  0  0  0  0  0  0  0  0  0  0  0
    7.5321    0.1052   23.7696 N   0  0  0  0  0  0  0  0  0  0  0  0
    6.3810    0.3016   24.6239 C   0  0  0  0  0  0  0  0  0  0  0  0
    6.6521    0.0083   25.6466 H   0  0  0  0  0  0  0  0  0  0  0  0
    5.5039   -0.2883   24.3057 H   0  0  0  0  0  0  0  0  0  0  0  0
    6.1248    1.3668   24.6052 H   0  0  0  0  0  0  0  0  0  0  0  0
    8.3110   -1.0570   23.8685 C   0  0  0  0  0  0  0  0  0  0  0  0
    9.6666   -1.0555   23.5049 C   0  0  0  0  0  0  0  0  0  0  0  0
   10.4214   -2.2163   23.6130 C   0  0  0  0  0  0  0  0  0  0  0  0
    9.8533   -3.3989   24.0756 C   0  0  0  0  0  0  0  0  0  0  0  0
    8.5141   -3.3955   24.4262 C   0  0  0  0  0  0  0  0  0  0  0  0
    7.7878   -4.8782   24.9928 Cl  0  0  0  0  0  0  0  0  0  0  0  0
    7.7374   -2.2458   24.3483 C   0  0  0  0  0  0  0  0  0  0  0  0
    6.6971   -2.3002   24.6550 H   0  0  0  0  0  0  0  0  0  0  0  0
   10.4332   -4.3073   24.1755 H   0  0  0  0  0  0  0  0  0  0  0  0
   11.4721   -2.2062   23.3259 H   0  0  0  0  0  0  0  0  0  0  0  0
   10.1299   -0.1421   23.1444 H   0  0  0  0  0  0  0  0  0  0  0  0
    7.6714    3.4408   22.2623 C   0  0  0  0  0  0  0  0  0  0  0  0
    7.8736    4.7816   22.6384 C   0  0  0  0  0  0  0  0  0  0  0  0
    7.2280    3.2084   21.2969 H   0  0  0  0  0  0  0  0  0  0  0  0
    8.9180    1.8879   25.0157 H   0  0  0  0  0  0  0  0  0  0  0  0
    9.3832    4.2547   25.6151 H   0  0  0  0  0  0  0  0  0  0  0  0
    8.7768    6.6300   25.3198 H   0  0  0  0  0  0  0  0  0  0  0  0
    9.9593    6.6953   24.0255 H   0  0  0  0  0  0  0  0  0  0  0  0
    8.4330    8.5474   23.6321 H   0  0  0  0  0  0  0  0  0  0  0  0
    7.0108    7.5155   23.8361 H   0  0  0  0  0  0  0  0  0  0  0  0
    9.0888    7.2152   21.5840 H   0  0  0  0  0  0  0  0  0  0  0  0
    7.4541    7.8708   21.4174 H   0  0  0  0  0  0  0  0  0  0  0  0
    5.1961    4.2742   20.0070 H   0  0  0  0  0  0  0  0  0  0  0  0
    5.2563    4.5720   21.7434 H   0  0  0  0  0  0  0  0  0  0  0  0
    4.3546    6.9526   21.3126 H   0  0  0  0  0  0  0  0  0  0  0  0
    4.3779    6.6154   19.5807 H   0  0  0  0  0  0  0  0  0  0  0  0
    3.2595    5.7294   20.6343 H   0  0  0  0  0  0  0  0  0  0  0  0
  1  2  1  0
  2  3  1  0
  3  4  2  0
  3  5  1  0
  5  6  1  0
  6  7  1  0
  7  8  1  0
  8  9  1  0
  9 10  2  0
 10 11  1  0
 11 12  2  0
 12 13  1  0
 13 14  1  0
 14 15  2  0
 14 16  1  0
 16 17  1  0
 17 18  2  0
 18 19  1  0
 19 20  2  0
 20 21  1  0
 21 22  2  0
 22 23  1  0
 23 24  2  0
 24 25  1  0
 25 26  2  0
 25 27  1  0
 24 28  1  0
 23 29  1  0
 22 30  1  0
 20 31  1  0
 18 32  1  0
 16 33  1  0
 16 34  1  0
 13 35  1  0
 35 36  1  0
 36 37  1  0
 36 38  1  0
 36 39  1  0
 35 40  1  0
 40 41  2  0
 41 42  1  0
 42 43  2  0
 43 44  1  0
 44 45  1  0
 44 46  2  0
 46 47  1  0
 43 48  1  0
 42 49  1  0
 41 50  1  0
 12 51  1  0
 51 52  2  0
 51 53  1  0
 11 54  1  0
 10 55  1  0
  8 56  1  0
  8 57  1  0
  7 58  1  0
  7 59  1  0
  6 60  1  0
  6 61  1  0
  2 62  1  0
  2 63  1  0
  1 64  1  0
  1 65  1  0
  1 66  1  0
 52  5  1  0
 52  9  1  0
 26 17  1  0
 46 40  1  0
 26 21  1  0
M  END
>  <cnnaffinities>  (21) 
[7.24729]

>  <score>  (21) 
7.24729

>  <index>  (21) 
20

>  <Smiles>  (21) 
C(C(C(=O)N1C(C(C(c2c(c(c(N(C(=O)C(c3c(nc(c4c(c(c(c(c34)[H])[H])[H])[H])[H])[H])([H])[H])N(C([H])([H])[H])c3c(c(c(c(Cl)c3[H])[H])[H])[H])c(c12)[H])[H])[H])([H])[H])([H])[H])([H])[H])([H])[H])([H])([H])[H]

>  <h>  (21) 
<NA>

>  <Training>  (21) 
True

>  <Success>  (21) 
True

>  <enamine_searched>  (21) 
False

>  <enamine_id>  (21) 
nan

$$$$

     RDKit          3D

 59 64  0  0  0  0  0  0  0  0999 V2000
    7.0893   -2.3903   23.5140 C   0  0  0  0  0  0  0  0  0  0  0  0
    7.9684   -1.8328   22.3906 C   0  0  1  0  0  0  0  0  0  0  0  0
    7.2211   -1.7328   21.0492 C   0  0  0  0  0  0  0  0  0  0  0  0
    6.8984   -0.3304   20.9167 N   0  0  0  0  0  0  0  0  0  0  0  0
    6.1313    0.1287   19.8198 C   0  0  0  0  0  0  0  0  0  0  0  0
    6.4471   -0.2262   18.5303 C   0  0  0  0  0  0  0  0  0  0  0  0
    5.7844    0.2096   17.4328 N   0  0  0  0  0  0  0  0  0  0  0  0
    4.7573    1.0017   17.6185 C   0  0  0  0  0  0  0  0  0  0  0  0
    4.2856    1.3945   18.9036 C   0  0  0  0  0  0  0  0  0  0  0  0
    3.1478    2.2280   19.0643 C   0  0  0  0  0  0  0  0  0  0  0  0
    2.7241    2.5916   20.3108 C   0  0  0  0  0  0  0  0  0  0  0  0
    3.4022    2.1248   21.4591 C   0  0  0  0  0  0  0  0  0  0  0  0
    4.4904    1.2984   21.3329 C   0  0  0  0  0  0  0  0  0  0  0  0
    4.9756    0.9383   20.0463 C   0  0  0  0  0  0  0  0  0  0  0  0
    4.9934    0.9027   22.2113 H   0  0  0  0  0  0  0  0  0  0  0  0
    3.0724    2.4382   22.4456 H   0  0  0  0  0  0  0  0  0  0  0  0
    1.8641    3.2454   20.4207 H   0  0  0  0  0  0  0  0  0  0  0  0
    2.6400    2.5782   18.1696 H   0  0  0  0  0  0  0  0  0  0  0  0
    4.2404    1.3684   16.7319 H   0  0  0  0  0  0  0  0  0  0  0  0
    7.2971   -0.8781   18.3298 H   0  0  0  0  0  0  0  0  0  0  0  0
    7.7725    0.4810   21.6219 C   0  0  0  0  0  0  0  0  0  0  0  0
    7.8804    1.6754   21.4651 O   0  0  0  0  0  0  0  0  0  0  0  0
    8.5669   -0.4106   22.6179 C   0  0  1  0  0  0  0  0  0  0  0  0
    8.3932    0.0770   24.0765 C   0  0  0  0  0  0  0  0  0  0  0  0
    9.0092    1.3687   24.3123 N   0  0  0  0  0  0  0  0  0  0  0  0
    8.2428    2.3862   25.0147 C   0  0  0  0  0  0  0  0  0  0  0  0
    7.4014    3.2707   24.1296 C   0  0  0  0  0  0  0  0  0  0  0  0
    6.0014    3.2631   23.9446 C   0  0  0  0  0  0  0  0  0  0  0  0
    5.6029    4.2055   23.0997 N   0  0  0  0  0  0  0  0  0  0  0  0
    6.7316    4.8222   22.7287 N   0  0  0  0  0  0  0  0  0  0  0  0
    6.6926    5.8946   21.7620 C   0  0  0  0  0  0  0  0  0  0  0  0
    7.5997    5.8580   21.1532 H   0  0  0  0  0  0  0  0  0  0  0  0
    6.6240    6.8713   22.2532 H   0  0  0  0  0  0  0  0  0  0  0  0
    5.8157    5.7327   21.1308 H   0  0  0  0  0  0  0  0  0  0  0  0
    7.8286    4.3092   23.3313 C   0  0  0  0  0  0  0  0  0  0  0  0
    8.8153    4.7245   23.1348 H   0  0  0  0  0  0  0  0  0  0  0  0
    5.2524    2.5973   24.3625 H   0  0  0  0  0  0  0  0  0  0  0  0
    7.5893    1.8804   25.7298 H   0  0  0  0  0  0  0  0  0  0  0  0
    8.9610    2.9912   25.5738 H   0  0  0  0  0  0  0  0  0  0  0  0
   10.1938    1.7448   23.7479 C   0  0  0  0  0  0  0  0  0  0  0  0
   10.7369    2.8111   24.0140 O   0  0  0  0  0  0  0  0  0  0  0  0
   10.8090    0.7441   22.8292 C   0  0  0  0  0  0  0  0  0  0  0  0
   12.1685    0.8792   22.5263 C   0  0  0  0  0  0  0  0  0  0  0  0
   12.8266   -0.0905   21.7935 C   0  0  0  0  0  0  0  0  0  0  0  0
   12.0776   -1.1699   21.3260 C   0  0  0  0  0  0  0  0  0  0  0  0
   12.6814   -2.1436   20.6186 F   0  0  0  0  0  0  0  0  0  0  0  0
   10.7216   -1.2748   21.5445 C   0  0  0  0  0  0  0  0  0  0  0  0
   10.0620   -0.3296   22.3281 C   0  0  0  0  0  0  0  0  0  0  0  0
   10.1937   -2.0831   21.0458 H   0  0  0  0  0  0  0  0  0  0  0  0
   13.8840   -0.0172   21.5567 H   0  0  0  0  0  0  0  0  0  0  0  0
   12.6823    1.7544   22.9030 H   0  0  0  0  0  0  0  0  0  0  0  0
    8.8369   -0.6758   24.7419 H   0  0  0  0  0  0  0  0  0  0  0  0
    7.3356    0.1694   24.3211 H   0  0  0  0  0  0  0  0  0  0  0  0
    7.8695   -2.0525   20.2247 H   0  0  0  0  0  0  0  0  0  0  0  0
    6.3050   -2.3298   21.0222 H   0  0  0  0  0  0  0  0  0  0  0  0
    8.7888   -2.5469   22.3095 H   0  0  0  0  0  0  0  0  0  0  0  0
    6.7644   -3.4019   23.2551 H   0  0  0  0  0  0  0  0  0  0  0  0
    7.6537   -2.4690   24.4478 H   0  0  0  0  0  0  0  0  0  0  0  0
    6.1990   -1.7816   23.6990 H   0  0  0  0  0  0  0  0  0  0  0  0
  1  2  1  0
  2  3  1  0
  3  4  1  0
  4  5  1  0
  5  6  2  0
  6  7  1  0
  7  8  2  0
  8  9  1  0
  9 10  2  0
 10 11  1  0
 11 12  2  0
 12 13  1  0
 13 14  2  0
 13 15  1  0
 12 16  1  0
 11 17  1  0
 10 18  1  0
  8 19  1  0
  6 20  1  0
  4 21  1  0
 21 22  2  0
 21 23  1  0
 23 24  1  1
 24 25  1  0
 25 26  1  0
 26 27  1  0
 27 28  1  0
 28 29  2  0
 29 30  1  0
 30 31  1  0
 31 32  1  0
 31 33  1  0
 31 34  1  0
 30 35  1  0
 35 36  1  0
 28 37  1  0
 26 38  1  0
 26 39  1  0
 25 40  1  0
 40 41  2  0
 40 42  1  0
 42 43  2  0
 43 44  1  0
 44 45  2  0
 45 46  1  0
 45 47  1  0
 47 48  2  0
 47 49  1  0
 44 50  1  0
 43 51  1  0
 24 52  1  0
 24 53  1  0
  3 54  1  0
  3 55  1  0
  2 56  1  6
  1 57  1  0
  1 58  1  0
  1 59  1  0
 23  2  1  0
 35 27  2  0
 48 42  1  0
 14  5  1  0
 48 23  1  0
 14  9  1  0
M  END
>  <cnnaffinities>  (22) 
[6.55694, 6.74219]

>  <score>  (22) 
6.55694

>  <index>  (22) 
21

>  <Smiles>  (22) 
C([C@]1(C(N(c2c(nc(c3c(c(c(c(c23)[H])[H])[H])[H])[H])[H])C(=O)[C@]21C(N(C(c1c(nn(C([H])([H])[H])c1[H])[H])([H])[H])C(=O)c1c(c(c(F)c(c21)[H])[H])[H])([H])[H])([H])[H])[H])([H])([H])[H]

>  <h>  (22) 
<NA>

>  <Training>  (22) 
True

>  <Success>  (22) 
True

>  <enamine_searched>  (22) 
False

>  <enamine_id>  (22) 
nan

$$$$

     RDKit          3D

 41 44  0  0  0  0  0  0  0  0999 V2000
    8.0517    1.6322   20.4119 O   0  0  0  0  0  0  0  0  0  0  0  0
    7.7476    0.7199   21.1580 C   0  0  0  0  0  0  0  0  0  0  0  0
    6.7652   -0.3738   20.7228 C   0  0  0  0  0  0  0  0  0  0  0  0
    5.8556    0.0551   19.6112 C   0  0  0  0  0  0  0  0  0  0  0  0
    6.0990   -0.3078   18.3133 C   0  0  0  0  0  0  0  0  0  0  0  0
    5.4065    0.1353   17.2318 N   0  0  0  0  0  0  0  0  0  0  0  0
    4.4339    0.9821   17.4596 C   0  0  0  0  0  0  0  0  0  0  0  0
    4.0281    1.4019   18.7563 C   0  0  0  0  0  0  0  0  0  0  0  0
    2.9401    2.2882   18.9582 C   0  0  0  0  0  0  0  0  0  0  0  0
    2.5583    2.6413   20.2234 C   0  0  0  0  0  0  0  0  0  0  0  0
    3.2476    2.1219   21.3412 C   0  0  0  0  0  0  0  0  0  0  0  0
    4.3147    1.2784   21.1706 C   0  0  0  0  0  0  0  0  0  0  0  0
    4.7422    0.9075   19.8702 C   0  0  0  0  0  0  0  0  0  0  0  0
    4.8387    0.8914   22.0354 H   0  0  0  0  0  0  0  0  0  0  0  0
    2.9299    2.3976   22.3413 H   0  0  0  0  0  0  0  0  0  0  0  0
    1.7285    3.3262   20.3742 H   0  0  0  0  0  0  0  0  0  0  0  0
    2.4264    2.6821   18.0838 H   0  0  0  0  0  0  0  0  0  0  0  0
    3.9095    1.3725   16.5889 H   0  0  0  0  0  0  0  0  0  0  0  0
    6.8990   -1.0129   18.0841 H   0  0  0  0  0  0  0  0  0  0  0  0
    6.1796   -0.7034   21.5840 H   0  0  0  0  0  0  0  0  0  0  0  0
    7.3624   -1.2338   20.3874 H   0  0  0  0  0  0  0  0  0  0  0  0
    8.2865    0.6157   22.4297 N   0  0  0  0  0  0  0  0  0  0  0  0
    8.3917   -0.6795   23.0956 C   0  0  0  0  0  0  0  0  0  0  0  0
    9.5368   -1.4986   22.4778 C   0  0  0  0  0  0  0  0  0  0  0  0
   10.8019   -0.6792   22.3684 C   0  0  0  0  0  0  0  0  0  0  0  0
   12.0836   -1.2635   22.1645 C   0  0  0  0  0  0  0  0  0  0  0  0
   12.0988   -2.3839   20.7611 Cl  0  0  0  0  0  0  0  0  0  0  0  0
   13.2802    0.2097   21.8138 C   0  0  0  0  0  0  0  0  0  0  0  0
   13.0822    0.2230   22.1037 C   0  0  0  0  0  0  0  0  0  0  0  0
   11.9854    1.3889   22.1512 C   0  0  0  0  0  0  0  0  0  0  0  0
   10.7609    0.7524   22.3771 C   0  0  0  0  0  0  0  0  0  0  0  0
    9.4476    1.4544   22.7315 C   0  0  0  0  0  0  0  0  0  0  0  0
    9.4168    1.6475   23.8135 H   0  0  0  0  0  0  0  0  0  0  0  0
    9.3262    2.4026   22.2063 H   0  0  0  0  0  0  0  0  0  0  0  0
   12.2777    2.2410   22.7791 H   0  0  0  0  0  0  0  0  0  0  0  0
   14.2580    0.0022   22.5518 H   0  0  0  0  0  0  0  0  0  0  0  0
   13.5669    0.1138   20.6947 H   0  0  0  0  0  0  0  0  0  0  0  0
    9.2315   -1.8408   21.4725 H   0  0  0  0  0  0  0  0  0  0  0  0
    9.7180   -2.4127   23.0551 H   0  0  0  0  0  0  0  0  0  0  0  0
    8.5960   -0.4801   24.1570 H   0  0  0  0  0  0  0  0  0  0  0  0
    7.4430   -1.2150   23.0479 H   0  0  0  0  0  0  0  0  0  0  0  0
  1  2  2  0
  2  3  1  0
  3  4  1  0
  4  5  2  0
  5  6  1  0
  6  7  2  0
  7  8  1  0
  8  9  2  0
  9 10  1  0
 10 11  2  0
 11 12  1  0
 12 13  2  0
 12 14  1  0
 11 15  1  0
 10 16  1  0
  9 17  1  0
  7 18  1  0
  5 19  1  0
  3 20  1  0
  3 21  1  0
  2 22  1  0
 22 23  1  0
 23 24  1  0
 24 25  1  0
 25 26  2  0
 26 27  1  0
 26 28  1  0
 28 29  2  0
 29 30  1  0
 30 31  2  0
 31 32  1  0
 32 33  1  0
 32 34  1  0
 30 35  1  0
 29 36  1  0
 28 37  1  0
 24 38  1  0
 24 39  1  0
 23 40  1  0
 23 41  1  0
 13  4  1  0
 32 22  1  0
 13  8  1  0
 31 25  1  0
M  END
>  <cnnaffinities>  (23) 
[5.8628]

>  <score>  (23) 
5.8628

>  <index>  (23) 
22

>  <Smiles>  (23) 
O=C(C(c1c(nc(c2c(c(c(c(c12)[H])[H])[H])[H])[H])[H])([H])[H])N1C(C(c2c(Cl)c(c(c(c2C1([H])[H])[H])[H])[H])([H])[H])([H])[H]

>  <h>  (23) 
<NA>

>  <Training>  (23) 
True

>  <Success>  (23) 
True

>  <enamine_searched>  (23) 
False

>  <enamine_id>  (23) 
nan

$$$$

     RDKit          3D

 69 74  0  0  0  0  0  0  0  0999 V2000
    4.5378    6.4632   20.2890 C   0  0  0  0  0  0  0  0  0  0  0  0
    5.1752    6.0635   21.6034 C   0  0  1  0  0  0  0  0  0  0  0  0
    6.1474    4.9068   21.4288 C   0  0  0  0  0  0  0  0  0  0  0  0
    6.8119    4.5441   22.7270 N   0  0  1  0  0  4  0  0  0  0  0  0
    7.7777    3.4258   22.5341 C   0  0  0  0  0  0  0  0  0  0  0  0
    8.2457    2.8029   23.8508 C   0  0  0  0  0  0  0  0  0  0  0  0
    8.9902    1.5884   23.6296 N   0  0  0  0  0  0  0  0  0  0  0  0
    8.3250    0.3055   23.6473 C   0  0  0  0  0  0  0  0  0  0  0  0
    8.6748   -0.5472   22.4069 C   0  0  2  0  0  0  0  0  0  0  0  0
    8.1565    0.1397   21.1225 C   0  0  0  0  0  0  0  0  0  0  0  0
    8.6961    1.0335   20.4950 O   0  0  0  0  0  0  0  0  0  0  0  0
    6.9401   -0.4152   20.8076 N   0  0  0  0  0  0  0  0  0  0  0  0
    6.1483    0.1072   19.7555 C   0  0  0  0  0  0  0  0  0  0  0  0
    6.4611   -0.2096   18.4551 C   0  0  0  0  0  0  0  0  0  0  0  0
    5.7675    0.2280   17.3817 N   0  0  0  0  0  0  0  0  0  0  0  0
    4.7432    1.0169   17.5986 C   0  0  0  0  0  0  0  0  0  0  0  0
    4.2981    1.4129   18.8935 C   0  0  0  0  0  0  0  0  0  0  0  0
    3.1730    2.2628   19.0735 C   0  0  0  0  0  0  0  0  0  0  0  0
    2.7790    2.6398   20.3306 C   0  0  0  0  0  0  0  0  0  0  0  0
    3.4768    2.1679   21.4637 C   0  0  0  0  0  0  0  0  0  0  0  0
    4.5775    1.3514   21.3125 C   0  0  0  0  0  0  0  0  0  0  0  0
    5.0175    0.9473   20.0189 C   0  0  0  0  0  0  0  0  0  0  0  0
    5.1077    1.0065   22.1932 H   0  0  0  0  0  0  0  0  0  0  0  0
    3.1514    2.4631   22.4574 H   0  0  0  0  0  0  0  0  0  0  0  0
    1.9371    3.3149   20.4566 H   0  0  0  0  0  0  0  0  0  0  0  0
    2.6497    2.6140   18.1903 H   0  0  0  0  0  0  0  0  0  0  0  0
    4.2080    1.3819   16.7228 H   0  0  0  0  0  0  0  0  0  0  0  0
    7.3092   -0.8579   18.2452 H   0  0  0  0  0  0  0  0  0  0  0  0
    6.5722   -1.5397   21.6516 C   0  0  0  0  0  0  0  0  0  0  0  0
    7.8889   -1.8899   22.3723 C   0  0  2  0  0  0  0  0  0  0  0  0
    7.6899   -2.5957   23.7124 C   0  0  0  0  0  0  0  0  0  0  0  0
    7.1974   -3.5646   23.5857 H   0  0  0  0  0  0  0  0  0  0  0  0
    7.0608   -1.9949   24.3775 H   0  0  0  0  0  0  0  0  0  0  0  0
    8.6385   -2.7726   24.2315 H   0  0  0  0  0  0  0  0  0  0  0  0
    8.4440   -2.5515   21.7023 H   0  0  0  0  0  0  0  0  0  0  0  0
    6.1840   -2.3634   21.0435 H   0  0  0  0  0  0  0  0  0  0  0  0
    5.7943   -1.2640   22.3783 H   0  0  0  0  0  0  0  0  0  0  0  0
   10.1779   -0.6299   22.3792 C   0  0  0  0  0  0  0  0  0  0  0  0
   10.8325   -1.6936   21.7625 C   0  0  0  0  0  0  0  0  0  0  0  0
   12.1835   -1.6015   21.5042 C   0  0  0  0  0  0  0  0  0  0  0  0
   12.8834   -2.8305   20.4942 Cl  0  0  0  0  0  0  0  0  0  0  0  0
   12.9421   -0.5184   21.9518 C   0  0  0  0  0  0  0  0  0  0  0  0
   12.3145    0.5041   22.6260 C   0  0  0  0  0  0  0  0  0  0  0  0
   10.9386    0.4725   22.7932 C   0  0  0  0  0  0  0  0  0  0  0  0
   10.3110    1.7115   23.3331 C   0  0  0  0  0  0  0  0  0  0  0  0
   10.9333    2.7551   23.4770 O   0  0  0  0  0  0  0  0  0  0  0  0
   12.8503    1.3672   23.0027 H   0  0  0  0  0  0  0  0  0  0  0  0
   14.0063   -0.4673   21.7738 H   0  0  0  0  0  0  0  0  0  0  0  0
   10.3059   -2.5775   21.4262 H   0  0  0  0  0  0  0  0  0  0  0  0
    8.6441   -0.2677   24.5300 H   0  0  0  0  0  0  0  0  0  0  0  0
    7.2468    0.4877   23.6908 H   0  0  0  0  0  0  0  0  0  0  0  0
    7.3853    2.5436   24.4749 H   0  0  0  0  0  0  0  0  0  0  0  0
    8.9143    3.4706   24.3943 H   0  0  0  0  0  0  0  0  0  0  0  0
    8.6406    3.7922   21.9645 H   0  0  0  0  0  0  0  0  0  0  0  0
    7.2898    2.6659   21.9165 H   0  0  0  0  0  0  0  0  0  0  0  0
    7.4301    5.7809   23.3339 C   0  0  0  0  0  0  0  0  0  0  0  0
    6.4082    6.9072   23.3968 C   0  0  0  0  0  0  0  0  0  0  0  0
    5.8469    7.1927   22.1349 O   0  0  0  0  0  0  0  0  0  0  0  0
    5.6133    6.6281   24.1084 H   0  0  0  0  0  0  0  0  0  0  0  0
    6.8736    7.8332   23.7468 H   0  0  0  0  0  0  0  0  0  0  0  0
    7.7942    5.5498   24.3355 H   0  0  0  0  0  0  0  0  0  0  0  0
    8.2767    6.0763   22.7069 H   0  0  0  0  0  0  0  0  0  0  0  0
    6.0742    4.1787   23.3629 H   0  0  0  0  0  0  0  0  0  0  0  0
    5.6263    4.0241   21.0475 H   0  0  0  0  0  0  0  0  0  0  0  0
    6.9285    5.1846   20.7128 H   0  0  0  0  0  0  0  0  0  0  0  0
    4.4116    5.7457   22.3312 H   0  0  0  0  0  0  0  0  0  0  0  0
    3.9918    5.6188   19.8565 H   0  0  0  0  0  0  0  0  0  0  0  0
    3.8420    7.2929   20.4232 H   0  0  0  0  0  0  0  0  0  0  0  0
    5.3054    6.7763   19.5750 H   0  0  0  0  0  0  0  0  0  0  0  0
  1  2  1  0
  2  3  1  0
  3  4  1  0
  4  5  1  0
  5  6  1  0
  6  7  1  0
  7  8  1  0
  9  8  1  1
  9 10  1  0
 10 11  2  0
 10 12  1  0
 12 13  1  0
 13 14  2  0
 14 15  1  0
 15 16  2  0
 16 17  1  0
 17 18  2  0
 18 19  1  0
 19 20  2  0
 20 21  1  0
 21 22  2  0
 21 23  1  0
 20 24  1  0
 19 25  1  0
 18 26  1  0
 16 27  1  0
 14 28  1  0
 12 29  1  0
 29 30  1  0
 30 31  1  0
 31 32  1  0
 31 33  1  0
 31 34  1  0
 30 35  1  6
 29 36  1  0
 29 37  1  0
  9 38  1  0
 38 39  2  0
 39 40  1  0
 40 41  1  0
 40 42  2  0
 42 43  1  0
 43 44  2  0
 44 45  1  0
 45 46  2  0
 43 47  1  0
 42 48  1  0
 39 49  1  0
  8 50  1  0
  8 51  1  0
  6 52  1  0
  6 53  1  0
  5 54  1  0
  5 55  1  0
  4 56  1  0
 56 57  1  0
 57 58  1  0
 57 59  1  0
 57 60  1  0
 56 61  1  0
 56 62  1  0
  4 63  1  1
  3 64  1  0
  3 65  1  0
  2 66  1  1
  1 67  1  0
  1 68  1  0
  1 69  1  0
 58  2  1  0
 45  7  1  0
 30  9  1  0
 44 38  1  0
 22 13  1  0
 22 17  1  0
M  CHG  1   4   1
M  END
>  <cnnaffinities>  (24) 
[6.74654, 6.77417]

>  <score>  (24) 
6.74654

>  <index>  (24) 
23

>  <Smiles>  (24) 
C([C@]1(C([N@@+](C(C(N2C([C@@]3(C(=O)N(c4c(nc(c5c(c(c(c(c45)[H])[H])[H])[H])[H])[H])C([C@@]3(C([H])([H])[H])[H])([H])[H])c3c(c(Cl)c(c(c3C2=O)[H])[H])[H])([H])[H])([H])[H])([H])[H])(C(C(O1)([H])[H])([H])[H])[H])([H])[H])[H])([H])([H])[H]

>  <h>  (24) 
<NA>

>  <Training>  (24) 
True

>  <Success>  (24) 
True

>  <enamine_searched>  (24) 
False

>  <enamine_id>  (24) 
nan

$$$$

     RDKit          3D

 70 75  0  0  0  0  0  0  0  0999 V2000
    6.5374    4.5711   21.3594 C   0  0  0  0  0  0  0  0  0  0  0  0
    6.8515    3.6116   22.4262 N   0  0  0  0  0  4  0  0  0  0  0  0
    7.9342    4.0461   23.3493 C   0  0  0  0  0  0  0  0  0  0  0  0
    8.1354    3.0315   24.4733 C   0  0  0  0  0  0  0  0  0  0  0  0
    8.7524    1.8055   23.9865 N   0  0  0  0  0  0  0  0  0  0  0  0
    8.0000    0.5656   23.9180 C   0  0  0  0  0  0  0  0  0  0  0  0
    8.3913   -0.2872   22.6829 C   0  0  2  0  0  0  0  0  0  0  0  0
    7.8156    0.4130   21.4327 C   0  0  0  0  0  0  0  0  0  0  0  0
    8.0027    1.5776   21.1006 O   0  0  0  0  0  0  0  0  0  0  0  0
    6.9368   -0.4235   20.8044 N   0  0  0  0  0  0  0  0  0  0  0  0
    6.1296    0.1023   19.7569 C   0  0  0  0  0  0  0  0  0  0  0  0
    6.4585   -0.1942   18.4632 C   0  0  0  0  0  0  0  0  0  0  0  0
    5.7710    0.2460   17.3853 N   0  0  0  0  0  0  0  0  0  0  0  0
    4.7423    1.0238   17.6095 C   0  0  0  0  0  0  0  0  0  0  0  0
    4.3053    1.4199   18.9065 C   0  0  0  0  0  0  0  0  0  0  0  0
    3.1799    2.2662   19.0880 C   0  0  0  0  0  0  0  0  0  0  0  0
    2.7955    2.6522   20.3399 C   0  0  0  0  0  0  0  0  0  0  0  0
    3.5011    2.1977   21.4728 C   0  0  0  0  0  0  0  0  0  0  0  0
    4.5872    1.3653   21.3278 C   0  0  0  0  0  0  0  0  0  0  0  0
    5.0233    0.9555   20.0320 C   0  0  0  0  0  0  0  0  0  0  0  0
    5.1002    1.0074   22.2177 H   0  0  0  0  0  0  0  0  0  0  0  0
    3.1766    2.5046   22.4622 H   0  0  0  0  0  0  0  0  0  0  0  0
    1.9368    3.3031   20.4668 H   0  0  0  0  0  0  0  0  0  0  0  0
    2.6449    2.5937   18.2007 H   0  0  0  0  0  0  0  0  0  0  0  0
    4.1922    1.3864   16.7398 H   0  0  0  0  0  0  0  0  0  0  0  0
    7.3248   -0.8220   18.2705 H   0  0  0  0  0  0  0  0  0  0  0  0
    6.5135   -1.5365   21.6377 C   0  0  0  0  0  0  0  0  0  0  0  0
    7.6554   -1.6678   22.6507 C   0  0  2  0  0  0  0  0  0  0  0  0
    7.1912   -2.2657   23.9757 C   0  0  0  0  0  0  0  0  0  0  0  0
    6.0886   -1.5495   24.5086 O   0  0  0  0  0  0  0  0  0  0  0  0
    5.7083   -1.9948   25.7974 C   0  0  0  0  0  0  0  0  0  0  0  0
    4.6074   -1.0922   26.3220 C   0  0  0  0  0  0  0  0  0  0  0  0
    3.2640   -1.2232   25.5942 C   0  0  0  0  0  0  0  0  0  0  0  0
    2.6142   -1.7443   26.7612 O   0  0  0  0  0  0  0  0  0  0  0  0
    3.8277   -1.6424   27.5207 C   0  0  0  0  0  0  0  0  0  0  0  0
    3.7226   -0.9559   28.3691 H   0  0  0  0  0  0  0  0  0  0  0  0
    4.1730   -2.6232   27.8770 H   0  0  0  0  0  0  0  0  0  0  0  0
    2.8179   -0.2784   25.2605 H   0  0  0  0  0  0  0  0  0  0  0  0
    3.2762   -1.9607   24.7818 H   0  0  0  0  0  0  0  0  0  0  0  0
    4.9613   -0.0647   26.4347 H   0  0  0  0  0  0  0  0  0  0  0  0
    6.5735   -1.9911   26.4806 H   0  0  0  0  0  0  0  0  0  0  0  0
    5.3396   -3.0321   25.7405 H   0  0  0  0  0  0  0  0  0  0  0  0
    8.0236   -2.2581   24.6941 H   0  0  0  0  0  0  0  0  0  0  0  0
    6.9142   -3.3175   23.8104 H   0  0  0  0  0  0  0  0  0  0  0  0
    8.3649   -2.3925   22.2481 H   0  0  0  0  0  0  0  0  0  0  0  0
    5.5574   -1.3268   22.1342 H   0  0  0  0  0  0  0  0  0  0  0  0
    6.3936   -2.4374   21.0323 H   0  0  0  0  0  0  0  0  0  0  0  0
    9.9120   -0.3666   22.5933 C   0  0  0  0  0  0  0  0  0  0  0  0
   10.5497   -1.3587   21.8366 C   0  0  0  0  0  0  0  0  0  0  0  0
   11.9249   -1.3595   21.7056 C   0  0  0  0  0  0  0  0  0  0  0  0
   12.6700   -2.5262   20.6538 Cl  0  0  0  0  0  0  0  0  0  0  0  0
   12.7241   -0.4230   22.3619 C   0  0  0  0  0  0  0  0  0  0  0  0
   12.1070    0.5583   23.1057 C   0  0  0  0  0  0  0  0  0  0  0  0
   10.7151    0.6239   23.1746 C   0  0  0  0  0  0  0  0  0  0  0  0
   10.1057    1.8277   23.8188 C   0  0  0  0  0  0  0  0  0  0  0  0
   10.7920    2.7912   24.1562 O   0  0  0  0  0  0  0  0  0  0  0  0
   12.6934    1.3121   23.6206 H   0  0  0  0  0  0  0  0  0  0  0  0
   13.8031   -0.4462   22.2550 H   0  0  0  0  0  0  0  0  0  0  0  0
    9.9924   -2.1356   21.3251 H   0  0  0  0  0  0  0  0  0  0  0  0
    8.1497   -0.0216   24.8309 H   0  0  0  0  0  0  0  0  0  0  0  0
    6.9365    0.7972   23.8502 H   0  0  0  0  0  0  0  0  0  0  0  0
    8.7885    3.4474   25.2435 H   0  0  0  0  0  0  0  0  0  0  0  0
    7.1785    2.7789   24.9419 H   0  0  0  0  0  0  0  0  0  0  0  0
    8.8722    4.1324   22.7894 H   0  0  0  0  0  0  0  0  0  0  0  0
    7.7055    5.0297   23.7794 H   0  0  0  0  0  0  0  0  0  0  0  0
    5.9841    3.4405   22.9715 H   0  0  0  0  0  0  0  0  0  0  0  0
    7.1370    2.7174   21.9727 H   0  0  0  0  0  0  0  0  0  0  0  0
    6.3819    5.5762   21.7658 H   0  0  0  0  0  0  0  0  0  0  0  0
    7.3644    4.6236   20.6473 H   0  0  0  0  0  0  0  0  0  0  0  0
    5.6341    4.2390   20.8395 H   0  0  0  0  0  0  0  0  0  0  0  0
  1  2  1  0
  2  3  1  0
  3  4  1  0
  4  5  1  0
  5  6  1  0
  7  6  1  1
  7  8  1  0
  8  9  2  0
  8 10  1  0
 10 11  1  0
 11 12  2  0
 12 13  1  0
 13 14  2  0
 14 15  1  0
 15 16  2  0
 16 17  1  0
 17 18  2  0
 18 19  1  0
 19 20  2  0
 19 21  1  0
 18 22  1  0
 17 23  1  0
 16 24  1  0
 14 25  1  0
 12 26  1  0
 10 27  1  0
 27 28  1  0
 28 29  1  0
 29 30  1  0
 30 31  1  0
 31 32  1  0
 32 33  1  0
 33 34  1  0
 34 35  1  0
 35 36  1  0
 35 37  1  0
 33 38  1  0
 33 39  1  0
 32 40  1  0
 31 41  1  0
 31 42  1  0
 29 43  1  0
 29 44  1  0
 28 45  1  6
 27 46  1  0
 27 47  1  0
  7 48  1  0
 48 49  2  0
 49 50  1  0
 50 51  1  0
 50 52  2  0
 52 53  1  0
 53 54  2  0
 54 55  1  0
 55 56  2  0
 53 57  1  0
 52 58  1  0
 49 59  1  0
  6 60  1  0
  6 61  1  0
  4 62  1  0
  4 63  1  0
  3 64  1  0
  3 65  1  0
  2 66  1  0
  2 67  1  0
  1 68  1  0
  1 69  1  0
  1 70  1  0
 55  5  1  0
 28  7  1  0
 35 32  1  0
 54 48  1  0
 20 11  1  0
 20 15  1  0
M  CHG  1   2   1
M  END
>  <cnnaffinities>  (25) 
[6.07953]

>  <score>  (25) 
6.07953

>  <index>  (25) 
24

>  <Smiles>  (25) 
C([N+](C(C(N1C([C@@]2(C(=O)N(c3c(nc(c4c(c(c(c(c34)[H])[H])[H])[H])[H])[H])C([C@@]2(C(OC(C2(C(OC2([H])[H])([H])[H])[H])([H])[H])([H])[H])[H])([H])[H])c2c(c(Cl)c(c(c2C1=O)[H])[H])[H])([H])[H])([H])[H])([H])[H])([H])[H])([H])([H])[H]

>  <h>  (25) 
<NA>

>  <Training>  (25) 
True

>  <Success>  (25) 
True

>  <enamine_searched>  (25) 
False

>  <enamine_id>  (25) 
nan

$$$$

     RDKit          3D

 68 73  0  0  0  0  0  0  0  0999 V2000
    6.4161    4.2794   21.4826 C   0  0  0  0  0  0  0  0  0  0  0  0
    7.3456    3.7141   22.4363 N   0  0  0  0  0  0  0  0  0  0  0  0
    6.9653    3.2100   23.6313 C   0  0  0  0  0  0  0  0  0  0  0  0
    5.8043    3.1533   24.0049 O   0  0  0  0  0  0  0  0  0  0  0  0
    8.1363    2.7280   24.4971 C   0  0  0  0  0  0  0  0  0  0  0  0
    8.8266    1.5902   23.9218 N   0  0  0  0  0  0  0  0  0  0  0  0
    8.0933    0.3381   23.8530 C   0  0  0  0  0  0  0  0  0  0  0  0
    8.5036   -0.4966   22.6151 C   0  0  2  0  0  0  0  0  0  0  0  0
    7.9986    0.2353   21.3476 C   0  0  0  0  0  0  0  0  0  0  0  0
    8.4667    1.2431   20.8507 O   0  0  0  0  0  0  0  0  0  0  0  0
    6.9057   -0.4372   20.8597 N   0  0  0  0  0  0  0  0  0  0  0  0
    6.1450    0.0975   19.7919 C   0  0  0  0  0  0  0  0  0  0  0  0
    6.5013   -0.1791   18.4979 C   0  0  0  0  0  0  0  0  0  0  0  0
    5.8127    0.2499   17.4164 N   0  0  0  0  0  0  0  0  0  0  0  0
    4.7514    0.9912   17.6253 C   0  0  0  0  0  0  0  0  0  0  0  0
    4.2826    1.3686   18.9183 C   0  0  0  0  0  0  0  0  0  0  0  0
    3.1363    2.1850   19.1086 C   0  0  0  0  0  0  0  0  0  0  0  0
    2.7559    2.5694   20.3665 C   0  0  0  0  0  0  0  0  0  0  0  0
    3.5016    2.1578   21.4938 C   0  0  0  0  0  0  0  0  0  0  0  0
    4.6024    1.3501   21.3400 C   0  0  0  0  0  0  0  0  0  0  0  0
    5.0115    0.9251   20.0452 C   0  0  0  0  0  0  0  0  0  0  0  0
    5.1848    1.0657   22.2121 H   0  0  0  0  0  0  0  0  0  0  0  0
    3.2283    2.4992   22.4861 H   0  0  0  0  0  0  0  0  0  0  0  0
    1.8845    3.2021   20.4980 H   0  0  0  0  0  0  0  0  0  0  0  0
    2.5854    2.5095   18.2316 H   0  0  0  0  0  0  0  0  0  0  0  0
    4.2056    1.3317   16.7456 H   0  0  0  0  0  0  0  0  0  0  0  0
    7.3840   -0.7855   18.3053 H   0  0  0  0  0  0  0  0  0  0  0  0
    6.4728   -1.5320   21.7011 C   0  0  0  0  0  0  0  0  0  0  0  0
    7.7282   -1.8477   22.5237 C   0  0  2  0  0  0  0  0  0  0  0  0
    7.3920   -2.5850   23.8114 C   0  0  0  0  0  0  0  0  0  0  0  0
    8.5469   -3.2753   24.3421 N   0  0  0  0  0  0  0  0  0  0  0  0
    8.4076   -3.7672   25.6438 C   0  0  0  0  0  0  0  0  0  0  0  0
    7.2570   -3.8129   26.4762 C   0  0  0  0  0  0  0  0  0  0  0  0
    7.5529   -4.2391   27.6974 N   0  0  0  0  0  0  0  0  0  0  0  0
    8.8599   -4.4983   27.6561 N   0  0  0  0  0  0  0  0  0  0  0  0
    9.5588   -4.8045   28.8723 C   0  0  0  0  0  0  0  0  0  0  0  0
    9.4927   -3.9643   29.5626 H   0  0  0  0  0  0  0  0  0  0  0  0
    9.1261   -5.6961   29.3229 H   0  0  0  0  0  0  0  0  0  0  0  0
   10.6098   -4.9784   28.6458 H   0  0  0  0  0  0  0  0  0  0  0  0
    9.4093   -4.2824   26.4351 C   0  0  0  0  0  0  0  0  0  0  0  0
   10.4369   -4.5720   26.2263 H   0  0  0  0  0  0  0  0  0  0  0  0
    6.2284   -3.5528   26.2416 H   0  0  0  0  0  0  0  0  0  0  0  0
    9.4300   -2.7841   24.2140 H   0  0  0  0  0  0  0  0  0  0  0  0
    6.6244   -3.3460   23.6340 H   0  0  0  0  0  0  0  0  0  0  0  0
    6.9462   -1.9029   24.5533 H   0  0  0  0  0  0  0  0  0  0  0  0
    8.3382   -2.5330   21.9334 H   0  0  0  0  0  0  0  0  0  0  0  0
    5.6359   -1.2361   22.3549 H   0  0  0  0  0  0  0  0  0  0  0  0
    6.1375   -2.3788   21.0918 H   0  0  0  0  0  0  0  0  0  0  0  0
   10.0178   -0.5678   22.5262 C   0  0  0  0  0  0  0  0  0  0  0  0
   10.6476   -1.5196   21.7108 C   0  0  0  0  0  0  0  0  0  0  0  0
   12.0043   -1.4261   21.4539 C   0  0  0  0  0  0  0  0  0  0  0  0
   12.7371   -2.5493   20.3408 Cl  0  0  0  0  0  0  0  0  0  0  0  0
   12.7872   -0.4164   22.0145 C   0  0  0  0  0  0  0  0  0  0  0  0
   12.1748    0.5305   22.8101 C   0  0  0  0  0  0  0  0  0  0  0  0
   10.7999    0.4751   23.0412 C   0  0  0  0  0  0  0  0  0  0  0  0
   10.1849    1.6384   23.7601 C   0  0  0  0  0  0  0  0  0  0  0  0
   10.8668    2.5861   24.1357 O   0  0  0  0  0  0  0  0  0  0  0  0
   12.7184    1.3661   23.2365 H   0  0  0  0  0  0  0  0  0  0  0  0
   13.8476   -0.3842   21.7903 H   0  0  0  0  0  0  0  0  0  0  0  0
   10.0977   -2.3077   21.2089 H   0  0  0  0  0  0  0  0  0  0  0  0
    8.2502   -0.2488   24.7690 H   0  0  0  0  0  0  0  0  0  0  0  0
    7.0298    0.5893   23.7922 H   0  0  0  0  0  0  0  0  0  0  0  0
    8.8825    3.5230   24.5851 H   0  0  0  0  0  0  0  0  0  0  0  0
    7.7406    2.4975   25.4891 H   0  0  0  0  0  0  0  0  0  0  0  0
    8.2891    3.5246   22.1173 H   0  0  0  0  0  0  0  0  0  0  0  0
    6.1504    3.5404   20.7122 H   0  0  0  0  0  0  0  0  0  0  0  0
    6.8688    5.1579   21.0111 H   0  0  0  0  0  0  0  0  0  0  0  0
    5.5032    4.5894   22.0047 H   0  0  0  0  0  0  0  0  0  0  0  0
  1  2  1  0
  2  3  1  0
  3  4  2  0
  3  5  1  0
  5  6  1  0
  6  7  1  0
  8  7  1  1
  8  9  1  0
  9 10  2  0
  9 11  1  0
 11 12  1  0
 12 13  2  0
 13 14  1  0
 14 15  2  0
 15 16  1  0
 16 17  2  0
 17 18  1  0
 18 19  2  0
 19 20  1  0
 20 21  2  0
 20 22  1  0
 19 23  1  0
 18 24  1  0
 17 25  1  0
 15 26  1  0
 13 27  1  0
 11 28  1  0
 28 29  1  0
 29 30  1  0
 30 31  1  0
 31 32  1  0
 32 33  1  0
 33 34  2  0
 34 35  1  0
 35 36  1  0
 36 37  1  0
 36 38  1  0
 36 39  1  0
 35 40  1  0
 40 41  1  0
 33 42  1  0
 31 43  1  0
 30 44  1  0
 30 45  1  0
 29 46  1  6
 28 47  1  0
 28 48  1  0
  8 49  1  0
 49 50  2  0
 50 51  1  0
 51 52  1  0
 51 53  2  0
 53 54  1  0
 54 55  2  0
 55 56  1  0
 56 57  2  0
 54 58  1  0
 53 59  1  0
 50 60  1  0
  7 61  1  0
  7 62  1  0
  5 63  1  0
  5 64  1  0
  2 65  1  0
  1 66  1  0
  1 67  1  0
  1 68  1  0
 56  6  1  0
 29  8  1  0
 40 32  2  0
 55 49  1  0
 21 12  1  0
 21 16  1  0
M  END
>  <cnnaffinities>  (26) 
[6.55174]

>  <score>  (26) 
6.55174

>  <index>  (26) 
25

>  <Smiles>  (26) 
C(N(C(=O)C(N1C([C@@]2(C(=O)N(c3c(nc(c4c(c(c(c(c34)[H])[H])[H])[H])[H])[H])C([C@@]2(C(N(c2c(nn(C([H])([H])[H])c2[H])[H])[H])([H])[H])[H])([H])[H])c2c(c(Cl)c(c(c2C1=O)[H])[H])[H])([H])[H])([H])[H])[H])([H])([H])[H]

>  <h>  (26) 
<NA>

>  <Training>  (26) 
True

>  <Success>  (26) 
True

>  <enamine_searched>  (26) 
False

>  <enamine_id>  (26) 
nan

$$$$

     RDKit          3D

 43 47  0  0  0  0  0  0  0  0999 V2000
    8.9728    0.4870   20.6036 O   0  0  0  0  0  0  0  0  0  0  0  0
    8.2749   -0.3968   21.0314 C   0  0  0  0  0  0  0  0  0  0  0  0
    8.6434   -1.4466   21.8287 N   0  0  0  0  0  0  0  0  0  0  0  0
    7.5286   -2.0978   22.4784 C   0  0  1  0  0  0  0  0  0  0  0  0
    7.5631   -3.6364   22.5476 C   0  0  0  0  0  0  0  0  0  0  0  0
    7.5958   -3.5923   24.1038 C   0  0  2  0  0  0  0  0  0  0  0  0
    6.4920   -4.3189   24.8358 C   0  0  0  0  0  0  0  0  0  0  0  0
    5.8181   -5.4003   24.2612 C   0  0  0  0  0  0  0  0  0  0  0  0
    4.7838   -6.0487   24.9233 C   0  0  0  0  0  0  0  0  0  0  0  0
    4.4036   -5.6358   26.1988 C   0  0  0  0  0  0  0  0  0  0  0  0
    5.0865   -4.5910   26.8146 C   0  0  0  0  0  0  0  0  0  0  0  0
    6.1293   -3.9662   26.1403 C   0  0  0  0  0  0  0  0  0  0  0  0
    7.0144   -2.7072   26.9719 Cl  0  0  0  0  0  0  0  0  0  0  0  0
    4.8293   -4.2527   27.8143 H   0  0  0  0  0  0  0  0  0  0  0  0
    3.5961   -6.1368   26.7263 H   0  0  0  0  0  0  0  0  0  0  0  0
    4.2782   -6.8770   24.4342 H   0  0  0  0  0  0  0  0  0  0  0  0
    6.1219   -5.7211   23.2676 H   0  0  0  0  0  0  0  0  0  0  0  0
    7.4738   -2.0369   24.0266 C   0  0  0  0  0  0  0  0  0  0  0  0
    8.3103   -1.4899   24.4777 H   0  0  0  0  0  0  0  0  0  0  0  0
    6.5327   -1.6315   24.4126 H   0  0  0  0  0  0  0  0  0  0  0  0
    8.5753   -3.8979   24.5059 H   0  0  0  0  0  0  0  0  0  0  0  0
    6.6638   -4.0701   22.1000 H   0  0  0  0  0  0  0  0  0  0  0  0
    8.4515   -4.0555   22.0695 H   0  0  0  0  0  0  0  0  0  0  0  0
    6.3439   -1.4978   21.7317 C   0  0  0  0  0  0  0  0  0  0  0  0
    5.1755   -1.7725   21.8837 O   0  0  0  0  0  0  0  0  0  0  0  0
    6.8696   -0.5465   20.8448 N   0  0  0  0  0  0  0  0  0  0  0  0
    6.1260    0.0569   19.7842 C   0  0  0  0  0  0  0  0  0  0  0  0
    6.4593   -0.2276   18.4818 C   0  0  0  0  0  0  0  0  0  0  0  0
    5.7817    0.2353   17.4057 N   0  0  0  0  0  0  0  0  0  0  0  0
    4.7569    1.0180   17.6183 C   0  0  0  0  0  0  0  0  0  0  0  0
    4.3088    1.4108   18.9065 C   0  0  0  0  0  0  0  0  0  0  0  0
    3.1822    2.2609   19.0701 C   0  0  0  0  0  0  0  0  0  0  0  0
    2.7795    2.6469   20.3158 C   0  0  0  0  0  0  0  0  0  0  0  0
    3.4907    2.1909   21.4493 C   0  0  0  0  0  0  0  0  0  0  0  0
    4.5783    1.3620   21.3177 C   0  0  0  0  0  0  0  0  0  0  0  0
    5.0151    0.9322   20.0334 C   0  0  0  0  0  0  0  0  0  0  0  0
    5.1049    1.0144   22.2009 H   0  0  0  0  0  0  0  0  0  0  0  0
    3.1683    2.4995   22.4369 H   0  0  0  0  0  0  0  0  0  0  0  0
    1.9267    3.3106   20.4388 H   0  0  0  0  0  0  0  0  0  0  0  0
    2.6637    2.6050   18.1794 H   0  0  0  0  0  0  0  0  0  0  0  0
    4.2279    1.3791   16.7382 H   0  0  0  0  0  0  0  0  0  0  0  0
    7.2997   -0.8782   18.2564 H   0  0  0  0  0  0  0  0  0  0  0  0
    9.6009   -1.5849   22.1094 H   0  0  0  0  0  0  0  0  0  0  0  0
  1  2  2  0
  2  3  1  0
  4  3  1  6
  4  5  1  0
  5  6  1  0
  6  7  1  0
  7  8  2  0
  8  9  1  0
  9 10  2  0
 10 11  1  0
 11 12  2  0
 12 13  1  0
 11 14  1  0
 10 15  1  0
  9 16  1  0
  8 17  1  0
  6 18  1  0
 18 19  1  0
 18 20  1  0
  6 21  1  1
  5 22  1  0
  5 23  1  0
  4 24  1  0
 24 25  2  0
 24 26  1  0
 26 27  1  0
 27 28  2  0
 28 29  1  0
 29 30  2  0
 30 31  1  0
 31 32  2  0
 32 33  1  0
 33 34  2  0
 34 35  1  0
 35 36  2  0
 35 37  1  0
 34 38  1  0
 33 39  1  0
 32 40  1  0
 30 41  1  0
 28 42  1  0
  3 43  1  0
 26  2  1  0
 36 27  1  0
 18  4  1  0
 36 31  1  0
 12  7  1  0
M  END
>  <cnnaffinities>  (27) 
[6.07072, 5.96658, 5.79934]

>  <score>  (27) 
6.07072

>  <index>  (27) 
26

>  <Smiles>  (27) 
O=C1N([C@]2(C([C@](c3c(c(c(c(c3Cl)[H])[H])[H])[H])(C2([H])[H])[H])([H])[H])C(=O)N1c1c(nc(c2c(c(c(c(c12)[H])[H])[H])[H])[H])[H])[H]

>  <h>  (27) 
<NA>

>  <Training>  (27) 
True

>  <Success>  (27) 
True

>  <enamine_searched>  (27) 
False

>  <enamine_id>  (27) 
nan

$$$$

     RDKit          3D

 46 48  0  0  0  0  0  0  0  0999 V2000
    7.6401    0.6559   24.4130 C   0  0  0  0  0  0  0  0  0  0  0  0
    7.8408   -0.8010   24.8003 C   0  0  0  0  0  0  0  0  0  0  0  0
    7.7533   -1.7562   23.6059 C   0  0  1  0  0  0  0  0  0  0  0  0
    8.2456   -3.1878   23.9092 C   0  0  0  0  0  0  0  0  0  0  0  0
    7.2361   -4.1511   24.5482 C   0  0  1  0  0  0  0  0  0  0  0  0
    7.2210   -4.1384   26.0740 C   0  0  0  0  0  0  0  0  0  0  0  0
    6.5794   -3.0746   26.6019 F   0  0  0  0  0  0  0  0  0  0  0  0
    8.4559   -4.1556   26.6069 F   0  0  0  0  0  0  0  0  0  0  0  0
    6.5833   -5.2270   26.5548 F   0  0  0  0  0  0  0  0  0  0  0  0
    5.8342   -3.9987   23.9564 C   0  0  0  0  0  0  0  0  0  0  0  0
    5.4226   -2.5417   23.7737 C   0  0  0  0  0  0  0  0  0  0  0  0
    6.4119   -1.7876   23.0044 N   0  0  0  0  0  0  0  0  0  0  0  0
    6.1760   -1.6258   21.6395 C   0  0  0  0  0  0  0  0  0  0  0  0
    5.3626   -2.3090   21.0452 O   0  0  0  0  0  0  0  0  0  0  0  0
    6.9243   -0.4889   20.9099 C   0  0  0  0  0  0  0  0  0  0  0  0
    6.1182    0.0910   19.7698 C   0  0  0  0  0  0  0  0  0  0  0  0
    6.4217   -0.2141   18.4663 C   0  0  0  0  0  0  0  0  0  0  0  0
    5.7551    0.2383   17.3731 N   0  0  0  0  0  0  0  0  0  0  0  0
    4.7338    1.0342   17.5774 C   0  0  0  0  0  0  0  0  0  0  0  0
    4.2847    1.4217   18.8702 C   0  0  0  0  0  0  0  0  0  0  0  0
    3.1607    2.2686   19.0472 C   0  0  0  0  0  0  0  0  0  0  0  0
    2.7481    2.6268   20.3033 C   0  0  0  0  0  0  0  0  0  0  0  0
    3.4402    2.1403   21.4335 C   0  0  0  0  0  0  0  0  0  0  0  0
    4.5309    1.3153   21.2880 C   0  0  0  0  0  0  0  0  0  0  0  0
    4.9898    0.9361   19.9988 C   0  0  0  0  0  0  0  0  0  0  0  0
    5.0428    0.9479   22.1719 H   0  0  0  0  0  0  0  0  0  0  0  0
    3.1053    2.4234   22.4251 H   0  0  0  0  0  0  0  0  0  0  0  0
    1.8926    3.2827   20.4364 H   0  0  0  0  0  0  0  0  0  0  0  0
    2.6395    2.6380   18.1673 H   0  0  0  0  0  0  0  0  0  0  0  0
    4.2001    1.4004   16.6982 H   0  0  0  0  0  0  0  0  0  0  0  0
    7.2645   -0.8669   18.2451 H   0  0  0  0  0  0  0  0  0  0  0  0
    7.2160    0.3034   21.6138 H   0  0  0  0  0  0  0  0  0  0  0  0
    7.8566   -0.9069   20.5085 H   0  0  0  0  0  0  0  0  0  0  0  0
    4.4640   -2.4892   23.2564 H   0  0  0  0  0  0  0  0  0  0  0  0
    5.2889   -2.0702   24.7504 H   0  0  0  0  0  0  0  0  0  0  0  0
    5.8239   -4.4624   22.9684 H   0  0  0  0  0  0  0  0  0  0  0  0
    5.0986   -4.5395   24.5648 H   0  0  0  0  0  0  0  0  0  0  0  0
    7.5829   -5.1703   24.3425 H   0  0  0  0  0  0  0  0  0  0  0  0
    8.5470   -3.6355   22.9569 H   0  0  0  0  0  0  0  0  0  0  0  0
    9.1574   -3.1452   24.5135 H   0  0  0  0  0  0  0  0  0  0  0  0
    8.4337   -1.3651   22.8433 H   0  0  0  0  0  0  0  0  0  0  0  0
    8.8331   -0.9080   25.2581 H   0  0  0  0  0  0  0  0  0  0  0  0
    7.1252   -1.0880   25.5705 H   0  0  0  0  0  0  0  0  0  0  0  0
    7.7428    1.3135   25.2787 H   0  0  0  0  0  0  0  0  0  0  0  0
    8.3789    0.9800   23.6714 H   0  0  0  0  0  0  0  0  0  0  0  0
    6.6430    0.8184   23.9941 H   0  0  0  0  0  0  0  0  0  0  0  0
  1  2  1  0
  2  3  1  0
  3  4  1  0
  4  5  1  0
  5  6  1  0
  6  7  1  0
  6  8  1  0
  6  9  1  0
  5 10  1  0
 10 11  1  0
 11 12  1  0
 12 13  1  0
 13 14  2  0
 13 15  1  0
 15 16  1  0
 16 17  2  0
 17 18  1  0
 18 19  2  0
 19 20  1  0
 20 21  2  0
 21 22  1  0
 22 23  2  0
 23 24  1  0
 24 25  2  0
 24 26  1  0
 23 27  1  0
 22 28  1  0
 21 29  1  0
 19 30  1  0
 17 31  1  0
 15 32  1  0
 15 33  1  0
 11 34  1  0
 11 35  1  0
 10 36  1  0
 10 37  1  0
  5 38  1  1
  4 39  1  0
  4 40  1  0
  3 41  1  6
  2 42  1  0
  2 43  1  0
  1 44  1  0
  1 45  1  0
  1 46  1  0
 12  3  1  0
 25 16  1  0
 25 20  1  0
M  END
>  <cnnaffinities>  (28) 
[5.50423]

>  <score>  (28) 
5.50423

>  <index>  (28) 
27

>  <Smiles>  (28) 
C(C([C@]1(C([C@@](C(F)(F)F)(C(C(N1C(=O)C(c1c(nc(c2c(c(c(c(c12)[H])[H])[H])[H])[H])[H])([H])[H])([H])[H])([H])[H])[H])([H])[H])[H])([H])[H])([H])([H])[H]

>  <h>  (28) 
<NA>

>  <Training>  (28) 
True

>  <Success>  (28) 
True

>  <enamine_searched>  (28) 
False

>  <enamine_id>  (28) 
nan

$$$$

     RDKit          3D

 70 75  0  0  0  0  0  0  0  0999 V2000
    6.5798    4.4461   21.3977 C   0  0  0  0  0  0  0  0  0  0  0  0
    6.9559    3.4461   22.3989 N   0  0  0  0  0  4  0  0  0  0  0  0
    7.9685    3.8902   23.3838 C   0  0  0  0  0  0  0  0  0  0  0  0
    8.1688    2.8373   24.4723 C   0  0  0  0  0  0  0  0  0  0  0  0
    8.7957    1.6359   23.9408 N   0  0  0  0  0  0  0  0  0  0  0  0
    8.0813    0.3773   23.8408 C   0  0  0  0  0  0  0  0  0  0  0  0
    8.4835   -0.4318   22.5763 C   0  0  2  0  0  0  0  0  0  0  0  0
    7.8815    0.3100   21.3675 C   0  0  0  0  0  0  0  0  0  0  0  0
    8.1209    1.4638   21.0221 O   0  0  0  0  0  0  0  0  0  0  0  0
    6.9068   -0.4644   20.8050 N   0  0  0  0  0  0  0  0  0  0  0  0
    6.1180    0.0805   19.7630 C   0  0  0  0  0  0  0  0  0  0  0  0
    6.4620   -0.1993   18.4681 C   0  0  0  0  0  0  0  0  0  0  0  0
    5.7779    0.2491   17.3936 N   0  0  0  0  0  0  0  0  0  0  0  0
    4.7429    1.0206   17.6202 C   0  0  0  0  0  0  0  0  0  0  0  0
    4.3047    1.4099   18.9179 C   0  0  0  0  0  0  0  0  0  0  0  0
    3.1817    2.2569   19.1008 C   0  0  0  0  0  0  0  0  0  0  0  0
    2.8022    2.6513   20.3546 C   0  0  0  0  0  0  0  0  0  0  0  0
    3.5195    2.2066   21.4853 C   0  0  0  0  0  0  0  0  0  0  0  0
    4.6054    1.3715   21.3373 C   0  0  0  0  0  0  0  0  0  0  0  0
    5.0228    0.9457   20.0417 C   0  0  0  0  0  0  0  0  0  0  0  0
    5.1304    1.0143   22.2197 H   0  0  0  0  0  0  0  0  0  0  0  0
    3.2065    2.5275   22.4745 H   0  0  0  0  0  0  0  0  0  0  0  0
    1.9475    3.3074   20.4825 H   0  0  0  0  0  0  0  0  0  0  0  0
    2.6455    2.5817   18.2152 H   0  0  0  0  0  0  0  0  0  0  0  0
    4.1928    1.3832   16.7517 H   0  0  0  0  0  0  0  0  0  0  0  0
    7.3346   -0.8183   18.2722 H   0  0  0  0  0  0  0  0  0  0  0  0
    6.4938   -1.5672   21.6554 C   0  0  0  0  0  0  0  0  0  0  0  0
    7.7478   -1.8052   22.5089 C   0  0  2  0  0  0  0  0  0  0  0  0
    7.4487   -2.4339   23.8621 C   0  0  0  0  0  0  0  0  0  0  0  0
    6.8322   -3.6915   23.6750 O   0  0  0  0  0  0  0  0  0  0  0  0
    6.4755   -4.2775   24.9067 C   0  0  0  0  0  0  0  0  0  0  0  0
    5.7682   -5.5913   24.6467 C   0  0  0  0  0  0  0  0  0  0  0  0
    5.4071   -6.1158   25.8717 F   0  0  0  0  0  0  0  0  0  0  0  0
    4.6459   -5.6833   23.6196 C   0  0  0  0  0  0  0  0  0  0  0  0
    5.3992   -6.6081   22.8242 O   0  0  0  0  0  0  0  0  0  0  0  0
    6.5000   -6.5657   23.7395 C   0  0  0  0  0  0  0  0  0  0  0  0
    6.7407   -7.5365   24.1820 H   0  0  0  0  0  0  0  0  0  0  0  0
    7.3768   -6.1155   23.2780 H   0  0  0  0  0  0  0  0  0  0  0  0
    4.4143   -4.7649   23.0749 H   0  0  0  0  0  0  0  0  0  0  0  0
    3.7346   -6.1363   24.0235 H   0  0  0  0  0  0  0  0  0  0  0  0
    7.3698   -4.4823   25.5173 H   0  0  0  0  0  0  0  0  0  0  0  0
    5.8242   -3.6070   25.4842 H   0  0  0  0  0  0  0  0  0  0  0  0
    8.3845   -2.5372   24.4376 H   0  0  0  0  0  0  0  0  0  0  0  0
    6.7695   -1.7802   24.4348 H   0  0  0  0  0  0  0  0  0  0  0  0
    8.3673   -2.5059   21.9500 H   0  0  0  0  0  0  0  0  0  0  0  0
    6.2189   -2.4377   21.0576 H   0  0  0  0  0  0  0  0  0  0  0  0
    5.6227   -1.3049   22.2745 H   0  0  0  0  0  0  0  0  0  0  0  0
    9.9992   -0.4880   22.4830 C   0  0  0  0  0  0  0  0  0  0  0  0
   10.6551   -1.4701   21.7228 C   0  0  0  0  0  0  0  0  0  0  0  0
   12.0169   -1.3761   21.5004 C   0  0  0  0  0  0  0  0  0  0  0  0
   12.7836   -2.4626   20.3710 Cl  0  0  0  0  0  0  0  0  0  0  0  0
   12.7866   -0.3813   22.1053 C   0  0  0  0  0  0  0  0  0  0  0  0
   12.1601    0.5534   22.8958 C   0  0  0  0  0  0  0  0  0  0  0  0
   10.7729    0.5429   23.0394 C   0  0  0  0  0  0  0  0  0  0  0  0
   10.1461    1.7000   23.7482 C   0  0  0  0  0  0  0  0  0  0  0  0
   10.8121    2.6638   24.1128 O   0  0  0  0  0  0  0  0  0  0  0  0
   12.7427    1.3244   23.3874 H   0  0  0  0  0  0  0  0  0  0  0  0
   13.8540   -0.3353   21.9359 H   0  0  0  0  0  0  0  0  0  0  0  0
   10.1245   -2.3026   21.2778 H   0  0  0  0  0  0  0  0  0  0  0  0
    8.2732   -0.2155   24.7417 H   0  0  0  0  0  0  0  0  0  0  0  0
    7.0062    0.5831   23.7854 H   0  0  0  0  0  0  0  0  0  0  0  0
    7.2125    2.5698   24.9338 H   0  0  0  0  0  0  0  0  0  0  0  0
    8.8278    3.2244   25.2524 H   0  0  0  0  0  0  0  0  0  0  0  0
    8.9230    4.0475   22.8772 H   0  0  0  0  0  0  0  0  0  0  0  0
    7.6725    4.8451   23.8315 H   0  0  0  0  0  0  0  0  0  0  0  0
    7.3101    2.6012   21.9097 H   0  0  0  0  0  0  0  0  0  0  0  0
    6.0911    3.1811   22.9008 H   0  0  0  0  0  0  0  0  0  0  0  0
    5.6873    4.1108   20.8634 H   0  0  0  0  0  0  0  0  0  0  0  0
    7.3877    4.5946   20.6830 H   0  0  0  0  0  0  0  0  0  0  0  0
    6.3695    5.4108   21.8661 H   0  0  0  0  0  0  0  0  0  0  0  0
  1  2  1  0
  2  3  1  0
  3  4  1  0
  4  5  1  0
  5  6  1  0
  7  6  1  1
  7  8  1  0
  8  9  2  0
  8 10  1  0
 10 11  1  0
 11 12  2  0
 12 13  1  0
 13 14  2  0
 14 15  1  0
 15 16  2  0
 16 17  1  0
 17 18  2  0
 18 19  1  0
 19 20  2  0
 19 21  1  0
 18 22  1  0
 17 23  1  0
 16 24  1  0
 14 25  1  0
 12 26  1  0
 10 27  1  0
 27 28  1  0
 28 29  1  0
 29 30  1  0
 30 31  1  0
 31 32  1  0
 32 33  1  0
 32 34  1  0
 34 35  1  0
 35 36  1  0
 36 37  1  0
 36 38  1  0
 34 39  1  0
 34 40  1  0
 31 41  1  0
 31 42  1  0
 29 43  1  0
 29 44  1  0
 28 45  1  6
 27 46  1  0
 27 47  1  0
  7 48  1  0
 48 49  2  0
 49 50  1  0
 50 51  1  0
 50 52  2  0
 52 53  1  0
 53 54  2  0
 54 55  1  0
 55 56  2  0
 53 57  1  0
 52 58  1  0
 49 59  1  0
  6 60  1  0
  6 61  1  0
  4 62  1  0
  4 63  1  0
  3 64  1  0
  3 65  1  0
  2 66  1  0
  2 67  1  0
  1 68  1  0
  1 69  1  0
  1 70  1  0
 55  5  1  0
 28  7  1  0
 36 32  1  0
 54 48  1  0
 20 11  1  0
 20 15  1  0
M  CHG  1   2   1
M  END
>  <cnnaffinities>  (29) 
[6.86436, 6.02272]

>  <score>  (29) 
6.86436

>  <index>  (29) 
28

>  <Smiles>  (29) 
C([N+](C(C(N1C([C@@]2(C(=O)N(c3c(nc(c4c(c(c(c(c34)[H])[H])[H])[H])[H])[H])C([C@@]2(C(OC(C2(F)C(OC2([H])[H])([H])[H])([H])[H])([H])[H])[H])([H])[H])c2c(c(Cl)c(c(c2C1=O)[H])[H])[H])([H])[H])([H])[H])([H])[H])([H])[H])([H])([H])[H]

>  <h>  (29) 
<NA>

>  <Training>  (29) 
True

>  <Success>  (29) 
True

>  <enamine_searched>  (29) 
False

>  <enamine_id>  (29) 
nan

$$$$

     RDKit          3D

 67 72  0  0  0  0  0  0  0  0999 V2000
    6.6146    4.3683   21.3248 C   0  0  0  0  0  0  0  0  0  0  0  0
    7.0014    3.3799   22.3350 N   0  0  0  0  0  4  0  0  0  0  0  0
    8.0430    3.8327   23.2820 C   0  0  0  0  0  0  0  0  0  0  0  0
    8.2511    2.8055   24.4000 C   0  0  0  0  0  0  0  0  0  0  0  0
    8.8866    1.5819   23.9249 N   0  0  0  0  0  0  0  0  0  0  0  0
    8.1538    0.3341   23.8147 C   0  0  0  0  0  0  0  0  0  0  0  0
    8.5291   -0.4724   22.5384 C   0  0  2  0  0  0  0  0  0  0  0  0
    7.9325    0.2837   21.3409 C   0  0  0  0  0  0  0  0  0  0  0  0
    8.2296    1.4222   20.9837 O   0  0  0  0  0  0  0  0  0  0  0  0
    6.9103   -0.4370   20.8046 N   0  0  0  0  0  0  0  0  0  0  0  0
    6.1270    0.1046   19.7534 C   0  0  0  0  0  0  0  0  0  0  0  0
    6.4618   -0.1870   18.4579 C   0  0  0  0  0  0  0  0  0  0  0  0
    5.7705    0.2546   17.3850 N   0  0  0  0  0  0  0  0  0  0  0  0
    4.7362    1.0298   17.6052 C   0  0  0  0  0  0  0  0  0  0  0  0
    4.2963    1.4233   18.9027 C   0  0  0  0  0  0  0  0  0  0  0  0
    3.1700    2.2680   19.0956 C   0  0  0  0  0  0  0  0  0  0  0  0
    2.7964    2.6595   20.3537 C   0  0  0  0  0  0  0  0  0  0  0  0
    3.5179    2.2133   21.4816 C   0  0  0  0  0  0  0  0  0  0  0  0
    4.6005    1.3786   21.3204 C   0  0  0  0  0  0  0  0  0  0  0  0
    5.0206    0.9616   20.0242 C   0  0  0  0  0  0  0  0  0  0  0  0
    5.1290    1.0145   22.1979 H   0  0  0  0  0  0  0  0  0  0  0  0
    3.2166    2.5355   22.4761 H   0  0  0  0  0  0  0  0  0  0  0  0
    1.9472    3.3220   20.4858 H   0  0  0  0  0  0  0  0  0  0  0  0
    2.6306    2.6046   18.2144 H   0  0  0  0  0  0  0  0  0  0  0  0
    4.1844    1.3894   16.7345 H   0  0  0  0  0  0  0  0  0  0  0  0
    7.3287   -0.8141   18.2538 H   0  0  0  0  0  0  0  0  0  0  0  0
    6.4821   -1.5297   21.6530 C   0  0  0  0  0  0  0  0  0  0  0  0
    7.7604   -1.8287   22.4525 C   0  0  2  0  0  0  0  0  0  0  0  0
    7.4671   -2.5408   23.7828 C   0  0  0  0  0  0  0  0  0  0  0  0
    6.8664   -3.8539   23.6190 N   0  0  0  0  0  0  0  0  0  0  0  0
    5.5442   -4.1069   23.6492 C   0  0  0  0  0  0  0  0  0  0  0  0
    5.1615   -5.3648   23.3353 N   0  0  0  0  0  0  0  0  0  0  0  0
    3.8578   -5.5610   23.3756 C   0  0  0  0  0  0  0  0  0  0  0  0
    2.9136   -4.6684   23.6960 N   0  0  0  0  0  0  0  0  0  0  0  0
    3.4171   -3.4754   23.9994 C   0  0  0  0  0  0  0  0  0  0  0  0
    4.6938   -3.1152   23.9829 N   0  0  0  0  0  0  0  0  0  0  0  0
    2.7042   -2.7071   24.2946 H   0  0  0  0  0  0  0  0  0  0  0  0
    3.5196   -6.5654   23.1208 H   0  0  0  0  0  0  0  0  0  0  0  0
    7.4527   -4.6500   23.4222 H   0  0  0  0  0  0  0  0  0  0  0  0
    6.7681   -1.9384   24.3703 H   0  0  0  0  0  0  0  0  0  0  0  0
    8.3957   -2.6576   24.3518 H   0  0  0  0  0  0  0  0  0  0  0  0
    8.3634   -2.4975   21.8361 H   0  0  0  0  0  0  0  0  0  0  0  0
    5.6590   -1.2295   22.3222 H   0  0  0  0  0  0  0  0  0  0  0  0
    6.1391   -2.3767   21.0545 H   0  0  0  0  0  0  0  0  0  0  0  0
   10.0460   -0.5491   22.4247 C   0  0  0  0  0  0  0  0  0  0  0  0
   10.6901   -1.5421   21.6673 C   0  0  0  0  0  0  0  0  0  0  0  0
   12.0440   -1.4341   21.3952 C   0  0  0  0  0  0  0  0  0  0  0  0
   12.7807   -2.5663   20.2945 Cl  0  0  0  0  0  0  0  0  0  0  0  0
   12.8208   -0.4073   21.9337 C   0  0  0  0  0  0  0  0  0  0  0  0
   12.2092    0.5330   22.7340 C   0  0  0  0  0  0  0  0  0  0  0  0
   10.8320    0.4870   22.9542 C   0  0  0  0  0  0  0  0  0  0  0  0
   10.2309    1.6422   23.6998 C   0  0  0  0  0  0  0  0  0  0  0  0
   10.9088    2.6049   24.0454 O   0  0  0  0  0  0  0  0  0  0  0  0
   12.7761    1.3402   23.1871 H   0  0  0  0  0  0  0  0  0  0  0  0
   13.8846   -0.3606   21.7183 H   0  0  0  0  0  0  0  0  0  0  0  0
   10.1652   -2.4021   21.2623 H   0  0  0  0  0  0  0  0  0  0  0  0
    7.0786    0.5506   23.7829 H   0  0  0  0  0  0  0  0  0  0  0  0
    8.3491   -0.2846   24.6981 H   0  0  0  0  0  0  0  0  0  0  0  0
    7.2944    2.5456   24.8669 H   0  0  0  0  0  0  0  0  0  0  0  0
    8.9034    3.2239   25.1684 H   0  0  0  0  0  0  0  0  0  0  0  0
    8.9898    3.9745   22.7516 H   0  0  0  0  0  0  0  0  0  0  0  0
    7.7635    4.8033   23.7102 H   0  0  0  0  0  0  0  0  0  0  0  0
    6.1545    3.1148   22.8665 H   0  0  0  0  0  0  0  0  0  0  0  0
    7.3545    2.5337   21.8504 H   0  0  0  0  0  0  0  0  0  0  0  0
    6.4543    5.3527   21.7799 H   0  0  0  0  0  0  0  0  0  0  0  0
    5.6884    4.0414   20.8458 H   0  0  0  0  0  0  0  0  0  0  0  0
    7.3978    4.4529   20.5684 H   0  0  0  0  0  0  0  0  0  0  0  0
  1  2  1  0
  2  3  1  0
  3  4  1  0
  4  5  1  0
  5  6  1  0
  7  6  1  1
  7  8  1  0
  8  9  2  0
  8 10  1  0
 10 11  1  0
 11 12  2  0
 12 13  1  0
 13 14  2  0
 14 15  1  0
 15 16  2  0
 16 17  1  0
 17 18  2  0
 18 19  1  0
 19 20  2  0
 19 21  1  0
 18 22  1  0
 17 23  1  0
 16 24  1  0
 14 25  1  0
 12 26  1  0
 10 27  1  0
 27 28  1  0
 28 29  1  0
 29 30  1  0
 30 31  1  0
 31 32  2  0
 32 33  1  0
 33 34  2  0
 34 35  1  0
 35 36  2  0
 35 37  1  0
 33 38  1  0
 30 39  1  0
 29 40  1  0
 29 41  1  0
 28 42  1  6
 27 43  1  0
 27 44  1  0
  7 45  1  0
 45 46  2  0
 46 47  1  0
 47 48  1  0
 47 49  2  0
 49 50  1  0
 50 51  2  0
 51 52  1  0
 52 53  2  0
 50 54  1  0
 49 55  1  0
 46 56  1  0
  6 57  1  0
  6 58  1  0
  4 59  1  0
  4 60  1  0
  3 61  1  0
  3 62  1  0
  2 63  1  0
  2 64  1  0
  1 65  1  0
  1 66  1  0
  1 67  1  0
 52  5  1  0
 28  7  1  0
 36 31  1  0
 51 45  1  0
 20 11  1  0
 20 15  1  0
M  CHG  1   2   1
M  END
>  <cnnaffinities>  (30) 
[6.5652, 6.61228]

>  <score>  (30) 
6.5652

>  <index>  (30) 
29

>  <Smiles>  (30) 
C([N+](C(C(N1C([C@@]2(C(=O)N(c3c(nc(c4c(c(c(c(c34)[H])[H])[H])[H])[H])[H])C([C@@]2(C(N(c2nc(nc(n2)[H])[H])[H])([H])[H])[H])([H])[H])c2c(c(Cl)c(c(c2C1=O)[H])[H])[H])([H])[H])([H])[H])([H])[H])([H])[H])([H])([H])[H]

>  <h>  (30) 
<NA>

>  <Training>  (30) 
True

>  <Success>  (30) 
True

>  <enamine_searched>  (30) 
False

>  <enamine_id>  (30) 
nan

$$$$

     RDKit          3D

 66 71  0  0  0  0  0  0  0  0999 V2000
    6.5377    4.3745   21.3904 C   0  0  0  0  0  0  0  0  0  0  0  0
    7.5107    3.9252   22.3740 N   0  0  0  0  0  0  0  0  0  0  0  0
    7.0670    3.2902   23.4968 C   0  0  0  0  0  0  0  0  0  0  0  0
    5.8768    3.1445   23.7305 O   0  0  0  0  0  0  0  0  0  0  0  0
    8.1344    2.7745   24.4722 C   0  0  0  0  0  0  0  0  0  0  0  0
    8.8230    1.6122   23.9321 N   0  0  0  0  0  0  0  0  0  0  0  0
    8.0970    0.3503   23.8239 C   0  0  0  0  0  0  0  0  0  0  0  0
    8.5103   -0.4769   22.5708 C   0  0  2  0  0  0  0  0  0  0  0  0
    8.0088    0.2457   21.2945 C   0  0  0  0  0  0  0  0  0  0  0  0
    8.4897    1.2314   20.7768 O   0  0  0  0  0  0  0  0  0  0  0  0
    6.9035   -0.4189   20.8239 N   0  0  0  0  0  0  0  0  0  0  0  0
    6.1316    0.1080   19.7602 C   0  0  0  0  0  0  0  0  0  0  0  0
    6.4689   -0.1847   18.4648 C   0  0  0  0  0  0  0  0  0  0  0  0
    5.7810    0.2528   17.3853 N   0  0  0  0  0  0  0  0  0  0  0  0
    4.7351    1.0136   17.5967 C   0  0  0  0  0  0  0  0  0  0  0  0
    4.2728    1.3911   18.8902 C   0  0  0  0  0  0  0  0  0  0  0  0
    3.1414    2.2278   19.0782 C   0  0  0  0  0  0  0  0  0  0  0  0
    2.7543    2.6060   20.3350 C   0  0  0  0  0  0  0  0  0  0  0  0
    3.4783    2.1625   21.4660 C   0  0  0  0  0  0  0  0  0  0  0  0
    4.5681    1.3388   21.3126 C   0  0  0  0  0  0  0  0  0  0  0  0
    4.9935    0.9313   20.0173 C   0  0  0  0  0  0  0  0  0  0  0  0
    5.1403    1.0289   22.1839 H   0  0  0  0  0  0  0  0  0  0  0  0
    3.1933    2.4947   22.4595 H   0  0  0  0  0  0  0  0  0  0  0  0
    1.8991    3.2628   20.4675 H   0  0  0  0  0  0  0  0  0  0  0  0
    2.6114    2.5733   18.1949 H   0  0  0  0  0  0  0  0  0  0  0  0
    4.1942    1.3744   16.7212 H   0  0  0  0  0  0  0  0  0  0  0  0
    7.3401   -0.8053   18.2630 H   0  0  0  0  0  0  0  0  0  0  0  0
    6.4994   -1.5517   21.6228 C   0  0  0  0  0  0  0  0  0  0  0  0
    7.7424   -1.8499   22.4815 C   0  0  2  0  0  0  0  0  0  0  0  0
    7.3942   -2.5517   23.8174 C   0  0  0  0  0  0  0  0  0  0  0  0
    6.7197   -3.9090   23.6904 C   0  0  0  0  0  0  0  0  0  0  0  0
    5.3342   -4.0260   23.5093 C   0  0  0  0  0  0  0  0  0  0  0  0
    4.7328   -5.2746   23.3509 C   0  0  0  0  0  0  0  0  0  0  0  0
    5.5023   -6.4343   23.3858 C   0  0  0  0  0  0  0  0  0  0  0  0
    6.8718   -6.3379   23.6077 C   0  0  0  0  0  0  0  0  0  0  0  0
    7.4649   -5.0860   23.7750 C   0  0  0  0  0  0  0  0  0  0  0  0
    8.5242   -5.0169   24.0211 H   0  0  0  0  0  0  0  0  0  0  0  0
    7.4960   -7.2285   23.6546 H   0  0  0  0  0  0  0  0  0  0  0  0
    5.0468   -7.4167   23.2706 H   0  0  0  0  0  0  0  0  0  0  0  0
    3.6556   -5.3495   23.2188 H   0  0  0  0  0  0  0  0  0  0  0  0
    4.7031   -3.1365   23.5095 H   0  0  0  0  0  0  0  0  0  0  0  0
    6.7412   -1.8880   24.4008 H   0  0  0  0  0  0  0  0  0  0  0  0
    8.3240   -2.6659   24.3885 H   0  0  0  0  0  0  0  0  0  0  0  0
    8.3665   -2.5368   21.9011 H   0  0  0  0  0  0  0  0  0  0  0  0
    5.6183   -1.3100   22.2346 H   0  0  0  0  0  0  0  0  0  0  0  0
    6.2181   -2.4006   20.9910 H   0  0  0  0  0  0  0  0  0  0  0  0
   10.0301   -0.5226   22.5053 C   0  0  0  0  0  0  0  0  0  0  0  0
   10.6813   -1.4475   21.6767 C   0  0  0  0  0  0  0  0  0  0  0  0
   12.0522   -1.3793   21.4950 C   0  0  0  0  0  0  0  0  0  0  0  0
   12.8189   -2.4533   20.3546 Cl  0  0  0  0  0  0  0  0  0  0  0  0
   12.8228   -0.4251   22.1618 C   0  0  0  0  0  0  0  0  0  0  0  0
   12.1958    0.4938   22.9729 C   0  0  0  0  0  0  0  0  0  0  0  0
   10.8057    0.4909   23.0942 C   0  0  0  0  0  0  0  0  0  0  0  0
   10.1819    1.6686   23.7811 C   0  0  0  0  0  0  0  0  0  0  0  0
   10.8537    2.6267   24.1411 O   0  0  0  0  0  0  0  0  0  0  0  0
   12.7789    1.2473   23.4944 H   0  0  0  0  0  0  0  0  0  0  0  0
   13.8964   -0.3876   22.0248 H   0  0  0  0  0  0  0  0  0  0  0  0
   10.1312   -2.2067   21.1312 H   0  0  0  0  0  0  0  0  0  0  0  0
    8.2713   -0.2433   24.7316 H   0  0  0  0  0  0  0  0  0  0  0  0
    7.0292    0.5827   23.7694 H   0  0  0  0  0  0  0  0  0  0  0  0
    8.9078    3.5292   24.6480 H   0  0  0  0  0  0  0  0  0  0  0  0
    7.6483    2.5498   25.4344 H   0  0  0  0  0  0  0  0  0  0  0  0
    8.4271    3.6758   22.0293 H   0  0  0  0  0  0  0  0  0  0  0  0
    5.6924    4.8142   21.9253 H   0  0  0  0  0  0  0  0  0  0  0  0
    6.1649    3.5288   20.7949 H   0  0  0  0  0  0  0  0  0  0  0  0
    6.9762    5.1287   20.7277 H   0  0  0  0  0  0  0  0  0  0  0  0
  1  2  1  0
  2  3  1  0
  3  4  2  0
  3  5  1  0
  5  6  1  0
  6  7  1  0
  8  7  1  1
  8  9  1  0
  9 10  2  0
  9 11  1  0
 11 12  1  0
 12 13  2  0
 13 14  1  0
 14 15  2  0
 15 16  1  0
 16 17  2  0
 17 18  1  0
 18 19  2  0
 19 20  1  0
 20 21  2  0
 20 22  1  0
 19 23  1  0
 18 24  1  0
 17 25  1  0
 15 26  1  0
 13 27  1  0
 11 28  1  0
 28 29  1  0
 29 30  1  0
 30 31  1  0
 31 32  2  0
 32 33  1  0
 33 34  2  0
 34 35  1  0
 35 36  2  0
 36 37  1  0
 35 38  1  0
 34 39  1  0
 33 40  1  0
 32 41  1  0
 30 42  1  0
 30 43  1  0
 29 44  1  6
 28 45  1  0
 28 46  1  0
  8 47  1  0
 47 48  2  0
 48 49  1  0
 49 50  1  0
 49 51  2  0
 51 52  1  0
 52 53  2  0
 53 54  1  0
 54 55  2  0
 52 56  1  0
 51 57  1  0
 48 58  1  0
  7 59  1  0
  7 60  1  0
  5 61  1  0
  5 62  1  0
  2 63  1  0
  1 64  1  0
  1 65  1  0
  1 66  1  0
 54  6  1  0
 29  8  1  0
 36 31  1  0
 53 47  1  0
 21 12  1  0
 21 16  1  0
M  END
>  <cnnaffinities>  (31) 
[6.93116, 6.95532]

>  <score>  (31) 
6.93116

>  <index>  (31) 
30

>  <Smiles>  (31) 
C(N(C(=O)C(N1C([C@@]2(C(=O)N(c3c(nc(c4c(c(c(c(c34)[H])[H])[H])[H])[H])[H])C([C@@]2(C(c2c(c(c(c(c2[H])[H])[H])[H])[H])([H])[H])[H])([H])[H])c2c(c(Cl)c(c(c2C1=O)[H])[H])[H])([H])[H])([H])[H])[H])([H])([H])[H]

>  <h>  (31) 
<NA>

>  <Training>  (31) 
True

>  <Success>  (31) 
True

>  <enamine_searched>  (31) 
False

>  <enamine_id>  (31) 
nan

$$$$

     RDKit          3D

 64 70  0  0  0  0  0  0  0  0999 V2000
   10.4607    2.7817   24.2724 O   0  0  0  0  0  0  0  0  0  0  0  0
    9.8684    1.7658   23.9349 C   0  0  0  0  0  0  0  0  0  0  0  0
   10.5901    0.6044   23.3204 C   0  0  0  0  0  0  0  0  0  0  0  0
   11.9843    0.6103   23.3473 C   0  0  0  0  0  0  0  0  0  0  0  0
   12.7013   -0.2837   22.5777 C   0  0  0  0  0  0  0  0  0  0  0  0
   11.9936   -1.1694   21.7620 C   0  0  0  0  0  0  0  0  0  0  0  0
   12.8194   -2.1163   20.5561 Cl  0  0  0  0  0  0  0  0  0  0  0  0
   10.6181   -1.2687   21.8211 C   0  0  0  0  0  0  0  0  0  0  0  0
    9.8922   -0.4052   22.6482 C   0  0  0  0  0  0  0  0  0  0  0  0
    8.3803   -0.4213   22.6483 C   0  0  1  0  0  0  0  0  0  0  0  0
    7.8743    0.3198   23.9194 C   0  0  0  0  0  0  0  0  0  0  0  0
    8.5090    1.6233   24.0578 N   0  0  0  0  0  0  0  0  0  0  0  0
    7.7490    2.8033   24.4270 C   0  0  0  0  0  0  0  0  0  0  0  0
    7.4979    3.7222   23.2657 C   0  0  0  0  0  0  0  0  0  0  0  0
    7.9932    4.8762   22.9944 N   0  0  0  0  0  0  0  0  0  0  0  0
    7.3434    5.3264   21.8484 N   0  0  0  0  0  0  0  0  0  0  0  0
    6.5188    4.3950   21.5197 C   0  0  0  0  0  0  0  0  0  0  0  0
    6.5525    3.3415   22.3730 O   0  0  0  0  0  0  0  0  0  0  0  0
    5.7757    4.4101   20.7287 H   0  0  0  0  0  0  0  0  0  0  0  0
    8.2996    3.3449   25.1980 H   0  0  0  0  0  0  0  0  0  0  0  0
    6.7810    2.5051   24.8402 H   0  0  0  0  0  0  0  0  0  0  0  0
    8.0873   -0.2882   24.8104 H   0  0  0  0  0  0  0  0  0  0  0  0
    6.7880    0.4670   23.8530 H   0  0  0  0  0  0  0  0  0  0  0  0
    7.8839    0.3320   21.3931 C   0  0  0  0  0  0  0  0  0  0  0  0
    8.2706    1.3928   20.9641 O   0  0  0  0  0  0  0  0  0  0  0  0
    6.8794   -0.4201   20.8260 N   0  0  0  0  0  0  0  0  0  0  0  0
    6.1072    0.0957   19.7630 C   0  0  0  0  0  0  0  0  0  0  0  0
    6.4548   -0.1988   18.4738 C   0  0  0  0  0  0  0  0  0  0  0  0
    5.7809    0.2474   17.3899 N   0  0  0  0  0  0  0  0  0  0  0  0
    4.7464    1.0219   17.6014 C   0  0  0  0  0  0  0  0  0  0  0  0
    4.2832    1.4046   18.8941 C   0  0  0  0  0  0  0  0  0  0  0  0
    3.1575    2.2489   19.0764 C   0  0  0  0  0  0  0  0  0  0  0  0
    2.7449    2.5951   20.3309 C   0  0  0  0  0  0  0  0  0  0  0  0
    3.4242    2.1009   21.4660 C   0  0  0  0  0  0  0  0  0  0  0  0
    4.5185    1.2819   21.3206 C   0  0  0  0  0  0  0  0  0  0  0  0
    4.9745    0.9194   20.0219 C   0  0  0  0  0  0  0  0  0  0  0  0
    5.0499    0.9293   22.2004 H   0  0  0  0  0  0  0  0  0  0  0  0
    3.0871    2.3883   22.4566 H   0  0  0  0  0  0  0  0  0  0  0  0
    1.8922    3.2555   20.4602 H   0  0  0  0  0  0  0  0  0  0  0  0
    2.6430    2.6083   18.1906 H   0  0  0  0  0  0  0  0  0  0  0  0
    4.2155    1.3887   16.7240 H   0  0  0  0  0  0  0  0  0  0  0  0
    7.3231   -0.8283   18.2896 H   0  0  0  0  0  0  0  0  0  0  0  0
    6.5100   -1.6006   21.5696 C   0  0  0  0  0  0  0  0  0  0  0  0
    7.7321   -1.8249   22.4694 C   0  0  2  0  0  0  0  0  0  0  0  0
    7.4265   -2.6022   23.7633 C   0  0  0  0  0  0  0  0  0  0  0  0
    7.0513   -3.9879   23.5416 N   0  0  0  0  0  0  0  0  0  0  0  0
    5.8095   -4.4187   23.1807 C   0  0  0  0  0  0  0  0  0  0  0  0
    4.6199   -3.7022   23.4417 C   0  0  0  0  0  0  0  0  0  0  0  0
    3.4469   -4.2756   22.9961 C   0  0  0  0  0  0  0  0  0  0  0  0
    3.4051   -5.4479   22.3512 N   0  0  0  0  0  0  0  0  0  0  0  0
    4.5810   -6.0406   22.1810 C   0  0  0  0  0  0  0  0  0  0  0  0
    5.7763   -5.6143   22.5638 N   0  0  0  0  0  0  0  0  0  0  0  0
    4.5524   -6.9962   21.6539 H   0  0  0  0  0  0  0  0  0  0  0  0
    2.4891   -3.7711   23.1603 H   0  0  0  0  0  0  0  0  0  0  0  0
    4.6064   -2.7476   23.9637 H   0  0  0  0  0  0  0  0  0  0  0  0
    7.7849   -4.6141   23.2363 H   0  0  0  0  0  0  0  0  0  0  0  0
    6.6237   -2.1047   24.3241 H   0  0  0  0  0  0  0  0  0  0  0  0
    8.3249   -2.5947   24.3958 H   0  0  0  0  0  0  0  0  0  0  0  0
    8.4302   -2.4331   21.8851 H   0  0  0  0  0  0  0  0  0  0  0  0
    6.3242   -2.4365   20.8897 H   0  0  0  0  0  0  0  0  0  0  0  0
    5.5890   -1.4411   22.1527 H   0  0  0  0  0  0  0  0  0  0  0  0
   10.1452   -2.0051   21.1795 H   0  0  0  0  0  0  0  0  0  0  0  0
   13.7857   -0.2753   22.5561 H   0  0  0  0  0  0  0  0  0  0  0  0
   12.4838    1.3606   23.9495 H   0  0  0  0  0  0  0  0  0  0  0  0
  1  2  2  0
  2  3  1  0
  3  4  2  0
  4  5  1  0
  5  6  2  0
  6  7  1  0
  6  8  1  0
  8  9  2  0
  9 10  1  0
 10 11  1  1
 11 12  1  0
 12 13  1  0
 13 14  1  0
 14 15  2  0
 15 16  1  0
 16 17  2  0
 17 18  1  0
 17 19  1  0
 13 20  1  0
 13 21  1  0
 11 22  1  0
 11 23  1  0
 10 24  1  0
 24 25  2  0
 24 26  1  0
 26 27  1  0
 27 28  2  0
 28 29  1  0
 29 30  2  0
 30 31  1  0
 31 32  2  0
 32 33  1  0
 33 34  2  0
 34 35  1  0
 35 36  2  0
 35 37  1  0
 34 38  1  0
 33 39  1  0
 32 40  1  0
 30 41  1  0
 28 42  1  0
 26 43  1  0
 43 44  1  0
 44 45  1  0
 45 46  1  0
 46 47  1  0
 47 48  2  0
 48 49  1  0
 49 50  2  0
 50 51  1  0
 51 52  2  0
 51 53  1  0
 49 54  1  0
 48 55  1  0
 46 56  1  0
 45 57  1  0
 45 58  1  0
 44 59  1  6
 43 60  1  0
 43 61  1  0
  8 62  1  0
  5 63  1  0
  4 64  1  0
 12  2  1  0
 18 14  1  0
 36 27  1  0
 52 47  1  0
  9  3  1  0
 44 10  1  0
 36 31  1  0
M  END
>  <cnnaffinities>  (32) 
[6.56844, 6.46451]

>  <score>  (32) 
6.56844

>  <index>  (32) 
31

>  <Smiles>  (32) 
O=C1c2c(c(c(Cl)c(c2[C@@]2(C(N1C(c1nnc(o1)[H])([H])[H])([H])[H])C(=O)N(c1c(nc(c3c(c(c(c(c13)[H])[H])[H])[H])[H])[H])C([C@@]2(C(N(c1c(c(nc(n1)[H])[H])[H])[H])([H])[H])[H])([H])[H])[H])[H])[H]

>  <h>  (32) 
<NA>

>  <Training>  (32) 
True

>  <Success>  (32) 
True

>  <enamine_searched>  (32) 
False

>  <enamine_id>  (32) 
nan

$$$$

     RDKit          3D

 72 77  0  0  0  0  0  0  0  0999 V2000
    7.6327   -2.7811   23.5431 C   0  0  0  0  0  0  0  0  0  0  0  0
    7.8477   -1.9790   22.2605 C   0  0  1  0  0  0  0  0  0  0  0  0
    6.5231   -1.5437   21.6157 C   0  0  0  0  0  0  0  0  0  0  0  0
    6.9148   -0.4066   20.8103 N   0  0  0  0  0  0  0  0  0  0  0  0
    6.1294    0.1092   19.7533 C   0  0  0  0  0  0  0  0  0  0  0  0
    6.4837   -0.1571   18.4561 C   0  0  0  0  0  0  0  0  0  0  0  0
    5.7938    0.2847   17.3826 N   0  0  0  0  0  0  0  0  0  0  0  0
    4.7392    1.0299   17.6044 C   0  0  0  0  0  0  0  0  0  0  0  0
    4.2665    1.3851   18.9010 C   0  0  0  0  0  0  0  0  0  0  0  0
    3.1451    2.2336   19.0956 C   0  0  0  0  0  0  0  0  0  0  0  0
    2.7586    2.6046   20.3554 C   0  0  0  0  0  0  0  0  0  0  0  0
    3.4495    2.1188   21.4843 C   0  0  0  0  0  0  0  0  0  0  0  0
    4.5144    1.2599   21.3241 C   0  0  0  0  0  0  0  0  0  0  0  0
    4.9695    0.8935   20.0241 C   0  0  0  0  0  0  0  0  0  0  0  0
    5.0478    0.9043   22.2005 H   0  0  0  0  0  0  0  0  0  0  0  0
    3.1494    2.4337   22.4796 H   0  0  0  0  0  0  0  0  0  0  0  0
    1.9223    3.2851   20.4900 H   0  0  0  0  0  0  0  0  0  0  0  0
    2.6225    2.5976   18.2169 H   0  0  0  0  0  0  0  0  0  0  0  0
    4.2012    1.3987   16.7313 H   0  0  0  0  0  0  0  0  0  0  0  0
    7.3630   -0.7655   18.2534 H   0  0  0  0  0  0  0  0  0  0  0  0
    8.0724    0.1961   21.2330 C   0  0  0  0  0  0  0  0  0  0  0  0
    8.5074    1.2675   20.8411 O   0  0  0  0  0  0  0  0  0  0  0  0
    8.6726   -0.6630   22.3711 C   0  0  1  0  0  0  0  0  0  0  0  0
    8.4084    0.0582   23.7098 C   0  0  0  0  0  0  0  0  0  0  0  0
    9.1445    1.3016   23.8077 N   0  0  0  0  0  0  0  0  0  0  0  0
    8.5035    2.4153   24.4895 C   0  0  0  0  0  0  0  0  0  0  0  0
    7.4112    3.0584   23.6260 C   0  0  0  0  0  0  0  0  0  0  0  0
    7.9945    3.6540   22.3752 N   0  0  1  0  0  4  0  0  0  0  0  0
    7.0546    3.7497   21.2065 C   0  0  0  0  0  0  0  0  0  0  0  0
    6.1687    4.9787   21.2207 C   0  0  0  0  0  0  0  0  0  0  0  0
    6.9398    6.1565   21.2891 O   0  0  0  0  0  0  0  0  0  0  0  0
    7.7130    6.2340   22.4923 C   0  0  0  0  0  0  0  0  0  0  0  0
    8.5518    7.4974   22.3322 C   0  0  0  0  0  0  0  0  0  0  0  0
    9.3333    7.3610   21.5793 H   0  0  0  0  0  0  0  0  0  0  0  0
    9.0293    7.7857   23.2741 H   0  0  0  0  0  0  0  0  0  0  0  0
    7.9046    8.3180   22.0074 H   0  0  0  0  0  0  0  0  0  0  0  0
    6.7902    6.4022   23.7055 C   0  0  0  0  0  0  0  0  0  0  0  0
    6.1156    5.5542   23.8457 H   0  0  0  0  0  0  0  0  0  0  0  0
    6.1687    7.2952   23.5690 H   0  0  0  0  0  0  0  0  0  0  0  0
    7.3839    6.5189   24.6209 H   0  0  0  0  0  0  0  0  0  0  0  0
    8.6521    5.0032   22.6006 C   0  0  0  0  0  0  0  0  0  0  0  0
    9.1232    5.0113   23.5886 H   0  0  0  0  0  0  0  0  0  0  0  0
    9.4452    5.1106   21.8550 H   0  0  0  0  0  0  0  0  0  0  0  0
    5.5827    5.0387   20.2948 H   0  0  0  0  0  0  0  0  0  0  0  0
    5.4513    4.9032   22.0508 H   0  0  0  0  0  0  0  0  0  0  0  0
    7.6737    3.7474   20.3116 H   0  0  0  0  0  0  0  0  0  0  0  0
    6.4611    2.8429   21.1629 H   0  0  0  0  0  0  0  0  0  0  0  0
    8.6994    2.9711   22.0379 H   0  0  0  0  0  0  0  0  0  0  0  0
    6.6536    2.3188   23.3300 H   0  0  0  0  0  0  0  0  0  0  0  0
    6.9014    3.8184   24.2193 H   0  0  0  0  0  0  0  0  0  0  0  0
    8.0781    2.0717   25.4428 H   0  0  0  0  0  0  0  0  0  0  0  0
    9.2974    3.1302   24.7186 H   0  0  0  0  0  0  0  0  0  0  0  0
   10.4836    1.3516   23.5304 C   0  0  0  0  0  0  0  0  0  0  0  0
   11.2102    2.2439   23.9432 O   0  0  0  0  0  0  0  0  0  0  0  0
   11.0078    0.2540   22.6452 C   0  0  0  0  0  0  0  0  0  0  0  0
   12.3503    0.3078   22.2703 C   0  0  0  0  0  0  0  0  0  0  0  0
   12.8917   -0.6804   21.4754 C   0  0  0  0  0  0  0  0  0  0  0  0
   12.0744   -1.7336   21.0707 C   0  0  0  0  0  0  0  0  0  0  0  0
   12.7583   -2.9702   20.0559 Cl  0  0  0  0  0  0  0  0  0  0  0  0
   10.7325   -1.7862   21.4008 C   0  0  0  0  0  0  0  0  0  0  0  0
   10.1692   -0.7709   22.1825 C   0  0  0  0  0  0  0  0  0  0  0  0
   10.1344   -2.6054   21.0218 H   0  0  0  0  0  0  0  0  0  0  0  0
   13.9347   -0.6628   21.1699 H   0  0  0  0  0  0  0  0  0  0  0  0
   12.9363    1.1728   22.5609 H   0  0  0  0  0  0  0  0  0  0  0  0
    8.6789   -0.6150   24.5331 H   0  0  0  0  0  0  0  0  0  0  0  0
    7.3420    0.2787   23.7955 H   0  0  0  0  0  0  0  0  0  0  0  0
    5.7840   -1.2747   22.3907 H   0  0  0  0  0  0  0  0  0  0  0  0
    6.0840   -2.3206   20.9847 H   0  0  0  0  0  0  0  0  0  0  0  0
    8.3487   -2.6170   21.5269 H   0  0  0  0  0  0  0  0  0  0  0  0
    7.0760   -3.7002   23.3295 H   0  0  0  0  0  0  0  0  0  0  0  0
    7.0468   -2.2055   24.2716 H   0  0  0  0  0  0  0  0  0  0  0  0
    8.5785   -3.0650   24.0185 H   0  0  0  0  0  0  0  0  0  0  0  0
  1  2  1  0
  2  3  1  0
  3  4  1  0
  4  5  1  0
  5  6  2  0
  6  7  1  0
  7  8  2  0
  8  9  1  0
  9 10  2  0
 10 11  1  0
 11 12  2  0
 12 13  1  0
 13 14  2  0
 13 15  1  0
 12 16  1  0
 11 17  1  0
 10 18  1  0
  8 19  1  0
  6 20  1  0
  4 21  1  0
 21 22  2  0
 21 23  1  0
 23 24  1  1
 24 25  1  0
 25 26  1  0
 26 27  1  0
 27 28  1  0
 28 29  1  0
 29 30  1  0
 30 31  1  0
 31 32  1  0
 32 33  1  0
 33 34  1  0
 33 35  1  0
 33 36  1  0
 32 37  1  0
 37 38  1  0
 37 39  1  0
 37 40  1  0
 32 41  1  0
 41 42  1  0
 41 43  1  0
 30 44  1  0
 30 45  1  0
 29 46  1  0
 29 47  1  0
 28 48  1  6
 27 49  1  0
 27 50  1  0
 26 51  1  0
 26 52  1  0
 25 53  1  0
 53 54  2  0
 53 55  1  0
 55 56  2  0
 56 57  1  0
 57 58  2  0
 58 59  1  0
 58 60  1  0
 60 61  2  0
 60 62  1  0
 57 63  1  0
 56 64  1  0
 24 65  1  0
 24 66  1  0
  3 67  1  0
  3 68  1  0
  2 69  1  6
  1 70  1  0
  1 71  1  0
  1 72  1  0
 23  2  1  0
 41 28  1  0
 61 55  1  0
 14  5  1  0
 61 23  1  0
 14  9  1  0
M  CHG  1  28   1
M  END
>  <cnnaffinities>  (33) 
[6.89597]

>  <score>  (33) 
6.89597

>  <index>  (33) 
32

>  <Smiles>  (33) 
C([C@]1(C(N(c2c(nc(c3c(c(c(c(c23)[H])[H])[H])[H])[H])[H])C(=O)[C@]21C(N(C(C([N@+]1(C(C(OC(C([H])([H])[H])(C([H])([H])[H])C1([H])[H])([H])[H])([H])[H])[H])([H])[H])([H])[H])C(=O)c1c(c(c(Cl)c(c21)[H])[H])[H])([H])[H])([H])[H])[H])([H])([H])[H]

>  <h>  (33) 
<NA>

>  <Training>  (33) 
True

>  <Success>  (33) 
True

>  <enamine_searched>  (33) 
False

>  <enamine_id>  (33) 
nan

$$$$

     RDKit          3D

 44 47  0  0  0  0  0  0  0  0999 V2000
    5.4451   -2.4019   20.9454 O   0  0  0  0  0  0  0  0  0  0  0  0
    6.2312   -1.7172   21.5864 C   0  0  0  0  0  0  0  0  0  0  0  0
    6.9121   -0.4909   20.9259 C   0  0  0  0  0  0  0  0  0  0  0  0
    6.1132    0.0839   19.7755 C   0  0  0  0  0  0  0  0  0  0  0  0
    6.4201   -0.2152   18.4720 C   0  0  0  0  0  0  0  0  0  0  0  0
    5.7540    0.2399   17.3760 N   0  0  0  0  0  0  0  0  0  0  0  0
    4.7343    1.0340   17.5792 C   0  0  0  0  0  0  0  0  0  0  0  0
    4.2832    1.4221   18.8716 C   0  0  0  0  0  0  0  0  0  0  0  0
    3.1605    2.2685   19.0496 C   0  0  0  0  0  0  0  0  0  0  0  0
    2.7494    2.6278   20.3009 C   0  0  0  0  0  0  0  0  0  0  0  0
    3.4463    2.1373   21.4306 C   0  0  0  0  0  0  0  0  0  0  0  0
    4.5332    1.3116   21.2940 C   0  0  0  0  0  0  0  0  0  0  0  0
    4.9884    0.9354   20.0029 C   0  0  0  0  0  0  0  0  0  0  0  0
    5.0489    0.9454   22.1813 H   0  0  0  0  0  0  0  0  0  0  0  0
    3.1104    2.4284   22.4185 H   0  0  0  0  0  0  0  0  0  0  0  0
    1.8950    3.2863   20.4374 H   0  0  0  0  0  0  0  0  0  0  0  0
    2.6409    2.6373   18.1670 H   0  0  0  0  0  0  0  0  0  0  0  0
    4.2014    1.4002   16.6971 H   0  0  0  0  0  0  0  0  0  0  0  0
    7.2640   -0.8656   18.2434 H   0  0  0  0  0  0  0  0  0  0  0  0
    7.8723   -0.8397   20.5201 H   0  0  0  0  0  0  0  0  0  0  0  0
    7.1574    0.2943   21.6520 H   0  0  0  0  0  0  0  0  0  0  0  0
    6.5561   -2.0579   22.8730 N   0  0  0  0  0  0  0  0  0  0  0  0
    6.0865   -3.3287   23.4229 C   0  0  0  0  0  0  0  0  0  0  0  0
    6.5999   -3.3629   24.8645 C   0  0  0  0  0  0  0  0  0  0  0  0
    7.6638   -2.2660   24.9544 C   0  0  0  0  0  0  0  0  0  0  0  0
    7.3548   -1.2848   23.8128 C   0  0  2  0  0  0  0  0  0  0  0  0
    6.6473   -0.0321   24.2976 C   0  0  0  0  0  0  0  0  0  0  0  0
    7.3292    1.1830   24.3526 C   0  0  0  0  0  0  0  0  0  0  0  0
    6.6917    2.3322   24.8051 C   0  0  0  0  0  0  0  0  0  0  0  0
    5.3692    2.2931   25.2257 C   0  0  0  0  0  0  0  0  0  0  0  0
    4.7239    1.0675   25.1920 C   0  0  0  0  0  0  0  0  0  0  0  0
    3.4437    1.0102   25.5944 F   0  0  0  0  0  0  0  0  0  0  0  0
    5.3317   -0.0928   24.7456 C   0  0  0  0  0  0  0  0  0  0  0  0
    4.7631   -1.0182   24.7446 H   0  0  0  0  0  0  0  0  0  0  0  0
    4.8441    3.1788   25.5665 H   0  0  0  0  0  0  0  0  0  0  0  0
    7.2267    3.2719   24.8163 H   0  0  0  0  0  0  0  0  0  0  0  0
    8.3672    1.2292   24.0314 H   0  0  0  0  0  0  0  0  0  0  0  0
    8.2871   -0.9847   23.3326 H   0  0  0  0  0  0  0  0  0  0  0  0
    7.6558   -1.7661   25.9246 H   0  0  0  0  0  0  0  0  0  0  0  0
    8.6669   -2.6856   24.8396 H   0  0  0  0  0  0  0  0  0  0  0  0
    7.0155   -4.3378   25.1237 H   0  0  0  0  0  0  0  0  0  0  0  0
    5.7939   -3.1834   25.5805 H   0  0  0  0  0  0  0  0  0  0  0  0
    6.4895   -4.1488   22.8247 H   0  0  0  0  0  0  0  0  0  0  0  0
    4.9963   -3.4121   23.3727 H   0  0  0  0  0  0  0  0  0  0  0  0
  1  2  2  0
  2  3  1  0
  3  4  1  0
  4  5  2  0
  5  6  1  0
  6  7  2  0
  7  8  1  0
  8  9  2  0
  9 10  1  0
 10 11  2  0
 11 12  1  0
 12 13  2  0
 12 14  1  0
 11 15  1  0
 10 16  1  0
  9 17  1  0
  7 18  1  0
  5 19  1  0
  3 20  1  0
  3 21  1  0
  2 22  1  0
 22 23  1  0
 23 24  1  0
 24 25  1  0
 25 26  1  0
 26 27  1  0
 27 28  2  0
 28 29  1  0
 29 30  2  0
 30 31  1  0
 31 32  1  0
 31 33  2  0
 33 34  1  0
 30 35  1  0
 29 36  1  0
 28 37  1  0
 26 38  1  6
 25 39  1  0
 25 40  1  0
 24 41  1  0
 24 42  1  0
 23 43  1  0
 23 44  1  0
 13  4  1  0
 26 22  1  0
 33 27  1  0
 13  8  1  0
M  END
>  <cnnaffinities>  (34) 
[5.70329, 5.68674]

>  <score>  (34) 
5.70329

>  <index>  (34) 
33

>  <Smiles>  (34) 
O=C(C(c1c(nc(c2c(c(c(c(c12)[H])[H])[H])[H])[H])[H])([H])[H])N1C(C(C([C@@]1(c1c(c(c(c(F)c1[H])[H])[H])[H])[H])([H])[H])([H])[H])([H])[H]

>  <h>  (34) 
<NA>

>  <Training>  (34) 
True

>  <Success>  (34) 
True

>  <enamine_searched>  (34) 
False

>  <enamine_id>  (34) 
nan

$$$$

     RDKit          3D

 58 63  0  0  0  0  0  0  0  0999 V2000
    7.0791   -2.3883   23.5127 C   0  0  0  0  0  0  0  0  0  0  0  0
    7.9652   -1.8284   22.3963 C   0  0  1  0  0  0  0  0  0  0  0  0
    7.2311   -1.7402   21.0464 C   0  0  0  0  0  0  0  0  0  0  0  0
    6.8918   -0.3428   20.9134 N   0  0  0  0  0  0  0  0  0  0  0  0
    6.1238    0.1226   19.8222 C   0  0  0  0  0  0  0  0  0  0  0  0
    6.4413   -0.2288   18.5331 C   0  0  0  0  0  0  0  0  0  0  0  0
    5.7821    0.2101   17.4360 N   0  0  0  0  0  0  0  0  0  0  0  0
    4.7567    1.0044   17.6217 C   0  0  0  0  0  0  0  0  0  0  0  0
    4.2859    1.3972   18.9065 C   0  0  0  0  0  0  0  0  0  0  0  0
    3.1484    2.2310   19.0652 C   0  0  0  0  0  0  0  0  0  0  0  0
    2.7181    2.5891   20.3115 C   0  0  0  0  0  0  0  0  0  0  0  0
    3.3903    2.1168   21.4617 C   0  0  0  0  0  0  0  0  0  0  0  0
    4.4847    1.2986   21.3372 C   0  0  0  0  0  0  0  0  0  0  0  0
    4.9733    0.9389   20.0504 C   0  0  0  0  0  0  0  0  0  0  0  0
    4.9876    0.9057   22.2171 H   0  0  0  0  0  0  0  0  0  0  0  0
    3.0442    2.4129   22.4490 H   0  0  0  0  0  0  0  0  0  0  0  0
    1.8583    3.2440   20.4211 H   0  0  0  0  0  0  0  0  0  0  0  0
    2.6413    2.5811   18.1699 H   0  0  0  0  0  0  0  0  0  0  0  0
    4.2387    1.3701   16.7348 H   0  0  0  0  0  0  0  0  0  0  0  0
    7.2928   -0.8794   18.3343 H   0  0  0  0  0  0  0  0  0  0  0  0
    7.7509    0.4769   21.6219 C   0  0  0  0  0  0  0  0  0  0  0  0
    7.8362    1.6729   21.4616 O   0  0  0  0  0  0  0  0  0  0  0  0
    8.5532   -0.4010   22.6207 C   0  0  1  0  0  0  0  0  0  0  0  0
    8.3733    0.1079   24.0732 C   0  0  0  0  0  0  0  0  0  0  0  0
    8.9689    1.4189   24.2748 N   0  0  0  0  0  0  0  0  0  0  0  0
    8.2215    2.4308   25.0021 C   0  0  0  0  0  0  0  0  0  0  0  0
    7.3518    3.2758   24.1190 C   0  0  0  0  0  0  0  0  0  0  0  0
    5.9675    3.2426   23.8918 C   0  0  0  0  0  0  0  0  0  0  0  0
    5.6517    4.2017   23.0268 N   0  0  0  0  0  0  0  0  0  0  0  0
    6.8071    4.7804   22.7695 N   0  0  0  0  0  0  0  0  0  0  0  0
    6.9414    5.7693   21.7174 C   0  0  0  0  0  0  0  0  0  0  0  0
    7.7796    6.4232   21.9606 H   0  0  0  0  0  0  0  0  0  0  0  0
    6.0126    6.3374   21.6689 H   0  0  0  0  0  0  0  0  0  0  0  0
    7.1207    5.2723   20.7601 H   0  0  0  0  0  0  0  0  0  0  0  0
    7.8497    4.2700   23.3930 N   0  0  0  0  0  0  0  0  0  0  0  0
    5.1988    2.5799   24.2634 H   0  0  0  0  0  0  0  0  0  0  0  0
    7.6074    1.9425   25.7641 H   0  0  0  0  0  0  0  0  0  0  0  0
    8.9606    3.0718   25.4898 H   0  0  0  0  0  0  0  0  0  0  0  0
   10.1977    1.7546   23.7777 C   0  0  0  0  0  0  0  0  0  0  0  0
   10.7959    2.7711   24.1107 O   0  0  0  0  0  0  0  0  0  0  0  0
   10.7981    0.7538   22.8402 C   0  0  0  0  0  0  0  0  0  0  0  0
   12.1516    0.8940   22.5404 C   0  0  0  0  0  0  0  0  0  0  0  0
   12.8240   -0.0729   21.8177 C   0  0  0  0  0  0  0  0  0  0  0  0
   12.0867   -1.1621   21.3649 C   0  0  0  0  0  0  0  0  0  0  0  0
   12.7020   -2.1226   20.6551 F   0  0  0  0  0  0  0  0  0  0  0  0
   10.7228   -1.2682   21.5573 C   0  0  0  0  0  0  0  0  0  0  0  0
   10.0496   -0.3184   22.3357 C   0  0  0  0  0  0  0  0  0  0  0  0
   10.2155   -2.0966   21.0793 H   0  0  0  0  0  0  0  0  0  0  0  0
   13.8837   -0.0039   21.5971 H   0  0  0  0  0  0  0  0  0  0  0  0
   12.6660    1.7665   22.9288 H   0  0  0  0  0  0  0  0  0  0  0  0
    7.3129    0.1897   24.3148 H   0  0  0  0  0  0  0  0  0  0  0  0
    8.8325   -0.6307   24.7497 H   0  0  0  0  0  0  0  0  0  0  0  0
    6.3242   -2.3499   21.0040 H   0  0  0  0  0  0  0  0  0  0  0  0
    7.8937   -2.0438   20.2279 H   0  0  0  0  0  0  0  0  0  0  0  0
    8.7895   -2.5393   22.3216 H   0  0  0  0  0  0  0  0  0  0  0  0
    7.6401   -2.4626   24.4497 H   0  0  0  0  0  0  0  0  0  0  0  0
    6.1847   -1.7818   23.6911 H   0  0  0  0  0  0  0  0  0  0  0  0
    6.7600   -3.4025   23.2513 H   0  0  0  0  0  0  0  0  0  0  0  0
  1  2  1  0
  2  3  1  0
  3  4  1  0
  4  5  1  0
  5  6  2  0
  6  7  1  0
  7  8  2  0
  8  9  1  0
  9 10  2  0
 10 11  1  0
 11 12  2  0
 12 13  1  0
 13 14  2  0
 13 15  1  0
 12 16  1  0
 11 17  1  0
 10 18  1  0
  8 19  1  0
  6 20  1  0
  4 21  1  0
 21 22  2  0
 21 23  1  0
 23 24  1  1
 24 25  1  0
 25 26  1  0
 26 27  1  0
 27 28  1  0
 28 29  2  0
 29 30  1  0
 30 31  1  0
 31 32  1  0
 31 33  1  0
 31 34  1  0
 30 35  1  0
 28 36  1  0
 26 37  1  0
 26 38  1  0
 25 39  1  0
 39 40  2  0
 39 41  1  0
 41 42  2  0
 42 43  1  0
 43 44  2  0
 44 45  1  0
 44 46  1  0
 46 47  2  0
 46 48  1  0
 43 49  1  0
 42 50  1  0
 24 51  1  0
 24 52  1  0
  3 53  1  0
  3 54  1  0
  2 55  1  6
  1 56  1  0
  1 57  1  0
  1 58  1  0
 23  2  1  0
 35 27  2  0
 47 41  1  0
 14  5  1  0
 47 23  1  0
 14  9  1  0
M  END
>  <cnnaffinities>  (35) 
[6.53285, 6.61074]

>  <score>  (35) 
6.53285

>  <index>  (35) 
34

>  <Smiles>  (35) 
C([C@]1(C(N(c2c(nc(c3c(c(c(c(c23)[H])[H])[H])[H])[H])[H])C(=O)[C@]21C(N(C(c1c(nn(C([H])([H])[H])n1)[H])([H])[H])C(=O)c1c(c(c(F)c(c21)[H])[H])[H])([H])[H])([H])[H])[H])([H])([H])[H]

>  <h>  (35) 
<NA>

>  <Training>  (35) 
True

>  <Success>  (35) 
True

>  <enamine_searched>  (35) 
False

>  <enamine_id>  (35) 
nan

$$$$

     RDKit          3D

 51 54  0  0  0  0  0  0  0  0999 V2000
   13.4401    0.3899   22.4550 N   0  0  0  0  0  0  0  0  0  0  0  0
   13.0022   -0.4700   23.0923 C   0  0  0  0  0  0  0  0  0  0  0  0
   12.4045   -1.5869   23.8431 C   0  0  0  0  0  0  0  0  0  0  0  0
   11.0001   -1.8593   23.3600 C   0  0  0  0  0  0  0  0  0  0  0  0
    9.8975   -1.2427   23.9382 C   0  0  0  0  0  0  0  0  0  0  0  0
    8.6172   -1.4926   23.4629 C   0  0  0  0  0  0  0  0  0  0  0  0
    8.4134   -2.3957   22.4242 C   0  0  0  0  0  0  0  0  0  0  0  0
    7.0965   -2.7195   21.9865 N   0  0  0  0  0  0  0  0  0  0  0  0
    6.5667   -4.0449   22.2830 C   0  0  0  0  0  0  0  0  0  0  0  0
    6.0529   -4.1392   23.7029 C   0  0  0  0  0  0  0  0  0  0  0  0
    4.7086   -3.9052   23.9871 C   0  0  0  0  0  0  0  0  0  0  0  0
    4.2591   -3.9336   25.3024 C   0  0  0  0  0  0  0  0  0  0  0  0
    5.1407   -4.1786   26.3477 C   0  0  0  0  0  0  0  0  0  0  0  0
    6.4801   -4.4009   26.0561 C   0  0  0  0  0  0  0  0  0  0  0  0
    7.5993   -4.6942   27.3581 Cl  0  0  0  0  0  0  0  0  0  0  0  0
    6.9425   -4.3903   24.7470 C   0  0  0  0  0  0  0  0  0  0  0  0
    8.0003   -4.5505   24.5512 H   0  0  0  0  0  0  0  0  0  0  0  0
    4.8014   -4.1963   27.3791 H   0  0  0  0  0  0  0  0  0  0  0  0
    3.2085   -3.7661   25.5189 H   0  0  0  0  0  0  0  0  0  0  0  0
    4.0142   -3.6780   23.1822 H   0  0  0  0  0  0  0  0  0  0  0  0
    5.7674   -4.2269   21.5637 H   0  0  0  0  0  0  0  0  0  0  0  0
    7.3556   -4.7858   22.1121 H   0  0  0  0  0  0  0  0  0  0  0  0
    6.2447   -1.8112   21.4031 C   0  0  0  0  0  0  0  0  0  0  0  0
    5.0512   -2.0391   21.2736 O   0  0  0  0  0  0  0  0  0  0  0  0
    6.8944   -0.5290   20.8871 C   0  0  0  0  0  0  0  0  0  0  0  0
    6.1096    0.0733   19.7670 C   0  0  0  0  0  0  0  0  0  0  0  0
    6.4316   -0.2183   18.4680 C   0  0  0  0  0  0  0  0  0  0  0  0
    5.7703    0.2368   17.3759 N   0  0  0  0  0  0  0  0  0  0  0  0
    4.7403    1.0200   17.5871 C   0  0  0  0  0  0  0  0  0  0  0  0
    4.2812    1.3894   18.8797 C   0  0  0  0  0  0  0  0  0  0  0  0
    3.1545    2.2297   19.0584 C   0  0  0  0  0  0  0  0  0  0  0  0
    2.7496    2.5915   20.3138 C   0  0  0  0  0  0  0  0  0  0  0  0
    3.4393    2.1067   21.4461 C   0  0  0  0  0  0  0  0  0  0  0  0
    4.5195    1.2726   21.3016 C   0  0  0  0  0  0  0  0  0  0  0  0
    4.9784    0.9036   20.0073 C   0  0  0  0  0  0  0  0  0  0  0  0
    5.0201    0.8846   22.1832 H   0  0  0  0  0  0  0  0  0  0  0  0
    3.1116    2.4025   22.4389 H   0  0  0  0  0  0  0  0  0  0  0  0
    1.8999    3.2543   20.4452 H   0  0  0  0  0  0  0  0  0  0  0  0
    2.6335    2.5878   18.1753 H   0  0  0  0  0  0  0  0  0  0  0  0
    4.2078    1.4026   16.7153 H   0  0  0  0  0  0  0  0  0  0  0  0
    7.2790   -0.8692   18.2504 H   0  0  0  0  0  0  0  0  0  0  0  0
    7.0136    0.1699   21.7294 H   0  0  0  0  0  0  0  0  0  0  0  0
    7.9016   -0.8023   20.5515 H   0  0  0  0  0  0  0  0  0  0  0  0
    9.5185   -2.9929   21.8300 C   0  0  0  0  0  0  0  0  0  0  0  0
   10.7951   -2.7117   22.2846 C   0  0  0  0  0  0  0  0  0  0  0  0
   11.6396   -3.1693   21.7844 H   0  0  0  0  0  0  0  0  0  0  0  0
    9.3869   -3.6816   21.0079 H   0  0  0  0  0  0  0  0  0  0  0  0
    7.7632   -1.0008   23.9171 H   0  0  0  0  0  0  0  0  0  0  0  0
   10.0424   -0.5495   24.7610 H   0  0  0  0  0  0  0  0  0  0  0  0
   13.0232   -2.4844   23.7263 H   0  0  0  0  0  0  0  0  0  0  0  0
   12.4130   -1.3288   24.9032 H   0  0  0  0  0  0  0  0  0  0  0  0
  1  2  3  0
  2  3  1  0
  3  4  1  0
  4  5  2  0
  5  6  1  0
  6  7  2  0
  7  8  1  0
  8  9  1  0
  9 10  1  0
 10 11  2  0
 11 12  1  0
 12 13  2  0
 13 14  1  0
 14 15  1  0
 14 16  2  0
 16 17  1  0
 13 18  1  0
 12 19  1  0
 11 20  1  0
  9 21  1  0
  9 22  1  0
  8 23  1  0
 23 24  2  0
 23 25  1  0
 25 26  1  0
 26 27  2  0
 27 28  1  0
 28 29  2  0
 29 30  1  0
 30 31  2  0
 31 32  1  0
 32 33  2  0
 33 34  1  0
 34 35  2  0
 34 36  1  0
 33 37  1  0
 32 38  1  0
 31 39  1  0
 29 40  1  0
 27 41  1  0
 25 42  1  0
 25 43  1  0
  7 44  1  0
 44 45  2  0
 45 46  1  0
 44 47  1  0
  6 48  1  0
  5 49  1  0
  3 50  1  0
  3 51  1  0
 45  4  1  0
 16 10  1  0
 35 26  1  0
 35 30  1  0
M  END
>  <cnnaffinities>  (36) 
[6.92146]

>  <score>  (36) 
6.92146

>  <index>  (36) 
35

>  <Smiles>  (36) 
N#CC(c1c(c(c(N(C(c2c(c(c(c(Cl)c2[H])[H])[H])[H])([H])[H])C(=O)C(c2c(nc(c3c(c(c(c(c23)[H])[H])[H])[H])[H])[H])([H])[H])c(c1[H])[H])[H])[H])([H])[H]

>  <h>  (36) 
<NA>

>  <Training>  (36) 
True

>  <Success>  (36) 
True

>  <enamine_searched>  (36) 
False

>  <enamine_id>  (36) 
nan

$$$$

     RDKit          3D

 59 64  0  0  0  0  0  0  0  0999 V2000
    6.5794   -2.0064   23.7943 C   0  0  0  0  0  0  0  0  0  0  0  0
    7.5887   -1.7795   22.6524 C   0  0  1  0  0  0  0  0  0  0  0  0
    6.8593   -1.7786   21.2854 C   0  0  0  0  0  0  0  0  0  0  0  0
    6.8810   -0.3984   20.8652 N   0  0  0  0  0  0  0  0  0  0  0  0
    6.1283    0.1105   19.7762 C   0  0  0  0  0  0  0  0  0  0  0  0
    6.4406   -0.2247   18.4834 C   0  0  0  0  0  0  0  0  0  0  0  0
    5.7660    0.2224   17.4005 N   0  0  0  0  0  0  0  0  0  0  0  0
    4.7513    1.0288   17.6016 C   0  0  0  0  0  0  0  0  0  0  0  0
    4.3039    1.4421   18.8881 C   0  0  0  0  0  0  0  0  0  0  0  0
    3.1721    2.2814   19.0713 C   0  0  0  0  0  0  0  0  0  0  0  0
    2.7568    2.6357   20.3264 C   0  0  0  0  0  0  0  0  0  0  0  0
    3.4472    2.1531   21.4602 C   0  0  0  0  0  0  0  0  0  0  0  0
    4.5416    1.3365   21.3078 C   0  0  0  0  0  0  0  0  0  0  0  0
    5.0093    0.9673   20.0176 C   0  0  0  0  0  0  0  0  0  0  0  0
    5.0609    0.9554   22.1814 H   0  0  0  0  0  0  0  0  0  0  0  0
    3.1231    2.4428   22.4563 H   0  0  0  0  0  0  0  0  0  0  0  0
    1.9037    3.2964   20.4509 H   0  0  0  0  0  0  0  0  0  0  0  0
    2.6500    2.6350   18.1873 H   0  0  0  0  0  0  0  0  0  0  0  0
    4.2256    1.3854   16.7168 H   0  0  0  0  0  0  0  0  0  0  0  0
    7.2822   -0.8807   18.2667 H   0  0  0  0  0  0  0  0  0  0  0  0
    7.7909    0.3910   21.5341 C   0  0  0  0  0  0  0  0  0  0  0  0
    8.0748    1.5178   21.2042 O   0  0  0  0  0  0  0  0  0  0  0  0
    8.3998   -0.4386   22.6980 C   0  0  1  0  0  0  0  0  0  0  0  0
    8.2651    0.2851   24.0613 C   0  0  0  0  0  0  0  0  0  0  0  0
    9.0988    1.4641   24.1621 N   0  0  0  0  0  0  0  0  0  0  0  0
    8.5106    2.7111   24.6343 C   0  0  0  0  0  0  0  0  0  0  0  0
    8.0877    3.6310   23.5185 C   0  0  0  0  0  0  0  0  0  0  0  0
    8.8955    4.5797   22.8648 C   0  0  0  0  0  0  0  0  0  0  0  0
    8.0394    5.2251   22.0043 C   0  0  0  0  0  0  0  0  0  0  0  0
    6.8379    4.6193   22.1085 N   0  0  0  0  0  0  0  0  0  0  0  0
    5.7060    4.7759   21.2098 C   0  0  0  0  0  0  0  0  0  0  0  0
    4.7989    4.8149   21.8175 H   0  0  0  0  0  0  0  0  0  0  0  0
    5.8571    5.7205   20.6794 H   0  0  0  0  0  0  0  0  0  0  0  0
    5.6118    3.9508   20.4809 H   0  0  0  0  0  0  0  0  0  0  0  0
    6.8410    3.6671   23.0597 N   0  0  0  0  0  0  0  0  0  0  0  0
    8.1809    6.0681   21.3384 H   0  0  0  0  0  0  0  0  0  0  0  0
    9.9652    4.6668   22.9718 H   0  0  0  0  0  0  0  0  0  0  0  0
    9.2668    3.2168   25.2433 H   0  0  0  0  0  0  0  0  0  0  0  0
    7.6458    2.4685   25.2681 H   0  0  0  0  0  0  0  0  0  0  0  0
   10.4092    1.4629   23.7744 C   0  0  0  0  0  0  0  0  0  0  0  0
   11.1771    2.3758   24.0637 O   0  0  0  0  0  0  0  0  0  0  0  0
   10.8244    0.2955   22.9337 C   0  0  0  0  0  0  0  0  0  0  0  0
   12.1702    0.2001   22.5897 C   0  0  0  0  0  0  0  0  0  0  0  0
   12.5932   -0.7677   21.7072 C   0  0  0  0  0  0  0  0  0  0  0  0
   11.6718   -1.6839   21.2207 C   0  0  0  0  0  0  0  0  0  0  0  0
   12.1254   -2.6671   20.4256 F   0  0  0  0  0  0  0  0  0  0  0  0
   10.3264   -1.6025   21.5222 C   0  0  0  0  0  0  0  0  0  0  0  0
    9.8891   -0.6124   22.4153 C   0  0  0  0  0  0  0  0  0  0  0  0
    9.6441   -2.2788   21.0151 H   0  0  0  0  0  0  0  0  0  0  0  0
   13.6141   -0.8090   21.3555 H   0  0  0  0  0  0  0  0  0  0  0  0
   12.8665    0.9066   23.0256 H   0  0  0  0  0  0  0  0  0  0  0  0
    7.2365    0.6286   24.1884 H   0  0  0  0  0  0  0  0  0  0  0  0
    8.5272   -0.4248   24.8634 H   0  0  0  0  0  0  0  0  0  0  0  0
    7.3646   -2.4221   20.5570 H   0  0  0  0  0  0  0  0  0  0  0  0
    5.8212   -2.1243   21.3699 H   0  0  0  0  0  0  0  0  0  0  0  0
    8.3026   -2.6112   22.7008 H   0  0  0  0  0  0  0  0  0  0  0  0
    6.0638   -2.9645   23.6516 H   0  0  0  0  0  0  0  0  0  0  0  0
    5.8144   -1.2191   23.8265 H   0  0  0  0  0  0  0  0  0  0  0  0
    7.0715   -2.0468   24.7715 H   0  0  0  0  0  0  0  0  0  0  0  0
  1  2  1  0
  2  3  1  0
  3  4  1  0
  4  5  1  0
  5  6  2  0
  6  7  1  0
  7  8  2  0
  8  9  1  0
  9 10  2  0
 10 11  1  0
 11 12  2  0
 12 13  1  0
 13 14  2  0
 13 15  1  0
 12 16  1  0
 11 17  1  0
 10 18  1  0
  8 19  1  0
  6 20  1  0
  4 21  1  0
 21 22  2  0
 21 23  1  0
 23 24  1  1
 24 25  1  0
 25 26  1  0
 26 27  1  0
 27 28  1  0
 28 29  2  0
 29 30  1  0
 30 31  1  0
 31 32  1  0
 31 33  1  0
 31 34  1  0
 30 35  1  0
 29 36  1  0
 28 37  1  0
 26 38  1  0
 26 39  1  0
 25 40  1  0
 40 41  2  0
 40 42  1  0
 42 43  2  0
 43 44  1  0
 44 45  2  0
 45 46  1  0
 45 47  1  0
 47 48  2  0
 47 49  1  0
 44 50  1  0
 43 51  1  0
 24 52  1  0
 24 53  1  0
  3 54  1  0
  3 55  1  0
  2 56  1  6
  1 57  1  0
  1 58  1  0
  1 59  1  0
 23  2  1  0
 35 27  2  0
 48 42  1  0
 14  5  1  0
 48 23  1  0
 14  9  1  0
M  END
>  <cnnaffinities>  (37) 
[6.17919]

>  <score>  (37) 
6.17919

>  <index>  (37) 
36

>  <Smiles>  (37) 
C([C@]1(C(N(c2c(nc(c3c(c(c(c(c23)[H])[H])[H])[H])[H])[H])C(=O)[C@]21C(N(C(c1c(c(n(C([H])([H])[H])n1)[H])[H])([H])[H])C(=O)c1c(c(c(F)c(c21)[H])[H])[H])([H])[H])([H])[H])[H])([H])([H])[H]

>  <h>  (37) 
<NA>

>  <Training>  (37) 
True

>  <Success>  (37) 
True

>  <enamine_searched>  (37) 
False

>  <enamine_id>  (37) 
nan

$$$$

     RDKit          3D

 48 51  0  0  0  0  0  0  0  0999 V2000
   13.4150   -1.3583   24.3522 N   0  0  0  0  0  0  0  0  0  0  0  0
   12.3599   -1.6077   23.9456 C   0  0  0  0  0  0  0  0  0  0  0  0
   11.0227   -1.8902   23.4737 C   0  0  0  0  0  0  0  0  0  0  0  0
    9.9252   -1.1772   23.9603 C   0  0  0  0  0  0  0  0  0  0  0  0
    8.6450   -1.4513   23.4981 C   0  0  0  0  0  0  0  0  0  0  0  0
    8.4289   -2.4374   22.5366 C   0  0  0  0  0  0  0  0  0  0  0  0
    7.1258   -2.7418   22.0348 N   0  0  0  0  0  0  0  0  0  0  0  0
    6.5278   -4.0321   22.4243 C   0  0  0  0  0  0  0  0  0  0  0  0
    5.9675   -4.0419   23.8359 C   0  0  0  0  0  0  0  0  0  0  0  0
    6.8145   -4.2332   24.9281 C   0  0  0  0  0  0  0  0  0  0  0  0
    6.3144   -4.1597   26.2219 C   0  0  0  0  0  0  0  0  0  0  0  0
    4.9693   -3.8992   26.4464 C   0  0  0  0  0  0  0  0  0  0  0  0
    4.1363   -3.7075   25.3542 C   0  0  0  0  0  0  0  0  0  0  0  0
    2.4532   -3.3742   25.6170 Cl  0  0  0  0  0  0  0  0  0  0  0  0
    4.6162   -3.7784   24.0543 C   0  0  0  0  0  0  0  0  0  0  0  0
    3.9494   -3.6041   23.2148 H   0  0  0  0  0  0  0  0  0  0  0  0
    4.5762   -3.8437   27.4555 H   0  0  0  0  0  0  0  0  0  0  0  0
    6.9806   -4.3070   27.0647 H   0  0  0  0  0  0  0  0  0  0  0  0
    7.8759   -4.4201   24.7671 H   0  0  0  0  0  0  0  0  0  0  0  0
    7.3039   -4.7993   22.3446 H   0  0  0  0  0  0  0  0  0  0  0  0
    5.7512   -4.2936   21.7030 H   0  0  0  0  0  0  0  0  0  0  0  0
    6.2925   -1.7740   21.4888 C   0  0  0  0  0  0  0  0  0  0  0  0
    5.0909   -1.9451   21.4112 O   0  0  0  0  0  0  0  0  0  0  0  0
    6.9392   -0.5080   20.8869 C   0  0  0  0  0  0  0  0  0  0  0  0
    6.1193    0.0925   19.7691 C   0  0  0  0  0  0  0  0  0  0  0  0
    6.4202   -0.2102   18.4675 C   0  0  0  0  0  0  0  0  0  0  0  0
    5.7541    0.2379   17.3724 N   0  0  0  0  0  0  0  0  0  0  0  0
    4.7342    1.0344   17.5776 C   0  0  0  0  0  0  0  0  0  0  0  0
    4.2834    1.4224   18.8698 C   0  0  0  0  0  0  0  0  0  0  0  0
    3.1578    2.2701   19.0464 C   0  0  0  0  0  0  0  0  0  0  0  0
    2.7436    2.6230   20.3006 C   0  0  0  0  0  0  0  0  0  0  0  0
    3.4318    2.1336   21.4309 C   0  0  0  0  0  0  0  0  0  0  0  0
    4.5228    1.3127   21.2885 C   0  0  0  0  0  0  0  0  0  0  0  0
    4.9863    0.9343   20.0007 C   0  0  0  0  0  0  0  0  0  0  0  0
    5.0262    0.9258   22.1683 H   0  0  0  0  0  0  0  0  0  0  0  0
    3.0919    2.4108   22.4228 H   0  0  0  0  0  0  0  0  0  0  0  0
    1.8867    3.2764   20.4331 H   0  0  0  0  0  0  0  0  0  0  0  0
    2.6388    2.6399   18.1642 H   0  0  0  0  0  0  0  0  0  0  0  0
    4.1987    1.4007   16.6982 H   0  0  0  0  0  0  0  0  0  0  0  0
    7.2625   -0.8644   18.2462 H   0  0  0  0  0  0  0  0  0  0  0  0
    7.9423   -0.7526   20.5198 H   0  0  0  0  0  0  0  0  0  0  0  0
    7.0817    0.2316   21.6824 H   0  0  0  0  0  0  0  0  0  0  0  0
    9.5212   -3.1558   22.0728 C   0  0  0  0  0  0  0  0  0  0  0  0
   10.8061   -2.8839   22.5212 C   0  0  0  0  0  0  0  0  0  0  0  0
   11.6733   -3.4096   22.1498 H   0  0  0  0  0  0  0  0  0  0  0  0
    9.3344   -3.8893   21.3060 H   0  0  0  0  0  0  0  0  0  0  0  0
    7.8036   -0.9004   23.8988 H   0  0  0  0  0  0  0  0  0  0  0  0
   10.0832   -0.3997   24.6981 H   0  0  0  0  0  0  0  0  0  0  0  0
  1  2  3  0
  2  3  1  0
  3  4  2  0
  4  5  1  0
  5  6  2  0
  6  7  1  0
  7  8  1  0
  8  9  1  0
  9 10  2  0
 10 11  1  0
 11 12  2  0
 12 13  1  0
 13 14  1  0
 13 15  2  0
 15 16  1  0
 12 17  1  0
 11 18  1  0
 10 19  1  0
  8 20  1  0
  8 21  1  0
  7 22  1  0
 22 23  2  0
 22 24  1  0
 24 25  1  0
 25 26  2  0
 26 27  1  0
 27 28  2  0
 28 29  1  0
 29 30  2  0
 30 31  1  0
 31 32  2  0
 32 33  1  0
 33 34  2  0
 33 35  1  0
 32 36  1  0
 31 37  1  0
 30 38  1  0
 28 39  1  0
 26 40  1  0
 24 41  1  0
 24 42  1  0
  6 43  1  0
 43 44  2  0
 44 45  1  0
 43 46  1  0
  5 47  1  0
  4 48  1  0
 44  3  1  0
 15  9  1  0
 34 25  1  0
 34 29  1  0
M  END
>  <cnnaffinities>  (38) 
[6.67186, 6.02172]

>  <score>  (38) 
6.67186

>  <index>  (38) 
37

>  <Smiles>  (38) 
N#Cc1c(c(c(N(C(c2c(c(c(c(Cl)c2[H])[H])[H])[H])([H])[H])C(=O)C(c2c(nc(c3c(c(c(c(c23)[H])[H])[H])[H])[H])[H])([H])[H])c(c1[H])[H])[H])[H]

>  <h>  (38) 
<NA>

>  <Training>  (38) 
True

>  <Success>  (38) 
True

>  <enamine_searched>  (38) 
False

>  <enamine_id>  (38) 
nan

$$$$

     RDKit          3D

 72 77  0  0  0  0  0  0  0  0999 V2000
    4.8647   -7.5648   20.1362 C   0  0  0  0  0  0  0  0  0  0  0  0
    5.4713   -6.3175   19.6197 N   0  0  0  0  0  4  0  0  0  0  0  0
    5.6720   -5.2655   20.6671 C   0  0  0  0  0  0  0  0  0  0  0  0
    6.8468   -5.5561   21.6097 C   0  0  0  0  0  0  0  0  0  0  0  0
    7.0089   -4.4777   22.5666 N   0  0  0  0  0  0  0  0  0  0  0  0
    7.9572   -3.4195   22.3133 C   0  0  0  0  0  0  0  0  0  0  0  0
    7.4025   -2.0113   22.6531 C   0  0  2  0  0  0  0  0  0  0  0  0
    6.2714   -1.6355   21.6606 C   0  0  0  0  0  0  0  0  0  0  0  0
    5.1664   -2.1409   21.5977 O   0  0  0  0  0  0  0  0  0  0  0  0
    6.7229   -0.6313   20.8313 N   0  0  0  0  0  0  0  0  0  0  0  0
    5.9683   -0.0620   19.7805 C   0  0  0  0  0  0  0  0  0  0  0  0
    6.3554   -0.2741   18.4818 C   0  0  0  0  0  0  0  0  0  0  0  0
    5.7241    0.2294   17.3972 N   0  0  0  0  0  0  0  0  0  0  0  0
    4.6878    1.0030   17.6030 C   0  0  0  0  0  0  0  0  0  0  0  0
    4.1974    1.3364   18.8980 C   0  0  0  0  0  0  0  0  0  0  0  0
    3.0866    2.2048   19.0665 C   0  0  0  0  0  0  0  0  0  0  0  0
    2.6807    2.5733   20.3193 C   0  0  0  0  0  0  0  0  0  0  0  0
    3.3566    2.0816   21.4586 C   0  0  0  0  0  0  0  0  0  0  0  0
    4.4171    1.2170   21.3231 C   0  0  0  0  0  0  0  0  0  0  0  0
    4.8596    0.8127   20.0317 C   0  0  0  0  0  0  0  0  0  0  0  0
    4.9342    0.8418   22.2011 H   0  0  0  0  0  0  0  0  0  0  0  0
    3.0375    2.3985   22.4474 H   0  0  0  0  0  0  0  0  0  0  0  0
    1.8449    3.2571   20.4441 H   0  0  0  0  0  0  0  0  0  0  0  0
    2.5894    2.5838   18.1768 H   0  0  0  0  0  0  0  0  0  0  0  0
    4.1877    1.4156   16.7256 H   0  0  0  0  0  0  0  0  0  0  0  0
    7.2186   -0.9044   18.2748 H   0  0  0  0  0  0  0  0  0  0  0  0
    8.1476   -0.4017   20.9424 C   0  0  0  0  0  0  0  0  0  0  0  0
    8.4756   -0.9261   22.3526 C   0  0  2  0  0  0  0  0  0  0  0  0
    9.9295   -1.3797   22.4678 C   0  0  0  0  0  0  0  0  0  0  0  0
   10.7920   -0.2791   22.4473 O   0  0  0  0  0  0  0  0  0  0  0  0
   11.3848   -0.0843   23.7076 C   0  0  0  0  0  0  0  0  0  0  0  0
   11.9278    1.2786   23.5826 C   0  0  0  0  0  0  0  0  0  0  0  0
   10.8811    2.1840   23.5308 C   0  0  0  0  0  0  0  0  0  0  0  0
   10.8584    3.9575   23.8933 S   0  0  0  0  0  0  0  0  0  0  0  0
   12.1486    4.5770   24.1547 O   0  0  0  0  0  0  0  0  0  0  0  0
    9.6424    4.3222   24.6102 O   0  0  0  0  0  0  0  0  0  0  0  0
   12.0985    1.2635   23.8867 C   0  0  0  0  0  0  0  0  0  0  0  0
   13.1844    1.0370   24.5881 H   0  0  0  0  0  0  0  0  0  0  0  0
   12.1102    1.3351   25.0986 H   0  0  0  0  0  0  0  0  0  0  0  0
   10.8197    2.0981   22.4485 H   0  0  0  0  0  0  0  0  0  0  0  0
    9.9466    1.7683   23.8866 H   0  0  0  0  0  0  0  0  0  0  0  0
   12.9595    1.7483   22.7911 H   0  0  0  0  0  0  0  0  0  0  0  0
   10.5998   -0.1401   24.4626 H   0  0  0  0  0  0  0  0  0  0  0  0
   12.0924   -0.9038   23.8681 H   0  0  0  0  0  0  0  0  0  0  0  0
   10.1774   -2.0403   21.6259 H   0  0  0  0  0  0  0  0  0  0  0  0
   10.0806   -1.9599   23.3904 H   0  0  0  0  0  0  0  0  0  0  0  0
    8.3317   -0.0964   23.0478 H   0  0  0  0  0  0  0  0  0  0  0  0
    8.3592    0.6633   20.8100 H   0  0  0  0  0  0  0  0  0  0  0  0
    8.7178   -0.9520   20.1796 H   0  0  0  0  0  0  0  0  0  0  0  0
    6.8779   -2.0765   24.0801 C   0  0  0  0  0  0  0  0  0  0  0  0
    6.8077   -0.9480   24.9088 C   0  0  0  0  0  0  0  0  0  0  0  0
    6.2658   -1.0579   26.1787 C   0  0  0  0  0  0  0  0  0  0  0  0
    6.1035    0.3627   27.1738 Cl  0  0  0  0  0  0  0  0  0  0  0  0
    5.8100   -2.2734   26.6839 C   0  0  0  0  0  0  0  0  0  0  0  0
    5.8503   -3.3817   25.8643 C   0  0  0  0  0  0  0  0  0  0  0  0
    6.3545   -3.2840   24.5706 C   0  0  0  0  0  0  0  0  0  0  0  0
    6.2743   -4.5102   23.7113 C   0  0  0  0  0  0  0  0  0  0  0  0
    5.5752   -5.4709   24.0139 O   0  0  0  0  0  0  0  0  0  0  0  0
    5.4817   -4.3457   26.1950 H   0  0  0  0  0  0  0  0  0  0  0  0
    5.4242   -2.3260   27.6960 H   0  0  0  0  0  0  0  0  0  0  0  0
    7.1641    0.0224   24.5811 H   0  0  0  0  0  0  0  0  0  0  0  0
    8.8632   -3.5875   22.9085 H   0  0  0  0  0  0  0  0  0  0  0  0
    8.2348   -3.4412   21.2612 H   0  0  0  0  0  0  0  0  0  0  0  0
    7.7875   -5.6502   21.0529 H   0  0  0  0  0  0  0  0  0  0  0  0
    6.6855   -6.4744   22.1835 H   0  0  0  0  0  0  0  0  0  0  0  0
    4.7636   -5.1916   21.2657 H   0  0  0  0  0  0  0  0  0  0  0  0
    5.8178   -4.3109   20.1673 H   0  0  0  0  0  0  0  0  0  0  0  0
    6.4100   -6.5392   19.2125 H   0  0  0  0  0  0  0  0  0  0  0  0
    4.8542   -5.9629   18.8660 H   0  0  0  0  0  0  0  0  0  0  0  0
    4.0832   -7.3270   20.8582 H   0  0  0  0  0  0  0  0  0  0  0  0
    4.4232   -8.1183   19.3090 H   0  0  0  0  0  0  0  0  0  0  0  0
    5.5915   -8.1919   20.6530 H   0  0  0  0  0  0  0  0  0  0  0  0
  1  2  1  0
  2  3  1  0
  3  4  1  0
  4  5  1  0
  5  6  1  0
  7  6  1  6
  7  8  1  0
  8  9  2  0
  8 10  1  0
 10 11  1  0
 11 12  2  0
 12 13  1  0
 13 14  2  0
 14 15  1  0
 15 16  2  0
 16 17  1  0
 17 18  2  0
 18 19  1  0
 19 20  2  0
 19 21  1  0
 18 22  1  0
 17 23  1  0
 16 24  1  0
 14 25  1  0
 12 26  1  0
 10 27  1  0
 27 28  1  0
 28 29  1  0
 29 30  1  0
 30 31  1  0
 31 32  1  0
 32 33  1  0
 33 34  1  0
 34 35  2  0
 34 36  2  0
 34 37  1  0
 37 38  1  0
 37 39  1  0
 33 40  1  0
 33 41  1  0
 32 42  1  0
 31 43  1  0
 31 44  1  0
 29 45  1  0
 29 46  1  0
 28 47  1  1
 27 48  1  0
 27 49  1  0
  7 50  1  0
 50 51  2  0
 51 52  1  0
 52 53  1  0
 52 54  2  0
 54 55  1  0
 55 56  2  0
 56 57  1  0
 57 58  2  0
 55 59  1  0
 54 60  1  0
 51 61  1  0
  6 62  1  0
  6 63  1  0
  4 64  1  0
  4 65  1  0
  3 66  1  0
  3 67  1  0
  2 68  1  0
  2 69  1  0
  1 70  1  0
  1 71  1  0
  1 72  1  0
 57  5  1  0
 28  7  1  0
 37 32  1  0
 56 50  1  0
 20 11  1  0
 20 15  1  0
M  CHG  1   2   1
M  END
>  <cnnaffinities>  (39) 
[6.25364]

>  <score>  (39) 
6.25364

>  <index>  (39) 
38

>  <Smiles>  (39) 
C([N+](C(C(N1C([C@@]2(C(=O)N(c3c(nc(c4c(c(c(c(c34)[H])[H])[H])[H])[H])[H])C([C@@]2(C(OC(C2(C(S(=O)(=O)C2([H])[H])([H])[H])[H])([H])[H])([H])[H])[H])([H])[H])c2c(c(Cl)c(c(c2C1=O)[H])[H])[H])([H])[H])([H])[H])([H])[H])([H])[H])([H])([H])[H]

>  <h>  (39) 
<NA>

>  <Training>  (39) 
True

>  <Success>  (39) 
True

>  <enamine_searched>  (39) 
False

>  <enamine_id>  (39) 
nan

$$$$

     RDKit          3D

 60 64  0  0  0  0  0  0  0  0999 V2000
   11.4755   -0.5252   23.7660 C   0  0  0  0  0  0  0  0  0  0  0  0
   10.4896   -1.6630   23.5721 C   0  0  0  0  0  0  0  0  0  0  0  0
    9.8329   -1.5539   22.3217 O   0  0  0  0  0  0  0  0  0  0  0  0
    8.5593   -0.9564   22.3438 C   0  0  1  0  0  0  0  0  0  0  0  0
    8.2756   -0.4080   20.9508 C   0  0  0  0  0  0  0  0  0  0  0  0
    6.8330   -0.4777   20.8638 N   0  0  0  0  0  0  0  0  0  0  0  0
    6.1018    0.0734   19.7903 C   0  0  0  0  0  0  0  0  0  0  0  0
    6.4528   -0.2068   18.4956 C   0  0  0  0  0  0  0  0  0  0  0  0
    5.7917    0.2466   17.4050 N   0  0  0  0  0  0  0  0  0  0  0  0
    4.7547    1.0199   17.6117 C   0  0  0  0  0  0  0  0  0  0  0  0
    4.2901    1.3952   18.9027 C   0  0  0  0  0  0  0  0  0  0  0  0
    3.1601    2.2372   19.0646 C   0  0  0  0  0  0  0  0  0  0  0  0
    2.7650    2.6324   20.3105 C   0  0  0  0  0  0  0  0  0  0  0  0
    3.4729    2.1991   21.4541 C   0  0  0  0  0  0  0  0  0  0  0  0
    4.5570    1.3694   21.3251 C   0  0  0  0  0  0  0  0  0  0  0  0
    4.9878    0.9339   20.0401 C   0  0  0  0  0  0  0  0  0  0  0  0
    5.0900    1.0392   22.2113 H   0  0  0  0  0  0  0  0  0  0  0  0
    3.1537    2.5321   22.4374 H   0  0  0  0  0  0  0  0  0  0  0  0
    1.9156    3.2988   20.4277 H   0  0  0  0  0  0  0  0  0  0  0  0
    2.6348    2.5700   18.1713 H   0  0  0  0  0  0  0  0  0  0  0  0
    4.2185    1.3878   16.7353 H   0  0  0  0  0  0  0  0  0  0  0  0
    7.3026   -0.8583   18.2983 H   0  0  0  0  0  0  0  0  0  0  0  0
    6.3004   -1.4599   21.6732 C   0  0  0  0  0  0  0  0  0  0  0  0
    5.1751   -1.9041   21.5648 O   0  0  0  0  0  0  0  0  0  0  0  0
    7.3842   -1.9216   22.6763 C   0  0  1  0  0  0  0  0  0  0  0  0
    7.7615   -3.3940   22.3673 C   0  0  0  0  0  0  0  0  0  0  0  0
    6.6945   -4.2986   22.7796 N   0  0  0  0  0  0  0  0  0  0  0  0
    6.1378   -5.2659   21.8469 C   0  0  0  0  0  0  0  0  0  0  0  0
    7.0168   -6.5102   21.7675 C   0  0  0  0  0  0  0  0  0  0  0  0
    7.8336   -6.6540   20.8735 O   0  0  0  0  0  0  0  0  0  0  0  0
    6.8672   -7.4096   22.7769 N   0  0  0  0  0  0  0  0  0  0  0  0
    7.7858   -8.5255   22.8471 C   0  0  0  0  0  0  0  0  0  0  0  0
    8.7039   -8.2868   23.4024 H   0  0  0  0  0  0  0  0  0  0  0  0
    8.0645   -8.7539   21.8270 H   0  0  0  0  0  0  0  0  0  0  0  0
    7.2969   -9.4080   23.2616 H   0  0  0  0  0  0  0  0  0  0  0  0
    6.3308   -7.1326   23.5882 H   0  0  0  0  0  0  0  0  0  0  0  0
    5.1338   -5.5411   22.1849 H   0  0  0  0  0  0  0  0  0  0  0  0
    6.0542   -4.7868   20.8632 H   0  0  0  0  0  0  0  0  0  0  0  0
    6.2166   -4.2805   24.0545 C   0  0  0  0  0  0  0  0  0  0  0  0
    5.6198   -5.2447   24.5389 O   0  0  0  0  0  0  0  0  0  0  0  0
    6.3873   -2.9814   24.7770 C   0  0  0  0  0  0  0  0  0  0  0  0
    5.9511   -2.9008   26.0981 C   0  0  0  0  0  0  0  0  0  0  0  0
    5.8936   -1.6867   26.7506 C   0  0  0  0  0  0  0  0  0  0  0  0
    6.2685   -0.5441   26.0464 C   0  0  0  0  0  0  0  0  0  0  0  0
    6.0427    1.0129   26.7862 Cl  0  0  0  0  0  0  0  0  0  0  0  0
    6.7852   -0.6160   24.7664 C   0  0  0  0  0  0  0  0  0  0  0  0
    6.8760   -1.8481   24.1082 C   0  0  0  0  0  0  0  0  0  0  0  0
    7.1066    0.3047   24.2945 H   0  0  0  0  0  0  0  0  0  0  0  0
    5.5479   -1.6165   27.7766 H   0  0  0  0  0  0  0  0  0  0  0  0
    5.6213   -3.8135   26.5816 H   0  0  0  0  0  0  0  0  0  0  0  0
    8.7140   -3.6351   22.8636 H   0  0  0  0  0  0  0  0  0  0  0  0
    7.9253   -3.5241   21.3015 H   0  0  0  0  0  0  0  0  0  0  0  0
    8.6243    0.6227   20.8397 H   0  0  0  0  0  0  0  0  0  0  0  0
    8.7966   -1.0392   20.2204 H   0  0  0  0  0  0  0  0  0  0  0  0
    8.5478   -0.1208   23.0525 H   0  0  0  0  0  0  0  0  0  0  0  0
    9.7534   -1.7062   24.3912 H   0  0  0  0  0  0  0  0  0  0  0  0
   11.0218   -2.6212   23.5492 H   0  0  0  0  0  0  0  0  0  0  0  0
   12.2158   -0.5317   22.9612 H   0  0  0  0  0  0  0  0  0  0  0  0
   11.9945   -0.6431   24.7205 H   0  0  0  0  0  0  0  0  0  0  0  0
   10.9714    0.4465   23.7596 H   0  0  0  0  0  0  0  0  0  0  0  0
  1  2  1  0
  2  3  1  0
  3  4  1  0
  4  5  1  0
  5  6  1  0
  6  7  1  0
  7  8  2  0
  8  9  1  0
  9 10  2  0
 10 11  1  0
 11 12  2  0
 12 13  1  0
 13 14  2  0
 14 15  1  0
 15 16  2  0
 15 17  1  0
 14 18  1  0
 13 19  1  0
 12 20  1  0
 10 21  1  0
  8 22  1  0
  6 23  1  0
 23 24  2  0
 23 25  1  0
 25 26  1  6
 26 27  1  0
 27 28  1  0
 28 29  1  0
 29 30  2  0
 29 31  1  0
 31 32  1  0
 32 33  1  0
 32 34  1  0
 32 35  1  0
 31 36  1  0
 28 37  1  0
 28 38  1  0
 27 39  1  0
 39 40  2  0
 39 41  1  0
 41 42  2  0
 42 43  1  0
 43 44  2  0
 44 45  1  0
 44 46  1  0
 46 47  2  0
 46 48  1  0
 43 49  1  0
 42 50  1  0
 26 51  1  0
 26 52  1  0
  5 53  1  0
  5 54  1  0
  4 55  1  1
  2 56  1  0
  2 57  1  0
  1 58  1  0
  1 59  1  0
  1 60  1  0
 25  4  1  0
 47 41  1  0
 16  7  1  0
 47 25  1  0
 16 11  1  0
M  END
>  <cnnaffinities>  (40) 
[6.60861, 6.1274]

>  <score>  (40) 
6.60861

>  <index>  (40) 
39

>  <Smiles>  (40) 
C(C(O[C@]1(C(N(c2c(nc(c3c(c(c(c(c23)[H])[H])[H])[H])[H])[H])C(=O)[C@]21C(N(C(C(=O)N(C([H])([H])[H])[H])([H])[H])C(=O)c1c(c(c(Cl)c(c21)[H])[H])[H])([H])[H])([H])[H])[H])([H])[H])([H])([H])[H]

>  <h>  (40) 
<NA>

>  <Training>  (40) 
True

>  <Success>  (40) 
True

>  <enamine_searched>  (40) 
False

>  <enamine_id>  (40) 
nan

$$$$

     RDKit          3D

 57 61  0  0  0  0  0  0  0  0999 V2000
    6.6392    4.3843   21.3516 C   0  0  0  0  0  0  0  0  0  0  0  0
    7.6052    4.0038   22.3678 N   0  0  0  0  0  0  0  0  0  0  0  0
    7.1122    3.3238   23.4434 C   0  0  0  0  0  0  0  0  0  0  0  0
    5.9123    3.1521   23.6011 O   0  0  0  0  0  0  0  0  0  0  0  0
    8.1009    2.7827   24.4740 C   0  0  0  0  0  0  0  0  0  0  0  0
    8.7997    1.6242   23.9574 N   0  0  0  0  0  0  0  0  0  0  0  0
    8.0850    0.3627   23.8390 C   0  0  0  0  0  0  0  0  0  0  0  0
    8.5079   -0.4180   22.5713 C   0  0  2  0  0  0  0  0  0  0  0  0
    7.9925    0.2962   21.3037 C   0  0  0  0  0  0  0  0  0  0  0  0
    8.4330    1.3127   20.8032 O   0  0  0  0  0  0  0  0  0  0  0  0
    6.9206   -0.4127   20.8192 N   0  0  0  0  0  0  0  0  0  0  0  0
    6.1314    0.1003   19.7647 C   0  0  0  0  0  0  0  0  0  0  0  0
    6.4645   -0.1993   18.4712 C   0  0  0  0  0  0  0  0  0  0  0  0
    5.7845    0.2413   17.3889 N   0  0  0  0  0  0  0  0  0  0  0  0
    4.7484    1.0158   17.5987 C   0  0  0  0  0  0  0  0  0  0  0  0
    4.2915    1.4001   18.8926 C   0  0  0  0  0  0  0  0  0  0  0  0
    3.1641    2.2428   19.0753 C   0  0  0  0  0  0  0  0  0  0  0  0
    2.7722    2.6195   20.3295 C   0  0  0  0  0  0  0  0  0  0  0  0
    3.4786    2.1652   21.4652 C   0  0  0  0  0  0  0  0  0  0  0  0
    4.5647    1.3353   21.3178 C   0  0  0  0  0  0  0  0  0  0  0  0
    5.0011    0.9317   20.0240 C   0  0  0  0  0  0  0  0  0  0  0  0
    5.1133    1.0159   22.1994 H   0  0  0  0  0  0  0  0  0  0  0  0
    3.1739    2.4825   22.4572 H   0  0  0  0  0  0  0  0  0  0  0  0
    1.9152    3.2723   20.4561 H   0  0  0  0  0  0  0  0  0  0  0  0
    2.6362    2.5882   18.1904 H   0  0  0  0  0  0  0  0  0  0  0  0
    4.2040    1.3764   16.7238 H   0  0  0  0  0  0  0  0  0  0  0  0
    7.3303   -0.8292   18.2808 H   0  0  0  0  0  0  0  0  0  0  0  0
    6.5656   -1.5753   21.6026 C   0  0  0  0  0  0  0  0  0  0  0  0
    7.8035   -1.7999   22.4795 C   0  0  2  0  0  0  0  0  0  0  0  0
    7.4693   -2.4944   23.8100 C   0  0  0  0  0  0  0  0  0  0  0  0
    6.9473   -3.8504   23.5890 C   0  0  0  0  0  0  0  0  0  0  0  0
    6.5295   -4.9112   23.3989 N   0  0  0  0  0  0  0  0  0  0  0  0
    8.3570   -2.5698   24.4451 H   0  0  0  0  0  0  0  0  0  0  0  0
    6.7110   -1.9303   24.3626 H   0  0  0  0  0  0  0  0  0  0  0  0
    8.4765   -2.4702   21.9439 H   0  0  0  0  0  0  0  0  0  0  0  0
    6.3633   -2.4323   20.9544 H   0  0  0  0  0  0  0  0  0  0  0  0
    5.6656   -1.3996   22.2117 H   0  0  0  0  0  0  0  0  0  0  0  0
   10.0187   -0.4547   22.5206 C   0  0  0  0  0  0  0  0  0  0  0  0
   10.6679   -1.3642   21.6865 C   0  0  0  0  0  0  0  0  0  0  0  0
   12.0421   -1.3298   21.5652 C   0  0  0  0  0  0  0  0  0  0  0  0
   12.7955   -2.4148   20.4389 Cl  0  0  0  0  0  0  0  0  0  0  0  0
   12.8229   -0.4222   22.2817 C   0  0  0  0  0  0  0  0  0  0  0  0
   12.1849    0.4922   23.0888 C   0  0  0  0  0  0  0  0  0  0  0  0
   10.7949    0.5215   23.1520 C   0  0  0  0  0  0  0  0  0  0  0  0
   10.1538    1.7018   23.8035 C   0  0  0  0  0  0  0  0  0  0  0  0
   10.7948    2.6891   24.1395 O   0  0  0  0  0  0  0  0  0  0  0  0
   12.7319    1.2271   23.6649 H   0  0  0  0  0  0  0  0  0  0  0  0
   13.9001   -0.4178   22.1654 H   0  0  0  0  0  0  0  0  0  0  0  0
   10.1124   -2.0849   21.0992 H   0  0  0  0  0  0  0  0  0  0  0  0
    7.0095    0.5713   23.8243 H   0  0  0  0  0  0  0  0  0  0  0  0
    8.2887   -0.2585   24.7199 H   0  0  0  0  0  0  0  0  0  0  0  0
    7.5273    2.5131   25.3736 H   0  0  0  0  0  0  0  0  0  0  0  0
    8.8633    3.5262   24.7312 H   0  0  0  0  0  0  0  0  0  0  0  0
    8.5506    3.8219   22.0497 H   0  0  0  0  0  0  0  0  0  0  0  0
    5.8544    4.9801   21.8289 H   0  0  0  0  0  0  0  0  0  0  0  0
    7.1412    5.0061   20.6110 H   0  0  0  0  0  0  0  0  0  0  0  0
    6.2019    3.4895   20.8744 H   0  0  0  0  0  0  0  0  0  0  0  0
  1  2  1  0
  2  3  1  0
  3  4  2  0
  3  5  1  0
  5  6  1  0
  6  7  1  0
  8  7  1  1
  8  9  1  0
  9 10  2  0
  9 11  1  0
 11 12  1  0
 12 13  2  0
 13 14  1  0
 14 15  2  0
 15 16  1  0
 16 17  2  0
 17 18  1  0
 18 19  2  0
 19 20  1  0
 20 21  2  0
 20 22  1  0
 19 23  1  0
 18 24  1  0
 17 25  1  0
 15 26  1  0
 13 27  1  0
 11 28  1  0
 28 29  1  0
 29 30  1  0
 30 31  1  0
 31 32  3  0
 30 33  1  0
 30 34  1  0
 29 35  1  6
 28 36  1  0
 28 37  1  0
  8 38  1  0
 38 39  2  0
 39 40  1  0
 40 41  1  0
 40 42  2  0
 42 43  1  0
 43 44  2  0
 44 45  1  0
 45 46  2  0
 43 47  1  0
 42 48  1  0
 39 49  1  0
  7 50  1  0
  7 51  1  0
  5 52  1  0
  5 53  1  0
  2 54  1  0
  1 55  1  0
  1 56  1  0
  1 57  1  0
 45  6  1  0
 29  8  1  0
 44 38  1  0
 21 12  1  0
 21 16  1  0
M  END
>  <cnnaffinities>  (41) 
[6.53645]

>  <score>  (41) 
6.53645

>  <index>  (41) 
40

>  <Smiles>  (41) 
C(N(C(=O)C(N1C([C@@]2(C(=O)N(c3c(nc(c4c(c(c(c(c34)[H])[H])[H])[H])[H])[H])C([C@@]2(C(C#N)([H])[H])[H])([H])[H])c2c(c(Cl)c(c(c2C1=O)[H])[H])[H])([H])[H])([H])[H])[H])([H])([H])[H]

>  <h>  (41) 
<NA>

>  <Training>  (41) 
True

>  <Success>  (41) 
True

>  <enamine_searched>  (41) 
False

>  <enamine_id>  (41) 
nan

$$$$

     RDKit          3D

 68 73  0  0  0  0  0  0  0  0999 V2000
    7.1240   -2.4527   23.4493 C   0  0  0  0  0  0  0  0  0  0  0  0
    8.0043   -1.7780   22.3940 C   0  0  1  0  0  0  0  0  0  0  0  0
    7.3123   -1.6950   21.0202 C   0  0  0  0  0  0  0  0  0  0  0  0
    6.9395   -0.3034   20.8788 N   0  0  0  0  0  0  0  0  0  0  0  0
    6.1494    0.1450   19.8034 C   0  0  0  0  0  0  0  0  0  0  0  0
    6.4459   -0.2252   18.5151 C   0  0  0  0  0  0  0  0  0  0  0  0
    5.7730    0.2098   17.4266 N   0  0  0  0  0  0  0  0  0  0  0  0
    4.7584    1.0146   17.6234 C   0  0  0  0  0  0  0  0  0  0  0  0
    4.3039    1.4155   18.9117 C   0  0  0  0  0  0  0  0  0  0  0  0
    3.1701    2.2522   19.0758 C   0  0  0  0  0  0  0  0  0  0  0  0
    2.7397    2.6077   20.3237 C   0  0  0  0  0  0  0  0  0  0  0  0
    3.4095    2.1236   21.4704 C   0  0  0  0  0  0  0  0  0  0  0  0
    4.5086    1.3136   21.3398 C   0  0  0  0  0  0  0  0  0  0  0  0
    5.0032    0.9599   20.0495 C   0  0  0  0  0  0  0  0  0  0  0  0
    5.0125    0.9419   22.2275 H   0  0  0  0  0  0  0  0  0  0  0  0
    3.0613    2.4108   22.4594 H   0  0  0  0  0  0  0  0  0  0  0  0
    1.8840    3.2654   20.4392 H   0  0  0  0  0  0  0  0  0  0  0  0
    2.6628    2.6034   18.1819 H   0  0  0  0  0  0  0  0  0  0  0  0
    4.2312    1.3797   16.7414 H   0  0  0  0  0  0  0  0  0  0  0  0
    7.2884   -0.8861   18.3131 H   0  0  0  0  0  0  0  0  0  0  0  0
    7.6568    0.5409   21.6921 C   0  0  0  0  0  0  0  0  0  0  0  0
    7.6417    1.7573   21.6269 O   0  0  0  0  0  0  0  0  0  0  0  0
    8.4598   -0.3207   22.6972 C   0  0  1  0  0  0  0  0  0  0  0  0
    8.1347    0.1303   24.1341 C   0  0  0  0  0  0  0  0  0  0  0  0
    8.6113    1.4661   24.4071 N   0  0  0  0  0  0  0  0  0  0  0  0
    7.7751    2.3185   25.2206 C   0  0  0  0  0  0  0  0  0  0  0  0
    6.7519    3.0985   24.4092 C   0  0  0  0  0  0  0  0  0  0  0  0
    7.3754    4.1711   23.5701 N   0  0  0  0  0  4  0  0  0  0  0  0
    7.9202    5.2931   24.4372 C   0  0  0  0  0  0  0  0  0  0  0  0
    8.0219    6.6204   23.7023 C   0  0  0  0  0  0  0  0  0  0  0  0
    6.4038    7.2578   23.2595 S   0  0  0  0  0  0  0  0  0  0  0  0
    5.8223    7.8779   24.4497 O   0  0  0  0  0  0  0  0  0  0  0  0
    6.5406    8.0169   22.0204 O   0  0  0  0  0  0  0  0  0  0  0  0
    5.4931    5.7488   22.9172 C   0  0  0  0  0  0  0  0  0  0  0  0
    6.4367    4.6367   22.4744 C   0  0  0  0  0  0  0  0  0  0  0  0
    5.8644    3.7701   22.1403 H   0  0  0  0  0  0  0  0  0  0  0  0
    7.0473    4.9563   21.6280 H   0  0  0  0  0  0  0  0  0  0  0  0
    4.7742    6.0181   22.1426 H   0  0  0  0  0  0  0  0  0  0  0  0
    4.9516    5.4905   23.8317 H   0  0  0  0  0  0  0  0  0  0  0  0
    8.6023    6.5401   22.7793 H   0  0  0  0  0  0  0  0  0  0  0  0
    8.4575    7.3999   24.3290 H   0  0  0  0  0  0  0  0  0  0  0  0
    7.2776    5.3999   25.3162 H   0  0  0  0  0  0  0  0  0  0  0  0
    8.9141    4.9948   24.7680 H   0  0  0  0  0  0  0  0  0  0  0  0
    8.1800    3.7440   23.0824 H   0  0  0  0  0  0  0  0  0  0  0  0
    6.2297    2.4118   23.7342 H   0  0  0  0  0  0  0  0  0  0  0  0
    6.0098    3.5433   25.0843 H   0  0  0  0  0  0  0  0  0  0  0  0
    8.4328    2.9814   25.7813 H   0  0  0  0  0  0  0  0  0  0  0  0
    7.2339    1.6775   25.9177 H   0  0  0  0  0  0  0  0  0  0  0  0
    9.7911    1.9336   23.9361 C   0  0  0  0  0  0  0  0  0  0  0  0
   10.1885    3.0768   24.1629 O   0  0  0  0  0  0  0  0  0  0  0  0
   10.5799    0.9898   23.0933 C   0  0  0  0  0  0  0  0  0  0  0  0
   11.9425    1.2338   22.9168 C   0  0  0  0  0  0  0  0  0  0  0  0
   12.7154    0.3732   22.1550 C   0  0  0  0  0  0  0  0  0  0  0  0
   12.0890   -0.7271   21.5668 C   0  0  0  0  0  0  0  0  0  0  0  0
   12.9818   -1.7666   20.4915 Cl  0  0  0  0  0  0  0  0  0  0  0  0
   10.7271   -0.9410   21.6924 C   0  0  0  0  0  0  0  0  0  0  0  0
    9.9541   -0.1100   22.5048 C   0  0  0  0  0  0  0  0  0  0  0  0
   10.2731   -1.7292   21.1097 H   0  0  0  0  0  0  0  0  0  0  0  0
   13.7706    0.5622   21.9748 H   0  0  0  0  0  0  0  0  0  0  0  0
   12.3627    2.1257   23.3735 H   0  0  0  0  0  0  0  0  0  0  0  0
    8.5963   -0.5703   24.8397 H   0  0  0  0  0  0  0  0  0  0  0  0
    7.0554    0.1220   24.2897 H   0  0  0  0  0  0  0  0  0  0  0  0
    6.4189   -2.3229   20.9564 H   0  0  0  0  0  0  0  0  0  0  0  0
    7.9998   -1.9867   20.2182 H   0  0  0  0  0  0  0  0  0  0  0  0
    8.8911   -2.4112   22.3248 H   0  0  0  0  0  0  0  0  0  0  0  0
    7.6438   -2.5275   24.4090 H   0  0  0  0  0  0  0  0  0  0  0  0
    6.8890   -3.4727   23.1327 H   0  0  0  0  0  0  0  0  0  0  0  0
    6.1804   -1.9229   23.6091 H   0  0  0  0  0  0  0  0  0  0  0  0
  1  2  1  0
  2  3  1  0
  3  4  1  0
  4  5  1  0
  5  6  2  0
  6  7  1  0
  7  8  2  0
  8  9  1  0
  9 10  2  0
 10 11  1  0
 11 12  2  0
 12 13  1  0
 13 14  2  0
 13 15  1  0
 12 16  1  0
 11 17  1  0
 10 18  1  0
  8 19  1  0
  6 20  1  0
  4 21  1  0
 21 22  2  0
 21 23  1  0
 23 24  1  1
 24 25  1  0
 25 26  1  0
 26 27  1  0
 27 28  1  0
 28 29  1  0
 29 30  1  0
 30 31  1  0
 31 32  2  0
 31 33  2  0
 31 34  1  0
 34 35  1  0
 35 36  1  0
 35 37  1  0
 34 38  1  0
 34 39  1  0
 30 40  1  0
 30 41  1  0
 29 42  1  0
 29 43  1  0
 28 44  1  0
 27 45  1  0
 27 46  1  0
 26 47  1  0
 26 48  1  0
 25 49  1  0
 49 50  2  0
 49 51  1  0
 51 52  2  0
 52 53  1  0
 53 54  2  0
 54 55  1  0
 54 56  1  0
 56 57  2  0
 56 58  1  0
 53 59  1  0
 52 60  1  0
 24 61  1  0
 24 62  1  0
  3 63  1  0
  3 64  1  0
  2 65  1  6
  1 66  1  0
  1 67  1  0
  1 68  1  0
 23  2  1  0
 35 28  1  0
 57 51  1  0
 14  5  1  0
 57 23  1  0
 14  9  1  0
M  CHG  1  28   1
M  END
>  <cnnaffinities>  (42) 
[6.77278]

>  <score>  (42) 
6.77278

>  <index>  (42) 
41

>  <Smiles>  (42) 
C([C@]1(C(N(c2c(nc(c3c(c(c(c(c23)[H])[H])[H])[H])[H])[H])C(=O)[C@]21C(N(C(C([N+]1(C(C(S(=O)(=O)C(C1([H])[H])([H])[H])([H])[H])([H])[H])[H])([H])[H])([H])[H])C(=O)c1c(c(c(Cl)c(c21)[H])[H])[H])([H])[H])([H])[H])[H])([H])([H])[H]

>  <h>  (42) 
<NA>

>  <Training>  (42) 
True

>  <Success>  (42) 
True

>  <enamine_searched>  (42) 
False

>  <enamine_id>  (42) 
nan

$$$$

     RDKit          3D

 60 65  0  0  0  0  0  0  0  0999 V2000
    6.6768    4.3813   21.3126 C   0  0  0  0  0  0  0  0  0  0  0  0
    7.6530    4.0062   22.3221 N   0  0  0  0  0  0  0  0  0  0  0  0
    7.1611    3.3304   23.4006 C   0  0  0  0  0  0  0  0  0  0  0  0
    5.9555    3.1736   23.5571 O   0  0  0  0  0  0  0  0  0  0  0  0
    8.1454    2.7880   24.4325 C   0  0  0  0  0  0  0  0  0  0  0  0
    8.8338    1.6159   23.9437 N   0  0  0  0  0  0  0  0  0  0  0  0
    8.1009    0.3684   23.8282 C   0  0  0  0  0  0  0  0  0  0  0  0
    8.5112   -0.4261   22.5705 C   0  0  2  0  0  0  0  0  0  0  0  0
    7.9957    0.2728   21.2948 C   0  0  0  0  0  0  0  0  0  0  0  0
    8.4444    1.2690   20.7705 O   0  0  0  0  0  0  0  0  0  0  0  0
    6.9073   -0.4272   20.8325 N   0  0  0  0  0  0  0  0  0  0  0  0
    6.1232    0.0870   19.7734 C   0  0  0  0  0  0  0  0  0  0  0  0
    6.4605   -0.2129   18.4791 C   0  0  0  0  0  0  0  0  0  0  0  0
    5.7848    0.2358   17.3960 N   0  0  0  0  0  0  0  0  0  0  0  0
    4.7524    1.0148   17.6004 C   0  0  0  0  0  0  0  0  0  0  0  0
    4.2935    1.4010   18.8925 C   0  0  0  0  0  0  0  0  0  0  0  0
    3.1677    2.2469   19.0756 C   0  0  0  0  0  0  0  0  0  0  0  0
    2.7738    2.6246   20.3283 C   0  0  0  0  0  0  0  0  0  0  0  0
    3.4775    2.1696   21.4666 C   0  0  0  0  0  0  0  0  0  0  0  0
    4.5630    1.3374   21.3193 C   0  0  0  0  0  0  0  0  0  0  0  0
    4.9988    0.9297   20.0262 C   0  0  0  0  0  0  0  0  0  0  0  0
    5.1096    1.0132   22.2008 H   0  0  0  0  0  0  0  0  0  0  0  0
    3.1735    2.4848   22.4603 H   0  0  0  0  0  0  0  0  0  0  0  0
    1.9183    3.2826   20.4551 H   0  0  0  0  0  0  0  0  0  0  0  0
    2.6383    2.5924   18.1914 H   0  0  0  0  0  0  0  0  0  0  0  0
    4.2079    1.3741   16.7237 H   0  0  0  0  0  0  0  0  0  0  0  0
    7.3261   -0.8428   18.2833 H   0  0  0  0  0  0  0  0  0  0  0  0
    6.5642   -1.5929   21.6142 C   0  0  0  0  0  0  0  0  0  0  0  0
    7.7958   -1.8042   22.5019 C   0  0  2  0  0  0  0  0  0  0  0  0
    7.4431   -2.4887   23.8318 C   0  0  0  0  0  0  0  0  0  0  0  0
    6.8821   -3.8507   23.6060 C   0  0  0  0  0  0  0  0  0  0  0  0
    5.5860   -4.1199   23.5060 N   0  0  0  0  0  0  0  0  0  0  0  0
    5.5294   -5.4245   23.2553 N   0  0  0  0  0  0  0  0  0  0  0  0
    6.7430   -5.9107   23.2117 N   0  0  0  0  0  2  0  0  0  0  0  0
    7.6191   -4.9362   23.4301 N   0  0  0  0  0  0  0  0  0  0  0  0
    6.6940   -1.9106   24.3738 H   0  0  0  0  0  0  0  0  0  0  0  0
    8.3272   -2.5871   24.4640 H   0  0  0  0  0  0  0  0  0  0  0  0
    8.4704   -2.4851   21.9829 H   0  0  0  0  0  0  0  0  0  0  0  0
    6.3688   -2.4589   20.9764 H   0  0  0  0  0  0  0  0  0  0  0  0
    5.6646   -1.4279   22.2248 H   0  0  0  0  0  0  0  0  0  0  0  0
   10.0222   -0.4745   22.5241 C   0  0  0  0  0  0  0  0  0  0  0  0
   10.6680   -1.3900   21.6943 C   0  0  0  0  0  0  0  0  0  0  0  0
   12.0433   -1.3602   21.5683 C   0  0  0  0  0  0  0  0  0  0  0  0
   12.7780   -2.4793   20.4566 Cl  0  0  0  0  0  0  0  0  0  0  0  0
   12.8319   -0.4452   22.2703 C   0  0  0  0  0  0  0  0  0  0  0  0
   12.1986    0.4667   23.0858 C   0  0  0  0  0  0  0  0  0  0  0  0
   10.8100    0.4906   23.1580 C   0  0  0  0  0  0  0  0  0  0  0  0
   10.1888    1.6748   23.8120 C   0  0  0  0  0  0  0  0  0  0  0  0
   10.8414    2.6509   24.1616 O   0  0  0  0  0  0  0  0  0  0  0  0
   12.7392    1.2080   23.6620 H   0  0  0  0  0  0  0  0  0  0  0  0
   13.9078   -0.4417   22.1332 H   0  0  0  0  0  0  0  0  0  0  0  0
   10.1056   -2.1125   21.1150 H   0  0  0  0  0  0  0  0  0  0  0  0
    7.0311    0.5966   23.8142 H   0  0  0  0  0  0  0  0  0  0  0  0
    8.2997   -0.2553   24.7066 H   0  0  0  0  0  0  0  0  0  0  0  0
    7.5466    2.5451   25.3209 H   0  0  0  0  0  0  0  0  0  0  0  0
    8.9163    3.5281   24.6753 H   0  0  0  0  0  0  0  0  0  0  0  0
    8.5971    3.8389   21.9998 H   0  0  0  0  0  0  0  0  0  0  0  0
    6.2185    3.4897   20.8587 H   0  0  0  0  0  0  0  0  0  0  0  0
    5.8939    4.9754   21.7925 H   0  0  0  0  0  0  0  0  0  0  0  0
    7.1629    4.9840   20.5530 H   0  0  0  0  0  0  0  0  0  0  0  0
  1  2  1  0
  2  3  1  0
  3  4  2  0
  3  5  1  0
  5  6  1  0
  6  7  1  0
  8  7  1  1
  8  9  1  0
  9 10  2  0
  9 11  1  0
 11 12  1  0
 12 13  2  0
 13 14  1  0
 14 15  2  0
 15 16  1  0
 16 17  2  0
 17 18  1  0
 18 19  2  0
 19 20  1  0
 20 21  2  0
 20 22  1  0
 19 23  1  0
 18 24  1  0
 17 25  1  0
 15 26  1  0
 13 27  1  0
 11 28  1  0
 28 29  1  0
 29 30  1  0
 30 31  1  0
 31 32  1  0
 32 33  2  0
 33 34  1  0
 34 35  1  0
 30 36  1  0
 30 37  1  0
 29 38  1  6
 28 39  1  0
 28 40  1  0
  8 41  1  0
 41 42  2  0
 42 43  1  0
 43 44  1  0
 43 45  2  0
 45 46  1  0
 46 47  2  0
 47 48  1  0
 48 49  2  0
 46 50  1  0
 45 51  1  0
 42 52  1  0
  7 53  1  0
  7 54  1  0
  5 55  1  0
  5 56  1  0
  2 57  1  0
  1 58  1  0
  1 59  1  0
  1 60  1  0
 48  6  1  0
 29  8  1  0
 35 31  2  0
 47 41  1  0
 21 12  1  0
 21 16  1  0
M  CHG  1  34  -1
M  END
>  <cnnaffinities>  (43) 
[6.63578, 6.69654, 6.61272, 6.70145, 6.52395]

>  <score>  (43) 
6.63578

>  <index>  (43) 
42

>  <Smiles>  (43) 
C(N(C(=O)C(N1C([C@@]2(C(=O)N(c3c(nc(c4c(c(c(c(c34)[H])[H])[H])[H])[H])[H])C([C@@]2(C(c2nn[n-]n2)([H])[H])[H])([H])[H])c2c(c(Cl)c(c(c2C1=O)[H])[H])[H])([H])[H])([H])[H])[H])([H])([H])[H]

>  <h>  (43) 
<NA>

>  <Training>  (43) 
True

>  <Success>  (43) 
True

>  <enamine_searched>  (43) 
False

>  <enamine_id>  (43) 
nan

$$$$

     RDKit          3D

 62 67  0  0  0  0  0  0  0  0999 V2000
   10.6827    5.4557   24.8113 C   0  0  0  0  0  0  0  0  0  0  0  0
    9.1761    5.3235   25.0307 C   0  0  0  0  0  0  0  0  0  0  0  0
    8.4409    4.7365   23.9095 N   0  0  0  0  0  0  0  0  0  0  0  0
    7.9237    5.5666   22.9889 N   0  0  0  0  0  0  0  0  0  0  0  0
    7.3796    4.7757   22.0745 C   0  0  0  0  0  0  0  0  0  0  0  0
    7.5456    3.4157   22.3980 C   0  0  0  0  0  0  0  0  0  0  0  0
    8.2345    3.4234   23.5858 C   0  0  0  0  0  0  0  0  0  0  0  0
    8.6900    2.2995   24.4643 C   0  0  0  0  0  0  0  0  0  0  0  0
    9.2122    1.1538   23.7449 N   0  0  0  0  0  0  0  0  0  0  0  0
    8.4313   -0.0665   23.6612 C   0  0  0  0  0  0  0  0  0  0  0  0
    8.6892   -0.8372   22.3362 C   0  0  2  0  0  0  0  0  0  0  0  0
    8.1534   -0.0184   21.1354 C   0  0  0  0  0  0  0  0  0  0  0  0
    8.7387    0.8754   20.5622 O   0  0  0  0  0  0  0  0  0  0  0  0
    6.8903   -0.4710   20.8236 N   0  0  0  0  0  0  0  0  0  0  0  0
    6.1324    0.0833   19.7598 C   0  0  0  0  0  0  0  0  0  0  0  0
    6.4571   -0.2138   18.4598 C   0  0  0  0  0  0  0  0  0  0  0  0
    5.7708    0.2344   17.3830 N   0  0  0  0  0  0  0  0  0  0  0  0
    4.7416    1.0159   17.5962 C   0  0  0  0  0  0  0  0  0  0  0  0
    4.2929    1.4025   18.8914 C   0  0  0  0  0  0  0  0  0  0  0  0
    3.1706    2.2528   19.0706 C   0  0  0  0  0  0  0  0  0  0  0  0
    2.7824    2.6326   20.3253 C   0  0  0  0  0  0  0  0  0  0  0  0
    3.4904    2.1714   21.4554 C   0  0  0  0  0  0  0  0  0  0  0  0
    4.5765    1.3399   21.3091 C   0  0  0  0  0  0  0  0  0  0  0  0
    5.0049    0.9292   20.0169 C   0  0  0  0  0  0  0  0  0  0  0  0
    5.1133    1.0001   22.1898 H   0  0  0  0  0  0  0  0  0  0  0  0
    3.1764    2.4815   22.4470 H   0  0  0  0  0  0  0  0  0  0  0  0
    1.9329    3.2964   20.4550 H   0  0  0  0  0  0  0  0  0  0  0  0
    2.6446    2.6026   18.1870 H   0  0  0  0  0  0  0  0  0  0  0  0
    4.2043    1.3840   16.7213 H   0  0  0  0  0  0  0  0  0  0  0  0
    7.3077   -0.8587   18.2506 H   0  0  0  0  0  0  0  0  0  0  0  0
    6.4686   -1.6082   21.6200 C   0  0  0  0  0  0  0  0  0  0  0  0
    7.7914   -2.1050   22.2490 C   0  0  2  0  0  0  0  0  0  0  0  0
    7.5753   -2.8808   23.5467 C   0  0  0  0  0  0  0  0  0  0  0  0
    7.0152   -2.2779   24.2719 H   0  0  0  0  0  0  0  0  0  0  0  0
    7.0023   -3.7985   23.3717 H   0  0  0  0  0  0  0  0  0  0  0  0
    8.5283   -3.1585   24.0097 H   0  0  0  0  0  0  0  0  0  0  0  0
    8.2553   -2.7639   21.5101 H   0  0  0  0  0  0  0  0  0  0  0  0
    5.9874   -2.3613   20.9843 H   0  0  0  0  0  0  0  0  0  0  0  0
    5.7439   -1.3162   22.3986 H   0  0  0  0  0  0  0  0  0  0  0  0
   10.1886   -1.0047   22.1633 C   0  0  0  0  0  0  0  0  0  0  0  0
   10.7561   -2.0657   21.4512 C   0  0  0  0  0  0  0  0  0  0  0  0
   12.0560   -1.9529   20.9985 C   0  0  0  0  0  0  0  0  0  0  0  0
   12.5409   -2.9064   20.1871 F   0  0  0  0  0  0  0  0  0  0  0  0
   12.8825   -0.8904   21.3437 C   0  0  0  0  0  0  0  0  0  0  0  0
   12.3734    0.0776   22.1915 C   0  0  0  0  0  0  0  0  0  0  0  0
   11.0323    0.0385   22.5704 C   0  0  0  0  0  0  0  0  0  0  0  0
   10.5253    1.1912   23.3783 C   0  0  0  0  0  0  0  0  0  0  0  0
   11.2578    2.1321   23.6730 O   0  0  0  0  0  0  0  0  0  0  0  0
   12.9671    0.8996   22.5728 H   0  0  0  0  0  0  0  0  0  0  0  0
   13.8902   -0.8745   20.9433 H   0  0  0  0  0  0  0  0  0  0  0  0
   10.2123   -2.9646   21.2000 H   0  0  0  0  0  0  0  0  0  0  0  0
    8.6766   -0.7284   24.5051 H   0  0  0  0  0  0  0  0  0  0  0  0
    7.3716    0.2063   23.7448 H   0  0  0  0  0  0  0  0  0  0  0  0
    9.4807    2.7217   25.0709 H   0  0  0  0  0  0  0  0  0  0  0  0
    7.8870    1.9667   25.1342 H   0  0  0  0  0  0  0  0  0  0  0  0
    7.2599    2.5344   21.8374 H   0  0  0  0  0  0  0  0  0  0  0  0
    6.8884    5.2167   21.2158 H   0  0  0  0  0  0  0  0  0  0  0  0
    8.7262    6.3088   25.1795 H   0  0  0  0  0  0  0  0  0  0  0  0
    8.9726    4.7303   25.9284 H   0  0  0  0  0  0  0  0  0  0  0  0
   11.1532    4.4787   24.6531 H   0  0  0  0  0  0  0  0  0  0  0  0
   10.8943    6.0982   23.9520 H   0  0  0  0  0  0  0  0  0  0  0  0
   11.1308    5.9210   25.6962 H   0  0  0  0  0  0  0  0  0  0  0  0
  1  2  1  0
  2  3  1  0
  3  4  1  0
  4  5  2  0
  5  6  1  0
  6  7  2  0
  7  8  1  0
  8  9  1  0
  9 10  1  0
 11 10  1  1
 11 12  1  0
 12 13  2  0
 12 14  1  0
 14 15  1  0
 15 16  2  0
 16 17  1  0
 17 18  2  0
 18 19  1  0
 19 20  2  0
 20 21  1  0
 21 22  2  0
 22 23  1  0
 23 24  2  0
 23 25  1  0
 22 26  1  0
 21 27  1  0
 20 28  1  0
 18 29  1  0
 16 30  1  0
 14 31  1  0
 31 32  1  0
 32 33  1  0
 33 34  1  0
 33 35  1  0
 33 36  1  0
 32 37  1  6
 31 38  1  0
 31 39  1  0
 11 40  1  0
 40 41  2  0
 41 42  1  0
 42 43  1  0
 42 44  2  0
 44 45  1  0
 45 46  2  0
 46 47  1  0
 47 48  2  0
 45 49  1  0
 44 50  1  0
 41 51  1  0
 10 52  1  0
 10 53  1  0
  8 54  1  0
  8 55  1  0
  6 56  1  0
  5 57  1  0
  2 58  1  0
  2 59  1  0
  1 60  1  0
  1 61  1  0
  1 62  1  0
  7  3  1  0
 47  9  1  0
 32 11  1  0
 46 40  1  0
 24 15  1  0
 24 19  1  0
M  END
>  <cnnaffinities>  (44) 
[7.13146]

>  <score>  (44) 
7.13146

>  <index>  (44) 
43

>  <Smiles>  (44) 
C(C(n1nc(c(c1C(N1C([C@@]2(C(=O)N(c3c(nc(c4c(c(c(c(c34)[H])[H])[H])[H])[H])[H])C([C@@]2(C([H])([H])[H])[H])([H])[H])c2c(c(F)c(c(c2C1=O)[H])[H])[H])([H])[H])([H])[H])[H])[H])([H])[H])([H])([H])[H]

>  <h>  (44) 
<NA>

>  <Training>  (44) 
True

>  <Success>  (44) 
True

>  <enamine_searched>  (44) 
False

>  <enamine_id>  (44) 
nan

$$$$

     RDKit          3D

 56 60  0  0  0  0  0  0  0  0999 V2000
    6.6394    4.3680   21.3324 C   0  0  0  0  0  0  0  0  0  0  0  0
    7.6193    3.9720   22.3256 N   0  0  0  0  0  0  0  0  0  0  0  0
    7.1457    3.3120   23.4225 C   0  0  0  0  0  0  0  0  0  0  0  0
    5.9481    3.1503   23.6113 O   0  0  0  0  0  0  0  0  0  0  0  0
    8.1605    2.7838   24.4328 C   0  0  0  0  0  0  0  0  0  0  0  0
    8.8476    1.6145   23.9155 N   0  0  0  0  0  0  0  0  0  0  0  0
    8.1326    0.3474   23.8103 C   0  0  0  0  0  0  0  0  0  0  0  0
    8.5446   -0.4426   22.5388 C   0  0  2  0  0  0  0  0  0  0  0  0
    8.0292    0.2640   21.2629 C   0  0  0  0  0  0  0  0  0  0  0  0
    8.4919    1.2529   20.7277 O   0  0  0  0  0  0  0  0  0  0  0  0
    6.9183   -0.4139   20.8197 N   0  0  0  0  0  0  0  0  0  0  0  0
    6.1301    0.1005   19.7647 C   0  0  0  0  0  0  0  0  0  0  0  0
    6.4647   -0.1947   18.4699 C   0  0  0  0  0  0  0  0  0  0  0  0
    5.7815    0.2428   17.3889 N   0  0  0  0  0  0  0  0  0  0  0  0
    4.7437    1.0139   17.6003 C   0  0  0  0  0  0  0  0  0  0  0  0
    4.2860    1.3967   18.8934 C   0  0  0  0  0  0  0  0  0  0  0  0
    3.1603    2.2396   19.0771 C   0  0  0  0  0  0  0  0  0  0  0  0
    2.7721    2.6203   20.3310 C   0  0  0  0  0  0  0  0  0  0  0  0
    3.4833    2.1682   21.4655 C   0  0  0  0  0  0  0  0  0  0  0  0
    4.5667    1.3354   21.3170 C   0  0  0  0  0  0  0  0  0  0  0  0
    4.9981    0.9287   20.0242 C   0  0  0  0  0  0  0  0  0  0  0  0
    5.1213    1.0209   22.1965 H   0  0  0  0  0  0  0  0  0  0  0  0
    3.1816    2.4896   22.4563 H   0  0  0  0  0  0  0  0  0  0  0  0
    1.9160    3.2737   20.4593 H   0  0  0  0  0  0  0  0  0  0  0  0
    2.6325    2.5860   18.1924 H   0  0  0  0  0  0  0  0  0  0  0  0
    4.2051    1.3764   16.7237 H   0  0  0  0  0  0  0  0  0  0  0  0
    7.3292   -0.8255   18.2801 H   0  0  0  0  0  0  0  0  0  0  0  0
    6.5456   -1.5549   21.6266 C   0  0  0  0  0  0  0  0  0  0  0  0
    7.8171   -1.8190   22.4477 C   0  0  2  0  0  0  0  0  0  0  0  0
    7.4576   -2.5414   23.7386 C   0  0  0  0  0  0  0  0  0  0  0  0
    8.8959   -3.0237   24.6809 Cl  0  0  0  0  0  0  0  0  0  0  0  0
    6.8464   -1.9089   24.3892 H   0  0  0  0  0  0  0  0  0  0  0  0
    6.9041   -3.4582   23.5196 H   0  0  0  0  0  0  0  0  0  0  0  0
    8.4493   -2.4904   21.8645 H   0  0  0  0  0  0  0  0  0  0  0  0
    5.6783   -1.3495   22.2771 H   0  0  0  0  0  0  0  0  0  0  0  0
    6.2858   -2.4076   20.9925 H   0  0  0  0  0  0  0  0  0  0  0  0
   10.0545   -0.4898   22.4861 C   0  0  0  0  0  0  0  0  0  0  0  0
   10.6990   -1.4136   21.6616 C   0  0  0  0  0  0  0  0  0  0  0  0
   12.0695   -1.3688   21.5133 C   0  0  0  0  0  0  0  0  0  0  0  0
   12.8209   -2.4674   20.4026 Cl  0  0  0  0  0  0  0  0  0  0  0  0
   12.8546   -0.4410   22.1935 C   0  0  0  0  0  0  0  0  0  0  0  0
   12.2271    0.4733   23.0083 C   0  0  0  0  0  0  0  0  0  0  0  0
   10.8372    0.4925   23.1043 C   0  0  0  0  0  0  0  0  0  0  0  0
   10.2063    1.6682   23.7829 C   0  0  0  0  0  0  0  0  0  0  0  0
   10.8650    2.6318   24.1538 O   0  0  0  0  0  0  0  0  0  0  0  0
   12.7828    1.2167   23.5641 H   0  0  0  0  0  0  0  0  0  0  0  0
   13.9281   -0.4266   22.0428 H   0  0  0  0  0  0  0  0  0  0  0  0
   10.1467   -2.1620   21.1066 H   0  0  0  0  0  0  0  0  0  0  0  0
    7.0567    0.5509   23.7993 H   0  0  0  0  0  0  0  0  0  0  0  0
    8.3354   -0.2723   24.6955 H   0  0  0  0  0  0  0  0  0  0  0  0
    7.6328    2.5272   25.3593 H   0  0  0  0  0  0  0  0  0  0  0  0
    8.9329    3.5185   24.6823 H   0  0  0  0  0  0  0  0  0  0  0  0
    8.5459    3.7572   21.9750 H   0  0  0  0  0  0  0  0  0  0  0  0
    5.8471    4.9140   21.8499 H   0  0  0  0  0  0  0  0  0  0  0  0
    7.1020    5.0538   20.6209 H   0  0  0  0  0  0  0  0  0  0  0  0
    6.2164    3.4819   20.8255 H   0  0  0  0  0  0  0  0  0  0  0  0
  1  2  1  0
  2  3  1  0
  3  4  2  0
  3  5  1  0
  5  6  1  0
  6  7  1  0
  8  7  1  1
  8  9  1  0
  9 10  2  0
  9 11  1  0
 11 12  1  0
 12 13  2  0
 13 14  1  0
 14 15  2  0
 15 16  1  0
 16 17  2  0
 17 18  1  0
 18 19  2  0
 19 20  1  0
 20 21  2  0
 20 22  1  0
 19 23  1  0
 18 24  1  0
 17 25  1  0
 15 26  1  0
 13 27  1  0
 11 28  1  0
 28 29  1  0
 29 30  1  0
 30 31  1  0
 30 32  1  0
 30 33  1  0
 29 34  1  6
 28 35  1  0
 28 36  1  0
  8 37  1  0
 37 38  2  0
 38 39  1  0
 39 40  1  0
 39 41  2  0
 41 42  1  0
 42 43  2  0
 43 44  1  0
 44 45  2  0
 42 46  1  0
 41 47  1  0
 38 48  1  0
  7 49  1  0
  7 50  1  0
  5 51  1  0
  5 52  1  0
  2 53  1  0
  1 54  1  0
  1 55  1  0
  1 56  1  0
 44  6  1  0
 29  8  1  0
 43 37  1  0
 21 12  1  0
 21 16  1  0
M  END
>  <cnnaffinities>  (45) 
[6.72778]

>  <score>  (45) 
6.72778

>  <index>  (45) 
44

>  <Smiles>  (45) 
C(N(C(=O)C(N1C([C@@]2(C(=O)N(c3c(nc(c4c(c(c(c(c34)[H])[H])[H])[H])[H])[H])C([C@@]2(C(Cl)([H])[H])[H])([H])[H])c2c(c(Cl)c(c(c2C1=O)[H])[H])[H])([H])[H])([H])[H])[H])([H])([H])[H]

>  <h>  (45) 
<NA>

>  <Training>  (45) 
True

>  <Success>  (45) 
True

>  <enamine_searched>  (45) 
False

>  <enamine_id>  (45) 
nan

$$$$

     RDKit          3D

 60 64  0  0  0  0  0  0  0  0999 V2000
    7.7415   -8.4886   22.8850 C   0  0  0  0  0  0  0  0  0  0  0  0
    6.8147   -7.3941   22.6897 N   0  0  0  0  0  0  0  0  0  0  0  0
    7.0571   -6.5052   21.6920 C   0  0  0  0  0  0  0  0  0  0  0  0
    7.9449   -6.6569   20.8621 O   0  0  0  0  0  0  0  0  0  0  0  0
    6.1703   -5.2599   21.7165 C   0  0  0  0  0  0  0  0  0  0  0  0
    6.6715   -4.2998   22.6820 N   0  0  0  0  0  0  0  0  0  0  0  0
    7.7468   -3.3961   22.3228 C   0  0  0  0  0  0  0  0  0  0  0  0
    7.3866   -1.9286   22.6662 C   0  0  2  0  0  0  0  0  0  0  0  0
    6.3046   -1.4499   21.6697 C   0  0  0  0  0  0  0  0  0  0  0  0
    5.1778   -1.8820   21.5585 O   0  0  0  0  0  0  0  0  0  0  0  0
    6.8496   -0.4692   20.8652 N   0  0  0  0  0  0  0  0  0  0  0  0
    6.1155    0.0815   19.7941 C   0  0  0  0  0  0  0  0  0  0  0  0
    6.4605   -0.2113   18.5006 C   0  0  0  0  0  0  0  0  0  0  0  0
    5.7980    0.2386   17.4096 N   0  0  0  0  0  0  0  0  0  0  0  0
    4.7614    1.0129   17.6171 C   0  0  0  0  0  0  0  0  0  0  0  0
    4.2969    1.3940   18.9073 C   0  0  0  0  0  0  0  0  0  0  0  0
    3.1676    2.2366   19.0691 C   0  0  0  0  0  0  0  0  0  0  0  0
    2.7699    2.6327   20.3142 C   0  0  0  0  0  0  0  0  0  0  0  0
    3.4749    2.1976   21.4579 C   0  0  0  0  0  0  0  0  0  0  0  0
    4.5597    1.3682   21.3308 C   0  0  0  0  0  0  0  0  0  0  0  0
    4.9945    0.9339   20.0446 C   0  0  0  0  0  0  0  0  0  0  0  0
    5.0884    1.0382   22.2199 H   0  0  0  0  0  0  0  0  0  0  0  0
    3.1538    2.5314   22.4403 H   0  0  0  0  0  0  0  0  0  0  0  0
    1.9204    3.2992   20.4273 H   0  0  0  0  0  0  0  0  0  0  0  0
    2.6451    2.5668   18.1747 H   0  0  0  0  0  0  0  0  0  0  0  0
    4.2290    1.3840   16.7412 H   0  0  0  0  0  0  0  0  0  0  0  0
    7.3065   -0.8702   18.3087 H   0  0  0  0  0  0  0  0  0  0  0  0
    8.2945   -0.3816   20.9694 C   0  0  0  0  0  0  0  0  0  0  0  0
    8.5686   -0.9636   22.3659 C   0  0  2  0  0  0  0  0  0  0  0  0
    9.9615   -1.5693   22.4587 C   0  0  0  0  0  0  0  0  0  0  0  0
   10.9010   -0.5433   22.2662 O   0  0  0  0  0  0  0  0  0  0  0  0
   12.2215   -1.0190   22.3133 C   0  0  0  0  0  0  0  0  0  0  0  0
   12.8894   -0.1654   22.1748 H   0  0  0  0  0  0  0  0  0  0  0  0
   12.4514   -1.4919   23.2818 H   0  0  0  0  0  0  0  0  0  0  0  0
   12.4187   -1.7541   21.5168 H   0  0  0  0  0  0  0  0  0  0  0  0
   10.1114   -2.0516   23.4393 H   0  0  0  0  0  0  0  0  0  0  0  0
   10.0850   -2.3499   21.6865 H   0  0  0  0  0  0  0  0  0  0  0  0
    8.5355   -0.1373   23.0766 H   0  0  0  0  0  0  0  0  0  0  0  0
    8.8037   -0.9696   20.1894 H   0  0  0  0  0  0  0  0  0  0  0  0
    8.6210    0.6577   20.8772 H   0  0  0  0  0  0  0  0  0  0  0  0
    6.8718   -1.9004   24.0955 C   0  0  0  0  0  0  0  0  0  0  0  0
    6.7887   -0.6971   24.8030 C   0  0  0  0  0  0  0  0  0  0  0  0
    6.2606   -0.6816   26.0800 C   0  0  0  0  0  0  0  0  0  0  0  0
    6.0130    0.8425   26.8752 Cl  0  0  0  0  0  0  0  0  0  0  0  0
    5.8812   -1.8510   26.7382 C   0  0  0  0  0  0  0  0  0  0  0  0
    5.9336   -3.0346   26.0367 C   0  0  0  0  0  0  0  0  0  0  0  0
    6.3705   -3.0540   24.7169 C   0  0  0  0  0  0  0  0  0  0  0  0
    6.1803   -4.3196   23.9495 C   0  0  0  0  0  0  0  0  0  0  0  0
    5.5697   -5.2902   24.4005 O   0  0  0  0  0  0  0  0  0  0  0  0
    5.6029   -3.9724   26.4665 H   0  0  0  0  0  0  0  0  0  0  0  0
    5.5363   -1.8190   27.7648 H   0  0  0  0  0  0  0  0  0  0  0  0
    7.1343    0.2362   24.3724 H   0  0  0  0  0  0  0  0  0  0  0  0
    7.9274   -3.4951   21.2548 H   0  0  0  0  0  0  0  0  0  0  0  0
    8.6703   -3.6742   22.8508 H   0  0  0  0  0  0  0  0  0  0  0  0
    6.1358   -4.7782   20.7300 H   0  0  0  0  0  0  0  0  0  0  0  0
    5.1531   -5.5284   22.0194 H   0  0  0  0  0  0  0  0  0  0  0  0
    6.1416   -7.1526   23.4104 H   0  0  0  0  0  0  0  0  0  0  0  0
    8.6507   -8.1811   23.4312 H   0  0  0  0  0  0  0  0  0  0  0  0
    8.0282   -8.8537   21.9040 H   0  0  0  0  0  0  0  0  0  0  0  0
    7.2218   -9.3016   23.3826 H   0  0  0  0  0  0  0  0  0  0  0  0
  1  2  1  0
  2  3  1  0
  3  4  2  0
  3  5  1  0
  5  6  1  0
  6  7  1  0
  8  7  1  6
  8  9  1  0
  9 10  2  0
  9 11  1  0
 11 12  1  0
 12 13  2  0
 13 14  1  0
 14 15  2  0
 15 16  1  0
 16 17  2  0
 17 18  1  0
 18 19  2  0
 19 20  1  0
 20 21  2  0
 20 22  1  0
 19 23  1  0
 18 24  1  0
 17 25  1  0
 15 26  1  0
 13 27  1  0
 11 28  1  0
 28 29  1  0
 29 30  1  0
 30 31  1  0
 31 32  1  0
 32 33  1  0
 32 34  1  0
 32 35  1  0
 30 36  1  0
 30 37  1  0
 29 38  1  1
 28 39  1  0
 28 40  1  0
  8 41  1  0
 41 42  2  0
 42 43  1  0
 43 44  1  0
 43 45  2  0
 45 46  1  0
 46 47  2  0
 47 48  1  0
 48 49  2  0
 46 50  1  0
 45 51  1  0
 42 52  1  0
  7 53  1  0
  7 54  1  0
  5 55  1  0
  5 56  1  0
  2 57  1  0
  1 58  1  0
  1 59  1  0
  1 60  1  0
 48  6  1  0
 29  8  1  0
 47 41  1  0
 21 12  1  0
 21 16  1  0
M  END
>  <cnnaffinities>  (46) 
[6.83251, 6.78954, 6.79811]

>  <score>  (46) 
6.83251

>  <index>  (46) 
45

>  <Smiles>  (46) 
C(N(C(=O)C(N1C([C@@]2(C(=O)N(c3c(nc(c4c(c(c(c(c34)[H])[H])[H])[H])[H])[H])C([C@@]2(C(OC([H])([H])[H])([H])[H])[H])([H])[H])c2c(c(Cl)c(c(c2C1=O)[H])[H])[H])([H])[H])([H])[H])[H])([H])([H])[H]

>  <h>  (46) 
<NA>

>  <Training>  (46) 
True

>  <Success>  (46) 
True

>  <enamine_searched>  (46) 
False

>  <enamine_id>  (46) 
nan

$$$$

     RDKit          3D

 64 68  0  0  0  0  0  0  0  0999 V2000
    5.8672   -6.0537   25.0487 C   0  0  0  0  0  0  0  0  0  0  0  0
    6.6540   -4.7468   25.0980 C   0  0  0  0  0  0  0  0  0  0  0  0
    6.7126   -4.0505   23.4507 S   0  0  0  0  0  0  0  0  0  0  0  0
    7.5271   -4.9096   22.6025 O   0  0  0  0  0  0  0  0  0  0  0  0
    5.3337   -3.7675   23.0739 O   0  0  0  0  0  0  0  0  0  0  0  0
    7.5151   -2.5679   23.6702 N   0  0  0  0  0  0  0  0  0  0  0  0
    7.7851   -1.8722   22.3894 C   0  0  1  0  0  0  0  0  0  0  0  0
    6.5029   -1.5460   21.6167 C   0  0  0  0  0  0  0  0  0  0  0  0
    6.8945   -0.3991   20.8352 N   0  0  0  0  0  0  0  0  0  0  0  0
    6.1283    0.1111   19.7644 C   0  0  0  0  0  0  0  0  0  0  0  0
    6.4755   -0.1833   18.4705 C   0  0  0  0  0  0  0  0  0  0  0  0
    5.7903    0.2515   17.3908 N   0  0  0  0  0  0  0  0  0  0  0  0
    4.7410    1.0093   17.6022 C   0  0  0  0  0  0  0  0  0  0  0  0
    4.2716    1.3851   18.8950 C   0  0  0  0  0  0  0  0  0  0  0  0
    3.1443    2.2245   19.0808 C   0  0  0  0  0  0  0  0  0  0  0  0
    2.7575    2.6054   20.3386 C   0  0  0  0  0  0  0  0  0  0  0  0
    3.4744    2.1555   21.4707 C   0  0  0  0  0  0  0  0  0  0  0  0
    4.5571    1.3254   21.3194 C   0  0  0  0  0  0  0  0  0  0  0  0
    4.9855    0.9231   20.0226 C   0  0  0  0  0  0  0  0  0  0  0  0
    5.1275    1.0147   22.1924 H   0  0  0  0  0  0  0  0  0  0  0  0
    3.1904    2.4893   22.4650 H   0  0  0  0  0  0  0  0  0  0  0  0
    1.9067    3.2669   20.4682 H   0  0  0  0  0  0  0  0  0  0  0  0
    2.6170    2.5711   18.1975 H   0  0  0  0  0  0  0  0  0  0  0  0
    4.2045    1.3717   16.7268 H   0  0  0  0  0  0  0  0  0  0  0  0
    7.3490   -0.8040   18.2765 H   0  0  0  0  0  0  0  0  0  0  0  0
    8.0422    0.2249   21.2648 C   0  0  0  0  0  0  0  0  0  0  0  0
    8.5517    1.1851   20.7272 O   0  0  0  0  0  0  0  0  0  0  0  0
    8.5463   -0.5295   22.5206 C   0  0  1  0  0  0  0  0  0  0  0  0
    8.1280    0.2237   23.8094 C   0  0  0  0  0  0  0  0  0  0  0  0
    8.8722    1.4725   23.9647 N   0  0  0  0  0  0  0  0  0  0  0  0
    8.1974    2.6444   24.5014 C   0  0  0  0  0  0  0  0  0  0  0  0
    7.1318    3.1735   23.5291 C   0  0  0  0  0  0  0  0  0  0  0  0
    5.9344    3.0277   23.7445 O   0  0  0  0  0  0  0  0  0  0  0  0
    7.5825    3.8348   22.4209 N   0  0  0  0  0  0  0  0  0  0  0  0
    6.5934    4.2796   21.4480 C   0  0  0  0  0  0  0  0  0  0  0  0
    7.0331    5.0087   20.7624 H   0  0  0  0  0  0  0  0  0  0  0  0
    5.7649    4.7518   21.9872 H   0  0  0  0  0  0  0  0  0  0  0  0
    6.1858    3.4309   20.8769 H   0  0  0  0  0  0  0  0  0  0  0  0
    8.4818    3.5658   22.0366 H   0  0  0  0  0  0  0  0  0  0  0  0
    7.7045    2.4325   25.4596 H   0  0  0  0  0  0  0  0  0  0  0  0
    8.9800    3.3949   24.6760 H   0  0  0  0  0  0  0  0  0  0  0  0
   10.2258    1.5435   23.7816 C   0  0  0  0  0  0  0  0  0  0  0  0
   10.8951    2.5010   24.1587 O   0  0  0  0  0  0  0  0  0  0  0  0
   10.8408    0.4020   23.0409 C   0  0  0  0  0  0  0  0  0  0  0  0
   12.2241    0.4295   22.8679 C   0  0  0  0  0  0  0  0  0  0  0  0
   12.8321   -0.4674   22.0211 C   0  0  0  0  0  0  0  0  0  0  0  0
   12.0563   -1.4373   21.3865 C   0  0  0  0  0  0  0  0  0  0  0  0
   12.8027   -2.4867   20.2095 Cl  0  0  0  0  0  0  0  0  0  0  0  0
   10.6945   -1.5348   21.6227 C   0  0  0  0  0  0  0  0  0  0  0  0
   10.0582   -0.5999   22.4517 C   0  0  0  0  0  0  0  0  0  0  0  0
   10.1452   -2.3261   21.1267 H   0  0  0  0  0  0  0  0  0  0  0  0
   13.8990   -0.4193   21.8393 H   0  0  0  0  0  0  0  0  0  0  0  0
   12.8130    1.1807   23.3821 H   0  0  0  0  0  0  0  0  0  0  0  0
    8.2849   -0.4273   24.6771 H   0  0  0  0  0  0  0  0  0  0  0  0
    7.0592    0.4602   23.7562 H   0  0  0  0  0  0  0  0  0  0  0  0
    6.1830   -2.3737   20.9776 H   0  0  0  0  0  0  0  0  0  0  0  0
    5.6842   -1.3203   22.3083 H   0  0  0  0  0  0  0  0  0  0  0  0
    8.3752   -2.5423   21.7608 H   0  0  0  0  0  0  0  0  0  0  0  0
    8.4028   -2.7087   24.1560 H   0  0  0  0  0  0  0  0  0  0  0  0
    6.1669   -3.9954   25.7229 H   0  0  0  0  0  0  0  0  0  0  0  0
    7.6828   -4.8973   25.4487 H   0  0  0  0  0  0  0  0  0  0  0  0
    6.4820   -6.8441   24.6148 H   0  0  0  0  0  0  0  0  0  0  0  0
    5.5678   -6.3661   26.0523 H   0  0  0  0  0  0  0  0  0  0  0  0
    4.9719   -5.9488   24.4305 H   0  0  0  0  0  0  0  0  0  0  0  0
  1  2  1  0
  2  3  1  0
  3  4  2  0
  3  5  2  0
  3  6  1  0
  6  7  1  0
  7  8  1  0
  8  9  1  0
  9 10  1  0
 10 11  2  0
 11 12  1  0
 12 13  2  0
 13 14  1  0
 14 15  2  0
 15 16  1  0
 16 17  2  0
 17 18  1  0
 18 19  2  0
 18 20  1  0
 17 21  1  0
 16 22  1  0
 15 23  1  0
 13 24  1  0
 11 25  1  0
  9 26  1  0
 26 27  2  0
 26 28  1  0
 28 29  1  1
 29 30  1  0
 30 31  1  0
 31 32  1  0
 32 33  2  0
 32 34  1  0
 34 35  1  0
 35 36  1  0
 35 37  1  0
 35 38  1  0
 34 39  1  0
 31 40  1  0
 31 41  1  0
 30 42  1  0
 42 43  2  0
 42 44  1  0
 44 45  2  0
 45 46  1  0
 46 47  2  0
 47 48  1  0
 47 49  1  0
 49 50  2  0
 49 51  1  0
 46 52  1  0
 45 53  1  0
 29 54  1  0
 29 55  1  0
  8 56  1  0
  8 57  1  0
  7 58  1  6
  6 59  1  0
  2 60  1  0
  2 61  1  0
  1 62  1  0
  1 63  1  0
  1 64  1  0
 28  7  1  0
 50 44  1  0
 19 10  1  0
 50 28  1  0
 19 14  1  0
M  END
>  <cnnaffinities>  (47) 
[6.5461]

>  <score>  (47) 
6.5461

>  <index>  (47) 
46

>  <Smiles>  (47) 
C(C(S(=O)(=O)N([C@]1(C(N(c2c(nc(c3c(c(c(c(c23)[H])[H])[H])[H])[H])[H])C(=O)[C@]21C(N(C(C(=O)N(C([H])([H])[H])[H])([H])[H])C(=O)c1c(c(c(Cl)c(c21)[H])[H])[H])([H])[H])([H])[H])[H])[H])([H])[H])([H])([H])[H]

>  <h>  (47) 
<NA>

>  <Training>  (47) 
True

>  <Success>  (47) 
True

>  <enamine_searched>  (47) 
False

>  <enamine_id>  (47) 
nan

$$$$

     RDKit          3D

 56 60  0  0  0  0  0  0  0  0999 V2000
    7.7169   -8.5010   22.8801 C   0  0  0  0  0  0  0  0  0  0  0  0
    6.8079   -7.3874   22.7181 N   0  0  0  0  0  0  0  0  0  0  0  0
    7.0364   -6.5079   21.7055 C   0  0  0  0  0  0  0  0  0  0  0  0
    7.8965   -6.6753   20.8562 O   0  0  0  0  0  0  0  0  0  0  0  0
    6.1530   -5.2586   21.7520 C   0  0  0  0  0  0  0  0  0  0  0  0
    6.6775   -4.3071   22.7138 N   0  0  0  0  0  0  0  0  0  0  0  0
    7.7460   -3.4029   22.3372 C   0  0  0  0  0  0  0  0  0  0  0  0
    7.3855   -1.9325   22.6583 C   0  0  2  0  0  0  0  0  0  0  0  0
    6.2998   -1.4587   21.6606 C   0  0  0  0  0  0  0  0  0  0  0  0
    5.1739   -1.9001   21.5417 O   0  0  0  0  0  0  0  0  0  0  0  0
    6.8366   -0.4692   20.8657 N   0  0  0  0  0  0  0  0  0  0  0  0
    6.1065    0.0798   19.7940 C   0  0  0  0  0  0  0  0  0  0  0  0
    6.4579   -0.2112   18.5029 C   0  0  0  0  0  0  0  0  0  0  0  0
    5.7986    0.2396   17.4116 N   0  0  0  0  0  0  0  0  0  0  0  0
    4.7603    1.0126   17.6176 C   0  0  0  0  0  0  0  0  0  0  0  0
    4.2936    1.3932   18.9075 C   0  0  0  0  0  0  0  0  0  0  0  0
    3.1648    2.2354   19.0690 C   0  0  0  0  0  0  0  0  0  0  0  0
    2.7668    2.6334   20.3140 C   0  0  0  0  0  0  0  0  0  0  0  0
    3.4717    2.1995   21.4585 C   0  0  0  0  0  0  0  0  0  0  0  0
    4.5554    1.3693   21.3323 C   0  0  0  0  0  0  0  0  0  0  0  0
    4.9890    0.9335   20.0461 C   0  0  0  0  0  0  0  0  0  0  0  0
    5.0841    1.0399   22.2222 H   0  0  0  0  0  0  0  0  0  0  0  0
    3.1505    2.5358   22.4402 H   0  0  0  0  0  0  0  0  0  0  0  0
    1.9183    3.3003   20.4256 H   0  0  0  0  0  0  0  0  0  0  0  0
    2.6423    2.5640   18.1743 H   0  0  0  0  0  0  0  0  0  0  0  0
    4.2295    1.3847   16.7407 H   0  0  0  0  0  0  0  0  0  0  0  0
    7.3055   -0.8689   18.3130 H   0  0  0  0  0  0  0  0  0  0  0  0
    8.2797   -0.3865   20.9600 C   0  0  0  0  0  0  0  0  0  0  0  0
    8.5719   -0.9644   22.3514 C   0  0  2  0  0  0  0  0  0  0  0  0
    9.9796   -1.5455   22.4328 C   0  0  0  0  0  0  0  0  0  0  0  0
   10.1205   -2.3257   21.6753 H   0  0  0  0  0  0  0  0  0  0  0  0
   10.1896   -1.9825   23.4144 H   0  0  0  0  0  0  0  0  0  0  0  0
   10.7228   -0.7642   22.2448 H   0  0  0  0  0  0  0  0  0  0  0  0
    8.5039   -0.1357   23.0588 H   0  0  0  0  0  0  0  0  0  0  0  0
    8.7865   -0.9748   20.1777 H   0  0  0  0  0  0  0  0  0  0  0  0
    8.6059    0.6540   20.8641 H   0  0  0  0  0  0  0  0  0  0  0  0
    6.8742   -1.8874   24.0880 C   0  0  0  0  0  0  0  0  0  0  0  0
    6.8225   -0.6796   24.7883 C   0  0  0  0  0  0  0  0  0  0  0  0
    6.3189   -0.6617   26.0711 C   0  0  0  0  0  0  0  0  0  0  0  0
    6.2206    0.5152   26.7071 F   0  0  0  0  0  0  0  0  0  0  0  0
    5.9004   -1.8034   26.7416 C   0  0  0  0  0  0  0  0  0  0  0  0
    5.9258   -2.9904   26.0451 C   0  0  0  0  0  0  0  0  0  0  0  0
    6.3643   -3.0286   24.7251 C   0  0  0  0  0  0  0  0  0  0  0  0
    6.1753   -4.3065   23.9776 C   0  0  0  0  0  0  0  0  0  0  0  0
    5.5625   -5.2684   24.4346 O   0  0  0  0  0  0  0  0  0  0  0  0
    5.5848   -3.9192   26.4821 H   0  0  0  0  0  0  0  0  0  0  0  0
    5.5595   -1.7377   27.7677 H   0  0  0  0  0  0  0  0  0  0  0  0
    7.1810    0.2502   24.3626 H   0  0  0  0  0  0  0  0  0  0  0  0
    8.6774   -3.6622   22.8610 H   0  0  0  0  0  0  0  0  0  0  0  0
    7.9194   -3.5207   21.2713 H   0  0  0  0  0  0  0  0  0  0  0  0
    5.1384   -5.5214   22.0715 H   0  0  0  0  0  0  0  0  0  0  0  0
    6.1045   -4.7700   20.7695 H   0  0  0  0  0  0  0  0  0  0  0  0
    6.1650   -7.1324   23.4599 H   0  0  0  0  0  0  0  0  0  0  0  0
    8.6400   -8.2238   23.4156 H   0  0  0  0  0  0  0  0  0  0  0  0
    7.1945   -9.3200   23.3679 H   0  0  0  0  0  0  0  0  0  0  0  0
    7.9900   -8.8433   21.8898 H   0  0  0  0  0  0  0  0  0  0  0  0
  1  2  1  0
  2  3  1  0
  3  4  2  0
  3  5  1  0
  5  6  1  0
  6  7  1  0
  8  7  1  6
  8  9  1  0
  9 10  2  0
  9 11  1  0
 11 12  1  0
 12 13  2  0
 13 14  1  0
 14 15  2  0
 15 16  1  0
 16 17  2  0
 17 18  1  0
 18 19  2  0
 19 20  1  0
 20 21  2  0
 20 22  1  0
 19 23  1  0
 18 24  1  0
 17 25  1  0
 15 26  1  0
 13 27  1  0
 11 28  1  0
 28 29  1  0
 29 30  1  0
 30 31  1  0
 30 32  1  0
 30 33  1  0
 29 34  1  1
 28 35  1  0
 28 36  1  0
  8 37  1  0
 37 38  2  0
 38 39  1  0
 39 40  1  0
 39 41  2  0
 41 42  1  0
 42 43  2  0
 43 44  1  0
 44 45  2  0
 42 46  1  0
 41 47  1  0
 38 48  1  0
  7 49  1  0
  7 50  1  0
  5 51  1  0
  5 52  1  0
  2 53  1  0
  1 54  1  0
  1 55  1  0
  1 56  1  0
 44  6  1  0
 29  8  1  0
 43 37  1  0
 21 12  1  0
 21 16  1  0
M  END
>  <cnnaffinities>  (48) 
[6.543]

>  <score>  (48) 
6.543

>  <index>  (48) 
47

>  <Smiles>  (48) 
C(N(C(=O)C(N1C([C@@]2(C(=O)N(c3c(nc(c4c(c(c(c(c34)[H])[H])[H])[H])[H])[H])C([C@@]2(C([H])([H])[H])[H])([H])[H])c2c(c(F)c(c(c2C1=O)[H])[H])[H])([H])[H])([H])[H])[H])([H])([H])[H]

>  <h>  (48) 
<NA>

>  <Training>  (48) 
True

>  <Success>  (48) 
True

>  <enamine_searched>  (48) 
False

>  <enamine_id>  (48) 
nan

$$$$

     RDKit          3D

 41 43  0  0  0  0  0  0  0  0999 V2000
   10.9105   -2.4511   23.7830 C   0  0  0  0  0  0  0  0  0  0  0  0
   10.0173   -1.2724   23.4546 C   0  0  1  0  0  0  0  0  0  0  0  0
    8.5429   -1.5707   23.7525 C   0  0  0  0  0  0  0  0  0  0  0  0
    7.6638   -0.3147   23.8330 C   0  0  0  0  0  0  0  0  0  0  0  0
    8.0155    0.7496   22.8947 N   0  0  0  0  0  0  0  0  0  0  0  0
    7.8627    0.6368   21.5254 C   0  0  0  0  0  0  0  0  0  0  0  0
    8.4389    1.3995   20.7682 O   0  0  0  0  0  0  0  0  0  0  0  0
    6.9381   -0.4474   20.9211 C   0  0  0  0  0  0  0  0  0  0  0  0
    6.1115    0.0854   19.7702 C   0  0  0  0  0  0  0  0  0  0  0  0
    6.4261   -0.2068   18.4659 C   0  0  0  0  0  0  0  0  0  0  0  0
    5.7576    0.2434   17.3717 N   0  0  0  0  0  0  0  0  0  0  0  0
    4.7326    1.0329   17.5769 C   0  0  0  0  0  0  0  0  0  0  0  0
    4.2844    1.4230   18.8699 C   0  0  0  0  0  0  0  0  0  0  0  0
    3.1640    2.2748   19.0472 C   0  0  0  0  0  0  0  0  0  0  0  0
    2.7620    2.6444   20.3023 C   0  0  0  0  0  0  0  0  0  0  0  0
    3.4629    2.1679   21.4318 C   0  0  0  0  0  0  0  0  0  0  0  0
    4.5481    1.3384   21.2871 C   0  0  0  0  0  0  0  0  0  0  0  0
    4.9917    0.9420   19.9972 C   0  0  0  0  0  0  0  0  0  0  0  0
    5.0720    0.9890   22.1709 H   0  0  0  0  0  0  0  0  0  0  0  0
    3.1373    2.4629   22.4235 H   0  0  0  0  0  0  0  0  0  0  0  0
    1.9102    3.3048   20.4363 H   0  0  0  0  0  0  0  0  0  0  0  0
    2.6405    2.6408   18.1674 H   0  0  0  0  0  0  0  0  0  0  0  0
    4.1991    1.4003   16.6985 H   0  0  0  0  0  0  0  0  0  0  0  0
    7.2725   -0.8561   18.2443 H   0  0  0  0  0  0  0  0  0  0  0  0
    7.5899   -1.2391   20.5269 H   0  0  0  0  0  0  0  0  0  0  0  0
    6.2858   -0.9120   21.6676 H   0  0  0  0  0  0  0  0  0  0  0  0
    9.0461    1.6757   23.3762 C   0  0  0  0  0  0  0  0  0  0  0  0
   10.4539    1.0768   23.4658 C   0  0  0  0  0  0  0  0  0  0  0  0
   10.4972   -0.1432   24.1767 O   0  0  0  0  0  0  0  0  0  0  0  0
   10.8637    0.9353   22.4556 H   0  0  0  0  0  0  0  0  0  0  0  0
   11.1268    1.7678   23.9975 H   0  0  0  0  0  0  0  0  0  0  0  0
    8.7535    1.9957   24.3797 H   0  0  0  0  0  0  0  0  0  0  0  0
    9.0627    2.5586   22.7333 H   0  0  0  0  0  0  0  0  0  0  0  0
    6.6078   -0.5749   23.7202 H   0  0  0  0  0  0  0  0  0  0  0  0
    7.7561    0.1115   24.8329 H   0  0  0  0  0  0  0  0  0  0  0  0
    8.4668   -2.1270   24.6970 H   0  0  0  0  0  0  0  0  0  0  0  0
    8.1657   -2.2441   22.9726 H   0  0  0  0  0  0  0  0  0  0  0  0
   10.1179   -1.0534   22.3870 H   0  0  0  0  0  0  0  0  0  0  0  0
   10.5946   -3.3353   23.2208 H   0  0  0  0  0  0  0  0  0  0  0  0
   11.9465   -2.2265   23.5150 H   0  0  0  0  0  0  0  0  0  0  0  0
   10.8695   -2.6768   24.8514 H   0  0  0  0  0  0  0  0  0  0  0  0
  1  2  1  0
  2  3  1  0
  3  4  1  0
  4  5  1  0
  5  6  1  0
  6  7  2  0
  6  8  1  0
  8  9  1  0
  9 10  2  0
 10 11  1  0
 11 12  2  0
 12 13  1  0
 13 14  2  0
 14 15  1  0
 15 16  2  0
 16 17  1  0
 17 18  2  0
 17 19  1  0
 16 20  1  0
 15 21  1  0
 14 22  1  0
 12 23  1  0
 10 24  1  0
  8 25  1  0
  8 26  1  0
  5 27  1  0
 27 28  1  0
 28 29  1  0
 28 30  1  0
 28 31  1  0
 27 32  1  0
 27 33  1  0
  4 34  1  0
  4 35  1  0
  3 36  1  0
  3 37  1  0
  2 38  1  6
  1 39  1  0
  1 40  1  0
  1 41  1  0
 29  2  1  0
 18  9  1  0
 18 13  1  0
M  END
>  <cnnaffinities>  (49) 
[5.53873, 5.02685, 5.27301]

>  <score>  (49) 
5.53873

>  <index>  (49) 
48

>  <Smiles>  (49) 
C([C@]1(C(C(N(C(=O)C(c2c(nc(c3c(c(c(c(c23)[H])[H])[H])[H])[H])[H])([H])[H])C(C(O1)([H])[H])([H])[H])([H])[H])([H])[H])[H])([H])([H])[H]

>  <h>  (49) 
<NA>

>  <Training>  (49) 
True

>  <Success>  (49) 
True

>  <enamine_searched>  (49) 
False

>  <enamine_id>  (49) 
nan

$$$$

     RDKit          3D

 42 45  0  0  0  0  0  0  0  0999 V2000
   10.4550   -3.4696   23.6290 C   0  0  0  0  0  0  0  0  0  0  0  0
    9.3633   -2.5430   23.4337 N   0  0  0  0  0  0  0  0  0  0  0  0
    8.9588   -2.0498   22.1421 C   0  0  0  0  0  0  0  0  0  0  0  0
    8.8436   -0.5307   22.2010 C   0  0  1  0  0  0  0  0  0  0  0  0
    8.1329    0.0243   20.9738 C   0  0  0  0  0  0  0  0  0  0  0  0
    8.5888    0.9239   20.2950 O   0  0  0  0  0  0  0  0  0  0  0  0
    6.8818   -0.5028   20.7221 N   0  0  0  0  0  0  0  0  0  0  0  0
    6.0810    0.0275   19.6853 C   0  0  0  0  0  0  0  0  0  0  0  0
    6.4123   -0.2147   18.3783 C   0  0  0  0  0  0  0  0  0  0  0  0
    5.7072    0.2603   17.3263 N   0  0  0  0  0  0  0  0  0  0  0  0
    4.6683    1.0149   17.5796 C   0  0  0  0  0  0  0  0  0  0  0  0
    4.2301    1.3642   18.8856 C   0  0  0  0  0  0  0  0  0  0  0  0
    3.1149    2.2128   19.0986 C   0  0  0  0  0  0  0  0  0  0  0  0
    2.7665    2.5933   20.3626 C   0  0  0  0  0  0  0  0  0  0  0  0
    3.5164    2.1318   21.4697 C   0  0  0  0  0  0  0  0  0  0  0  0
    4.5860    1.2870   21.2917 C   0  0  0  0  0  0  0  0  0  0  0  0
    4.9619    0.8719   19.9847 C   0  0  0  0  0  0  0  0  0  0  0  0
    5.1621    0.9521   22.1497 H   0  0  0  0  0  0  0  0  0  0  0  0
    3.2503    2.4587   22.4697 H   0  0  0  0  0  0  0  0  0  0  0  0
    1.9255    3.2632   20.5210 H   0  0  0  0  0  0  0  0  0  0  0  0
    2.5729    2.5656   18.2264 H   0  0  0  0  0  0  0  0  0  0  0  0
    4.1226    1.4118   16.7264 H   0  0  0  0  0  0  0  0  0  0  0  0
    7.2852   -0.8185   18.1330 H   0  0  0  0  0  0  0  0  0  0  0  0
    6.4319   -1.0930   21.4072 H   0  0  0  0  0  0  0  0  0  0  0  0
    8.1105   -0.0866   23.4493 C   0  0  0  0  0  0  0  0  0  0  0  0
    7.6142    1.2202   23.5229 C   0  0  0  0  0  0  0  0  0  0  0  0
    6.8445    1.5813   24.6149 C   0  0  0  0  0  0  0  0  0  0  0  0
    6.1160    3.1637   24.7258 Cl  0  0  0  0  0  0  0  0  0  0  0  0
    6.5689    0.6802   25.6399 C   0  0  0  0  0  0  0  0  0  0  0  0
    7.0635   -0.6095   25.5652 C   0  0  0  0  0  0  0  0  0  0  0  0
    7.8752   -0.9736   24.4960 C   0  0  0  0  0  0  0  0  0  0  0  0
    8.5396   -2.3144   24.5034 C   0  0  0  0  0  0  0  0  0  0  0  0
    8.4107   -3.1170   25.4128 O   0  0  0  0  0  0  0  0  0  0  0  0
    6.8303   -1.3586   26.3126 H   0  0  0  0  0  0  0  0  0  0  0  0
    6.0242    1.0303   26.5054 H   0  0  0  0  0  0  0  0  0  0  0  0
    7.8147    1.9385   22.7313 H   0  0  0  0  0  0  0  0  0  0  0  0
    9.8537   -0.1069   22.1964 H   0  0  0  0  0  0  0  0  0  0  0  0
    7.9860   -2.4707   21.8571 H   0  0  0  0  0  0  0  0  0  0  0  0
    9.6983   -2.3324   21.3881 H   0  0  0  0  0  0  0  0  0  0  0  0
   11.1622   -3.0444   24.3518 H   0  0  0  0  0  0  0  0  0  0  0  0
   10.0675   -4.4095   24.0332 H   0  0  0  0  0  0  0  0  0  0  0  0
   10.9646   -3.6341   22.6759 H   0  0  0  0  0  0  0  0  0  0  0  0
  1  2  1  0
  2  3  1  0
  3  4  1  0
  4  5  1  0
  5  6  2  0
  5  7  1  0
  7  8  1  0
  8  9  2  0
  9 10  1  0
 10 11  2  0
 11 12  1  0
 12 13  2  0
 13 14  1  0
 14 15  2  0
 15 16  1  0
 16 17  2  0
 16 18  1  0
 15 19  1  0
 14 20  1  0
 13 21  1  0
 11 22  1  0
  9 23  1  0
  7 24  1  0
  4 25  1  0
 25 26  2  0
 26 27  1  0
 27 28  1  0
 27 29  2  0
 29 30  1  0
 30 31  2  0
 31 32  1  0
 32 33  2  0
 30 34  1  0
 29 35  1  0
 26 36  1  0
  4 37  1  1
  3 38  1  0
  3 39  1  0
  1 40  1  0
  1 41  1  0
  1 42  1  0
 32  2  1  0
 17  8  1  0
 31 25  1  0
 17 12  1  0
M  END
>  <cnnaffinities>  (50) 
[5.57849, 6.13024, 5.65514]

>  <score>  (50) 
5.57849

>  <index>  (50) 
49

>  <Smiles>  (50) 
C(N1C([C@@](C(=O)N(c2c(nc(c3c(c(c(c(c23)[H])[H])[H])[H])[H])[H])[H])(c2c(c(Cl)c(c(c2C1=O)[H])[H])[H])[H])([H])[H])([H])([H])[H]

>  <h>  (50) 
<NA>

>  <Training>  (50) 
True

>  <Success>  (50) 
True

>  <enamine_searched>  (50) 
False

>  <enamine_id>  (50) 
nan

$$$$

     RDKit          3D

 38 41  0  0  0  0  0  0  0  0999 V2000
    5.0894   -2.0050   21.3280 O   0  0  0  0  0  0  0  0  0  0  0  0
    6.2720   -1.7751   21.5149 C   0  0  0  0  0  0  0  0  0  0  0  0
    6.9363   -0.5141   20.9020 C   0  0  0  0  0  0  0  0  0  0  0  0
    6.1188    0.0847   19.7773 C   0  0  0  0  0  0  0  0  0  0  0  0
    6.4225   -0.2113   18.4751 C   0  0  0  0  0  0  0  0  0  0  0  0
    5.7542    0.2379   17.3819 N   0  0  0  0  0  0  0  0  0  0  0  0
    4.7345    1.0326   17.5832 C   0  0  0  0  0  0  0  0  0  0  0  0
    4.2844    1.4176   18.8723 C   0  0  0  0  0  0  0  0  0  0  0  0
    3.1602    2.2633   19.0495 C   0  0  0  0  0  0  0  0  0  0  0  0
    2.7433    2.6206   20.3016 C   0  0  0  0  0  0  0  0  0  0  0  0
    3.4334    2.1318   21.4333 C   0  0  0  0  0  0  0  0  0  0  0  0
    4.5240    1.3080   21.2890 C   0  0  0  0  0  0  0  0  0  0  0  0
    4.9890    0.9298   20.0047 C   0  0  0  0  0  0  0  0  0  0  0  0
    5.0307    0.9216   22.1679 H   0  0  0  0  0  0  0  0  0  0  0  0
    3.0948    2.4118   22.4261 H   0  0  0  0  0  0  0  0  0  0  0  0
    1.8865    3.2789   20.4324 H   0  0  0  0  0  0  0  0  0  0  0  0
    2.6437    2.6325   18.1648 H   0  0  0  0  0  0  0  0  0  0  0  0
    4.2048    1.3982   16.6987 H   0  0  0  0  0  0  0  0  0  0  0  0
    7.2620   -0.8630   18.2393 H   0  0  0  0  0  0  0  0  0  0  0  0
    7.0922    0.2405   21.6862 H   0  0  0  0  0  0  0  0  0  0  0  0
    7.9376   -0.7635   20.5142 H   0  0  0  0  0  0  0  0  0  0  0  0
    7.0570   -2.6383   22.2561 N   0  0  0  0  0  0  0  0  0  0  0  0
    6.6218   -4.0272   22.4041 C   0  0  0  0  0  0  0  0  0  0  0  0
    6.7347   -4.4884   23.8459 C   0  0  0  0  0  0  0  0  0  0  0  0
    8.0718   -4.0850   24.3648 C   0  0  0  0  0  0  0  0  0  0  0  0
    8.7814   -4.7809   25.7423 S   0  0  0  0  0  0  0  0  0  0  0  0
   10.1914   -3.8174   25.5952 C   0  0  0  0  0  0  0  0  0  0  0  0
   10.0745   -2.9265   24.5716 C   0  0  0  0  0  0  0  0  0  0  0  0
    8.8503   -3.1021   23.8587 C   0  0  0  0  0  0  0  0  0  0  0  0
    8.4109   -2.3113   22.6708 C   0  0  0  0  0  0  0  0  0  0  0  0
    9.1483   -2.4536   21.8698 H   0  0  0  0  0  0  0  0  0  0  0  0
    8.4634   -1.2573   22.9417 H   0  0  0  0  0  0  0  0  0  0  0  0
   10.8207   -2.1639   24.3558 H   0  0  0  0  0  0  0  0  0  0  0  0
   10.9688   -3.9151   26.3441 H   0  0  0  0  0  0  0  0  0  0  0  0
    5.9612   -4.0204   24.4625 H   0  0  0  0  0  0  0  0  0  0  0  0
    6.5710   -5.5673   23.9315 H   0  0  0  0  0  0  0  0  0  0  0  0
    5.5936   -4.0963   22.0547 H   0  0  0  0  0  0  0  0  0  0  0  0
    7.2376   -4.6804   21.7706 H   0  0  0  0  0  0  0  0  0  0  0  0
  1  2  2  0
  2  3  1  0
  3  4  1  0
  4  5  2  0
  5  6  1  0
  6  7  2  0
  7  8  1  0
  8  9  2  0
  9 10  1  0
 10 11  2  0
 11 12  1  0
 12 13  2  0
 12 14  1  0
 11 15  1  0
 10 16  1  0
  9 17  1  0
  7 18  1  0
  5 19  1  0
  3 20  1  0
  3 21  1  0
  2 22  1  0
 22 23  1  0
 23 24  1  0
 24 25  1  0
 25 26  1  0
 26 27  1  0
 27 28  2  0
 28 29  1  0
 29 30  1  0
 30 31  1  0
 30 32  1  0
 28 33  1  0
 27 34  1  0
 24 35  1  0
 24 36  1  0
 23 37  1  0
 23 38  1  0
 13  4  1  0
 30 22  1  0
 13  8  1  0
 29 25  2  0
M  END
>  <cnnaffinities>  (51) 
[5.35758]

>  <score>  (51) 
5.35758

>  <index>  (51) 
50

>  <Smiles>  (51) 
O=C(C(c1c(nc(c2c(c(c(c(c12)[H])[H])[H])[H])[H])[H])([H])[H])N1C(C(c2sc(c(c2C1([H])[H])[H])[H])([H])[H])([H])[H]

>  <h>  (51) 
<NA>

>  <Training>  (51) 
True

>  <Success>  (51) 
True

>  <enamine_searched>  (51) 
False

>  <enamine_id>  (51) 
nan

$$$$

     RDKit          3D

 67 73  0  0  0  0  0  0  0  0999 V2000
    6.2170    1.5881   29.9844 C   0  0  0  0  0  0  0  0  0  0  0  0
    5.8583    1.2885   28.5753 C   0  0  0  0  0  0  0  0  0  0  0  0
    5.0324    0.4054   28.1266 N   0  0  0  0  0  0  0  0  0  0  0  0
    5.0907    0.4850   26.7384 N   0  0  0  0  0  0  0  0  0  0  0  0
    5.9481    1.4039   26.4596 C   0  0  0  0  0  0  0  0  0  0  0  0
    6.3987    1.8505   25.1011 C   0  0  0  0  0  0  0  0  0  0  0  0
    7.5569    1.1283   24.6023 N   0  0  0  0  0  0  0  0  0  0  0  0
    7.3825   -0.2288   24.1044 C   0  0  0  0  0  0  0  0  0  0  0  0
    8.1987   -0.4723   22.7976 C   0  0  2  0  0  0  0  0  0  0  0  0
    7.6328    0.3979   21.6597 C   0  0  0  0  0  0  0  0  0  0  0  0
    7.7826    1.5898   21.5085 O   0  0  0  0  0  0  0  0  0  0  0  0
    6.9098   -0.4157   20.8221 N   0  0  0  0  0  0  0  0  0  0  0  0
    6.1228    0.0959   19.7730 C   0  0  0  0  0  0  0  0  0  0  0  0
    6.4341   -0.2354   18.4793 C   0  0  0  0  0  0  0  0  0  0  0  0
    5.7729    0.2225   17.3919 N   0  0  0  0  0  0  0  0  0  0  0  0
    4.7523    1.0199   17.6013 C   0  0  0  0  0  0  0  0  0  0  0  0
    4.2988    1.4025   18.8961 C   0  0  0  0  0  0  0  0  0  0  0  0
    3.1664    2.2400   19.0641 C   0  0  0  0  0  0  0  0  0  0  0  0
    2.7401    2.5935   20.3136 C   0  0  0  0  0  0  0  0  0  0  0  0
    3.4116    2.1108   21.4594 C   0  0  0  0  0  0  0  0  0  0  0  0
    4.5049    1.2932   21.3254 C   0  0  0  0  0  0  0  0  0  0  0  0
    4.9905    0.9312   20.0313 C   0  0  0  0  0  0  0  0  0  0  0  0
    5.0025    0.9242   22.2190 H   0  0  0  0  0  0  0  0  0  0  0  0
    3.0519    2.3865   22.4467 H   0  0  0  0  0  0  0  0  0  0  0  0
    1.8820    3.2462   20.4327 H   0  0  0  0  0  0  0  0  0  0  0  0
    2.6535    2.5913   18.1735 H   0  0  0  0  0  0  0  0  0  0  0  0
    4.2117    1.3919   16.7302 H   0  0  0  0  0  0  0  0  0  0  0  0
    7.2903   -0.8848   18.2948 H   0  0  0  0  0  0  0  0  0  0  0  0
    6.8606   -1.7971   21.2387 C   0  0  0  0  0  0  0  0  0  0  0  0
    8.0271   -1.9047   22.2294 C   0  0  2  0  0  0  0  0  0  0  0  0
    7.8791   -3.0196   23.2731 C   0  0  0  0  0  0  0  0  0  0  0  0
    7.9570   -4.3584   22.7257 N   0  0  0  0  0  0  0  0  0  0  0  0
    6.9333   -4.9949   22.0955 C   0  0  0  0  0  0  0  0  0  0  0  0
    5.5741   -4.7514   22.3724 C   0  0  0  0  0  0  0  0  0  0  0  0
    4.6621   -5.5016   21.6665 C   0  0  0  0  0  0  0  0  0  0  0  0
    5.0036   -6.3843   20.7213 N   0  0  0  0  0  0  0  0  0  0  0  0
    6.3045   -6.5199   20.5398 C   0  0  0  0  0  0  0  0  0  0  0  0
    7.2897   -5.9218   21.1931 N   0  0  0  0  0  0  0  0  0  0  0  0
    6.6145   -7.2003   19.7531 H   0  0  0  0  0  0  0  0  0  0  0  0
    3.5947   -5.3824   21.8466 H   0  0  0  0  0  0  0  0  0  0  0  0
    5.2488   -3.9959   23.0790 H   0  0  0  0  0  0  0  0  0  0  0  0
    8.8675   -4.6460   22.3937 H   0  0  0  0  0  0  0  0  0  0  0  0
    8.6458   -2.9138   24.0509 H   0  0  0  0  0  0  0  0  0  0  0  0
    6.9201   -2.9149   23.7821 H   0  0  0  0  0  0  0  0  0  0  0  0
    8.9198   -2.1305   21.6394 H   0  0  0  0  0  0  0  0  0  0  0  0
    6.9618   -2.4424   20.3670 H   0  0  0  0  0  0  0  0  0  0  0  0
    5.8935   -2.0255   21.7091 H   0  0  0  0  0  0  0  0  0  0  0  0
    9.6269   -0.0491   23.0330 C   0  0  0  0  0  0  0  0  0  0  0  0
   10.6627   -0.4775   22.1934 C   0  0  0  0  0  0  0  0  0  0  0  0
   11.9553   -0.0398   22.4147 C   0  0  0  0  0  0  0  0  0  0  0  0
   13.2082   -0.4416   21.2794 Cl  0  0  0  0  0  0  0  0  0  0  0  0
   12.2644    0.8048   23.4780 C   0  0  0  0  0  0  0  0  0  0  0  0
   11.2222    1.3396   24.1993 C   0  0  0  0  0  0  0  0  0  0  0  0
    9.9047    0.9514   23.9672 C   0  0  0  0  0  0  0  0  0  0  0  0
    8.7880    1.7343   24.6041 C   0  0  0  0  0  0  0  0  0  0  0  0
    8.9589    2.8664   25.0379 O   0  0  0  0  0  0  0  0  0  0  0  0
   11.4444    2.1332   24.8863 H   0  0  0  0  0  0  0  0  0  0  0  0
   13.2913    1.0805   23.6943 H   0  0  0  0  0  0  0  0  0  0  0  0
   10.4618   -1.1278   21.3495 H   0  0  0  0  0  0  0  0  0  0  0  0
    6.3162   -0.4114   23.9168 H   0  0  0  0  0  0  0  0  0  0  0  0
    7.7067   -0.9504   24.8668 H   0  0  0  0  0  0  0  0  0  0  0  0
    5.5631    1.6877   24.4078 H   0  0  0  0  0  0  0  0  0  0  0  0
    6.6373    2.9167   25.1016 H   0  0  0  0  0  0  0  0  0  0  0  0
    6.4671    1.9786   27.5767 O   0  0  0  0  0  0  0  0  0  0  0  0
    7.0023    0.9016   30.3179 H   0  0  0  0  0  0  0  0  0  0  0  0
    5.3455    1.4349   30.6215 H   0  0  0  0  0  0  0  0  0  0  0  0
    6.5792    2.6105   30.1025 H   0  0  0  0  0  0  0  0  0  0  0  0
  1  2  1  0
  2  3  2  0
  3  4  1  0
  4  5  2  0
  5  6  1  0
  6  7  1  0
  7  8  1  0
  9  8  1  1
  9 10  1  0
 10 11  2  0
 10 12  1  0
 12 13  1  0
 13 14  2  0
 14 15  1  0
 15 16  2  0
 16 17  1  0
 17 18  2  0
 18 19  1  0
 19 20  2  0
 20 21  1  0
 21 22  2  0
 21 23  1  0
 20 24  1  0
 19 25  1  0
 18 26  1  0
 16 27  1  0
 14 28  1  0
 12 29  1  0
 29 30  1  0
 30 31  1  0
 31 32  1  0
 32 33  1  0
 33 34  2  0
 34 35  1  0
 35 36  2  0
 36 37  1  0
 37 38  2  0
 37 39  1  0
 35 40  1  0
 34 41  1  0
 32 42  1  0
 31 43  1  0
 31 44  1  0
 30 45  1  6
 29 46  1  0
 29 47  1  0
  9 48  1  0
 48 49  2  0
 49 50  1  0
 50 51  1  0
 50 52  2  0
 52 53  1  0
 53 54  2  0
 54 55  1  0
 55 56  2  0
 53 57  1  0
 52 58  1  0
 49 59  1  0
  8 60  1  0
  8 61  1  0
  6 62  1  0
  6 63  1  0
  5 64  1  0
  1 65  1  0
  1 66  1  0
  1 67  1  0
 64  2  1  0
 55  7  1  0
 30  9  1  0
 38 33  1  0
 54 48  1  0
 22 13  1  0
 22 17  1  0
M  END
>  <cnnaffinities>  (52) 
[6.23024, 6.21632, 6.27651]

>  <score>  (52) 
6.23024

>  <index>  (52) 
51

>  <Smiles>  (52) 
C(c1nnc(C(N2C([C@@]3(C(=O)N(c4c(nc(c5c(c(c(c(c45)[H])[H])[H])[H])[H])[H])C([C@@]3(C(N(c3c(c(nc(n3)[H])[H])[H])[H])([H])[H])[H])([H])[H])c3c(c(Cl)c(c(c3C2=O)[H])[H])[H])([H])[H])([H])[H])o1)([H])([H])[H]

>  <h>  (52) 
<NA>

>  <Training>  (52) 
True

>  <Success>  (52) 
True

>  <enamine_searched>  (52) 
False

>  <enamine_id>  (52) 
nan

$$$$

     RDKit          3D

 66 71  0  0  0  0  0  0  0  0999 V2000
    6.6075    4.3557   21.3600 C   0  0  0  0  0  0  0  0  0  0  0  0
    7.5965    3.9286   22.3364 N   0  0  0  0  0  0  0  0  0  0  0  0
    7.1424    3.2829   23.4539 C   0  0  0  0  0  0  0  0  0  0  0  0
    5.9467    3.1283   23.6630 O   0  0  0  0  0  0  0  0  0  0  0  0
    8.1824    2.7551   24.4460 C   0  0  0  0  0  0  0  0  0  0  0  0
    8.8522    1.5747   23.9298 N   0  0  0  0  0  0  0  0  0  0  0  0
    8.1169    0.3175   23.8207 C   0  0  0  0  0  0  0  0  0  0  0  0
    8.5287   -0.4843   22.5525 C   0  0  2  0  0  0  0  0  0  0  0  0
    8.0358    0.2450   21.2763 C   0  0  0  0  0  0  0  0  0  0  0  0
    8.5401    1.2153   20.7433 O   0  0  0  0  0  0  0  0  0  0  0  0
    6.9072   -0.3977   20.8287 N   0  0  0  0  0  0  0  0  0  0  0  0
    6.1337    0.1176   19.7650 C   0  0  0  0  0  0  0  0  0  0  0  0
    6.4692   -0.1870   18.4721 C   0  0  0  0  0  0  0  0  0  0  0  0
    5.7837    0.2450   17.3909 N   0  0  0  0  0  0  0  0  0  0  0  0
    4.7414    1.0113   17.6023 C   0  0  0  0  0  0  0  0  0  0  0  0
    4.2815    1.3970   18.8945 C   0  0  0  0  0  0  0  0  0  0  0  0
    3.1514    2.2352   19.0768 C   0  0  0  0  0  0  0  0  0  0  0  0
    2.7628    2.6170   20.3315 C   0  0  0  0  0  0  0  0  0  0  0  0
    3.4815    2.1742   21.4643 C   0  0  0  0  0  0  0  0  0  0  0  0
    4.5703    1.3490   21.3176 C   0  0  0  0  0  0  0  0  0  0  0  0
    4.9976    0.9402   20.0236 C   0  0  0  0  0  0  0  0  0  0  0  0
    5.1350    1.0425   22.1937 H   0  0  0  0  0  0  0  0  0  0  0  0
    3.1870    2.5014   22.4554 H   0  0  0  0  0  0  0  0  0  0  0  0
    1.9062    3.2715   20.4593 H   0  0  0  0  0  0  0  0  0  0  0  0
    2.6217    2.5761   18.1925 H   0  0  0  0  0  0  0  0  0  0  0  0
    4.2041    1.3700   16.7250 H   0  0  0  0  0  0  0  0  0  0  0  0
    7.3348   -0.8186   18.2819 H   0  0  0  0  0  0  0  0  0  0  0  0
    6.5074   -1.5430   21.6141 C   0  0  0  0  0  0  0  0  0  0  0  0
    7.7683   -1.8460   22.4395 C   0  0  2  0  0  0  0  0  0  0  0  0
    7.4712   -2.5783   23.7630 C   0  0  0  0  0  0  0  0  0  0  0  0
    6.9587   -3.9272   23.5911 N   0  0  0  0  0  0  0  0  0  0  0  0
    5.6645   -4.2708   23.3347 C   0  0  0  0  0  0  0  0  0  0  0  0
    4.5545   -3.4580   23.6720 C   0  0  0  0  0  0  0  0  0  0  0  0
    3.3114   -3.9502   23.3176 C   0  0  0  0  0  0  0  0  0  0  0  0
    3.1332   -5.1215   22.6945 N   0  0  0  0  0  0  0  0  0  0  0  0
    4.2460   -5.8035   22.4549 C   0  0  0  0  0  0  0  0  0  0  0  0
    5.4973   -5.4697   22.7448 N   0  0  0  0  0  0  0  0  0  0  0  0
    4.1105   -6.7595   21.9502 H   0  0  0  0  0  0  0  0  0  0  0  0
    2.4096   -3.3714   23.5442 H   0  0  0  0  0  0  0  0  0  0  0  0
    4.6492   -2.4972   24.1837 H   0  0  0  0  0  0  0  0  0  0  0  0
    7.6201   -4.6175   23.2626 H   0  0  0  0  0  0  0  0  0  0  0  0
    6.7465   -1.9969   24.3466 H   0  0  0  0  0  0  0  0  0  0  0  0
    8.4010   -2.6294   24.3482 H   0  0  0  0  0  0  0  0  0  0  0  0
    8.3822   -2.5079   21.8200 H   0  0  0  0  0  0  0  0  0  0  0  0
    6.2134   -2.3743   20.9650 H   0  0  0  0  0  0  0  0  0  0  0  0
    5.6413   -1.3104   22.2530 H   0  0  0  0  0  0  0  0  0  0  0  0
   10.0439   -0.5492   22.5001 C   0  0  0  0  0  0  0  0  0  0  0  0
   10.6873   -1.4889   21.6836 C   0  0  0  0  0  0  0  0  0  0  0  0
   12.0533   -1.4170   21.4852 C   0  0  0  0  0  0  0  0  0  0  0  0
   12.8059   -2.4985   20.3451 Cl  0  0  0  0  0  0  0  0  0  0  0  0
   12.8321   -0.4585   22.1339 C   0  0  0  0  0  0  0  0  0  0  0  0
   12.2157    0.4535   22.9604 C   0  0  0  0  0  0  0  0  0  0  0  0
   10.8281    0.4505   23.0936 C   0  0  0  0  0  0  0  0  0  0  0  0
   10.2112    1.6224   23.7860 C   0  0  0  0  0  0  0  0  0  0  0  0
   10.8871    2.5751   24.1578 O   0  0  0  0  0  0  0  0  0  0  0  0
   12.7923    1.2055   23.4878 H   0  0  0  0  0  0  0  0  0  0  0  0
   13.9009   -0.4150   21.9610 H   0  0  0  0  0  0  0  0  0  0  0  0
   10.1400   -2.2650   21.1608 H   0  0  0  0  0  0  0  0  0  0  0  0
    8.2965   -0.2953   24.7167 H   0  0  0  0  0  0  0  0  0  0  0  0
    7.0454    0.5436   23.7840 H   0  0  0  0  0  0  0  0  0  0  0  0
    8.9666    3.4934   24.6427 H   0  0  0  0  0  0  0  0  0  0  0  0
    7.6799    2.5390   25.3969 H   0  0  0  0  0  0  0  0  0  0  0  0
    8.5032    3.6700   21.9652 H   0  0  0  0  0  0  0  0  0  0  0  0
    5.7808    4.8244   21.9009 H   0  0  0  0  0  0  0  0  0  0  0  0
    7.0346    5.1018   20.6849 H   0  0  0  0  0  0  0  0  0  0  0  0
    6.2236    3.4964   20.7910 H   0  0  0  0  0  0  0  0  0  0  0  0
  1  2  1  0
  2  3  1  0
  3  4  2  0
  3  5  1  0
  5  6  1  0
  6  7  1  0
  8  7  1  1
  8  9  1  0
  9 10  2  0
  9 11  1  0
 11 12  1  0
 12 13  2  0
 13 14  1  0
 14 15  2  0
 15 16  1  0
 16 17  2  0
 17 18  1  0
 18 19  2  0
 19 20  1  0
 20 21  2  0
 20 22  1  0
 19 23  1  0
 18 24  1  0
 17 25  1  0
 15 26  1  0
 13 27  1  0
 11 28  1  0
 28 29  1  0
 29 30  1  0
 30 31  1  0
 31 32  1  0
 32 33  2  0
 33 34  1  0
 34 35  2  0
 35 36  1  0
 36 37  2  0
 36 38  1  0
 34 39  1  0
 33 40  1  0
 31 41  1  0
 30 42  1  0
 30 43  1  0
 29 44  1  6
 28 45  1  0
 28 46  1  0
  8 47  1  0
 47 48  2  0
 48 49  1  0
 49 50  1  0
 49 51  2  0
 51 52  1  0
 52 53  2  0
 53 54  1  0
 54 55  2  0
 52 56  1  0
 51 57  1  0
 48 58  1  0
  7 59  1  0
  7 60  1  0
  5 61  1  0
  5 62  1  0
  2 63  1  0
  1 64  1  0
  1 65  1  0
  1 66  1  0
 54  6  1  0
 29  8  1  0
 37 32  1  0
 53 47  1  0
 21 12  1  0
 21 16  1  0
M  END
>  <cnnaffinities>  (53) 
[6.81107]

>  <score>  (53) 
6.81107

>  <index>  (53) 
52

>  <Smiles>  (53) 
C(N(C(=O)C(N1C([C@@]2(C(=O)N(c3c(nc(c4c(c(c(c(c34)[H])[H])[H])[H])[H])[H])C([C@@]2(C(N(c2c(c(nc(n2)[H])[H])[H])[H])([H])[H])[H])([H])[H])c2c(c(Cl)c(c(c2C1=O)[H])[H])[H])([H])[H])([H])[H])[H])([H])([H])[H]

>  <h>  (53) 
<NA>

>  <Training>  (53) 
True

>  <Success>  (53) 
True

>  <enamine_searched>  (53) 
False

>  <enamine_id>  (53) 
nan

$$$$

     RDKit          3D

 77 84  0  0  0  0  0  0  0  0999 V2000
    4.7973   -3.2831   25.8391 O   0  0  0  0  0  0  0  0  0  0  0  0
    5.5754   -2.6905   25.0969 C   0  0  0  0  0  0  0  0  0  0  0  0
    5.8854   -1.2322   25.2367 C   0  0  0  0  0  0  0  0  0  0  0  0
    5.5030   -0.5785   26.4064 C   0  0  0  0  0  0  0  0  0  0  0  0
    5.7256    0.7758   26.5641 C   0  0  0  0  0  0  0  0  0  0  0  0
    6.2784    1.4829   25.4997 C   0  0  0  0  0  0  0  0  0  0  0  0
    6.5540    3.1961   25.6690 Cl  0  0  0  0  0  0  0  0  0  0  0  0
    6.6445    0.8495   24.3219 C   0  0  0  0  0  0  0  0  0  0  0  0
    6.5421   -0.5451   24.2083 C   0  0  0  0  0  0  0  0  0  0  0  0
    7.1743   -1.2897   23.0285 C   0  0  1  0  0  0  0  0  0  0  0  0
    7.4126   -2.7454   23.4825 C   0  0  0  0  0  0  0  0  0  0  0  0
    6.2148   -3.3061   24.0664 N   0  0  0  0  0  0  0  0  0  0  0  0
    5.8416   -4.6587   23.7384 C   0  0  0  0  0  0  0  0  0  0  0  0
    6.5360   -5.6725   24.6493 C   0  0  0  0  0  0  0  0  0  0  0  0
    5.8320   -6.9913   24.6566 N   0  0  0  0  0  4  0  0  0  0  0  0
    4.4411   -7.0756   25.2909 C   0  0  0  0  0  0  0  0  0  0  0  0
    3.8234   -7.5889   23.9726 C   0  0  0  0  0  0  0  0  0  0  0  0
    2.8951   -8.8014   23.9290 C   0  0  0  0  0  0  0  0  0  0  0  0
    1.8132   -8.0111   23.4262 O   0  0  0  0  0  0  0  0  0  0  0  0
    2.6458   -6.8517   23.3415 C   0  0  0  0  0  0  0  0  0  0  0  0
    2.2411   -6.0155   23.9291 H   0  0  0  0  0  0  0  0  0  0  0  0
    2.8077   -6.5324   22.3017 H   0  0  0  0  0  0  0  0  0  0  0  0
    2.6675   -9.2617   24.8986 H   0  0  0  0  0  0  0  0  0  0  0  0
    3.1806   -9.5787   23.2147 H   0  0  0  0  0  0  0  0  0  0  0  0
    5.2416   -7.5418   23.3589 C   0  0  0  0  0  0  0  0  0  0  0  0
    5.7370   -8.4799   23.1291 H   0  0  0  0  0  0  0  0  0  0  0  0
    5.3575   -6.8537   22.5295 H   0  0  0  0  0  0  0  0  0  0  0  0
    4.1303   -6.0936   25.6363 H   0  0  0  0  0  0  0  0  0  0  0  0
    4.4564   -7.7980   26.1019 H   0  0  0  0  0  0  0  0  0  0  0  0
    6.4731   -7.6608   25.1018 H   0  0  0  0  0  0  0  0  0  0  0  0
    6.5387   -5.3222   25.6799 H   0  0  0  0  0  0  0  0  0  0  0  0
    7.5666   -5.8462   24.3278 H   0  0  0  0  0  0  0  0  0  0  0  0
    6.1005   -4.8226   22.6863 H   0  0  0  0  0  0  0  0  0  0  0  0
    4.7527   -4.7321   23.8199 H   0  0  0  0  0  0  0  0  0  0  0  0
    7.7075   -3.3694   22.6347 H   0  0  0  0  0  0  0  0  0  0  0  0
    8.2253   -2.7594   24.2241 H   0  0  0  0  0  0  0  0  0  0  0  0
    6.2507   -1.2857   21.7903 C   0  0  0  0  0  0  0  0  0  0  0  0
    5.2429   -1.9371   21.6232 O   0  0  0  0  0  0  0  0  0  0  0  0
    6.7693   -0.4121   20.8626 N   0  0  0  0  0  0  0  0  0  0  0  0
    5.9967    0.0972   19.7905 C   0  0  0  0  0  0  0  0  0  0  0  0
    6.3645   -0.1559   18.4934 C   0  0  0  0  0  0  0  0  0  0  0  0
    5.6973    0.2994   17.4070 N   0  0  0  0  0  0  0  0  0  0  0  0
    4.6446    1.0515   17.6129 C   0  0  0  0  0  0  0  0  0  0  0  0
    4.1657    1.4082   18.9063 C   0  0  0  0  0  0  0  0  0  0  0  0
    3.0293    2.2418   19.0723 C   0  0  0  0  0  0  0  0  0  0  0  0
    2.6244    2.6198   20.3207 C   0  0  0  0  0  0  0  0  0  0  0  0
    3.3352    2.1801   21.4602 C   0  0  0  0  0  0  0  0  0  0  0  0
    4.4282    1.3605   21.3334 C   0  0  0  0  0  0  0  0  0  0  0  0
    4.8631    0.9380   20.0405 C   0  0  0  0  0  0  0  0  0  0  0  0
    4.9665    1.0445   22.2269 H   0  0  0  0  0  0  0  0  0  0  0  0
    3.0139    2.4991   22.4465 H   0  0  0  0  0  0  0  0  0  0  0  0
    1.7646    3.2714   20.4455 H   0  0  0  0  0  0  0  0  0  0  0  0
    2.5122    2.5878   18.1816 H   0  0  0  0  0  0  0  0  0  0  0  0
    4.1153    1.4215   16.7345 H   0  0  0  0  0  0  0  0  0  0  0  0
    7.2362   -0.7771   18.2909 H   0  0  0  0  0  0  0  0  0  0  0  0
    8.0755    0.1157   21.1874 C   0  0  0  0  0  0  0  0  0  0  0  0
    8.4555   -0.5548   22.5254 C   0  0  2  0  0  0  0  0  0  0  0  0
    9.7309   -1.3907   22.3902 C   0  0  0  0  0  0  0  0  0  0  0  0
   10.8546   -0.5212   22.1026 N   0  0  0  0  0  0  0  0  0  0  0  0
   11.9358   -1.0913   21.4889 C   0  0  0  0  0  0  0  0  0  0  0  0
   13.1065   -0.4183   21.2036 N   0  0  0  0  0  0  0  0  0  0  0  0
   13.7957   -1.2446   20.4397 C   0  0  0  0  0  0  0  0  0  0  0  0
   13.0338   -2.6438   20.2357 C   0  0  0  0  0  0  0  0  0  0  0  0
   13.0479   -2.3822   20.0730 C   0  0  0  0  0  0  0  0  0  0  0  0
   11.7884   -2.3420   21.0404 N   0  0  0  0  0  0  0  0  0  0  0  0
   13.2772   -3.5320   21.0546 H   0  0  0  0  0  0  0  0  0  0  0  0
   12.4036   -3.0202   19.2540 H   0  0  0  0  0  0  0  0  0  0  0  0
   14.7127   -0.8851   20.0172 H   0  0  0  0  0  0  0  0  0  0  0  0
   10.9977    0.2867   22.6867 H   0  0  0  0  0  0  0  0  0  0  0  0
    9.9275   -1.9928   23.2914 H   0  0  0  0  0  0  0  0  0  0  0  0
    9.6468   -2.0889   21.5512 H   0  0  0  0  0  0  0  0  0  0  0  0
    8.7322    0.2049   23.2632 H   0  0  0  0  0  0  0  0  0  0  0  0
    8.7773   -0.1178   20.3843 H   0  0  0  0  0  0  0  0  0  0  0  0
    8.0453    1.2104   21.2647 H   0  0  0  0  0  0  0  0  0  0  0  0
    7.0257    1.4621   23.5090 H   0  0  0  0  0  0  0  0  0  0  0  0
    5.4726    1.2899   27.4845 H   0  0  0  0  0  0  0  0  0  0  0  0
    5.0344   -1.1635   27.1891 H   0  0  0  0  0  0  0  0  0  0  0  0
  1  2  2  0
  2  3  1  0
  3  4  2  0
  4  5  1  0
  5  6  2  0
  6  7  1  0
  6  8  1  0
  8  9  2  0
  9 10  1  0
 10 11  1  1
 11 12  1  0
 12 13  1  0
 13 14  1  0
 14 15  1  0
 15 16  1  0
 16 17  1  0
 17 18  1  0
 18 19  1  0
 19 20  1  0
 20 21  1  0
 20 22  1  0
 18 23  1  0
 18 24  1  0
 17 25  1  0
 25 26  1  0
 25 27  1  0
 16 28  1  0
 16 29  1  0
 15 30  1  0
 14 31  1  0
 14 32  1  0
 13 33  1  0
 13 34  1  0
 11 35  1  0
 11 36  1  0
 10 37  1  0
 37 38  2  0
 37 39  1  0
 39 40  1  0
 40 41  2  0
 41 42  1  0
 42 43  2  0
 43 44  1  0
 44 45  2  0
 45 46  1  0
 46 47  2  0
 47 48  1  0
 48 49  2  0
 48 50  1  0
 47 51  1  0
 46 52  1  0
 45 53  1  0
 43 54  1  0
 41 55  1  0
 39 56  1  0
 56 57  1  0
 57 58  1  0
 58 59  1  0
 59 60  1  0
 60 61  2  0
 61 62  1  0
 62 63  2  0
 63 64  1  0
 64 65  2  0
 64 66  1  0
 63 67  1  0
 62 68  1  0
 59 69  1  0
 58 70  1  0
 58 71  1  0
 57 72  1  1
 56 73  1  0
 56 74  1  0
  8 75  1  0
  5 76  1  0
  4 77  1  0
 12  2  1  0
 25 15  1  0
 49 40  1  0
 65 60  1  0
  9  3  1  0
 57 10  1  0
 20 17  1  0
 49 44  1  0
M  CHG  1  15   1
M  END
>  <cnnaffinities>  (54) 
[7.09406]

>  <score>  (54) 
7.09406

>  <index>  (54) 
53

>  <Smiles>  (54) 
O=C1c2c(c(c(Cl)c(c2[C@@]2(C(N1C(C([N+]1(C(C3(C(OC3([H])[H])([H])[H])C1([H])[H])([H])[H])[H])([H])[H])([H])[H])([H])[H])C(=O)N(c1c(nc(c3c(c(c(c(c13)[H])[H])[H])[H])[H])[H])C([C@@]2(C(N(c1nc(c(c(n1)[H])[H])[H])[H])([H])[H])[H])([H])[H])[H])[H])[H]

>  <h>  (54) 
<NA>

>  <Training>  (54) 
True

>  <Success>  (54) 
True

>  <enamine_searched>  (54) 
False

>  <enamine_id>  (54) 
nan

$$$$

     RDKit          3D

 66 71  0  0  0  0  0  0  0  0999 V2000
    6.5872    4.3513   21.3658 C   0  0  0  0  0  0  0  0  0  0  0  0
    7.5718    3.9077   22.3394 N   0  0  0  0  0  0  0  0  0  0  0  0
    7.1167    3.2867   23.4700 C   0  0  0  0  0  0  0  0  0  0  0  0
    5.9210    3.1580   23.6855 O   0  0  0  0  0  0  0  0  0  0  0  0
    8.1615    2.7517   24.4549 C   0  0  0  0  0  0  0  0  0  0  0  0
    8.8442    1.5889   23.9184 N   0  0  0  0  0  0  0  0  0  0  0  0
    8.1156    0.3292   23.8221 C   0  0  0  0  0  0  0  0  0  0  0  0
    8.5188   -0.4793   22.5606 C   0  0  2  0  0  0  0  0  0  0  0  0
    8.0391    0.2407   21.2704 C   0  0  0  0  0  0  0  0  0  0  0  0
    8.5458    1.2038   20.7298 O   0  0  0  0  0  0  0  0  0  0  0  0
    6.9240   -0.4194   20.8037 N   0  0  0  0  0  0  0  0  0  0  0  0
    6.1420    0.1092   19.7500 C   0  0  0  0  0  0  0  0  0  0  0  0
    6.4722   -0.1856   18.4528 C   0  0  0  0  0  0  0  0  0  0  0  0
    5.7819    0.2530   17.3757 N   0  0  0  0  0  0  0  0  0  0  0  0
    4.7405    1.0153   17.5963 C   0  0  0  0  0  0  0  0  0  0  0  0
    4.2846    1.3929   18.8914 C   0  0  0  0  0  0  0  0  0  0  0  0
    3.1550    2.2305   19.0782 C   0  0  0  0  0  0  0  0  0  0  0  0
    2.7681    2.6100   20.3328 C   0  0  0  0  0  0  0  0  0  0  0  0
    3.4894    2.1638   21.4637 C   0  0  0  0  0  0  0  0  0  0  0  0
    4.5776    1.3380   21.3124 C   0  0  0  0  0  0  0  0  0  0  0  0
    5.0049    0.9306   20.0174 C   0  0  0  0  0  0  0  0  0  0  0  0
    5.1385    1.0248   22.1899 H   0  0  0  0  0  0  0  0  0  0  0  0
    3.1985    2.4901   22.4559 H   0  0  0  0  0  0  0  0  0  0  0  0
    1.9134    3.2667   20.4640 H   0  0  0  0  0  0  0  0  0  0  0  0
    2.6260    2.5736   18.1937 H   0  0  0  0  0  0  0  0  0  0  0  0
    4.1976    1.3787   16.7239 H   0  0  0  0  0  0  0  0  0  0  0  0
    7.3371   -0.8152   18.2564 H   0  0  0  0  0  0  0  0  0  0  0  0
    6.4802   -1.5106   21.6449 C   0  0  0  0  0  0  0  0  0  0  0  0
    7.7445   -1.8303   22.4512 C   0  0  2  0  0  0  0  0  0  0  0  0
    7.5133   -2.6603   23.7243 C   0  0  0  0  0  0  0  0  0  0  0  0
    6.3915   -2.2550   24.5473 N   0  0  0  0  0  0  0  0  0  0  0  0
    5.1249   -2.7499   24.4042 C   0  0  0  0  0  0  0  0  0  0  0  0
    4.0774   -2.2509   25.2108 C   0  0  0  0  0  0  0  0  0  0  0  0
    2.8304   -2.6659   25.0882 N   0  0  0  0  0  0  0  0  0  0  0  0
    2.5914   -3.5987   24.1552 C   0  0  0  0  0  0  0  0  0  0  0  0
    3.6156   -4.0973   23.3737 C   0  0  0  0  0  0  0  0  0  0  0  0
    4.8837   -3.6818   23.4805 N   0  0  0  0  0  0  0  0  0  0  0  0
    3.4076   -4.8605   22.6285 H   0  0  0  0  0  0  0  0  0  0  0  0
    1.5645   -3.9427   24.0356 H   0  0  0  0  0  0  0  0  0  0  0  0
    4.2800   -1.4869   25.9602 H   0  0  0  0  0  0  0  0  0  0  0  0
    6.5232   -1.5402   25.2467 H   0  0  0  0  0  0  0  0  0  0  0  0
    7.3174   -3.6963   23.4349 H   0  0  0  0  0  0  0  0  0  0  0  0
    8.4269   -2.6328   24.3319 H   0  0  0  0  0  0  0  0  0  0  0  0
    8.3512   -2.4612   21.7961 H   0  0  0  0  0  0  0  0  0  0  0  0
    5.6271   -1.2052   22.2653 H   0  0  0  0  0  0  0  0  0  0  0  0
    6.1490   -2.3700   21.0529 H   0  0  0  0  0  0  0  0  0  0  0  0
   10.0348   -0.5567   22.5152 C   0  0  0  0  0  0  0  0  0  0  0  0
   10.6848   -1.5231   21.7339 C   0  0  0  0  0  0  0  0  0  0  0  0
   12.0468   -1.4352   21.5079 C   0  0  0  0  0  0  0  0  0  0  0  0
   12.8028   -2.5230   20.3723 Cl  0  0  0  0  0  0  0  0  0  0  0  0
   12.8206   -0.4472   22.1182 C   0  0  0  0  0  0  0  0  0  0  0  0
   12.2028    0.4783   22.9286 C   0  0  0  0  0  0  0  0  0  0  0  0
   10.8172    0.4654   23.0787 C   0  0  0  0  0  0  0  0  0  0  0  0
   10.2019    1.6415   23.7699 C   0  0  0  0  0  0  0  0  0  0  0  0
   10.8757    2.5980   24.1391 O   0  0  0  0  0  0  0  0  0  0  0  0
   12.7816    1.2478   23.4285 H   0  0  0  0  0  0  0  0  0  0  0  0
   13.8865   -0.3993   21.9340 H   0  0  0  0  0  0  0  0  0  0  0  0
   10.1466   -2.3410   21.2668 H   0  0  0  0  0  0  0  0  0  0  0  0
    7.0466    0.5566   23.7826 H   0  0  0  0  0  0  0  0  0  0  0  0
    8.3090   -0.2803   24.7171 H   0  0  0  0  0  0  0  0  0  0  0  0
    8.9365    3.4937   24.6717 H   0  0  0  0  0  0  0  0  0  0  0  0
    7.6532    2.5128   25.3989 H   0  0  0  0  0  0  0  0  0  0  0  0
    8.4673    3.6311   21.9675 H   0  0  0  0  0  0  0  0  0  0  0  0
    5.7629    4.8209   21.9066 H   0  0  0  0  0  0  0  0  0  0  0  0
    6.2009    3.5044   20.7783 H   0  0  0  0  0  0  0  0  0  0  0  0
    7.0194    5.1004   20.6972 H   0  0  0  0  0  0  0  0  0  0  0  0
  1  2  1  0
  2  3  1  0
  3  4  2  0
  3  5  1  0
  5  6  1  0
  6  7  1  0
  8  7  1  1
  8  9  1  0
  9 10  2  0
  9 11  1  0
 11 12  1  0
 12 13  2  0
 13 14  1  0
 14 15  2  0
 15 16  1  0
 16 17  2  0
 17 18  1  0
 18 19  2  0
 19 20  1  0
 20 21  2  0
 20 22  1  0
 19 23  1  0
 18 24  1  0
 17 25  1  0
 15 26  1  0
 13 27  1  0
 11 28  1  0
 28 29  1  0
 29 30  1  0
 30 31  1  0
 31 32  1  0
 32 33  2  0
 33 34  1  0
 34 35  2  0
 35 36  1  0
 36 37  2  0
 36 38  1  0
 35 39  1  0
 33 40  1  0
 31 41  1  0
 30 42  1  0
 30 43  1  0
 29 44  1  6
 28 45  1  0
 28 46  1  0
  8 47  1  0
 47 48  2  0
 48 49  1  0
 49 50  1  0
 49 51  2  0
 51 52  1  0
 52 53  2  0
 53 54  1  0
 54 55  2  0
 52 56  1  0
 51 57  1  0
 48 58  1  0
  7 59  1  0
  7 60  1  0
  5 61  1  0
  5 62  1  0
  2 63  1  0
  1 64  1  0
  1 65  1  0
  1 66  1  0
 54  6  1  0
 29  8  1  0
 37 32  1  0
 53 47  1  0
 21 12  1  0
 21 16  1  0
M  END
>  <cnnaffinities>  (55) 
[6.42184]

>  <score>  (55) 
6.42184

>  <index>  (55) 
54

>  <Smiles>  (55) 
C(N(C(=O)C(N1C([C@@]2(C(=O)N(c3c(nc(c4c(c(c(c(c34)[H])[H])[H])[H])[H])[H])C([C@@]2(C(N(c2c(nc(c(n2)[H])[H])[H])[H])([H])[H])[H])([H])[H])c2c(c(Cl)c(c(c2C1=O)[H])[H])[H])([H])[H])([H])[H])[H])([H])([H])[H]

>  <h>  (55) 
<NA>

>  <Training>  (55) 
True

>  <Success>  (55) 
True

>  <enamine_searched>  (55) 
False

>  <enamine_id>  (55) 
nan

$$$$

     RDKit          3D

 56 61  0  0  0  0  0  0  0  0999 V2000
   12.6805    2.0538   22.2653 C   0  0  0  0  0  0  0  0  0  0  0  0
   12.7153    0.6900   22.7177 N   0  0  0  0  0  0  0  0  0  0  0  0
   13.0112    0.1958   23.9371 C   0  0  0  0  0  0  0  0  0  0  0  0
   12.7898   -1.1560   23.8802 C   0  0  0  0  0  0  0  0  0  0  0  0
   12.3426   -1.3804   22.5593 C   0  0  0  0  0  0  0  0  0  0  0  0
   11.8987   -2.6434   21.9062 C   0  0  0  0  0  0  0  0  0  0  0  0
   10.5162   -2.9220   22.2628 N   0  0  0  0  0  0  0  0  0  0  0  0
    9.4316   -2.6046   21.3522 C   0  0  0  0  0  0  0  0  0  0  0  0
    8.2331   -1.9498   22.0771 C   0  0  1  0  0  0  0  0  0  0  0  0
    8.5501   -0.5013   22.5250 C   0  0  0  0  0  0  0  0  0  0  0  0
    7.8960    0.4253   21.4960 C   0  0  0  0  0  0  0  0  0  0  0  0
    6.8974   -0.4194   20.8602 N   0  0  0  0  0  0  0  0  0  0  0  0
    6.1077    0.0483   19.7812 C   0  0  0  0  0  0  0  0  0  0  0  0
    6.4365   -0.2615   18.4854 C   0  0  0  0  0  0  0  0  0  0  0  0
    5.7812    0.2170   17.3992 N   0  0  0  0  0  0  0  0  0  0  0  0
    4.7623    1.0141   17.6064 C   0  0  0  0  0  0  0  0  0  0  0  0
    4.2989    1.3896   18.9002 C   0  0  0  0  0  0  0  0  0  0  0  0
    3.1726    2.2313   19.0771 C   0  0  0  0  0  0  0  0  0  0  0  0
    2.7647    2.5851   20.3329 C   0  0  0  0  0  0  0  0  0  0  0  0
    3.4519    2.1052   21.4701 C   0  0  0  0  0  0  0  0  0  0  0  0
    4.5417    1.2805   21.3277 C   0  0  0  0  0  0  0  0  0  0  0  0
    4.9932    0.9078   20.0316 C   0  0  0  0  0  0  0  0  0  0  0  0
    5.0609    0.9054   22.2051 H   0  0  0  0  0  0  0  0  0  0  0  0
    3.1162    2.3952   22.4614 H   0  0  0  0  0  0  0  0  0  0  0  0
    1.9115    3.2436   20.4618 H   0  0  0  0  0  0  0  0  0  0  0  0
    2.6560    2.5896   18.1910 H   0  0  0  0  0  0  0  0  0  0  0  0
    4.2423    1.4076   16.7313 H   0  0  0  0  0  0  0  0  0  0  0  0
    7.2747   -0.9249   18.2806 H   0  0  0  0  0  0  0  0  0  0  0  0
    7.0740   -1.7659   21.0902 C   0  0  0  0  0  0  0  0  0  0  0  0
    6.3866   -2.6401   20.5980 O   0  0  0  0  0  0  0  0  0  0  0  0
    8.6234    0.7808   20.7536 H   0  0  0  0  0  0  0  0  0  0  0  0
    7.4242    1.3032   21.9519 H   0  0  0  0  0  0  0  0  0  0  0  0
    9.6289   -0.3498   22.5745 H   0  0  0  0  0  0  0  0  0  0  0  0
    8.1325   -0.3380   23.5214 H   0  0  0  0  0  0  0  0  0  0  0  0
    7.8815   -2.8556   23.2351 C   0  0  0  0  0  0  0  0  0  0  0  0
    6.5855   -2.9176   23.7349 C   0  0  0  0  0  0  0  0  0  0  0  0
    6.3211   -3.7116   24.8389 C   0  0  0  0  0  0  0  0  0  0  0  0
    4.7171   -3.7054   25.5054 Cl  0  0  0  0  0  0  0  0  0  0  0  0
    7.3113   -4.4828   25.4526 C   0  0  0  0  0  0  0  0  0  0  0  0
    8.6019   -4.4057   24.9688 C   0  0  0  0  0  0  0  0  0  0  0  0
    8.8842   -3.5640   23.9002 C   0  0  0  0  0  0  0  0  0  0  0  0
   10.3069   -3.3927   23.5266 C   0  0  0  0  0  0  0  0  0  0  0  0
   11.2201   -3.6466   24.3038 O   0  0  0  0  0  0  0  0  0  0  0  0
    9.4261   -4.9791   25.3852 H   0  0  0  0  0  0  0  0  0  0  0  0
    7.0781   -5.0991   26.3134 H   0  0  0  0  0  0  0  0  0  0  0  0
    5.7977   -2.3431   23.2607 H   0  0  0  0  0  0  0  0  0  0  0  0
    9.8061   -1.9272   20.5825 H   0  0  0  0  0  0  0  0  0  0  0  0
    9.0892   -3.5321   20.8999 H   0  0  0  0  0  0  0  0  0  0  0  0
   11.9632   -2.5289   20.8188 H   0  0  0  0  0  0  0  0  0  0  0  0
   12.5205   -3.4812   22.2341 H   0  0  0  0  0  0  0  0  0  0  0  0
   12.2824   -0.2549   21.8716 N   0  0  0  0  0  0  0  0  0  0  0  0
   12.8914   -1.9080   24.6482 H   0  0  0  0  0  0  0  0  0  0  0  0
   13.3075    0.8353   24.7531 H   0  0  0  0  0  0  0  0  0  0  0  0
   13.6771    2.5161   22.2811 H   0  0  0  0  0  0  0  0  0  0  0  0
   12.2891    1.9311   21.2536 H   0  0  0  0  0  0  0  0  0  0  0  0
   12.0010    2.6491   22.8863 H   0  0  0  0  0  0  0  0  0  0  0  0
  1  2  1  0
  2  3  1  0
  3  4  2  0
  4  5  1  0
  5  6  1  0
  6  7  1  0
  7  8  1  0
  9  8  1  6
  9 10  1  0
 10 11  1  0
 11 12  1  0
 12 13  1  0
 13 14  2  0
 14 15  1  0
 15 16  2  0
 16 17  1  0
 17 18  2  0
 18 19  1  0
 19 20  2  0
 20 21  1  0
 21 22  2  0
 21 23  1  0
 20 24  1  0
 19 25  1  0
 18 26  1  0
 16 27  1  0
 14 28  1  0
 12 29  1  0
 29 30  2  0
 11 31  1  0
 11 32  1  0
 10 33  1  0
 10 34  1  0
  9 35  1  0
 35 36  2  0
 36 37  1  0
 37 38  1  0
 37 39  2  0
 39 40  1  0
 40 41  2  0
 41 42  1  0
 42 43  2  0
 40 44  1  0
 39 45  1  0
 36 46  1  0
  8 47  1  0
  8 48  1  0
  6 49  1  0
  6 50  1  0
  5 51  2  0
  4 52  1  0
  3 53  1  0
  1 54  1  0
  1 55  1  0
  1 56  1  0
 51  2  1  0
 42  7  1  0
 29  9  1  0
 41 35  1  0
 22 13  1  0
 22 17  1  0
M  END
>  <cnnaffinities>  (56) 
[6.94053]

>  <score>  (56) 
6.94053

>  <index>  (56) 
55

>  <Smiles>  (56) 
C(n1c(c(c(C(N2C([C@]3(C(C(N(c4c(nc(c5c(c(c(c(c45)[H])[H])[H])[H])[H])[H])C3=O)([H])[H])([H])[H])c3c(c(Cl)c(c(c3C2=O)[H])[H])[H])([H])[H])([H])[H])n1)[H])[H])([H])([H])[H]

>  <h>  (56) 
<NA>

>  <Training>  (56) 
True

>  <Success>  (56) 
True

>  <enamine_searched>  (56) 
False

>  <enamine_id>  (56) 
nan

$$$$

     RDKit          3D

 41 43  0  0  0  0  0  0  0  0999 V2000
    8.3914    1.4754   20.6704 O   0  0  0  0  0  0  0  0  0  0  0  0
    7.9659    0.6266   21.4265 C   0  0  0  0  0  0  0  0  0  0  0  0
    6.9668   -0.4303   20.9093 C   0  0  0  0  0  0  0  0  0  0  0  0
    6.1115    0.0849   19.7718 C   0  0  0  0  0  0  0  0  0  0  0  0
    6.4254   -0.2076   18.4667 C   0  0  0  0  0  0  0  0  0  0  0  0
    5.7576    0.2419   17.3730 N   0  0  0  0  0  0  0  0  0  0  0  0
    4.7323    1.0328   17.5768 C   0  0  0  0  0  0  0  0  0  0  0  0
    4.2850    1.4234   18.8693 C   0  0  0  0  0  0  0  0  0  0  0  0
    3.1665    2.2772   19.0456 C   0  0  0  0  0  0  0  0  0  0  0  0
    2.7651    2.6483   20.3015 C   0  0  0  0  0  0  0  0  0  0  0  0
    3.4643    2.1696   21.4313 C   0  0  0  0  0  0  0  0  0  0  0  0
    4.5511    1.3369   21.2890 C   0  0  0  0  0  0  0  0  0  0  0  0
    4.9915    0.9399   19.9985 C   0  0  0  0  0  0  0  0  0  0  0  0
    5.0759    0.9842   22.1727 H   0  0  0  0  0  0  0  0  0  0  0  0
    3.1358    2.4663   22.4219 H   0  0  0  0  0  0  0  0  0  0  0  0
    1.9151    3.3115   20.4346 H   0  0  0  0  0  0  0  0  0  0  0  0
    2.6432    2.6438   18.1659 H   0  0  0  0  0  0  0  0  0  0  0  0
    4.1996    1.4002   16.6979 H   0  0  0  0  0  0  0  0  0  0  0  0
    7.2732   -0.8528   18.2427 H   0  0  0  0  0  0  0  0  0  0  0  0
    6.3335   -0.8096   21.7228 H   0  0  0  0  0  0  0  0  0  0  0  0
    7.5525   -1.2857   20.5416 H   0  0  0  0  0  0  0  0  0  0  0  0
    8.3510    0.5368   22.7717 N   0  0  0  0  0  0  0  0  0  0  0  0
    8.7800   -0.7585   23.3047 C   0  0  0  0  0  0  0  0  0  0  0  0
   10.0256   -1.3680   22.6284 C   0  0  0  0  0  0  0  0  0  0  0  0
   11.0875   -0.3452   22.2286 C   0  0  0  0  0  0  0  0  0  0  0  0
   11.5110    0.8841   23.4942 S   0  0  0  0  0  0  0  0  0  0  0  0
   10.2796    2.1493   23.0883 C   0  0  0  0  0  0  0  0  0  0  0  0
    8.8599    1.7238   23.4607 C   0  0  1  0  0  0  0  0  0  0  0  0
    7.8729    2.8889   23.3752 C   0  0  0  0  0  0  0  0  0  0  0  0
    8.1702    3.8179   24.3131 F   0  0  0  0  0  0  0  0  0  0  0  0
    6.6198    2.4733   23.6208 F   0  0  0  0  0  0  0  0  0  0  0  0
    7.8749    3.5127   22.1970 F   0  0  0  0  0  0  0  0  0  0  0  0
    8.8733    1.4760   24.5254 H   0  0  0  0  0  0  0  0  0  0  0  0
   10.5730    3.0519   23.6399 H   0  0  0  0  0  0  0  0  0  0  0  0
   10.3416    2.3612   22.0215 H   0  0  0  0  0  0  0  0  0  0  0  0
   10.7461    0.2216   21.3626 H   0  0  0  0  0  0  0  0  0  0  0  0
   12.0179   -0.8540   21.9516 H   0  0  0  0  0  0  0  0  0  0  0  0
   10.4778   -2.1032   23.3046 H   0  0  0  0  0  0  0  0  0  0  0  0
    9.7283   -1.9221   21.7257 H   0  0  0  0  0  0  0  0  0  0  0  0
    7.9455   -1.4601   23.2326 H   0  0  0  0  0  0  0  0  0  0  0  0
    8.9811   -0.6294   24.3716 H   0  0  0  0  0  0  0  0  0  0  0  0
  1  2  2  0
  2  3  1  0
  3  4  1  0
  4  5  2  0
  5  6  1  0
  6  7  2  0
  7  8  1  0
  8  9  2  0
  9 10  1  0
 10 11  2  0
 11 12  1  0
 12 13  2  0
 12 14  1  0
 11 15  1  0
 10 16  1  0
  9 17  1  0
  7 18  1  0
  5 19  1  0
  3 20  1  0
  3 21  1  0
  2 22  1  0
 22 23  1  0
 23 24  1  0
 24 25  1  0
 25 26  1  0
 26 27  1  0
 27 28  1  0
 28 29  1  0
 29 30  1  0
 29 31  1  0
 29 32  1  0
 28 33  1  1
 27 34  1  0
 27 35  1  0
 25 36  1  0
 25 37  1  0
 24 38  1  0
 24 39  1  0
 23 40  1  0
 23 41  1  0
 13  4  1  0
 28 22  1  0
 13  8  1  0
M  END
>  <cnnaffinities>  (57) 
[5.8585, 5.85587, 5.93336, 5.9331, 5.93315, 5.84535, 5.84496]

>  <score>  (57) 
5.8585

>  <index>  (57) 
56

>  <Smiles>  (57) 
O=C(C(c1c(nc(c2c(c(c(c(c12)[H])[H])[H])[H])[H])[H])([H])[H])N1C(C(C(SC([C@]1(C(F)(F)F)[H])([H])[H])([H])[H])([H])[H])([H])[H]

>  <h>  (57) 
<NA>

>  <Training>  (57) 
True

>  <Success>  (57) 
True

>  <enamine_searched>  (57) 
False

>  <enamine_id>  (57) 
nan

$$$$

     RDKit          3D

 67 72  0  0  0  0  0  0  0  0999 V2000
    6.6069    4.3824   21.3457 C   0  0  0  0  0  0  0  0  0  0  0  0
    7.5732    3.9839   22.3548 N   0  0  0  0  0  0  0  0  0  0  0  0
    7.0813    3.3316   23.4549 C   0  0  0  0  0  0  0  0  0  0  0  0
    5.8834    3.1714   23.6262 O   0  0  0  0  0  0  0  0  0  0  0  0
    8.0916    2.8039   24.4680 C   0  0  0  0  0  0  0  0  0  0  0  0
    8.7776    1.6391   23.9474 N   0  0  0  0  0  0  0  0  0  0  0  0
    8.0621    0.3717   23.8493 C   0  0  0  0  0  0  0  0  0  0  0  0
    8.4864   -0.4344   22.5894 C   0  0  2  0  0  0  0  0  0  0  0  0
    7.9830    0.2666   21.3068 C   0  0  0  0  0  0  0  0  0  0  0  0
    8.4412    1.2664   20.7834 O   0  0  0  0  0  0  0  0  0  0  0  0
    6.8924   -0.4277   20.8368 N   0  0  0  0  0  0  0  0  0  0  0  0
    6.1153    0.0896   19.7767 C   0  0  0  0  0  0  0  0  0  0  0  0
    6.4628   -0.2008   18.4841 C   0  0  0  0  0  0  0  0  0  0  0  0
    5.7881    0.2411   17.3988 N   0  0  0  0  0  0  0  0  0  0  0  0
    4.7482    1.0105   17.6063 C   0  0  0  0  0  0  0  0  0  0  0  0
    4.2843    1.3941   18.8975 C   0  0  0  0  0  0  0  0  0  0  0  0
    3.1560    2.2365   19.0768 C   0  0  0  0  0  0  0  0  0  0  0  0
    2.7656    2.6172   20.3303 C   0  0  0  0  0  0  0  0  0  0  0  0
    3.4756    2.1721   21.4658 C   0  0  0  0  0  0  0  0  0  0  0  0
    4.5614    1.3410   21.3229 C   0  0  0  0  0  0  0  0  0  0  0  0
    4.9908    0.9280   20.0300 C   0  0  0  0  0  0  0  0  0  0  0  0
    5.1189    1.0309   22.2015 H   0  0  0  0  0  0  0  0  0  0  0  0
    3.1742    2.4981   22.4561 H   0  0  0  0  0  0  0  0  0  0  0  0
    1.9060    3.2696   20.4550 H   0  0  0  0  0  0  0  0  0  0  0  0
    2.6298    2.5795   18.1907 H   0  0  0  0  0  0  0  0  0  0  0  0
    4.2152    1.3728   16.7268 H   0  0  0  0  0  0  0  0  0  0  0  0
    7.3301   -0.8293   18.3010 H   0  0  0  0  0  0  0  0  0  0  0  0
    6.5187   -1.5757   21.6296 C   0  0  0  0  0  0  0  0  0  0  0  0
    7.7643   -1.8128   22.4920 C   0  0  2  0  0  0  0  0  0  0  0  0
    7.4148   -2.5235   23.8045 C   0  0  0  0  0  0  0  0  0  0  0  0
    6.9159   -3.8556   23.5631 N   0  0  0  0  0  0  0  0  0  0  0  0
    5.5883   -4.1566   23.4400 C   0  0  0  0  0  0  0  0  0  0  0  0
    4.4845   -3.4142   23.7540 C   0  0  0  0  0  0  0  0  0  0  0  0
    3.2646   -4.0217   23.5561 N   0  0  0  0  0  0  0  0  0  0  0  0
    3.4079   -5.2271   23.1050 C   0  0  0  0  0  0  0  0  0  0  0  0
    2.2655   -6.1410   22.7931 C   0  0  0  0  0  0  0  0  0  0  0  0
    2.0104   -6.0857   21.7293 H   0  0  0  0  0  0  0  0  0  0  0  0
    2.5189   -7.1791   23.0197 H   0  0  0  0  0  0  0  0  0  0  0  0
    1.3880   -5.8344   23.3696 H   0  0  0  0  0  0  0  0  0  0  0  0
    5.0719   -5.7240   22.8620 S   0  0  0  0  0  0  0  0  0  0  0  0
    4.5016   -2.4059   24.1540 H   0  0  0  0  0  0  0  0  0  0  0  0
    7.5805   -4.6016   23.4213 H   0  0  0  0  0  0  0  0  0  0  0  0
    8.3049   -2.5916   24.4399 H   0  0  0  0  0  0  0  0  0  0  0  0
    6.6441   -1.9579   24.3475 H   0  0  0  0  0  0  0  0  0  0  0  0
    8.4205   -2.4826   21.9254 H   0  0  0  0  0  0  0  0  0  0  0  0
    5.6194   -1.3897   22.2413 H   0  0  0  0  0  0  0  0  0  0  0  0
    6.2858   -2.4411   21.0017 H   0  0  0  0  0  0  0  0  0  0  0  0
    9.9985   -0.4775   22.5427 C   0  0  0  0  0  0  0  0  0  0  0  0
   10.6499   -1.4046   21.7226 C   0  0  0  0  0  0  0  0  0  0  0  0
   12.0232   -1.3618   21.5918 C   0  0  0  0  0  0  0  0  0  0  0  0
   12.7902   -2.4443   20.4726 Cl  0  0  0  0  0  0  0  0  0  0  0  0
   12.8007   -0.4420   22.2946 C   0  0  0  0  0  0  0  0  0  0  0  0
   12.1644    0.4815   23.0931 C   0  0  0  0  0  0  0  0  0  0  0  0
   10.7737    0.5127   23.1582 C   0  0  0  0  0  0  0  0  0  0  0  0
   10.1338    1.7029   23.8004 C   0  0  0  0  0  0  0  0  0  0  0  0
   10.7895    2.6821   24.1324 O   0  0  0  0  0  0  0  0  0  0  0  0
   12.7224    1.2200   23.6569 H   0  0  0  0  0  0  0  0  0  0  0  0
   13.8771   -0.4323   22.1722 H   0  0  0  0  0  0  0  0  0  0  0  0
   10.1020   -2.1444   21.1534 H   0  0  0  0  0  0  0  0  0  0  0  0
    6.9864    0.5779   23.8237 H   0  0  0  0  0  0  0  0  0  0  0  0
    8.2576   -0.2322   24.7462 H   0  0  0  0  0  0  0  0  0  0  0  0
    8.8608    3.5399   24.7155 H   0  0  0  0  0  0  0  0  0  0  0  0
    7.5631    2.5480   25.3904 H   0  0  0  0  0  0  0  0  0  0  0  0
    8.4960    3.7556   22.0156 H   0  0  0  0  0  0  0  0  0  0  0  0
    6.1900    3.4974   20.8316 H   0  0  0  0  0  0  0  0  0  0  0  0
    5.8060    4.9312   21.8459 H   0  0  0  0  0  0  0  0  0  0  0  0
    7.0803    5.0642   20.6310 H   0  0  0  0  0  0  0  0  0  0  0  0
  1  2  1  0
  2  3  1  0
  3  4  2  0
  3  5  1  0
  5  6  1  0
  6  7  1  0
  8  7  1  1
  8  9  1  0
  9 10  2  0
  9 11  1  0
 11 12  1  0
 12 13  2  0
 13 14  1  0
 14 15  2  0
 15 16  1  0
 16 17  2  0
 17 18  1  0
 18 19  2  0
 19 20  1  0
 20 21  2  0
 20 22  1  0
 19 23  1  0
 18 24  1  0
 17 25  1  0
 15 26  1  0
 13 27  1  0
 11 28  1  0
 28 29  1  0
 29 30  1  0
 30 31  1  0
 31 32  1  0
 32 33  2  0
 33 34  1  0
 34 35  2  0
 35 36  1  0
 36 37  1  0
 36 38  1  0
 36 39  1  0
 35 40  1  0
 33 41  1  0
 31 42  1  0
 30 43  1  0
 30 44  1  0
 29 45  1  6
 28 46  1  0
 28 47  1  0
  8 48  1  0
 48 49  2  0
 49 50  1  0
 50 51  1  0
 50 52  2  0
 52 53  1  0
 53 54  2  0
 54 55  1  0
 55 56  2  0
 53 57  1  0
 52 58  1  0
 49 59  1  0
  7 60  1  0
  7 61  1  0
  5 62  1  0
  5 63  1  0
  2 64  1  0
  1 65  1  0
  1 66  1  0
  1 67  1  0
 55  6  1  0
 29  8  1  0
 40 32  1  0
 54 48  1  0
 21 12  1  0
 21 16  1  0
M  END
>  <cnnaffinities>  (58) 
[6.88747]

>  <score>  (58) 
6.88747

>  <index>  (58) 
57

>  <Smiles>  (58) 
C(N(C(=O)C(N1C([C@@]2(C(=O)N(c3c(nc(c4c(c(c(c(c34)[H])[H])[H])[H])[H])[H])C([C@@]2(C(N(c2c(nc(C([H])([H])[H])s2)[H])[H])([H])[H])[H])([H])[H])c2c(c(Cl)c(c(c2C1=O)[H])[H])[H])([H])[H])([H])[H])[H])([H])([H])[H]

>  <h>  (58) 
<NA>

>  <Training>  (58) 
True

>  <Success>  (58) 
True

>  <enamine_searched>  (58) 
False

>  <enamine_id>  (58) 
nan

$$$$

     RDKit          3D

 57 62  0  0  0  0  0  0  0  0999 V2000
    7.0164   -2.2849   23.6165 C   0  0  0  0  0  0  0  0  0  0  0  0
    7.8850   -1.8648   22.4211 C   0  0  1  0  0  0  0  0  0  0  0  0
    7.0276   -1.7812   21.1430 C   0  0  0  0  0  0  0  0  0  0  0  0
    6.8870   -0.3721   20.8897 N   0  0  0  0  0  0  0  0  0  0  0  0
    6.1244    0.1129   19.7992 C   0  0  0  0  0  0  0  0  0  0  0  0
    6.4402   -0.2273   18.5063 C   0  0  0  0  0  0  0  0  0  0  0  0
    5.7762    0.2231   17.4164 N   0  0  0  0  0  0  0  0  0  0  0  0
    4.7529    1.0190   17.6115 C   0  0  0  0  0  0  0  0  0  0  0  0
    4.2904    1.4071   18.9018 C   0  0  0  0  0  0  0  0  0  0  0  0
    3.1541    2.2418   19.0668 C   0  0  0  0  0  0  0  0  0  0  0  0
    2.7187    2.5812   20.3186 C   0  0  0  0  0  0  0  0  0  0  0  0
    3.3860    2.0898   21.4608 C   0  0  0  0  0  0  0  0  0  0  0  0
    4.5022    1.2990   21.3314 C   0  0  0  0  0  0  0  0  0  0  0  0
    4.9851    0.9419   20.0394 C   0  0  0  0  0  0  0  0  0  0  0  0
    5.0234    0.9483   22.2169 H   0  0  0  0  0  0  0  0  0  0  0  0
    3.0212    2.3530   22.4519 H   0  0  0  0  0  0  0  0  0  0  0  0
    1.8608    3.2356   20.4431 H   0  0  0  0  0  0  0  0  0  0  0  0
    2.6463    2.6011   18.1776 H   0  0  0  0  0  0  0  0  0  0  0  0
    4.2267    1.3850   16.7295 H   0  0  0  0  0  0  0  0  0  0  0  0
    7.2921   -0.8749   18.2936 H   0  0  0  0  0  0  0  0  0  0  0  0
    7.8291    0.4055   21.5296 C   0  0  0  0  0  0  0  0  0  0  0  0
    7.9876    1.5838   21.3224 O   0  0  0  0  0  0  0  0  0  0  0  0
    8.6128   -0.4838   22.5308 C   0  0  1  0  0  0  0  0  0  0  0  0
    8.5312    0.1141   23.9505 C   0  0  0  0  0  0  0  0  0  0  0  0
    9.2873    1.3443   24.0908 N   0  0  0  0  0  0  0  0  0  0  0  0
    8.6663    2.4718   24.7541 C   0  0  0  0  0  0  0  0  0  0  0  0
    7.9933    3.4124   23.8014 C   0  0  0  0  0  0  0  0  0  0  0  0
    8.7634    4.3593   23.1365 C   0  0  0  0  0  0  0  0  0  0  0  0
    8.0808    5.2374   22.3147 C   0  0  0  0  0  0  0  0  0  0  0  0
    6.7503    5.2084   22.1821 N   0  0  0  0  0  0  0  0  0  0  0  0
    6.1297    4.2462   22.8533 C   0  0  0  0  0  0  0  0  0  0  0  0
    6.6699    3.3237   23.6442 N   0  0  0  0  0  0  0  0  0  0  0  0
    5.0464    4.2038   22.7499 H   0  0  0  0  0  0  0  0  0  0  0  0
    8.6063    6.0068   21.7561 H   0  0  0  0  0  0  0  0  0  0  0  0
    9.8373    4.3964   23.2946 H   0  0  0  0  0  0  0  0  0  0  0  0
    9.4521    3.0205   25.2650 H   0  0  0  0  0  0  0  0  0  0  0  0
    7.9480    2.0921   25.4802 H   0  0  0  0  0  0  0  0  0  0  0  0
   10.5642    1.4767   23.6337 C   0  0  0  0  0  0  0  0  0  0  0  0
   11.2817    2.4294   23.9326 O   0  0  0  0  0  0  0  0  0  0  0  0
   11.0053    0.3992   22.6994 C   0  0  0  0  0  0  0  0  0  0  0  0
   12.3381    0.4241   22.2937 C   0  0  0  0  0  0  0  0  0  0  0  0
   12.8478   -0.5528   21.4614 C   0  0  0  0  0  0  0  0  0  0  0  0
   11.9531   -1.5193   21.0103 C   0  0  0  0  0  0  0  0  0  0  0  0
   12.4065   -2.5115   20.2266 F   0  0  0  0  0  0  0  0  0  0  0  0
   10.5992   -1.4852   21.2855 C   0  0  0  0  0  0  0  0  0  0  0  0
   10.0993   -0.5430   22.1850 C   0  0  0  0  0  0  0  0  0  0  0  0
    9.9595   -2.1920   20.7698 H   0  0  0  0  0  0  0  0  0  0  0  0
   13.8860   -0.5678   21.1358 H   0  0  0  0  0  0  0  0  0  0  0  0
   12.9564    1.2240   22.6831 H   0  0  0  0  0  0  0  0  0  0  0  0
    7.4901    0.3387   24.1918 H   0  0  0  0  0  0  0  0  0  0  0  0
    8.9190   -0.6463   24.6415 H   0  0  0  0  0  0  0  0  0  0  0  0
    7.5130   -2.2621   20.2939 H   0  0  0  0  0  0  0  0  0  0  0  0
    6.0409   -2.2417   21.2657 H   0  0  0  0  0  0  0  0  0  0  0  0
    8.6374   -2.6498   22.3170 H   0  0  0  0  0  0  0  0  0  0  0  0
    6.2036   -1.5745   23.8059 H   0  0  0  0  0  0  0  0  0  0  0  0
    6.5610   -3.2624   23.4180 H   0  0  0  0  0  0  0  0  0  0  0  0
    7.6043   -2.3878   24.5334 H   0  0  0  0  0  0  0  0  0  0  0  0
  1  2  1  0
  2  3  1  0
  3  4  1  0
  4  5  1  0
  5  6  2  0
  6  7  1  0
  7  8  2  0
  8  9  1  0
  9 10  2  0
 10 11  1  0
 11 12  2  0
 12 13  1  0
 13 14  2  0
 13 15  1  0
 12 16  1  0
 11 17  1  0
 10 18  1  0
  8 19  1  0
  6 20  1  0
  4 21  1  0
 21 22  2  0
 21 23  1  0
 23 24  1  1
 24 25  1  0
 25 26  1  0
 26 27  1  0
 27 28  2  0
 28 29  1  0
 29 30  2  0
 30 31  1  0
 31 32  2  0
 31 33  1  0
 29 34  1  0
 28 35  1  0
 26 36  1  0
 26 37  1  0
 25 38  1  0
 38 39  2  0
 38 40  1  0
 40 41  2  0
 41 42  1  0
 42 43  2  0
 43 44  1  0
 43 45  1  0
 45 46  2  0
 45 47  1  0
 42 48  1  0
 41 49  1  0
 24 50  1  0
 24 51  1  0
  3 52  1  0
  3 53  1  0
  2 54  1  6
  1 55  1  0
  1 56  1  0
  1 57  1  0
 23  2  1  0
 32 27  1  0
 46 40  1  0
 14  5  1  0
 46 23  1  0
 14  9  1  0
M  END
>  <cnnaffinities>  (59) 
[6.50247, 6.4904]

>  <score>  (59) 
6.50247

>  <index>  (59) 
58

>  <Smiles>  (59) 
C([C@]1(C(N(c2c(nc(c3c(c(c(c(c23)[H])[H])[H])[H])[H])[H])C(=O)[C@]21C(N(C(c1c(c(nc(n1)[H])[H])[H])([H])[H])C(=O)c1c(c(c(F)c(c21)[H])[H])[H])([H])[H])([H])[H])[H])([H])([H])[H]

>  <h>  (59) 
<NA>

>  <Training>  (59) 
True

>  <Success>  (59) 
True

>  <enamine_searched>  (59) 
False

>  <enamine_id>  (59) 
nan

$$$$

     RDKit          3D

 60 65  0  0  0  0  0  0  0  0999 V2000
    7.3767   -4.7197   23.7975 C   0  0  0  0  0  0  0  0  0  0  0  0
    6.5719   -3.7105   23.2371 O   0  0  0  0  0  0  0  0  0  0  0  0
    6.9956   -2.3946   23.5314 C   0  0  0  0  0  0  0  0  0  0  0  0
    7.9173   -1.8455   22.4243 C   0  0  1  0  0  0  0  0  0  0  0  0
    7.1678   -1.7654   21.0791 C   0  0  0  0  0  0  0  0  0  0  0  0
    6.8868   -0.3614   20.9031 N   0  0  0  0  0  0  0  0  0  0  0  0
    6.1225    0.1148   19.8102 C   0  0  0  0  0  0  0  0  0  0  0  0
    6.4391   -0.2282   18.5180 C   0  0  0  0  0  0  0  0  0  0  0  0
    5.7782    0.2215   17.4233 N   0  0  0  0  0  0  0  0  0  0  0  0
    4.7538    1.0179   17.6122 C   0  0  0  0  0  0  0  0  0  0  0  0
    4.2885    1.4056   18.9016 C   0  0  0  0  0  0  0  0  0  0  0  0
    3.1566    2.2461   19.0653 C   0  0  0  0  0  0  0  0  0  0  0  0
    2.7272    2.5979   20.3152 C   0  0  0  0  0  0  0  0  0  0  0  0
    3.3927    2.1078   21.4599 C   0  0  0  0  0  0  0  0  0  0  0  0
    4.4868    1.2891   21.3318 C   0  0  0  0  0  0  0  0  0  0  0  0
    4.9772    0.9374   20.0428 C   0  0  0  0  0  0  0  0  0  0  0  0
    4.9753    0.8986   22.2178 H   0  0  0  0  0  0  0  0  0  0  0  0
    3.0444    2.3903   22.4496 H   0  0  0  0  0  0  0  0  0  0  0  0
    1.8741    3.2570   20.4397 H   0  0  0  0  0  0  0  0  0  0  0  0
    2.6455    2.6042   18.1765 H   0  0  0  0  0  0  0  0  0  0  0  0
    4.2263    1.3850   16.7294 H   0  0  0  0  0  0  0  0  0  0  0  0
    7.2939   -0.8736   18.3144 H   0  0  0  0  0  0  0  0  0  0  0  0
    7.7395    0.4495   21.6293 C   0  0  0  0  0  0  0  0  0  0  0  0
    7.8562    1.6417   21.4750 O   0  0  0  0  0  0  0  0  0  0  0  0
    8.5038   -0.4237   22.6514 C   0  0  1  0  0  0  0  0  0  0  0  0
    8.2746    0.0953   24.0905 C   0  0  0  0  0  0  0  0  0  0  0  0
    8.8854    1.3889   24.3258 N   0  0  0  0  0  0  0  0  0  0  0  0
    8.1407    2.4117   25.0342 C   0  0  0  0  0  0  0  0  0  0  0  0
    7.4482    3.3489   24.0948 C   0  0  0  0  0  0  0  0  0  0  0  0
    6.1811    3.2735   23.7451 N   0  0  0  0  0  0  0  0  0  0  0  0
    6.0064    4.3074   22.8587 C   0  0  0  0  0  0  0  0  0  0  0  0
    7.1632    5.0156   22.6857 C   0  0  0  0  0  0  0  0  0  0  0  0
    8.0845    4.3888   23.4889 N   0  0  0  0  0  0  0  0  0  0  0  0
    9.0755    4.5751   23.5519 H   0  0  0  0  0  0  0  0  0  0  0  0
    7.4164    5.8633   22.0631 H   0  0  0  0  0  0  0  0  0  0  0  0
    5.0550    4.4627   22.3765 H   0  0  0  0  0  0  0  0  0  0  0  0
    8.8483    2.9729   25.6491 H   0  0  0  0  0  0  0  0  0  0  0  0
    7.3965    1.9232   25.6701 H   0  0  0  0  0  0  0  0  0  0  0  0
   10.0991    1.7337   23.8209 C   0  0  0  0  0  0  0  0  0  0  0  0
   10.5897    2.8458   24.0220 O   0  0  0  0  0  0  0  0  0  0  0  0
   10.7600    0.7031   22.9704 C   0  0  0  0  0  0  0  0  0  0  0  0
   12.1126    0.8797   22.6693 C   0  0  0  0  0  0  0  0  0  0  0  0
   12.7730   -0.0280   21.8597 C   0  0  0  0  0  0  0  0  0  0  0  0
   12.0298   -1.0876   21.3209 C   0  0  0  0  0  0  0  0  0  0  0  0
   12.8076   -2.2600   20.2893 Cl  0  0  0  0  0  0  0  0  0  0  0  0
   10.6590   -1.1986   21.5138 C   0  0  0  0  0  0  0  0  0  0  0  0
   10.0080   -0.3328   22.3965 C   0  0  0  0  0  0  0  0  0  0  0  0
   10.1203   -1.9666   20.9656 H   0  0  0  0  0  0  0  0  0  0  0  0
   13.8328    0.0683   21.6420 H   0  0  0  0  0  0  0  0  0  0  0  0
   12.6082    1.7461   23.0939 H   0  0  0  0  0  0  0  0  0  0  0  0
    7.2080    0.1851   24.3070 H   0  0  0  0  0  0  0  0  0  0  0  0
    8.7161   -0.6283   24.7827 H   0  0  0  0  0  0  0  0  0  0  0  0
    7.7976   -2.1222   20.2612 H   0  0  0  0  0  0  0  0  0  0  0  0
    6.2404   -2.3425   21.0741 H   0  0  0  0  0  0  0  0  0  0  0  0
    8.7382   -2.5658   22.3675 H   0  0  0  0  0  0  0  0  0  0  0  0
    6.0868   -1.7878   23.6115 H   0  0  0  0  0  0  0  0  0  0  0  0
    7.4921   -2.3713   24.5124 H   0  0  0  0  0  0  0  0  0  0  0  0
    8.4400   -4.6088   23.5321 H   0  0  0  0  0  0  0  0  0  0  0  0
    7.2893   -4.7400   24.8950 H   0  0  0  0  0  0  0  0  0  0  0  0
    7.0206   -5.6766   23.4059 H   0  0  0  0  0  0  0  0  0  0  0  0
  1  2  1  0
  2  3  1  0
  3  4  1  0
  4  5  1  0
  5  6  1  0
  6  7  1  0
  7  8  2  0
  8  9  1  0
  9 10  2  0
 10 11  1  0
 11 12  2  0
 12 13  1  0
 13 14  2  0
 14 15  1  0
 15 16  2  0
 15 17  1  0
 14 18  1  0
 13 19  1  0
 12 20  1  0
 10 21  1  0
  8 22  1  0
  6 23  1  0
 23 24  2  0
 23 25  1  0
 25 26  1  1
 26 27  1  0
 27 28  1  0
 28 29  1  0
 29 30  2  0
 30 31  1  0
 31 32  2  0
 32 33  1  0
 33 34  1  0
 32 35  1  0
 31 36  1  0
 28 37  1  0
 28 38  1  0
 27 39  1  0
 39 40  2  0
 39 41  1  0
 41 42  2  0
 42 43  1  0
 43 44  2  0
 44 45  1  0
 44 46  1  0
 46 47  2  0
 46 48  1  0
 43 49  1  0
 42 50  1  0
 26 51  1  0
 26 52  1  0
  5 53  1  0
  5 54  1  0
  4 55  1  6
  3 56  1  0
  3 57  1  0
  1 58  1  0
  1 59  1  0
  1 60  1  0
 25  4  1  0
 33 29  1  0
 47 41  1  0
 16  7  1  0
 47 25  1  0
 16 11  1  0
M  END
>  <cnnaffinities>  (60) 
[6.71736, 6.66653]

>  <score>  (60) 
6.71736

>  <index>  (60) 
59

>  <Smiles>  (60) 
C(OC([C@]1(C(N(c2c(nc(c3c(c(c(c(c23)[H])[H])[H])[H])[H])[H])C(=O)[C@]21C(N(C(c1nc(c(n1[H])[H])[H])([H])[H])C(=O)c1c(c(c(Cl)c(c21)[H])[H])[H])([H])[H])([H])[H])[H])([H])[H])([H])([H])[H]

>  <h>  (60) 
<NA>

>  <Training>  (60) 
True

>  <Success>  (60) 
True

>  <enamine_searched>  (60) 
False

>  <enamine_id>  (60) 
nan

$$$$

     RDKit          3D

 38 41  0  0  0  0  0  0  0  0999 V2000
    5.0894   -2.0050   21.3280 O   0  0  0  0  0  0  0  0  0  0  0  0
    6.2720   -1.7751   21.5149 C   0  0  0  0  0  0  0  0  0  0  0  0
    6.9363   -0.5141   20.9020 C   0  0  0  0  0  0  0  0  0  0  0  0
    6.1188    0.0847   19.7773 C   0  0  0  0  0  0  0  0  0  0  0  0
    6.4225   -0.2113   18.4751 C   0  0  0  0  0  0  0  0  0  0  0  0
    5.7542    0.2379   17.3819 N   0  0  0  0  0  0  0  0  0  0  0  0
    4.7345    1.0326   17.5832 C   0  0  0  0  0  0  0  0  0  0  0  0
    4.2844    1.4176   18.8723 C   0  0  0  0  0  0  0  0  0  0  0  0
    3.1602    2.2633   19.0495 C   0  0  0  0  0  0  0  0  0  0  0  0
    2.7433    2.6206   20.3016 C   0  0  0  0  0  0  0  0  0  0  0  0
    3.4334    2.1318   21.4333 C   0  0  0  0  0  0  0  0  0  0  0  0
    4.5240    1.3080   21.2890 C   0  0  0  0  0  0  0  0  0  0  0  0
    4.9890    0.9298   20.0047 C   0  0  0  0  0  0  0  0  0  0  0  0
    5.0307    0.9216   22.1679 H   0  0  0  0  0  0  0  0  0  0  0  0
    3.0948    2.4118   22.4261 H   0  0  0  0  0  0  0  0  0  0  0  0
    1.8865    3.2789   20.4324 H   0  0  0  0  0  0  0  0  0  0  0  0
    2.6437    2.6325   18.1648 H   0  0  0  0  0  0  0  0  0  0  0  0
    4.2048    1.3982   16.6987 H   0  0  0  0  0  0  0  0  0  0  0  0
    7.2620   -0.8630   18.2393 H   0  0  0  0  0  0  0  0  0  0  0  0
    7.0922    0.2405   21.6862 H   0  0  0  0  0  0  0  0  0  0  0  0
    7.9376   -0.7635   20.5142 H   0  0  0  0  0  0  0  0  0  0  0  0
    7.0570   -2.6383   22.2561 N   0  0  0  0  0  0  0  0  0  0  0  0
    6.6218   -4.0272   22.4041 C   0  0  0  0  0  0  0  0  0  0  0  0
    6.7347   -4.4884   23.8459 C   0  0  0  0  0  0  0  0  0  0  0  0
    8.0718   -4.0850   24.3648 C   0  0  0  0  0  0  0  0  0  0  0  0
    8.7814   -4.7809   25.7423 S   0  0  0  0  0  0  0  0  0  0  0  0
   10.1914   -3.8174   25.5952 C   0  0  0  0  0  0  0  0  0  0  0  0
   10.0745   -2.9265   24.5716 C   0  0  0  0  0  0  0  0  0  0  0  0
    8.8503   -3.1021   23.8587 C   0  0  0  0  0  0  0  0  0  0  0  0
    8.4109   -2.3113   22.6708 C   0  0  0  0  0  0  0  0  0  0  0  0
    9.1483   -2.4536   21.8698 H   0  0  0  0  0  0  0  0  0  0  0  0
    8.4634   -1.2573   22.9417 H   0  0  0  0  0  0  0  0  0  0  0  0
   10.8207   -2.1639   24.3558 H   0  0  0  0  0  0  0  0  0  0  0  0
   10.9688   -3.9151   26.3441 H   0  0  0  0  0  0  0  0  0  0  0  0
    5.9612   -4.0204   24.4625 H   0  0  0  0  0  0  0  0  0  0  0  0
    6.5710   -5.5673   23.9315 H   0  0  0  0  0  0  0  0  0  0  0  0
    5.5936   -4.0963   22.0547 H   0  0  0  0  0  0  0  0  0  0  0  0
    7.2376   -4.6804   21.7706 H   0  0  0  0  0  0  0  0  0  0  0  0
  1  2  2  0
  2  3  1  0
  3  4  1  0
  4  5  2  0
  5  6  1  0
  6  7  2  0
  7  8  1  0
  8  9  2  0
  9 10  1  0
 10 11  2  0
 11 12  1  0
 12 13  2  0
 12 14  1  0
 11 15  1  0
 10 16  1  0
  9 17  1  0
  7 18  1  0
  5 19  1  0
  3 20  1  0
  3 21  1  0
  2 22  1  0
 22 23  1  0
 23 24  1  0
 24 25  1  0
 25 26  1  0
 26 27  1  0
 27 28  2  0
 28 29  1  0
 29 30  1  0
 30 31  1  0
 30 32  1  0
 28 33  1  0
 27 34  1  0
 24 35  1  0
 24 36  1  0
 23 37  1  0
 23 38  1  0
 13  4  1  0
 30 22  1  0
 13  8  1  0
 29 25  2  0
M  END
>  <cnnaffinities>  (61) 
[5.35758]

>  <score>  (61) 
5.35758

>  <index>  (61) 
60

>  <Smiles>  (61) 
O=C(C(c1c(nc(c2c(c(c(c(c12)[H])[H])[H])[H])[H])[H])([H])[H])N1C(C(c2sc(c(c2C1([H])[H])[H])[H])([H])[H])([H])[H]

>  <h>  (61) 
<NA>

>  <Training>  (61) 
True

>  <Success>  (61) 
True

>  <enamine_searched>  (61) 
False

>  <enamine_id>  (61) 
nan

$$$$

     RDKit          3D

 64 70  0  0  0  0  0  0  0  0999 V2000
   11.0062    2.6297   24.0057 O   0  0  0  0  0  0  0  0  0  0  0  0
   10.3524    1.6359   23.6947 C   0  0  0  0  0  0  0  0  0  0  0  0
   10.8929    0.6030   22.7611 C   0  0  0  0  0  0  0  0  0  0  0  0
   12.2456    0.6845   22.4233 C   0  0  0  0  0  0  0  0  0  0  0  0
   12.8338   -0.2972   21.6504 C   0  0  0  0  0  0  0  0  0  0  0  0
   12.0336   -1.3406   21.1869 C   0  0  0  0  0  0  0  0  0  0  0  0
   12.7267   -2.6449   20.2720 Cl  0  0  0  0  0  0  0  0  0  0  0  0
   10.6710   -1.3645   21.4220 C   0  0  0  0  0  0  0  0  0  0  0  0
   10.0741   -0.4117   22.2502 C   0  0  0  0  0  0  0  0  0  0  0  0
    8.5801   -0.4522   22.5825 C   0  0  1  0  0  0  0  0  0  0  0  0
    8.4468    0.1075   24.0250 C   0  0  0  0  0  0  0  0  0  0  0  0
    9.1070    1.3915   24.1950 N   0  0  0  0  0  0  0  0  0  0  0  0
    8.4349    2.4664   24.9115 C   0  0  0  0  0  0  0  0  0  0  0  0
    7.6951    3.4090   23.9990 C   0  0  0  0  0  0  0  0  0  0  0  0
    8.3257    4.4497   23.3590 C   0  0  0  0  0  0  0  0  0  0  0  0
    7.5462    5.2572   22.5323 C   0  0  0  0  0  0  0  0  0  0  0  0
    6.2408    5.0837   22.3404 N   0  0  0  0  0  0  0  0  0  0  0  0
    5.6373    4.0772   22.9540 N   0  0  0  0  0  0  0  0  0  0  0  0
    6.3328    3.2653   23.7417 C   0  0  0  0  0  0  0  0  0  0  0  0
    5.7630    2.4606   24.1986 H   0  0  0  0  0  0  0  0  0  0  0  0
    7.9912    6.0927   22.0029 H   0  0  0  0  0  0  0  0  0  0  0  0
    9.3913    4.6318   23.4936 H   0  0  0  0  0  0  0  0  0  0  0  0
    7.7421    2.0281   25.6346 H   0  0  0  0  0  0  0  0  0  0  0  0
    9.1906    3.0318   25.4584 H   0  0  0  0  0  0  0  0  0  0  0  0
    8.8923   -0.6241   24.7170 H   0  0  0  0  0  0  0  0  0  0  0  0
    7.3937    0.2419   24.2810 H   0  0  0  0  0  0  0  0  0  0  0  0
    7.7943    0.4293   21.5810 C   0  0  0  0  0  0  0  0  0  0  0  0
    7.9454    1.6130   21.3860 O   0  0  0  0  0  0  0  0  0  0  0  0
    6.8947   -0.3675   20.9026 N   0  0  0  0  0  0  0  0  0  0  0  0
    6.1276    0.1120   19.8130 C   0  0  0  0  0  0  0  0  0  0  0  0
    6.4422   -0.2286   18.5204 C   0  0  0  0  0  0  0  0  0  0  0  0
    5.7758    0.2151   17.4288 N   0  0  0  0  0  0  0  0  0  0  0  0
    4.7490    1.0057   17.6213 C   0  0  0  0  0  0  0  0  0  0  0  0
    4.2840    1.3938   18.9095 C   0  0  0  0  0  0  0  0  0  0  0  0
    3.1506    2.2324   19.0743 C   0  0  0  0  0  0  0  0  0  0  0  0
    2.7361    2.6035   20.3222 C   0  0  0  0  0  0  0  0  0  0  0  0
    3.4277    2.1459   21.4643 C   0  0  0  0  0  0  0  0  0  0  0  0
    4.5230    1.3289   21.3328 C   0  0  0  0  0  0  0  0  0  0  0  0
    4.9858    0.9388   20.0471 C   0  0  0  0  0  0  0  0  0  0  0  0
    5.0659    1.0118   22.2188 H   0  0  0  0  0  0  0  0  0  0  0  0
    3.1429    2.4937   22.4530 H   0  0  0  0  0  0  0  0  0  0  0  0
    1.8776    3.2583   20.4384 H   0  0  0  0  0  0  0  0  0  0  0  0
    2.6381    2.5847   18.1830 H   0  0  0  0  0  0  0  0  0  0  0  0
    4.2291    1.3769   16.7373 H   0  0  0  0  0  0  0  0  0  0  0  0
    7.2950   -0.8736   18.3105 H   0  0  0  0  0  0  0  0  0  0  0  0
    7.1054   -1.7792   21.1113 C   0  0  0  0  0  0  0  0  0  0  0  0
    7.9320   -1.8696   22.4075 C   0  0  2  0  0  0  0  0  0  0  0  0
    7.0814   -2.4008   23.5895 C   0  0  0  0  0  0  0  0  0  0  0  0
    6.6248   -3.7618   23.3927 N   0  0  0  0  0  0  0  0  0  0  0  0
    7.2264   -4.8938   23.8522 C   0  0  0  0  0  0  0  0  0  0  0  0
    6.7396   -6.0852   23.6296 N   0  0  0  0  0  0  0  0  0  0  0  0
    7.5418   -7.0772   24.1177 N   0  0  0  0  0  0  0  0  0  0  0  0
    8.5876   -6.6284   24.7223 C   0  0  0  0  0  0  0  0  0  0  0  0
    8.6795   -4.8860   24.8078 S   0  0  0  0  0  0  0  0  0  0  0  0
    9.3286   -7.2798   25.1757 H   0  0  0  0  0  0  0  0  0  0  0  0
    5.7288   -3.9228   22.9576 H   0  0  0  0  0  0  0  0  0  0  0  0
    7.6577   -2.3487   24.5192 H   0  0  0  0  0  0  0  0  0  0  0  0
    6.1937   -1.7723   23.7097 H   0  0  0  0  0  0  0  0  0  0  0  0
    8.7295   -2.6090   22.3032 H   0  0  0  0  0  0  0  0  0  0  0  0
    6.1418   -2.2951   21.1741 H   0  0  0  0  0  0  0  0  0  0  0  0
    7.6595   -2.1953   20.2685 H   0  0  0  0  0  0  0  0  0  0  0  0
   10.0862   -2.1204   20.9153 H   0  0  0  0  0  0  0  0  0  0  0  0
   13.8880   -0.2644   21.3999 H   0  0  0  0  0  0  0  0  0  0  0  0
   12.8108    1.5374   22.7834 H   0  0  0  0  0  0  0  0  0  0  0  0
  1  2  2  0
  2  3  1  0
  3  4  2  0
  4  5  1  0
  5  6  2  0
  6  7  1  0
  6  8  1  0
  8  9  2  0
  9 10  1  0
 10 11  1  1
 11 12  1  0
 12 13  1  0
 13 14  1  0
 14 15  2  0
 15 16  1  0
 16 17  2  0
 17 18  1  0
 18 19  2  0
 19 20  1  0
 16 21  1  0
 15 22  1  0
 13 23  1  0
 13 24  1  0
 11 25  1  0
 11 26  1  0
 10 27  1  0
 27 28  2  0
 27 29  1  0
 29 30  1  0
 30 31  2  0
 31 32  1  0
 32 33  2  0
 33 34  1  0
 34 35  2  0
 35 36  1  0
 36 37  2  0
 37 38  1  0
 38 39  2  0
 38 40  1  0
 37 41  1  0
 36 42  1  0
 35 43  1  0
 33 44  1  0
 31 45  1  0
 29 46  1  0
 46 47  1  0
 47 48  1  0
 48 49  1  0
 49 50  1  0
 50 51  2  0
 51 52  1  0
 52 53  2  0
 53 54  1  0
 53 55  1  0
 49 56  1  0
 48 57  1  0
 48 58  1  0
 47 59  1  6
 46 60  1  0
 46 61  1  0
  8 62  1  0
  5 63  1  0
  4 64  1  0
 12  2  1  0
 19 14  1  0
 39 30  1  0
 54 50  1  0
  9  3  1  0
 47 10  1  0
 39 34  1  0
M  END
>  <cnnaffinities>  (62) 
[7.12619]

>  <score>  (62) 
7.12619

>  <index>  (62) 
61

>  <Smiles>  (62) 
O=C1c2c(c(c(Cl)c(c2[C@@]2(C(N1C(c1c(c(nnc1[H])[H])[H])([H])[H])([H])[H])C(=O)N(c1c(nc(c3c(c(c(c(c13)[H])[H])[H])[H])[H])[H])C([C@@]2(C(N(c1nnc(s1)[H])[H])([H])[H])[H])([H])[H])[H])[H])[H]

>  <h>  (62) 
<NA>

>  <Training>  (62) 
True

>  <Success>  (62) 
True

>  <enamine_searched>  (62) 
False

>  <enamine_id>  (62) 
nan

$$$$

     RDKit          3D

 70 76  0  0  0  0  0  0  0  0999 V2000
    7.7257   -2.5689   23.7214 C   0  0  0  0  0  0  0  0  0  0  0  0
    7.9119   -1.9024   22.3566 C   0  0  1  0  0  0  0  0  0  0  0  0
    6.5771   -1.5162   21.6750 C   0  0  0  0  0  0  0  0  0  0  0  0
    6.9482   -0.4088   20.8095 N   0  0  0  0  0  0  0  0  0  0  0  0
    6.1474    0.1072   19.7563 C   0  0  0  0  0  0  0  0  0  0  0  0
    6.4589   -0.2092   18.4547 C   0  0  0  0  0  0  0  0  0  0  0  0
    5.7639    0.2277   17.3815 N   0  0  0  0  0  0  0  0  0  0  0  0
    4.7434    1.0192   17.5982 C   0  0  0  0  0  0  0  0  0  0  0  0
    4.3011    1.4224   18.8920 C   0  0  0  0  0  0  0  0  0  0  0  0
    3.1794    2.2753   19.0721 C   0  0  0  0  0  0  0  0  0  0  0  0
    2.7840    2.6520   20.3266 C   0  0  0  0  0  0  0  0  0  0  0  0
    3.4876    2.1878   21.4572 C   0  0  0  0  0  0  0  0  0  0  0  0
    4.5800    1.3596   21.3097 C   0  0  0  0  0  0  0  0  0  0  0  0
    5.0187    0.9522   20.0173 C   0  0  0  0  0  0  0  0  0  0  0  0
    5.1074    1.0030   22.1883 H   0  0  0  0  0  0  0  0  0  0  0  0
    3.1638    2.4859   22.4493 H   0  0  0  0  0  0  0  0  0  0  0  0
    1.9327    3.3201   20.4456 H   0  0  0  0  0  0  0  0  0  0  0  0
    2.6578    2.6236   18.1870 H   0  0  0  0  0  0  0  0  0  0  0  0
    4.2088    1.3850   16.7218 H   0  0  0  0  0  0  0  0  0  0  0  0
    7.3047   -0.8587   18.2432 H   0  0  0  0  0  0  0  0  0  0  0  0
    8.1918    0.1139   21.0806 C   0  0  0  0  0  0  0  0  0  0  0  0
    8.7149    1.0101   20.4478 O   0  0  0  0  0  0  0  0  0  0  0  0
    8.7564   -0.5924   22.3397 C   0  0  1  0  0  0  0  0  0  0  0  0
    8.4818    0.2894   23.5867 C   0  0  0  0  0  0  0  0  0  0  0  0
    9.1946    1.5468   23.5315 N   0  0  0  0  0  0  0  0  0  0  0  0
    8.4929    2.7936   23.7400 C   0  0  0  0  0  0  0  0  0  0  0  0
    7.8130    3.2564   22.4502 C   0  0  0  0  0  0  0  0  0  0  0  0
    7.0221    4.4990   22.6328 N   0  0  2  0  0  4  0  0  0  0  0  0
    5.8482    4.3666   23.5883 C   0  0  0  0  0  0  0  0  0  0  0  0
    4.8173    5.4081   23.1363 C   0  0  0  0  0  0  0  0  0  0  0  0
    5.2191    5.8485   21.7219 C   0  0  0  0  0  0  0  0  0  0  0  0
    4.1209    5.9330   20.6459 C   0  0  0  0  0  0  0  0  0  0  0  0
    4.3121    7.3437   20.4810 O   0  0  0  0  0  0  0  0  0  0  0  0
    5.3455    7.3655   21.4709 C   0  0  0  0  0  0  0  0  0  0  0  0
    5.0838    8.0094   22.3210 H   0  0  0  0  0  0  0  0  0  0  0  0
    6.3051    7.7027   21.0542 H   0  0  0  0  0  0  0  0  0  0  0  0
    3.1036    5.6971   20.9841 H   0  0  0  0  0  0  0  0  0  0  0  0
    4.3241    5.3681   19.7217 H   0  0  0  0  0  0  0  0  0  0  0  0
    6.4307    4.9977   21.3498 C   0  0  0  0  0  0  0  0  0  0  0  0
    6.1274    4.1133   20.7725 H   0  0  0  0  0  0  0  0  0  0  0  0
    7.1893    5.5464   20.7823 H   0  0  0  0  0  0  0  0  0  0  0  0
    4.7947    6.2711   23.8092 H   0  0  0  0  0  0  0  0  0  0  0  0
    3.8132    4.9718   23.1379 H   0  0  0  0  0  0  0  0  0  0  0  0
    5.4671    3.3446   23.4967 H   0  0  0  0  0  0  0  0  0  0  0  0
    6.1877    4.5129   24.6138 H   0  0  0  0  0  0  0  0  0  0  0  0
    7.6791    5.2261   22.9916 H   0  0  0  0  0  0  0  0  0  0  0  0
    7.1344    2.4684   22.0967 H   0  0  0  0  0  0  0  0  0  0  0  0
    8.5587    3.4056   21.6589 H   0  0  0  0  0  0  0  0  0  0  0  0
    9.2471    3.5110   24.0727 H   0  0  0  0  0  0  0  0  0  0  0  0
    7.7600    2.6277   24.5406 H   0  0  0  0  0  0  0  0  0  0  0  0
   10.5135    1.5978   23.2219 C   0  0  0  0  0  0  0  0  0  0  0  0
   11.1906    2.6081   23.3668 O   0  0  0  0  0  0  0  0  0  0  0  0
   11.0788    0.3425   22.6377 C   0  0  0  0  0  0  0  0  0  0  0  0
   12.4427    0.3599   22.3883 C   0  0  0  0  0  0  0  0  0  0  0  0
   12.9979   -0.6357   21.6196 C   0  0  0  0  0  0  0  0  0  0  0  0
   12.2007   -1.7029   21.2046 C   0  0  0  0  0  0  0  0  0  0  0  0
   12.9293   -2.9374   20.2154 Cl  0  0  0  0  0  0  0  0  0  0  0  0
   10.8634   -1.7873   21.5423 C   0  0  0  0  0  0  0  0  0  0  0  0
   10.2626   -0.7292   22.2358 C   0  0  0  0  0  0  0  0  0  0  0  0
   10.3057   -2.6609   21.2162 H   0  0  0  0  0  0  0  0  0  0  0  0
   14.0393   -0.6120   21.3289 H   0  0  0  0  0  0  0  0  0  0  0  0
   13.0009    1.1918   22.8071 H   0  0  0  0  0  0  0  0  0  0  0  0
    8.8136   -0.2838   24.4669 H   0  0  0  0  0  0  0  0  0  0  0  0
    7.4109    0.5122   23.6661 H   0  0  0  0  0  0  0  0  0  0  0  0
    6.1462   -2.3358   21.0880 H   0  0  0  0  0  0  0  0  0  0  0  0
    5.8297   -1.2099   22.4231 H   0  0  0  0  0  0  0  0  0  0  0  0
    8.4139   -2.6054   21.6841 H   0  0  0  0  0  0  0  0  0  0  0  0
    7.1964   -3.5231   23.6282 H   0  0  0  0  0  0  0  0  0  0  0  0
    7.1351   -1.9306   24.3894 H   0  0  0  0  0  0  0  0  0  0  0  0
    8.6857   -2.7644   24.2135 H   0  0  0  0  0  0  0  0  0  0  0  0
  1  2  1  0
  2  3  1  0
  3  4  1  0
  4  5  1  0
  5  6  2  0
  6  7  1  0
  7  8  2  0
  8  9  1  0
  9 10  2  0
 10 11  1  0
 11 12  2  0
 12 13  1  0
 13 14  2  0
 13 15  1  0
 12 16  1  0
 11 17  1  0
 10 18  1  0
  8 19  1  0
  6 20  1  0
  4 21  1  0
 21 22  2  0
 21 23  1  0
 23 24  1  1
 24 25  1  0
 25 26  1  0
 26 27  1  0
 27 28  1  0
 28 29  1  0
 29 30  1  0
 30 31  1  0
 31 32  1  0
 32 33  1  0
 33 34  1  0
 34 35  1  0
 34 36  1  0
 32 37  1  0
 32 38  1  0
 31 39  1  0
 39 40  1  0
 39 41  1  0
 30 42  1  0
 30 43  1  0
 29 44  1  0
 29 45  1  0
 28 46  1  1
 27 47  1  0
 27 48  1  0
 26 49  1  0
 26 50  1  0
 25 51  1  0
 51 52  2  0
 51 53  1  0
 53 54  2  0
 54 55  1  0
 55 56  2  0
 56 57  1  0
 56 58  1  0
 58 59  2  0
 58 60  1  0
 55 61  1  0
 54 62  1  0
 24 63  1  0
 24 64  1  0
  3 65  1  0
  3 66  1  0
  2 67  1  6
  1 68  1  0
  1 69  1  0
  1 70  1  0
 23  2  1  0
 39 28  1  0
 59 53  1  0
 14  5  1  0
 59 23  1  0
 14  9  1  0
 34 31  1  0
M  CHG  1  28   1
M  END
>  <cnnaffinities>  (63) 
[7.05557]

>  <score>  (63) 
7.05557

>  <index>  (63) 
62

>  <Smiles>  (63) 
C([C@]1(C(N(c2c(nc(c3c(c(c(c(c23)[H])[H])[H])[H])[H])[H])C(=O)[C@]21C(N(C(C([N@@+]1(C(C(C3(C(OC3([H])[H])([H])[H])C1([H])[H])([H])[H])([H])[H])[H])([H])[H])([H])[H])C(=O)c1c(c(c(Cl)c(c21)[H])[H])[H])([H])[H])([H])[H])[H])([H])([H])[H]

>  <h>  (63) 
<NA>

>  <Training>  (63) 
True

>  <Success>  (63) 
True

>  <enamine_searched>  (63) 
False

>  <enamine_id>  (63) 
nan

$$$$

     RDKit          3D

 56 61  0  0  0  0  0  0  0  0999 V2000
   12.6805    2.0539   22.2655 C   0  0  0  0  0  0  0  0  0  0  0  0
   12.7153    0.6900   22.7179 N   0  0  0  0  0  0  0  0  0  0  0  0
   13.0112    0.1957   23.9373 C   0  0  0  0  0  0  0  0  0  0  0  0
   12.7898   -1.1561   23.8804 C   0  0  0  0  0  0  0  0  0  0  0  0
   12.3426   -1.3804   22.5594 C   0  0  0  0  0  0  0  0  0  0  0  0
   11.8987   -2.6433   21.9063 C   0  0  0  0  0  0  0  0  0  0  0  0
   10.5162   -2.9220   22.2628 N   0  0  0  0  0  0  0  0  0  0  0  0
    9.4316   -2.6046   21.3522 C   0  0  0  0  0  0  0  0  0  0  0  0
    8.2331   -1.9498   22.0771 C   0  0  1  0  0  0  0  0  0  0  0  0
    8.5500   -0.5012   22.5250 C   0  0  0  0  0  0  0  0  0  0  0  0
    7.8960    0.4253   21.4960 C   0  0  0  0  0  0  0  0  0  0  0  0
    6.8974   -0.4194   20.8602 N   0  0  0  0  0  0  0  0  0  0  0  0
    6.1077    0.0483   19.7813 C   0  0  0  0  0  0  0  0  0  0  0  0
    6.4365   -0.2616   18.4854 C   0  0  0  0  0  0  0  0  0  0  0  0
    5.7812    0.2170   17.3992 N   0  0  0  0  0  0  0  0  0  0  0  0
    4.7623    1.0141   17.6064 C   0  0  0  0  0  0  0  0  0  0  0  0
    4.2989    1.3896   18.9002 C   0  0  0  0  0  0  0  0  0  0  0  0
    3.1726    2.2313   19.0771 C   0  0  0  0  0  0  0  0  0  0  0  0
    2.7647    2.5851   20.3330 C   0  0  0  0  0  0  0  0  0  0  0  0
    3.4520    2.1051   21.4701 C   0  0  0  0  0  0  0  0  0  0  0  0
    4.5417    1.2805   21.3277 C   0  0  0  0  0  0  0  0  0  0  0  0
    4.9932    0.9078   20.0316 C   0  0  0  0  0  0  0  0  0  0  0  0
    5.0609    0.9054   22.2051 H   0  0  0  0  0  0  0  0  0  0  0  0
    3.1162    2.3952   22.4614 H   0  0  0  0  0  0  0  0  0  0  0  0
    1.9115    3.2435   20.4619 H   0  0  0  0  0  0  0  0  0  0  0  0
    2.6560    2.5895   18.1910 H   0  0  0  0  0  0  0  0  0  0  0  0
    4.2423    1.4076   16.7313 H   0  0  0  0  0  0  0  0  0  0  0  0
    7.2747   -0.9249   18.2807 H   0  0  0  0  0  0  0  0  0  0  0  0
    7.0740   -1.7659   21.0903 C   0  0  0  0  0  0  0  0  0  0  0  0
    6.3866   -2.6401   20.5981 O   0  0  0  0  0  0  0  0  0  0  0  0
    8.6235    0.7808   20.7535 H   0  0  0  0  0  0  0  0  0  0  0  0
    7.4242    1.3032   21.9518 H   0  0  0  0  0  0  0  0  0  0  0  0
    9.6289   -0.3497   22.5745 H   0  0  0  0  0  0  0  0  0  0  0  0
    8.1324   -0.3379   23.5214 H   0  0  0  0  0  0  0  0  0  0  0  0
    7.8815   -2.8555   23.2351 C   0  0  0  0  0  0  0  0  0  0  0  0
    6.5855   -2.9176   23.7349 C   0  0  0  0  0  0  0  0  0  0  0  0
    6.3210   -3.7117   24.8389 C   0  0  0  0  0  0  0  0  0  0  0  0
    4.7170   -3.7054   25.5054 Cl  0  0  0  0  0  0  0  0  0  0  0  0
    7.3113   -4.4828   25.4526 C   0  0  0  0  0  0  0  0  0  0  0  0
    8.6018   -4.4057   24.9688 C   0  0  0  0  0  0  0  0  0  0  0  0
    8.8842   -3.5640   23.9003 C   0  0  0  0  0  0  0  0  0  0  0  0
   10.3069   -3.3927   23.5267 C   0  0  0  0  0  0  0  0  0  0  0  0
   11.2200   -3.6465   24.3039 O   0  0  0  0  0  0  0  0  0  0  0  0
    9.4261   -4.9791   25.3852 H   0  0  0  0  0  0  0  0  0  0  0  0
    7.0781   -5.0991   26.3134 H   0  0  0  0  0  0  0  0  0  0  0  0
    5.7977   -2.3432   23.2607 H   0  0  0  0  0  0  0  0  0  0  0  0
    9.8061   -1.9272   20.5825 H   0  0  0  0  0  0  0  0  0  0  0  0
    9.0892   -3.5322   20.9000 H   0  0  0  0  0  0  0  0  0  0  0  0
   11.9633   -2.5289   20.8189 H   0  0  0  0  0  0  0  0  0  0  0  0
   12.5205   -3.4812   22.2341 H   0  0  0  0  0  0  0  0  0  0  0  0
   12.2824   -0.2549   21.8719 N   0  0  0  0  0  0  0  0  0  0  0  0
   12.8914   -1.9080   24.6483 H   0  0  0  0  0  0  0  0  0  0  0  0
   13.3075    0.8351   24.7532 H   0  0  0  0  0  0  0  0  0  0  0  0
   13.6772    2.5161   22.2813 H   0  0  0  0  0  0  0  0  0  0  0  0
   12.2892    1.9311   21.2537 H   0  0  0  0  0  0  0  0  0  0  0  0
   12.0009    2.6491   22.8865 H   0  0  0  0  0  0  0  0  0  0  0  0
  1  2  1  0
  2  3  1  0
  3  4  2  0
  4  5  1  0
  5  6  1  0
  6  7  1  0
  7  8  1  0
  9  8  1  6
  9 10  1  0
 10 11  1  0
 11 12  1  0
 12 13  1  0
 13 14  2  0
 14 15  1  0
 15 16  2  0
 16 17  1  0
 17 18  2  0
 18 19  1  0
 19 20  2  0
 20 21  1  0
 21 22  2  0
 21 23  1  0
 20 24  1  0
 19 25  1  0
 18 26  1  0
 16 27  1  0
 14 28  1  0
 12 29  1  0
 29 30  2  0
 11 31  1  0
 11 32  1  0
 10 33  1  0
 10 34  1  0
  9 35  1  0
 35 36  2  0
 36 37  1  0
 37 38  1  0
 37 39  2  0
 39 40  1  0
 40 41  2  0
 41 42  1  0
 42 43  2  0
 40 44  1  0
 39 45  1  0
 36 46  1  0
  8 47  1  0
  8 48  1  0
  6 49  1  0
  6 50  1  0
  5 51  2  0
  4 52  1  0
  3 53  1  0
  1 54  1  0
  1 55  1  0
  1 56  1  0
 51  2  1  0
 42  7  1  0
 29  9  1  0
 41 35  1  0
 22 13  1  0
 22 17  1  0
M  END
>  <cnnaffinities>  (64) 
[6.94056]

>  <score>  (64) 
6.94056

>  <index>  (64) 
63

>  <Smiles>  (64) 
C(n1c(c(c(C(N2C([C@]3(C(C(N(c4c(nc(c5c(c(c(c(c45)[H])[H])[H])[H])[H])[H])C3=O)([H])[H])([H])[H])c3c(c(Cl)c(c(c3C2=O)[H])[H])[H])([H])[H])([H])[H])n1)[H])[H])([H])([H])[H]

>  <h>  (64) 
<NA>

>  <Training>  (64) 
True

>  <Success>  (64) 
True

>  <enamine_searched>  (64) 
False

>  <enamine_id>  (64) 
nan

$$$$

     RDKit          3D

 66 71  0  0  0  0  0  0  0  0999 V2000
    7.6468   -2.5992   23.6675 C   0  0  0  0  0  0  0  0  0  0  0  0
    7.9955   -1.7536   22.4331 C   0  0  1  0  0  0  0  0  0  0  0  0
    6.8120   -1.6560   21.4432 C   0  0  0  0  0  0  0  0  0  0  0  0
    6.9723   -0.3533   20.8300 N   0  0  0  0  0  0  0  0  0  0  0  0
    6.1571    0.1229   19.7654 C   0  0  0  0  0  0  0  0  0  0  0  0
    6.4498   -0.2173   18.4704 C   0  0  0  0  0  0  0  0  0  0  0  0
    5.7584    0.2200   17.3919 N   0  0  0  0  0  0  0  0  0  0  0  0
    4.7452    1.0225   17.6009 C   0  0  0  0  0  0  0  0  0  0  0  0
    4.3040    1.4283   18.8921 C   0  0  0  0  0  0  0  0  0  0  0  0
    3.1799    2.2790   19.0757 C   0  0  0  0  0  0  0  0  0  0  0  0
    2.7724    2.6413   20.3297 C   0  0  0  0  0  0  0  0  0  0  0  0
    3.4557    2.1464   21.4633 C   0  0  0  0  0  0  0  0  0  0  0  0
    4.5381    1.3111   21.3111 C   0  0  0  0  0  0  0  0  0  0  0  0
    5.0181    0.9535   20.0189 C   0  0  0  0  0  0  0  0  0  0  0  0
    5.0323    0.9012   22.1869 H   0  0  0  0  0  0  0  0  0  0  0  0
    3.1232    2.4356   22.4569 H   0  0  0  0  0  0  0  0  0  0  0  0
    1.9262    3.3133   20.4541 H   0  0  0  0  0  0  0  0  0  0  0  0
    2.6633    2.6416   18.1906 H   0  0  0  0  0  0  0  0  0  0  0  0
    4.2190    1.3877   16.7185 H   0  0  0  0  0  0  0  0  0  0  0  0
    7.2907   -0.8729   18.2494 H   0  0  0  0  0  0  0  0  0  0  0  0
    7.8414    0.4822   21.4891 C   0  0  0  0  0  0  0  0  0  0  0  0
    8.0555    1.6367   21.1713 O   0  0  0  0  0  0  0  0  0  0  0  0
    8.4698   -0.2830   22.6828 C   0  0  1  0  0  0  0  0  0  0  0  0
    7.9227    0.2845   24.0152 C   0  0  0  0  0  0  0  0  0  0  0  0
    8.4082    1.6203   24.2940 N   0  0  0  0  0  0  0  0  0  0  0  0
    7.4906    2.5609   24.9137 C   0  0  0  0  0  0  0  0  0  0  0  0
    6.6367    3.3208   23.9014 C   0  0  0  0  0  0  0  0  0  0  0  0
    7.4548    4.2330   23.0309 N   0  0  0  0  0  4  0  0  0  0  0  0
    6.7618    4.5583   21.7206 C   0  0  0  0  0  0  0  0  0  0  0  0
    5.6500    5.5848   21.9042 C   0  0  0  0  0  0  0  0  0  0  0  0
    6.1457    6.7794   22.4769 O   0  0  0  0  0  0  0  0  0  0  0  0
    6.6896    6.5398   23.7597 C   0  0  0  0  0  0  0  0  0  0  0  0
    7.8465    5.5397   23.7077 C   0  0  0  0  0  0  0  0  0  0  0  0
    8.6641    5.9771   23.1303 H   0  0  0  0  0  0  0  0  0  0  0  0
    8.2161    5.3160   24.7110 H   0  0  0  0  0  0  0  0  0  0  0  0
    7.0463    7.5082   24.1211 H   0  0  0  0  0  0  0  0  0  0  0  0
    5.9058    6.1846   24.4475 H   0  0  0  0  0  0  0  0  0  0  0  0
    5.2221    5.8628   20.9362 H   0  0  0  0  0  0  0  0  0  0  0  0
    4.8480    5.1572   22.5304 H   0  0  0  0  0  0  0  0  0  0  0  0
    6.3818    3.6219   21.3030 H   0  0  0  0  0  0  0  0  0  0  0  0
    7.5219    4.9633   21.0498 H   0  0  0  0  0  0  0  0  0  0  0  0
    8.3155    3.7189   22.7779 H   0  0  0  0  0  0  0  0  0  0  0  0
    5.8790    3.9011   24.4340 H   0  0  0  0  0  0  0  0  0  0  0  0
    6.1119    2.6156   23.2446 H   0  0  0  0  0  0  0  0  0  0  0  0
    8.0847    3.2514   25.5145 H   0  0  0  0  0  0  0  0  0  0  0  0
    6.8249    2.0049   25.5829 H   0  0  0  0  0  0  0  0  0  0  0  0
    9.6916    1.9984   24.0510 C   0  0  0  0  0  0  0  0  0  0  0  0
   10.0807    3.1409   24.2968 O   0  0  0  0  0  0  0  0  0  0  0  0
   10.5635    0.9727   23.3844 C   0  0  0  0  0  0  0  0  0  0  0  0
   11.9483    1.1405   23.3854 C   0  0  0  0  0  0  0  0  0  0  0  0
   12.7481    0.3699   22.5623 C   0  0  0  0  0  0  0  0  0  0  0  0
   12.1391   -0.5649   21.7258 C   0  0  0  0  0  0  0  0  0  0  0  0
   13.0789   -1.3843   20.5072 Cl  0  0  0  0  0  0  0  0  0  0  0  0
   10.7760   -0.7896   21.7646 C   0  0  0  0  0  0  0  0  0  0  0  0
    9.9754   -0.0773   22.6629 C   0  0  0  0  0  0  0  0  0  0  0  0
   10.3478   -1.4545   21.0220 H   0  0  0  0  0  0  0  0  0  0  0  0
   13.8162    0.5379   22.4923 H   0  0  0  0  0  0  0  0  0  0  0  0
   12.3706    1.9262   24.0017 H   0  0  0  0  0  0  0  0  0  0  0  0
    6.8316    0.3427   23.9507 H   0  0  0  0  0  0  0  0  0  0  0  0
    8.1931   -0.4028   24.8315 H   0  0  0  0  0  0  0  0  0  0  0  0
    6.8274   -2.4419   20.6785 H   0  0  0  0  0  0  0  0  0  0  0  0
    5.8486   -1.7416   21.9727 H   0  0  0  0  0  0  0  0  0  0  0  0
    8.8204   -2.2496   21.9175 H   0  0  0  0  0  0  0  0  0  0  0  0
    7.3875   -3.6249   23.3753 H   0  0  0  0  0  0  0  0  0  0  0  0
    6.7827   -2.1866   24.2051 H   0  0  0  0  0  0  0  0  0  0  0  0
    8.4819   -2.6592   24.3762 H   0  0  0  0  0  0  0  0  0  0  0  0
  1  2  1  0
  2  3  1  0
  3  4  1  0
  4  5  1  0
  5  6  2  0
  6  7  1  0
  7  8  2  0
  8  9  1  0
  9 10  2  0
 10 11  1  0
 11 12  2  0
 12 13  1  0
 13 14  2  0
 13 15  1  0
 12 16  1  0
 11 17  1  0
 10 18  1  0
  8 19  1  0
  6 20  1  0
  4 21  1  0
 21 22  2  0
 21 23  1  0
 23 24  1  1
 24 25  1  0
 25 26  1  0
 26 27  1  0
 27 28  1  0
 28 29  1  0
 29 30  1  0
 30 31  1  0
 31 32  1  0
 32 33  1  0
 33 34  1  0
 33 35  1  0
 32 36  1  0
 32 37  1  0
 30 38  1  0
 30 39  1  0
 29 40  1  0
 29 41  1  0
 28 42  1  0
 27 43  1  0
 27 44  1  0
 26 45  1  0
 26 46  1  0
 25 47  1  0
 47 48  2  0
 47 49  1  0
 49 50  2  0
 50 51  1  0
 51 52  2  0
 52 53  1  0
 52 54  1  0
 54 55  2  0
 54 56  1  0
 51 57  1  0
 50 58  1  0
 24 59  1  0
 24 60  1  0
  3 61  1  0
  3 62  1  0
  2 63  1  6
  1 64  1  0
  1 65  1  0
  1 66  1  0
 23  2  1  0
 33 28  1  0
 55 49  1  0
 14  5  1  0
 55 23  1  0
 14  9  1  0
M  CHG  1  28   1
M  END
>  <cnnaffinities>  (65) 
[6.7837, 6.65074]

>  <score>  (65) 
6.7837

>  <index>  (65) 
64

>  <Smiles>  (65) 
C([C@]1(C(N(c2c(nc(c3c(c(c(c(c23)[H])[H])[H])[H])[H])[H])C(=O)[C@]21C(N(C(C([N+]1(C(C(OC(C1([H])[H])([H])[H])([H])[H])([H])[H])[H])([H])[H])([H])[H])C(=O)c1c(c(c(Cl)c(c21)[H])[H])[H])([H])[H])([H])[H])[H])([H])([H])[H]

>  <h>  (65) 
<NA>

>  <Training>  (65) 
True

>  <Success>  (65) 
True

>  <enamine_searched>  (65) 
False

>  <enamine_id>  (65) 
nan

$$$$

     RDKit          3D

 54 59  0  0  0  0  0  0  0  0999 V2000
    8.4519    3.3234   23.1131 C   0  0  0  0  0  0  0  0  0  0  0  0
    7.5262    2.3254   23.6345 N   0  0  0  0  0  0  0  0  0  0  0  0
    7.5297    2.0672   24.9744 C   0  0  0  0  0  0  0  0  0  0  0  0
    8.3187    2.6385   25.7065 O   0  0  0  0  0  0  0  0  0  0  0  0
    6.4487    1.1122   25.5141 C   0  0  0  0  0  0  0  0  0  0  0  0
    6.6252   -0.2923   25.2180 N   0  0  0  0  0  0  0  0  0  0  0  0
    7.1863   -1.2006   26.1194 C   0  0  0  0  0  0  0  0  0  0  0  0
    7.3998   -1.0108   27.2996 O   0  0  0  0  0  0  0  0  0  0  0  0
    7.3284   -2.4760   25.3647 C   0  0  0  0  0  0  0  0  0  0  0  0
    7.8656   -3.6402   25.8450 C   0  0  0  0  0  0  0  0  0  0  0  0
    7.6853   -4.8256   25.0968 C   0  0  0  0  0  0  0  0  0  0  0  0
    6.8159   -4.8343   24.0432 C   0  0  0  0  0  0  0  0  0  0  0  0
    6.5889   -6.2928   23.1371 Cl  0  0  0  0  0  0  0  0  0  0  0  0
    5.9997   -3.6648   23.6186 C   0  0  0  0  0  0  0  0  0  0  0  0
    6.6603   -2.3655   24.0750 C   0  0  1  0  0  0  0  0  0  0  0  0
    6.0985   -0.9607   24.0676 C   0  0  2  0  0  0  0  0  0  0  0  0
    7.0416   -1.3791   22.9563 C   0  0  2  0  0  0  0  0  0  0  0  0
    6.3134   -1.4305   21.6194 C   0  0  0  0  0  0  0  0  0  0  0  0
    5.3017   -2.0434   21.3248 O   0  0  0  0  0  0  0  0  0  0  0  0
    6.9301   -0.5487   20.7599 N   0  0  0  0  0  0  0  0  0  0  0  0
    6.1598    0.0377   19.7130 C   0  0  0  0  0  0  0  0  0  0  0  0
    6.4787   -0.2078   18.4039 C   0  0  0  0  0  0  0  0  0  0  0  0
    5.7816    0.2688   17.3468 N   0  0  0  0  0  0  0  0  0  0  0  0
    4.7400    1.0254   17.5874 C   0  0  0  0  0  0  0  0  0  0  0  0
    4.3011    1.3687   18.8955 C   0  0  0  0  0  0  0  0  0  0  0  0
    3.1721    2.2050   19.1052 C   0  0  0  0  0  0  0  0  0  0  0  0
    2.8073    2.5760   20.3695 C   0  0  0  0  0  0  0  0  0  0  0  0
    3.5428    2.1070   21.4830 C   0  0  0  0  0  0  0  0  0  0  0  0
    4.6173    1.2674   21.3047 C   0  0  0  0  0  0  0  0  0  0  0  0
    5.0302    0.8747   19.9983 C   0  0  0  0  0  0  0  0  0  0  0  0
    5.1673    0.8886   22.1624 H   0  0  0  0  0  0  0  0  0  0  0  0
    3.2501    2.4202   22.4811 H   0  0  0  0  0  0  0  0  0  0  0  0
    1.9548    3.2327   20.5240 H   0  0  0  0  0  0  0  0  0  0  0  0
    2.6235    2.5598   18.2361 H   0  0  0  0  0  0  0  0  0  0  0  0
    4.1883    1.4078   16.7272 H   0  0  0  0  0  0  0  0  0  0  0  0
    7.3289   -0.8424   18.1672 H   0  0  0  0  0  0  0  0  0  0  0  0
    8.1558    0.0227   21.3032 C   0  0  0  0  0  0  0  0  0  0  0  0
    8.3159   -0.6852   22.6406 C   0  0  0  0  0  0  0  0  0  0  0  0
    9.4716   -0.5977   23.3060 C   0  0  0  0  0  0  0  0  0  0  0  0
   10.4609    0.1919   22.8271 F   0  0  0  0  0  0  0  0  0  0  0  0
    9.7888   -1.1110   24.2054 H   0  0  0  0  0  0  0  0  0  0  0  0
    8.0449    1.1064   21.4367 H   0  0  0  0  0  0  0  0  0  0  0  0
    9.0131   -0.1474   20.6455 H   0  0  0  0  0  0  0  0  0  0  0  0
    5.0627   -0.7741   23.7860 H   0  0  0  0  0  0  0  0  0  0  0  0
    5.8761   -3.7258   22.5346 H   0  0  0  0  0  0  0  0  0  0  0  0
    4.9667   -3.6985   24.0097 H   0  0  0  0  0  0  0  0  0  0  0  0
    8.2154   -5.7299   25.3831 H   0  0  0  0  0  0  0  0  0  0  0  0
    8.3949   -3.6417   26.7890 H   0  0  0  0  0  0  0  0  0  0  0  0
    6.4367    1.2178   26.5966 H   0  0  0  0  0  0  0  0  0  0  0  0
    5.4694    1.4310   25.1407 H   0  0  0  0  0  0  0  0  0  0  0  0
    6.7290    2.0672   23.0747 H   0  0  0  0  0  0  0  0  0  0  0  0
    8.5342    4.1525   23.8201 H   0  0  0  0  0  0  0  0  0  0  0  0
    9.4511    2.8997   22.9471 H   0  0  0  0  0  0  0  0  0  0  0  0
    8.0744    3.7117   22.1633 H   0  0  0  0  0  0  0  0  0  0  0  0
  1  2  1  0
  2  3  1  0
  3  4  2  0
  3  5  1  0
  5  6  1  0
  6  7  1  0
  7  8  2  0
  7  9  1  0
  9 10  2  0
 10 11  1  0
 11 12  2  0
 12 13  1  0
 12 14  1  0
 15 14  1  6
 15 16  1  0
 16 17  1  0
 17 18  1  6
 18 19  2  0
 18 20  1  0
 20 21  1  0
 21 22  2  0
 22 23  1  0
 23 24  2  0
 24 25  1  0
 25 26  2  0
 26 27  1  0
 27 28  2  0
 28 29  1  0
 29 30  2  0
 29 31  1  0
 28 32  1  0
 27 33  1  0
 26 34  1  0
 24 35  1  0
 22 36  1  0
 20 37  1  0
 37 38  1  0
 38 39  2  0
 39 40  1  0
 39 41  1  0
 37 42  1  0
 37 43  1  0
 16 44  1  6
 14 45  1  0
 14 46  1  0
 11 47  1  0
 10 48  1  0
  5 49  1  0
  5 50  1  0
  2 51  1  0
  1 52  1  0
  1 53  1  0
  1 54  1  0
 16  6  1  0
 38 17  1  0
 15  9  1  0
 30 21  1  0
 17 15  1  0
 30 25  1  0
M  END
>  <cnnaffinities>  (66) 
[6.65561]

>  <score>  (66) 
6.65561

>  <index>  (66) 
65

>  <Smiles>  (66) 
C(N(C(=O)C(N1C(=O)C2=C(C(=C(Cl)C([C@]32[C@@]1([C@@]13C(=O)N(c2c(nc(c3c(c(c(c(c23)[H])[H])[H])[H])[H])[H])C(/C/1=C(\F)/[H])([H])[H])[H])([H])[H])[H])[H])([H])[H])[H])([H])([H])[H]

>  <h>  (66) 
<NA>

>  <Training>  (66) 
True

>  <Success>  (66) 
True

>  <enamine_searched>  (66) 
False

>  <enamine_id>  (66) 
nan

$$$$

     RDKit          3D

 47 50  0  0  0  0  0  0  0  0999 V2000
    8.4715    1.2727   20.2872 O   0  0  0  0  0  0  0  0  0  0  0  0
    7.7387    0.6947   21.0666 C   0  0  0  0  0  0  0  0  0  0  0  0
    6.9441   -0.5345   20.6050 C   0  0  0  0  0  0  0  0  0  0  0  0
    6.0086   -0.0696   19.5295 C   0  0  0  0  0  0  0  0  0  0  0  0
    6.2798   -0.3093   18.2096 C   0  0  0  0  0  0  0  0  0  0  0  0
    5.5911    0.2157   17.1698 N   0  0  0  0  0  0  0  0  0  0  0  0
    4.5962    1.0186   17.4563 C   0  0  0  0  0  0  0  0  0  0  0  0
    4.1871    1.3378   18.7792 C   0  0  0  0  0  0  0  0  0  0  0  0
    3.0985    2.2066   19.0368 C   0  0  0  0  0  0  0  0  0  0  0  0
    2.7601    2.5486   20.3170 C   0  0  0  0  0  0  0  0  0  0  0  0
    3.4984    2.0269   21.3989 C   0  0  0  0  0  0  0  0  0  0  0  0
    4.5385    1.1576   21.1697 C   0  0  0  0  0  0  0  0  0  0  0  0
    4.9172    0.7891   19.8510 C   0  0  0  0  0  0  0  0  0  0  0  0
    5.0745    0.7665   22.0215 H   0  0  0  0  0  0  0  0  0  0  0  0
    3.2571    2.3163   22.4181 H   0  0  0  0  0  0  0  0  0  0  0  0
    1.9322    3.2239   20.5047 H   0  0  0  0  0  0  0  0  0  0  0  0
    2.5522    2.6039   18.1871 H   0  0  0  0  0  0  0  0  0  0  0  0
    4.0566    1.4613   16.6202 H   0  0  0  0  0  0  0  0  0  0  0  0
    7.1183   -0.9543   17.9435 H   0  0  0  0  0  0  0  0  0  0  0  0
    6.3903   -1.0175   21.4127 H   0  0  0  0  0  0  0  0  0  0  0  0
    7.6620   -1.2597   20.2065 H   0  0  0  0  0  0  0  0  0  0  0  0
    7.5619    1.1311   22.3616 N   0  0  0  0  0  0  0  0  0  0  0  0
    7.4386    2.5659   22.6162 C   0  0  0  0  0  0  0  0  0  0  0  0
    8.0187    2.9437   23.9734 C   0  0  0  0  0  0  0  0  0  0  0  0
    7.5581    2.0328   25.1098 C   0  0  1  0  0  0  0  0  0  0  0  0
    6.1271    2.3131   25.5839 C   0  0  0  0  0  0  0  0  0  0  0  0
    5.7965    1.4199   26.7845 C   0  0  0  0  0  0  0  0  0  0  0  0
    5.9215   -0.0419   26.4063 C   0  0  0  0  0  0  0  0  0  0  0  0
    4.8858   -0.2999   25.5230 F   0  0  0  0  0  0  0  0  0  0  0  0
    5.6933   -0.8387   27.4994 F   0  0  0  0  0  0  0  0  0  0  0  0
    7.2262   -0.4648   25.7534 C   0  0  0  0  0  0  0  0  0  0  0  0
    7.7769    0.5530   24.7396 C   0  0  1  0  0  0  0  0  0  0  0  0
    7.1358    0.2245   23.3962 C   0  0  0  0  0  0  0  0  0  0  0  0
    6.0455    0.2171   23.5321 H   0  0  0  0  0  0  0  0  0  0  0  0
    7.4547   -0.7795   23.0991 H   0  0  0  0  0  0  0  0  0  0  0  0
    8.8519    0.3939   24.6143 H   0  0  0  0  0  0  0  0  0  0  0  0
    7.9388   -0.7143   26.5408 H   0  0  0  0  0  0  0  0  0  0  0  0
    7.0167   -1.3996   25.2275 H   0  0  0  0  0  0  0  0  0  0  0  0
    6.4716    1.6213   27.6242 H   0  0  0  0  0  0  0  0  0  0  0  0
    4.7657    1.5709   27.1137 H   0  0  0  0  0  0  0  0  0  0  0  0
    6.0595    3.3736   25.8643 H   0  0  0  0  0  0  0  0  0  0  0  0
    5.3874    2.1394   24.7880 H   0  0  0  0  0  0  0  0  0  0  0  0
    8.2034    2.2955   25.9542 H   0  0  0  0  0  0  0  0  0  0  0  0
    7.7547    3.9791   24.2301 H   0  0  0  0  0  0  0  0  0  0  0  0
    9.1119    2.8987   23.9229 H   0  0  0  0  0  0  0  0  0  0  0  0
    6.3788    2.8655   22.5637 H   0  0  0  0  0  0  0  0  0  0  0  0
    7.9682    3.0825   21.8107 H   0  0  0  0  0  0  0  0  0  0  0  0
  1  2  2  0
  2  3  1  0
  3  4  1  0
  4  5  2  0
  5  6  1  0
  6  7  2  0
  7  8  1  0
  8  9  2  0
  9 10  1  0
 10 11  2  0
 11 12  1  0
 12 13  2  0
 12 14  1  0
 11 15  1  0
 10 16  1  0
  9 17  1  0
  7 18  1  0
  5 19  1  0
  3 20  1  0
  3 21  1  0
  2 22  1  0
 22 23  1  0
 23 24  1  0
 24 25  1  0
 25 26  1  0
 26 27  1  0
 27 28  1  0
 28 29  1  0
 28 30  1  0
 28 31  1  0
 31 32  1  0
 32 33  1  0
 33 34  1  0
 33 35  1  0
 32 36  1  6
 31 37  1  0
 31 38  1  0
 27 39  1  0
 27 40  1  0
 26 41  1  0
 26 42  1  0
 25 43  1  1
 24 44  1  0
 24 45  1  0
 23 46  1  0
 23 47  1  0
 13  4  1  0
 33 22  1  0
 13  8  1  0
 32 25  1  0
M  END
>  <cnnaffinities>  (67) 
[5.4768, 5.47516, 5.52718, 5.52435, 5.30943]

>  <score>  (67) 
5.4768

>  <index>  (67) 
66

>  <Smiles>  (67) 
O=C(C(c1c(nc(c2c(c(c(c(c12)[H])[H])[H])[H])[H])[H])([H])[H])N1C(C([C@]2(C(C(C(F)(F)C([C@]2(C1([H])[H])[H])([H])[H])([H])[H])([H])[H])[H])([H])[H])([H])[H]

>  <h>  (67) 
<NA>

>  <Training>  (67) 
True

>  <Success>  (67) 
True

>  <enamine_searched>  (67) 
False

>  <enamine_id>  (67) 
nan

$$$$

     RDKit          3D

 69 74  0  0  0  0  0  0  0  0999 V2000
    5.0092    4.7217   23.4180 C   0  0  0  0  0  0  0  0  0  0  0  0
    6.4671    4.9599   23.4572 N   0  0  0  0  0  4  0  0  0  0  0  0
    7.2700    3.7266   23.1874 C   0  0  0  0  0  0  0  0  0  0  0  0
    7.5742    2.8991   24.4432 C   0  0  0  0  0  0  0  0  0  0  0  0
    8.3805    1.7440   24.0921 N   0  0  0  0  0  0  0  0  0  0  0  0
    7.7408    0.4649   23.8801 C   0  0  0  0  0  0  0  0  0  0  0  0
    8.2571   -0.2851   22.6238 C   0  0  2  0  0  0  0  0  0  0  0  0
    7.7760    0.3936   21.3245 C   0  0  0  0  0  0  0  0  0  0  0  0
    8.1907    1.4267   20.8427 O   0  0  0  0  0  0  0  0  0  0  0  0
    6.7913   -0.3803   20.7587 N   0  0  0  0  0  0  0  0  0  0  0  0
    6.0101    0.1385   19.7002 C   0  0  0  0  0  0  0  0  0  0  0  0
    6.3377   -0.1487   18.4029 C   0  0  0  0  0  0  0  0  0  0  0  0
    5.6446    0.3010   17.3307 N   0  0  0  0  0  0  0  0  0  0  0  0
    4.6077    1.0688   17.5564 C   0  0  0  0  0  0  0  0  0  0  0  0
    4.1579    1.4365   18.8574 C   0  0  0  0  0  0  0  0  0  0  0  0
    3.0192    2.2605   19.0556 C   0  0  0  0  0  0  0  0  0  0  0  0
    2.6249    2.6061   20.3179 C   0  0  0  0  0  0  0  0  0  0  0  0
    3.3471    2.1434   21.4413 C   0  0  0  0  0  0  0  0  0  0  0  0
    4.4570    1.3532   21.2787 C   0  0  0  0  0  0  0  0  0  0  0  0
    4.8843    0.9699   19.9735 C   0  0  0  0  0  0  0  0  0  0  0  0
    5.0063    1.0163   22.1521 H   0  0  0  0  0  0  0  0  0  0  0  0
    3.0347    2.4349   22.4408 H   0  0  0  0  0  0  0  0  0  0  0  0
    1.7600    3.2452   20.4661 H   0  0  0  0  0  0  0  0  0  0  0  0
    2.4858    2.6152   18.1786 H   0  0  0  0  0  0  0  0  0  0  0  0
    4.0649    1.4370   16.6859 H   0  0  0  0  0  0  0  0  0  0  0  0
    7.2043   -0.7720   18.1910 H   0  0  0  0  0  0  0  0  0  0  0  0
    6.4030   -1.5243   21.5557 C   0  0  0  0  0  0  0  0  0  0  0  0
    7.5952   -1.6907   22.5105 C   0  0  2  0  0  0  0  0  0  0  0  0
    7.1698   -2.3562   23.8178 C   0  0  0  0  0  0  0  0  0  0  0  0
    6.4642   -3.5266   23.4782 O   0  0  0  0  0  0  0  0  0  0  0  0
    6.4292   -4.5505   24.4364 C   0  0  0  0  0  0  0  0  0  0  0  0
    7.5873   -5.3957   24.1086 C   0  0  0  0  0  0  0  0  0  0  0  0
    8.7242   -4.6846   23.9199 F   0  0  0  0  0  0  0  0  0  0  0  0
    7.6291   -6.8822   24.1802 C   0  0  0  0  0  0  0  0  0  0  0  0
    7.4291   -6.7591   24.0428 C   0  0  0  0  0  0  0  0  0  0  0  0
    8.8925   -7.2279   25.0477 H   0  0  0  0  0  0  0  0  0  0  0  0
    6.5226   -6.9864   24.8263 H   0  0  0  0  0  0  0  0  0  0  0  0
    7.5788   -7.7660   23.2914 H   0  0  0  0  0  0  0  0  0  0  0  0
    6.4712   -6.6435   22.8711 H   0  0  0  0  0  0  0  0  0  0  0  0
    6.5045   -4.1425   25.4638 H   0  0  0  0  0  0  0  0  0  0  0  0
    5.4320   -5.0255   24.3438 H   0  0  0  0  0  0  0  0  0  0  0  0
    6.5005   -1.7049   24.4000 H   0  0  0  0  0  0  0  0  0  0  0  0
    8.0554   -2.5660   24.4286 H   0  0  0  0  0  0  0  0  0  0  0  0
    8.3197   -2.3494   22.0220 H   0  0  0  0  0  0  0  0  0  0  0  0
    6.2517   -2.4000   20.9209 H   0  0  0  0  0  0  0  0  0  0  0  0
    5.4622   -1.3445   22.0987 H   0  0  0  0  0  0  0  0  0  0  0  0
    9.7711   -0.2307   22.6105 C   0  0  0  0  0  0  0  0  0  0  0  0
   10.4936   -1.0598   21.7464 C   0  0  0  0  0  0  0  0  0  0  0  0
   11.8748   -0.9919   21.7186 C   0  0  0  0  0  0  0  0  0  0  0  0
   12.7311   -2.0062   20.5935 Cl  0  0  0  0  0  0  0  0  0  0  0  0
   12.5769   -0.0837   22.5125 C   0  0  0  0  0  0  0  0  0  0  0  0
   11.8583    0.8154   23.2777 C   0  0  0  0  0  0  0  0  0  0  0  0
   10.4634    0.7794   23.2926 C   0  0  0  0  0  0  0  0  0  0  0  0
    9.7225    1.9173   23.9377 C   0  0  0  0  0  0  0  0  0  0  0  0
   10.2886    2.9590   24.2637 O   0  0  0  0  0  0  0  0  0  0  0  0
   12.3625    1.5814   23.8557 H   0  0  0  0  0  0  0  0  0  0  0  0
   13.6621   -0.0742   22.4899 H   0  0  0  0  0  0  0  0  0  0  0  0
    9.9951   -1.7341   21.0573 H   0  0  0  0  0  0  0  0  0  0  0  0
    7.9093   -0.1671   24.7607 H   0  0  0  0  0  0  0  0  0  0  0  0
    6.6621    0.6339   23.7785 H   0  0  0  0  0  0  0  0  0  0  0  0
    8.1368    3.4816   25.1776 H   0  0  0  0  0  0  0  0  0  0  0  0
    6.6544    2.5388   24.9235 H   0  0  0  0  0  0  0  0  0  0  0  0
    8.2064    4.0235   22.7267 H   0  0  0  0  0  0  0  0  0  0  0  0
    6.7294    3.1069   22.4704 H   0  0  0  0  0  0  0  0  0  0  0  0
    6.7027    5.6895   22.7531 H   0  0  0  0  0  0  0  0  0  0  0  0
    6.7251    5.2906   24.4150 H   0  0  0  0  0  0  0  0  0  0  0  0
    4.6950    4.0568   24.2260 H   0  0  0  0  0  0  0  0  0  0  0  0
    4.7332    4.2399   22.4778 H   0  0  0  0  0  0  0  0  0  0  0  0
    4.4685    5.6607   23.5051 H   0  0  0  0  0  0  0  0  0  0  0  0
  1  2  1  0
  2  3  1  0
  3  4  1  0
  4  5  1  0
  5  6  1  0
  7  6  1  1
  7  8  1  0
  8  9  2  0
  8 10  1  0
 10 11  1  0
 11 12  2  0
 12 13  1  0
 13 14  2  0
 14 15  1  0
 15 16  2  0
 16 17  1  0
 17 18  2  0
 18 19  1  0
 19 20  2  0
 19 21  1  0
 18 22  1  0
 17 23  1  0
 16 24  1  0
 14 25  1  0
 12 26  1  0
 10 27  1  0
 27 28  1  0
 28 29  1  0
 29 30  1  0
 30 31  1  0
 31 32  1  0
 32 33  1  0
 32 34  1  0
 34 35  1  0
 35 36  1  0
 35 37  1  0
 34 38  1  0
 34 39  1  0
 31 40  1  0
 31 41  1  0
 29 42  1  0
 29 43  1  0
 28 44  1  6
 27 45  1  0
 27 46  1  0
  7 47  1  0
 47 48  2  0
 48 49  1  0
 49 50  1  0
 49 51  2  0
 51 52  1  0
 52 53  2  0
 53 54  1  0
 54 55  2  0
 52 56  1  0
 51 57  1  0
 48 58  1  0
  6 59  1  0
  6 60  1  0
  4 61  1  0
  4 62  1  0
  3 63  1  0
  3 64  1  0
  2 65  1  0
  2 66  1  0
  1 67  1  0
  1 68  1  0
  1 69  1  0
 54  5  1  0
 28  7  1  0
 35 32  1  0
 53 47  1  0
 20 11  1  0
 20 15  1  0
M  CHG  1   2   1
M  END
>  <cnnaffinities>  (68) 
[6.47845]

>  <score>  (68) 
6.47845

>  <index>  (68) 
67

>  <Smiles>  (68) 
C([N+](C(C(N1C([C@@]2(C(=O)N(c3c(nc(c4c(c(c(c(c34)[H])[H])[H])[H])[H])[H])C([C@@]2(C(OC(C2(F)C(C2([H])[H])([H])[H])([H])[H])([H])[H])[H])([H])[H])c2c(c(Cl)c(c(c2C1=O)[H])[H])[H])([H])[H])([H])[H])([H])[H])([H])[H])([H])([H])[H]

>  <h>  (68) 
<NA>

>  <Training>  (68) 
True

>  <Success>  (68) 
True

>  <enamine_searched>  (68) 
False

>  <enamine_id>  (68) 
nan

$$$$

     RDKit          3D

 57 62  0  0  0  0  0  0  0  0999 V2000
    5.4014    4.9786   21.5236 C   0  0  0  0  0  0  0  0  0  0  0  0
    6.3752    4.5194   22.5566 C   0  0  0  0  0  0  0  0  0  0  0  0
    6.2956    3.5151   23.3814 N   0  0  0  0  0  0  0  0  0  0  0  0
    7.5219    3.5496   24.0037 C   0  0  0  0  0  0  0  0  0  0  0  0
    7.9646    2.5141   24.9993 C   0  0  0  0  0  0  0  0  0  0  0  0
    8.7274    1.4370   24.3834 N   0  0  0  0  0  0  0  0  0  0  0  0
    8.1016    0.1432   24.1541 C   0  0  0  0  0  0  0  0  0  0  0  0
    8.3821   -0.4126   22.7335 C   0  0  2  0  0  0  0  0  0  0  0  0
    7.6699    0.4489   21.6490 C   0  0  0  0  0  0  0  0  0  0  0  0
    7.7945    1.6381   21.4687 O   0  0  0  0  0  0  0  0  0  0  0  0
    6.8807   -0.3790   20.8764 N   0  0  0  0  0  0  0  0  0  0  0  0
    6.1261    0.1070   19.7812 C   0  0  0  0  0  0  0  0  0  0  0  0
    6.4411   -0.2270   18.4868 C   0  0  0  0  0  0  0  0  0  0  0  0
    5.7693    0.2232   17.4012 N   0  0  0  0  0  0  0  0  0  0  0  0
    4.7483    1.0208   17.6013 C   0  0  0  0  0  0  0  0  0  0  0  0
    4.2888    1.4184   18.8882 C   0  0  0  0  0  0  0  0  0  0  0  0
    3.1556    2.2588   19.0658 C   0  0  0  0  0  0  0  0  0  0  0  0
    2.7297    2.6027   20.3202 C   0  0  0  0  0  0  0  0  0  0  0  0
    3.4129    2.1125   21.4547 C   0  0  0  0  0  0  0  0  0  0  0  0
    4.5094    1.3014   21.3094 C   0  0  0  0  0  0  0  0  0  0  0  0
    4.9905    0.9445   20.0191 C   0  0  0  0  0  0  0  0  0  0  0  0
    5.0199    0.9217   22.1871 H   0  0  0  0  0  0  0  0  0  0  0  0
    3.0812    2.3901   22.4520 H   0  0  0  0  0  0  0  0  0  0  0  0
    1.8728    3.2592   20.4439 H   0  0  0  0  0  0  0  0  0  0  0  0
    2.6460    2.6222   18.1784 H   0  0  0  0  0  0  0  0  0  0  0  0
    4.2272    1.3859   16.7174 H   0  0  0  0  0  0  0  0  0  0  0  0
    7.2889   -0.8738   18.2646 H   0  0  0  0  0  0  0  0  0  0  0  0
    7.1127   -1.7851   21.1135 C   0  0  0  0  0  0  0  0  0  0  0  0
    7.7972   -1.8459   22.4995 C   0  0  2  0  0  0  0  0  0  0  0  0
    6.8272   -2.3814   23.5646 C   0  0  0  0  0  0  0  0  0  0  0  0
    7.3054   -2.4618   24.5456 H   0  0  0  0  0  0  0  0  0  0  0  0
    5.9399   -1.7452   23.6614 H   0  0  0  0  0  0  0  0  0  0  0  0
    6.4913   -3.3868   23.2847 H   0  0  0  0  0  0  0  0  0  0  0  0
    8.6374   -2.5475   22.4655 H   0  0  0  0  0  0  0  0  0  0  0  0
    6.1607   -2.3294   21.0951 H   0  0  0  0  0  0  0  0  0  0  0  0
    7.7656   -2.1963   20.3379 H   0  0  0  0  0  0  0  0  0  0  0  0
    9.8932   -0.3406   22.5179 C   0  0  0  0  0  0  0  0  0  0  0  0
   10.5239   -1.1586   21.5723 C   0  0  0  0  0  0  0  0  0  0  0  0
   11.8848   -1.0277   21.3735 C   0  0  0  0  0  0  0  0  0  0  0  0
   12.4847   -1.7794   20.4347 F   0  0  0  0  0  0  0  0  0  0  0  0
   12.6510   -0.0678   22.0246 C   0  0  0  0  0  0  0  0  0  0  0  0
   12.0207    0.7789   22.9120 C   0  0  0  0  0  0  0  0  0  0  0  0
   10.6496    0.6613   23.1358 C   0  0  0  0  0  0  0  0  0  0  0  0
   10.0026    1.7091   23.9762 C   0  0  0  0  0  0  0  0  0  0  0  0
   10.5713    2.7574   24.2580 O   0  0  0  0  0  0  0  0  0  0  0  0
   12.5419    1.5900   23.4098 H   0  0  0  0  0  0  0  0  0  0  0  0
   13.6907    0.0531   21.7512 H   0  0  0  0  0  0  0  0  0  0  0  0
    9.9718   -1.8168   20.9101 H   0  0  0  0  0  0  0  0  0  0  0  0
    7.0258    0.2833   24.2780 H   0  0  0  0  0  0  0  0  0  0  0  0
    8.4553   -0.6012   24.8857 H   0  0  0  0  0  0  0  0  0  0  0  0
    8.5758    2.9844   25.7738 H   0  0  0  0  0  0  0  0  0  0  0  0
    7.0724    2.0759   25.4538 H   0  0  0  0  0  0  0  0  0  0  0  0
    8.2766    4.5484   23.6477 N   0  0  0  0  0  0  0  0  0  0  0  0
    7.5254    5.1948   22.6807 O   0  0  0  0  0  0  0  0  0  0  0  0
    5.6435    5.9915   21.2001 H   0  0  0  0  0  0  0  0  0  0  0  0
    4.3948    4.9465   21.9393 H   0  0  0  0  0  0  0  0  0  0  0  0
    5.4227    4.3010   20.6652 H   0  0  0  0  0  0  0  0  0  0  0  0
  1  2  1  0
  2  3  2  0
  3  4  1  0
  4  5  1  0
  5  6  1  0
  6  7  1  0
  8  7  1  1
  8  9  1  0
  9 10  2  0
  9 11  1  0
 11 12  1  0
 12 13  2  0
 13 14  1  0
 14 15  2  0
 15 16  1  0
 16 17  2  0
 17 18  1  0
 18 19  2  0
 19 20  1  0
 20 21  2  0
 20 22  1  0
 19 23  1  0
 18 24  1  0
 17 25  1  0
 15 26  1  0
 13 27  1  0
 11 28  1  0
 28 29  1  0
 29 30  1  0
 30 31  1  0
 30 32  1  0
 30 33  1  0
 29 34  1  6
 28 35  1  0
 28 36  1  0
  8 37  1  0
 37 38  2  0
 38 39  1  0
 39 40  1  0
 39 41  2  0
 41 42  1  0
 42 43  2  0
 43 44  1  0
 44 45  2  0
 42 46  1  0
 41 47  1  0
 38 48  1  0
  7 49  1  0
  7 50  1  0
  5 51  1  0
  5 52  1  0
  4 53  2  0
 53 54  1  0
  1 55  1  0
  1 56  1  0
  1 57  1  0
 54  2  1  0
 44  6  1  0
 29  8  1  0
 43 37  1  0
 21 12  1  0
 21 16  1  0
M  END
>  <cnnaffinities>  (69) 
[6.5963]

>  <score>  (69) 
6.5963

>  <index>  (69) 
68

>  <Smiles>  (69) 
C(c1nc(C(N2C([C@@]3(C(=O)N(c4c(nc(c5c(c(c(c(c45)[H])[H])[H])[H])[H])[H])C([C@@]3(C([H])([H])[H])[H])([H])[H])c3c(c(F)c(c(c3C2=O)[H])[H])[H])([H])[H])([H])[H])no1)([H])([H])[H]

>  <h>  (69) 
<NA>

>  <Training>  (69) 
True

>  <Success>  (69) 
True

>  <enamine_searched>  (69) 
False

>  <enamine_id>  (69) 
nan

$$$$

     RDKit          3D

 64 68  0  0  0  0  0  0  0  0999 V2000
    2.5733   -3.6633   29.0470 C   0  0  0  0  0  0  0  0  0  0  0  0
    3.9324   -3.6787   28.3518 C   0  0  0  0  0  0  0  0  0  0  0  0
    3.8348   -3.6563   26.8412 C   0  0  0  0  0  0  0  0  0  0  0  0
    3.4326   -2.6667   26.2596 O   0  0  0  0  0  0  0  0  0  0  0  0
    4.2433   -4.8126   26.1830 N   0  0  0  0  0  0  0  0  0  0  0  0
    4.0888   -6.1281   26.8062 C   0  0  0  0  0  0  0  0  0  0  0  0
    3.5644   -7.1040   25.7674 C   0  0  0  0  0  0  0  0  0  0  0  0
    4.6054   -7.2415   24.6595 C   0  0  0  0  0  0  0  0  0  0  0  0
    5.0785   -5.8910   24.1582 C   0  0  0  0  0  0  0  0  0  0  0  0
    5.7228   -5.7659   22.9262 C   0  0  0  0  0  0  0  0  0  0  0  0
    6.1751   -4.5440   22.4489 C   0  0  0  0  0  0  0  0  0  0  0  0
    5.9941   -3.4041   23.2340 C   0  0  0  0  0  0  0  0  0  0  0  0
    6.4589   -2.1355   22.7754 N   0  0  0  0  0  0  0  0  0  0  0  0
    7.3874   -1.3637   23.6016 C   0  0  0  0  0  0  0  0  0  0  0  0
    8.8475   -1.4673   23.1882 C   0  0  0  0  0  0  0  0  0  0  0  0
    9.3894   -2.7490   23.2414 C   0  0  0  0  0  0  0  0  0  0  0  0
   10.7159   -2.9672   22.9294 C   0  0  0  0  0  0  0  0  0  0  0  0
   11.5328   -1.9330   22.5053 C   0  0  0  0  0  0  0  0  0  0  0  0
   10.9966   -0.6531   22.4292 C   0  0  0  0  0  0  0  0  0  0  0  0
   12.0446    0.6617   21.9387 Cl  0  0  0  0  0  0  0  0  0  0  0  0
    9.6630   -0.4058   22.7711 C   0  0  0  0  0  0  0  0  0  0  0  0
    9.3081    0.6267   22.7361 H   0  0  0  0  0  0  0  0  0  0  0  0
   12.5556   -2.1310   22.2199 H   0  0  0  0  0  0  0  0  0  0  0  0
   11.1169   -3.9554   23.0614 H   0  0  0  0  0  0  0  0  0  0  0  0
    8.7600   -3.5835   23.5330 H   0  0  0  0  0  0  0  0  0  0  0  0
    7.2900   -1.7949   24.5998 H   0  0  0  0  0  0  0  0  0  0  0  0
    7.0637   -0.3224   23.6633 H   0  0  0  0  0  0  0  0  0  0  0  0
    6.0616   -1.7640   21.5058 C   0  0  0  0  0  0  0  0  0  0  0  0
    5.1974   -2.3757   20.9040 O   0  0  0  0  0  0  0  0  0  0  0  0
    6.7896   -0.5766   20.8981 C   0  0  0  0  0  0  0  0  0  0  0  0
    6.0376    0.0482   19.7814 C   0  0  0  0  0  0  0  0  0  0  0  0
    6.3835   -0.2100   18.4817 C   0  0  0  0  0  0  0  0  0  0  0  0
    5.7353    0.2702   17.3963 N   0  0  0  0  0  0  0  0  0  0  0  0
    4.6769    1.0169   17.6110 C   0  0  0  0  0  0  0  0  0  0  0  0
    4.1946    1.3328   18.9118 C   0  0  0  0  0  0  0  0  0  0  0  0
    3.0367    2.1085   19.1290 C   0  0  0  0  0  0  0  0  0  0  0  0
    2.2974    2.4347   18.0554 F   0  0  0  0  0  0  0  0  0  0  0  0
    2.6536    2.5318   20.3682 C   0  0  0  0  0  0  0  0  0  0  0  0
    3.4157    2.1312   21.4832 C   0  0  0  0  0  0  0  0  0  0  0  0
    4.5005    1.3050   21.3346 C   0  0  0  0  0  0  0  0  0  0  0  0
    4.9146    0.8827   20.0402 C   0  0  0  0  0  0  0  0  0  0  0  0
    5.0511    0.9896   22.2148 H   0  0  0  0  0  0  0  0  0  0  0  0
    3.1365    2.4932   22.4686 H   0  0  0  0  0  0  0  0  0  0  0  0
    1.7884    3.1739   20.4756 H   0  0  0  0  0  0  0  0  0  0  0  0
    4.1512    1.4068   16.7437 H   0  0  0  0  0  0  0  0  0  0  0  0
    7.2469   -0.8438   18.2677 H   0  0  0  0  0  0  0  0  0  0  0  0
    6.9962    0.1544   21.6784 H   0  0  0  0  0  0  0  0  0  0  0  0
    7.7566   -0.9538   20.5456 H   0  0  0  0  0  0  0  0  0  0  0  0
    5.3722   -3.4976   24.4683 C   0  0  0  0  0  0  0  0  0  0  0  0
    4.8818   -4.7281   24.9241 C   0  0  0  0  0  0  0  0  0  0  0  0
    5.2502   -2.5989   25.0604 H   0  0  0  0  0  0  0  0  0  0  0  0
    6.6517   -4.4684   21.4750 H   0  0  0  0  0  0  0  0  0  0  0  0
    5.8681   -6.6532   22.3127 H   0  0  0  0  0  0  0  0  0  0  0  0
    5.4692   -7.8019   25.0516 H   0  0  0  0  0  0  0  0  0  0  0  0
    4.2042   -7.8329   23.8263 H   0  0  0  0  0  0  0  0  0  0  0  0
    3.3599   -8.0743   26.2311 H   0  0  0  0  0  0  0  0  0  0  0  0
    2.6177   -6.7189   25.3685 H   0  0  0  0  0  0  0  0  0  0  0  0
    5.0517   -6.4787   27.2120 H   0  0  0  0  0  0  0  0  0  0  0  0
    3.3845   -6.0353   27.6374 H   0  0  0  0  0  0  0  0  0  0  0  0
    4.5318   -4.5341   28.6719 H   0  0  0  0  0  0  0  0  0  0  0  0
    4.4861   -2.7769   28.6298 H   0  0  0  0  0  0  0  0  0  0  0  0
    2.7307   -3.5190   30.1199 H   0  0  0  0  0  0  0  0  0  0  0  0
    2.0212   -4.5990   28.8991 H   0  0  0  0  0  0  0  0  0  0  0  0
    1.9572   -2.8383   28.6775 H   0  0  0  0  0  0  0  0  0  0  0  0
  1  2  1  0
  2  3  1  0
  3  4  2  0
  3  5  1  0
  5  6  1  0
  6  7  1  0
  7  8  1  0
  8  9  1  0
  9 10  2  0
 10 11  1  0
 11 12  2  0
 12 13  1  0
 13 14  1  0
 14 15  1  0
 15 16  2  0
 16 17  1  0
 17 18  2  0
 18 19  1  0
 19 20  1  0
 19 21  2  0
 21 22  1  0
 18 23  1  0
 17 24  1  0
 16 25  1  0
 14 26  1  0
 14 27  1  0
 13 28  1  0
 28 29  2  0
 28 30  1  0
 30 31  1  0
 31 32  2  0
 32 33  1  0
 33 34  2  0
 34 35  1  0
 35 36  2  0
 36 37  1  0
 36 38  1  0
 38 39  2  0
 39 40  1  0
 40 41  2  0
 40 42  1  0
 39 43  1  0
 38 44  1  0
 34 45  1  0
 32 46  1  0
 30 47  1  0
 30 48  1  0
 12 49  1  0
 49 50  2  0
 49 51  1  0
 11 52  1  0
 10 53  1  0
  8 54  1  0
  8 55  1  0
  7 56  1  0
  7 57  1  0
  6 58  1  0
  6 59  1  0
  2 60  1  0
  2 61  1  0
  1 62  1  0
  1 63  1  0
  1 64  1  0
 50  5  1  0
 50  9  1  0
 21 15  1  0
 41 31  1  0
 41 35  1  0
M  END
>  <cnnaffinities>  (70) 
[6.93288, 6.63351]

>  <score>  (70) 
6.93288

>  <index>  (70) 
69

>  <Smiles>  (70) 
C(C(C(=O)N1C(C(C(c2c(c(c(N(C(c3c(c(c(c(Cl)c3[H])[H])[H])[H])([H])[H])C(=O)C(c3c(nc(c4c(F)c(c(c(c34)[H])[H])[H])[H])[H])([H])[H])c(c12)[H])[H])[H])([H])[H])([H])[H])([H])[H])([H])[H])([H])([H])[H]

>  <h>  (70) 
<NA>

>  <Training>  (70) 
True

>  <Success>  (70) 
True

>  <enamine_searched>  (70) 
False

>  <enamine_id>  (70) 
nan

$$$$

     RDKit          3D

 57 62  0  0  0  0  0  0  0  0999 V2000
    7.2701   -2.3729   23.5502 C   0  0  0  0  0  0  0  0  0  0  0  0
    8.0379   -1.8305   22.3365 C   0  0  1  0  0  0  0  0  0  0  0  0
    7.1006   -1.7220   21.1117 C   0  0  0  0  0  0  0  0  0  0  0  0
    6.9496   -0.3071   20.8789 N   0  0  0  0  0  0  0  0  0  0  0  0
    6.1661    0.1685   19.7956 C   0  0  0  0  0  0  0  0  0  0  0  0
    6.4600   -0.1913   18.5026 C   0  0  0  0  0  0  0  0  0  0  0  0
    5.7761    0.2339   17.4152 N   0  0  0  0  0  0  0  0  0  0  0  0
    4.7494    1.0237   17.6122 C   0  0  0  0  0  0  0  0  0  0  0  0
    4.2971    1.4258   18.9004 C   0  0  0  0  0  0  0  0  0  0  0  0
    3.1520    2.2497   19.0699 C   0  0  0  0  0  0  0  0  0  0  0  0
    2.7301    2.6059   20.3215 C   0  0  0  0  0  0  0  0  0  0  0  0
    3.4197    2.1388   21.4621 C   0  0  0  0  0  0  0  0  0  0  0  0
    4.5262    1.3329   21.3244 C   0  0  0  0  0  0  0  0  0  0  0  0
    5.0103    0.9753   20.0366 C   0  0  0  0  0  0  0  0  0  0  0  0
    5.0338    0.9475   22.2036 H   0  0  0  0  0  0  0  0  0  0  0  0
    3.0985    2.4395   22.4557 H   0  0  0  0  0  0  0  0  0  0  0  0
    1.8634    3.2511   20.4381 H   0  0  0  0  0  0  0  0  0  0  0  0
    2.6302    2.5914   18.1803 H   0  0  0  0  0  0  0  0  0  0  0  0
    4.2113    1.3756   16.7319 H   0  0  0  0  0  0  0  0  0  0  0  0
    7.3073   -0.8424   18.2877 H   0  0  0  0  0  0  0  0  0  0  0  0
    7.9095    0.4654   21.4974 C   0  0  0  0  0  0  0  0  0  0  0  0
    8.0946    1.6387   21.2627 O   0  0  0  0  0  0  0  0  0  0  0  0
    8.6982   -0.4198   22.4956 C   0  0  1  0  0  0  0  0  0  0  0  0
    8.5963    0.1506   23.9383 C   0  0  0  0  0  0  0  0  0  0  0  0
    9.2314    1.4533   24.0578 N   0  0  0  0  0  0  0  0  0  0  0  0
    8.5782    2.4840   24.8529 C   0  0  0  0  0  0  0  0  0  0  0  0
    7.3771    3.0843   24.2076 C   0  0  0  0  0  0  0  0  0  0  0  0
    6.1089    2.7746   24.5706 N   0  0  0  0  0  0  0  0  0  0  0  0
    5.3309    3.4806   23.7965 N   0  0  0  0  0  0  0  0  0  0  0  0
    6.1227    4.1879   23.0205 N   0  0  0  0  0  0  0  0  0  0  0  0
    5.6298    4.9313   21.8842 C   0  0  0  0  0  0  0  0  0  0  0  0
    6.2915    5.7819   21.7196 H   0  0  0  0  0  0  0  0  0  0  0  0
    4.6210    5.2738   22.1126 H   0  0  0  0  0  0  0  0  0  0  0  0
    5.6202    4.2786   21.0039 H   0  0  0  0  0  0  0  0  0  0  0  0
    7.4118    3.9884   23.2431 N   0  0  0  0  0  0  0  0  0  0  0  0
    8.2239    2.0843   25.7989 H   0  0  0  0  0  0  0  0  0  0  0  0
    9.3346    3.2461   25.0505 H   0  0  0  0  0  0  0  0  0  0  0  0
   10.4687    1.7113   23.5253 C   0  0  0  0  0  0  0  0  0  0  0  0
   11.1099    2.7120   23.8243 O   0  0  0  0  0  0  0  0  0  0  0  0
   10.9999    0.6819   22.5693 C   0  0  0  0  0  0  0  0  0  0  0  0
   12.3298    0.8145   22.1555 C   0  0  0  0  0  0  0  0  0  0  0  0
   12.9512   -0.1758   21.4091 C   0  0  0  0  0  0  0  0  0  0  0  0
   12.1639   -1.2681   21.0409 C   0  0  0  0  0  0  0  0  0  0  0  0
   12.7034   -2.2153   20.2593 F   0  0  0  0  0  0  0  0  0  0  0  0
   10.8082   -1.3524   21.3230 C   0  0  0  0  0  0  0  0  0  0  0  0
   10.1921   -0.3878   22.1356 C   0  0  0  0  0  0  0  0  0  0  0  0
   10.2909   -2.1873   20.8634 H   0  0  0  0  0  0  0  0  0  0  0  0
   13.9719   -0.0966   21.0493 H   0  0  0  0  0  0  0  0  0  0  0  0
   12.8708    1.7077   22.4594 H   0  0  0  0  0  0  0  0  0  0  0  0
    7.5525    0.2659   24.2363 H   0  0  0  0  0  0  0  0  0  0  0  0
    9.0702   -0.5733   24.6188 H   0  0  0  0  0  0  0  0  0  0  0  0
    6.1185   -2.1699   21.3003 H   0  0  0  0  0  0  0  0  0  0  0  0
    7.5020   -2.1950   20.2137 H   0  0  0  0  0  0  0  0  0  0  0  0
    8.8313   -2.5578   22.1451 H   0  0  0  0  0  0  0  0  0  0  0  0
    6.4122   -1.7399   23.8045 H   0  0  0  0  0  0  0  0  0  0  0  0
    7.9101   -2.4556   24.4325 H   0  0  0  0  0  0  0  0  0  0  0  0
    6.8904   -3.3769   23.3317 H   0  0  0  0  0  0  0  0  0  0  0  0
  1  2  1  0
  2  3  1  0
  3  4  1  0
  4  5  1  0
  5  6  2  0
  6  7  1  0
  7  8  2  0
  8  9  1  0
  9 10  2  0
 10 11  1  0
 11 12  2  0
 12 13  1  0
 13 14  2  0
 13 15  1  0
 12 16  1  0
 11 17  1  0
 10 18  1  0
  8 19  1  0
  6 20  1  0
  4 21  1  0
 21 22  2  0
 21 23  1  0
 23 24  1  1
 24 25  1  0
 25 26  1  0
 26 27  1  0
 27 28  1  0
 28 29  2  0
 29 30  1  0
 30 31  1  0
 31 32  1  0
 31 33  1  0
 31 34  1  0
 30 35  1  0
 26 36  1  0
 26 37  1  0
 25 38  1  0
 38 39  2  0
 38 40  1  0
 40 41  2  0
 41 42  1  0
 42 43  2  0
 43 44  1  0
 43 45  1  0
 45 46  2  0
 45 47  1  0
 42 48  1  0
 41 49  1  0
 24 50  1  0
 24 51  1  0
  3 52  1  0
  3 53  1  0
  2 54  1  6
  1 55  1  0
  1 56  1  0
  1 57  1  0
 23  2  1  0
 35 27  2  0
 46 40  1  0
 14  5  1  0
 46 23  1  0
 14  9  1  0
M  END
>  <cnnaffinities>  (71) 
[6.43624]

>  <score>  (71) 
6.43624

>  <index>  (71) 
70

>  <Smiles>  (71) 
C([C@]1(C(N(c2c(nc(c3c(c(c(c(c23)[H])[H])[H])[H])[H])[H])C(=O)[C@]21C(N(C(c1nnn(C([H])([H])[H])n1)([H])[H])C(=O)c1c(c(c(F)c(c21)[H])[H])[H])([H])[H])([H])[H])[H])([H])([H])[H]

>  <h>  (71) 
<NA>

>  <Training>  (71) 
True

>  <Success>  (71) 
True

>  <enamine_searched>  (71) 
False

>  <enamine_id>  (71) 
nan

$$$$

     RDKit          3D

 59 64  0  0  0  0  0  0  0  0999 V2000
    7.1299   -2.2736   23.6093 C   0  0  0  0  0  0  0  0  0  0  0  0
    7.9533   -1.8587   22.3836 C   0  0  1  0  0  0  0  0  0  0  0  0
    7.0482   -1.7534   21.1430 C   0  0  0  0  0  0  0  0  0  0  0  0
    6.9174   -0.3379   20.9021 N   0  0  0  0  0  0  0  0  0  0  0  0
    6.1431    0.1321   19.8109 C   0  0  0  0  0  0  0  0  0  0  0  0
    6.4532   -0.2202   18.5211 C   0  0  0  0  0  0  0  0  0  0  0  0
    5.7841    0.2169   17.4278 N   0  0  0  0  0  0  0  0  0  0  0  0
    4.7595    1.0104   17.6165 C   0  0  0  0  0  0  0  0  0  0  0  0
    4.2916    1.3992   18.9030 C   0  0  0  0  0  0  0  0  0  0  0  0
    3.1528    2.2288   19.0639 C   0  0  0  0  0  0  0  0  0  0  0  0
    2.7159    2.5710   20.3111 C   0  0  0  0  0  0  0  0  0  0  0  0
    3.3813    2.0810   21.4565 C   0  0  0  0  0  0  0  0  0  0  0  0
    4.4879    1.2784   21.3317 C   0  0  0  0  0  0  0  0  0  0  0  0
    4.9847    0.9358   20.0454 C   0  0  0  0  0  0  0  0  0  0  0  0
    4.9863    0.8893   22.2144 H   0  0  0  0  0  0  0  0  0  0  0  0
    3.0118    2.3471   22.4432 H   0  0  0  0  0  0  0  0  0  0  0  0
    1.8552    3.2214   20.4315 H   0  0  0  0  0  0  0  0  0  0  0  0
    2.6448    2.5840   18.1717 H   0  0  0  0  0  0  0  0  0  0  0  0
    4.2334    1.3760   16.7327 H   0  0  0  0  0  0  0  0  0  0  0  0
    7.3002   -0.8737   18.3103 H   0  0  0  0  0  0  0  0  0  0  0  0
    7.9190    0.4164   21.4833 C   0  0  0  0  0  0  0  0  0  0  0  0
    8.1174    1.5869   21.2642 O   0  0  0  0  0  0  0  0  0  0  0  0
    8.7081   -0.4886   22.4696 C   0  0  1  0  0  0  0  0  0  0  0  0
    8.6686    0.1200   23.8916 C   0  0  0  0  0  0  0  0  0  0  0  0
    9.4243    1.3528   23.9815 N   0  0  0  0  0  0  0  0  0  0  0  0
    8.8689    2.4691   24.7189 C   0  0  0  0  0  0  0  0  0  0  0  0
    7.7927    3.1925   23.9721 C   0  0  0  0  0  0  0  0  0  0  0  0
    6.5029    3.0417   24.1870 N   0  0  0  0  0  0  0  0  0  0  0  0
    5.9002    3.9460   23.3509 C   0  0  0  0  0  0  0  0  0  0  0  0
    6.8337    4.6232   22.6182 C   0  0  0  0  0  0  0  0  0  0  0  0
    8.0550    4.1383   23.0306 N   0  0  0  0  0  0  0  0  0  0  0  0
    9.3686    4.5275   22.5448 C   0  0  0  0  0  0  0  0  0  0  0  0
    9.2839    5.4683   22.0004 H   0  0  0  0  0  0  0  0  0  0  0  0
   10.0499    4.6879   23.3845 H   0  0  0  0  0  0  0  0  0  0  0  0
    9.7818    3.7679   21.8745 H   0  0  0  0  0  0  0  0  0  0  0  0
    6.7678    5.3593   21.8308 H   0  0  0  0  0  0  0  0  0  0  0  0
    4.8276    4.0669   23.3490 H   0  0  0  0  0  0  0  0  0  0  0  0
    9.7056    3.1334   24.9527 H   0  0  0  0  0  0  0  0  0  0  0  0
    8.4361    2.0869   25.6448 H   0  0  0  0  0  0  0  0  0  0  0  0
   10.7064    1.4338   23.5365 C   0  0  0  0  0  0  0  0  0  0  0  0
   11.4673    2.3348   23.8752 O   0  0  0  0  0  0  0  0  0  0  0  0
   11.1178    0.3764   22.5729 C   0  0  0  0  0  0  0  0  0  0  0  0
   12.4537    0.3721   22.1736 C   0  0  0  0  0  0  0  0  0  0  0  0
   12.9361   -0.6511   21.3824 C   0  0  0  0  0  0  0  0  0  0  0  0
   12.0404   -1.6431   20.9911 C   0  0  0  0  0  0  0  0  0  0  0  0
   12.5099   -2.6945   20.2930 F   0  0  0  0  0  0  0  0  0  0  0  0
   10.6941   -1.5977   21.2897 C   0  0  0  0  0  0  0  0  0  0  0  0
   10.1933   -0.5707   22.0968 C   0  0  0  0  0  0  0  0  0  0  0  0
   10.0578   -2.3823   20.8906 H   0  0  0  0  0  0  0  0  0  0  0  0
   13.9743   -0.7254   21.0789 H   0  0  0  0  0  0  0  0  0  0  0  0
   13.1032    1.1659   22.5274 H   0  0  0  0  0  0  0  0  0  0  0  0
    9.0854   -0.6152   24.5915 H   0  0  0  0  0  0  0  0  0  0  0  0
    7.6485    0.3481   24.1977 H   0  0  0  0  0  0  0  0  0  0  0  0
    7.4920   -2.2408   20.2741 H   0  0  0  0  0  0  0  0  0  0  0  0
    6.0606   -2.2003   21.3038 H   0  0  0  0  0  0  0  0  0  0  0  0
    8.6827   -2.6601   22.2523 H   0  0  0  0  0  0  0  0  0  0  0  0
    6.6595   -3.2459   23.4230 H   0  0  0  0  0  0  0  0  0  0  0  0
    6.3345   -1.5537   23.8280 H   0  0  0  0  0  0  0  0  0  0  0  0
    7.7553   -2.3824   24.4995 H   0  0  0  0  0  0  0  0  0  0  0  0
  1  2  1  0
  2  3  1  0
  3  4  1  0
  4  5  1  0
  5  6  2  0
  6  7  1  0
  7  8  2  0
  8  9  1  0
  9 10  2  0
 10 11  1  0
 11 12  2  0
 12 13  1  0
 13 14  2  0
 13 15  1  0
 12 16  1  0
 11 17  1  0
 10 18  1  0
  8 19  1  0
  6 20  1  0
  4 21  1  0
 21 22  2  0
 21 23  1  0
 23 24  1  1
 24 25  1  0
 25 26  1  0
 26 27  1  0
 27 28  2  0
 28 29  1  0
 29 30  2  0
 30 31  1  0
 31 32  1  0
 32 33  1  0
 32 34  1  0
 32 35  1  0
 30 36  1  0
 29 37  1  0
 26 38  1  0
 26 39  1  0
 25 40  1  0
 40 41  2  0
 40 42  1  0
 42 43  2  0
 43 44  1  0
 44 45  2  0
 45 46  1  0
 45 47  1  0
 47 48  2  0
 47 49  1  0
 44 50  1  0
 43 51  1  0
 24 52  1  0
 24 53  1  0
  3 54  1  0
  3 55  1  0
  2 56  1  6
  1 57  1  0
  1 58  1  0
  1 59  1  0
 23  2  1  0
 31 27  1  0
 48 42  1  0
 14  5  1  0
 48 23  1  0
 14  9  1  0
M  END
>  <cnnaffinities>  (72) 
[6.60282]

>  <score>  (72) 
6.60282

>  <index>  (72) 
71

>  <Smiles>  (72) 
C([C@]1(C(N(c2c(nc(c3c(c(c(c(c23)[H])[H])[H])[H])[H])[H])C(=O)[C@]21C(N(C(c1nc(c(n1C([H])([H])[H])[H])[H])([H])[H])C(=O)c1c(c(c(F)c(c21)[H])[H])[H])([H])[H])([H])[H])[H])([H])([H])[H]

>  <h>  (72) 
<NA>

>  <Training>  (72) 
True

>  <Success>  (72) 
True

>  <enamine_searched>  (72) 
False

>  <enamine_id>  (72) 
nan

$$$$

     RDKit          3D

 60 64  0  0  0  0  0  0  0  0999 V2000
    7.8082   -8.4617   22.8858 C   0  0  0  0  0  0  0  0  0  0  0  0
    6.8537   -7.3866   22.7239 N   0  0  0  0  0  0  0  0  0  0  0  0
    7.0401   -6.5138   21.7002 C   0  0  0  0  0  0  0  0  0  0  0  0
    7.9088   -6.6634   20.8577 O   0  0  0  0  0  0  0  0  0  0  0  0
    6.1440   -5.2789   21.7238 C   0  0  0  0  0  0  0  0  0  0  0  0
    6.6476   -4.3058   22.6752 N   0  0  0  0  0  0  0  0  0  0  0  0
    7.7521   -3.4226   22.3234 C   0  0  0  0  0  0  0  0  0  0  0  0
    7.3930   -1.9558   22.6640 C   0  0  2  0  0  0  0  0  0  0  0  0
    6.3234   -1.4573   21.6697 C   0  0  0  0  0  0  0  0  0  0  0  0
    5.1987   -1.8929   21.5302 O   0  0  0  0  0  0  0  0  0  0  0  0
    6.8658   -0.4451   20.9020 N   0  0  0  0  0  0  0  0  0  0  0  0
    6.1371    0.0935   19.8192 C   0  0  0  0  0  0  0  0  0  0  0  0
    6.4825   -0.2068   18.5258 C   0  0  0  0  0  0  0  0  0  0  0  0
    5.8167    0.2327   17.4336 N   0  0  0  0  0  0  0  0  0  0  0  0
    4.7783    1.0067   17.6296 C   0  0  0  0  0  0  0  0  0  0  0  0
    4.3126    1.3926   18.9174 C   0  0  0  0  0  0  0  0  0  0  0  0
    3.1768    2.2257   19.0702 C   0  0  0  0  0  0  0  0  0  0  0  0
    2.7738    2.6264   20.3137 C   0  0  0  0  0  0  0  0  0  0  0  0
    3.4778    2.1983   21.4607 C   0  0  0  0  0  0  0  0  0  0  0  0
    4.5679    1.3745   21.3400 C   0  0  0  0  0  0  0  0  0  0  0  0
    5.0114    0.9435   20.0570 C   0  0  0  0  0  0  0  0  0  0  0  0
    5.0956    1.0391   22.2274 H   0  0  0  0  0  0  0  0  0  0  0  0
    3.1519    2.5278   22.4426 H   0  0  0  0  0  0  0  0  0  0  0  0
    1.9206    3.2872   20.4247 H   0  0  0  0  0  0  0  0  0  0  0  0
    2.6540    2.5501   18.1752 H   0  0  0  0  0  0  0  0  0  0  0  0
    4.2425    1.3623   16.7492 H   0  0  0  0  0  0  0  0  0  0  0  0
    7.3275   -0.8648   18.3267 H   0  0  0  0  0  0  0  0  0  0  0  0
    8.3128   -0.4058   20.9892 C   0  0  0  0  0  0  0  0  0  0  0  0
    8.5766   -0.9842   22.3832 C   0  0  2  0  0  0  0  0  0  0  0  0
    9.8998   -1.5375   22.4815 N   0  0  0  0  0  0  0  0  0  0  0  0
   10.5207   -1.7515   23.6811 C   0  0  0  0  0  0  0  0  0  0  0  0
   10.0294   -1.3870   24.7356 O   0  0  0  0  0  0  0  0  0  0  0  0
   11.8383   -2.4743   23.5587 C   0  0  0  0  0  0  0  0  0  0  0  0
   11.6915   -3.4692   23.1315 H   0  0  0  0  0  0  0  0  0  0  0  0
   12.2980   -2.5772   24.5374 H   0  0  0  0  0  0  0  0  0  0  0  0
   12.5151   -1.9263   22.9011 H   0  0  0  0  0  0  0  0  0  0  0  0
   10.3490   -1.8337   21.6327 H   0  0  0  0  0  0  0  0  0  0  0  0
    8.5224   -0.1778   23.1105 H   0  0  0  0  0  0  0  0  0  0  0  0
    8.6765    0.6198   20.8976 H   0  0  0  0  0  0  0  0  0  0  0  0
    8.7992   -1.0185   20.2110 H   0  0  0  0  0  0  0  0  0  0  0  0
    6.8687   -1.9313   24.0910 C   0  0  0  0  0  0  0  0  0  0  0  0
    6.7689   -0.7212   24.7891 C   0  0  0  0  0  0  0  0  0  0  0  0
    6.2518   -0.6935   26.0713 C   0  0  0  0  0  0  0  0  0  0  0  0
    6.0161    0.8410   26.8605 Cl  0  0  0  0  0  0  0  0  0  0  0  0
    5.8876   -1.8611   26.7412 C   0  0  0  0  0  0  0  0  0  0  0  0
    5.9467   -3.0534   26.0470 C   0  0  0  0  0  0  0  0  0  0  0  0
    6.3735   -3.0836   24.7208 C   0  0  0  0  0  0  0  0  0  0  0  0
    6.1830   -4.3498   23.9528 C   0  0  0  0  0  0  0  0  0  0  0  0
    5.5998   -5.3339   24.4045 O   0  0  0  0  0  0  0  0  0  0  0  0
    5.6281   -3.9830   26.5016 H   0  0  0  0  0  0  0  0  0  0  0  0
    5.5437   -1.8250   27.7702 H   0  0  0  0  0  0  0  0  0  0  0  0
    7.1005    0.2135   24.3532 H   0  0  0  0  0  0  0  0  0  0  0  0
    7.9384   -3.5285   21.2588 H   0  0  0  0  0  0  0  0  0  0  0  0
    8.6742   -3.7065   22.8491 H   0  0  0  0  0  0  0  0  0  0  0  0
    6.1149   -4.8063   20.7378 H   0  0  0  0  0  0  0  0  0  0  0  0
    5.1238   -5.5503   22.0084 H   0  0  0  0  0  0  0  0  0  0  0  0
    6.2831   -7.0771   23.4982 H   0  0  0  0  0  0  0  0  0  0  0  0
    8.7057   -8.1568   23.4452 H   0  0  0  0  0  0  0  0  0  0  0  0
    8.1075   -8.7797   21.8945 H   0  0  0  0  0  0  0  0  0  0  0  0
    7.3275   -9.3127   23.3617 H   0  0  0  0  0  0  0  0  0  0  0  0
  1  2  1  0
  2  3  1  0
  3  4  2  0
  3  5  1  0
  5  6  1  0
  6  7  1  0
  8  7  1  6
  8  9  1  0
  9 10  2  0
  9 11  1  0
 11 12  1  0
 12 13  2  0
 13 14  1  0
 14 15  2  0
 15 16  1  0
 16 17  2  0
 17 18  1  0
 18 19  2  0
 19 20  1  0
 20 21  2  0
 20 22  1  0
 19 23  1  0
 18 24  1  0
 17 25  1  0
 15 26  1  0
 13 27  1  0
 11 28  1  0
 28 29  1  0
 29 30  1  0
 30 31  1  0
 31 32  2  0
 31 33  1  0
 33 34  1  0
 33 35  1  0
 33 36  1  0
 30 37  1  0
 29 38  1  1
 28 39  1  0
 28 40  1  0
  8 41  1  0
 41 42  2  0
 42 43  1  0
 43 44  1  0
 43 45  2  0
 45 46  1  0
 46 47  2  0
 47 48  1  0
 48 49  2  0
 46 50  1  0
 45 51  1  0
 42 52  1  0
  7 53  1  0
  7 54  1  0
  5 55  1  0
  5 56  1  0
  2 57  1  0
  1 58  1  0
  1 59  1  0
  1 60  1  0
 48  6  1  0
 29  8  1  0
 47 41  1  0
 21 12  1  0
 21 16  1  0
M  END
>  <cnnaffinities>  (73) 
[6.94244]

>  <score>  (73) 
6.94244

>  <index>  (73) 
72

>  <Smiles>  (73) 
C(N(C(=O)C(N1C([C@@]2(C(=O)N(c3c(nc(c4c(c(c(c(c34)[H])[H])[H])[H])[H])[H])C([C@@]2(N(C(=O)C([H])([H])[H])[H])[H])([H])[H])c2c(c(Cl)c(c(c2C1=O)[H])[H])[H])([H])[H])([H])[H])[H])([H])([H])[H]

>  <h>  (73) 
<NA>

>  <Training>  (73) 
True

>  <Success>  (73) 
True

>  <enamine_searched>  (73) 
False

>  <enamine_id>  (73) 
nan

$$$$

     RDKit          3D

 56 61  0  0  0  0  0  0  0  0999 V2000
    8.0568   -3.0077   23.1436 C   0  0  0  0  0  0  0  0  0  0  0  0
    8.0951   -1.8591   22.1344 C   0  0  1  0  0  0  0  0  0  0  0  0
    6.8323   -1.7850   21.2534 C   0  0  0  0  0  0  0  0  0  0  0  0
    6.8297   -0.4065   20.8214 N   0  0  0  0  0  0  0  0  0  0  0  0
    6.0621    0.0875   19.7508 C   0  0  0  0  0  0  0  0  0  0  0  0
    6.3907   -0.2306   18.4580 C   0  0  0  0  0  0  0  0  0  0  0  0
    5.7313    0.2327   17.3732 N   0  0  0  0  0  0  0  0  0  0  0  0
    4.7054    1.0240   17.5842 C   0  0  0  0  0  0  0  0  0  0  0  0
    4.2420    1.4046   18.8760 C   0  0  0  0  0  0  0  0  0  0  0  0
    3.1068    2.2381   19.0556 C   0  0  0  0  0  0  0  0  0  0  0  0
    2.6911    2.5888   20.3114 C   0  0  0  0  0  0  0  0  0  0  0  0
    3.3828    2.1109   21.4473 C   0  0  0  0  0  0  0  0  0  0  0  0
    4.4695    1.2906   21.3012 C   0  0  0  0  0  0  0  0  0  0  0  0
    4.9356    0.9266   20.0038 C   0  0  0  0  0  0  0  0  0  0  0  0
    4.9948    0.9137   22.1741 H   0  0  0  0  0  0  0  0  0  0  0  0
    3.0487    2.4005   22.4415 H   0  0  0  0  0  0  0  0  0  0  0  0
    1.8351    3.2424   20.4424 H   0  0  0  0  0  0  0  0  0  0  0  0
    2.5875    2.5959   18.1710 H   0  0  0  0  0  0  0  0  0  0  0  0
    4.1859    1.3948   16.7038 H   0  0  0  0  0  0  0  0  0  0  0  0
    7.2525   -0.8719   18.2716 H   0  0  0  0  0  0  0  0  0  0  0  0
    7.5927    0.4360   21.5974 C   0  0  0  0  0  0  0  0  0  0  0  0
    7.7191    1.6224   21.3942 O   0  0  0  0  0  0  0  0  0  0  0  0
    8.2647   -0.4168   22.7016 C   0  0  1  0  0  0  0  0  0  0  0  0
    7.5038   -0.2288   24.0280 C   0  0  0  0  0  0  0  0  0  0  0  0
    7.4930    1.1763   24.4019 N   0  0  0  0  0  0  0  0  0  0  0  0
    6.2162    1.7579   24.8111 C   0  0  0  0  0  0  0  0  0  0  0  0
    5.9536    3.2258   24.3942 C   0  0  0  0  0  0  0  0  0  0  0  0
    6.3609    3.6640   25.7834 N   0  0  0  0  0  4  0  0  0  0  0  0
    6.1210    2.2602   26.2708 C   0  0  0  0  0  0  0  0  0  0  0  0
    5.1258    2.1221   26.6931 H   0  0  0  0  0  0  0  0  0  0  0  0
    6.8826    1.9158   26.9670 H   0  0  0  0  0  0  0  0  0  0  0  0
    5.9710    4.4882   26.2562 H   0  0  0  0  0  0  0  0  0  0  0  0
    7.4039    3.7417   25.7178 H   0  0  0  0  0  0  0  0  0  0  0  0
    4.9019    3.4305   24.1780 H   0  0  0  0  0  0  0  0  0  0  0  0
    6.5973    3.6212   23.6088 H   0  0  0  0  0  0  0  0  0  0  0  0
    5.4556    1.0308   24.5006 H   0  0  0  0  0  0  0  0  0  0  0  0
    8.6592    1.8921   24.4390 C   0  0  0  0  0  0  0  0  0  0  0  0
    8.7692    2.9842   25.0125 O   0  0  0  0  0  0  0  0  0  0  0  0
    9.8216    1.2805   23.7093 C   0  0  0  0  0  0  0  0  0  0  0  0
   11.0816    1.8758   23.8220 C   0  0  0  0  0  0  0  0  0  0  0  0
   12.1716    1.3558   23.1507 C   0  0  0  0  0  0  0  0  0  0  0  0
   11.9918    0.2308   22.3509 C   0  0  0  0  0  0  0  0  0  0  0  0
   13.3217   -0.4054   21.4364 Cl  0  0  0  0  0  0  0  0  0  0  0  0
   10.7603   -0.3827   22.2325 C   0  0  0  0  0  0  0  0  0  0  0  0
    9.6588    0.1278   22.9183 C   0  0  0  0  0  0  0  0  0  0  0  0
   10.6777   -1.2569   21.5995 H   0  0  0  0  0  0  0  0  0  0  0  0
   13.1583    1.8032   23.2259 H   0  0  0  0  0  0  0  0  0  0  0  0
   11.2084    2.7577   24.4380 H   0  0  0  0  0  0  0  0  0  0  0  0
    6.4696   -0.5741   23.9053 H   0  0  0  0  0  0  0  0  0  0  0  0
    7.9913   -0.8229   24.8178 H   0  0  0  0  0  0  0  0  0  0  0  0
    5.9151   -2.0396   21.8133 H   0  0  0  0  0  0  0  0  0  0  0  0
    6.8725   -2.4471   20.3842 H   0  0  0  0  0  0  0  0  0  0  0  0
    8.9243   -2.0195   21.4414 H   0  0  0  0  0  0  0  0  0  0  0  0
    8.0545   -3.9758   22.6289 H   0  0  0  0  0  0  0  0  0  0  0  0
    7.1513   -2.9619   23.7618 H   0  0  0  0  0  0  0  0  0  0  0  0
    8.9193   -2.9904   23.8197 H   0  0  0  0  0  0  0  0  0  0  0  0
  1  2  1  0
  2  3  1  0
  3  4  1  0
  4  5  1  0
  5  6  2  0
  6  7  1  0
  7  8  2  0
  8  9  1  0
  9 10  2  0
 10 11  1  0
 11 12  2  0
 12 13  1  0
 13 14  2  0
 13 15  1  0
 12 16  1  0
 11 17  1  0
 10 18  1  0
  8 19  1  0
  6 20  1  0
  4 21  1  0
 21 22  2  0
 21 23  1  0
 23 24  1  1
 24 25  1  0
 25 26  1  0
 26 27  1  0
 27 28  1  0
 28 29  1  0
 29 30  1  0
 29 31  1  0
 28 32  1  0
 28 33  1  0
 27 34  1  0
 27 35  1  0
 26 36  1  0
 25 37  1  0
 37 38  2  0
 37 39  1  0
 39 40  2  0
 40 41  1  0
 41 42  2  0
 42 43  1  0
 42 44  1  0
 44 45  2  0
 44 46  1  0
 41 47  1  0
 40 48  1  0
 24 49  1  0
 24 50  1  0
  3 51  1  0
  3 52  1  0
  2 53  1  6
  1 54  1  0
  1 55  1  0
  1 56  1  0
 23  2  1  0
 29 26  1  0
 45 39  1  0
 14  5  1  0
 45 23  1  0
 14  9  1  0
M  CHG  1  28   1
M  END
>  <cnnaffinities>  (74) 
[6.10574, 6.09064]

>  <score>  (74) 
6.10574

>  <index>  (74) 
73

>  <Smiles>  (74) 
C([C@]1(C(N(c2c(nc(c3c(c(c(c(c23)[H])[H])[H])[H])[H])[H])C(=O)[C@]21C(N(C1(C([N+](C1([H])[H])([H])[H])([H])[H])[H])C(=O)c1c(c(c(Cl)c(c21)[H])[H])[H])([H])[H])([H])[H])[H])([H])([H])[H]

>  <h>  (74) 
<NA>

>  <Training>  (74) 
True

>  <Success>  (74) 
True

>  <enamine_searched>  (74) 
False

>  <enamine_id>  (74) 
nan

$$$$

     RDKit          3D

 55 60  0  0  0  0  0  0  0  0999 V2000
    7.0615   -2.4343   23.4855 C   0  0  0  0  0  0  0  0  0  0  0  0
    7.9534   -1.8453   22.3889 C   0  0  1  0  0  0  0  0  0  0  0  0
    7.2370   -1.7398   21.0310 C   0  0  0  0  0  0  0  0  0  0  0  0
    6.8950   -0.3413   20.9101 N   0  0  0  0  0  0  0  0  0  0  0  0
    6.1254    0.1236   19.8202 C   0  0  0  0  0  0  0  0  0  0  0  0
    6.4417   -0.2273   18.5314 C   0  0  0  0  0  0  0  0  0  0  0  0
    5.7810    0.2118   17.4347 N   0  0  0  0  0  0  0  0  0  0  0  0
    4.7569    1.0072   17.6222 C   0  0  0  0  0  0  0  0  0  0  0  0
    4.2856    1.3986   18.9072 C   0  0  0  0  0  0  0  0  0  0  0  0
    3.1548    2.2416   19.0695 C   0  0  0  0  0  0  0  0  0  0  0  0
    2.7276    2.5980   20.3166 C   0  0  0  0  0  0  0  0  0  0  0  0
    3.3795    2.0954   21.4643 C   0  0  0  0  0  0  0  0  0  0  0  0
    4.4594    1.2578   21.3355 C   0  0  0  0  0  0  0  0  0  0  0  0
    4.9660    0.9270   20.0512 C   0  0  0  0  0  0  0  0  0  0  0  0
    4.9408    0.8451   22.2178 H   0  0  0  0  0  0  0  0  0  0  0  0
    3.0407    2.3909   22.4520 H   0  0  0  0  0  0  0  0  0  0  0  0
    1.8829    3.2704   20.4317 H   0  0  0  0  0  0  0  0  0  0  0  0
    2.6496    2.5982   18.1751 H   0  0  0  0  0  0  0  0  0  0  0  0
    4.2401    1.3747   16.7353 H   0  0  0  0  0  0  0  0  0  0  0  0
    7.2912   -0.8801   18.3312 H   0  0  0  0  0  0  0  0  0  0  0  0
    7.7452    0.4730   21.6349 C   0  0  0  0  0  0  0  0  0  0  0  0
    7.8532    1.6694   21.4779 O   0  0  0  0  0  0  0  0  0  0  0  0
    8.5197   -0.4156   22.6459 C   0  0  1  0  0  0  0  0  0  0  0  0
    8.2889    0.0698   24.0995 C   0  0  0  0  0  0  0  0  0  0  0  0
    8.8753    1.3735   24.3488 N   0  0  0  0  0  0  0  0  0  0  0  0
    8.1088    2.3683   25.0746 C   0  0  0  0  0  0  0  0  0  0  0  0
    7.3565    3.3009   24.1622 C   0  0  0  0  0  0  0  0  0  0  0  0
    7.8333    4.4335   23.4380 C   0  0  0  0  0  0  0  0  0  0  0  0
    6.7280    4.8836   22.8002 C   0  0  0  0  0  0  0  0  0  0  0  0
    5.6691    4.1350   23.1231 O   0  0  0  0  0  0  0  0  0  0  0  0
    6.0716    3.1277   23.9730 N   0  0  0  0  0  0  0  0  0  0  0  0
    6.5244    5.6876   22.1018 H   0  0  0  0  0  0  0  0  0  0  0  0
    8.8412    4.8167   23.4051 H   0  0  0  0  0  0  0  0  0  0  0  0
    7.3855    1.8535   25.7126 H   0  0  0  0  0  0  0  0  0  0  0  0
    8.8086    2.9271   25.6992 H   0  0  0  0  0  0  0  0  0  0  0  0
   10.0710    1.7688   23.8197 C   0  0  0  0  0  0  0  0  0  0  0  0
   10.5910    2.8444   24.1015 O   0  0  0  0  0  0  0  0  0  0  0  0
   10.7313    0.7764   22.9210 C   0  0  0  0  0  0  0  0  0  0  0  0
   12.0870    0.9450   22.6513 C   0  0  0  0  0  0  0  0  0  0  0  0
   12.7815    0.0117   21.9027 C   0  0  0  0  0  0  0  0  0  0  0  0
   12.0679   -1.0819   21.4134 C   0  0  0  0  0  0  0  0  0  0  0  0
   12.7122   -2.0152   20.6892 F   0  0  0  0  0  0  0  0  0  0  0  0
   10.7058   -1.2169   21.5894 C   0  0  0  0  0  0  0  0  0  0  0  0
   10.0154   -0.3021   22.3902 C   0  0  0  0  0  0  0  0  0  0  0  0
   10.2053   -2.0279   21.0756 H   0  0  0  0  0  0  0  0  0  0  0  0
   13.8372    0.1153   21.6834 H   0  0  0  0  0  0  0  0  0  0  0  0
   12.5827    1.8133   23.0682 H   0  0  0  0  0  0  0  0  0  0  0  0
    8.7161   -0.6787   24.7838 H   0  0  0  0  0  0  0  0  0  0  0  0
    7.2185    0.1561   24.2953 H   0  0  0  0  0  0  0  0  0  0  0  0
    7.9120   -2.0338   20.2184 H   0  0  0  0  0  0  0  0  0  0  0  0
    6.3321   -2.3501   20.9687 H   0  0  0  0  0  0  0  0  0  0  0  0
    8.7885   -2.5442   22.3131 H   0  0  0  0  0  0  0  0  0  0  0  0
    6.7581   -3.4473   23.2058 H   0  0  0  0  0  0  0  0  0  0  0  0
    6.1579   -1.8431   23.6638 H   0  0  0  0  0  0  0  0  0  0  0  0
    7.6110   -2.5168   24.4280 H   0  0  0  0  0  0  0  0  0  0  0  0
  1  2  1  0
  2  3  1  0
  3  4  1  0
  4  5  1  0
  5  6  2  0
  6  7  1  0
  7  8  2  0
  8  9  1  0
  9 10  2  0
 10 11  1  0
 11 12  2  0
 12 13  1  0
 13 14  2  0
 13 15  1  0
 12 16  1  0
 11 17  1  0
 10 18  1  0
  8 19  1  0
  6 20  1  0
  4 21  1  0
 21 22  2  0
 21 23  1  0
 23 24  1  1
 24 25  1  0
 25 26  1  0
 26 27  1  0
 27 28  1  0
 28 29  2  0
 29 30  1  0
 30 31  1  0
 29 32  1  0
 28 33  1  0
 26 34  1  0
 26 35  1  0
 25 36  1  0
 36 37  2  0
 36 38  1  0
 38 39  2  0
 39 40  1  0
 40 41  2  0
 41 42  1  0
 41 43  1  0
 43 44  2  0
 43 45  1  0
 40 46  1  0
 39 47  1  0
 24 48  1  0
 24 49  1  0
  3 50  1  0
  3 51  1  0
  2 52  1  6
  1 53  1  0
  1 54  1  0
  1 55  1  0
 23  2  1  0
 31 27  2  0
 44 38  1  0
 14  5  1  0
 44 23  1  0
 14  9  1  0
M  END
>  <cnnaffinities>  (75) 
[6.27039, 6.10521, 6.27596]

>  <score>  (75) 
6.27039

>  <index>  (75) 
74

>  <Smiles>  (75) 
C([C@]1(C(N(c2c(nc(c3c(c(c(c(c23)[H])[H])[H])[H])[H])[H])C(=O)[C@]21C(N(C(c1c(c(on1)[H])[H])([H])[H])C(=O)c1c(c(c(F)c(c21)[H])[H])[H])([H])[H])([H])[H])[H])([H])([H])[H]

>  <h>  (75) 
<NA>

>  <Training>  (75) 
True

>  <Success>  (75) 
True

>  <enamine_searched>  (75) 
False

>  <enamine_id>  (75) 
nan

$$$$

     RDKit          3D

 70 75  0  0  0  0  0  0  0  0999 V2000
    6.8644    8.1930   31.6423 C   0  0  0  0  0  0  0  0  0  0  0  0
    6.3337    7.0663   30.9825 O   0  0  0  0  0  0  0  0  0  0  0  0
    7.1663    6.0422   30.6591 C   0  0  0  0  0  0  0  0  0  0  0  0
    8.5246    6.0040   30.9601 C   0  0  0  0  0  0  0  0  0  0  0  0
    9.2577    4.8833   30.5714 C   0  0  0  0  0  0  0  0  0  0  0  0
    8.6514    3.8318   29.8970 C   0  0  0  0  0  0  0  0  0  0  0  0
    7.2872    3.8703   29.5825 C   0  0  0  0  0  0  0  0  0  0  0  0
    6.6463    2.7310   28.8103 C   0  0  0  0  0  0  0  0  0  0  0  0
    6.7601    2.8907   27.3614 N   0  0  0  0  0  0  0  0  0  0  0  0
    6.3205    1.8817   26.5597 C   0  0  0  0  0  0  0  0  0  0  0  0
    5.7083    0.9212   26.9971 O   0  0  0  0  0  0  0  0  0  0  0  0
    6.5883    2.0616   25.0597 C   0  0  0  0  0  0  0  0  0  0  0  0
    7.6901    1.2729   24.5611 N   0  0  0  0  0  0  0  0  0  0  0  0
    7.5034   -0.0886   24.1033 C   0  0  0  0  0  0  0  0  0  0  0  0
    8.2766   -0.3653   22.7873 C   0  0  2  0  0  0  0  0  0  0  0  0
    7.6523    0.4695   21.6486 C   0  0  0  0  0  0  0  0  0  0  0  0
    7.7582    1.6653   21.4855 O   0  0  0  0  0  0  0  0  0  0  0  0
    6.9506   -0.3745   20.8250 N   0  0  0  0  0  0  0  0  0  0  0  0
    6.1467    0.1169   19.7713 C   0  0  0  0  0  0  0  0  0  0  0  0
    6.4453   -0.2238   18.4761 C   0  0  0  0  0  0  0  0  0  0  0  0
    5.7646    0.2197   17.3952 N   0  0  0  0  0  0  0  0  0  0  0  0
    4.7466    1.0170   17.6047 C   0  0  0  0  0  0  0  0  0  0  0  0
    4.2971    1.4108   18.8966 C   0  0  0  0  0  0  0  0  0  0  0  0
    3.1639    2.2503   19.0683 C   0  0  0  0  0  0  0  0  0  0  0  0
    2.7375    2.6035   20.3179 C   0  0  0  0  0  0  0  0  0  0  0  0
    3.4161    2.1119   21.4589 C   0  0  0  0  0  0  0  0  0  0  0  0
    4.5112    1.2971   21.3179 C   0  0  0  0  0  0  0  0  0  0  0  0
    5.0020    0.9421   20.0263 C   0  0  0  0  0  0  0  0  0  0  0  0
    5.0213    0.9234   22.2019 H   0  0  0  0  0  0  0  0  0  0  0  0
    3.0717    2.3935   22.4484 H   0  0  0  0  0  0  0  0  0  0  0  0
    1.8867    3.2674   20.4397 H   0  0  0  0  0  0  0  0  0  0  0  0
    2.6541    2.6099   18.1780 H   0  0  0  0  0  0  0  0  0  0  0  0
    4.2204    1.3840   16.7242 H   0  0  0  0  0  0  0  0  0  0  0  0
    7.2905   -0.8785   18.2680 H   0  0  0  0  0  0  0  0  0  0  0  0
    6.9540   -1.7586   21.2541 C   0  0  0  0  0  0  0  0  0  0  0  0
    8.0905   -1.8291   22.2926 C   0  0  2  0  0  0  0  0  0  0  0  0
    7.8510   -2.8995   23.3651 C   0  0  0  0  0  0  0  0  0  0  0  0
    7.7972   -3.9001   22.9185 H   0  0  0  0  0  0  0  0  0  0  0  0
    6.9013   -2.7209   23.8835 H   0  0  0  0  0  0  0  0  0  0  0  0
    8.6454   -2.9159   24.1224 H   0  0  0  0  0  0  0  0  0  0  0  0
    9.0117   -2.0816   21.7681 H   0  0  0  0  0  0  0  0  0  0  0  0
    5.9924   -2.0326   21.7108 H   0  0  0  0  0  0  0  0  0  0  0  0
    7.1121   -2.4111   20.3931 H   0  0  0  0  0  0  0  0  0  0  0  0
    9.7082    0.0845   22.9685 C   0  0  0  0  0  0  0  0  0  0  0  0
   10.7139   -0.3665   22.0994 C   0  0  0  0  0  0  0  0  0  0  0  0
   12.0130    0.0711   22.2855 C   0  0  0  0  0  0  0  0  0  0  0  0
   13.2631   -0.4213   21.1811 Cl  0  0  0  0  0  0  0  0  0  0  0  0
   12.3447    0.9567   23.3133 C   0  0  0  0  0  0  0  0  0  0  0  0
   11.3279    1.4835   24.0831 C   0  0  0  0  0  0  0  0  0  0  0  0
   10.0102    1.0912   23.8911 C   0  0  0  0  0  0  0  0  0  0  0  0
    8.9148    1.8628   24.5657 C   0  0  0  0  0  0  0  0  0  0  0  0
    9.0802    2.9775   25.0622 O   0  0  0  0  0  0  0  0  0  0  0  0
   11.4979    2.2452   24.8231 H   0  0  0  0  0  0  0  0  0  0  0  0
   13.3755    1.2677   23.4563 H   0  0  0  0  0  0  0  0  0  0  0  0
   10.4904   -1.0087   21.2495 H   0  0  0  0  0  0  0  0  0  0  0  0
    6.4325   -0.2544   23.9476 H   0  0  0  0  0  0  0  0  0  0  0  0
    7.8542   -0.7723   24.8868 H   0  0  0  0  0  0  0  0  0  0  0  0
    6.8112    3.1044   24.8202 H   0  0  0  0  0  0  0  0  0  0  0  0
    5.6812    1.7608   24.5306 H   0  0  0  0  0  0  0  0  0  0  0  0
    7.3724    3.5940   26.9660 H   0  0  0  0  0  0  0  0  0  0  0  0
    7.1078    1.7751   29.0938 H   0  0  0  0  0  0  0  0  0  0  0  0
    5.5829    2.6354   29.0660 H   0  0  0  0  0  0  0  0  0  0  0  0
    6.5535    4.9808   29.9811 C   0  0  0  0  0  0  0  0  0  0  0  0
    5.4841    5.0574   29.7946 H   0  0  0  0  0  0  0  0  0  0  0  0
    9.2357    2.9624   29.6178 H   0  0  0  0  0  0  0  0  0  0  0  0
   10.3197    4.8384   30.8024 H   0  0  0  0  0  0  0  0  0  0  0  0
    9.0132    6.8235   31.4799 H   0  0  0  0  0  0  0  0  0  0  0  0
    6.0104    8.8618   31.7723 H   0  0  0  0  0  0  0  0  0  0  0  0
    7.2863    7.9287   32.6219 H   0  0  0  0  0  0  0  0  0  0  0  0
    7.6404    8.6892   31.0426 H   0  0  0  0  0  0  0  0  0  0  0  0
  1  2  1  0
  2  3  1  0
  3  4  2  0
  4  5  1  0
  5  6  2  0
  6  7  1  0
  7  8  1  0
  8  9  1  0
  9 10  1  0
 10 11  2  0
 10 12  1  0
 12 13  1  0
 13 14  1  0
 15 14  1  1
 15 16  1  0
 16 17  2  0
 16 18  1  0
 18 19  1  0
 19 20  2  0
 20 21  1  0
 21 22  2  0
 22 23  1  0
 23 24  2  0
 24 25  1  0
 25 26  2  0
 26 27  1  0
 27 28  2  0
 27 29  1  0
 26 30  1  0
 25 31  1  0
 24 32  1  0
 22 33  1  0
 20 34  1  0
 18 35  1  0
 35 36  1  0
 36 37  1  0
 37 38  1  0
 37 39  1  0
 37 40  1  0
 36 41  1  6
 35 42  1  0
 35 43  1  0
 15 44  1  0
 44 45  2  0
 45 46  1  0
 46 47  1  0
 46 48  2  0
 48 49  1  0
 49 50  2  0
 50 51  1  0
 51 52  2  0
 49 53  1  0
 48 54  1  0
 45 55  1  0
 14 56  1  0
 14 57  1  0
 12 58  1  0
 12 59  1  0
  9 60  1  0
  8 61  1  0
  8 62  1  0
  7 63  2  0
 63 64  1  0
  6 65  1  0
  5 66  1  0
  4 67  1  0
  1 68  1  0
  1 69  1  0
  1 70  1  0
 63  3  1  0
 51 13  1  0
 36 15  1  0
 50 44  1  0
 28 19  1  0
 28 23  1  0
M  END
>  <cnnaffinities>  (76) 
[6.59896]

>  <score>  (76) 
6.59896

>  <index>  (76) 
75

>  <Smiles>  (76) 
C(Oc1c(c(c(c(C(N(C(=O)C(N2C([C@@]3(C(=O)N(c4c(nc(c5c(c(c(c(c45)[H])[H])[H])[H])[H])[H])C([C@@]3(C([H])([H])[H])[H])([H])[H])c3c(c(Cl)c(c(c3C2=O)[H])[H])[H])([H])[H])([H])[H])[H])([H])[H])c1[H])[H])[H])[H])([H])([H])[H]

>  <h>  (76) 
<NA>

>  <Training>  (76) 
True

>  <Success>  (76) 
True

>  <enamine_searched>  (76) 
False

>  <enamine_id>  (76) 
nan

$$$$

     RDKit          3D

 61 65  0  0  0  0  0  0  0  0999 V2000
    7.4786   -2.5266   23.7804 C   0  0  0  0  0  0  0  0  0  0  0  0
    7.8741   -1.7498   22.5162 C   0  0  1  0  0  0  0  0  0  0  0  0
    6.6986   -1.6210   21.5217 C   0  0  0  0  0  0  0  0  0  0  0  0
    6.9605   -0.3708   20.8325 N   0  0  0  0  0  0  0  0  0  0  0  0
    6.1530    0.1204   19.7658 C   0  0  0  0  0  0  0  0  0  0  0  0
    6.4489   -0.2143   18.4699 C   0  0  0  0  0  0  0  0  0  0  0  0
    5.7573    0.2224   17.3916 N   0  0  0  0  0  0  0  0  0  0  0  0
    4.7406    1.0224   17.5971 C   0  0  0  0  0  0  0  0  0  0  0  0
    4.2991    1.4245   18.8898 C   0  0  0  0  0  0  0  0  0  0  0  0
    3.1750    2.2781   19.0691 C   0  0  0  0  0  0  0  0  0  0  0  0
    2.7750    2.6479   20.3249 C   0  0  0  0  0  0  0  0  0  0  0  0
    3.4643    2.1618   21.4564 C   0  0  0  0  0  0  0  0  0  0  0  0
    4.5468    1.3267   21.3081 C   0  0  0  0  0  0  0  0  0  0  0  0
    5.0134    0.9539   20.0137 C   0  0  0  0  0  0  0  0  0  0  0  0
    5.0588    0.9460   22.1864 H   0  0  0  0  0  0  0  0  0  0  0  0
    3.1411    2.4564   22.4513 H   0  0  0  0  0  0  0  0  0  0  0  0
    1.9310    3.3213   20.4503 H   0  0  0  0  0  0  0  0  0  0  0  0
    2.6568    2.6382   18.1861 H   0  0  0  0  0  0  0  0  0  0  0  0
    4.2160    1.3871   16.7142 H   0  0  0  0  0  0  0  0  0  0  0  0
    7.2901   -0.8687   18.2471 H   0  0  0  0  0  0  0  0  0  0  0  0
    7.8680    0.4432   21.4686 C   0  0  0  0  0  0  0  0  0  0  0  0
    8.1586    1.5653   21.1032 O   0  0  0  0  0  0  0  0  0  0  0  0
    8.4247   -0.2988   22.7126 C   0  0  1  0  0  0  0  0  0  0  0  0
    7.8793    0.3598   24.0026 C   0  0  0  0  0  0  0  0  0  0  0  0
    8.4365    1.6783   24.2316 N   0  0  0  0  0  0  0  0  0  0  0  0
    7.5482    2.7211   24.7290 C   0  0  0  0  0  0  0  0  0  0  0  0
    6.8887    3.5284   23.6133 C   0  0  0  0  0  0  0  0  0  0  0  0
    7.8608    4.3487   22.8272 N   0  0  0  0  0  4  0  0  0  0  0  0
    8.3698    5.5265   23.5832 C   0  0  0  0  0  0  0  0  0  0  0  0
    8.9491    5.2047   24.4469 H   0  0  0  0  0  0  0  0  0  0  0  0
    7.5239    6.1475   23.9055 H   0  0  0  0  0  0  0  0  0  0  0  0
    9.0063    6.1260   22.9263 H   0  0  0  0  0  0  0  0  0  0  0  0
    7.2092    4.8332   21.5814 C   0  0  0  0  0  0  0  0  0  0  0  0
    6.9416    3.9697   20.9695 H   0  0  0  0  0  0  0  0  0  0  0  0
    7.8943    5.4968   21.0558 H   0  0  0  0  0  0  0  0  0  0  0  0
    6.3094    5.4173   21.8190 H   0  0  0  0  0  0  0  0  0  0  0  0
    8.6457    3.7316   22.5644 H   0  0  0  0  0  0  0  0  0  0  0  0
    6.1321    4.2057   24.0289 H   0  0  0  0  0  0  0  0  0  0  0  0
    6.3858    2.8540   22.9105 H   0  0  0  0  0  0  0  0  0  0  0  0
    6.7627    2.2439   25.3255 H   0  0  0  0  0  0  0  0  0  0  0  0
    8.1298    3.3706   25.3872 H   0  0  0  0  0  0  0  0  0  0  0  0
    9.7490    1.9584   24.0279 C   0  0  0  0  0  0  0  0  0  0  0  0
   10.2145    3.0735   24.2549 O   0  0  0  0  0  0  0  0  0  0  0  0
   10.5754    0.8567   23.4201 C   0  0  0  0  0  0  0  0  0  0  0  0
   11.9683    0.9367   23.4390 C   0  0  0  0  0  0  0  0  0  0  0  0
   12.7353    0.1043   22.6413 C   0  0  0  0  0  0  0  0  0  0  0  0
   12.0731   -0.7932   21.7987 C   0  0  0  0  0  0  0  0  0  0  0  0
   12.9156   -1.6852   20.5614 Cl  0  0  0  0  0  0  0  0  0  0  0  0
   10.7036   -0.9491   21.8499 C   0  0  0  0  0  0  0  0  0  0  0  0
    9.9357   -0.1759   22.7223 C   0  0  0  0  0  0  0  0  0  0  0  0
   10.2576   -1.6332   21.1369 H   0  0  0  0  0  0  0  0  0  0  0  0
   13.8163    0.1928   22.6141 H   0  0  0  0  0  0  0  0  0  0  0  0
   12.4270    1.7132   24.0412 H   0  0  0  0  0  0  0  0  0  0  0  0
    6.7959    0.4722   23.9045 H   0  0  0  0  0  0  0  0  0  0  0  0
    8.0924   -0.3023   24.8559 H   0  0  0  0  0  0  0  0  0  0  0  0
    6.6523   -2.4517   20.8084 H   0  0  0  0  0  0  0  0  0  0  0  0
    5.7329   -1.6020   22.0547 H   0  0  0  0  0  0  0  0  0  0  0  0
    8.6681   -2.3115   22.0180 H   0  0  0  0  0  0  0  0  0  0  0  0
    6.6345   -2.0493   24.2955 H   0  0  0  0  0  0  0  0  0  0  0  0
    7.1697   -3.5496   23.5298 H   0  0  0  0  0  0  0  0  0  0  0  0
    8.3067   -2.5976   24.4960 H   0  0  0  0  0  0  0  0  0  0  0  0
  1  2  1  0
  2  3  1  0
  3  4  1  0
  4  5  1  0
  5  6  2  0
  6  7  1  0
  7  8  2  0
  8  9  1  0
  9 10  2  0
 10 11  1  0
 11 12  2  0
 12 13  1  0
 13 14  2  0
 13 15  1  0
 12 16  1  0
 11 17  1  0
 10 18  1  0
  8 19  1  0
  6 20  1  0
  4 21  1  0
 21 22  2  0
 21 23  1  0
 23 24  1  1
 24 25  1  0
 25 26  1  0
 26 27  1  0
 27 28  1  0
 28 29  1  0
 29 30  1  0
 29 31  1  0
 29 32  1  0
 28 33  1  0
 33 34  1  0
 33 35  1  0
 33 36  1  0
 28 37  1  0
 27 38  1  0
 27 39  1  0
 26 40  1  0
 26 41  1  0
 25 42  1  0
 42 43  2  0
 42 44  1  0
 44 45  2  0
 45 46  1  0
 46 47  2  0
 47 48  1  0
 47 49  1  0
 49 50  2  0
 49 51  1  0
 46 52  1  0
 45 53  1  0
 24 54  1  0
 24 55  1  0
  3 56  1  0
  3 57  1  0
  2 58  1  6
  1 59  1  0
  1 60  1  0
  1 61  1  0
 23  2  1  0
 50 44  1  0
 14  5  1  0
 50 23  1  0
 14  9  1  0
M  CHG  1  28   1
M  END
>  <cnnaffinities>  (77) 
[6.42875]

>  <score>  (77) 
6.42875

>  <index>  (77) 
76

>  <Smiles>  (77) 
C([C@]1(C(N(c2c(nc(c3c(c(c(c(c23)[H])[H])[H])[H])[H])[H])C(=O)[C@]21C(N(C(C([N+](C([H])([H])[H])(C([H])([H])[H])[H])([H])[H])([H])[H])C(=O)c1c(c(c(Cl)c(c21)[H])[H])[H])([H])[H])([H])[H])[H])([H])([H])[H]

>  <h>  (77) 
<NA>

>  <Training>  (77) 
True

>  <Success>  (77) 
True

>  <enamine_searched>  (77) 
False

>  <enamine_id>  (77) 
nan

$$$$

     RDKit          3D

 57 60  0  0  0  0  0  0  0  0999 V2000
    3.1197   -6.1596   26.7851 C   0  0  0  0  0  0  0  0  0  0  0  0
    3.6755   -6.4100   25.3696 C   0  0  0  0  0  0  0  0  0  0  0  0
    2.5132   -6.8277   24.4370 C   0  0  0  0  0  0  0  0  0  0  0  0
    2.8825   -7.0918   23.4395 H   0  0  0  0  0  0  0  0  0  0  0  0
    1.9776   -7.6878   24.8542 H   0  0  0  0  0  0  0  0  0  0  0  0
    1.8103   -5.9952   24.3355 H   0  0  0  0  0  0  0  0  0  0  0  0
    4.5872   -7.5762   25.4660 C   0  0  0  0  0  0  0  0  0  0  0  0
    5.2161   -8.5445   25.5403 N   0  0  0  0  0  0  0  0  0  0  0  0
    4.4374   -5.2135   24.7776 C   0  0  0  0  0  0  0  0  0  0  0  0
    5.2290   -5.3921   23.6398 C   0  0  0  0  0  0  0  0  0  0  0  0
    5.8791   -4.3241   23.0331 C   0  0  0  0  0  0  0  0  0  0  0  0
    5.7532   -3.0383   23.5583 C   0  0  0  0  0  0  0  0  0  0  0  0
    6.4212   -1.9219   22.9560 N   0  0  0  0  0  0  0  0  0  0  0  0
    7.4169   -1.2048   23.7495 C   0  0  0  0  0  0  0  0  0  0  0  0
    8.8393   -1.4576   23.2938 C   0  0  0  0  0  0  0  0  0  0  0  0
    9.3225   -2.7620   23.2888 C   0  0  0  0  0  0  0  0  0  0  0  0
   10.6213   -3.0163   22.8804 C   0  0  0  0  0  0  0  0  0  0  0  0
   11.4532   -2.0008   22.4234 C   0  0  0  0  0  0  0  0  0  0  0  0
   10.9815   -0.6955   22.4678 C   0  0  0  0  0  0  0  0  0  0  0  0
   12.0390    0.6241   22.0253 Cl  0  0  0  0  0  0  0  0  0  0  0  0
    9.6873   -0.4188   22.9019 C   0  0  0  0  0  0  0  0  0  0  0  0
    9.3574    0.6170   22.9255 H   0  0  0  0  0  0  0  0  0  0  0  0
   12.4517   -2.2167   22.0608 H   0  0  0  0  0  0  0  0  0  0  0  0
   10.9844   -4.0230   22.9757 H   0  0  0  0  0  0  0  0  0  0  0  0
    8.6869   -3.5840   23.6146 H   0  0  0  0  0  0  0  0  0  0  0  0
    7.2897   -1.5855   24.7692 H   0  0  0  0  0  0  0  0  0  0  0  0
    7.2335   -0.1217   23.7523 H   0  0  0  0  0  0  0  0  0  0  0  0
    6.1473   -1.6579   21.6243 C   0  0  0  0  0  0  0  0  0  0  0  0
    5.3458   -2.3369   21.0052 O   0  0  0  0  0  0  0  0  0  0  0  0
    6.8887   -0.4968   20.9314 C   0  0  0  0  0  0  0  0  0  0  0  0
    6.1044    0.0832   19.7842 C   0  0  0  0  0  0  0  0  0  0  0  0
    6.4200   -0.2197   18.4855 C   0  0  0  0  0  0  0  0  0  0  0  0
    5.7605    0.2369   17.3893 N   0  0  0  0  0  0  0  0  0  0  0  0
    4.7377    1.0280   17.5880 C   0  0  0  0  0  0  0  0  0  0  0  0
    4.2803    1.4154   18.8760 C   0  0  0  0  0  0  0  0  0  0  0  0
    3.1555    2.2587   19.0522 C   0  0  0  0  0  0  0  0  0  0  0  0
    2.7431    2.6194   20.3047 C   0  0  0  0  0  0  0  0  0  0  0  0
    3.4366    2.1397   21.4393 C   0  0  0  0  0  0  0  0  0  0  0  0
    4.5249    1.3178   21.2937 C   0  0  0  0  0  0  0  0  0  0  0  0
    4.9803    0.9326   20.0067 C   0  0  0  0  0  0  0  0  0  0  0  0
    5.0458    0.9496   22.1720 H   0  0  0  0  0  0  0  0  0  0  0  0
    3.1090    2.4251   22.4334 H   0  0  0  0  0  0  0  0  0  0  0  0
    1.8916    3.2799   20.4315 H   0  0  0  0  0  0  0  0  0  0  0  0
    2.6437    2.6170   18.1627 H   0  0  0  0  0  0  0  0  0  0  0  0
    4.2146    1.3958   16.7032 H   0  0  0  0  0  0  0  0  0  0  0  0
    7.2634   -0.8690   18.2524 H   0  0  0  0  0  0  0  0  0  0  0  0
    7.1699    0.2808   21.6509 H   0  0  0  0  0  0  0  0  0  0  0  0
    7.8315   -0.9057   20.5446 H   0  0  0  0  0  0  0  0  0  0  0  0
    4.9798   -2.8532   24.7036 C   0  0  0  0  0  0  0  0  0  0  0  0
    4.3179   -3.9251   25.2943 C   0  0  0  0  0  0  0  0  0  0  0  0
    3.7246   -3.7532   26.1865 H   0  0  0  0  0  0  0  0  0  0  0  0
    4.9007   -1.8560   25.1288 H   0  0  0  0  0  0  0  0  0  0  0  0
    6.4775   -4.4992   22.1446 H   0  0  0  0  0  0  0  0  0  0  0  0
    5.3297   -6.3896   23.2193 H   0  0  0  0  0  0  0  0  0  0  0  0
    2.3216   -5.4093   26.7576 H   0  0  0  0  0  0  0  0  0  0  0  0
    2.6956   -7.0915   27.1733 H   0  0  0  0  0  0  0  0  0  0  0  0
    3.9030   -5.8242   27.4747 H   0  0  0  0  0  0  0  0  0  0  0  0
  1  2  1  0
  2  3  1  0
  3  4  1  0
  3  5  1  0
  3  6  1  0
  2  7  1  0
  7  8  3  0
  2  9  1  0
  9 10  2  0
 10 11  1  0
 11 12  2  0
 12 13  1  0
 13 14  1  0
 14 15  1  0
 15 16  2  0
 16 17  1  0
 17 18  2  0
 18 19  1  0
 19 20  1  0
 19 21  2  0
 21 22  1  0
 18 23  1  0
 17 24  1  0
 16 25  1  0
 14 26  1  0
 14 27  1  0
 13 28  1  0
 28 29  2  0
 28 30  1  0
 30 31  1  0
 31 32  2  0
 32 33  1  0
 33 34  2  0
 34 35  1  0
 35 36  2  0
 36 37  1  0
 37 38  2  0
 38 39  1  0
 39 40  2  0
 39 41  1  0
 38 42  1  0
 37 43  1  0
 36 44  1  0
 34 45  1  0
 32 46  1  0
 30 47  1  0
 30 48  1  0
 12 49  1  0
 49 50  2  0
 50 51  1  0
 49 52  1  0
 11 53  1  0
 10 54  1  0
  1 55  1  0
  1 56  1  0
  1 57  1  0
 50  9  1  0
 21 15  1  0
 40 31  1  0
 40 35  1  0
M  END
>  <cnnaffinities>  (78) 
[6.89761, 6.91317, 6.92367, 6.89324, 6.81522, 6.44217, 6.89386, 6.87546, 6.47192, 6.89286, 6.89192]

>  <score>  (78) 
6.89761

>  <index>  (78) 
77

>  <Smiles>  (78) 
C(C(C([H])([H])[H])(C#N)c1c(c(c(N(C(c2c(c(c(c(Cl)c2[H])[H])[H])[H])([H])[H])C(=O)C(c2c(nc(c3c(c(c(c(c23)[H])[H])[H])[H])[H])[H])([H])[H])c(c1[H])[H])[H])[H])([H])([H])[H]

>  <h>  (78) 
<NA>

>  <Training>  (78) 
True

>  <Success>  (78) 
True

>  <enamine_searched>  (78) 
False

>  <enamine_id>  (78) 
nan

$$$$

     RDKit          3D

 40 42  0  0  0  0  0  0  0  0999 V2000
    9.7752   -3.8217   24.7473 C   0  0  0  0  0  0  0  0  0  0  0  0
    8.2687   -3.6011   24.8976 C   0  0  0  0  0  0  0  0  0  0  0  0
    7.9053   -2.1137   24.9617 C   0  0  0  0  0  0  0  0  0  0  0  0
    7.7147   -1.4596   23.5956 C   0  0  0  0  0  0  0  0  0  0  0  0
    6.7462   -2.1831   22.7774 N   0  0  0  0  0  0  0  0  0  0  0  0
    6.2060   -1.6864   21.6114 C   0  0  0  0  0  0  0  0  0  0  0  0
    5.2160   -2.1899   21.1064 O   0  0  0  0  0  0  0  0  0  0  0  0
    6.9167   -0.4921   20.9205 C   0  0  0  0  0  0  0  0  0  0  0  0
    6.1129    0.0849   19.7772 C   0  0  0  0  0  0  0  0  0  0  0  0
    6.4210   -0.2154   18.4764 C   0  0  0  0  0  0  0  0  0  0  0  0
    5.7562    0.2379   17.3806 N   0  0  0  0  0  0  0  0  0  0  0  0
    4.7355    1.0321   17.5814 C   0  0  0  0  0  0  0  0  0  0  0  0
    4.2841    1.4188   18.8707 C   0  0  0  0  0  0  0  0  0  0  0  0
    3.1606    2.2654   19.0496 C   0  0  0  0  0  0  0  0  0  0  0  0
    2.7470    2.6231   20.3031 C   0  0  0  0  0  0  0  0  0  0  0  0
    3.4380    2.1367   21.4342 C   0  0  0  0  0  0  0  0  0  0  0  0
    4.5270    1.3128   21.2884 C   0  0  0  0  0  0  0  0  0  0  0  0
    4.9871    0.9322   20.0017 C   0  0  0  0  0  0  0  0  0  0  0  0
    5.0423    0.9411   22.1676 H   0  0  0  0  0  0  0  0  0  0  0  0
    3.1035    2.4199   22.4273 H   0  0  0  0  0  0  0  0  0  0  0  0
    1.8910    3.2807   20.4359 H   0  0  0  0  0  0  0  0  0  0  0  0
    2.6418    2.6340   18.1676 H   0  0  0  0  0  0  0  0  0  0  0  0
    4.2035    1.3990   16.6995 H   0  0  0  0  0  0  0  0  0  0  0  0
    7.2639   -0.8668   18.2458 H   0  0  0  0  0  0  0  0  0  0  0  0
    7.8754   -0.8564   20.5196 H   0  0  0  0  0  0  0  0  0  0  0  0
    7.1752    0.3010   21.6358 H   0  0  0  0  0  0  0  0  0  0  0  0
    6.3038   -3.4921   23.2623 C   0  0  0  0  0  0  0  0  0  0  0  0
    7.4911   -4.3043   23.7688 C   0  0  0  0  0  0  0  0  0  0  0  0
    7.1518   -5.2866   24.1105 H   0  0  0  0  0  0  0  0  0  0  0  0
    8.1535   -4.4984   22.9193 H   0  0  0  0  0  0  0  0  0  0  0  0
    5.8078   -4.0056   22.4410 H   0  0  0  0  0  0  0  0  0  0  0  0
    5.5552   -3.3784   24.0571 H   0  0  0  0  0  0  0  0  0  0  0  0
    7.3686   -0.4349   23.7653 H   0  0  0  0  0  0  0  0  0  0  0  0
    8.6797   -1.3812   23.0792 H   0  0  0  0  0  0  0  0  0  0  0  0
    8.6905   -1.5704   25.4922 H   0  0  0  0  0  0  0  0  0  0  0  0
    7.0037   -1.9723   25.5668 H   0  0  0  0  0  0  0  0  0  0  0  0
    7.9733   -4.0483   25.8540 H   0  0  0  0  0  0  0  0  0  0  0  0
   10.1587   -3.3646   23.8271 H   0  0  0  0  0  0  0  0  0  0  0  0
   10.0065   -4.8886   24.7218 H   0  0  0  0  0  0  0  0  0  0  0  0
   10.3409   -3.3994   25.5831 H   0  0  0  0  0  0  0  0  0  0  0  0
  1  2  1  0
  2  3  1  0
  3  4  1  0
  4  5  1  0
  5  6  1  0
  6  7  2  0
  6  8  1  0
  8  9  1  0
  9 10  2  0
 10 11  1  0
 11 12  2  0
 12 13  1  0
 13 14  2  0
 14 15  1  0
 15 16  2  0
 16 17  1  0
 17 18  2  0
 17 19  1  0
 16 20  1  0
 15 21  1  0
 14 22  1  0
 12 23  1  0
 10 24  1  0
  8 25  1  0
  8 26  1  0
  5 27  1  0
 27 28  1  0
 28 29  1  0
 28 30  1  0
 27 31  1  0
 27 32  1  0
  4 33  1  0
  4 34  1  0
  3 35  1  0
  3 36  1  0
  2 37  1  0
  1 38  1  0
  1 39  1  0
  1 40  1  0
 28  2  1  0
 18  9  1  0
 18 13  1  0
M  END
>  <cnnaffinities>  (79) 
[4.95315, 4.68181, 4.68182, 5.17223, 5.17176, 5.2885, 5.28862]

>  <score>  (79) 
4.95315

>  <index>  (79) 
79

>  <Smiles>  (79) 
C(C1(C(C(N(C(=O)C(c2c(nc(c3c(c(c(c(c23)[H])[H])[H])[H])[H])[H])([H])[H])C(C1([H])[H])([H])[H])([H])[H])([H])[H])[H])([H])([H])[H]

>  <h>  (79) 
<NA>

>  <Training>  (79) 
True

>  <Success>  (79) 
True

>  <enamine_searched>  (79) 
False

>  <enamine_id>  (79) 
nan

$$$$

     RDKit          3D

 59 64  0  0  0  0  0  0  0  0999 V2000
    6.8401   -2.2250   23.6742 C   0  0  0  0  0  0  0  0  0  0  0  0
    7.7658   -1.8491   22.5069 C   0  0  1  0  0  0  0  0  0  0  0  0
    6.9618   -1.7872   21.1915 C   0  0  0  0  0  0  0  0  0  0  0  0
    6.8703   -0.3826   20.8896 N   0  0  0  0  0  0  0  0  0  0  0  0
    6.1173    0.1054   19.7936 C   0  0  0  0  0  0  0  0  0  0  0  0
    6.4383   -0.2319   18.5017 C   0  0  0  0  0  0  0  0  0  0  0  0
    5.7768    0.2223   17.4110 N   0  0  0  0  0  0  0  0  0  0  0  0
    4.7546    1.0198   17.6022 C   0  0  0  0  0  0  0  0  0  0  0  0
    4.2891    1.4100   18.8927 C   0  0  0  0  0  0  0  0  0  0  0  0
    3.1560    2.2492   19.0636 C   0  0  0  0  0  0  0  0  0  0  0  0
    2.7288    2.5903   20.3166 C   0  0  0  0  0  0  0  0  0  0  0  0
    3.3963    2.0926   21.4566 C   0  0  0  0  0  0  0  0  0  0  0  0
    4.4932    1.2799   21.3202 C   0  0  0  0  0  0  0  0  0  0  0  0
    4.9782    0.9353   20.0279 C   0  0  0  0  0  0  0  0  0  0  0  0
    5.0000    0.8889   22.1972 H   0  0  0  0  0  0  0  0  0  0  0  0
    3.0456    2.3712   22.4480 H   0  0  0  0  0  0  0  0  0  0  0  0
    1.8744    3.2489   20.4460 H   0  0  0  0  0  0  0  0  0  0  0  0
    2.6416    2.6099   18.1778 H   0  0  0  0  0  0  0  0  0  0  0  0
    4.2263    1.3853   16.7205 H   0  0  0  0  0  0  0  0  0  0  0  0
    7.2917   -0.8811   18.2990 H   0  0  0  0  0  0  0  0  0  0  0  0
    7.8010    0.3894   21.5414 C   0  0  0  0  0  0  0  0  0  0  0  0
    8.0169    1.5537   21.2935 O   0  0  0  0  0  0  0  0  0  0  0  0
    8.5120   -0.4756   22.6071 C   0  0  1  0  0  0  0  0  0  0  0  0
    8.3899    0.1572   24.0117 C   0  0  0  0  0  0  0  0  0  0  0  0
    9.1882    1.3606   24.1675 N   0  0  0  0  0  0  0  0  0  0  0  0
    8.5825    2.5126   24.8249 C   0  0  0  0  0  0  0  0  0  0  0  0
    7.6721    3.3049   23.9338 C   0  0  0  0  0  0  0  0  0  0  0  0
    6.2972    3.2953   23.8006 C   0  0  0  0  0  0  0  0  0  0  0  0
    6.0322    4.2338   22.7861 C   0  0  0  0  0  0  0  0  0  0  0  0
    7.1443    4.7962   22.3407 N   0  0  0  0  0  0  0  0  0  0  0  0
    8.1302    4.2240   23.0456 N   0  0  0  0  0  0  0  0  0  0  0  0
    9.4970    4.5837   22.7407 C   0  0  0  0  0  0  0  0  0  0  0  0
    9.9885    3.7971   22.1632 H   0  0  0  0  0  0  0  0  0  0  0  0
   10.0665    4.7766   23.6515 H   0  0  0  0  0  0  0  0  0  0  0  0
    9.4615    5.4916   22.1416 H   0  0  0  0  0  0  0  0  0  0  0  0
    5.0925    4.5110   22.3278 H   0  0  0  0  0  0  0  0  0  0  0  0
    5.6064    2.6810   24.3687 H   0  0  0  0  0  0  0  0  0  0  0  0
    9.4011    3.1352   25.1907 H   0  0  0  0  0  0  0  0  0  0  0  0
    8.0109    2.1590   25.6904 H   0  0  0  0  0  0  0  0  0  0  0  0
   10.4985    1.4078   23.7894 C   0  0  0  0  0  0  0  0  0  0  0  0
   11.2801    2.2753   24.1708 O   0  0  0  0  0  0  0  0  0  0  0  0
   10.9237    0.3390   22.8369 C   0  0  0  0  0  0  0  0  0  0  0  0
   12.2728    0.3196   22.4875 C   0  0  0  0  0  0  0  0  0  0  0  0
   12.7546   -0.6182   21.5963 C   0  0  0  0  0  0  0  0  0  0  0  0
   11.8428   -1.5301   21.0766 C   0  0  0  0  0  0  0  0  0  0  0  0
   12.2838   -2.4934   20.2491 F   0  0  0  0  0  0  0  0  0  0  0  0
   10.4865   -1.4782   21.3490 C   0  0  0  0  0  0  0  0  0  0  0  0
   10.0044   -0.5600   22.2854 C   0  0  0  0  0  0  0  0  0  0  0  0
    9.8343   -2.1451   20.7936 H   0  0  0  0  0  0  0  0  0  0  0  0
   13.7977   -0.6356   21.2888 H   0  0  0  0  0  0  0  0  0  0  0  0
   12.9082    1.0702   22.9420 H   0  0  0  0  0  0  0  0  0  0  0  0
    8.7144   -0.5966   24.7402 H   0  0  0  0  0  0  0  0  0  0  0  0
    7.3517    0.4168   24.2207 H   0  0  0  0  0  0  0  0  0  0  0  0
    5.9588   -2.2155   21.2890 H   0  0  0  0  0  0  0  0  0  0  0  0
    7.4691   -2.3164   20.3849 H   0  0  0  0  0  0  0  0  0  0  0  0
    8.5156   -2.6445   22.4566 H   0  0  0  0  0  0  0  0  0  0  0  0
    6.3726   -3.1958   23.4774 H   0  0  0  0  0  0  0  0  0  0  0  0
    6.0336   -1.4969   23.8145 H   0  0  0  0  0  0  0  0  0  0  0  0
    7.3841   -2.3240   24.6177 H   0  0  0  0  0  0  0  0  0  0  0  0
  1  2  1  0
  2  3  1  0
  3  4  1  0
  4  5  1  0
  5  6  2  0
  6  7  1  0
  7  8  2  0
  8  9  1  0
  9 10  2  0
 10 11  1  0
 11 12  2  0
 12 13  1  0
 13 14  2  0
 13 15  1  0
 12 16  1  0
 11 17  1  0
 10 18  1  0
  8 19  1  0
  6 20  1  0
  4 21  1  0
 21 22  2  0
 21 23  1  0
 23 24  1  1
 24 25  1  0
 25 26  1  0
 26 27  1  0
 27 28  2  0
 28 29  1  0
 29 30  2  0
 30 31  1  0
 31 32  1  0
 32 33  1  0
 32 34  1  0
 32 35  1  0
 29 36  1  0
 28 37  1  0
 26 38  1  0
 26 39  1  0
 25 40  1  0
 40 41  2  0
 40 42  1  0
 42 43  2  0
 43 44  1  0
 44 45  2  0
 45 46  1  0
 45 47  1  0
 47 48  2  0
 47 49  1  0
 44 50  1  0
 43 51  1  0
 24 52  1  0
 24 53  1  0
  3 54  1  0
  3 55  1  0
  2 56  1  6
  1 57  1  0
  1 58  1  0
  1 59  1  0
 23  2  1  0
 31 27  1  0
 48 42  1  0
 14  5  1  0
 48 23  1  0
 14  9  1  0
M  END
>  <cnnaffinities>  (80) 
[6.66665, 6.47053, 6.914]

>  <score>  (80) 
6.66665

>  <index>  (80) 
80

>  <Smiles>  (80) 
C([C@]1(C(N(c2c(nc(c3c(c(c(c(c23)[H])[H])[H])[H])[H])[H])C(=O)[C@]21C(N(C(c1c(c(nn1C([H])([H])[H])[H])[H])([H])[H])C(=O)c1c(c(c(F)c(c21)[H])[H])[H])([H])[H])([H])[H])[H])([H])([H])[H]

>  <h>  (80) 
<NA>

>  <Training>  (80) 
True

>  <Success>  (80) 
True

>  <enamine_searched>  (80) 
False

>  <enamine_id>  (80) 
nan

$$$$

     RDKit          3D

 58 63  0  0  0  0  0  0  0  0999 V2000
    5.4549    4.9489   21.4162 C   0  0  0  0  0  0  0  0  0  0  0  0
    6.4422    4.5440   22.4672 C   0  0  0  0  0  0  0  0  0  0  0  0
    6.3513    3.5872   23.3379 N   0  0  0  0  0  0  0  0  0  0  0  0
    7.5865    3.5786   23.9841 C   0  0  0  0  0  0  0  0  0  0  0  0
    7.9878    2.5338   24.9878 C   0  0  0  0  0  0  0  0  0  0  0  0
    8.7420    1.4255   24.4033 N   0  0  0  0  0  0  0  0  0  0  0  0
    8.0782    0.1555   24.1620 C   0  0  0  0  0  0  0  0  0  0  0  0
    8.3611   -0.4204   22.7485 C   0  0  2  0  0  0  0  0  0  0  0  0
    7.6855    0.4377   21.6380 C   0  0  0  0  0  0  0  0  0  0  0  0
    7.8528    1.6162   21.4249 O   0  0  0  0  0  0  0  0  0  0  0  0
    6.8791   -0.3827   20.8766 N   0  0  0  0  0  0  0  0  0  0  0  0
    6.1265    0.1072   19.7806 C   0  0  0  0  0  0  0  0  0  0  0  0
    6.4408   -0.2267   18.4862 C   0  0  0  0  0  0  0  0  0  0  0  0
    5.7688    0.2234   17.4004 N   0  0  0  0  0  0  0  0  0  0  0  0
    4.7479    1.0213   17.5997 C   0  0  0  0  0  0  0  0  0  0  0  0
    4.2889    1.4191   18.8867 C   0  0  0  0  0  0  0  0  0  0  0  0
    3.1556    2.2591   19.0659 C   0  0  0  0  0  0  0  0  0  0  0  0
    2.7293    2.6012   20.3204 C   0  0  0  0  0  0  0  0  0  0  0  0
    3.4129    2.1116   21.4551 C   0  0  0  0  0  0  0  0  0  0  0  0
    4.5112    1.3033   21.3081 C   0  0  0  0  0  0  0  0  0  0  0  0
    4.9917    0.9463   20.0176 C   0  0  0  0  0  0  0  0  0  0  0  0
    5.0223    0.9242   22.1860 H   0  0  0  0  0  0  0  0  0  0  0  0
    3.0802    2.3886   22.4523 H   0  0  0  0  0  0  0  0  0  0  0  0
    1.8714    3.2560   20.4456 H   0  0  0  0  0  0  0  0  0  0  0  0
    2.6448    2.6236   18.1799 H   0  0  0  0  0  0  0  0  0  0  0  0
    4.2259    1.3862   16.7159 H   0  0  0  0  0  0  0  0  0  0  0  0
    7.2880   -0.8745   18.2646 H   0  0  0  0  0  0  0  0  0  0  0  0
    7.0623   -1.7901   21.1447 C   0  0  0  0  0  0  0  0  0  0  0  0
    7.7403   -1.8426   22.5345 C   0  0  2  0  0  0  0  0  0  0  0  0
    6.7471   -2.3341   23.6016 C   0  0  0  0  0  0  0  0  0  0  0  0
    7.2148   -2.4124   24.5878 H   0  0  0  0  0  0  0  0  0  0  0  0
    5.8763   -1.6728   23.6824 H   0  0  0  0  0  0  0  0  0  0  0  0
    6.3837   -3.3341   23.3360 H   0  0  0  0  0  0  0  0  0  0  0  0
    8.5614   -2.5678   22.5198 H   0  0  0  0  0  0  0  0  0  0  0  0
    6.0921   -2.3019   21.1337 H   0  0  0  0  0  0  0  0  0  0  0  0
    7.7009   -2.2435   20.3816 H   0  0  0  0  0  0  0  0  0  0  0  0
    9.8735   -0.3814   22.5341 C   0  0  0  0  0  0  0  0  0  0  0  0
   10.4817   -1.2100   21.5824 C   0  0  0  0  0  0  0  0  0  0  0  0
   11.8444   -1.1099   21.3781 C   0  0  0  0  0  0  0  0  0  0  0  0
   12.4271   -1.8807   20.4445 F   0  0  0  0  0  0  0  0  0  0  0  0
   12.6367   -0.1815   22.0437 C   0  0  0  0  0  0  0  0  0  0  0  0
   12.0273    0.6778   22.9346 C   0  0  0  0  0  0  0  0  0  0  0  0
   10.6522    0.6014   23.1571 C   0  0  0  0  0  0  0  0  0  0  0  0
   10.0152    1.6756   23.9773 C   0  0  0  0  0  0  0  0  0  0  0  0
   10.5887    2.7353   24.2162 O   0  0  0  0  0  0  0  0  0  0  0  0
   12.5777    1.4578   23.4497 H   0  0  0  0  0  0  0  0  0  0  0  0
   13.6889   -0.1108   21.7972 H   0  0  0  0  0  0  0  0  0  0  0  0
    9.9154   -1.8783   20.9413 H   0  0  0  0  0  0  0  0  0  0  0  0
    7.0067    0.3358   24.2620 H   0  0  0  0  0  0  0  0  0  0  0  0
    8.3879   -0.5934   24.9077 H   0  0  0  0  0  0  0  0  0  0  0  0
    7.0875    2.1206   25.4520 H   0  0  0  0  0  0  0  0  0  0  0  0
    8.6012    2.9925   25.7691 H   0  0  0  0  0  0  0  0  0  0  0  0
    8.3289    4.5968   23.5038 C   0  0  0  0  0  0  0  0  0  0  0  0
    7.6156    5.2253   22.5290 O   0  0  0  0  0  0  0  0  0  0  0  0
    9.3166    4.9628   23.7414 H   0  0  0  0  0  0  0  0  0  0  0  0
    5.6687    5.9483   21.0323 H   0  0  0  0  0  0  0  0  0  0  0  0
    4.4541    4.9213   21.8463 H   0  0  0  0  0  0  0  0  0  0  0  0
    5.4641    4.2308   20.5896 H   0  0  0  0  0  0  0  0  0  0  0  0
  1  2  1  0
  2  3  2  0
  3  4  1  0
  4  5  1  0
  5  6  1  0
  6  7  1  0
  8  7  1  1
  8  9  1  0
  9 10  2  0
  9 11  1  0
 11 12  1  0
 12 13  2  0
 13 14  1  0
 14 15  2  0
 15 16  1  0
 16 17  2  0
 17 18  1  0
 18 19  2  0
 19 20  1  0
 20 21  2  0
 20 22  1  0
 19 23  1  0
 18 24  1  0
 17 25  1  0
 15 26  1  0
 13 27  1  0
 11 28  1  0
 28 29  1  0
 29 30  1  0
 30 31  1  0
 30 32  1  0
 30 33  1  0
 29 34  1  6
 28 35  1  0
 28 36  1  0
  8 37  1  0
 37 38  2  0
 38 39  1  0
 39 40  1  0
 39 41  2  0
 41 42  1  0
 42 43  2  0
 43 44  1  0
 44 45  2  0
 42 46  1  0
 41 47  1  0
 38 48  1  0
  7 49  1  0
  7 50  1  0
  5 51  1  0
  5 52  1  0
  4 53  2  0
 53 54  1  0
 53 55  1  0
  1 56  1  0
  1 57  1  0
  1 58  1  0
 54  2  1  0
 44  6  1  0
 29  8  1  0
 43 37  1  0
 21 12  1  0
 21 16  1  0
M  END
>  <cnnaffinities>  (81) 
[6.56957]

>  <score>  (81) 
6.56957

>  <index>  (81) 
81

>  <Smiles>  (81) 
C(c1nc(C(N2C([C@@]3(C(=O)N(c4c(nc(c5c(c(c(c(c45)[H])[H])[H])[H])[H])[H])C([C@@]3(C([H])([H])[H])[H])([H])[H])c3c(c(F)c(c(c3C2=O)[H])[H])[H])([H])[H])([H])[H])c(o1)[H])([H])([H])[H]

>  <h>  (81) 
<NA>

>  <Training>  (81) 
True

>  <Success>  (81) 
True

>  <enamine_searched>  (81) 
False

>  <enamine_id>  (81) 
nan

$$$$

     RDKit          3D

 55 60  0  0  0  0  0  0  0  0999 V2000
    7.0301   -2.4370   23.4851 C   0  0  0  0  0  0  0  0  0  0  0  0
    7.9316   -1.8340   22.4060 C   0  0  1  0  0  0  0  0  0  0  0  0
    7.2267   -1.7429   21.0389 C   0  0  0  0  0  0  0  0  0  0  0  0
    6.8936   -0.3448   20.8907 N   0  0  0  0  0  0  0  0  0  0  0  0
    6.1217    0.1174   19.8017 C   0  0  0  0  0  0  0  0  0  0  0  0
    6.4364   -0.2301   18.5115 C   0  0  0  0  0  0  0  0  0  0  0  0
    5.7766    0.2172   17.4162 N   0  0  0  0  0  0  0  0  0  0  0  0
    4.7529    1.0145   17.6066 C   0  0  0  0  0  0  0  0  0  0  0  0
    4.2856    1.4007   18.8960 C   0  0  0  0  0  0  0  0  0  0  0  0
    3.1558    2.2441   19.0627 C   0  0  0  0  0  0  0  0  0  0  0  0
    2.7309    2.5957   20.3132 C   0  0  0  0  0  0  0  0  0  0  0  0
    3.3934    2.1000   21.4570 C   0  0  0  0  0  0  0  0  0  0  0  0
    4.4797    1.2734   21.3276 C   0  0  0  0  0  0  0  0  0  0  0  0
    4.9712    0.9305   20.0364 C   0  0  0  0  0  0  0  0  0  0  0  0
    4.9671    0.8780   22.2127 H   0  0  0  0  0  0  0  0  0  0  0  0
    3.0477    2.3843   22.4475 H   0  0  0  0  0  0  0  0  0  0  0  0
    1.8806    3.2586   20.4370 H   0  0  0  0  0  0  0  0  0  0  0  0
    2.6461    2.6067   18.1748 H   0  0  0  0  0  0  0  0  0  0  0  0
    4.2258    1.3854   16.7255 H   0  0  0  0  0  0  0  0  0  0  0  0
    7.2913   -0.8790   18.3193 H   0  0  0  0  0  0  0  0  0  0  0  0
    7.6926    0.4795   21.6621 C   0  0  0  0  0  0  0  0  0  0  0  0
    7.7632    1.6810   21.5592 O   0  0  0  0  0  0  0  0  0  0  0  0
    8.4729   -0.3975   22.6709 C   0  0  1  0  0  0  0  0  0  0  0  0
    8.2144    0.0996   24.1141 C   0  0  0  0  0  0  0  0  0  0  0  0
    8.7785    1.4118   24.3522 N   0  0  0  0  0  0  0  0  0  0  0  0
    8.0038    2.3963   25.0732 C   0  0  0  0  0  0  0  0  0  0  0  0
    7.2922    3.3153   24.1315 C   0  0  0  0  0  0  0  0  0  0  0  0
    6.0434    3.2907   23.7964 N   0  0  0  0  0  0  0  0  0  0  0  0
    5.9273    4.3549   22.9115 C   0  0  0  0  0  0  0  0  0  0  0  0
    7.1216    4.9674   22.7707 C   0  0  0  0  0  0  0  0  0  0  0  0
    8.0127    4.2975   23.5560 O   0  0  0  0  0  0  0  0  0  0  0  0
    7.4785    5.8214   22.2165 H   0  0  0  0  0  0  0  0  0  0  0  0
    4.9904    4.5932   22.4409 H   0  0  0  0  0  0  0  0  0  0  0  0
    8.6848    2.9660   25.7059 H   0  0  0  0  0  0  0  0  0  0  0  0
    7.2641    1.8785   25.6892 H   0  0  0  0  0  0  0  0  0  0  0  0
   10.0096    1.7815   23.8875 C   0  0  0  0  0  0  0  0  0  0  0  0
   10.5248    2.8546   24.1597 O   0  0  0  0  0  0  0  0  0  0  0  0
   10.6918    0.7894   23.0002 C   0  0  0  0  0  0  0  0  0  0  0  0
   12.0490    0.9825   22.7312 C   0  0  0  0  0  0  0  0  0  0  0  0
   12.7376    0.0876   21.9278 C   0  0  0  0  0  0  0  0  0  0  0  0
   12.0228   -0.9896   21.4064 C   0  0  0  0  0  0  0  0  0  0  0  0
   12.6677   -1.8967   20.6485 F   0  0  0  0  0  0  0  0  0  0  0  0
   10.6560   -1.1273   21.5545 C   0  0  0  0  0  0  0  0  0  0  0  0
    9.9739   -0.2635   22.4201 C   0  0  0  0  0  0  0  0  0  0  0  0
   10.1547   -1.9211   21.0127 H   0  0  0  0  0  0  0  0  0  0  0  0
   13.7962    0.1891   21.7082 H   0  0  0  0  0  0  0  0  0  0  0  0
   12.5396    1.8499   23.1671 H   0  0  0  0  0  0  0  0  0  0  0  0
    8.6744   -0.6107   24.8085 H   0  0  0  0  0  0  0  0  0  0  0  0
    7.1415    0.1399   24.3199 H   0  0  0  0  0  0  0  0  0  0  0  0
    6.3188   -2.3508   20.9825 H   0  0  0  0  0  0  0  0  0  0  0  0
    7.9031   -2.0566   20.2371 H   0  0  0  0  0  0  0  0  0  0  0  0
    8.7775   -2.5212   22.3424 H   0  0  0  0  0  0  0  0  0  0  0  0
    6.7394   -3.4508   23.1952 H   0  0  0  0  0  0  0  0  0  0  0  0
    6.1174   -1.8551   23.6436 H   0  0  0  0  0  0  0  0  0  0  0  0
    7.5610   -2.5225   24.4376 H   0  0  0  0  0  0  0  0  0  0  0  0
  1  2  1  0
  2  3  1  0
  3  4  1  0
  4  5  1  0
  5  6  2  0
  6  7  1  0
  7  8  2  0
  8  9  1  0
  9 10  2  0
 10 11  1  0
 11 12  2  0
 12 13  1  0
 13 14  2  0
 13 15  1  0
 12 16  1  0
 11 17  1  0
 10 18  1  0
  8 19  1  0
  6 20  1  0
  4 21  1  0
 21 22  2  0
 21 23  1  0
 23 24  1  1
 24 25  1  0
 25 26  1  0
 26 27  1  0
 27 28  2  0
 28 29  1  0
 29 30  2  0
 30 31  1  0
 30 32  1  0
 29 33  1  0
 26 34  1  0
 26 35  1  0
 25 36  1  0
 36 37  2  0
 36 38  1  0
 38 39  2  0
 39 40  1  0
 40 41  2  0
 41 42  1  0
 41 43  1  0
 43 44  2  0
 43 45  1  0
 40 46  1  0
 39 47  1  0
 24 48  1  0
 24 49  1  0
  3 50  1  0
  3 51  1  0
  2 52  1  6
  1 53  1  0
  1 54  1  0
  1 55  1  0
 23  2  1  0
 31 27  1  0
 44 38  1  0
 14  5  1  0
 44 23  1  0
 14  9  1  0
M  END
>  <cnnaffinities>  (82) 
[6.32056, 6.35186, 6.15144]

>  <score>  (82) 
6.32056

>  <index>  (82) 
82

>  <Smiles>  (82) 
C([C@]1(C(N(c2c(nc(c3c(c(c(c(c23)[H])[H])[H])[H])[H])[H])C(=O)[C@]21C(N(C(c1nc(c(o1)[H])[H])([H])[H])C(=O)c1c(c(c(F)c(c21)[H])[H])[H])([H])[H])([H])[H])[H])([H])([H])[H]

>  <h>  (82) 
<NA>

>  <Training>  (82) 
True

>  <Success>  (82) 
True

>  <enamine_searched>  (82) 
False

>  <enamine_id>  (82) 
nan

$$$$

     RDKit          3D

 72 77  0  0  0  0  0  0  0  0999 V2000
    9.2031    6.0381   23.5226 C   0  0  0  0  0  0  0  0  0  0  0  0
    7.9796    6.0483   22.6190 C   0  0  2  0  0  0  0  0  0  0  0  0
    7.2388    7.3758   22.7129 C   0  0  0  0  0  0  0  0  0  0  0  0
    6.0601    7.3980   21.9343 O   0  0  0  0  0  0  0  0  0  0  0  0
    5.1318    6.4542   22.4254 C   0  0  0  0  0  0  0  0  0  0  0  0
    5.6759    5.0359   22.3196 C   0  0  1  0  0  0  0  0  0  0  0  0
    5.7976    4.6646   20.8498 C   0  0  0  0  0  0  0  0  0  0  0  0
    6.1868    3.6452   20.7363 H   0  0  0  0  0  0  0  0  0  0  0  0
    6.4714    5.3815   20.3615 H   0  0  0  0  0  0  0  0  0  0  0  0
    4.8384    4.7196   20.3228 H   0  0  0  0  0  0  0  0  0  0  0  0
    7.0340    4.9194   22.9996 N   0  0  0  0  0  4  0  0  0  0  0  0
    7.6591    3.5730   22.7929 C   0  0  0  0  0  0  0  0  0  0  0  0
    8.0846    2.9414   24.1133 C   0  0  0  0  0  0  0  0  0  0  0  0
    8.7731    1.6949   23.8751 N   0  0  0  0  0  0  0  0  0  0  0  0
    8.0507    0.4454   23.7820 C   0  0  0  0  0  0  0  0  0  0  0  0
    8.4938   -0.4076   22.5614 C   0  0  2  0  0  0  0  0  0  0  0  0
    8.0434    0.2333   21.2306 C   0  0  0  0  0  0  0  0  0  0  0  0
    8.5709    1.1573   20.6334 O   0  0  0  0  0  0  0  0  0  0  0  0
    6.9064   -0.4138   20.8144 N   0  0  0  0  0  0  0  0  0  0  0  0
    6.1273    0.1102   19.7635 C   0  0  0  0  0  0  0  0  0  0  0  0
    6.4655   -0.1858   18.4687 C   0  0  0  0  0  0  0  0  0  0  0  0
    5.7885    0.2584   17.3899 N   0  0  0  0  0  0  0  0  0  0  0  0
    4.7557    1.0384   17.6071 C   0  0  0  0  0  0  0  0  0  0  0  0
    4.3037    1.4228   18.9025 C   0  0  0  0  0  0  0  0  0  0  0  0
    3.1723    2.2590   19.0853 C   0  0  0  0  0  0  0  0  0  0  0  0
    2.7619    2.6138   20.3407 C   0  0  0  0  0  0  0  0  0  0  0  0
    3.4707    2.1668   21.4723 C   0  0  0  0  0  0  0  0  0  0  0  0
    4.5713    1.3527   21.3296 C   0  0  0  0  0  0  0  0  0  0  0  0
    5.0075    0.9499   20.0321 C   0  0  0  0  0  0  0  0  0  0  0  0
    5.1046    1.0285   22.2161 H   0  0  0  0  0  0  0  0  0  0  0  0
    3.1357    2.4579   22.4630 H   0  0  0  0  0  0  0  0  0  0  0  0
    1.8905    3.2488   20.4635 H   0  0  0  0  0  0  0  0  0  0  0  0
    2.6458    2.6002   18.2017 H   0  0  0  0  0  0  0  0  0  0  0  0
    4.2097    1.3991   16.7356 H   0  0  0  0  0  0  0  0  0  0  0  0
    7.3261   -0.8246   18.2844 H   0  0  0  0  0  0  0  0  0  0  0  0
    6.4941   -1.5138   21.6584 C   0  0  0  0  0  0  0  0  0  0  0  0
    7.7386   -1.7702   22.5193 C   0  0  2  0  0  0  0  0  0  0  0  0
    7.4117   -2.4181   23.8569 C   0  0  0  0  0  0  0  0  0  0  0  0
    8.3145   -2.5570   24.4601 H   0  0  0  0  0  0  0  0  0  0  0  0
    6.7077   -1.8030   24.4298 H   0  0  0  0  0  0  0  0  0  0  0  0
    6.9497   -3.3978   23.7008 H   0  0  0  0  0  0  0  0  0  0  0  0
    8.3671   -2.4614   21.9526 H   0  0  0  0  0  0  0  0  0  0  0  0
    6.2301   -2.3843   21.0497 H   0  0  0  0  0  0  0  0  0  0  0  0
    5.6122   -1.2663   22.2708 H   0  0  0  0  0  0  0  0  0  0  0  0
   10.0016   -0.4793   22.5654 C   0  0  0  0  0  0  0  0  0  0  0  0
   10.6493   -1.4653   21.8198 C   0  0  0  0  0  0  0  0  0  0  0  0
   12.0154   -1.4006   21.6474 C   0  0  0  0  0  0  0  0  0  0  0  0
   12.7638   -2.5113   20.5451 Cl  0  0  0  0  0  0  0  0  0  0  0  0
   12.7929   -0.4325   22.2824 C   0  0  0  0  0  0  0  0  0  0  0  0
   12.1632    0.5245   23.0500 C   0  0  0  0  0  0  0  0  0  0  0  0
   10.7729    0.5407   23.1363 C   0  0  0  0  0  0  0  0  0  0  0  0
   10.1273    1.7497   23.7343 C   0  0  0  0  0  0  0  0  0  0  0  0
   10.7749    2.7481   24.0339 O   0  0  0  0  0  0  0  0  0  0  0  0
   12.7138    1.3020   23.5667 H   0  0  0  0  0  0  0  0  0  0  0  0
   13.8647   -0.4202   22.1262 H   0  0  0  0  0  0  0  0  0  0  0  0
   10.0950   -2.2747   21.3596 H   0  0  0  0  0  0  0  0  0  0  0  0
    6.9760    0.6584   23.7454 H   0  0  0  0  0  0  0  0  0  0  0  0
    8.2303   -0.1437   24.6904 H   0  0  0  0  0  0  0  0  0  0  0  0
    8.7672    3.5887   24.6684 H   0  0  0  0  0  0  0  0  0  0  0  0
    7.2006    2.7600   24.7344 H   0  0  0  0  0  0  0  0  0  0  0  0
    8.5161    3.6664   22.1140 H   0  0  0  0  0  0  0  0  0  0  0  0
    6.9506    2.8908   22.3084 H   0  0  0  0  0  0  0  0  0  0  0  0
    6.8977    5.0006   24.0267 H   0  0  0  0  0  0  0  0  0  0  0  0
    5.0099    4.3495   22.8572 H   0  0  0  0  0  0  0  0  0  0  0  0
    4.2350    6.5351   21.7998 H   0  0  0  0  0  0  0  0  0  0  0  0
    4.8515    6.7001   23.4592 H   0  0  0  0  0  0  0  0  0  0  0  0
    7.0020    7.5738   23.7737 H   0  0  0  0  0  0  0  0  0  0  0  0
    7.8821    8.1816   22.3460 H   0  0  0  0  0  0  0  0  0  0  0  0
    8.2846    5.8806   21.5804 H   0  0  0  0  0  0  0  0  0  0  0  0
    9.8298    5.1549   23.3623 H   0  0  0  0  0  0  0  0  0  0  0  0
    9.8125    6.9291   23.3535 H   0  0  0  0  0  0  0  0  0  0  0  0
    8.8696    6.0457   24.5683 H   0  0  0  0  0  0  0  0  0  0  0  0
  1  2  1  0
  2  3  1  0
  3  4  1  0
  4  5  1  0
  5  6  1  0
  6  7  1  0
  7  8  1  0
  7  9  1  0
  7 10  1  0
  6 11  1  0
 11 12  1  0
 12 13  1  0
 13 14  1  0
 14 15  1  0
 16 15  1  1
 16 17  1  0
 17 18  2  0
 17 19  1  0
 19 20  1  0
 20 21  2  0
 21 22  1  0
 22 23  2  0
 23 24  1  0
 24 25  2  0
 25 26  1  0
 26 27  2  0
 27 28  1  0
 28 29  2  0
 28 30  1  0
 27 31  1  0
 26 32  1  0
 25 33  1  0
 23 34  1  0
 21 35  1  0
 19 36  1  0
 36 37  1  0
 37 38  1  0
 38 39  1  0
 38 40  1  0
 38 41  1  0
 37 42  1  6
 36 43  1  0
 36 44  1  0
 16 45  1  0
 45 46  2  0
 46 47  1  0
 47 48  1  0
 47 49  2  0
 49 50  1  0
 50 51  2  0
 51 52  1  0
 52 53  2  0
 50 54  1  0
 49 55  1  0
 46 56  1  0
 15 57  1  0
 15 58  1  0
 13 59  1  0
 13 60  1  0
 12 61  1  0
 12 62  1  0
 11 63  1  0
  6 64  1  1
  5 65  1  0
  5 66  1  0
  3 67  1  0
  3 68  1  0
  2 69  1  6
  1 70  1  0
  1 71  1  0
  1 72  1  0
 11  2  1  0
 52 14  1  0
 37 16  1  0
 51 45  1  0
 29 20  1  0
 29 24  1  0
M  CHG  1  11   1
M  END
>  <cnnaffinities>  (83) 
[6.82792, 6.83588, 7.09169]

>  <score>  (83) 
6.82792

>  <index>  (83) 
83

>  <Smiles>  (83) 
C([C@@]1(C(OC([C@@](C([H])([H])[H])([N+]1(C(C(N1C([C@@]2(C(=O)N(c3c(nc(c4c(c(c(c(c34)[H])[H])[H])[H])[H])[H])C([C@@]2(C([H])([H])[H])[H])([H])[H])c2c(c(Cl)c(c(c2C1=O)[H])[H])[H])([H])[H])([H])[H])([H])[H])[H])[H])([H])[H])([H])[H])[H])([H])([H])[H]

>  <h>  (83) 
<NA>

>  <Training>  (83) 
True

>  <Success>  (83) 
True

>  <enamine_searched>  (83) 
False

>  <enamine_id>  (83) 
nan

$$$$

     RDKit          3D

 60 65  0  0  0  0  0  0  0  0999 V2000
    7.4868   -8.5430   22.7194 C   0  0  0  0  0  0  0  0  0  0  0  0
    6.5698   -7.5327   22.2457 N   0  0  0  0  0  0  0  0  0  0  0  0
    7.1250   -6.5595   21.4562 C   0  0  0  0  0  0  0  0  0  0  0  0
    8.1487   -6.7051   20.8098 O   0  0  0  0  0  0  0  0  0  0  0  0
    6.3458   -5.2762   21.4594 C   0  0  0  0  0  0  0  0  0  0  0  0
    6.7318   -4.3275   22.4498 N   0  0  0  0  0  0  0  0  0  0  0  0
    7.8220   -3.4144   22.2002 C   0  0  0  0  0  0  0  0  0  0  0  0
    7.4155   -1.9890   22.6214 C   0  0  2  0  0  0  0  0  0  0  0  0
    6.3186   -1.4846   21.6491 C   0  0  0  0  0  0  0  0  0  0  0  0
    5.1871   -1.9153   21.5314 O   0  0  0  0  0  0  0  0  0  0  0  0
    6.8363   -0.4683   20.8745 N   0  0  0  0  0  0  0  0  0  0  0  0
    6.1064    0.0779   19.7964 C   0  0  0  0  0  0  0  0  0  0  0  0
    6.4598   -0.2043   18.5014 C   0  0  0  0  0  0  0  0  0  0  0  0
    5.7975    0.2455   17.4110 N   0  0  0  0  0  0  0  0  0  0  0  0
    4.7569    1.0165   17.6124 C   0  0  0  0  0  0  0  0  0  0  0  0
    4.2905    1.3948   18.9036 C   0  0  0  0  0  0  0  0  0  0  0  0
    3.1586    2.2345   19.0657 C   0  0  0  0  0  0  0  0  0  0  0  0
    2.7633    2.6267   20.3149 C   0  0  0  0  0  0  0  0  0  0  0  0
    3.4682    2.1873   21.4573 C   0  0  0  0  0  0  0  0  0  0  0  0
    4.5526    1.3556   21.3287 C   0  0  0  0  0  0  0  0  0  0  0  0
    4.9854    0.9307   20.0397 C   0  0  0  0  0  0  0  0  0  0  0  0
    5.0878    1.0114   22.2081 H   0  0  0  0  0  0  0  0  0  0  0  0
    3.1493    2.5173   22.4418 H   0  0  0  0  0  0  0  0  0  0  0  0
    1.9133    3.2915   20.4339 H   0  0  0  0  0  0  0  0  0  0  0  0
    2.6342    2.5706   18.1750 H   0  0  0  0  0  0  0  0  0  0  0  0
    4.2247    1.3819   16.7338 H   0  0  0  0  0  0  0  0  0  0  0  0
    7.3106   -0.8554   18.3055 H   0  0  0  0  0  0  0  0  0  0  0  0
    8.2783   -0.3738   20.9786 C   0  0  0  0  0  0  0  0  0  0  0  0
    8.5676   -0.9715   22.3639 C   0  0  2  0  0  0  0  0  0  0  0  0
    9.9896   -1.5161   22.4509 C   0  0  0  0  0  0  0  0  0  0  0  0
   10.7149   -0.7074   22.3124 H   0  0  0  0  0  0  0  0  0  0  0  0
   10.1800   -1.9897   23.4195 H   0  0  0  0  0  0  0  0  0  0  0  0
   10.1738   -2.2620   21.6672 H   0  0  0  0  0  0  0  0  0  0  0  0
    8.4651   -0.1583   23.0865 H   0  0  0  0  0  0  0  0  0  0  0  0
    8.7884   -0.9472   20.1880 H   0  0  0  0  0  0  0  0  0  0  0  0
    8.6035    0.6680   20.9026 H   0  0  0  0  0  0  0  0  0  0  0  0
    6.8897   -2.0740   24.0481 C   0  0  0  0  0  0  0  0  0  0  0  0
    6.8022   -0.9296   24.8490 C   0  0  0  0  0  0  0  0  0  0  0  0
    6.2773   -1.0079   26.1268 C   0  0  0  0  0  0  0  0  0  0  0  0
    6.0753    0.4598   27.0438 Cl  0  0  0  0  0  0  0  0  0  0  0  0
    5.8827   -2.2238   26.6860 C   0  0  0  0  0  0  0  0  0  0  0  0
    5.9384   -3.3535   25.8959 C   0  0  0  0  0  0  0  0  0  0  0  0
    6.3844   -3.2755   24.5770 C   0  0  0  0  0  0  0  0  0  0  0  0
    6.2361   -4.4791   23.7159 C   0  0  0  0  0  0  0  0  0  0  0  0
    5.6552   -5.5061   24.0646 O   0  0  0  0  0  0  0  0  0  0  0  0
    5.6100   -4.3131   26.2784 H   0  0  0  0  0  0  0  0  0  0  0  0
    5.5240   -2.2667   27.7092 H   0  0  0  0  0  0  0  0  0  0  0  0
    7.1405    0.0357   24.4898 H   0  0  0  0  0  0  0  0  0  0  0  0
    8.0621   -3.4387   21.1478 H   0  0  0  0  0  0  0  0  0  0  0  0
    8.7147   -3.7314   22.7559 H   0  0  0  0  0  0  0  0  0  0  0  0
    4.9020   -5.4666   21.1493 C   0  0  0  0  0  0  0  0  0  0  0  0
    5.8049   -4.8375   20.1360 C   0  0  0  0  0  0  0  0  0  0  0  0
    6.1157   -5.4200   19.2772 H   0  0  0  0  0  0  0  0  0  0  0  0
    5.7053   -3.7683   19.9907 H   0  0  0  0  0  0  0  0  0  0  0  0
    4.6271   -6.5133   21.0251 H   0  0  0  0  0  0  0  0  0  0  0  0
    4.2268   -4.8342   21.7125 H   0  0  0  0  0  0  0  0  0  0  0  0
    5.8539   -7.2123   22.8960 H   0  0  0  0  0  0  0  0  0  0  0  0
    7.8790   -8.2616   23.6993 H   0  0  0  0  0  0  0  0  0  0  0  0
    8.3135   -8.5057   22.0236 H   0  0  0  0  0  0  0  0  0  0  0  0
    7.0509   -9.5463   22.7139 H   0  0  0  0  0  0  0  0  0  0  0  0
  1  2  1  0
  2  3  1  0
  3  4  2  0
  3  5  1  0
  5  6  1  0
  6  7  1  0
  8  7  1  6
  8  9  1  0
  9 10  2  0
  9 11  1  0
 11 12  1  0
 12 13  2  0
 13 14  1  0
 14 15  2  0
 15 16  1  0
 16 17  2  0
 17 18  1  0
 18 19  2  0
 19 20  1  0
 20 21  2  0
 20 22  1  0
 19 23  1  0
 18 24  1  0
 17 25  1  0
 15 26  1  0
 13 27  1  0
 11 28  1  0
 28 29  1  0
 29 30  1  0
 30 31  1  0
 30 32  1  0
 30 33  1  0
 29 34  1  1
 28 35  1  0
 28 36  1  0
  8 37  1  0
 37 38  2  0
 38 39  1  0
 39 40  1  0
 39 41  2  0
 41 42  1  0
 42 43  2  0
 43 44  1  0
 44 45  2  0
 42 46  1  0
 41 47  1  0
 38 48  1  0
  7 49  1  0
  7 50  1  0
  5 51  1  0
 51 52  1  0
 52 53  1  0
 52 54  1  0
 51 55  1  0
 51 56  1  0
  2 57  1  0
  1 58  1  0
  1 59  1  0
  1 60  1  0
 52  5  1  0
 44  6  1  0
 29  8  1  0
 43 37  1  0
 21 12  1  0
 21 16  1  0
M  END
>  <cnnaffinities>  (84) 
[6.56745]

>  <score>  (84) 
6.56745

>  <index>  (84) 
84

>  <Smiles>  (84) 
C(N(C(=O)C1(N2C([C@@]3(C(=O)N(c4c(nc(c5c(c(c(c(c45)[H])[H])[H])[H])[H])[H])C([C@@]3(C([H])([H])[H])[H])([H])[H])c3c(c(Cl)c(c(c3C2=O)[H])[H])[H])([H])[H])C(C1([H])[H])([H])[H])[H])([H])([H])[H]

>  <h>  (84) 
<NA>

>  <Training>  (84) 
True

>  <Success>  (84) 
True

>  <enamine_searched>  (84) 
False

>  <enamine_id>  (84) 
nan

$$$$

     RDKit          3D

 55 60  0  0  0  0  0  0  0  0999 V2000
    6.9960   -2.4216   23.5044 C   0  0  0  0  0  0  0  0  0  0  0  0
    7.9076   -1.8464   22.4158 C   0  0  1  0  0  0  0  0  0  0  0  0
    7.1945   -1.7508   21.0540 C   0  0  0  0  0  0  0  0  0  0  0  0
    6.8900   -0.3481   20.9004 N   0  0  0  0  0  0  0  0  0  0  0  0
    6.1223    0.1218   19.8113 C   0  0  0  0  0  0  0  0  0  0  0  0
    6.4380   -0.2264   18.5213 C   0  0  0  0  0  0  0  0  0  0  0  0
    5.7780    0.2185   17.4259 N   0  0  0  0  0  0  0  0  0  0  0  0
    4.7540    1.0152   17.6123 C   0  0  0  0  0  0  0  0  0  0  0  0
    4.2850    1.4016   18.9002 C   0  0  0  0  0  0  0  0  0  0  0  0
    3.1543    2.2427   19.0650 C   0  0  0  0  0  0  0  0  0  0  0  0
    2.7273    2.5951   20.3145 C   0  0  0  0  0  0  0  0  0  0  0  0
    3.3891    2.1007   21.4588 C   0  0  0  0  0  0  0  0  0  0  0  0
    4.4781    1.2764   21.3317 C   0  0  0  0  0  0  0  0  0  0  0  0
    4.9713    0.9351   20.0415 C   0  0  0  0  0  0  0  0  0  0  0  0
    4.9656    0.8847   22.2184 H   0  0  0  0  0  0  0  0  0  0  0  0
    3.0468    2.3927   22.4483 H   0  0  0  0  0  0  0  0  0  0  0  0
    1.8735    3.2544   20.4359 H   0  0  0  0  0  0  0  0  0  0  0  0
    2.6445    2.6020   18.1770 H   0  0  0  0  0  0  0  0  0  0  0  0
    4.2284    1.3837   16.7300 H   0  0  0  0  0  0  0  0  0  0  0  0
    7.2909   -0.8769   18.3263 H   0  0  0  0  0  0  0  0  0  0  0  0
    7.7151    0.4636   21.6549 C   0  0  0  0  0  0  0  0  0  0  0  0
    7.8161    1.6603   21.5311 O   0  0  0  0  0  0  0  0  0  0  0  0
    8.4804   -0.4207   22.6678 C   0  0  1  0  0  0  0  0  0  0  0  0
    8.2357    0.0761   24.1150 C   0  0  0  0  0  0  0  0  0  0  0  0
    8.8433    1.3656   24.3725 N   0  0  0  0  0  0  0  0  0  0  0  0
    8.0888    2.3947   25.0718 C   0  0  0  0  0  0  0  0  0  0  0  0
    7.4600    3.3842   24.1389 C   0  0  0  0  0  0  0  0  0  0  0  0
    8.0129    4.4709   23.5566 C   0  0  0  0  0  0  0  0  0  0  0  0
    7.0705    5.0571   22.7666 O   0  0  0  0  0  0  0  0  0  0  0  0
    5.9854    4.2689   22.9043 C   0  0  0  0  0  0  0  0  0  0  0  0
    6.1414    3.2686   23.7048 N   0  0  0  0  0  0  0  0  0  0  0  0
    5.0926    4.5509   22.3595 H   0  0  0  0  0  0  0  0  0  0  0  0
    8.9960    4.9145   23.5831 H   0  0  0  0  0  0  0  0  0  0  0  0
    8.7737    2.8974   25.7590 H   0  0  0  0  0  0  0  0  0  0  0  0
    7.3166    1.8976   25.6655 H   0  0  0  0  0  0  0  0  0  0  0  0
   10.0560    1.7274   23.8604 C   0  0  0  0  0  0  0  0  0  0  0  0
   10.5551    2.8219   24.1019 O   0  0  0  0  0  0  0  0  0  0  0  0
   10.7258    0.7159   22.9819 C   0  0  0  0  0  0  0  0  0  0  0  0
   12.0835    0.8811   22.6996 C   0  0  0  0  0  0  0  0  0  0  0  0
   12.7482   -0.0261   21.8964 C   0  0  0  0  0  0  0  0  0  0  0  0
   11.9994   -1.0685   21.3635 C   0  0  0  0  0  0  0  0  0  0  0  0
   12.6162   -1.9936   20.6078 F   0  0  0  0  0  0  0  0  0  0  0  0
   10.6360   -1.1932   21.5354 C   0  0  0  0  0  0  0  0  0  0  0  0
    9.9805   -0.3197   22.4060 C   0  0  0  0  0  0  0  0  0  0  0  0
   10.1133   -1.9772   20.9978 H   0  0  0  0  0  0  0  0  0  0  0  0
   13.8096    0.0516   21.6752 H   0  0  0  0  0  0  0  0  0  0  0  0
   12.5973    1.7287   23.1415 H   0  0  0  0  0  0  0  0  0  0  0  0
    7.1636    0.1491   24.3160 H   0  0  0  0  0  0  0  0  0  0  0  0
    8.6595   -0.6614   24.8043 H   0  0  0  0  0  0  0  0  0  0  0  0
    6.2737   -2.3400   21.0057 H   0  0  0  0  0  0  0  0  0  0  0  0
    7.8574   -2.0824   20.2489 H   0  0  0  0  0  0  0  0  0  0  0  0
    8.7373   -2.5534   22.3519 H   0  0  0  0  0  0  0  0  0  0  0  0
    6.6778   -3.4317   23.2254 H   0  0  0  0  0  0  0  0  0  0  0  0
    7.5290   -2.5090   24.4560 H   0  0  0  0  0  0  0  0  0  0  0  0
    6.0988   -1.8153   23.6646 H   0  0  0  0  0  0  0  0  0  0  0  0
  1  2  1  0
  2  3  1  0
  3  4  1  0
  4  5  1  0
  5  6  2  0
  6  7  1  0
  7  8  2  0
  8  9  1  0
  9 10  2  0
 10 11  1  0
 11 12  2  0
 12 13  1  0
 13 14  2  0
 13 15  1  0
 12 16  1  0
 11 17  1  0
 10 18  1  0
  8 19  1  0
  6 20  1  0
  4 21  1  0
 21 22  2  0
 21 23  1  0
 23 24  1  1
 24 25  1  0
 25 26  1  0
 26 27  1  0
 27 28  2  0
 28 29  1  0
 29 30  1  0
 30 31  2  0
 30 32  1  0
 28 33  1  0
 26 34  1  0
 26 35  1  0
 25 36  1  0
 36 37  2  0
 36 38  1  0
 38 39  2  0
 39 40  1  0
 40 41  2  0
 41 42  1  0
 41 43  1  0
 43 44  2  0
 43 45  1  0
 40 46  1  0
 39 47  1  0
 24 48  1  0
 24 49  1  0
  3 50  1  0
  3 51  1  0
  2 52  1  6
  1 53  1  0
  1 54  1  0
  1 55  1  0
 23  2  1  0
 31 27  1  0
 44 38  1  0
 14  5  1  0
 44 23  1  0
 14  9  1  0
M  END
>  <cnnaffinities>  (85) 
[6.22582, 5.9404, 6.04755, 6.2736]

>  <score>  (85) 
6.22582

>  <index>  (85) 
85

>  <Smiles>  (85) 
C([C@]1(C(N(c2c(nc(c3c(c(c(c(c23)[H])[H])[H])[H])[H])[H])C(=O)[C@]21C(N(C(c1c(oc(n1)[H])[H])([H])[H])C(=O)c1c(c(c(F)c(c21)[H])[H])[H])([H])[H])([H])[H])[H])([H])([H])[H]

>  <h>  (85) 
<NA>

>  <Training>  (85) 
True

>  <Success>  (85) 
True

>  <enamine_searched>  (85) 
False

>  <enamine_id>  (85) 
nan

$$$$

     RDKit          3D

 65 70  0  0  0  0  0  0  0  0999 V2000
    6.6452    4.3736   21.3281 C   0  0  0  0  0  0  0  0  0  0  0  0
    7.6174    3.9842   22.3365 N   0  0  0  0  0  0  0  0  0  0  0  0
    7.1301    3.3192   23.4242 C   0  0  0  0  0  0  0  0  0  0  0  0
    5.9296    3.1566   23.5970 O   0  0  0  0  0  0  0  0  0  0  0  0
    8.1246    2.7851   24.4471 C   0  0  0  0  0  0  0  0  0  0  0  0
    8.8045    1.6078   23.9488 N   0  0  0  0  0  0  0  0  0  0  0  0
    8.0773    0.3499   23.8464 C   0  0  0  0  0  0  0  0  0  0  0  0
    8.4953   -0.4536   22.5843 C   0  0  2  0  0  0  0  0  0  0  0  0
    8.0008    0.2626   21.3075 C   0  0  0  0  0  0  0  0  0  0  0  0
    8.4723    1.2567   20.7953 O   0  0  0  0  0  0  0  0  0  0  0  0
    6.9056   -0.4165   20.8312 N   0  0  0  0  0  0  0  0  0  0  0  0
    6.1291    0.1017   19.7708 C   0  0  0  0  0  0  0  0  0  0  0  0
    6.4651   -0.1989   18.4777 C   0  0  0  0  0  0  0  0  0  0  0  0
    5.7864    0.2410   17.3945 N   0  0  0  0  0  0  0  0  0  0  0  0
    4.7493    1.0152   17.6006 C   0  0  0  0  0  0  0  0  0  0  0  0
    4.2903    1.4012   18.8935 C   0  0  0  0  0  0  0  0  0  0  0  0
    3.1622    2.2435   19.0751 C   0  0  0  0  0  0  0  0  0  0  0  0
    2.7698    2.6220   20.3294 C   0  0  0  0  0  0  0  0  0  0  0  0
    3.4775    2.1700   21.4652 C   0  0  0  0  0  0  0  0  0  0  0  0
    4.5628    1.3388   21.3181 C   0  0  0  0  0  0  0  0  0  0  0  0
    4.9987    0.9339   20.0250 C   0  0  0  0  0  0  0  0  0  0  0  0
    5.1124    1.0180   22.1985 H   0  0  0  0  0  0  0  0  0  0  0  0
    3.1749    2.4901   22.4572 H   0  0  0  0  0  0  0  0  0  0  0  0
    1.9133    3.2769   20.4554 H   0  0  0  0  0  0  0  0  0  0  0  0
    2.6340    2.5886   18.1905 H   0  0  0  0  0  0  0  0  0  0  0  0
    4.2104    1.3751   16.7225 H   0  0  0  0  0  0  0  0  0  0  0  0
    7.3277   -0.8332   18.2884 H   0  0  0  0  0  0  0  0  0  0  0  0
    6.5164   -1.5644   21.6147 C   0  0  0  0  0  0  0  0  0  0  0  0
    7.7599   -1.8243   22.4806 C   0  0  2  0  0  0  0  0  0  0  0  0
    7.3919   -2.5275   23.7966 C   0  0  0  0  0  0  0  0  0  0  0  0
    6.8424   -3.8518   23.5664 N   0  0  0  0  0  0  0  0  0  0  0  0
    5.5299   -4.1576   23.5512 C   0  0  0  0  0  0  0  0  0  0  0  0
    4.6127   -3.2146   23.8571 N   0  0  0  0  0  0  0  0  0  0  0  0
    3.3533   -3.6364   23.7945 C   0  0  0  0  0  0  0  0  0  0  0  0
    2.9314   -4.8490   23.4457 N   0  0  0  0  0  0  0  0  0  0  0  0
    3.9334   -5.6942   23.1772 C   0  0  0  0  0  0  0  0  0  0  0  0
    5.2253   -5.4333   23.2170 N   0  0  0  0  0  0  0  0  0  0  0  0
    3.6475   -6.7100   22.8950 H   0  0  0  0  0  0  0  0  0  0  0  0
    2.5824   -2.9095   24.0556 H   0  0  0  0  0  0  0  0  0  0  0  0
    7.4662   -4.6274   23.3971 H   0  0  0  0  0  0  0  0  0  0  0  0
    6.6221   -1.9652   24.3349 H   0  0  0  0  0  0  0  0  0  0  0  0
    8.2706   -2.6166   24.4464 H   0  0  0  0  0  0  0  0  0  0  0  0
    8.4156   -2.5028   21.9211 H   0  0  0  0  0  0  0  0  0  0  0  0
    6.2765   -2.4098   20.9644 H   0  0  0  0  0  0  0  0  0  0  0  0
    5.6195   -1.3602   22.2214 H   0  0  0  0  0  0  0  0  0  0  0  0
   10.0072   -0.5081   22.5414 C   0  0  0  0  0  0  0  0  0  0  0  0
   10.6525   -1.4271   21.7125 C   0  0  0  0  0  0  0  0  0  0  0  0
   12.0254   -1.3866   21.5763 C   0  0  0  0  0  0  0  0  0  0  0  0
   12.7761   -2.4847   20.4610 Cl  0  0  0  0  0  0  0  0  0  0  0  0
   12.8094   -0.4649   22.2712 C   0  0  0  0  0  0  0  0  0  0  0  0
   12.1780    0.4505   23.0824 C   0  0  0  0  0  0  0  0  0  0  0  0
   10.7887    0.4737   23.1595 C   0  0  0  0  0  0  0  0  0  0  0  0
   10.1594    1.6620   23.8062 C   0  0  0  0  0  0  0  0  0  0  0  0
   10.8219    2.6391   24.1439 O   0  0  0  0  0  0  0  0  0  0  0  0
   12.7261    1.1948   23.6473 H   0  0  0  0  0  0  0  0  0  0  0  0
   13.8836   -0.4470   22.1320 H   0  0  0  0  0  0  0  0  0  0  0  0
   10.0978   -2.1608   21.1404 H   0  0  0  0  0  0  0  0  0  0  0  0
    8.2707   -0.2627   24.7382 H   0  0  0  0  0  0  0  0  0  0  0  0
    7.0042    0.5712   23.8263 H   0  0  0  0  0  0  0  0  0  0  0  0
    8.9038    3.5146   24.6850 H   0  0  0  0  0  0  0  0  0  0  0  0
    7.5729    2.5413   25.3626 H   0  0  0  0  0  0  0  0  0  0  0  0
    8.5505    3.7780   22.0030 H   0  0  0  0  0  0  0  0  0  0  0  0
    5.8527    4.9361   21.8313 H   0  0  0  0  0  0  0  0  0  0  0  0
    7.1235    5.0265   20.5920 H   0  0  0  0  0  0  0  0  0  0  0  0
    6.2097    3.4799   20.8459 H   0  0  0  0  0  0  0  0  0  0  0  0
  1  2  1  0
  2  3  1  0
  3  4  2  0
  3  5  1  0
  5  6  1  0
  6  7  1  0
  8  7  1  1
  8  9  1  0
  9 10  2  0
  9 11  1  0
 11 12  1  0
 12 13  2  0
 13 14  1  0
 14 15  2  0
 15 16  1  0
 16 17  2  0
 17 18  1  0
 18 19  2  0
 19 20  1  0
 20 21  2  0
 20 22  1  0
 19 23  1  0
 18 24  1  0
 17 25  1  0
 15 26  1  0
 13 27  1  0
 11 28  1  0
 28 29  1  0
 29 30  1  0
 30 31  1  0
 31 32  1  0
 32 33  2  0
 33 34  1  0
 34 35  2  0
 35 36  1  0
 36 37  2  0
 36 38  1  0
 34 39  1  0
 31 40  1  0
 30 41  1  0
 30 42  1  0
 29 43  1  6
 28 44  1  0
 28 45  1  0
  8 46  1  0
 46 47  2  0
 47 48  1  0
 48 49  1  0
 48 50  2  0
 50 51  1  0
 51 52  2  0
 52 53  1  0
 53 54  2  0
 51 55  1  0
 50 56  1  0
 47 57  1  0
  7 58  1  0
  7 59  1  0
  5 60  1  0
  5 61  1  0
  2 62  1  0
  1 63  1  0
  1 64  1  0
  1 65  1  0
 53  6  1  0
 29  8  1  0
 37 32  1  0
 52 46  1  0
 21 12  1  0
 21 16  1  0
M  END
>  <cnnaffinities>  (86) 
[6.54826]

>  <score>  (86) 
6.54826

>  <index>  (86) 
86

>  <Smiles>  (86) 
C(N(C(=O)C(N1C([C@@]2(C(=O)N(c3c(nc(c4c(c(c(c(c34)[H])[H])[H])[H])[H])[H])C([C@@]2(C(N(c2nc(nc(n2)[H])[H])[H])([H])[H])[H])([H])[H])c2c(c(Cl)c(c(c2C1=O)[H])[H])[H])([H])[H])([H])[H])[H])([H])([H])[H]

>  <h>  (86) 
<NA>

>  <Training>  (86) 
True

>  <Success>  (86) 
True

>  <enamine_searched>  (86) 
False

>  <enamine_id>  (86) 
nan

$$$$

     RDKit          3D

 63 68  0  0  0  0  0  0  0  0999 V2000
    6.6764    4.3816   21.3063 C   0  0  0  0  0  0  0  0  0  0  0  0
    7.6499    4.0060   22.3176 N   0  0  0  0  0  0  0  0  0  0  0  0
    7.1511    3.3317   23.3950 C   0  0  0  0  0  0  0  0  0  0  0  0
    5.9506    3.1819   23.5551 O   0  0  0  0  0  0  0  0  0  0  0  0
    8.1335    2.7859   24.4301 C   0  0  0  0  0  0  0  0  0  0  0  0
    8.8184    1.6060   23.9483 N   0  0  0  0  0  0  0  0  0  0  0  0
    8.0868    0.3539   23.8409 C   0  0  0  0  0  0  0  0  0  0  0  0
    8.4990   -0.4452   22.5829 C   0  0  2  0  0  0  0  0  0  0  0  0
    7.9961    0.2680   21.3093 C   0  0  0  0  0  0  0  0  0  0  0  0
    8.4562    1.2693   20.7961 O   0  0  0  0  0  0  0  0  0  0  0  0
    6.9081   -0.4206   20.8329 N   0  0  0  0  0  0  0  0  0  0  0  0
    6.1278    0.0960   19.7737 C   0  0  0  0  0  0  0  0  0  0  0  0
    6.4625   -0.2099   18.4804 C   0  0  0  0  0  0  0  0  0  0  0  0
    5.7854    0.2360   17.3971 N   0  0  0  0  0  0  0  0  0  0  0  0
    4.7541    1.0155   17.6015 C   0  0  0  0  0  0  0  0  0  0  0  0
    4.2947    1.4034   18.8928 C   0  0  0  0  0  0  0  0  0  0  0  0
    3.1687    2.2487   19.0752 C   0  0  0  0  0  0  0  0  0  0  0  0
    2.7740    2.6264   20.3271 C   0  0  0  0  0  0  0  0  0  0  0  0
    3.4768    2.1716   21.4659 C   0  0  0  0  0  0  0  0  0  0  0  0
    4.5628    1.3402   21.3196 C   0  0  0  0  0  0  0  0  0  0  0  0
    5.0007    0.9339   20.0269 C   0  0  0  0  0  0  0  0  0  0  0  0
    5.1087    1.0170   22.2022 H   0  0  0  0  0  0  0  0  0  0  0  0
    3.1721    2.4873   22.4593 H   0  0  0  0  0  0  0  0  0  0  0  0
    1.9182    3.2846   20.4530 H   0  0  0  0  0  0  0  0  0  0  0  0
    2.6417    2.5947   18.1897 H   0  0  0  0  0  0  0  0  0  0  0  0
    4.2113    1.3754   16.7242 H   0  0  0  0  0  0  0  0  0  0  0  0
    7.3254   -0.8438   18.2866 H   0  0  0  0  0  0  0  0  0  0  0  0
    6.5423   -1.5818   21.6093 C   0  0  0  0  0  0  0  0  0  0  0  0
    7.7750   -1.8196   22.4877 C   0  0  2  0  0  0  0  0  0  0  0  0
    7.4075   -2.5045   23.8090 C   0  0  0  0  0  0  0  0  0  0  0  0
    6.8265   -3.8168   23.6087 N   0  0  0  0  0  0  0  0  0  0  0  0
    5.5150   -4.1349   23.5193 C   0  0  0  0  0  0  0  0  0  0  0  0
    5.4489   -5.4876   23.2651 C   0  0  0  0  0  0  0  0  0  0  0  0
    6.7974   -5.8918   23.2188 C   0  0  0  0  0  0  0  0  0  0  0  0
    7.6231   -4.8715   23.4126 N   0  0  0  0  0  0  0  0  0  0  0  0
    7.1975   -6.8866   23.0508 H   0  0  0  0  0  0  0  0  0  0  0  0
    4.5673   -6.0977   23.1370 H   0  0  0  0  0  0  0  0  0  0  0  0
    4.7466   -3.3854   23.6590 H   0  0  0  0  0  0  0  0  0  0  0  0
    8.2848   -2.6439   24.4411 H   0  0  0  0  0  0  0  0  0  0  0  0
    6.6816   -1.8982   24.3539 H   0  0  0  0  0  0  0  0  0  0  0  0
    8.4440   -2.4996   21.9626 H   0  0  0  0  0  0  0  0  0  0  0  0
    5.6485   -1.4024   22.2285 H   0  0  0  0  0  0  0  0  0  0  0  0
    6.3252   -2.4307   20.9565 H   0  0  0  0  0  0  0  0  0  0  0  0
   10.0107   -0.4941   22.5435 C   0  0  0  0  0  0  0  0  0  0  0  0
   10.6603   -1.4066   21.7134 C   0  0  0  0  0  0  0  0  0  0  0  0
   12.0361   -1.3755   21.5919 C   0  0  0  0  0  0  0  0  0  0  0  0
   12.7731   -2.4945   20.4832 Cl  0  0  0  0  0  0  0  0  0  0  0  0
   12.8221   -0.4596   22.2945 C   0  0  0  0  0  0  0  0  0  0  0  0
   12.1859    0.4544   23.1044 C   0  0  0  0  0  0  0  0  0  0  0  0
   10.7972    0.4760   23.1731 C   0  0  0  0  0  0  0  0  0  0  0  0
   10.1732    1.6654   23.8154 C   0  0  0  0  0  0  0  0  0  0  0  0
   10.8243    2.6454   24.1559 O   0  0  0  0  0  0  0  0  0  0  0  0
   12.7235    1.1998   23.6784 H   0  0  0  0  0  0  0  0  0  0  0  0
   13.8980   -0.4541   22.1609 H   0  0  0  0  0  0  0  0  0  0  0  0
   10.1042   -2.1264   21.1262 H   0  0  0  0  0  0  0  0  0  0  0  0
    7.0170    0.5835   23.8254 H   0  0  0  0  0  0  0  0  0  0  0  0
    8.2858   -0.2587   24.7274 H   0  0  0  0  0  0  0  0  0  0  0  0
    8.9110    3.5204   24.6728 H   0  0  0  0  0  0  0  0  0  0  0  0
    7.5375    2.5508   25.3242 H   0  0  0  0  0  0  0  0  0  0  0  0
    8.5938    3.8285   21.9984 H   0  0  0  0  0  0  0  0  0  0  0  0
    5.8946    4.9756   21.7885 H   0  0  0  0  0  0  0  0  0  0  0  0
    7.1649    4.9875   20.5517 H   0  0  0  0  0  0  0  0  0  0  0  0
    6.2199    3.4883   20.8525 H   0  0  0  0  0  0  0  0  0  0  0  0
  1  2  1  0
  2  3  1  0
  3  4  2  0
  3  5  1  0
  5  6  1  0
  6  7  1  0
  8  7  1  1
  8  9  1  0
  9 10  2  0
  9 11  1  0
 11 12  1  0
 12 13  2  0
 13 14  1  0
 14 15  2  0
 15 16  1  0
 16 17  2  0
 17 18  1  0
 18 19  2  0
 19 20  1  0
 20 21  2  0
 20 22  1  0
 19 23  1  0
 18 24  1  0
 17 25  1  0
 15 26  1  0
 13 27  1  0
 11 28  1  0
 28 29  1  0
 29 30  1  0
 30 31  1  0
 31 32  1  0
 32 33  2  0
 33 34  1  0
 34 35  2  0
 34 36  1  0
 33 37  1  0
 32 38  1  0
 30 39  1  0
 30 40  1  0
 29 41  1  6
 28 42  1  0
 28 43  1  0
  8 44  1  0
 44 45  2  0
 45 46  1  0
 46 47  1  0
 46 48  2  0
 48 49  1  0
 49 50  2  0
 50 51  1  0
 51 52  2  0
 49 53  1  0
 48 54  1  0
 45 55  1  0
  7 56  1  0
  7 57  1  0
  5 58  1  0
  5 59  1  0
  2 60  1  0
  1 61  1  0
  1 62  1  0
  1 63  1  0
 51  6  1  0
 29  8  1  0
 35 31  1  0
 50 44  1  0
 21 12  1  0
 21 16  1  0
M  END
>  <cnnaffinities>  (87) 
[6.6895]

>  <score>  (87) 
6.6895

>  <index>  (87) 
87

>  <Smiles>  (87) 
C(N(C(=O)C(N1C([C@@]2(C(=O)N(c3c(nc(c4c(c(c(c(c34)[H])[H])[H])[H])[H])[H])C([C@@]2(C(n2c(c(c(n2)[H])[H])[H])([H])[H])[H])([H])[H])c2c(c(Cl)c(c(c2C1=O)[H])[H])[H])([H])[H])([H])[H])[H])([H])([H])[H]

>  <h>  (87) 
<NA>

>  <Training>  (87) 
True

>  <Success>  (87) 
True

>  <enamine_searched>  (87) 
False

>  <enamine_id>  (87) 
nan

$$$$

     RDKit          3D

 64 68  0  0  0  0  0  0  0  0999 V2000
    2.6496   -3.1751   27.0880 C   0  0  0  0  0  0  0  0  0  0  0  0
    3.6609   -3.9771   27.9223 C   0  0  0  0  0  0  0  0  0  0  0  0
    4.8777   -4.2805   27.0536 C   0  0  0  0  0  0  0  0  0  0  0  0
    5.7534   -3.4266   27.0307 O   0  0  0  0  0  0  0  0  0  0  0  0
    4.8232   -5.3043   26.1101 N   0  0  0  0  0  0  0  0  0  0  0  0
    3.8904   -6.4220   26.2980 C   0  0  0  0  0  0  0  0  0  0  0  0
    4.4491   -7.7004   25.6623 C   0  0  0  0  0  0  0  0  0  0  0  0
    4.7657   -7.4950   24.1755 C   0  0  0  0  0  0  0  0  0  0  0  0
    5.3820   -6.1429   23.8824 C   0  0  0  0  0  0  0  0  0  0  0  0
    5.8920   -5.8984   22.5981 C   0  0  0  0  0  0  0  0  0  0  0  0
    6.3412   -4.6261   22.2468 C   0  0  0  0  0  0  0  0  0  0  0  0
    6.3256   -3.5900   23.1748 C   0  0  0  0  0  0  0  0  0  0  0  0
    6.6854   -2.3064   22.7679 N   0  0  0  0  0  0  0  0  0  0  0  0
    7.5617   -1.4828   23.6016 C   0  0  0  0  0  0  0  0  0  0  0  0
    8.9856   -1.4781   23.0953 C   0  0  0  0  0  0  0  0  0  0  0  0
    9.7325   -2.6642   23.0866 C   0  0  0  0  0  0  0  0  0  0  0  0
   11.0746   -2.6407   22.6997 C   0  0  0  0  0  0  0  0  0  0  0  0
   11.6960   -1.4525   22.3392 C   0  0  0  0  0  0  0  0  0  0  0  0
   10.9810   -0.2609   22.3631 C   0  0  0  0  0  0  0  0  0  0  0  0
   11.8821    1.3772   21.9825 Br  0  0  0  0  0  0  0  0  0  0  0  0
    9.6271   -0.2750   22.7224 C   0  0  0  0  0  0  0  0  0  0  0  0
    9.1034    0.6734   22.7206 H   0  0  0  0  0  0  0  0  0  0  0  0
   12.7382   -1.4564   22.0443 H   0  0  0  0  0  0  0  0  0  0  0  0
   11.6623   -3.5428   22.6838 H   0  0  0  0  0  0  0  0  0  0  0  0
    9.2861   -3.6039   23.3995 H   0  0  0  0  0  0  0  0  0  0  0  0
    7.2126   -0.4499   23.6341 H   0  0  0  0  0  0  0  0  0  0  0  0
    7.5270   -1.8530   24.6326 H   0  0  0  0  0  0  0  0  0  0  0  0
    6.2196   -1.8402   21.5434 C   0  0  0  0  0  0  0  0  0  0  0  0
    5.3971   -2.5058   20.9204 O   0  0  0  0  0  0  0  0  0  0  0  0
    6.8245   -0.5617   20.9387 C   0  0  0  0  0  0  0  0  0  0  0  0
    6.0643    0.0413   19.7571 C   0  0  0  0  0  0  0  0  0  0  0  0
    6.4532   -0.2139   18.4254 C   0  0  0  0  0  0  0  0  0  0  0  0
    5.8075    0.2876   17.3583 N   0  0  0  0  0  0  0  0  0  0  0  0
    4.7345    1.0686   17.5729 C   0  0  0  0  0  0  0  0  0  0  0  0
    4.2740    1.3869   18.8575 C   0  0  0  0  0  0  0  0  0  0  0  0
    3.1517    2.2078   19.0546 C   0  0  0  0  0  0  0  0  0  0  0  0
    2.7443    2.5551   20.3468 C   0  0  0  0  0  0  0  0  0  0  0  0
    3.4493    2.0803   21.4550 C   0  0  0  0  0  0  0  0  0  0  0  0
    4.5478    1.2371   21.2615 C   0  0  0  0  0  0  0  0  0  0  0  0
    4.9638    0.8805   19.9716 C   0  0  0  0  0  0  0  0  0  0  0  0
    5.0959    0.8637   22.1187 H   0  0  0  0  0  0  0  0  0  0  0  0
    3.1498    2.3655   22.4600 H   0  0  0  0  0  0  0  0  0  0  0  0
    1.8880    3.2059   20.4921 H   0  0  0  0  0  0  0  0  0  0  0  0
    2.6018    2.5982   18.2041 H   0  0  0  0  0  0  0  0  0  0  0  0
    4.2021    1.4695   16.7135 H   0  0  0  0  0  0  0  0  0  0  0  0
    7.3206   -0.8441   18.2478 H   0  0  0  0  0  0  0  0  0  0  0  0
    6.8887    0.1784   21.7403 H   0  0  0  0  0  0  0  0  0  0  0  0
    7.8452   -0.7961   20.6321 H   0  0  0  0  0  0  0  0  0  0  0  0
    5.8615   -3.8326   24.4582 C   0  0  0  0  0  0  0  0  0  0  0  0
    5.3869   -5.1040   24.8373 C   0  0  0  0  0  0  0  0  0  0  0  0
    5.8113   -2.9778   25.1197 H   0  0  0  0  0  0  0  0  0  0  0  0
    6.6862   -4.4002   21.2425 H   0  0  0  0  0  0  0  0  0  0  0  0
    5.9184   -6.6916   21.8580 H   0  0  0  0  0  0  0  0  0  0  0  0
    5.4461   -8.2861   23.8419 H   0  0  0  0  0  0  0  0  0  0  0  0
    3.8370   -7.5819   23.6010 H   0  0  0  0  0  0  0  0  0  0  0  0
    3.7316   -8.5209   25.7783 H   0  0  0  0  0  0  0  0  0  0  0  0
    5.3598   -7.9947   26.1862 H   0  0  0  0  0  0  0  0  0  0  0  0
    3.7487   -6.6103   27.3673 H   0  0  0  0  0  0  0  0  0  0  0  0
    2.9126   -6.1776   25.8656 H   0  0  0  0  0  0  0  0  0  0  0  0
    3.2217   -4.9092   28.2822 H   0  0  0  0  0  0  0  0  0  0  0  0
    3.9776   -3.3950   28.7916 H   0  0  0  0  0  0  0  0  0  0  0  0
    2.2843   -3.7801   26.2525 H   0  0  0  0  0  0  0  0  0  0  0  0
    1.7966   -2.8652   27.6952 H   0  0  0  0  0  0  0  0  0  0  0  0
    3.1133   -2.2710   26.6796 H   0  0  0  0  0  0  0  0  0  0  0  0
  1  2  1  0
  2  3  1  0
  3  4  2  0
  3  5  1  0
  5  6  1  0
  6  7  1  0
  7  8  1  0
  8  9  1  0
  9 10  2  0
 10 11  1  0
 11 12  2  0
 12 13  1  0
 13 14  1  0
 14 15  1  0
 15 16  2  0
 16 17  1  0
 17 18  2  0
 18 19  1  0
 19 20  1  0
 19 21  2  0
 21 22  1  0
 18 23  1  0
 17 24  1  0
 16 25  1  0
 14 26  1  0
 14 27  1  0
 13 28  1  0
 28 29  2  0
 28 30  1  0
 30 31  1  0
 31 32  2  0
 32 33  1  0
 33 34  2  0
 34 35  1  0
 35 36  2  0
 36 37  1  0
 37 38  2  0
 38 39  1  0
 39 40  2  0
 39 41  1  0
 38 42  1  0
 37 43  1  0
 36 44  1  0
 34 45  1  0
 32 46  1  0
 30 47  1  0
 30 48  1  0
 12 49  1  0
 49 50  2  0
 49 51  1  0
 11 52  1  0
 10 53  1  0
  8 54  1  0
  8 55  1  0
  7 56  1  0
  7 57  1  0
  6 58  1  0
  6 59  1  0
  2 60  1  0
  2 61  1  0
  1 62  1  0
  1 63  1  0
  1 64  1  0
 50  5  1  0
 50  9  1  0
 21 15  1  0
 40 31  1  0
 40 35  1  0
M  END
>  <cnnaffinities>  (88) 
[6.75852]

>  <score>  (88) 
6.75852

>  <index>  (88) 
88

>  <Smiles>  (88) 
C(C(C(=O)N1C(C(C(c2c(c(c(N(C(c3c(c(c(c(Br)c3[H])[H])[H])[H])([H])[H])C(=O)C(c3c(nc(c4c(c(c(c(c34)[H])[H])[H])[H])[H])[H])([H])[H])c(c12)[H])[H])[H])([H])[H])([H])[H])([H])[H])([H])[H])([H])([H])[H]

>  <h>  (88) 
<NA>

>  <Training>  (88) 
True

>  <Success>  (88) 
True

>  <enamine_searched>  (88) 
False

>  <enamine_id>  (88) 
nan

$$$$

     RDKit          3D

 38 40  0  0  0  0  0  0  0  0999 V2000
    8.0564    1.6777   20.9688 O   0  0  0  0  0  0  0  0  0  0  0  0
    7.8878    0.6113   21.5302 C   0  0  0  0  0  0  0  0  0  0  0  0
    6.9523   -0.4556   20.9130 C   0  0  0  0  0  0  0  0  0  0  0  0
    6.1174    0.0875   19.7747 C   0  0  0  0  0  0  0  0  0  0  0  0
    6.4275   -0.2070   18.4730 C   0  0  0  0  0  0  0  0  0  0  0  0
    5.7597    0.2435   17.3787 N   0  0  0  0  0  0  0  0  0  0  0  0
    4.7345    1.0319   17.5805 C   0  0  0  0  0  0  0  0  0  0  0  0
    4.2878    1.4229   18.8707 C   0  0  0  0  0  0  0  0  0  0  0  0
    3.1662    2.2731   19.0484 C   0  0  0  0  0  0  0  0  0  0  0  0
    2.7647    2.6456   20.3018 C   0  0  0  0  0  0  0  0  0  0  0  0
    3.4672    2.1725   21.4323 C   0  0  0  0  0  0  0  0  0  0  0  0
    4.5537    1.3439   21.2880 C   0  0  0  0  0  0  0  0  0  0  0  0
    4.9980    0.9449   20.0004 C   0  0  0  0  0  0  0  0  0  0  0  0
    5.0843    0.9922   22.1671 H   0  0  0  0  0  0  0  0  0  0  0  0
    3.1423    2.4713   22.4241 H   0  0  0  0  0  0  0  0  0  0  0  0
    1.9122    3.3082   20.4346 H   0  0  0  0  0  0  0  0  0  0  0  0
    2.6422    2.6369   18.1671 H   0  0  0  0  0  0  0  0  0  0  0  0
    4.2013    1.3984   16.6994 H   0  0  0  0  0  0  0  0  0  0  0  0
    7.2730   -0.8552   18.2437 H   0  0  0  0  0  0  0  0  0  0  0  0
    6.3000   -0.8841   21.6869 H   0  0  0  0  0  0  0  0  0  0  0  0
    7.5688   -1.2874   20.5384 H   0  0  0  0  0  0  0  0  0  0  0  0
    8.4979    0.3265   22.7416 N   0  0  0  0  0  0  0  0  0  0  0  0
    8.8164   -1.0450   23.1441 C   0  0  0  0  0  0  0  0  0  0  0  0
    9.9941   -1.6532   22.4086 C   0  0  0  0  0  0  0  0  0  0  0  0
   11.2168   -1.1278   22.4431 C   0  0  0  0  0  0  0  0  0  0  0  0
   11.5860    0.1022   23.2424 C   0  0  0  0  0  0  0  0  0  0  0  0
   10.8024    1.3669   22.8549 C   0  0  0  0  0  0  0  0  0  0  0  0
    9.3457    1.3707   23.3246 C   0  0  0  0  0  0  0  0  0  0  0  0
    9.3345    1.2309   24.4103 H   0  0  0  0  0  0  0  0  0  0  0  0
    8.8841    2.3370   23.1152 H   0  0  0  0  0  0  0  0  0  0  0  0
   10.8166    1.4885   21.7694 H   0  0  0  0  0  0  0  0  0  0  0  0
   11.3142    2.2483   23.2707 H   0  0  0  0  0  0  0  0  0  0  0  0
   12.6585    0.2939   23.1285 H   0  0  0  0  0  0  0  0  0  0  0  0
   11.4265   -0.0901   24.3136 H   0  0  0  0  0  0  0  0  0  0  0  0
   11.9983   -1.5815   21.8327 H   0  0  0  0  0  0  0  0  0  0  0  0
    9.8139   -2.5476   21.8088 H   0  0  0  0  0  0  0  0  0  0  0  0
    9.0346   -1.0178   24.2172 H   0  0  0  0  0  0  0  0  0  0  0  0
    7.9273   -1.6679   23.0337 H   0  0  0  0  0  0  0  0  0  0  0  0
  1  2  2  0
  2  3  1  0
  3  4  1  0
  4  5  2  0
  5  6  1  0
  6  7  2  0
  7  8  1  0
  8  9  2  0
  9 10  1  0
 10 11  2  0
 11 12  1  0
 12 13  2  0
 12 14  1  0
 11 15  1  0
 10 16  1  0
  9 17  1  0
  7 18  1  0
  5 19  1  0
  3 20  1  0
  3 21  1  0
  2 22  1  0
 22 23  1  0
 23 24  1  0
 24 25  2  0
 25 26  1  0
 26 27  1  0
 27 28  1  0
 28 29  1  0
 28 30  1  0
 27 31  1  0
 27 32  1  0
 26 33  1  0
 26 34  1  0
 25 35  1  0
 24 36  1  0
 23 37  1  0
 23 38  1  0
 13  4  1  0
 28 22  1  0
 13  8  1  0
M  END
>  <cnnaffinities>  (89) 
[5.60115, 5.35149]

>  <score>  (89) 
5.60115

>  <index>  (89) 
89

>  <Smiles>  (89) 
O=C(C(c1c(nc(c2c(c(c(c(c12)[H])[H])[H])[H])[H])[H])([H])[H])N1C(C(=C(C(C(C1([H])[H])([H])[H])([H])[H])[H])[H])([H])[H]

>  <h>  (89) 
<NA>

>  <Training>  (89) 
True

>  <Success>  (89) 
True

>  <enamine_searched>  (89) 
False

>  <enamine_id>  (89) 
nan

$$$$

     RDKit          3D

 62 67  0  0  0  0  0  0  0  0999 V2000
    8.0368   -3.0621   23.0709 C   0  0  0  0  0  0  0  0  0  0  0  0
    8.0064   -1.8886   22.0911 C   0  0  1  0  0  0  0  0  0  0  0  0
    6.7267   -1.8099   21.2419 C   0  0  0  0  0  0  0  0  0  0  0  0
    6.7520   -0.4436   20.7521 N   0  0  0  0  0  0  0  0  0  0  0  0
    5.9676    0.0580   19.6750 C   0  0  0  0  0  0  0  0  0  0  0  0
    6.2814   -0.2252   18.3675 C   0  0  0  0  0  0  0  0  0  0  0  0
    5.6147    0.2718   17.2952 N   0  0  0  0  0  0  0  0  0  0  0  0
    4.5986    1.0729   17.5106 C   0  0  0  0  0  0  0  0  0  0  0  0
    4.1391    1.4165   18.8138 C   0  0  0  0  0  0  0  0  0  0  0  0
    3.0210    2.2680   19.0198 C   0  0  0  0  0  0  0  0  0  0  0  0
    2.6091    2.5821   20.2877 C   0  0  0  0  0  0  0  0  0  0  0  0
    3.2828    2.0408   21.4037 C   0  0  0  0  0  0  0  0  0  0  0  0
    4.3514    1.2038   21.2298 C   0  0  0  0  0  0  0  0  0  0  0  0
    4.8304    0.8899   19.9277 C   0  0  0  0  0  0  0  0  0  0  0  0
    4.8640    0.7758   22.0867 H   0  0  0  0  0  0  0  0  0  0  0  0
    2.9481    2.2894   22.4069 H   0  0  0  0  0  0  0  0  0  0  0  0
    1.7645    3.2456   20.4397 H   0  0  0  0  0  0  0  0  0  0  0  0
    2.5091    2.6686   18.1491 H   0  0  0  0  0  0  0  0  0  0  0  0
    4.0827    1.4853   16.6395 H   0  0  0  0  0  0  0  0  0  0  0  0
    7.1304   -0.8674   18.1278 H   0  0  0  0  0  0  0  0  0  0  0  0
    7.4807    0.3894   21.5669 C   0  0  0  0  0  0  0  0  0  0  0  0
    7.5333    1.6010   21.4391 O   0  0  0  0  0  0  0  0  0  0  0  0
    8.1808   -0.4555   22.6708 C   0  0  1  0  0  0  0  0  0  0  0  0
    7.4511   -0.2792   24.0293 C   0  0  0  0  0  0  0  0  0  0  0  0
    7.5835    1.0692   24.5497 N   0  0  0  0  0  0  0  0  0  0  0  0
    6.4243    1.8170   25.0017 C   0  0  0  0  0  0  0  0  0  0  0  0
    6.0546    2.9442   24.0382 C   0  0  0  0  0  0  0  0  0  0  0  0
    6.9364    4.1372   24.1778 N   0  0  0  0  0  4  0  0  0  0  0  0
    7.8025    4.5299   22.9793 C   0  0  0  0  0  0  0  0  0  0  0  0
    7.1702    5.9414   22.9163 C   0  0  0  0  0  0  0  0  0  0  0  0
    6.2678    5.4891   24.0932 C   0  0  0  0  0  0  0  0  0  0  0  0
    5.2243    5.3702   23.8009 H   0  0  0  0  0  0  0  0  0  0  0  0
    6.3272    6.0330   25.0349 H   0  0  0  0  0  0  0  0  0  0  0  0
    6.6434    6.1495   21.9793 H   0  0  0  0  0  0  0  0  0  0  0  0
    7.8554    6.7613   23.1405 H   0  0  0  0  0  0  0  0  0  0  0  0
    7.6025    3.8629   22.1424 H   0  0  0  0  0  0  0  0  0  0  0  0
    8.8595    4.5043   23.2489 H   0  0  0  0  0  0  0  0  0  0  0  0
    7.5712    3.9845   24.9774 H   0  0  0  0  0  0  0  0  0  0  0  0
    6.1525    2.5894   23.0086 H   0  0  0  0  0  0  0  0  0  0  0  0
    5.0218    3.2520   24.2248 H   0  0  0  0  0  0  0  0  0  0  0  0
    5.5948    1.1134   25.0770 H   0  0  0  0  0  0  0  0  0  0  0  0
    6.6214    2.2162   26.0023 H   0  0  0  0  0  0  0  0  0  0  0  0
    8.7678    1.7113   24.5590 C   0  0  0  0  0  0  0  0  0  0  0  0
    8.9142    2.7940   25.1487 O   0  0  0  0  0  0  0  0  0  0  0  0
    9.8577    1.0988   23.7474 C   0  0  0  0  0  0  0  0  0  0  0  0
   11.1157    1.6806   23.8529 C   0  0  0  0  0  0  0  0  0  0  0  0
   12.1667    1.2135   23.0936 C   0  0  0  0  0  0  0  0  0  0  0  0
   11.9448    0.1197   22.2615 C   0  0  0  0  0  0  0  0  0  0  0  0
   13.2591   -0.4269   21.2564 Cl  0  0  0  0  0  0  0  0  0  0  0  0
   10.7060   -0.4901   22.1663 C   0  0  0  0  0  0  0  0  0  0  0  0
    9.6127    0.0195   22.8807 C   0  0  0  0  0  0  0  0  0  0  0  0
   10.6106   -1.3503   21.5149 H   0  0  0  0  0  0  0  0  0  0  0  0
   13.1427    1.6812   23.1197 H   0  0  0  0  0  0  0  0  0  0  0  0
   11.2342    2.5129   24.5325 H   0  0  0  0  0  0  0  0  0  0  0  0
    7.8803   -0.9877   24.7514 H   0  0  0  0  0  0  0  0  0  0  0  0
    6.3852   -0.5061   23.9347 H   0  0  0  0  0  0  0  0  0  0  0  0
    6.7051   -2.5170   20.4090 H   0  0  0  0  0  0  0  0  0  0  0  0
    5.8403   -1.9927   21.8700 H   0  0  0  0  0  0  0  0  0  0  0  0
    8.8209   -2.0169   21.3767 H   0  0  0  0  0  0  0  0  0  0  0  0
    7.1593   -3.0624   23.7320 H   0  0  0  0  0  0  0  0  0  0  0  0
    8.0479   -4.0120   22.5207 H   0  0  0  0  0  0  0  0  0  0  0  0
    8.9323   -3.0289   23.7038 H   0  0  0  0  0  0  0  0  0  0  0  0
  1  2  1  0
  2  3  1  0
  3  4  1  0
  4  5  1  0
  5  6  2  0
  6  7  1  0
  7  8  2  0
  8  9  1  0
  9 10  2  0
 10 11  1  0
 11 12  2  0
 12 13  1  0
 13 14  2  0
 13 15  1  0
 12 16  1  0
 11 17  1  0
 10 18  1  0
  8 19  1  0
  6 20  1  0
  4 21  1  0
 21 22  2  0
 21 23  1  0
 23 24  1  1
 24 25  1  0
 25 26  1  0
 26 27  1  0
 27 28  1  0
 28 29  1  0
 29 30  1  0
 30 31  1  0
 31 32  1  0
 31 33  1  0
 30 34  1  0
 30 35  1  0
 29 36  1  0
 29 37  1  0
 28 38  1  0
 27 39  1  0
 27 40  1  0
 26 41  1  0
 26 42  1  0
 25 43  1  0
 43 44  2  0
 43 45  1  0
 45 46  2  0
 46 47  1  0
 47 48  2  0
 48 49  1  0
 48 50  1  0
 50 51  2  0
 50 52  1  0
 47 53  1  0
 46 54  1  0
 24 55  1  0
 24 56  1  0
  3 57  1  0
  3 58  1  0
  2 59  1  6
  1 60  1  0
  1 61  1  0
  1 62  1  0
 23  2  1  0
 31 28  1  0
 51 45  1  0
 14  5  1  0
 51 23  1  0
 14  9  1  0
M  CHG  1  28   1
M  END
>  <cnnaffinities>  (90) 
[6.69853]

>  <score>  (90) 
6.69853

>  <index>  (90) 
90

>  <Smiles>  (90) 
C([C@]1(C(N(c2c(nc(c3c(c(c(c(c23)[H])[H])[H])[H])[H])[H])C(=O)[C@]21C(N(C(C([N+]1(C(C(C1([H])[H])([H])[H])([H])[H])[H])([H])[H])([H])[H])C(=O)c1c(c(c(Cl)c(c21)[H])[H])[H])([H])[H])([H])[H])[H])([H])([H])[H]

>  <h>  (90) 
<NA>

>  <Training>  (90) 
True

>  <Success>  (90) 
True

>  <enamine_searched>  (90) 
False

>  <enamine_id>  (90) 
nan

$$$$

     RDKit          3D

 56 61  0  0  0  0  0  0  0  0999 V2000
    7.0487   -2.4080   23.5114 C   0  0  0  0  0  0  0  0  0  0  0  0
    7.9483   -1.8526   22.4018 C   0  0  1  0  0  0  0  0  0  0  0  0
    7.2205   -1.7478   21.0508 C   0  0  0  0  0  0  0  0  0  0  0  0
    6.8913   -0.3469   20.9266 N   0  0  0  0  0  0  0  0  0  0  0  0
    6.1289    0.1217   19.8327 C   0  0  0  0  0  0  0  0  0  0  0  0
    6.4457   -0.2293   18.5440 C   0  0  0  0  0  0  0  0  0  0  0  0
    5.7861    0.2097   17.4469 N   0  0  0  0  0  0  0  0  0  0  0  0
    4.7598    1.0033   17.6305 C   0  0  0  0  0  0  0  0  0  0  0  0
    4.2886    1.3956   18.9156 C   0  0  0  0  0  0  0  0  0  0  0  0
    3.1543    2.2331   19.0776 C   0  0  0  0  0  0  0  0  0  0  0  0
    2.7367    2.6017   20.3259 C   0  0  0  0  0  0  0  0  0  0  0  0
    3.4125    2.1302   21.4749 C   0  0  0  0  0  0  0  0  0  0  0  0
    4.4892    1.2884   21.3459 C   0  0  0  0  0  0  0  0  0  0  0  0
    4.9757    0.9342   20.0587 C   0  0  0  0  0  0  0  0  0  0  0  0
    4.9823    0.8720   22.2199 H   0  0  0  0  0  0  0  0  0  0  0  0
    3.0897    2.4523   22.4624 H   0  0  0  0  0  0  0  0  0  0  0  0
    1.8806    3.2604   20.4388 H   0  0  0  0  0  0  0  0  0  0  0  0
    2.6399    2.5796   18.1848 H   0  0  0  0  0  0  0  0  0  0  0  0
    4.2412    1.3687   16.7435 H   0  0  0  0  0  0  0  0  0  0  0  0
    7.2965   -0.8801   18.3447 H   0  0  0  0  0  0  0  0  0  0  0  0
    7.7753    0.4568   21.6246 C   0  0  0  0  0  0  0  0  0  0  0  0
    7.9179    1.6438   21.4420 O   0  0  0  0  0  0  0  0  0  0  0  0
    8.5455   -0.4321   22.6366 C   0  0  1  0  0  0  0  0  0  0  0  0
    8.3461    0.0666   24.0900 C   0  0  0  0  0  0  0  0  0  0  0  0
    8.9434    1.3727   24.3135 N   0  0  0  0  0  0  0  0  0  0  0  0
    8.1790    2.3897   25.0255 C   0  0  0  0  0  0  0  0  0  0  0  0
    7.3997    3.3240   24.1301 C   0  0  0  0  0  0  0  0  0  0  0  0
    6.0176    3.3391   23.8255 C   0  0  0  0  0  0  0  0  0  0  0  0
    5.6816    4.3470   23.0298 N   0  0  0  0  0  0  0  0  0  0  0  0
    6.8419    4.9850   22.8226 N   0  0  0  0  0  0  0  0  0  0  0  0
    7.8953    4.4109   23.4494 C   0  0  0  0  0  0  0  0  0  0  0  0
    8.8994    4.8104   23.3775 H   0  0  0  0  0  0  0  0  0  0  0  0
    6.8797    5.7313   22.1490 H   0  0  0  0  0  0  0  0  0  0  0  0
    5.2440    2.6420   24.1225 H   0  0  0  0  0  0  0  0  0  0  0  0
    8.8939    2.9585   25.6263 H   0  0  0  0  0  0  0  0  0  0  0  0
    7.4986    1.8760   25.7130 H   0  0  0  0  0  0  0  0  0  0  0  0
   10.1408    1.7470   23.7674 C   0  0  0  0  0  0  0  0  0  0  0  0
   10.6757    2.8196   24.0290 O   0  0  0  0  0  0  0  0  0  0  0  0
   10.7779    0.7329   22.8664 C   0  0  0  0  0  0  0  0  0  0  0  0
   12.1366    0.8704   22.5847 C   0  0  0  0  0  0  0  0  0  0  0  0
   12.8114   -0.0998   21.8644 C   0  0  0  0  0  0  0  0  0  0  0  0
   12.0782   -1.1814   21.3968 C   0  0  0  0  0  0  0  0  0  0  0  0
   12.6972   -2.1291   20.6740 F   0  0  0  0  0  0  0  0  0  0  0  0
   10.7168   -1.2928   21.5816 C   0  0  0  0  0  0  0  0  0  0  0  0
   10.0435   -0.3490   22.3650 C   0  0  0  0  0  0  0  0  0  0  0  0
   10.2052   -2.1040   21.0778 H   0  0  0  0  0  0  0  0  0  0  0  0
   13.8731   -0.0354   21.6455 H   0  0  0  0  0  0  0  0  0  0  0  0
   12.6577    1.7299   22.9880 H   0  0  0  0  0  0  0  0  0  0  0  0
    8.7848   -0.6861   24.7662 H   0  0  0  0  0  0  0  0  0  0  0  0
    7.2813    0.1511   24.3110 H   0  0  0  0  0  0  0  0  0  0  0  0
    6.3108   -2.3517   20.9968 H   0  0  0  0  0  0  0  0  0  0  0  0
    7.8846   -2.0473   20.2324 H   0  0  0  0  0  0  0  0  0  0  0  0
    8.7660   -2.5714   22.3281 H   0  0  0  0  0  0  0  0  0  0  0  0
    7.6017   -2.4890   24.4529 H   0  0  0  0  0  0  0  0  0  0  0  0
    6.1593   -1.7918   23.6848 H   0  0  0  0  0  0  0  0  0  0  0  0
    6.7209   -3.4187   23.2469 H   0  0  0  0  0  0  0  0  0  0  0  0
  1  2  1  0
  2  3  1  0
  3  4  1  0
  4  5  1  0
  5  6  2  0
  6  7  1  0
  7  8  2  0
  8  9  1  0
  9 10  2  0
 10 11  1  0
 11 12  2  0
 12 13  1  0
 13 14  2  0
 13 15  1  0
 12 16  1  0
 11 17  1  0
 10 18  1  0
  8 19  1  0
  6 20  1  0
  4 21  1  0
 21 22  2  0
 21 23  1  0
 23 24  1  1
 24 25  1  0
 25 26  1  0
 26 27  1  0
 27 28  1  0
 28 29  2  0
 29 30  1  0
 30 31  1  0
 31 32  1  0
 30 33  1  0
 28 34  1  0
 26 35  1  0
 26 36  1  0
 25 37  1  0
 37 38  2  0
 37 39  1  0
 39 40  2  0
 40 41  1  0
 41 42  2  0
 42 43  1  0
 42 44  1  0
 44 45  2  0
 44 46  1  0
 41 47  1  0
 40 48  1  0
 24 49  1  0
 24 50  1  0
  3 51  1  0
  3 52  1  0
  2 53  1  6
  1 54  1  0
  1 55  1  0
  1 56  1  0
 23  2  1  0
 31 27  2  0
 45 39  1  0
 14  5  1  0
 45 23  1  0
 14  9  1  0
M  END
>  <cnnaffinities>  (91) 
[6.38995, 6.41849]

>  <score>  (91) 
6.38995

>  <index>  (91) 
91

>  <Smiles>  (91) 
C([C@]1(C(N(c2c(nc(c3c(c(c(c(c23)[H])[H])[H])[H])[H])[H])C(=O)[C@]21C(N(C(c1c(nn(c1[H])[H])[H])([H])[H])C(=O)c1c(c(c(F)c(c21)[H])[H])[H])([H])[H])([H])[H])[H])([H])([H])[H]

>  <h>  (91) 
<NA>

>  <Training>  (91) 
True

>  <Success>  (91) 
True

>  <enamine_searched>  (91) 
False

>  <enamine_id>  (91) 
nan

$$$$

     RDKit          3D

 47 50  0  0  0  0  0  0  0  0999 V2000
    5.3703   -2.3464   20.9672 O   0  0  0  0  0  0  0  0  0  0  0  0
    6.1181   -1.6343   21.6089 C   0  0  0  0  0  0  0  0  0  0  0  0
    6.9215   -0.5185   20.9318 C   0  0  0  0  0  0  0  0  0  0  0  0
    6.1312    0.0684   19.7940 C   0  0  0  0  0  0  0  0  0  0  0  0
    6.4409   -0.2329   18.4959 C   0  0  0  0  0  0  0  0  0  0  0  0
    5.7818    0.2270   17.4013 N   0  0  0  0  0  0  0  0  0  0  0  0
    4.7561    1.0130   17.6111 C   0  0  0  0  0  0  0  0  0  0  0  0
    4.2919    1.3851   18.9010 C   0  0  0  0  0  0  0  0  0  0  0  0
    3.1615    2.2236   19.0711 C   0  0  0  0  0  0  0  0  0  0  0  0
    2.7510    2.5931   20.3208 C   0  0  0  0  0  0  0  0  0  0  0  0
    3.4462    2.1141   21.4536 C   0  0  0  0  0  0  0  0  0  0  0  0
    4.5291    1.2828   21.3185 C   0  0  0  0  0  0  0  0  0  0  0  0
    4.9935    0.8996   20.0299 C   0  0  0  0  0  0  0  0  0  0  0  0
    5.0381    0.9137   22.2062 H   0  0  0  0  0  0  0  0  0  0  0  0
    3.1149    2.4120   22.4425 H   0  0  0  0  0  0  0  0  0  0  0  0
    1.8964    3.2519   20.4478 H   0  0  0  0  0  0  0  0  0  0  0  0
    2.6383    2.5704   18.1841 H   0  0  0  0  0  0  0  0  0  0  0  0
    4.2263    1.3896   16.7353 H   0  0  0  0  0  0  0  0  0  0  0  0
    7.2887   -0.8855   18.2850 H   0  0  0  0  0  0  0  0  0  0  0  0
    7.2076    0.2472   21.6555 H   0  0  0  0  0  0  0  0  0  0  0  0
    7.8587   -0.9637   20.5704 H   0  0  0  0  0  0  0  0  0  0  0  0
    6.2484   -1.8450   22.9870 N   0  0  0  0  0  0  0  0  0  0  0  0
    5.1643   -2.5593   23.5517 C   0  0  0  0  0  0  0  0  0  0  0  0
    5.1908   -3.7986   24.0498 C   0  0  0  0  0  0  0  0  0  0  0  0
    6.3375   -4.4733   24.6211 C   0  0  0  0  0  0  0  0  0  0  0  0
    7.2409   -3.8668   25.4198 C   0  0  0  0  0  0  0  0  0  0  0  0
    7.1328   -2.5124   25.9572 C   0  0  0  0  0  0  0  0  0  0  0  0
    6.8811   -1.3615   25.3314 C   0  0  0  0  0  0  0  0  0  0  0  0
    7.1162   -1.0342   23.8725 C   0  0  1  0  0  0  0  0  0  0  0  0
    8.5794   -1.2243   23.5074 C   0  0  0  0  0  0  0  0  0  0  0  0
    8.9720   -2.4380   22.9629 C   0  0  0  0  0  0  0  0  0  0  0  0
   10.3047   -2.6634   22.6638 C   0  0  0  0  0  0  0  0  0  0  0  0
   11.2555   -1.6809   22.9049 C   0  0  0  0  0  0  0  0  0  0  0  0
   10.8709   -0.4650   23.4609 C   0  0  0  0  0  0  0  0  0  0  0  0
    9.5308   -0.2380   23.7682 C   0  0  0  0  0  0  0  0  0  0  0  0
    9.2326    0.7086   24.2200 H   0  0  0  0  0  0  0  0  0  0  0  0
   11.6193    0.2975   23.6564 H   0  0  0  0  0  0  0  0  0  0  0  0
   12.2970   -1.8806   22.6723 H   0  0  0  0  0  0  0  0  0  0  0  0
   10.5982   -3.6143   22.2452 H   0  0  0  0  0  0  0  0  0  0  0  0
    8.2167   -3.2020   22.7947 H   0  0  0  0  0  0  0  0  0  0  0  0
    6.8669    0.0309   23.7575 H   0  0  0  0  0  0  0  0  0  0  0  0
    6.6425   -0.5255   25.9805 H   0  0  0  0  0  0  0  0  0  0  0  0
    7.2940   -2.4773   27.0414 H   0  0  0  0  0  0  0  0  0  0  0  0
    7.9715   -4.4919   25.9185 H   0  0  0  0  0  0  0  0  0  0  0  0
    6.3526   -5.5618   24.5720 H   0  0  0  0  0  0  0  0  0  0  0  0
    4.2304   -4.3088   24.1280 H   0  0  0  0  0  0  0  0  0  0  0  0
    4.2392   -1.9971   23.5667 H   0  0  0  0  0  0  0  0  0  0  0  0
  1  2  2  0
  2  3  1  0
  3  4  1  0
  4  5  2  0
  5  6  1  0
  6  7  2  0
  7  8  1  0
  8  9  2  0
  9 10  1  0
 10 11  2  0
 11 12  1  0
 12 13  2  0
 12 14  1  0
 11 15  1  0
 10 16  1  0
  9 17  1  0
  7 18  1  0
  5 19  1  0
  3 20  1  0
  3 21  1  0
  2 22  1  0
 22 23  1  0
 23 24  2  3
 24 25  1  0
 25 26  2  3
 26 27  1  0
 27 28  2  3
 28 29  1  0
 29 30  1  0
 30 31  2  0
 31 32  1  0
 32 33  2  0
 33 34  1  0
 34 35  2  0
 35 36  1  0
 34 37  1  0
 33 38  1  0
 32 39  1  0
 31 40  1  0
 29 41  1  1
 28 42  1  0
 27 43  1  0
 26 44  1  0
 25 45  1  0
 24 46  1  0
 23 47  1  0
 13  4  1  0
 29 22  1  0
 35 30  1  0
 13  8  1  0
M  END
>  <cnnaffinities>  (92) 
[6.07972, 6.07956]

>  <score>  (92) 
6.07972

>  <index>  (92) 
92

>  <Smiles>  (92) 
O=C(C(c1c(nc(c2c(c(c(c(c12)[H])[H])[H])[H])[H])[H])([H])[H])N1C(=C(C(=C(C(=C([C@]1(c1c(c(c(c(c1[H])[H])[H])[H])[H])[H])[H])[H])[H])[H])[H])[H]

>  <h>  (92) 
<NA>

>  <Training>  (92) 
True

>  <Success>  (92) 
True

>  <enamine_searched>  (92) 
False

>  <enamine_id>  (92) 
nan

$$$$

     RDKit          3D

 58 62  0  0  0  0  0  0  0  0999 V2000
    6.5898    4.5854   21.4512 C   0  0  0  0  0  0  0  0  0  0  0  0
    6.8175    3.5982   22.5096 N   0  0  0  0  0  4  0  0  0  0  0  0
    7.9629    3.9359   23.4087 C   0  0  0  0  0  0  0  0  0  0  0  0
    8.2032    2.8337   24.4374 C   0  0  0  0  0  0  0  0  0  0  0  0
    8.8506    1.6598   23.8767 N   0  0  0  0  0  0  0  0  0  0  0  0
    8.1392    0.3986   23.8041 C   0  0  0  0  0  0  0  0  0  0  0  0
    8.5410   -0.4340   22.5620 C   0  0  2  0  0  0  0  0  0  0  0  0
    8.0323    0.2632   21.2745 C   0  0  0  0  0  0  0  0  0  0  0  0
    8.4824    1.2695   20.7573 O   0  0  0  0  0  0  0  0  0  0  0  0
    6.9309   -0.4168   20.8200 N   0  0  0  0  0  0  0  0  0  0  0  0
    6.1397    0.1062   19.7615 C   0  0  0  0  0  0  0  0  0  0  0  0
    6.4557   -0.2080   18.4661 C   0  0  0  0  0  0  0  0  0  0  0  0
    5.7679    0.2296   17.3890 N   0  0  0  0  0  0  0  0  0  0  0  0
    4.7460    1.0194   17.6017 C   0  0  0  0  0  0  0  0  0  0  0  0
    4.3012    1.4229   18.8961 C   0  0  0  0  0  0  0  0  0  0  0  0
    3.1755    2.2753   19.0740 C   0  0  0  0  0  0  0  0  0  0  0  0
    2.7815    2.6543   20.3278 C   0  0  0  0  0  0  0  0  0  0  0  0
    3.4814    2.1859   21.4568 C   0  0  0  0  0  0  0  0  0  0  0  0
    4.5662    1.3547   21.3146 C   0  0  0  0  0  0  0  0  0  0  0  0
    5.0157    0.9531   20.0208 C   0  0  0  0  0  0  0  0  0  0  0  0
    5.0753    0.9817   22.1989 H   0  0  0  0  0  0  0  0  0  0  0  0
    3.1627    2.4869   22.4544 H   0  0  0  0  0  0  0  0  0  0  0  0
    1.9306    3.3216   20.4495 H   0  0  0  0  0  0  0  0  0  0  0  0
    2.6546    2.6219   18.1864 H   0  0  0  0  0  0  0  0  0  0  0  0
    4.2154    1.3830   16.7223 H   0  0  0  0  0  0  0  0  0  0  0  0
    7.3042   -0.8586   18.2578 H   0  0  0  0  0  0  0  0  0  0  0  0
    6.5486   -1.5522   21.6383 C   0  0  0  0  0  0  0  0  0  0  0  0
    7.7868   -1.8005   22.5253 C   0  0  2  0  0  0  0  0  0  0  0  0
    7.4282   -2.4319   23.8761 C   0  0  0  0  0  0  0  0  0  0  0  0
    6.9674   -3.4158   23.7379 H   0  0  0  0  0  0  0  0  0  0  0  0
    8.3055   -2.5623   24.5216 H   0  0  0  0  0  0  0  0  0  0  0  0
    6.7058   -1.8097   24.4188 H   0  0  0  0  0  0  0  0  0  0  0  0
    8.4411   -2.4897   21.9861 H   0  0  0  0  0  0  0  0  0  0  0  0
    6.3019   -2.4120   21.0059 H   0  0  0  0  0  0  0  0  0  0  0  0
    5.6640   -1.3240   22.2524 H   0  0  0  0  0  0  0  0  0  0  0  0
   10.0514   -0.5114   22.5279 C   0  0  0  0  0  0  0  0  0  0  0  0
   10.7031   -1.5031   21.7874 C   0  0  0  0  0  0  0  0  0  0  0  0
   12.0761   -1.4835   21.6870 C   0  0  0  0  0  0  0  0  0  0  0  0
   12.6505   -2.4511   20.9527 F   0  0  0  0  0  0  0  0  0  0  0  0
   12.8504   -0.4960   22.2942 C   0  0  0  0  0  0  0  0  0  0  0  0
   12.2124    0.4829   23.0192 C   0  0  0  0  0  0  0  0  0  0  0  0
   10.8263    0.5065   23.1015 C   0  0  0  0  0  0  0  0  0  0  0  0
   10.2033    1.7127   23.7286 C   0  0  0  0  0  0  0  0  0  0  0  0
   10.8709    2.6866   24.0609 O   0  0  0  0  0  0  0  0  0  0  0  0
   12.7663    1.2701   23.5195 H   0  0  0  0  0  0  0  0  0  0  0  0
   13.9265   -0.4564   22.1959 H   0  0  0  0  0  0  0  0  0  0  0  0
   10.1788   -2.2716   21.2295 H   0  0  0  0  0  0  0  0  0  0  0  0
    8.3408   -0.2109   24.6993 H   0  0  0  0  0  0  0  0  0  0  0  0
    7.0687    0.6200   23.7449 H   0  0  0  0  0  0  0  0  0  0  0  0
    7.2557    2.5030   24.8751 H   0  0  0  0  0  0  0  0  0  0  0  0
    8.8568    3.2119   25.2251 H   0  0  0  0  0  0  0  0  0  0  0  0
    8.8582    4.0781   22.7934 H   0  0  0  0  0  0  0  0  0  0  0  0
    7.7571    4.8764   23.9261 H   0  0  0  0  0  0  0  0  0  0  0  0
    5.9443    3.4950   23.0803 H   0  0  0  0  0  0  0  0  0  0  0  0
    7.0337    2.6804   22.0612 H   0  0  0  0  0  0  0  0  0  0  0  0
    5.7269    4.2813   20.8615 H   0  0  0  0  0  0  0  0  0  0  0  0
    7.4692    4.6420   20.8088 H   0  0  0  0  0  0  0  0  0  0  0  0
    6.4189    5.5837   21.8652 H   0  0  0  0  0  0  0  0  0  0  0  0
  1  2  1  0
  2  3  1  0
  3  4  1  0
  4  5  1  0
  5  6  1  0
  7  6  1  1
  7  8  1  0
  8  9  2  0
  8 10  1  0
 10 11  1  0
 11 12  2  0
 12 13  1  0
 13 14  2  0
 14 15  1  0
 15 16  2  0
 16 17  1  0
 17 18  2  0
 18 19  1  0
 19 20  2  0
 19 21  1  0
 18 22  1  0
 17 23  1  0
 16 24  1  0
 14 25  1  0
 12 26  1  0
 10 27  1  0
 27 28  1  0
 28 29  1  0
 29 30  1  0
 29 31  1  0
 29 32  1  0
 28 33  1  6
 27 34  1  0
 27 35  1  0
  7 36  1  0
 36 37  2  0
 37 38  1  0
 38 39  1  0
 38 40  2  0
 40 41  1  0
 41 42  2  0
 42 43  1  0
 43 44  2  0
 41 45  1  0
 40 46  1  0
 37 47  1  0
  6 48  1  0
  6 49  1  0
  4 50  1  0
  4 51  1  0
  3 52  1  0
  3 53  1  0
  2 54  1  0
  2 55  1  0
  1 56  1  0
  1 57  1  0
  1 58  1  0
 43  5  1  0
 28  7  1  0
 42 36  1  0
 20 11  1  0
 20 15  1  0
M  CHG  1   2   1
M  END
>  <cnnaffinities>  (93) 
[6.04704]

>  <score>  (93) 
6.04704

>  <index>  (93) 
93

>  <Smiles>  (93) 
C([N+](C(C(N1C([C@@]2(C(=O)N(c3c(nc(c4c(c(c(c(c34)[H])[H])[H])[H])[H])[H])C([C@@]2(C([H])([H])[H])[H])([H])[H])c2c(c(F)c(c(c2C1=O)[H])[H])[H])([H])[H])([H])[H])([H])[H])([H])[H])([H])([H])[H]

>  <h>  (93) 
<NA>

>  <Training>  (93) 
True

>  <Success>  (93) 
True

>  <enamine_searched>  (93) 
False

>  <enamine_id>  (93) 
nan

$$$$

     RDKit          3D

 65 69  0  0  0  0  0  0  0  0999 V2000
   13.7704    0.5853   23.0290 C   0  0  0  0  0  0  0  0  0  0  0  0
   12.6732    0.8160   24.0707 C   0  0  0  0  0  0  0  0  0  0  0  0
   11.4115    0.2006   23.5213 C   0  0  0  0  0  0  0  0  0  0  0  0
   10.9656    0.4884   22.4430 O   0  0  0  0  0  0  0  0  0  0  0  0
   10.7385   -0.8310   24.3583 N   0  0  2  0  0  4  0  0  0  0  0  0
   11.1619   -2.2746   24.0221 C   0  0  0  0  0  0  0  0  0  0  0  0
   10.4255   -2.7265   22.7768 C   0  0  0  0  0  0  0  0  0  0  0  0
    8.9243   -2.8162   23.0425 C   0  0  0  0  0  0  0  0  0  0  0  0
    8.3646   -1.5400   23.6530 C   0  0  0  0  0  0  0  0  0  0  0  0
    6.9994   -1.1709   23.6310 C   0  0  0  0  0  0  0  0  0  0  0  0
    6.0372   -1.8551   22.8410 N   0  0  0  0  0  0  0  0  0  0  0  0
    5.0603   -2.6444   23.5918 C   0  0  0  0  0  0  0  0  0  0  0  0
    5.7499   -3.9016   24.0545 C   0  0  0  0  0  0  0  0  0  0  0  0
    6.3657   -4.0142   25.3032 C   0  0  0  0  0  0  0  0  0  0  0  0
    7.2479   -5.0623   25.5584 C   0  0  0  0  0  0  0  0  0  0  0  0
    7.4709   -6.0350   24.5866 C   0  0  0  0  0  0  0  0  0  0  0  0
    6.7795   -5.9605   23.3824 C   0  0  0  0  0  0  0  0  0  0  0  0
    6.9655   -7.2366   22.2096 Cl  0  0  0  0  0  0  0  0  0  0  0  0
    5.9644   -4.8802   23.0850 C   0  0  0  0  0  0  0  0  0  0  0  0
    5.5551   -4.7931   22.0799 H   0  0  0  0  0  0  0  0  0  0  0  0
    8.1820   -6.8368   24.7445 H   0  0  0  0  0  0  0  0  0  0  0  0
    7.7756   -5.0908   26.5104 H   0  0  0  0  0  0  0  0  0  0  0  0
    6.1839   -3.2427   26.0504 H   0  0  0  0  0  0  0  0  0  0  0  0
    4.7367   -2.0486   24.4517 H   0  0  0  0  0  0  0  0  0  0  0  0
    4.2061   -2.8661   22.9418 H   0  0  0  0  0  0  0  0  0  0  0  0
    5.9889   -1.7556   21.4704 C   0  0  0  0  0  0  0  0  0  0  0  0
    5.3051   -2.5024   20.7916 O   0  0  0  0  0  0  0  0  0  0  0  0
    6.8192   -0.6218   20.8399 C   0  0  0  0  0  0  0  0  0  0  0  0
    6.0829    0.0419   19.7206 C   0  0  0  0  0  0  0  0  0  0  0  0
    6.4080   -0.2255   18.4190 C   0  0  0  0  0  0  0  0  0  0  0  0
    5.7503    0.2598   17.3367 N   0  0  0  0  0  0  0  0  0  0  0  0
    4.7263    1.0407   17.5700 C   0  0  0  0  0  0  0  0  0  0  0  0
    4.2722    1.3986   18.8693 C   0  0  0  0  0  0  0  0  0  0  0  0
    3.1426    2.2336   19.0588 C   0  0  0  0  0  0  0  0  0  0  0  0
    2.7430    2.5906   20.3152 C   0  0  0  0  0  0  0  0  0  0  0  0
    3.4528    2.1182   21.4429 C   0  0  0  0  0  0  0  0  0  0  0  0
    4.5426    1.2947   21.2903 C   0  0  0  0  0  0  0  0  0  0  0  0
    4.9793    0.9051   19.9894 C   0  0  0  0  0  0  0  0  0  0  0  0
    5.0686    0.9498   22.1788 H   0  0  0  0  0  0  0  0  0  0  0  0
    3.1287    2.4150   22.4369 H   0  0  0  0  0  0  0  0  0  0  0  0
    1.8849    3.2425   20.4544 H   0  0  0  0  0  0  0  0  0  0  0  0
    2.6141    2.5912   18.1783 H   0  0  0  0  0  0  0  0  0  0  0  0
    4.1911    1.4279   16.7027 H   0  0  0  0  0  0  0  0  0  0  0  0
    7.2517   -0.8798   18.1945 H   0  0  0  0  0  0  0  0  0  0  0  0
    7.1009    0.1227   21.5893 H   0  0  0  0  0  0  0  0  0  0  0  0
    7.7548   -1.0507   20.4590 H   0  0  0  0  0  0  0  0  0  0  0  0
    6.5190   -0.0736   24.3381 C   0  0  0  0  0  0  0  0  0  0  0  0
    7.4077    0.7864   24.9590 C   0  0  0  0  0  0  0  0  0  0  0  0
    8.7553    0.4873   24.9166 C   0  0  0  0  0  0  0  0  0  0  0  0
    9.2239   -0.6685   24.3205 C   0  0  0  0  0  0  0  0  0  0  0  0
    9.4719    1.1487   25.3606 H   0  0  0  0  0  0  0  0  0  0  0  0
    7.0721    1.6787   25.4693 H   0  0  0  0  0  0  0  0  0  0  0  0
    5.4485    0.1266   24.3472 H   0  0  0  0  0  0  0  0  0  0  0  0
    8.4097   -3.0788   22.1147 H   0  0  0  0  0  0  0  0  0  0  0  0
    8.7453   -3.6406   23.7434 H   0  0  0  0  0  0  0  0  0  0  0  0
   10.6276   -2.0403   21.9472 H   0  0  0  0  0  0  0  0  0  0  0  0
   10.8186   -3.7006   22.5064 H   0  0  0  0  0  0  0  0  0  0  0  0
   10.8627   -2.8913   24.8712 H   0  0  0  0  0  0  0  0  0  0  0  0
   12.2512   -2.3258   23.9161 H   0  0  0  0  0  0  0  0  0  0  0  0
   11.0385   -0.6524   25.3362 H   0  0  0  0  0  0  0  0  0  0  0  0
   12.9255    0.3923   25.0483 H   0  0  0  0  0  0  0  0  0  0  0  0
   12.4570    1.8798   24.2214 H   0  0  0  0  0  0  0  0  0  0  0  0
   13.3103    0.4754   22.0435 H   0  0  0  0  0  0  0  0  0  0  0  0
   14.4835    1.4079   22.9873 H   0  0  0  0  0  0  0  0  0  0  0  0
   14.2883   -0.3498   23.2495 H   0  0  0  0  0  0  0  0  0  0  0  0
  1  2  1  0
  2  3  1  0
  3  4  2  0
  3  5  1  0
  5  6  1  0
  6  7  1  0
  7  8  1  0
  8  9  1  0
  9 10  2  0
 10 11  1  0
 11 12  1  0
 12 13  1  0
 13 14  2  0
 14 15  1  0
 15 16  2  0
 16 17  1  0
 17 18  1  0
 17 19  2  0
 19 20  1  0
 16 21  1  0
 15 22  1  0
 14 23  1  0
 12 24  1  0
 12 25  1  0
 11 26  1  0
 26 27  2  0
 26 28  1  0
 28 29  1  0
 29 30  2  0
 30 31  1  0
 31 32  2  0
 32 33  1  0
 33 34  2  0
 34 35  1  0
 35 36  2  0
 36 37  1  0
 37 38  2  0
 37 39  1  0
 36 40  1  0
 35 41  1  0
 34 42  1  0
 32 43  1  0
 30 44  1  0
 28 45  1  0
 28 46  1  0
 10 47  1  0
 47 48  2  0
 48 49  1  0
 49 50  2  0
 49 51  1  0
 48 52  1  0
 47 53  1  0
  8 54  1  0
  8 55  1  0
  7 56  1  0
  7 57  1  0
  6 58  1  0
  6 59  1  0
  5 60  1  1
  2 61  1  0
  2 62  1  0
  1 63  1  0
  1 64  1  0
  1 65  1  0
 50  5  1  0
 50  9  1  0
 19 13  1  0
 38 29  1  0
 38 33  1  0
M  CHG  1   5   1
M  END
>  <cnnaffinities>  (94) 
[6.78259, 6.60246]

>  <score>  (94) 
6.78259

>  <index>  (94) 
94

>  <Smiles>  (94) 
C(C(C(=O)[N@@+]1(C(C(C(c2c(N(C(c3c(c(c(c(Cl)c3[H])[H])[H])[H])([H])[H])C(=O)C(c3c(nc(c4c(c(c(c(c34)[H])[H])[H])[H])[H])[H])([H])[H])c(c(c(c12)[H])[H])[H])([H])[H])([H])[H])([H])[H])[H])([H])[H])([H])([H])[H]

>  <h>  (94) 
<NA>

>  <Training>  (94) 
True

>  <Success>  (94) 
True

>  <enamine_searched>  (94) 
False

>  <enamine_id>  (94) 
nan

$$$$

     RDKit          3D

 67 71  0  0  0  0  0  0  0  0999 V2000
    7.6792   -8.3882   22.9388 C   0  0  0  0  0  0  0  0  0  0  0  0
    6.7278   -7.3677   22.5647 N   0  0  0  0  0  0  0  0  0  0  0  0
    7.0645   -6.5025   21.5678 C   0  0  0  0  0  0  0  0  0  0  0  0
    8.0217   -6.6622   20.8268 O   0  0  0  0  0  0  0  0  0  0  0  0
    6.1863   -5.2472   21.4895 C   0  0  0  0  0  0  0  0  0  0  0  0
    6.6113   -4.2795   22.4869 N   0  0  0  0  0  0  0  0  0  0  0  0
    7.7343   -3.3848   22.2443 C   0  0  0  0  0  0  0  0  0  0  0  0
    7.3708   -1.9354   22.6445 C   0  0  2  0  0  0  0  0  0  0  0  0
    6.2832   -1.4448   21.6579 C   0  0  0  0  0  0  0  0  0  0  0  0
    5.1546   -1.8669   21.5472 O   0  0  0  0  0  0  0  0  0  0  0  0
    6.8291   -0.4602   20.8568 N   0  0  0  0  0  0  0  0  0  0  0  0
    6.1027    0.0880   19.7845 C   0  0  0  0  0  0  0  0  0  0  0  0
    6.4601   -0.1957   18.4926 C   0  0  0  0  0  0  0  0  0  0  0  0
    5.7948    0.2516   17.4041 N   0  0  0  0  0  0  0  0  0  0  0  0
    4.7533    1.0197   17.6092 C   0  0  0  0  0  0  0  0  0  0  0  0
    4.2887    1.4029   18.8989 C   0  0  0  0  0  0  0  0  0  0  0  0
    3.1544    2.2366   19.0641 C   0  0  0  0  0  0  0  0  0  0  0  0
    2.7605    2.6335   20.3111 C   0  0  0  0  0  0  0  0  0  0  0  0
    3.4708    2.2005   21.4544 C   0  0  0  0  0  0  0  0  0  0  0  0
    4.5592    1.3752   21.3248 C   0  0  0  0  0  0  0  0  0  0  0  0
    4.9873    0.9448   20.0354 C   0  0  0  0  0  0  0  0  0  0  0  0
    5.1005    1.0367   22.2046 H   0  0  0  0  0  0  0  0  0  0  0  0
    3.1518    2.5275   22.4399 H   0  0  0  0  0  0  0  0  0  0  0  0
    1.9054    3.2920   20.4300 H   0  0  0  0  0  0  0  0  0  0  0  0
    2.6292    2.5660   18.1717 H   0  0  0  0  0  0  0  0  0  0  0  0
    4.2226    1.3822   16.7290 H   0  0  0  0  0  0  0  0  0  0  0  0
    7.3084   -0.8514   18.2964 H   0  0  0  0  0  0  0  0  0  0  0  0
    8.2705   -0.3982   20.9514 C   0  0  0  0  0  0  0  0  0  0  0  0
    8.5197   -0.9173   22.3714 C   0  0  2  0  0  0  0  0  0  0  0  0
    9.9595   -1.3900   22.5247 C   0  0  0  0  0  0  0  0  0  0  0  0
   10.4308   -1.5683   24.2475 S   0  0  0  0  0  0  0  0  0  0  0  0
   10.2648   -0.2698   24.8844 O   0  0  0  0  0  0  0  0  0  0  0  0
    9.8180   -2.7766   24.7805 O   0  0  0  0  0  0  0  0  0  0  0  0
   12.0556   -1.8867   24.1822 N   0  0  0  0  0  0  0  0  0  0  0  0
   12.9638   -0.7912   23.8935 C   0  0  0  0  0  0  0  0  0  0  0  0
   13.9569   -1.0584   24.2647 H   0  0  0  0  0  0  0  0  0  0  0  0
   12.6223    0.1028   24.4164 H   0  0  0  0  0  0  0  0  0  0  0  0
   13.0500   -0.5827   22.8186 H   0  0  0  0  0  0  0  0  0  0  0  0
   12.3969   -3.1749   23.6061 C   0  0  0  0  0  0  0  0  0  0  0  0
   11.7917   -3.9284   24.1056 H   0  0  0  0  0  0  0  0  0  0  0  0
   12.2220   -3.2538   22.5226 H   0  0  0  0  0  0  0  0  0  0  0  0
   13.4483   -3.3822   23.8106 H   0  0  0  0  0  0  0  0  0  0  0  0
   10.1097   -2.3479   22.0100 H   0  0  0  0  0  0  0  0  0  0  0  0
   10.6464   -0.6499   22.0996 H   0  0  0  0  0  0  0  0  0  0  0  0
    8.3642   -0.0632   23.0310 H   0  0  0  0  0  0  0  0  0  0  0  0
    8.6193    0.6297   20.8153 H   0  0  0  0  0  0  0  0  0  0  0  0
    8.7665   -1.0275   20.1954 H   0  0  0  0  0  0  0  0  0  0  0  0
    6.8701   -2.0043   24.0800 C   0  0  0  0  0  0  0  0  0  0  0  0
    6.8587   -0.8764   24.9081 C   0  0  0  0  0  0  0  0  0  0  0  0
    6.3790   -0.9784   26.2000 C   0  0  0  0  0  0  0  0  0  0  0  0
    6.3042    0.1318   26.9547 F   0  0  0  0  0  0  0  0  0  0  0  0
    5.9610   -2.1837   26.7526 C   0  0  0  0  0  0  0  0  0  0  0  0
    5.9535   -3.2994   25.9427 C   0  0  0  0  0  0  0  0  0  0  0  0
    6.3514   -3.2003   24.6121 C   0  0  0  0  0  0  0  0  0  0  0  0
    6.1168   -4.3891   23.7460 C   0  0  0  0  0  0  0  0  0  0  0  0
    5.4816   -5.3763   24.1229 O   0  0  0  0  0  0  0  0  0  0  0  0
    5.6208   -4.2655   26.3081 H   0  0  0  0  0  0  0  0  0  0  0  0
    5.6252   -2.2209   27.7809 H   0  0  0  0  0  0  0  0  0  0  0  0
    7.2219    0.0887   24.5756 H   0  0  0  0  0  0  0  0  0  0  0  0
    8.5939   -3.7177   22.8400 H   0  0  0  0  0  0  0  0  0  0  0  0
    7.9985   -3.4289   21.1928 H   0  0  0  0  0  0  0  0  0  0  0  0
    6.2723   -4.7897   20.4995 H   0  0  0  0  0  0  0  0  0  0  0  0
    5.1288   -5.4770   21.6690 H   0  0  0  0  0  0  0  0  0  0  0  0
    6.0987   -7.0120   23.2829 H   0  0  0  0  0  0  0  0  0  0  0  0
    8.3791   -8.0342   23.7020 H   0  0  0  0  0  0  0  0  0  0  0  0
    8.2457   -8.6630   22.0561 H   0  0  0  0  0  0  0  0  0  0  0  0
    7.1617   -9.2721   23.2999 H   0  0  0  0  0  0  0  0  0  0  0  0
  1  2  1  0
  2  3  1  0
  3  4  2  0
  3  5  1  0
  5  6  1  0
  6  7  1  0
  8  7  1  6
  8  9  1  0
  9 10  2  0
  9 11  1  0
 11 12  1  0
 12 13  2  0
 13 14  1  0
 14 15  2  0
 15 16  1  0
 16 17  2  0
 17 18  1  0
 18 19  2  0
 19 20  1  0
 20 21  2  0
 20 22  1  0
 19 23  1  0
 18 24  1  0
 17 25  1  0
 15 26  1  0
 13 27  1  0
 11 28  1  0
 28 29  1  0
 29 30  1  0
 30 31  1  0
 31 32  2  0
 31 33  2  0
 31 34  1  0
 34 35  1  0
 35 36  1  0
 35 37  1  0
 35 38  1  0
 34 39  1  0
 39 40  1  0
 39 41  1  0
 39 42  1  0
 30 43  1  0
 30 44  1  0
 29 45  1  1
 28 46  1  0
 28 47  1  0
  8 48  1  0
 48 49  2  0
 49 50  1  0
 50 51  1  0
 50 52  2  0
 52 53  1  0
 53 54  2  0
 54 55  1  0
 55 56  2  0
 53 57  1  0
 52 58  1  0
 49 59  1  0
  7 60  1  0
  7 61  1  0
  5 62  1  0
  5 63  1  0
  2 64  1  0
  1 65  1  0
  1 66  1  0
  1 67  1  0
 55  6  1  0
 29  8  1  0
 54 48  1  0
 21 12  1  0
 21 16  1  0
M  END
>  <cnnaffinities>  (95) 
[7.24743]

>  <score>  (95) 
7.24743

>  <index>  (95) 
95

>  <Smiles>  (95) 
C(N(C(=O)C(N1C([C@@]2(C(=O)N(c3c(nc(c4c(c(c(c(c34)[H])[H])[H])[H])[H])[H])C([C@@]2(C(S(=O)(=O)N(C([H])([H])[H])C([H])([H])[H])([H])[H])[H])([H])[H])c2c(c(F)c(c(c2C1=O)[H])[H])[H])([H])[H])([H])[H])[H])([H])([H])[H]

>  <h>  (95) 
<NA>

>  <Training>  (95) 
True

>  <Success>  (95) 
True

>  <enamine_searched>  (95) 
False

>  <enamine_id>  (95) 
nan

$$$$

     RDKit          3D

 37 39  0  0  0  0  0  0  0  0999 V2000
    8.6802    1.3125   20.6412 O   0  0  0  0  0  0  0  0  0  0  0  0
    7.9073    0.7267   21.3805 C   0  0  0  0  0  0  0  0  0  0  0  0
    6.9898   -0.3964   20.8965 C   0  0  0  0  0  0  0  0  0  0  0  0
    6.1123    0.0933   19.7778 C   0  0  0  0  0  0  0  0  0  0  0  0
    6.4295   -0.2035   18.4790 C   0  0  0  0  0  0  0  0  0  0  0  0
    5.7582    0.2378   17.3880 N   0  0  0  0  0  0  0  0  0  0  0  0
    4.7294    1.0183   17.5987 C   0  0  0  0  0  0  0  0  0  0  0  0
    4.2740    1.4043   18.8890 C   0  0  0  0  0  0  0  0  0  0  0  0
    3.1401    2.2381   19.0607 C   0  0  0  0  0  0  0  0  0  0  0  0
    2.7354    2.6165   20.3094 C   0  0  0  0  0  0  0  0  0  0  0  0
    3.4441    2.1619   21.4425 C   0  0  0  0  0  0  0  0  0  0  0  0
    4.5389    1.3436   21.3044 C   0  0  0  0  0  0  0  0  0  0  0  0
    4.9887    0.9407   20.0175 C   0  0  0  0  0  0  0  0  0  0  0  0
    5.0599    1.0086   22.1947 H   0  0  0  0  0  0  0  0  0  0  0  0
    3.1123    2.4671   22.4291 H   0  0  0  0  0  0  0  0  0  0  0  0
    1.8805    3.2746   20.4372 H   0  0  0  0  0  0  0  0  0  0  0  0
    2.6083    2.5816   18.1778 H   0  0  0  0  0  0  0  0  0  0  0  0
    4.1984    1.3825   16.7196 H   0  0  0  0  0  0  0  0  0  0  0  0
    7.2844   -0.8458   18.2662 H   0  0  0  0  0  0  0  0  0  0  0  0
    7.6131   -1.2210   20.5242 H   0  0  0  0  0  0  0  0  0  0  0  0
    6.4007   -0.7877   21.7346 H   0  0  0  0  0  0  0  0  0  0  0  0
    7.7589    1.0698   22.6946 N   0  0  0  0  0  0  0  0  0  0  0  0
    8.6939    2.0236   23.2685 C   0  0  0  0  0  0  0  0  0  0  0  0
   10.1070    1.4838   23.3605 C   0  0  0  0  0  0  0  0  0  0  0  0
   11.1557    2.1001   22.6814 C   0  0  0  0  0  0  0  0  0  0  0  0
   12.4453    1.5757   22.7522 C   0  0  0  0  0  0  0  0  0  0  0  0
   12.6678    0.3631   23.3947 C   0  0  0  0  0  0  0  0  0  0  0  0
   11.6087   -0.2475   24.0592 C   0  0  0  0  0  0  0  0  0  0  0  0
   11.8350   -1.8285   24.7382 Cl  0  0  0  0  0  0  0  0  0  0  0  0
   10.3536    0.3374   24.1181 C   0  0  0  0  0  0  0  0  0  0  0  0
    9.5838   -0.1088   24.7469 H   0  0  0  0  0  0  0  0  0  0  0  0
   13.6425   -0.1181   23.3694 H   0  0  0  0  0  0  0  0  0  0  0  0
   13.2782    2.1424   22.3401 H   0  0  0  0  0  0  0  0  0  0  0  0
   10.9350    2.9822   22.0849 H   0  0  0  0  0  0  0  0  0  0  0  0
    8.6705    2.9374   22.6601 H   0  0  0  0  0  0  0  0  0  0  0  0
    8.3461    2.2488   24.2785 H   0  0  0  0  0  0  0  0  0  0  0  0
    7.2661    0.4366   23.3105 H   0  0  0  0  0  0  0  0  0  0  0  0
  1  2  2  0
  2  3  1  0
  3  4  1  0
  4  5  2  0
  5  6  1  0
  6  7  2  0
  7  8  1  0
  8  9  2  0
  9 10  1  0
 10 11  2  0
 11 12  1  0
 12 13  2  0
 12 14  1  0
 11 15  1  0
 10 16  1  0
  9 17  1  0
  7 18  1  0
  5 19  1  0
  3 20  1  0
  3 21  1  0
  2 22  1  0
 22 23  1  0
 23 24  1  0
 24 25  2  0
 25 26  1  0
 26 27  2  0
 27 28  1  0
 28 29  1  0
 28 30  2  0
 30 31  1  0
 27 32  1  0
 26 33  1  0
 25 34  1  0
 23 35  1  0
 23 36  1  0
 22 37  1  0
 13  4  1  0
 30 24  1  0
 13  8  1  0
M  END
>  <cnnaffinities>  (96) 
[5.11623, 5.01988, 4.59457]

>  <score>  (96) 
5.11623

>  <index>  (96) 
96

>  <Smiles>  (96) 
O=C(C(c1c(nc(c2c(c(c(c(c12)[H])[H])[H])[H])[H])[H])([H])[H])N(C(c1c(c(c(c(Cl)c1[H])[H])[H])[H])([H])[H])[H]

>  <h>  (96) 
<NA>

>  <Training>  (96) 
True

>  <Success>  (96) 
True

>  <enamine_searched>  (96) 
False

>  <enamine_id>  (96) 
nan

$$$$
