
     RDKit          3D

 63 69  0  0  0  0  0  0  0  0999 V2000
    9.4895    2.6369   24.9965 O   0  0  0  0  0  0  0  0  0  0  0  0
    9.1532    1.5396   24.5844 C   0  0  0  0  0  0  0  0  0  0  0  0
   10.1507    0.5183   24.1435 C   0  0  0  0  0  0  0  0  0  0  0  0
   11.4656    0.6449   24.6052 C   0  0  0  0  0  0  0  0  0  0  0  0
   12.4484   -0.1931   24.1273 C   0  0  0  0  0  0  0  0  0  0  0  0
   12.1144   -1.1497   23.1755 C   0  0  0  0  0  0  0  0  0  0  0  0
   13.4007   -2.1196   22.5233 Cl  0  0  0  0  0  0  0  0  0  0  0  0
   10.8113   -1.3335   22.7485 C   0  0  0  0  0  0  0  0  0  0  0  0
    9.7891   -0.4948   23.2347 C   0  0  0  0  0  0  0  0  0  0  0  0
    8.3317   -0.6031   22.8071 C   0  0  1  0  0  0  0  0  0  0  0  0
    7.4834   -0.1618   24.0369 C   0  0  0  0  0  0  0  0  0  0  0  0
    7.8359    1.1792   24.4660 N   0  0  0  0  0  0  0  0  0  0  0  0
    6.8491    2.1445   24.8959 C   0  0  0  0  0  0  0  0  0  0  0  0
    6.5832    3.2201   23.8892 C   0  0  0  0  0  0  0  0  0  0  0  0
    5.4571    3.8304   23.6968 N   0  0  0  0  0  0  0  0  0  0  0  0
    5.7095    4.8175   22.7481 N   0  0  0  0  0  0  0  0  0  0  0  0
    6.9585    4.7164   22.4546 C   0  0  0  0  0  0  0  0  0  0  0  0
    7.5764    3.7212   23.1292 O   0  0  0  0  0  0  0  0  0  0  0  0
    7.5445    5.3286   21.7836 H   0  0  0  0  0  0  0  0  0  0  0  0
    7.2401    2.6117   25.8090 H   0  0  0  0  0  0  0  0  0  0  0  0
    5.8956    1.6612   25.1287 H   0  0  0  0  0  0  0  0  0  0  0  0
    7.6795   -0.8656   24.8583 H   0  0  0  0  0  0  0  0  0  0  0  0
    6.4174   -0.1902   23.7777 H   0  0  0  0  0  0  0  0  0  0  0  0
    7.9219    0.2834   21.5942 C   0  0  0  0  0  0  0  0  0  0  0  0
    8.3026    1.3912   21.2989 O   0  0  0  0  0  0  0  0  0  0  0  0
    6.9453   -0.4165   20.9028 N   0  0  0  0  0  0  0  0  0  0  0  0
    6.2032    0.1423   19.8356 C   0  0  0  0  0  0  0  0  0  0  0  0
    6.5538   -0.1569   18.5443 C   0  0  0  0  0  0  0  0  0  0  0  0
    5.8990    0.2943   17.4485 N   0  0  0  0  0  0  0  0  0  0  0  0
    4.8373    1.0353   17.6458 C   0  0  0  0  0  0  0  0  0  0  0  0
    4.3571    1.4153   18.9289 C   0  0  0  0  0  0  0  0  0  0  0  0
    3.2020    2.2279   19.0762 C   0  0  0  0  0  0  0  0  0  0  0  0
    2.7414    2.5606   20.3180 C   0  0  0  0  0  0  0  0  0  0  0  0
    3.4174    2.0955   21.4719 C   0  0  0  0  0  0  0  0  0  0  0  0
    4.5450    1.3178   21.3557 C   0  0  0  0  0  0  0  0  0  0  0  0
    5.0484    0.9585   20.0737 C   0  0  0  0  0  0  0  0  0  0  0  0
    5.0462    0.9551   22.2502 H   0  0  0  0  0  0  0  0  0  0  0  0
    3.0444    2.3643   22.4565 H   0  0  0  0  0  0  0  0  0  0  0  0
    1.8592    3.1875   20.4238 H   0  0  0  0  0  0  0  0  0  0  0  0
    2.7066    2.5761   18.1730 H   0  0  0  0  0  0  0  0  0  0  0  0
    4.2953    1.3718   16.7627 H   0  0  0  0  0  0  0  0  0  0  0  0
    7.4183   -0.7930   18.3571 H   0  0  0  0  0  0  0  0  0  0  0  0
    6.7213   -1.7739   21.3594 C   0  0  0  0  0  0  0  0  0  0  0  0
    7.9136   -2.0067   22.2946 C   0  0  2  0  0  0  0  0  0  0  0  0
    7.6758   -3.0415   23.4000 C   0  0  0  0  0  0  0  0  0  0  0  0
    7.5536   -4.4005   22.9144 N   0  0  0  0  0  0  0  0  0  0  0  0
    6.3834   -4.9796   22.5838 C   0  0  0  0  0  0  0  0  0  0  0  0
    5.2369   -4.3331   22.8790 N   0  0  0  0  0  0  0  0  0  0  0  0
    4.1389   -5.0266   22.6054 C   0  0  0  0  0  0  0  0  0  0  0  0
    4.0795   -6.2316   22.0456 N   0  0  0  0  0  0  0  0  0  0  0  0
    5.2799   -6.7440   21.7492 C   0  0  0  0  0  0  0  0  0  0  0  0
    6.4554   -6.1898   21.9855 N   0  0  0  0  0  0  0  0  0  0  0  0
    5.2889   -7.7205   21.2614 H   0  0  0  0  0  0  0  0  0  0  0  0
    3.1921   -4.5564   22.8691 H   0  0  0  0  0  0  0  0  0  0  0  0
    8.3805   -4.9348   22.7032 H   0  0  0  0  0  0  0  0  0  0  0  0
    6.7520   -2.8018   23.9355 H   0  0  0  0  0  0  0  0  0  0  0  0
    8.5115   -2.9980   24.1096 H   0  0  0  0  0  0  0  0  0  0  0  0
    8.7271   -2.3629   21.6562 H   0  0  0  0  0  0  0  0  0  0  0  0
    6.7077   -2.4684   20.5121 H   0  0  0  0  0  0  0  0  0  0  0  0
    5.7586   -1.8713   21.8799 H   0  0  0  0  0  0  0  0  0  0  0  0
   10.6520   -2.1416   22.0374 H   0  0  0  0  0  0  0  0  0  0  0  0
   13.4746   -0.1182   24.4570 H   0  0  0  0  0  0  0  0  0  0  0  0
   11.6994    1.4166   25.3249 H   0  0  0  0  0  0  0  0  0  0  0  0
  1  2  2  0
  2  3  1  0
  3  4  2  0
  4  5  1  0
  5  6  2  0
  6  7  1  0
  6  8  1  0
  8  9  2  0
  9 10  1  0
 10 11  1  1
 11 12  1  0
 12 13  1  0
 13 14  1  0
 14 15  2  0
 15 16  1  0
 16 17  2  0
 17 18  1  0
 17 19  1  0
 13 20  1  0
 13 21  1  0
 11 22  1  0
 11 23  1  0
 10 24  1  0
 24 25  2  0
 24 26  1  0
 26 27  1  0
 27 28  2  0
 28 29  1  0
 29 30  2  0
 30 31  1  0
 31 32  2  0
 32 33  1  0
 33 34  2  0
 34 35  1  0
 35 36  2  0
 35 37  1  0
 34 38  1  0
 33 39  1  0
 32 40  1  0
 30 41  1  0
 28 42  1  0
 26 43  1  0
 43 44  1  0
 44 45  1  0
 45 46  1  0
 46 47  1  0
 47 48  2  0
 48 49  1  0
 49 50  2  0
 50 51  1  0
 51 52  2  0
 51 53  1  0
 49 54  1  0
 46 55  1  0
 45 56  1  0
 45 57  1  0
 44 58  1  6
 43 59  1  0
 43 60  1  0
  8 61  1  0
  5 62  1  0
  4 63  1  0
 12  2  1  0
 18 14  1  0
 36 27  1  0
 52 47  1  0
  9  3  1  0
 44 10  1  0
 36 31  1  0
M  END
>  <cnnaffinities>  (1) 
[7.33942]

>  <score>  (1) 
7.33942

>  <index>  (1) 
0

>  <Smiles>  (1) 
O=C1c2c(c(c(Cl)c(c2[C@@]2(C(N1C(c1nnc(o1)[H])([H])[H])([H])[H])C(=O)N(c1c(nc(c3c(c(c(c(c13)[H])[H])[H])[H])[H])[H])C([C@@]2(C(N(c1nc(nc(n1)[H])[H])[H])([H])[H])[H])([H])[H])[H])[H])[H]

>  <h>  (1) 
<NA>

>  <Training>  (1) 
True

>  <Success>  (1) 
True

>  <enamine_searched>  (1) 
False

>  <enamine_id>  (1) 
nan

$$$$

     RDKit          3D

 51 54  0  0  0  0  0  0  0  0999 V2000
   13.4190   -2.2775   23.4940 C   0  0  0  0  0  0  0  0  0  0  0  0
   12.2746   -1.6131   23.9705 O   0  0  0  0  0  0  0  0  0  0  0  0
   11.0724   -1.8786   23.3938 C   0  0  0  0  0  0  0  0  0  0  0  0
   10.8812   -2.7283   22.3093 C   0  0  0  0  0  0  0  0  0  0  0  0
    9.5872   -2.9150   21.8133 C   0  0  0  0  0  0  0  0  0  0  0  0
    8.4851   -2.3358   22.4373 C   0  0  0  0  0  0  0  0  0  0  0  0
    7.1652   -2.6891   22.0089 N   0  0  0  0  0  0  0  0  0  0  0  0
    6.6092   -3.9986   22.3651 C   0  0  0  0  0  0  0  0  0  0  0  0
    6.0590   -4.0522   23.7783 C   0  0  0  0  0  0  0  0  0  0  0  0
    4.6888   -3.9095   24.0091 C   0  0  0  0  0  0  0  0  0  0  0  0
    4.1965   -3.8592   25.3117 C   0  0  0  0  0  0  0  0  0  0  0  0
    5.0616   -4.0223   26.3916 C   0  0  0  0  0  0  0  0  0  0  0  0
    6.4162   -4.2206   26.1516 C   0  0  0  0  0  0  0  0  0  0  0  0
    7.4978   -4.5192   27.4875 Cl  0  0  0  0  0  0  0  0  0  0  0  0
    6.9254   -4.2115   24.8588 C   0  0  0  0  0  0  0  0  0  0  0  0
    7.9868   -4.3805   24.6960 H   0  0  0  0  0  0  0  0  0  0  0  0
    4.6985   -4.0138   27.4143 H   0  0  0  0  0  0  0  0  0  0  0  0
    3.1365   -3.6875   25.4923 H   0  0  0  0  0  0  0  0  0  0  0  0
    4.0191   -3.8655   23.1541 H   0  0  0  0  0  0  0  0  0  0  0  0
    5.8020   -4.1825   21.6557 H   0  0  0  0  0  0  0  0  0  0  0  0
    7.3873   -4.7615   22.2194 H   0  0  0  0  0  0  0  0  0  0  0  0
    6.2855   -1.7813   21.4477 C   0  0  0  0  0  0  0  0  0  0  0  0
    5.0940   -2.0121   21.3587 O   0  0  0  0  0  0  0  0  0  0  0  0
    6.9158   -0.5098   20.8886 C   0  0  0  0  0  0  0  0  0  0  0  0
    6.1164    0.0918   19.7689 C   0  0  0  0  0  0  0  0  0  0  0  0
    6.4414   -0.1929   18.4679 C   0  0  0  0  0  0  0  0  0  0  0  0
    5.7881    0.2830   17.3780 N   0  0  0  0  0  0  0  0  0  0  0  0
    4.7437    1.0441   17.5908 C   0  0  0  0  0  0  0  0  0  0  0  0
    4.2847    1.4167   18.8798 C   0  0  0  0  0  0  0  0  0  0  0  0
    3.1650    2.2676   19.0510 C   0  0  0  0  0  0  0  0  0  0  0  0
    2.7472    2.6186   20.3057 C   0  0  0  0  0  0  0  0  0  0  0  0
    3.4317    2.1261   21.4414 C   0  0  0  0  0  0  0  0  0  0  0  0
    4.5167    1.2942   21.2986 C   0  0  0  0  0  0  0  0  0  0  0  0
    4.9804    0.9233   20.0081 C   0  0  0  0  0  0  0  0  0  0  0  0
    5.0232    0.9102   22.1789 H   0  0  0  0  0  0  0  0  0  0  0  0
    3.0967    2.4168   22.4329 H   0  0  0  0  0  0  0  0  0  0  0  0
    1.8942    3.2785   20.4343 H   0  0  0  0  0  0  0  0  0  0  0  0
    2.6630    2.6409   18.1603 H   0  0  0  0  0  0  0  0  0  0  0  0
    4.2024    1.4047   16.7154 H   0  0  0  0  0  0  0  0  0  0  0  0
    7.2842   -0.8477   18.2434 H   0  0  0  0  0  0  0  0  0  0  0  0
    7.9219   -0.7819   20.5511 H   0  0  0  0  0  0  0  0  0  0  0  0
    7.0566    0.1965   21.7182 H   0  0  0  0  0  0  0  0  0  0  0  0
    8.7041   -1.4458   23.4948 C   0  0  0  0  0  0  0  0  0  0  0  0
    9.9849   -1.2184   23.9653 C   0  0  0  0  0  0  0  0  0  0  0  0
   10.1860   -0.4977   24.7575 H   0  0  0  0  0  0  0  0  0  0  0  0
    7.8583   -0.9558   23.9728 H   0  0  0  0  0  0  0  0  0  0  0  0
    9.4567   -3.5015   20.9057 H   0  0  0  0  0  0  0  0  0  0  0  0
   11.7097   -3.2962   21.8926 H   0  0  0  0  0  0  0  0  0  0  0  0
   14.2612   -1.8389   24.0334 H   0  0  0  0  0  0  0  0  0  0  0  0
   13.3631   -3.3526   23.7019 H   0  0  0  0  0  0  0  0  0  0  0  0
   13.5525   -2.1261   22.4157 H   0  0  0  0  0  0  0  0  0  0  0  0
  1  2  1  0
  2  3  1  0
  3  4  2  0
  4  5  1  0
  5  6  2  0
  6  7  1  0
  7  8  1  0
  8  9  1  0
  9 10  2  0
 10 11  1  0
 11 12  2  0
 12 13  1  0
 13 14  1  0
 13 15  2  0
 15 16  1  0
 12 17  1  0
 11 18  1  0
 10 19  1  0
  8 20  1  0
  8 21  1  0
  7 22  1  0
 22 23  2  0
 22 24  1  0
 24 25  1  0
 25 26  2  0
 26 27  1  0
 27 28  2  0
 28 29  1  0
 29 30  2  0
 30 31  1  0
 31 32  2  0
 32 33  1  0
 33 34  2  0
 33 35  1  0
 32 36  1  0
 31 37  1  0
 30 38  1  0
 28 39  1  0
 26 40  1  0
 24 41  1  0
 24 42  1  0
  6 43  1  0
 43 44  2  0
 44 45  1  0
 43 46  1  0
  5 47  1  0
  4 48  1  0
  1 49  1  0
  1 50  1  0
  1 51  1  0
 44  3  1  0
 15  9  1  0
 34 25  1  0
 34 29  1  0
M  END
>  <cnnaffinities>  (2) 
[6.56019, 6.27702]

>  <score>  (2) 
6.56019

>  <index>  (2) 
1

>  <Smiles>  (2) 
C(Oc1c(c(c(N(C(c2c(c(c(c(Cl)c2[H])[H])[H])[H])([H])[H])C(=O)C(c2c(nc(c3c(c(c(c(c23)[H])[H])[H])[H])[H])[H])([H])[H])c(c1[H])[H])[H])[H])([H])([H])[H]

>  <h>  (2) 
<NA>

>  <Training>  (2) 
True

>  <Success>  (2) 
True

>  <enamine_searched>  (2) 
False

>  <enamine_id>  (2) 
nan

$$$$

     RDKit          3D

 56 60  0  0  0  0  0  0  0  0999 V2000
    6.5934    4.3598   21.4897 C   0  0  0  0  0  0  0  0  0  0  0  0
    7.5485    3.8890   22.4807 N   0  0  0  0  0  0  0  0  0  0  0  0
    7.0749    3.1984   23.5516 C   0  0  0  0  0  0  0  0  0  0  0  0
    5.8793    2.9804   23.6956 O   0  0  0  0  0  0  0  0  0  0  0  0
    8.1018    2.7340   24.5849 C   0  0  0  0  0  0  0  0  0  0  0  0
    8.7012    1.4593   24.2158 N   0  0  0  0  0  0  0  0  0  0  0  0
    7.8534    0.3007   23.9675 C   0  0  0  0  0  0  0  0  0  0  0  0
    8.4263   -0.5460   22.7922 C   0  0  2  0  0  0  0  0  0  0  0  0
    8.1145    0.2011   21.4621 C   0  0  0  0  0  0  0  0  0  0  0  0
    8.6970    1.1451   20.9742 O   0  0  0  0  0  0  0  0  0  0  0  0
    6.9783   -0.3737   20.9202 N   0  0  0  0  0  0  0  0  0  0  0  0
    6.2520    0.1947   19.8434 C   0  0  0  0  0  0  0  0  0  0  0  0
    6.6172   -0.0856   18.5516 C   0  0  0  0  0  0  0  0  0  0  0  0
    5.9333    0.3278   17.4598 N   0  0  0  0  0  0  0  0  0  0  0  0
    4.8485    1.0364   17.6604 C   0  0  0  0  0  0  0  0  0  0  0  0
    4.3697    1.4289   18.9418 C   0  0  0  0  0  0  0  0  0  0  0  0
    3.2196    2.2478   19.1006 C   0  0  0  0  0  0  0  0  0  0  0  0
    2.7931    2.6107   20.3500 C   0  0  0  0  0  0  0  0  0  0  0  0
    3.4912    2.1664   21.4938 C   0  0  0  0  0  0  0  0  0  0  0  0
    4.6026    1.3655   21.3637 C   0  0  0  0  0  0  0  0  0  0  0  0
    5.0811    0.9839   20.0798 C   0  0  0  0  0  0  0  0  0  0  0  0
    5.1494    1.0761   22.2542 H   0  0  0  0  0  0  0  0  0  0  0  0
    3.1725    2.4807   22.4831 H   0  0  0  0  0  0  0  0  0  0  0  0
    1.9220    3.2494   20.4644 H   0  0  0  0  0  0  0  0  0  0  0  0
    2.7009    2.5859   18.2078 H   0  0  0  0  0  0  0  0  0  0  0  0
    4.2902    1.3408   16.7776 H   0  0  0  0  0  0  0  0  0  0  0  0
    7.5028   -0.6913   18.3727 H   0  0  0  0  0  0  0  0  0  0  0  0
    6.4780   -1.5465   21.6113 C   0  0  0  0  0  0  0  0  0  0  0  0
    7.6275   -1.8580   22.5795 C   0  0  2  0  0  0  0  0  0  0  0  0
    7.2405   -2.5004   23.8762 N   0  0  0  0  0  4  0  0  0  0  0  0
    6.5460   -1.9164   24.3720 H   0  0  0  0  0  0  0  0  0  0  0  0
    8.0955   -2.5753   24.4550 H   0  0  0  0  0  0  0  0  0  0  0  0
    6.8337   -3.4375   23.7318 H   0  0  0  0  0  0  0  0  0  0  0  0
    8.2922   -2.5506   22.0769 H   0  0  0  0  0  0  0  0  0  0  0  0
    5.5264   -1.3343   22.1186 H   0  0  0  0  0  0  0  0  0  0  0  0
    6.3016   -2.3577   20.8903 H   0  0  0  0  0  0  0  0  0  0  0  0
    9.9051   -0.8072   23.0471 C   0  0  0  0  0  0  0  0  0  0  0  0
   10.6245   -1.7819   22.3319 C   0  0  0  0  0  0  0  0  0  0  0  0
   11.9937   -1.9031   22.4971 C   0  0  0  0  0  0  0  0  0  0  0  0
   12.8848   -2.9337   21.4108 Cl  0  0  0  0  0  0  0  0  0  0  0  0
   12.6933   -1.1736   23.4580 C   0  0  0  0  0  0  0  0  0  0  0  0
   11.9769   -0.2411   24.1920 C   0  0  0  0  0  0  0  0  0  0  0  0
   10.6205   -0.0142   23.9498 C   0  0  0  0  0  0  0  0  0  0  0  0
   10.0369    1.2764   24.4525 C   0  0  0  0  0  0  0  0  0  0  0  0
   10.7355    2.1340   24.9716 O   0  0  0  0  0  0  0  0  0  0  0  0
   12.4512    0.4008   24.9198 H   0  0  0  0  0  0  0  0  0  0  0  0
   13.7743   -1.2863   23.5137 H   0  0  0  0  0  0  0  0  0  0  0  0
   10.1369   -2.4233   21.6074 H   0  0  0  0  0  0  0  0  0  0  0  0
    7.7867   -0.3053   24.8817 H   0  0  0  0  0  0  0  0  0  0  0  0
    6.8486    0.6596   23.7188 H   0  0  0  0  0  0  0  0  0  0  0  0
    7.5864    2.6686   25.5524 H   0  0  0  0  0  0  0  0  0  0  0  0
    8.9198    3.4548   24.6943 H   0  0  0  0  0  0  0  0  0  0  0  0
    8.5043    3.7365   22.1907 H   0  0  0  0  0  0  0  0  0  0  0  0
    5.7957    4.8986   22.0087 H   0  0  0  0  0  0  0  0  0  0  0  0
    7.0772    5.0408   20.7829 H   0  0  0  0  0  0  0  0  0  0  0  0
    6.1353    3.5177   20.9507 H   0  0  0  0  0  0  0  0  0  0  0  0
  1  2  1  0
  2  3  1  0
  3  4  2  0
  3  5  1  0
  5  6  1  0
  6  7  1  0
  8  7  1  1
  8  9  1  0
  9 10  2  0
  9 11  1  0
 11 12  1  0
 12 13  2  0
 13 14  1  0
 14 15  2  0
 15 16  1  0
 16 17  2  0
 17 18  1  0
 18 19  2  0
 19 20  1  0
 20 21  2  0
 20 22  1  0
 19 23  1  0
 18 24  1  0
 17 25  1  0
 15 26  1  0
 13 27  1  0
 11 28  1  0
 28 29  1  0
 29 30  1  0
 30 31  1  0
 30 32  1  0
 30 33  1  0
 29 34  1  6
 28 35  1  0
 28 36  1  0
  8 37  1  0
 37 38  2  0
 38 39  1  0
 39 40  1  0
 39 41  2  0
 41 42  1  0
 42 43  2  0
 43 44  1  0
 44 45  2  0
 42 46  1  0
 41 47  1  0
 38 48  1  0
  7 49  1  0
  7 50  1  0
  5 51  1  0
  5 52  1  0
  2 53  1  0
  1 54  1  0
  1 55  1  0
  1 56  1  0
 44  6  1  0
 29  8  1  0
 43 37  1  0
 21 12  1  0
 21 16  1  0
M  CHG  1  30   1
M  END
>  <cnnaffinities>  (3) 
[6.9409]

>  <score>  (3) 
6.9409

>  <index>  (3) 
2

>  <Smiles>  (3) 
C(N(C(=O)C(N1C([C@@]2(C(=O)N(c3c(nc(c4c(c(c(c(c34)[H])[H])[H])[H])[H])[H])C([C@@]2([N+]([H])([H])[H])[H])([H])[H])c2c(c(Cl)c(c(c2C1=O)[H])[H])[H])([H])[H])([H])[H])[H])([H])([H])[H]

>  <h>  (3) 
<NA>

>  <Training>  (3) 
True

>  <Success>  (3) 
True

>  <enamine_searched>  (3) 
False

>  <enamine_id>  (3) 
nan

$$$$

     RDKit          3D

 67 73  0  0  0  0  0  0  0  0999 V2000
    9.8937    2.7348   24.6888 O   0  0  0  0  0  0  0  0  0  0  0  0
    9.3939    1.6547   24.3864 C   0  0  0  0  0  0  0  0  0  0  0  0
   10.2158    0.4454   24.0514 C   0  0  0  0  0  0  0  0  0  0  0  0
   11.5529    0.4084   24.4501 C   0  0  0  0  0  0  0  0  0  0  0  0
   12.4410   -0.4881   23.8763 C   0  0  0  0  0  0  0  0  0  0  0  0
   11.9490   -1.3781   22.9192 C   0  0  0  0  0  0  0  0  0  0  0  0
   13.0570   -2.4469   22.0875 Cl  0  0  0  0  0  0  0  0  0  0  0  0
   10.5935   -1.4501   22.6299 C   0  0  0  0  0  0  0  0  0  0  0  0
    9.6855   -0.5448   23.2077 C   0  0  0  0  0  0  0  0  0  0  0  0
    8.1928   -0.5497   22.9016 C   0  0  1  0  0  0  0  0  0  0  0  0
    7.4776    0.1546   24.0978 C   0  0  0  0  0  0  0  0  0  0  0  0
    8.0473    1.4709   24.3093 N   0  0  0  0  0  0  0  0  0  0  0  0
    7.1827    2.5936   24.6240 C   0  0  0  0  0  0  0  0  0  0  0  0
    6.7656    2.6413   26.0743 C   0  0  0  0  0  0  0  0  0  0  0  0
    7.4250    3.3931   27.0215 C   0  0  0  0  0  0  0  0  0  0  0  0
    6.9605    3.3219   28.3319 C   0  0  0  0  0  0  0  0  0  0  0  0
    5.9395    2.5624   28.7104 N   0  0  0  0  0  0  0  0  0  0  0  0
    5.3060    1.8277   27.8064 N   0  0  0  0  0  0  0  0  0  0  0  0
    5.7061    1.8616   26.5401 C   0  0  0  0  0  0  0  0  0  0  0  0
    5.1369    1.2294   25.8593 H   0  0  0  0  0  0  0  0  0  0  0  0
    7.4338    3.8932   29.1267 H   0  0  0  0  0  0  0  0  0  0  0  0
    8.2932    4.0011   26.7711 H   0  0  0  0  0  0  0  0  0  0  0  0
    6.3017    2.5424   23.9725 H   0  0  0  0  0  0  0  0  0  0  0  0
    7.7391    3.4981   24.3754 H   0  0  0  0  0  0  0  0  0  0  0  0
    6.4079    0.2714   23.9000 H   0  0  0  0  0  0  0  0  0  0  0  0
    7.5656   -0.4537   25.0118 H   0  0  0  0  0  0  0  0  0  0  0  0
    7.8619    0.2412   21.6129 C   0  0  0  0  0  0  0  0  0  0  0  0
    8.3011    1.3168   21.2794 O   0  0  0  0  0  0  0  0  0  0  0  0
    6.9169   -0.4674   20.8976 N   0  0  0  0  0  0  0  0  0  0  0  0
    6.1752    0.1154   19.8402 C   0  0  0  0  0  0  0  0  0  0  0  0
    6.5154   -0.1867   18.5503 C   0  0  0  0  0  0  0  0  0  0  0  0
    5.8596    0.2699   17.4567 N   0  0  0  0  0  0  0  0  0  0  0  0
    4.8095    1.0251   17.6515 C   0  0  0  0  0  0  0  0  0  0  0  0
    4.3368    1.4058   18.9360 C   0  0  0  0  0  0  0  0  0  0  0  0
    3.2087    2.2510   19.0790 C   0  0  0  0  0  0  0  0  0  0  0  0
    2.7660    2.6089   20.3205 C   0  0  0  0  0  0  0  0  0  0  0  0
    3.4358    2.1359   21.4730 C   0  0  0  0  0  0  0  0  0  0  0  0
    4.5332    1.3186   21.3626 C   0  0  0  0  0  0  0  0  0  0  0  0
    5.0237    0.9372   20.0796 C   0  0  0  0  0  0  0  0  0  0  0  0
    5.0331    0.9664   22.2640 H   0  0  0  0  0  0  0  0  0  0  0  0
    3.0740    2.4277   22.4539 H   0  0  0  0  0  0  0  0  0  0  0  0
    1.9051    3.2623   20.4291 H   0  0  0  0  0  0  0  0  0  0  0  0
    2.7178    2.6064   18.1769 H   0  0  0  0  0  0  0  0  0  0  0  0
    4.2737    1.3842   16.7705 H   0  0  0  0  0  0  0  0  0  0  0  0
    7.3762   -0.8246   18.3544 H   0  0  0  0  0  0  0  0  0  0  0  0
    6.5190   -1.7176   21.5068 C   0  0  0  0  0  0  0  0  0  0  0  0
    7.5929   -1.9472   22.5711 C   0  0  2  0  0  0  0  0  0  0  0  0
    7.0671   -2.7573   23.7446 C   0  0  0  0  0  0  0  0  0  0  0  0
    8.1453   -3.0564   24.6563 N   0  0  0  0  0  0  0  0  0  0  0  0
    7.8829   -3.5572   25.8886 C   0  0  0  0  0  0  0  0  0  0  0  0
    8.9272   -3.7469   26.8104 C   0  0  0  0  0  0  0  0  0  0  0  0
    8.5669   -4.2480   28.0369 C   0  0  0  0  0  0  0  0  0  0  0  0
    7.3024   -4.5693   28.3543 N   0  0  0  0  0  0  0  0  0  0  0  0
    6.4117   -4.3697   27.3964 C   0  0  0  0  0  0  0  0  0  0  0  0
    6.6175   -3.8827   26.1719 N   0  0  0  0  0  0  0  0  0  0  0  0
    5.3823   -4.6327   27.6384 H   0  0  0  0  0  0  0  0  0  0  0  0
    9.3228   -4.4056   28.8076 H   0  0  0  0  0  0  0  0  0  0  0  0
    9.9500   -3.5289   26.5238 H   0  0  0  0  0  0  0  0  0  0  0  0
    9.0119   -2.5489   24.5378 H   0  0  0  0  0  0  0  0  0  0  0  0
    6.2722   -2.2112   24.2703 H   0  0  0  0  0  0  0  0  0  0  0  0
    6.6170   -3.6984   23.4094 H   0  0  0  0  0  0  0  0  0  0  0  0
    8.3811   -2.5403   22.0994 H   0  0  0  0  0  0  0  0  0  0  0  0
    6.4991   -2.5309   20.7723 H   0  0  0  0  0  0  0  0  0  0  0  0
    5.5134   -1.6536   21.9498 H   0  0  0  0  0  0  0  0  0  0  0  0
   10.2718   -2.2157   21.9383 H   0  0  0  0  0  0  0  0  0  0  0  0
   13.4970   -0.4839   24.1319 H   0  0  0  0  0  0  0  0  0  0  0  0
   11.8881    1.1553   25.1599 H   0  0  0  0  0  0  0  0  0  0  0  0
  1  2  2  0
  2  3  1  0
  3  4  2  0
  4  5  1  0
  5  6  2  0
  6  7  1  0
  6  8  1  0
  8  9  2  0
  9 10  1  0
 10 11  1  1
 11 12  1  0
 12 13  1  0
 13 14  1  0
 14 15  2  0
 15 16  1  0
 16 17  2  0
 17 18  1  0
 18 19  2  0
 19 20  1  0
 16 21  1  0
 15 22  1  0
 13 23  1  0
 13 24  1  0
 11 25  1  0
 11 26  1  0
 10 27  1  0
 27 28  2  0
 27 29  1  0
 29 30  1  0
 30 31  2  0
 31 32  1  0
 32 33  2  0
 33 34  1  0
 34 35  2  0
 35 36  1  0
 36 37  2  0
 37 38  1  0
 38 39  2  0
 38 40  1  0
 37 41  1  0
 36 42  1  0
 35 43  1  0
 33 44  1  0
 31 45  1  0
 29 46  1  0
 46 47  1  0
 47 48  1  0
 48 49  1  0
 49 50  1  0
 50 51  2  0
 51 52  1  0
 52 53  2  0
 53 54  1  0
 54 55  2  0
 54 56  1  0
 52 57  1  0
 51 58  1  0
 49 59  1  0
 48 60  1  0
 48 61  1  0
 47 62  1  6
 46 63  1  0
 46 64  1  0
  8 65  1  0
  5 66  1  0
  4 67  1  0
 12  2  1  0
 19 14  1  0
 39 30  1  0
 55 50  1  0
  9  3  1  0
 47 10  1  0
 39 34  1  0
M  END
>  <cnnaffinities>  (4) 
[7.36355]

>  <score>  (4) 
7.36355

>  <index>  (4) 
3

>  <Smiles>  (4) 
O=C1c2c(c(c(Cl)c(c2[C@@]2(C(N1C(c1c(c(nnc1[H])[H])[H])([H])[H])([H])[H])C(=O)N(c1c(nc(c3c(c(c(c(c13)[H])[H])[H])[H])[H])[H])C([C@@]2(C(N(c1c(c(nc(n1)[H])[H])[H])[H])([H])[H])[H])([H])[H])[H])[H])[H]

>  <h>  (4) 
<NA>

>  <Training>  (4) 
True

>  <Success>  (4) 
True

>  <enamine_searched>  (4) 
False

>  <enamine_id>  (4) 
nan

$$$$

     RDKit          3D

 41 44  0  0  0  0  0  0  0  0999 V2000
    7.3406   -0.3135   24.4612 C   0  0  0  0  0  0  0  0  0  0  0  0
    7.7769   -1.4944   23.5892 C   0  0  1  0  0  0  0  0  0  0  0  0
    8.5051   -2.5216   24.4140 C   0  0  0  0  0  0  0  0  0  0  0  0
    9.8835   -2.4890   24.7815 C   0  0  0  0  0  0  0  0  0  0  0  0
   10.2028   -3.5060   25.6295 C   0  0  0  0  0  0  0  0  0  0  0  0
    8.8431   -4.4804   26.0389 S   0  0  0  0  0  0  0  0  0  0  0  0
    7.8224   -3.5210   25.0272 C   0  0  0  0  0  0  0  0  0  0  0  0
    6.3481   -3.6488   24.8540 C   0  0  0  0  0  0  0  0  0  0  0  0
    5.9176   -3.2454   23.4396 C   0  0  0  0  0  0  0  0  0  0  0  0
    6.6473   -2.0948   22.8717 N   0  0  0  0  0  0  0  0  0  0  0  0
    6.2034   -1.6628   21.6381 C   0  0  0  0  0  0  0  0  0  0  0  0
    5.2558   -2.2095   21.1008 O   0  0  0  0  0  0  0  0  0  0  0  0
    6.9216   -0.4908   20.9206 C   0  0  0  0  0  0  0  0  0  0  0  0
    6.1144    0.0826   19.7791 C   0  0  0  0  0  0  0  0  0  0  0  0
    6.4235   -0.2104   18.4756 C   0  0  0  0  0  0  0  0  0  0  0  0
    5.7694    0.2632   17.3820 N   0  0  0  0  0  0  0  0  0  0  0  0
    4.7312    1.0342   17.5824 C   0  0  0  0  0  0  0  0  0  0  0  0
    4.2832    1.4212   18.8731 C   0  0  0  0  0  0  0  0  0  0  0  0
    3.1636    2.2753   19.0456 C   0  0  0  0  0  0  0  0  0  0  0  0
    2.7482    2.6278   20.3015 C   0  0  0  0  0  0  0  0  0  0  0  0
    3.4383    2.1391   21.4325 C   0  0  0  0  0  0  0  0  0  0  0  0
    4.5287    1.3151   21.2877 C   0  0  0  0  0  0  0  0  0  0  0  0
    4.9881    0.9336   20.0007 C   0  0  0  0  0  0  0  0  0  0  0  0
    5.0423    0.9466   22.1689 H   0  0  0  0  0  0  0  0  0  0  0  0
    3.1032    2.4225   22.4240 H   0  0  0  0  0  0  0  0  0  0  0  0
    1.8921    3.2823   20.4363 H   0  0  0  0  0  0  0  0  0  0  0  0
    2.6447    2.6459   18.1642 H   0  0  0  0  0  0  0  0  0  0  0  0
    4.1988    1.3972   16.7003 H   0  0  0  0  0  0  0  0  0  0  0  0
    7.2629   -0.8650   18.2465 H   0  0  0  0  0  0  0  0  0  0  0  0
    7.8670   -0.8779   20.5159 H   0  0  0  0  0  0  0  0  0  0  0  0
    7.1958    0.3129   21.6170 H   0  0  0  0  0  0  0  0  0  0  0  0
    4.8466   -3.0247   23.4443 H   0  0  0  0  0  0  0  0  0  0  0  0
    6.0414   -4.1027   22.7710 H   0  0  0  0  0  0  0  0  0  0  0  0
    5.8448   -3.0271   25.6069 H   0  0  0  0  0  0  0  0  0  0  0  0
    6.0117   -4.6623   25.0743 H   0  0  0  0  0  0  0  0  0  0  0  0
   11.1695   -3.7583   26.0325 H   0  0  0  0  0  0  0  0  0  0  0  0
   10.5953   -1.7373   24.4464 H   0  0  0  0  0  0  0  0  0  0  0  0
    8.4952   -1.1354   22.8441 H   0  0  0  0  0  0  0  0  0  0  0  0
    6.8203    0.4531   23.8820 H   0  0  0  0  0  0  0  0  0  0  0  0
    8.2098    0.1420   24.9454 H   0  0  0  0  0  0  0  0  0  0  0  0
    6.6699   -0.6645   25.2480 H   0  0  0  0  0  0  0  0  0  0  0  0
  1  2  1  0
  2  3  1  0
  3  4  1  0
  4  5  2  0
  5  6  1  0
  6  7  1  0
  7  8  1  0
  8  9  1  0
  9 10  1  0
 10 11  1  0
 11 12  2  0
 11 13  1  0
 13 14  1  0
 14 15  2  0
 15 16  1  0
 16 17  2  0
 17 18  1  0
 18 19  2  0
 19 20  1  0
 20 21  2  0
 21 22  1  0
 22 23  2  0
 22 24  1  0
 21 25  1  0
 20 26  1  0
 19 27  1  0
 17 28  1  0
 15 29  1  0
 13 30  1  0
 13 31  1  0
  9 32  1  0
  9 33  1  0
  8 34  1  0
  8 35  1  0
  5 36  1  0
  4 37  1  0
  2 38  1  6
  1 39  1  0
  1 40  1  0
  1 41  1  0
 10  2  1  0
 23 14  1  0
  7  3  2  0
 23 18  1  0
M  END
>  <cnnaffinities>  (5) 
[5.58233, 5.59048]

>  <score>  (5) 
5.58233

>  <index>  (5) 
4

>  <Smiles>  (5) 
C([C@]1(c2c(c(sc2C(C(N1C(=O)C(c1c(nc(c2c(c(c(c(c12)[H])[H])[H])[H])[H])[H])([H])[H])([H])[H])([H])[H])[H])[H])[H])([H])([H])[H]

>  <h>  (5) 
<NA>

>  <Training>  (5) 
True

>  <Success>  (5) 
True

>  <enamine_searched>  (5) 
False

>  <enamine_id>  (5) 
nan

$$$$

     RDKit          3D

 65 69  0  0  0  0  0  0  0  0999 V2000
    6.6255   -3.4183   29.7446 C   0  0  0  0  0  0  0  0  0  0  0  0
    7.7441   -3.4339   28.6929 C   0  0  0  0  0  0  0  0  0  0  0  0
    7.4303   -2.3143   27.7298 C   0  0  0  0  0  0  0  0  0  0  0  0
    7.4950   -1.1526   28.0256 O   0  0  0  0  0  0  0  0  0  0  0  0
    6.9145   -2.7104   26.3478 N   0  0  1  0  0  4  0  0  0  0  0  0
    5.3926   -2.4253   26.1644 C   0  0  0  0  0  0  0  0  0  0  0  0
    5.1843   -0.9525   25.8650 C   0  0  0  0  0  0  0  0  0  0  0  0
    5.8773   -0.5760   24.5517 C   0  0  0  0  0  0  0  0  0  0  0  0
    7.3295   -1.0255   24.4782 C   0  0  0  0  0  0  0  0  0  0  0  0
    8.2700   -0.4286   23.6123 C   0  0  0  0  0  0  0  0  0  0  0  0
    7.9206    0.7685   22.8823 N   0  0  0  0  0  0  0  0  0  0  0  0
    8.2561    2.0667   23.4896 C   0  0  0  0  0  0  0  0  0  0  0  0
    7.0866    3.0474   23.4735 C   0  0  0  0  0  0  0  0  0  0  0  0
    6.8433    3.8394   22.3486 C   0  0  0  0  0  0  0  0  0  0  0  0
    5.7478    4.6980   22.3088 C   0  0  0  0  0  0  0  0  0  0  0  0
    4.8772    4.7870   23.3927 C   0  0  0  0  0  0  0  0  0  0  0  0
    5.1363    4.0176   24.5179 C   0  0  0  0  0  0  0  0  0  0  0  0
    4.0400    4.0837   25.8728 Cl  0  0  0  0  0  0  0  0  0  0  0  0
    6.2345    3.1646   24.5743 C   0  0  0  0  0  0  0  0  0  0  0  0
    6.3889    2.5768   25.4749 H   0  0  0  0  0  0  0  0  0  0  0  0
    3.9945    5.4210   23.3678 H   0  0  0  0  0  0  0  0  0  0  0  0
    5.5552    5.2935   21.4161 H   0  0  0  0  0  0  0  0  0  0  0  0
    7.5106    3.7627   21.4936 H   0  0  0  0  0  0  0  0  0  0  0  0
    8.5419    1.8447   24.5237 H   0  0  0  0  0  0  0  0  0  0  0  0
    9.1048    2.5128   22.9456 H   0  0  0  0  0  0  0  0  0  0  0  0
    7.8164    0.7530   21.4950 C   0  0  0  0  0  0  0  0  0  0  0  0
    8.3230    1.6038   20.7849 O   0  0  0  0  0  0  0  0  0  0  0  0
    6.9889   -0.3945   20.9011 C   0  0  0  0  0  0  0  0  0  0  0  0
    6.1225    0.1025   19.7750 C   0  0  0  0  0  0  0  0  0  0  0  0
    6.4468   -0.1793   18.4765 C   0  0  0  0  0  0  0  0  0  0  0  0
    5.7865    0.2829   17.3855 N   0  0  0  0  0  0  0  0  0  0  0  0
    4.7437    1.0442   17.5938 C   0  0  0  0  0  0  0  0  0  0  0  0
    4.2917    1.4282   18.8815 C   0  0  0  0  0  0  0  0  0  0  0  0
    3.1788    2.2874   19.0523 C   0  0  0  0  0  0  0  0  0  0  0  0
    2.7713    2.6505   20.3046 C   0  0  0  0  0  0  0  0  0  0  0  0
    3.4588    2.1629   21.4402 C   0  0  0  0  0  0  0  0  0  0  0  0
    4.5480    1.3377   21.3000 C   0  0  0  0  0  0  0  0  0  0  0  0
    4.9995    0.9506   20.0108 C   0  0  0  0  0  0  0  0  0  0  0  0
    5.0757    0.9844   22.1821 H   0  0  0  0  0  0  0  0  0  0  0  0
    3.1163    2.4419   22.4329 H   0  0  0  0  0  0  0  0  0  0  0  0
    1.9203    3.3153   20.4244 H   0  0  0  0  0  0  0  0  0  0  0  0
    2.6716    2.6550   18.1632 H   0  0  0  0  0  0  0  0  0  0  0  0
    4.1996    1.3909   16.7135 H   0  0  0  0  0  0  0  0  0  0  0  0
    7.2833   -0.8373   18.2442 H   0  0  0  0  0  0  0  0  0  0  0  0
    7.6855   -1.1559   20.5243 H   0  0  0  0  0  0  0  0  0  0  0  0
    6.4154   -0.8644   21.7084 H   0  0  0  0  0  0  0  0  0  0  0  0
    9.5621   -0.9408   23.4694 C   0  0  0  0  0  0  0  0  0  0  0  0
    9.9505   -2.0727   24.1804 C   0  0  0  0  0  0  0  0  0  0  0  0
    9.0466   -2.6591   25.0586 C   0  0  0  0  0  0  0  0  0  0  0  0
    7.7696   -2.1201   25.2195 C   0  0  0  0  0  0  0  0  0  0  0  0
    9.3233   -3.5174   25.6641 H   0  0  0  0  0  0  0  0  0  0  0  0
   10.9569   -2.4682   24.0661 H   0  0  0  0  0  0  0  0  0  0  0  0
   10.2627   -0.4484   22.7940 H   0  0  0  0  0  0  0  0  0  0  0  0
    5.3208   -1.0570   23.7301 H   0  0  0  0  0  0  0  0  0  0  0  0
    5.8237    0.5022   24.3796 H   0  0  0  0  0  0  0  0  0  0  0  0
    4.1117   -0.7477   25.7963 H   0  0  0  0  0  0  0  0  0  0  0  0
    5.5876   -0.3682   26.6977 H   0  0  0  0  0  0  0  0  0  0  0  0
    4.8579   -2.7305   27.0681 H   0  0  0  0  0  0  0  0  0  0  0  0
    5.0389   -3.0463   25.3393 H   0  0  0  0  0  0  0  0  0  0  0  0
    7.0508   -3.7316   26.2764 H   0  0  0  0  0  0  0  0  0  0  0  0
    7.8204   -4.3748   28.1393 H   0  0  0  0  0  0  0  0  0  0  0  0
    8.7302   -3.2203   29.1221 H   0  0  0  0  0  0  0  0  0  0  0  0
    6.7651   -4.1227   30.5601 H   0  0  0  0  0  0  0  0  0  0  0  0
    5.6605   -3.6433   29.2787 H   0  0  0  0  0  0  0  0  0  0  0  0
    6.5710   -2.4136   30.1701 H   0  0  0  0  0  0  0  0  0  0  0  0
  1  2  1  0
  2  3  1  0
  3  4  2  0
  3  5  1  0
  5  6  1  0
  6  7  1  0
  7  8  1  0
  8  9  1  0
  9 10  2  0
 10 11  1  0
 11 12  1  0
 12 13  1  0
 13 14  2  0
 14 15  1  0
 15 16  2  0
 16 17  1  0
 17 18  1  0
 17 19  2  0
 19 20  1  0
 16 21  1  0
 15 22  1  0
 14 23  1  0
 12 24  1  0
 12 25  1  0
 11 26  1  0
 26 27  2  0
 26 28  1  0
 28 29  1  0
 29 30  2  0
 30 31  1  0
 31 32  2  0
 32 33  1  0
 33 34  2  0
 34 35  1  0
 35 36  2  0
 36 37  1  0
 37 38  2  0
 37 39  1  0
 36 40  1  0
 35 41  1  0
 34 42  1  0
 32 43  1  0
 30 44  1  0
 28 45  1  0
 28 46  1  0
 10 47  1  0
 47 48  2  0
 48 49  1  0
 49 50  2  0
 49 51  1  0
 48 52  1  0
 47 53  1  0
  8 54  1  0
  8 55  1  0
  7 56  1  0
  7 57  1  0
  6 58  1  0
  6 59  1  0
  5 60  1  1
  2 61  1  0
  2 62  1  0
  1 63  1  0
  1 64  1  0
  1 65  1  0
 50  5  1  0
 50  9  1  0
 19 13  1  0
 38 29  1  0
 38 33  1  0
M  CHG  1   5   1
M  END
>  <cnnaffinities>  (6) 
[6.71556, 7.02696]

>  <score>  (6) 
6.71556

>  <index>  (6) 
6

>  <Smiles>  (6) 
C(C(C(=O)[N@+]1(C(C(C(c2c(N(C(c3c(c(c(c(Cl)c3[H])[H])[H])[H])([H])[H])C(=O)C(c3c(nc(c4c(c(c(c(c34)[H])[H])[H])[H])[H])[H])([H])[H])c(c(c(c12)[H])[H])[H])([H])[H])([H])[H])([H])[H])[H])([H])[H])([H])([H])[H]

>  <h>  (6) 
<NA>

>  <Training>  (6) 
True

>  <Success>  (6) 
True

>  <enamine_searched>  (6) 
False

>  <enamine_id>  (6) 
nan

$$$$

     RDKit          3D

 37 39  0  0  0  0  0  0  0  0999 V2000
    8.5344    1.3387   20.7084 O   0  0  0  0  0  0  0  0  0  0  0  0
    7.8687    0.6725   21.4758 C   0  0  0  0  0  0  0  0  0  0  0  0
    6.9486   -0.4389   20.9186 C   0  0  0  0  0  0  0  0  0  0  0  0
    6.1057    0.0810   19.7732 C   0  0  0  0  0  0  0  0  0  0  0  0
    6.4302   -0.1998   18.4728 C   0  0  0  0  0  0  0  0  0  0  0  0
    5.7747    0.2744   17.3805 N   0  0  0  0  0  0  0  0  0  0  0  0
    4.7314    1.0363   17.5849 C   0  0  0  0  0  0  0  0  0  0  0  0
    4.2807    1.4225   18.8725 C   0  0  0  0  0  0  0  0  0  0  0  0
    3.1680    2.2824   19.0458 C   0  0  0  0  0  0  0  0  0  0  0  0
    2.7633    2.6495   20.3000 C   0  0  0  0  0  0  0  0  0  0  0  0
    3.4620    2.1697   21.4314 C   0  0  0  0  0  0  0  0  0  0  0  0
    4.5451    1.3381   21.2890 C   0  0  0  0  0  0  0  0  0  0  0  0
    4.9875    0.9391   20.0012 C   0  0  0  0  0  0  0  0  0  0  0  0
    5.0685    0.9828   22.1730 H   0  0  0  0  0  0  0  0  0  0  0  0
    3.1362    2.4666   22.4230 H   0  0  0  0  0  0  0  0  0  0  0  0
    1.9118    3.3121   20.4332 H   0  0  0  0  0  0  0  0  0  0  0  0
    2.6516    2.6491   18.1617 H   0  0  0  0  0  0  0  0  0  0  0  0
    4.1988    1.3951   16.7011 H   0  0  0  0  0  0  0  0  0  0  0  0
    7.2715   -0.8527   18.2405 H   0  0  0  0  0  0  0  0  0  0  0  0
    6.3111   -0.8804   21.6960 H   0  0  0  0  0  0  0  0  0  0  0  0
    7.6001   -1.2339   20.5346 H   0  0  0  0  0  0  0  0  0  0  0  0
    7.8830    0.9003   22.8466 N   0  0  0  0  0  0  0  0  0  0  0  0
    7.5919   -0.1174   23.8433 C   0  0  0  0  0  0  0  0  0  0  0  0
    8.4545    0.0735   25.0869 C   0  0  0  0  0  0  0  0  0  0  0  0
    8.3351    1.4890   25.6263 C   0  0  0  0  0  0  0  0  0  0  0  0
    8.7006    2.4943   24.5440 C   0  0  0  0  0  0  0  0  0  0  0  0
    7.8416    2.2856   23.3089 C   0  0  0  0  0  0  0  0  0  0  0  0
    6.8040    2.5845   23.5399 H   0  0  0  0  0  0  0  0  0  0  0  0
    8.1804    2.9082   22.4829 H   0  0  0  0  0  0  0  0  0  0  0  0
    8.5813    3.5187   24.9136 H   0  0  0  0  0  0  0  0  0  0  0  0
    9.7556    2.3864   24.2748 H   0  0  0  0  0  0  0  0  0  0  0  0
    7.3142    1.6731   25.9850 H   0  0  0  0  0  0  0  0  0  0  0  0
    8.9803    1.6110   26.4940 H   0  0  0  0  0  0  0  0  0  0  0  0
    9.4996   -0.1396   24.8427 H   0  0  0  0  0  0  0  0  0  0  0  0
    8.1656   -0.6529   25.8517 H   0  0  0  0  0  0  0  0  0  0  0  0
    6.5312   -0.1113   24.1452 H   0  0  0  0  0  0  0  0  0  0  0  0
    7.8006   -1.0925   23.4065 H   0  0  0  0  0  0  0  0  0  0  0  0
  1  2  2  0
  2  3  1  0
  3  4  1  0
  4  5  2  0
  5  6  1  0
  6  7  2  0
  7  8  1  0
  8  9  2  0
  9 10  1  0
 10 11  2  0
 11 12  1  0
 12 13  2  0
 12 14  1  0
 11 15  1  0
 10 16  1  0
  9 17  1  0
  7 18  1  0
  5 19  1  0
  3 20  1  0
  3 21  1  0
  2 22  1  0
 22 23  1  0
 23 24  1  0
 24 25  1  0
 25 26  1  0
 26 27  1  0
 27 28  1  0
 27 29  1  0
 26 30  1  0
 26 31  1  0
 25 32  1  0
 25 33  1  0
 24 34  1  0
 24 35  1  0
 23 36  1  0
 23 37  1  0
 13  4  1  0
 27 22  1  0
 13  8  1  0
M  END
>  <cnnaffinities>  (7) 
[4.98535, 4.97856, 5.18948]

>  <score>  (7) 
4.98535

>  <index>  (7) 
7

>  <Smiles>  (7) 
O=C(C(c1c(nc(c2c(c(c(c(c12)[H])[H])[H])[H])[H])[H])([H])[H])N1C(C(C(C(C1([H])[H])([H])[H])([H])[H])([H])[H])([H])[H]

>  <h>  (7) 
<NA>

>  <Training>  (7) 
True

>  <Success>  (7) 
True

>  <enamine_searched>  (7) 
False

>  <enamine_id>  (7) 
nan

$$$$

     RDKit          3D

 66 71  0  0  0  0  0  0  0  0999 V2000
    7.7117   -3.0844   23.3130 C   0  0  0  0  0  0  0  0  0  0  0  0
    7.9728   -2.0129   22.2623 C   0  0  1  0  0  0  0  0  0  0  0  0
    6.8334   -1.8005   21.2576 C   0  0  0  0  0  0  0  0  0  0  0  0
    6.9792   -0.4107   20.8695 N   0  0  0  0  0  0  0  0  0  0  0  0
    6.1933    0.1436   19.8274 C   0  0  0  0  0  0  0  0  0  0  0  0
    6.4979   -0.1815   18.5297 C   0  0  0  0  0  0  0  0  0  0  0  0
    5.8329    0.2692   17.4410 N   0  0  0  0  0  0  0  0  0  0  0  0
    4.7910    1.0347   17.6416 C   0  0  0  0  0  0  0  0  0  0  0  0
    4.3341    1.4210   18.9301 C   0  0  0  0  0  0  0  0  0  0  0  0
    3.1974    2.2575   19.0774 C   0  0  0  0  0  0  0  0  0  0  0  0
    2.7492    2.6000   20.3218 C   0  0  0  0  0  0  0  0  0  0  0  0
    3.4109    2.1126   21.4714 C   0  0  0  0  0  0  0  0  0  0  0  0
    4.5202    1.3092   21.3534 C   0  0  0  0  0  0  0  0  0  0  0  0
    5.0314    0.9557   20.0709 C   0  0  0  0  0  0  0  0  0  0  0  0
    5.0083    0.9386   22.2511 H   0  0  0  0  0  0  0  0  0  0  0  0
    3.0355    2.3828   22.4538 H   0  0  0  0  0  0  0  0  0  0  0  0
    1.8845    3.2479   20.4324 H   0  0  0  0  0  0  0  0  0  0  0  0
    2.7027    2.6182   18.1786 H   0  0  0  0  0  0  0  0  0  0  0  0
    4.2467    1.3880   16.7640 H   0  0  0  0  0  0  0  0  0  0  0  0
    7.3422   -0.8397   18.3290 H   0  0  0  0  0  0  0  0  0  0  0  0
    7.8004    0.3239   21.7046 C   0  0  0  0  0  0  0  0  0  0  0  0
    8.0692    1.4951   21.5492 O   0  0  0  0  0  0  0  0  0  0  0  0
    8.2529   -0.6095   22.8604 C   0  0  1  0  0  0  0  0  0  0  0  0
    7.3504   -0.3043   24.1045 C   0  0  0  0  0  0  0  0  0  0  0  0
    7.5867    1.0429   24.6018 N   0  0  0  0  0  0  0  0  0  0  0  0
    6.4912    1.8809   25.0508 C   0  0  0  0  0  0  0  0  0  0  0  0
    6.0804    1.5996   26.5013 C   0  0  0  0  0  0  0  0  0  0  0  0
    6.5109    2.2485   27.4419 O   0  0  0  0  0  0  0  0  0  0  0  0
    5.2175    0.5591   26.6808 N   0  0  0  0  0  0  0  0  0  0  0  0
    4.8089    0.2269   28.0385 C   0  0  0  0  0  0  0  0  0  0  0  0
    3.8903    1.2582   28.6326 C   0  0  0  0  0  0  0  0  0  0  0  0
    4.0499    2.1419   29.6807 C   0  0  0  0  0  0  0  0  0  0  0  0
    2.8504    2.8732   29.7162 C   0  0  0  0  0  0  0  0  0  0  0  0
    2.0092    2.4767   28.7709 N   0  0  0  0  0  0  0  0  0  0  0  0
    2.6512    1.4923   28.1250 N   0  0  0  0  0  0  0  0  0  0  0  0
    1.9976    0.8604   26.9972 C   0  0  0  0  0  0  0  0  0  0  0  0
    0.9494    1.1564   27.0440 H   0  0  0  0  0  0  0  0  0  0  0  0
    2.4235    1.1960   26.0451 H   0  0  0  0  0  0  0  0  0  0  0  0
    2.0656   -0.2289   27.0673 H   0  0  0  0  0  0  0  0  0  0  0  0
    2.5588    3.6705   30.3877 H   0  0  0  0  0  0  0  0  0  0  0  0
    4.9348    2.2676   30.2931 H   0  0  0  0  0  0  0  0  0  0  0  0
    5.7025    0.1537   28.6620 H   0  0  0  0  0  0  0  0  0  0  0  0
    4.3381   -0.7609   28.0313 H   0  0  0  0  0  0  0  0  0  0  0  0
    4.9454   -0.0301   25.9095 H   0  0  0  0  0  0  0  0  0  0  0  0
    5.6455    1.7676   24.3570 H   0  0  0  0  0  0  0  0  0  0  0  0
    6.8538    2.9099   25.0035 H   0  0  0  0  0  0  0  0  0  0  0  0
    8.8414    1.5744   24.6623 C   0  0  0  0  0  0  0  0  0  0  0  0
    9.0560    2.7029   25.0836 O   0  0  0  0  0  0  0  0  0  0  0  0
    9.9352    0.6764   24.1902 C   0  0  0  0  0  0  0  0  0  0  0  0
   11.2220    0.9868   24.6042 C   0  0  0  0  0  0  0  0  0  0  0  0
   12.3013    0.2434   24.1729 C   0  0  0  0  0  0  0  0  0  0  0  0
   12.0800   -0.8186   23.2963 C   0  0  0  0  0  0  0  0  0  0  0  0
   10.7966   -1.0915   22.8391 C   0  0  0  0  0  0  0  0  0  0  0  0
    9.6861   -0.3696   23.2993 C   0  0  0  0  0  0  0  0  0  0  0  0
   10.6546   -1.8545   22.0834 H   0  0  0  0  0  0  0  0  0  0  0  0
   12.9130   -1.4428   22.9820 H   0  0  0  0  0  0  0  0  0  0  0  0
   13.3079    0.4986   24.4809 H   0  0  0  0  0  0  0  0  0  0  0  0
   11.3248    1.8243   25.2698 H   0  0  0  0  0  0  0  0  0  0  0  0
    6.2932   -0.3781   23.8232 H   0  0  0  0  0  0  0  0  0  0  0  0
    7.5458   -1.0540   24.8897 H   0  0  0  0  0  0  0  0  0  0  0  0
    6.9158   -2.4483   20.3816 H   0  0  0  0  0  0  0  0  0  0  0  0
    5.8482   -1.9991   21.7059 H   0  0  0  0  0  0  0  0  0  0  0  0
    8.8532   -2.2901   21.6710 H   0  0  0  0  0  0  0  0  0  0  0  0
    6.7720   -2.8799   23.8412 H   0  0  0  0  0  0  0  0  0  0  0  0
    7.6447   -4.0833   22.8754 H   0  0  0  0  0  0  0  0  0  0  0  0
    8.5197   -3.0869   24.0540 H   0  0  0  0  0  0  0  0  0  0  0  0
  1  2  1  0
  2  3  1  0
  3  4  1  0
  4  5  1  0
  5  6  2  0
  6  7  1  0
  7  8  2  0
  8  9  1  0
  9 10  2  0
 10 11  1  0
 11 12  2  0
 12 13  1  0
 13 14  2  0
 13 15  1  0
 12 16  1  0
 11 17  1  0
 10 18  1  0
  8 19  1  0
  6 20  1  0
  4 21  1  0
 21 22  2  0
 21 23  1  0
 23 24  1  1
 24 25  1  0
 25 26  1  0
 26 27  1  0
 27 28  2  0
 27 29  1  0
 29 30  1  0
 30 31  1  0
 31 32  2  0
 32 33  1  0
 33 34  2  0
 34 35  1  0
 35 36  1  0
 36 37  1  0
 36 38  1  0
 36 39  1  0
 33 40  1  0
 32 41  1  0
 30 42  1  0
 30 43  1  0
 29 44  1  0
 26 45  1  0
 26 46  1  0
 25 47  1  0
 47 48  2  0
 47 49  1  0
 49 50  2  0
 50 51  1  0
 51 52  2  0
 52 53  1  0
 53 54  2  0
 53 55  1  0
 52 56  1  0
 51 57  1  0
 50 58  1  0
 24 59  1  0
 24 60  1  0
  3 61  1  0
  3 62  1  0
  2 63  1  6
  1 64  1  0
  1 65  1  0
  1 66  1  0
 23  2  1  0
 35 31  1  0
 54 49  1  0
 14  5  1  0
 54 23  1  0
 14  9  1  0
M  END
>  <cnnaffinities>  (8) 
[6.47111]

>  <score>  (8) 
6.47111

>  <index>  (8) 
8

>  <Smiles>  (8) 
C([C@]1(C(N(c2c(nc(c3c(c(c(c(c23)[H])[H])[H])[H])[H])[H])C(=O)[C@]21C(N(C(C(=O)N(C(c1c(c(nn1C([H])([H])[H])[H])[H])([H])[H])[H])([H])[H])C(=O)c1c(c(c(c(c21)[H])[H])[H])[H])([H])[H])([H])[H])[H])([H])([H])[H]

>  <h>  (8) 
<NA>

>  <Training>  (8) 
True

>  <Success>  (8) 
True

>  <enamine_searched>  (8) 
False

>  <enamine_id>  (8) 
nan

$$$$

     RDKit          3D

 58 63  0  0  0  0  0  0  0  0999 V2000
    6.1877    2.6958   29.8039 C   0  0  0  0  0  0  0  0  0  0  0  0
    6.1661    2.3982   28.3388 C   0  0  0  0  0  0  0  0  0  0  0  0
    6.9633    2.9432   27.2878 C   0  0  0  0  0  0  0  0  0  0  0  0
    6.4761    2.3323   26.1747 C   0  0  0  0  0  0  0  0  0  0  0  0
    6.8241    2.3779   24.7181 C   0  0  0  0  0  0  0  0  0  0  0  0
    7.8185    1.3928   24.3367 N   0  0  0  0  0  0  0  0  0  0  0  0
    7.4627    0.0141   24.0715 C   0  0  0  0  0  0  0  0  0  0  0  0
    8.2941   -0.5219   22.8701 C   0  0  2  0  0  0  0  0  0  0  0  0
    7.9362    0.3292   21.6215 C   0  0  0  0  0  0  0  0  0  0  0  0
    8.3423    1.4278   21.3126 O   0  0  0  0  0  0  0  0  0  0  0  0
    6.9933   -0.3808   20.9084 N   0  0  0  0  0  0  0  0  0  0  0  0
    6.2436    0.1781   19.8512 C   0  0  0  0  0  0  0  0  0  0  0  0
    6.5653   -0.1515   18.5607 C   0  0  0  0  0  0  0  0  0  0  0  0
    5.8916    0.2786   17.4697 N   0  0  0  0  0  0  0  0  0  0  0  0
    4.8398    1.0321   17.6654 C   0  0  0  0  0  0  0  0  0  0  0  0
    4.3829    1.4332   18.9509 C   0  0  0  0  0  0  0  0  0  0  0  0
    3.2373    2.2566   19.0957 C   0  0  0  0  0  0  0  0  0  0  0  0
    2.7825    2.5980   20.3399 C   0  0  0  0  0  0  0  0  0  0  0  0
    3.4549    2.1283   21.4912 C   0  0  0  0  0  0  0  0  0  0  0  0
    4.5780    1.3446   21.3748 C   0  0  0  0  0  0  0  0  0  0  0  0
    5.0850    0.9871   20.0914 C   0  0  0  0  0  0  0  0  0  0  0  0
    5.0750    0.9840   22.2714 H   0  0  0  0  0  0  0  0  0  0  0  0
    3.0762    2.3939   22.4748 H   0  0  0  0  0  0  0  0  0  0  0  0
    1.9053    3.2306   20.4465 H   0  0  0  0  0  0  0  0  0  0  0  0
    2.7392    2.6004   18.1936 H   0  0  0  0  0  0  0  0  0  0  0  0
    4.2838    1.3586   16.7848 H   0  0  0  0  0  0  0  0  0  0  0  0
    7.4181   -0.7996   18.3665 H   0  0  0  0  0  0  0  0  0  0  0  0
    6.7244   -1.7130   21.4079 C   0  0  0  0  0  0  0  0  0  0  0  0
    7.8560   -1.9378   22.4182 C   0  0  2  0  0  0  0  0  0  0  0  0
    7.5463   -2.8939   23.5625 C   0  0  0  0  0  0  0  0  0  0  0  0
    6.6628   -2.5711   24.1250 H   0  0  0  0  0  0  0  0  0  0  0  0
    8.3917   -2.9183   24.2605 H   0  0  0  0  0  0  0  0  0  0  0  0
    7.3611   -3.9063   23.1953 H   0  0  0  0  0  0  0  0  0  0  0  0
    8.6838   -2.3426   21.8256 H   0  0  0  0  0  0  0  0  0  0  0  0
    5.7253   -1.7793   21.8590 H   0  0  0  0  0  0  0  0  0  0  0  0
    6.7549   -2.4303   20.5830 H   0  0  0  0  0  0  0  0  0  0  0  0
    9.7478   -0.4117   23.2981 C   0  0  0  0  0  0  0  0  0  0  0  0
   10.7638   -1.2941   22.8775 C   0  0  0  0  0  0  0  0  0  0  0  0
   12.0631   -1.0965   23.3052 C   0  0  0  0  0  0  0  0  0  0  0  0
   13.0512   -1.8806   22.8362 F   0  0  0  0  0  0  0  0  0  0  0  0
   12.4071   -0.1175   24.2265 C   0  0  0  0  0  0  0  0  0  0  0  0
   11.4108    0.7485   24.6441 C   0  0  0  0  0  0  0  0  0  0  0  0
   10.1129    0.6528   24.1382 C   0  0  0  0  0  0  0  0  0  0  0  0
    9.1352    1.7479   24.4529 C   0  0  0  0  0  0  0  0  0  0  0  0
    9.4873    2.8656   24.8002 O   0  0  0  0  0  0  0  0  0  0  0  0
   11.6170    1.5363   25.3489 H   0  0  0  0  0  0  0  0  0  0  0  0
   13.4374   -0.0601   24.5610 H   0  0  0  0  0  0  0  0  0  0  0  0
   10.6048   -2.1420   22.2236 H   0  0  0  0  0  0  0  0  0  0  0  0
    7.6620   -0.6068   24.9586 H   0  0  0  0  0  0  0  0  0  0  0  0
    6.3910   -0.0373   23.8715 H   0  0  0  0  0  0  0  0  0  0  0  0
    7.2715    3.3441   24.4873 H   0  0  0  0  0  0  0  0  0  0  0  0
    5.9108    2.2616   24.1217 H   0  0  0  0  0  0  0  0  0  0  0  0
    5.4914    1.4931   26.5134 O   0  0  0  0  0  0  0  0  0  0  0  0
    5.2970    1.5353   27.8746 N   0  0  0  0  0  0  0  0  0  0  0  0
    7.7943    3.6309   27.3677 H   0  0  0  0  0  0  0  0  0  0  0  0
    7.2077    2.8357   30.1716 H   0  0  0  0  0  0  0  0  0  0  0  0
    5.7147    1.8805   30.3582 H   0  0  0  0  0  0  0  0  0  0  0  0
    5.6265    3.6137   30.0082 H   0  0  0  0  0  0  0  0  0  0  0  0
  1  2  1  0
  2  3  1  0
  3  4  2  0
  4  5  1  0
  5  6  1  0
  6  7  1  0
  8  7  1  1
  8  9  1  0
  9 10  2  0
  9 11  1  0
 11 12  1  0
 12 13  2  0
 13 14  1  0
 14 15  2  0
 15 16  1  0
 16 17  2  0
 17 18  1  0
 18 19  2  0
 19 20  1  0
 20 21  2  0
 20 22  1  0
 19 23  1  0
 18 24  1  0
 17 25  1  0
 15 26  1  0
 13 27  1  0
 11 28  1  0
 28 29  1  0
 29 30  1  0
 30 31  1  0
 30 32  1  0
 30 33  1  0
 29 34  1  6
 28 35  1  0
 28 36  1  0
  8 37  1  0
 37 38  2  0
 38 39  1  0
 39 40  1  0
 39 41  2  0
 41 42  1  0
 42 43  2  0
 43 44  1  0
 44 45  2  0
 42 46  1  0
 41 47  1  0
 38 48  1  0
  7 49  1  0
  7 50  1  0
  5 51  1  0
  5 52  1  0
  4 53  1  0
 53 54  1  0
  3 55  1  0
  1 56  1  0
  1 57  1  0
  1 58  1  0
 54  2  2  0
 44  6  1  0
 29  8  1  0
 43 37  1  0
 21 12  1  0
 21 16  1  0
M  END
>  <cnnaffinities>  (9) 
[6.96641]

>  <score>  (9) 
6.96641

>  <index>  (9) 
9

>  <Smiles>  (9) 
C(c1c(c(C(N2C([C@@]3(C(=O)N(c4c(nc(c5c(c(c(c(c45)[H])[H])[H])[H])[H])[H])C([C@@]3(C([H])([H])[H])[H])([H])[H])c3c(c(F)c(c(c3C2=O)[H])[H])[H])([H])[H])([H])[H])on1)[H])([H])([H])[H]

>  <h>  (9) 
<NA>

>  <Training>  (9) 
True

>  <Success>  (9) 
True

>  <enamine_searched>  (9) 
False

>  <enamine_id>  (9) 
nan

$$$$

     RDKit          3D

 72 77  0  0  0  0  0  0  0  0999 V2000
    7.4845    8.3718   24.7142 C   0  0  0  0  0  0  0  0  0  0  0  0
    6.7708    7.3044   23.9058 C   0  0  1  0  0  0  0  0  0  0  0  0
    7.5109    5.9690   23.9193 C   0  0  0  0  0  0  0  0  0  0  0  0
    6.7188    4.9266   23.1697 N   0  0  0  0  0  4  0  0  0  0  0  0
    7.4411    3.6100   23.0055 C   0  0  0  0  0  0  0  0  0  0  0  0
    7.6299    2.8449   24.3234 C   0  0  0  0  0  0  0  0  0  0  0  0
    8.3747    1.6108   24.1520 N   0  0  0  0  0  0  0  0  0  0  0  0
    7.7109    0.3402   23.9422 C   0  0  0  0  0  0  0  0  0  0  0  0
    8.3911   -0.4691   22.7909 C   0  0  2  0  0  0  0  0  0  0  0  0
    8.0967    0.2281   21.4334 C   0  0  0  0  0  0  0  0  0  0  0  0
    8.6804    1.1617   20.9203 O   0  0  0  0  0  0  0  0  0  0  0  0
    6.9855   -0.3914   20.8942 N   0  0  0  0  0  0  0  0  0  0  0  0
    6.2250    0.1649   19.8343 C   0  0  0  0  0  0  0  0  0  0  0  0
    6.5611   -0.1334   18.5408 C   0  0  0  0  0  0  0  0  0  0  0  0
    5.8711    0.2845   17.4519 N   0  0  0  0  0  0  0  0  0  0  0  0
    4.8095    1.0207   17.6495 C   0  0  0  0  0  0  0  0  0  0  0  0
    4.3455    1.4126   18.9348 C   0  0  0  0  0  0  0  0  0  0  0  0
    3.2066    2.2446   19.0875 C   0  0  0  0  0  0  0  0  0  0  0  0
    2.7698    2.5966   20.3320 C   0  0  0  0  0  0  0  0  0  0  0  0
    3.4488    2.1251   21.4772 C   0  0  0  0  0  0  0  0  0  0  0  0
    4.5652    1.3308   21.3569 C   0  0  0  0  0  0  0  0  0  0  0  0
    5.0566    0.9613   20.0738 C   0  0  0  0  0  0  0  0  0  0  0  0
    5.0723    0.9938   22.2550 H   0  0  0  0  0  0  0  0  0  0  0  0
    3.0882    2.3978   22.4636 H   0  0  0  0  0  0  0  0  0  0  0  0
    1.9013    3.2383   20.4513 H   0  0  0  0  0  0  0  0  0  0  0  0
    2.7052    2.5991   18.1910 H   0  0  0  0  0  0  0  0  0  0  0  0
    4.2592    1.3543   16.7675 H   0  0  0  0  0  0  0  0  0  0  0  0
    7.4198   -0.7708   18.3444 H   0  0  0  0  0  0  0  0  0  0  0  0
    6.5374   -1.5664   21.6212 C   0  0  0  0  0  0  0  0  0  0  0  0
    7.7116   -1.8496   22.5690 C   0  0  2  0  0  0  0  0  0  0  0  0
    7.3480   -2.6027   23.8451 C   0  0  0  0  0  0  0  0  0  0  0  0
    6.5580   -2.0789   24.4011 H   0  0  0  0  0  0  0  0  0  0  0  0
    6.9951   -3.6164   23.6219 H   0  0  0  0  0  0  0  0  0  0  0  0
    8.2272   -2.6756   24.4976 H   0  0  0  0  0  0  0  0  0  0  0  0
    8.4217   -2.4574   21.9956 H   0  0  0  0  0  0  0  0  0  0  0  0
    6.3592   -2.3929   20.9241 H   0  0  0  0  0  0  0  0  0  0  0  0
    5.5928   -1.3902   22.1617 H   0  0  0  0  0  0  0  0  0  0  0  0
    9.8660   -0.5626   23.1153 C   0  0  0  0  0  0  0  0  0  0  0  0
   10.7048   -1.5008   22.4964 C   0  0  0  0  0  0  0  0  0  0  0  0
   12.0765   -1.4500   22.6735 C   0  0  0  0  0  0  0  0  0  0  0  0
   13.0980   -2.4802   21.7050 Cl  0  0  0  0  0  0  0  0  0  0  0  0
   12.6454   -0.5961   23.6232 C   0  0  0  0  0  0  0  0  0  0  0  0
   11.8097    0.2735   24.3019 C   0  0  0  0  0  0  0  0  0  0  0  0
   10.4519    0.3666   23.9890 C   0  0  0  0  0  0  0  0  0  0  0  0
    9.7199    1.6262   24.3676 C   0  0  0  0  0  0  0  0  0  0  0  0
   10.3148    2.6104   24.7766 O   0  0  0  0  0  0  0  0  0  0  0  0
   12.2079    0.9325   25.0645 H   0  0  0  0  0  0  0  0  0  0  0  0
   13.7148   -0.6139   23.8029 H   0  0  0  0  0  0  0  0  0  0  0  0
   10.3101   -2.2431   21.8132 H   0  0  0  0  0  0  0  0  0  0  0  0
    7.7649   -0.2542   24.8703 H   0  0  0  0  0  0  0  0  0  0  0  0
    6.6584    0.5437   23.7199 H   0  0  0  0  0  0  0  0  0  0  0  0
    6.6524    2.5975   24.7465 H   0  0  0  0  0  0  0  0  0  0  0  0
    8.1825    3.4515   25.0454 H   0  0  0  0  0  0  0  0  0  0  0  0
    6.8661    2.9999   22.2948 H   0  0  0  0  0  0  0  0  0  0  0  0
    8.4220    3.8269   22.5631 H   0  0  0  0  0  0  0  0  0  0  0  0
    5.3276    4.8369   23.7559 C   0  0  0  0  0  0  0  0  0  0  0  0
    4.6515    6.2105   23.8152 C   0  0  2  0  0  0  0  0  0  0  0  0
    4.1787    6.7113   22.4549 C   0  0  0  0  0  0  0  0  0  0  0  0
    3.4389    6.0185   22.0399 H   0  0  0  0  0  0  0  0  0  0  0  0
    4.9976    6.7888   21.7308 H   0  0  0  0  0  0  0  0  0  0  0  0
    3.7178    7.6987   22.5591 H   0  0  0  0  0  0  0  0  0  0  0  0
    5.4771    7.1596   24.4801 O   0  0  0  0  0  0  0  0  0  0  0  0
    3.7757    6.1183   24.4694 H   0  0  0  0  0  0  0  0  0  0  0  0
    5.4036    4.4493   24.7732 H   0  0  0  0  0  0  0  0  0  0  0  0
    4.7271    4.1455   23.1587 H   0  0  0  0  0  0  0  0  0  0  0  0
    6.5996    5.2859   22.2020 H   0  0  0  0  0  0  0  0  0  0  0  0
    8.4989    6.0752   23.4582 H   0  0  0  0  0  0  0  0  0  0  0  0
    7.6392    5.6504   24.9580 H   0  0  0  0  0  0  0  0  0  0  0  0
    6.6844    7.6327   22.8575 H   0  0  0  0  0  0  0  0  0  0  0  0
    7.5620    8.0542   25.7600 H   0  0  0  0  0  0  0  0  0  0  0  0
    6.9214    9.3094   24.6785 H   0  0  0  0  0  0  0  0  0  0  0  0
    8.4929    8.5562   24.3276 H   0  0  0  0  0  0  0  0  0  0  0  0
  1  2  1  0
  2  3  1  0
  3  4  1  0
  4  5  1  0
  5  6  1  0
  6  7  1  0
  7  8  1  0
  9  8  1  1
  9 10  1  0
 10 11  2  0
 10 12  1  0
 12 13  1  0
 13 14  2  0
 14 15  1  0
 15 16  2  0
 16 17  1  0
 17 18  2  0
 18 19  1  0
 19 20  2  0
 20 21  1  0
 21 22  2  0
 21 23  1  0
 20 24  1  0
 19 25  1  0
 18 26  1  0
 16 27  1  0
 14 28  1  0
 12 29  1  0
 29 30  1  0
 30 31  1  0
 31 32  1  0
 31 33  1  0
 31 34  1  0
 30 35  1  6
 29 36  1  0
 29 37  1  0
  9 38  1  0
 38 39  2  0
 39 40  1  0
 40 41  1  0
 40 42  2  0
 42 43  1  0
 43 44  2  0
 44 45  1  0
 45 46  2  0
 43 47  1  0
 42 48  1  0
 39 49  1  0
  8 50  1  0
  8 51  1  0
  6 52  1  0
  6 53  1  0
  5 54  1  0
  5 55  1  0
  4 56  1  0
 56 57  1  0
 57 58  1  0
 58 59  1  0
 58 60  1  0
 58 61  1  0
 57 62  1  0
 57 63  1  1
 56 64  1  0
 56 65  1  0
  4 66  1  0
  3 67  1  0
  3 68  1  0
  2 69  1  6
  1 70  1  0
  1 71  1  0
  1 72  1  0
 62  2  1  0
 45  7  1  0
 30  9  1  0
 44 38  1  0
 22 13  1  0
 22 17  1  0
M  CHG  1   4   1
M  END
>  <cnnaffinities>  (10) 
[7.40223]

>  <score>  (10) 
7.40223

>  <index>  (10) 
10

>  <Smiles>  (10) 
C([C@]1(C([N+](C(C(N2C([C@@]3(C(=O)N(c4c(nc(c5c(c(c(c(c45)[H])[H])[H])[H])[H])[H])C([C@@]3(C([H])([H])[H])[H])([H])[H])c3c(c(Cl)c(c(c3C2=O)[H])[H])[H])([H])[H])([H])[H])([H])[H])(C([C@](C([H])([H])[H])(O1)[H])([H])[H])[H])([H])[H])[H])([H])([H])[H]

>  <h>  (10) 
<NA>

>  <Training>  (10) 
True

>  <Success>  (10) 
True

>  <enamine_searched>  (10) 
False

>  <enamine_id>  (10) 
nan

$$$$

     RDKit          3D

 54 57  0  0  0  0  0  0  0  0999 V2000
    9.5495    2.2290   24.5527 C   0  0  0  0  0  0  0  0  0  0  0  0
    8.8987    0.9796   24.6762 O   0  0  0  0  0  0  0  0  0  0  0  0
    9.4904   -0.0914   24.0616 C   0  0  0  0  0  0  0  0  0  0  0  0
   10.8707   -0.1742   23.8900 C   0  0  0  0  0  0  0  0  0  0  0  0
   11.4212   -1.2090   23.1387 C   0  0  0  0  0  0  0  0  0  0  0  0
   10.6083   -2.2241   22.6534 C   0  0  0  0  0  0  0  0  0  0  0  0
    9.2397   -2.1811   22.9177 C   0  0  0  0  0  0  0  0  0  0  0  0
    8.6543   -1.1276   23.6240 C   0  0  0  0  0  0  0  0  0  0  0  0
    7.1670   -1.0991   23.9822 C   0  0  2  0  0  0  0  0  0  0  0  0
    6.9535   -1.6275   25.4359 C   0  0  0  0  0  0  0  0  0  0  0  0
    5.4845   -1.9643   25.7485 C   0  0  2  0  0  0  0  0  0  0  0  0
    5.1482   -2.4487   27.1663 C   0  0  0  0  0  0  0  0  0  0  0  0
    5.5651   -1.8076   27.9543 H   0  0  0  0  0  0  0  0  0  0  0  0
    4.0533   -2.4666   27.2885 H   0  0  0  0  0  0  0  0  0  0  0  0
    5.4965   -3.4748   27.3411 H   0  0  0  0  0  0  0  0  0  0  0  0
    5.0568   -2.9941   24.7162 C   0  0  0  0  0  0  0  0  0  0  0  0
    5.0711   -2.3295   23.3700 C   0  0  0  0  0  0  0  0  0  0  0  0
    6.3793   -1.8310   22.9813 N   0  0  0  0  0  0  0  0  0  0  0  0
    6.4394   -1.6097   21.6086 C   0  0  0  0  0  0  0  0  0  0  0  0
    5.9256   -2.4037   20.8391 O   0  0  0  0  0  0  0  0  0  0  0  0
    7.1137   -0.3587   21.0396 C   0  0  0  0  0  0  0  0  0  0  0  0
    6.3021    0.2110   19.9020 C   0  0  0  0  0  0  0  0  0  0  0  0
    6.6539   -0.0697   18.6077 C   0  0  0  0  0  0  0  0  0  0  0  0
    5.9811    0.3419   17.5028 N   0  0  0  0  0  0  0  0  0  0  0  0
    4.8971    1.0493   17.6993 C   0  0  0  0  0  0  0  0  0  0  0  0
    4.4116    1.4280   18.9802 C   0  0  0  0  0  0  0  0  0  0  0  0
    3.2516    2.2277   19.1325 C   0  0  0  0  0  0  0  0  0  0  0  0
    2.8000    2.5631   20.3792 C   0  0  0  0  0  0  0  0  0  0  0  0
    3.4835    2.0987   21.5252 C   0  0  0  0  0  0  0  0  0  0  0  0
    4.6080    1.3218   21.4061 C   0  0  0  0  0  0  0  0  0  0  0  0
    5.1182    0.9800   20.1226 C   0  0  0  0  0  0  0  0  0  0  0  0
    5.1087    0.9680   22.3047 H   0  0  0  0  0  0  0  0  0  0  0  0
    3.1122    2.3627   22.5104 H   0  0  0  0  0  0  0  0  0  0  0  0
    1.9163    3.1833   20.4956 H   0  0  0  0  0  0  0  0  0  0  0  0
    2.7330    2.5648   18.2394 H   0  0  0  0  0  0  0  0  0  0  0  0
    4.3425    1.3566   16.8131 H   0  0  0  0  0  0  0  0  0  0  0  0
    7.5404   -0.6729   18.4052 H   0  0  0  0  0  0  0  0  0  0  0  0
    8.0890   -0.6880   20.6615 H   0  0  0  0  0  0  0  0  0  0  0  0
    7.3038    0.3796   21.8240 H   0  0  0  0  0  0  0  0  0  0  0  0
    4.3897   -1.4609   23.3837 H   0  0  0  0  0  0  0  0  0  0  0  0
    4.7470   -3.0128   22.5896 H   0  0  0  0  0  0  0  0  0  0  0  0
    5.7500   -3.8449   24.7308 H   0  0  0  0  0  0  0  0  0  0  0  0
    4.0508   -3.3760   24.9346 H   0  0  0  0  0  0  0  0  0  0  0  0
    4.8807   -1.0580   25.5827 H   0  0  0  0  0  0  0  0  0  0  0  0
    7.3323   -0.8624   26.1234 H   0  0  0  0  0  0  0  0  0  0  0  0
    7.5761   -2.5163   25.6050 H   0  0  0  0  0  0  0  0  0  0  0  0
    6.8324   -0.0519   23.9960 H   0  0  0  0  0  0  0  0  0  0  0  0
    8.6204   -2.9892   22.5397 H   0  0  0  0  0  0  0  0  0  0  0  0
   11.0442   -3.0414   22.0818 H   0  0  0  0  0  0  0  0  0  0  0  0
   12.4874   -1.1989   22.9266 H   0  0  0  0  0  0  0  0  0  0  0  0
   11.4943    0.6040   24.3212 H   0  0  0  0  0  0  0  0  0  0  0  0
   10.4777    2.2573   25.1317 H   0  0  0  0  0  0  0  0  0  0  0  0
    8.8422    2.9714   24.9271 H   0  0  0  0  0  0  0  0  0  0  0  0
    9.7983    2.4553   23.5066 H   0  0  0  0  0  0  0  0  0  0  0  0
  1  2  1  0
  2  3  1  0
  3  4  2  0
  4  5  1  0
  5  6  2  0
  6  7  1  0
  7  8  2  0
  8  9  1  0
  9 10  1  0
 10 11  1  0
 11 12  1  0
 12 13  1  0
 12 14  1  0
 12 15  1  0
 11 16  1  0
 16 17  1  0
 17 18  1  0
 18 19  1  0
 19 20  2  0
 19 21  1  0
 21 22  1  0
 22 23  2  0
 23 24  1  0
 24 25  2  0
 25 26  1  0
 26 27  2  0
 27 28  1  0
 28 29  2  0
 29 30  1  0
 30 31  2  0
 30 32  1  0
 29 33  1  0
 28 34  1  0
 27 35  1  0
 25 36  1  0
 23 37  1  0
 21 38  1  0
 21 39  1  0
 17 40  1  0
 17 41  1  0
 16 42  1  0
 16 43  1  0
 11 44  1  6
 10 45  1  0
 10 46  1  0
  9 47  1  1
  7 48  1  0
  6 49  1  0
  5 50  1  0
  4 51  1  0
  1 52  1  0
  1 53  1  0
  1 54  1  0
  8  3  1  0
 18  9  1  0
 31 22  1  0
 31 26  1  0
M  END
>  <cnnaffinities>  (11) 
[5.97487, 5.92986, 6.20757, 6.37689]

>  <score>  (11) 
5.97487

>  <index>  (11) 
11

>  <Smiles>  (11) 
C(Oc1c(c(c(c(c1[C@@]1(C([C@](C([H])([H])[H])(C(C(N1C(=O)C(c1c(nc(c2c(c(c(c(c12)[H])[H])[H])[H])[H])[H])([H])[H])([H])[H])([H])[H])[H])([H])[H])[H])[H])[H])[H])[H])([H])([H])[H]

>  <h>  (11) 
<NA>

>  <Training>  (11) 
True

>  <Success>  (11) 
True

>  <enamine_searched>  (11) 
False

>  <enamine_id>  (11) 
nan

$$$$

     RDKit          3D

 47 50  0  0  0  0  0  0  0  0999 V2000
    8.4527    1.0788   20.5563 O   0  0  0  0  0  0  0  0  0  0  0  0
    7.6975    0.4185   21.2540 C   0  0  0  0  0  0  0  0  0  0  0  0
    6.8152   -0.6841   20.6546 C   0  0  0  0  0  0  0  0  0  0  0  0
    5.9878   -0.0335   19.5848 C   0  0  0  0  0  0  0  0  0  0  0  0
    6.3740   -0.1506   18.2764 C   0  0  0  0  0  0  0  0  0  0  0  0
    5.7378    0.4214   17.2238 N   0  0  0  0  0  0  0  0  0  0  0  0
    4.6818    1.1432   17.4975 C   0  0  0  0  0  0  0  0  0  0  0  0
    4.2224    1.4204   18.8089 C   0  0  0  0  0  0  0  0  0  0  0  0
    3.1288    2.2875   19.0258 C   0  0  0  0  0  0  0  0  0  0  0  0
    2.7509    2.6334   20.2920 C   0  0  0  0  0  0  0  0  0  0  0  0
    3.4609    2.1120   21.3960 C   0  0  0  0  0  0  0  0  0  0  0  0
    4.5118    1.2442   21.2154 C   0  0  0  0  0  0  0  0  0  0  0  0
    4.9179    0.8584   19.9030 C   0  0  0  0  0  0  0  0  0  0  0  0
    5.0489    0.8872   22.0891 H   0  0  0  0  0  0  0  0  0  0  0  0
    3.1765    2.4115   22.4002 H   0  0  0  0  0  0  0  0  0  0  0  0
    1.9169    3.3104   20.4477 H   0  0  0  0  0  0  0  0  0  0  0  0
    2.6245    2.6849   18.1504 H   0  0  0  0  0  0  0  0  0  0  0  0
    4.1450    1.5773   16.6546 H   0  0  0  0  0  0  0  0  0  0  0  0
    7.2506   -0.7469   18.0206 H   0  0  0  0  0  0  0  0  0  0  0  0
    6.1898   -1.1898   21.4037 H   0  0  0  0  0  0  0  0  0  0  0  0
    7.4803   -1.4370   20.2038 H   0  0  0  0  0  0  0  0  0  0  0  0
    7.5425    0.6664   22.5872 N   0  0  0  0  0  0  0  0  0  0  0  0
    7.0505   -0.2967   23.5659 C   0  0  0  0  0  0  0  0  0  0  0  0
    7.6188    0.2640   24.8713 C   0  0  2  0  0  0  0  0  0  0  0  0
    6.9740   -0.2220   26.1434 C   0  0  0  0  0  0  0  0  0  0  0  0
    5.6017   -0.0182   26.1206 F   0  0  0  0  0  0  0  0  0  0  0  0
    7.1331   -1.2943   26.2899 H   0  0  0  0  0  0  0  0  0  0  0  0
    7.3747    0.3115   27.0163 H   0  0  0  0  0  0  0  0  0  0  0  0
    7.6898    1.7923   24.6753 C   0  0  0  0  0  0  0  0  0  0  0  0
    8.7408    2.4199   25.5833 C   0  0  0  0  0  0  0  0  0  0  0  0
    8.5275    3.9422   25.4895 C   0  0  0  0  0  0  0  0  0  0  0  0
    7.0131    4.0978   25.1760 C   0  0  0  0  0  0  0  0  0  0  0  0
    6.4665    2.6500   25.0681 C   0  0  0  0  0  0  0  0  0  0  0  0
    5.6320    2.5423   24.3657 H   0  0  0  0  0  0  0  0  0  0  0  0
    6.1055    2.3080   26.0395 H   0  0  0  0  0  0  0  0  0  0  0  0
    6.4659    4.6814   25.9297 H   0  0  0  0  0  0  0  0  0  0  0  0
    6.8856    4.6103   24.2155 H   0  0  0  0  0  0  0  0  0  0  0  0
    8.8528    4.4765   26.3884 H   0  0  0  0  0  0  0  0  0  0  0  0
    9.1125    4.3692   24.6721 H   0  0  0  0  0  0  0  0  0  0  0  0
    8.5558    2.1078   26.6158 H   0  0  0  0  0  0  0  0  0  0  0  0
    9.7381    2.0593   25.3017 H   0  0  0  0  0  0  0  0  0  0  0  0
    8.0290    1.9114   23.1713 C   0  0  0  0  0  0  0  0  0  0  0  0
    7.5435    2.7802   22.7067 H   0  0  0  0  0  0  0  0  0  0  0  0
    9.1055    2.0265   22.9862 H   0  0  0  0  0  0  0  0  0  0  0  0
    8.6624   -0.0805   24.9089 H   0  0  0  0  0  0  0  0  0  0  0  0
    7.4526   -1.2944   23.3599 H   0  0  0  0  0  0  0  0  0  0  0  0
    5.9516   -0.3744   23.5687 H   0  0  0  0  0  0  0  0  0  0  0  0
  1  2  2  0
  2  3  1  0
  3  4  1  0
  4  5  2  0
  5  6  1  0
  6  7  2  0
  7  8  1  0
  8  9  2  0
  9 10  1  0
 10 11  2  0
 11 12  1  0
 12 13  2  0
 12 14  1  0
 11 15  1  0
 10 16  1  0
  9 17  1  0
  7 18  1  0
  5 19  1  0
  3 20  1  0
  3 21  1  0
  2 22  1  0
 22 23  1  0
 23 24  1  0
 24 25  1  0
 25 26  1  0
 25 27  1  0
 25 28  1  0
 24 29  1  0
 29 30  1  0
 30 31  1  0
 31 32  1  0
 32 33  1  0
 33 34  1  0
 33 35  1  0
 32 36  1  0
 32 37  1  0
 31 38  1  0
 31 39  1  0
 30 40  1  0
 30 41  1  0
 29 42  1  0
 42 43  1  0
 42 44  1  0
 24 45  1  1
 23 46  1  0
 23 47  1  0
 13  4  1  0
 42 22  1  0
 13  8  1  0
 33 29  1  0
M  END
>  <cnnaffinities>  (12) 
[5.75233, 5.72222, 5.72165, 5.68442, 5.64248, 5.64336, 5.56603]

>  <score>  (12) 
5.75233

>  <index>  (12) 
12

>  <Smiles>  (12) 
O=C(C(c1c(nc(c2c(c(c(c(c12)[H])[H])[H])[H])[H])[H])([H])[H])N1C([C@](C(F)([H])[H])(C2(C(C(C(C2([H])[H])([H])[H])([H])[H])([H])[H])C1([H])[H])[H])([H])[H]

>  <h>  (12) 
<NA>

>  <Training>  (12) 
True

>  <Success>  (12) 
True

>  <enamine_searched>  (12) 
False

>  <enamine_id>  (12) 
nan

$$$$

     RDKit          3D

 67 72  0  0  0  0  0  0  0  0999 V2000
    6.6630    4.1373   21.4759 C   0  0  0  0  0  0  0  0  0  0  0  0
    7.6188    3.6001   22.4249 N   0  0  0  0  0  0  0  0  0  0  0  0
    7.1988    3.1068   23.6191 C   0  0  0  0  0  0  0  0  0  0  0  0
    6.0180    3.0729   23.9437 O   0  0  0  0  0  0  0  0  0  0  0  0
    8.3080    2.6155   24.5490 C   0  0  0  0  0  0  0  0  0  0  0  0
    8.8330    1.3163   24.1602 N   0  0  0  0  0  0  0  0  0  0  0  0
    7.9290    0.2148   23.8803 C   0  0  0  0  0  0  0  0  0  0  0  0
    8.4436   -0.6541   22.6941 C   0  0  2  0  0  0  0  0  0  0  0  0
    8.1308    0.0941   21.3726 C   0  0  0  0  0  0  0  0  0  0  0  0
    8.7525    1.0058   20.8625 O   0  0  0  0  0  0  0  0  0  0  0  0
    6.9449   -0.4157   20.8803 N   0  0  0  0  0  0  0  0  0  0  0  0
    6.2508    0.2021   19.8111 C   0  0  0  0  0  0  0  0  0  0  0  0
    6.6783    0.0254   18.5184 C   0  0  0  0  0  0  0  0  0  0  0  0
    6.0144    0.4836   17.4312 N   0  0  0  0  0  0  0  0  0  0  0  0
    4.8994    1.1444   17.6330 C   0  0  0  0  0  0  0  0  0  0  0  0
    4.3778    1.4572   18.9205 C   0  0  0  0  0  0  0  0  0  0  0  0
    3.2044    2.2384   19.0934 C   0  0  0  0  0  0  0  0  0  0  0  0
    2.7660    2.5726   20.3465 C   0  0  0  0  0  0  0  0  0  0  0  0
    3.4841    2.1454   21.4831 C   0  0  0  0  0  0  0  0  0  0  0  0
    4.6133    1.3716   21.3422 C   0  0  0  0  0  0  0  0  0  0  0  0
    5.0801    0.9878   20.0546 C   0  0  0  0  0  0  0  0  0  0  0  0
    5.1864    1.1036   22.2238 H   0  0  0  0  0  0  0  0  0  0  0  0
    3.1631    2.4432   22.4756 H   0  0  0  0  0  0  0  0  0  0  0  0
    1.8736    3.1808   20.4708 H   0  0  0  0  0  0  0  0  0  0  0  0
    2.6764    2.5793   18.2071 H   0  0  0  0  0  0  0  0  0  0  0  0
    4.3567    1.4889   16.7512 H   0  0  0  0  0  0  0  0  0  0  0  0
    7.5931   -0.5290   18.3245 H   0  0  0  0  0  0  0  0  0  0  0  0
    6.3828   -1.4916   21.6850 C   0  0  0  0  0  0  0  0  0  0  0  0
    7.5910   -1.9355   22.5173 C   0  0  2  0  0  0  0  0  0  0  0  0
    7.2838   -2.6860   23.8139 C   0  0  0  0  0  0  0  0  0  0  0  0
    6.9071   -4.0257   23.5968 O   0  0  0  0  0  0  0  0  0  0  0  0
    8.0104   -4.8740   23.3894 C   0  0  0  0  0  0  0  0  0  0  0  0
    7.6465   -5.9570   22.3962 C   0  0  0  0  0  0  0  0  0  0  0  0
    8.3069   -7.1112   22.4339 C   0  0  0  0  0  0  0  0  0  0  0  0
    6.6498   -5.6291   21.3209 C   0  0  0  0  0  0  0  0  0  0  0  0
    7.1603   -5.2907   20.4161 H   0  0  0  0  0  0  0  0  0  0  0  0
    6.0020   -6.4726   21.0557 H   0  0  0  0  0  0  0  0  0  0  0  0
    8.1294   -7.8798   21.6919 H   0  0  0  0  0  0  0  0  0  0  0  0
    9.0032   -7.3444   23.2334 H   0  0  0  0  0  0  0  0  0  0  0  0
    6.0247   -4.7953   21.6332 H   0  0  0  0  0  0  0  0  0  0  0  0
    8.3462   -5.3232   24.3355 H   0  0  0  0  0  0  0  0  0  0  0  0
    8.8723   -4.2753   23.0469 H   0  0  0  0  0  0  0  0  0  0  0  0
    6.4419   -2.2146   24.3304 H   0  0  0  0  0  0  0  0  0  0  0  0
    8.1541   -2.6346   24.4915 H   0  0  0  0  0  0  0  0  0  0  0  0
    8.1703   -2.5955   21.8679 H   0  0  0  0  0  0  0  0  0  0  0  0
    5.5528   -1.1473   22.3195 H   0  0  0  0  0  0  0  0  0  0  0  0
    5.9921   -2.2836   21.0412 H   0  0  0  0  0  0  0  0  0  0  0  0
    9.9159   -0.9464   22.8983 C   0  0  0  0  0  0  0  0  0  0  0  0
   10.5750   -1.9413   22.1561 C   0  0  0  0  0  0  0  0  0  0  0  0
   11.9188   -2.1945   22.3659 C   0  0  0  0  0  0  0  0  0  0  0  0
   12.7421   -3.3664   21.3737 Cl  0  0  0  0  0  0  0  0  0  0  0  0
   12.6489   -1.5141   23.3391 C   0  0  0  0  0  0  0  0  0  0  0  0
   12.0176   -0.5108   24.0456 C   0  0  0  0  0  0  0  0  0  0  0  0
   10.6788   -0.2077   23.8088 C   0  0  0  0  0  0  0  0  0  0  0  0
   10.1517    1.0557   24.4181 C   0  0  0  0  0  0  0  0  0  0  0  0
   10.8696    1.8194   25.0438 O   0  0  0  0  0  0  0  0  0  0  0  0
   12.5565    0.0992   24.7615 H   0  0  0  0  0  0  0  0  0  0  0  0
   13.6990   -1.7354   23.4877 H   0  0  0  0  0  0  0  0  0  0  0  0
   10.0726   -2.4746   21.3573 H   0  0  0  0  0  0  0  0  0  0  0  0
    6.9486    0.6390   23.6503 H   0  0  0  0  0  0  0  0  0  0  0  0
    7.8145   -0.4062   24.7796 H   0  0  0  0  0  0  0  0  0  0  0  0
    9.1544    3.3088   24.5219 H   0  0  0  0  0  0  0  0  0  0  0  0
    7.9204    2.6136   25.5755 H   0  0  0  0  0  0  0  0  0  0  0  0
    8.5216    3.3081   22.0776 H   0  0  0  0  0  0  0  0  0  0  0  0
    5.8115    4.5213   22.0411 H   0  0  0  0  0  0  0  0  0  0  0  0
    7.1062    4.9595   20.9066 H   0  0  0  0  0  0  0  0  0  0  0  0
    6.2940    3.3639   20.7890 H   0  0  0  0  0  0  0  0  0  0  0  0
  1  2  1  0
  2  3  1  0
  3  4  2  0
  3  5  1  0
  5  6  1  0
  6  7  1  0
  8  7  1  1
  8  9  1  0
  9 10  2  0
  9 11  1  0
 11 12  1  0
 12 13  2  0
 13 14  1  0
 14 15  2  0
 15 16  1  0
 16 17  2  0
 17 18  1  0
 18 19  2  0
 19 20  1  0
 20 21  2  0
 20 22  1  0
 19 23  1  0
 18 24  1  0
 17 25  1  0
 15 26  1  0
 13 27  1  0
 11 28  1  0
 28 29  1  0
 29 30  1  0
 30 31  1  0
 31 32  1  0
 32 33  1  0
 33 34  1  0
 34 35  1  0
 35 36  1  0
 35 37  1  0
 34 38  1  0
 34 39  1  0
 33 40  1  0
 32 41  1  0
 32 42  1  0
 30 43  1  0
 30 44  1  0
 29 45  1  6
 28 46  1  0
 28 47  1  0
  8 48  1  0
 48 49  2  0
 49 50  1  0
 50 51  1  0
 50 52  2  0
 52 53  1  0
 53 54  2  0
 54 55  1  0
 55 56  2  0
 53 57  1  0
 52 58  1  0
 49 59  1  0
  7 60  1  0
  7 61  1  0
  5 62  1  0
  5 63  1  0
  2 64  1  0
  1 65  1  0
  1 66  1  0
  1 67  1  0
 55  6  1  0
 29  8  1  0
 35 33  1  0
 54 48  1  0
 21 12  1  0
 21 16  1  0
M  END
>  <cnnaffinities>  (13) 
[7.41816]

>  <score>  (13) 
7.41816

>  <index>  (13) 
13

>  <Smiles>  (13) 
C(N(C(=O)C(N1C([C@@]2(C(=O)N(c3c(nc(c4c(c(c(c(c34)[H])[H])[H])[H])[H])[H])C([C@@]2(C(OC(C2(C(C2([H])[H])([H])[H])[H])([H])[H])([H])[H])[H])([H])[H])c2c(c(Cl)c(c(c2C1=O)[H])[H])[H])([H])[H])([H])[H])[H])([H])([H])[H]

>  <h>  (13) 
<NA>

>  <Training>  (13) 
True

>  <Success>  (13) 
True

>  <enamine_searched>  (13) 
False

>  <enamine_id>  (13) 
nan

$$$$

     RDKit          3D

 67 73  0  0  0  0  0  0  0  0999 V2000
    7.3938   -2.7277   23.7809 C   0  0  0  0  0  0  0  0  0  0  0  0
    7.7218   -1.8892   22.5481 C   0  0  1  0  0  0  0  0  0  0  0  0
    6.5276   -1.5665   21.6336 C   0  0  0  0  0  0  0  0  0  0  0  0
    6.9758   -0.3695   20.9474 N   0  0  0  0  0  0  0  0  0  0  0  0
    6.2561    0.1880   19.8643 C   0  0  0  0  0  0  0  0  0  0  0  0
    6.6371   -0.0939   18.5786 C   0  0  0  0  0  0  0  0  0  0  0  0
    5.9623    0.3224   17.4798 N   0  0  0  0  0  0  0  0  0  0  0  0
    4.8766    1.0342   17.6597 C   0  0  0  0  0  0  0  0  0  0  0  0
    4.3825    1.4227   18.9387 C   0  0  0  0  0  0  0  0  0  0  0  0
    3.2310    2.2431   19.0888 C   0  0  0  0  0  0  0  0  0  0  0  0
    2.7832    2.5885   20.3354 C   0  0  0  0  0  0  0  0  0  0  0  0
    3.4574    2.1272   21.4860 C   0  0  0  0  0  0  0  0  0  0  0  0
    4.5781    1.3373   21.3665 C   0  0  0  0  0  0  0  0  0  0  0  0
    5.0793    0.9754   20.0844 C   0  0  0  0  0  0  0  0  0  0  0  0
    5.0853    0.9889   22.2592 H   0  0  0  0  0  0  0  0  0  0  0  0
    3.0890    2.3944   22.4733 H   0  0  0  0  0  0  0  0  0  0  0  0
    1.9088    3.2237   20.4485 H   0  0  0  0  0  0  0  0  0  0  0  0
    2.7250    2.5974   18.1947 H   0  0  0  0  0  0  0  0  0  0  0  0
    4.3213    1.3356   16.7691 H   0  0  0  0  0  0  0  0  0  0  0  0
    7.5292   -0.6913   18.3972 H   0  0  0  0  0  0  0  0  0  0  0  0
    8.1223    0.2014   21.4628 C   0  0  0  0  0  0  0  0  0  0  0  0
    8.7148    1.1283   20.9576 O   0  0  0  0  0  0  0  0  0  0  0  0
    8.4116   -0.5202   22.8108 C   0  0  1  0  0  0  0  0  0  0  0  0
    7.6867    0.2566   23.9580 C   0  0  0  0  0  0  0  0  0  0  0  0
    8.3483    1.5099   24.2779 N   0  0  0  0  0  0  0  0  0  0  0  0
    7.5650    2.7003   24.5693 C   0  0  0  0  0  0  0  0  0  0  0  0
    7.2650    3.4897   23.2953 C   0  0  0  0  0  0  0  0  0  0  0  0
    6.3920    4.6865   23.4811 N   0  0  2  0  0  4  0  0  0  0  0  0
    6.9948    5.8666   24.2400 C   0  0  0  0  0  0  0  0  0  0  0  0
    5.8717    6.2285   25.2292 C   0  0  2  0  0  0  0  0  0  0  0  0
    5.3605    4.8553   25.6530 C   0  0  0  0  0  0  0  0  0  0  0  0
    5.0568    4.4686   24.2050 C   0  0  1  0  0  0  0  0  0  0  0  0
    4.1849    5.6471   23.7859 C   0  0  0  0  0  0  0  0  0  0  0  0
    4.7650    6.7636   24.4881 O   0  0  0  0  0  0  0  0  0  0  0  0
    3.1317    5.5361   24.0730 H   0  0  0  0  0  0  0  0  0  0  0  0
    4.2499    5.8174   22.7028 H   0  0  0  0  0  0  0  0  0  0  0  0
    4.6677    3.4753   23.9984 H   0  0  0  0  0  0  0  0  0  0  0  0
    4.4537    4.9189   26.2575 H   0  0  0  0  0  0  0  0  0  0  0  0
    6.1085    4.2441   26.1652 H   0  0  0  0  0  0  0  0  0  0  0  0
    6.1461    6.9402   26.0080 H   0  0  0  0  0  0  0  0  0  0  0  0
    7.9077    5.5410   24.7401 H   0  0  0  0  0  0  0  0  0  0  0  0
    7.2297    6.6799   23.5521 H   0  0  0  0  0  0  0  0  0  0  0  0
    6.1750    5.0002   22.5181 H   0  0  0  0  0  0  0  0  0  0  0  0
    6.7748    2.8335   22.5658 H   0  0  0  0  0  0  0  0  0  0  0  0
    8.2153    3.8115   22.8574 H   0  0  0  0  0  0  0  0  0  0  0  0
    8.1443    3.3167   25.2593 H   0  0  0  0  0  0  0  0  0  0  0  0
    6.6380    2.4032   25.0687 H   0  0  0  0  0  0  0  0  0  0  0  0
    9.7045    1.5789   24.3794 C   0  0  0  0  0  0  0  0  0  0  0  0
   10.2926    2.6099   24.6860 O   0  0  0  0  0  0  0  0  0  0  0  0
   10.4462    0.3128   24.0494 C   0  0  0  0  0  0  0  0  0  0  0  0
   11.7756    0.2053   24.4638 C   0  0  0  0  0  0  0  0  0  0  0  0
   12.5968   -0.7756   23.9374 C   0  0  0  0  0  0  0  0  0  0  0  0
   12.0787   -1.6145   22.9493 C   0  0  0  0  0  0  0  0  0  0  0  0
   13.1727   -2.6925   22.1230 Cl  0  0  0  0  0  0  0  0  0  0  0  0
   10.7387   -1.5832   22.5944 C   0  0  0  0  0  0  0  0  0  0  0  0
    9.8850   -0.6212   23.1650 C   0  0  0  0  0  0  0  0  0  0  0  0
   10.3931   -2.2534   21.8123 H   0  0  0  0  0  0  0  0  0  0  0  0
   13.6482   -0.8337   24.1950 H   0  0  0  0  0  0  0  0  0  0  0  0
   12.1755    0.9500   25.1428 H   0  0  0  0  0  0  0  0  0  0  0  0
    6.6479    0.4662   23.6702 H   0  0  0  0  0  0  0  0  0  0  0  0
    7.6686   -0.3755   24.8569 H   0  0  0  0  0  0  0  0  0  0  0  0
    6.3208   -2.3548   20.8998 H   0  0  0  0  0  0  0  0  0  0  0  0
    5.5939   -1.3924   22.1922 H   0  0  0  0  0  0  0  0  0  0  0  0
    8.4313   -2.4477   21.9313 H   0  0  0  0  0  0  0  0  0  0  0  0
    8.2776   -2.8198   24.4244 H   0  0  0  0  0  0  0  0  0  0  0  0
    6.5886   -2.2776   24.3767 H   0  0  0  0  0  0  0  0  0  0  0  0
    7.0748   -3.7370   23.4955 H   0  0  0  0  0  0  0  0  0  0  0  0
  1  2  1  0
  2  3  1  0
  3  4  1  0
  4  5  1  0
  5  6  2  0
  6  7  1  0
  7  8  2  0
  8  9  1  0
  9 10  2  0
 10 11  1  0
 11 12  2  0
 12 13  1  0
 13 14  2  0
 13 15  1  0
 12 16  1  0
 11 17  1  0
 10 18  1  0
  8 19  1  0
  6 20  1  0
  4 21  1  0
 21 22  2  0
 21 23  1  0
 23 24  1  1
 24 25  1  0
 25 26  1  0
 26 27  1  0
 27 28  1  0
 28 29  1  0
 29 30  1  0
 30 31  1  0
 31 32  1  0
 32 33  1  0
 33 34  1  0
 33 35  1  0
 33 36  1  0
 32 37  1  1
 31 38  1  0
 31 39  1  0
 30 40  1  1
 29 41  1  0
 29 42  1  0
 28 43  1  6
 27 44  1  0
 27 45  1  0
 26 46  1  0
 26 47  1  0
 25 48  1  0
 48 49  2  0
 48 50  1  0
 50 51  2  0
 51 52  1  0
 52 53  2  0
 53 54  1  0
 53 55  1  0
 55 56  2  0
 55 57  1  0
 52 58  1  0
 51 59  1  0
 24 60  1  0
 24 61  1  0
  3 62  1  0
  3 63  1  0
  2 64  1  6
  1 65  1  0
  1 66  1  0
  1 67  1  0
 23  2  1  0
 32 28  1  0
 56 50  1  0
 14  5  1  0
 56 23  1  0
 14  9  1  0
 34 30  1  0
M  CHG  1  28   1
M  END
>  <cnnaffinities>  (14) 
[7.26849]

>  <score>  (14) 
7.26849

>  <index>  (14) 
14

>  <Smiles>  (14) 
C([C@]1(C(N(c2c(nc(c3c(c(c(c(c23)[H])[H])[H])[H])[H])[H])C(=O)[C@]21C(N(C(C([N@@+]1(C([C@@]3(C([C@]1(C(O3)([H])[H])[H])([H])[H])[H])([H])[H])[H])([H])[H])([H])[H])C(=O)c1c(c(c(Cl)c(c21)[H])[H])[H])([H])[H])([H])[H])[H])([H])([H])[H]

>  <h>  (14) 
<NA>

>  <Training>  (14) 
True

>  <Success>  (14) 
True

>  <enamine_searched>  (14) 
False

>  <enamine_id>  (14) 
nan

$$$$

     RDKit          3D

 72 77  0  0  0  0  0  0  0  0999 V2000
    4.6982    6.5532   21.6109 C   0  0  0  0  0  0  0  0  0  0  0  0
    4.5522    5.6073   22.7934 C   0  0  1  0  0  0  0  0  0  0  0  0
    5.5678    4.4669   22.7529 C   0  0  0  0  0  0  0  0  0  0  0  0
    6.9444    4.9129   23.1506 N   0  0  2  0  0  4  0  0  0  0  0  0
    7.9087    3.7591   23.1319 C   0  0  0  0  0  0  0  0  0  0  0  0
    7.8478    2.8693   24.3849 C   0  0  0  0  0  0  0  0  0  0  0  0
    8.5049    1.5899   24.1536 N   0  0  0  0  0  0  0  0  0  0  0  0
    7.7263    0.3936   23.8777 C   0  0  0  0  0  0  0  0  0  0  0  0
    8.3872   -0.5043   22.7867 C   0  0  2  0  0  0  0  0  0  0  0  0
    8.1257    0.1411   21.3999 C   0  0  0  0  0  0  0  0  0  0  0  0
    8.7769    0.9808   20.8102 O   0  0  0  0  0  0  0  0  0  0  0  0
    6.9339   -0.3786   20.9404 N   0  0  0  0  0  0  0  0  0  0  0  0
    6.2249    0.1931   19.8597 C   0  0  0  0  0  0  0  0  0  0  0  0
    6.6289   -0.0548   18.5753 C   0  0  0  0  0  0  0  0  0  0  0  0
    5.9551    0.3646   17.4769 N   0  0  0  0  0  0  0  0  0  0  0  0
    4.8604    1.0632   17.6617 C   0  0  0  0  0  0  0  0  0  0  0  0
    4.3639    1.4472   18.9418 C   0  0  0  0  0  0  0  0  0  0  0  0
    3.2154    2.2669   19.1019 C   0  0  0  0  0  0  0  0  0  0  0  0
    2.7824    2.6264   20.3482 C   0  0  0  0  0  0  0  0  0  0  0  0
    3.4654    2.1694   21.4953 C   0  0  0  0  0  0  0  0  0  0  0  0
    4.5746    1.3690   21.3687 C   0  0  0  0  0  0  0  0  0  0  0  0
    5.0589    0.9929   20.0861 C   0  0  0  0  0  0  0  0  0  0  0  0
    5.0974    1.0389   22.2582 H   0  0  0  0  0  0  0  0  0  0  0  0
    3.1278    2.4679   22.4833 H   0  0  0  0  0  0  0  0  0  0  0  0
    1.9131    3.2672   20.4620 H   0  0  0  0  0  0  0  0  0  0  0  0
    2.6989    2.6118   18.2121 H   0  0  0  0  0  0  0  0  0  0  0  0
    4.3069    1.3672   16.7720 H   0  0  0  0  0  0  0  0  0  0  0  0
    7.5304   -0.6398   18.3985 H   0  0  0  0  0  0  0  0  0  0  0  0
    6.4162   -1.4900   21.7188 C   0  0  0  0  0  0  0  0  0  0  0  0
    7.6100   -1.8414   22.6211 C   0  0  2  0  0  0  0  0  0  0  0  0
    7.2602   -2.5936   23.9018 C   0  0  0  0  0  0  0  0  0  0  0  0
    8.1464   -2.7085   24.5375 H   0  0  0  0  0  0  0  0  0  0  0  0
    6.4936   -2.0698   24.4878 H   0  0  0  0  0  0  0  0  0  0  0  0
    6.8795   -3.5940   23.6685 H   0  0  0  0  0  0  0  0  0  0  0  0
    8.2767   -2.4732   22.0248 H   0  0  0  0  0  0  0  0  0  0  0  0
    6.1385   -2.3091   21.0484 H   0  0  0  0  0  0  0  0  0  0  0  0
    5.5118   -1.2262   22.2937 H   0  0  0  0  0  0  0  0  0  0  0  0
    9.8574   -0.6801   23.1029 C   0  0  0  0  0  0  0  0  0  0  0  0
   10.6458   -1.6544   22.4581 C   0  0  0  0  0  0  0  0  0  0  0  0
   11.9851   -1.7810   22.7989 C   0  0  0  0  0  0  0  0  0  0  0  0
   13.0034   -2.8819   21.9160 Cl  0  0  0  0  0  0  0  0  0  0  0  0
   12.5727   -1.0122   23.8020 C   0  0  0  0  0  0  0  0  0  0  0  0
   11.8171   -0.0117   24.3829 C   0  0  0  0  0  0  0  0  0  0  0  0
   10.4917    0.1943   23.9918 C   0  0  0  0  0  0  0  0  0  0  0  0
    9.8524    1.5112   24.3470 C   0  0  0  0  0  0  0  0  0  0  0  0
   10.5263    2.4673   24.7140 O   0  0  0  0  0  0  0  0  0  0  0  0
   12.2762    0.6921   25.0666 H   0  0  0  0  0  0  0  0  0  0  0  0
   13.6159   -1.1725   24.0660 H   0  0  0  0  0  0  0  0  0  0  0  0
   10.2533   -2.2634   21.6492 H   0  0  0  0  0  0  0  0  0  0  0  0
    6.7259    0.7013   23.5508 H   0  0  0  0  0  0  0  0  0  0  0  0
    7.6112   -0.1980   24.7963 H   0  0  0  0  0  0  0  0  0  0  0  0
    8.3354    3.3624   25.2336 H   0  0  0  0  0  0  0  0  0  0  0  0
    6.8071    2.6843   24.6788 H   0  0  0  0  0  0  0  0  0  0  0  0
    8.9226    4.1611   23.0417 H   0  0  0  0  0  0  0  0  0  0  0  0
    7.6942    3.1618   22.2340 H   0  0  0  0  0  0  0  0  0  0  0  0
    6.9365    5.7176   24.4381 C   0  0  1  0  0  0  0  0  0  0  0  0
    8.3105    6.2973   24.7437 C   0  0  0  0  0  0  0  0  0  0  0  0
    8.6598    6.8900   23.8884 H   0  0  0  0  0  0  0  0  0  0  0  0
    9.0601    5.5257   24.9472 H   0  0  0  0  0  0  0  0  0  0  0  0
    8.2581    6.9527   25.6193 H   0  0  0  0  0  0  0  0  0  0  0  0
    5.8816    6.8107   24.3215 C   0  0  0  0  0  0  0  0  0  0  0  0
    4.6001    6.2872   24.0427 O   0  0  0  0  0  0  0  0  0  0  0  0
    5.7946    7.3501   25.2702 H   0  0  0  0  0  0  0  0  0  0  0  0
    6.1954    7.5274   23.5478 H   0  0  0  0  0  0  0  0  0  0  0  0
    6.6197    5.0387   25.2310 H   0  0  0  0  0  0  0  0  0  0  0  0
    7.2677    5.5618   22.4048 H   0  0  0  0  0  0  0  0  0  0  0  0
    5.6146    4.0328   21.7488 H   0  0  0  0  0  0  0  0  0  0  0  0
    5.2477    3.6851   23.4472 H   0  0  0  0  0  0  0  0  0  0  0  0
    3.5514    5.1590   22.7613 H   0  0  0  0  0  0  0  0  0  0  0  0
    5.7261    6.9137   21.4873 H   0  0  0  0  0  0  0  0  0  0  0  0
    4.4219    6.0269   20.6945 H   0  0  0  0  0  0  0  0  0  0  0  0
    4.0369    7.4143   21.7342 H   0  0  0  0  0  0  0  0  0  0  0  0
  1  2  1  0
  2  3  1  0
  3  4  1  0
  4  5  1  0
  5  6  1  0
  6  7  1  0
  7  8  1  0
  9  8  1  1
  9 10  1  0
 10 11  2  0
 10 12  1  0
 12 13  1  0
 13 14  2  0
 14 15  1  0
 15 16  2  0
 16 17  1  0
 17 18  2  0
 18 19  1  0
 19 20  2  0
 20 21  1  0
 21 22  2  0
 21 23  1  0
 20 24  1  0
 19 25  1  0
 18 26  1  0
 16 27  1  0
 14 28  1  0
 12 29  1  0
 29 30  1  0
 30 31  1  0
 31 32  1  0
 31 33  1  0
 31 34  1  0
 30 35  1  6
 29 36  1  0
 29 37  1  0
  9 38  1  0
 38 39  2  0
 39 40  1  0
 40 41  1  0
 40 42  2  0
 42 43  1  0
 43 44  2  0
 44 45  1  0
 45 46  2  0
 43 47  1  0
 42 48  1  0
 39 49  1  0
  8 50  1  0
  8 51  1  0
  6 52  1  0
  6 53  1  0
  5 54  1  0
  5 55  1  0
  4 56  1  0
 56 57  1  0
 57 58  1  0
 57 59  1  0
 57 60  1  0
 56 61  1  0
 61 62  1  0
 61 63  1  0
 61 64  1  0
 56 65  1  1
  4 66  1  6
  3 67  1  0
  3 68  1  0
  2 69  1  6
  1 70  1  0
  1 71  1  0
  1 72  1  0
 62  2  1  0
 45  7  1  0
 30  9  1  0
 44 38  1  0
 22 13  1  0
 22 17  1  0
M  CHG  1   4   1
M  END
>  <cnnaffinities>  (15) 
[7.45983]

>  <score>  (15) 
7.45983

>  <index>  (15) 
15

>  <Smiles>  (15) 
C([C@]1(C([N@+](C(C(N2C([C@@]3(C(=O)N(c4c(nc(c5c(c(c(c(c45)[H])[H])[H])[H])[H])[H])C([C@@]3(C([H])([H])[H])[H])([H])[H])c3c(c(Cl)c(c(c3C2=O)[H])[H])[H])([H])[H])([H])[H])([H])[H])([C@@](C([H])([H])[H])(C(O1)([H])[H])[H])[H])([H])[H])[H])([H])([H])[H]

>  <h>  (15) 
<NA>

>  <Training>  (15) 
True

>  <Success>  (15) 
True

>  <enamine_searched>  (15) 
False

>  <enamine_id>  (15) 
nan

$$$$

     RDKit          3D

 47 50  0  0  0  0  0  0  0  0999 V2000
    8.6362   -4.5086   23.9914 C   0  0  0  0  0  0  0  0  0  0  0  0
    7.3727   -3.7642   24.4120 C   0  0  1  0  0  0  0  0  0  0  0  0
    7.6875   -2.3577   24.9371 C   0  0  0  0  0  0  0  0  0  0  0  0
    7.4177   -1.3747   23.7819 C   0  0  2  0  0  0  0  0  0  0  0  0
    6.6530   -0.1516   24.2616 C   0  0  0  0  0  0  0  0  0  0  0  0
    5.3222   -0.2557   24.6702 C   0  0  0  0  0  0  0  0  0  0  0  0
    4.6283    0.8585   25.1241 C   0  0  0  0  0  0  0  0  0  0  0  0
    5.2624    2.0968   25.1901 C   0  0  0  0  0  0  0  0  0  0  0  0
    6.5984    2.2054   24.8141 C   0  0  0  0  0  0  0  0  0  0  0  0
    7.2886    1.0849   24.3596 C   0  0  0  0  0  0  0  0  0  0  0  0
    8.3351    1.1733   24.0709 H   0  0  0  0  0  0  0  0  0  0  0  0
    7.1012    3.1663   24.8563 H   0  0  0  0  0  0  0  0  0  0  0  0
    4.7165    2.9708   25.5309 H   0  0  0  0  0  0  0  0  0  0  0  0
    3.5898    0.7593   25.4278 H   0  0  0  0  0  0  0  0  0  0  0  0
    4.8194   -1.2187   24.6447 H   0  0  0  0  0  0  0  0  0  0  0  0
    6.7027   -2.1673   22.7888 N   0  0  0  0  0  0  0  0  0  0  0  0
    6.2489   -1.7395   21.5635 C   0  0  0  0  0  0  0  0  0  0  0  0
    5.3962   -2.3681   20.9587 O   0  0  0  0  0  0  0  0  0  0  0  0
    6.9126   -0.4926   20.9239 C   0  0  0  0  0  0  0  0  0  0  0  0
    6.1096    0.0830   19.7802 C   0  0  0  0  0  0  0  0  0  0  0  0
    6.4233   -0.2077   18.4789 C   0  0  0  0  0  0  0  0  0  0  0  0
    5.7700    0.2675   17.3847 N   0  0  0  0  0  0  0  0  0  0  0  0
    4.7324    1.0365   17.5863 C   0  0  0  0  0  0  0  0  0  0  0  0
    4.2809    1.4226   18.8751 C   0  0  0  0  0  0  0  0  0  0  0  0
    3.1635    2.2760   19.0465 C   0  0  0  0  0  0  0  0  0  0  0  0
    2.7512    2.6283   20.3001 C   0  0  0  0  0  0  0  0  0  0  0  0
    3.4453    2.1359   21.4303 C   0  0  0  0  0  0  0  0  0  0  0  0
    4.5329    1.3105   21.2992 C   0  0  0  0  0  0  0  0  0  0  0  0
    4.9865    0.9350   20.0071 C   0  0  0  0  0  0  0  0  0  0  0  0
    5.0475    0.9463   22.1900 H   0  0  0  0  0  0  0  0  0  0  0  0
    3.1085    2.4261   22.4194 H   0  0  0  0  0  0  0  0  0  0  0  0
    1.8955    3.2858   20.4378 H   0  0  0  0  0  0  0  0  0  0  0  0
    2.6473    2.6464   18.1624 H   0  0  0  0  0  0  0  0  0  0  0  0
    4.2000    1.3964   16.7007 H   0  0  0  0  0  0  0  0  0  0  0  0
    7.2620   -0.8641   18.2449 H   0  0  0  0  0  0  0  0  0  0  0  0
    7.1486    0.2833   21.6629 H   0  0  0  0  0  0  0  0  0  0  0  0
    7.8800   -0.8259   20.5216 H   0  0  0  0  0  0  0  0  0  0  0  0
    6.4158   -3.5253   23.2369 C   0  0  0  0  0  0  0  0  0  0  0  0
    5.3632   -3.6548   23.5248 H   0  0  0  0  0  0  0  0  0  0  0  0
    6.5927   -4.2160   22.4102 H   0  0  0  0  0  0  0  0  0  0  0  0
    8.3628   -1.0379   23.3435 H   0  0  0  0  0  0  0  0  0  0  0  0
    7.0628   -2.1219   25.8023 H   0  0  0  0  0  0  0  0  0  0  0  0
    8.7174   -2.2764   25.2911 H   0  0  0  0  0  0  0  0  0  0  0  0
    6.8803   -4.3519   25.1876 H   0  0  0  0  0  0  0  0  0  0  0  0
    9.1670   -3.9412   23.2220 H   0  0  0  0  0  0  0  0  0  0  0  0
    8.4046   -5.5016   23.5912 H   0  0  0  0  0  0  0  0  0  0  0  0
    9.3224   -4.6409   24.8353 H   0  0  0  0  0  0  0  0  0  0  0  0
  1  2  1  0
  2  3  1  0
  3  4  1  0
  4  5  1  0
  5  6  2  0
  6  7  1  0
  7  8  2  0
  8  9  1  0
  9 10  2  0
 10 11  1  0
  9 12  1  0
  8 13  1  0
  7 14  1  0
  6 15  1  0
  4 16  1  0
 16 17  1  0
 17 18  2  0
 17 19  1  0
 19 20  1  0
 20 21  2  0
 21 22  1  0
 22 23  2  0
 23 24  1  0
 24 25  2  0
 25 26  1  0
 26 27  2  0
 27 28  1  0
 28 29  2  0
 28 30  1  0
 27 31  1  0
 26 32  1  0
 25 33  1  0
 23 34  1  0
 21 35  1  0
 19 36  1  0
 19 37  1  0
 16 38  1  0
 38 39  1  0
 38 40  1  0
  4 41  1  6
  3 42  1  0
  3 43  1  0
  2 44  1  1
  1 45  1  0
  1 46  1  0
  1 47  1  0
 38  2  1  0
 10  5  1  0
 29 20  1  0
 29 24  1  0
M  END
>  <cnnaffinities>  (16) 
[5.68988, 5.68971]

>  <score>  (16) 
5.68988

>  <index>  (16) 
16

>  <Smiles>  (16) 
C([C@]1(C([C@](c2c(c(c(c(c2[H])[H])[H])[H])[H])(N(C(=O)C(c2c(nc(c3c(c(c(c(c23)[H])[H])[H])[H])[H])[H])([H])[H])C1([H])[H])[H])([H])[H])[H])([H])([H])[H]

>  <h>  (16) 
<NA>

>  <Training>  (16) 
True

>  <Success>  (16) 
True

>  <enamine_searched>  (16) 
False

>  <enamine_id>  (16) 
nan

$$$$

     RDKit          3D

 58 63  0  0  0  0  0  0  0  0999 V2000
    6.9902   -2.5183   23.9837 C   0  0  0  0  0  0  0  0  0  0  0  0
    7.4685   -1.9323   22.6541 C   0  0  1  0  0  0  0  0  0  0  0  0
    6.3355   -1.5420   21.6850 C   0  0  0  0  0  0  0  0  0  0  0  0
    6.8926   -0.4338   20.9362 N   0  0  0  0  0  0  0  0  0  0  0  0
    6.2040    0.1546   19.8468 C   0  0  0  0  0  0  0  0  0  0  0  0
    6.5888   -0.1100   18.5588 C   0  0  0  0  0  0  0  0  0  0  0  0
    5.9178    0.3243   17.4631 N   0  0  0  0  0  0  0  0  0  0  0  0
    4.8362    1.0383   17.6519 C   0  0  0  0  0  0  0  0  0  0  0  0
    4.3473    1.4212   18.9331 C   0  0  0  0  0  0  0  0  0  0  0  0
    3.2081    2.2537   19.0906 C   0  0  0  0  0  0  0  0  0  0  0  0
    2.7889    2.6224   20.3401 C   0  0  0  0  0  0  0  0  0  0  0  0
    3.4797    2.1680   21.4865 C   0  0  0  0  0  0  0  0  0  0  0  0
    4.5781    1.3554   21.3579 C   0  0  0  0  0  0  0  0  0  0  0  0
    5.0459    0.9676   20.0714 C   0  0  0  0  0  0  0  0  0  0  0  0
    5.1042    1.0087   22.2418 H   0  0  0  0  0  0  0  0  0  0  0  0
    3.1443    2.4677   22.4751 H   0  0  0  0  0  0  0  0  0  0  0  0
    1.9298    3.2771   20.4585 H   0  0  0  0  0  0  0  0  0  0  0  0
    2.6967    2.6019   18.1971 H   0  0  0  0  0  0  0  0  0  0  0  0
    4.2911    1.3608   16.7646 H   0  0  0  0  0  0  0  0  0  0  0  0
    7.4752   -0.7122   18.3685 H   0  0  0  0  0  0  0  0  0  0  0  0
    8.0794    0.0607   21.4298 C   0  0  0  0  0  0  0  0  0  0  0  0
    8.7034    0.9700   20.9215 O   0  0  0  0  0  0  0  0  0  0  0  0
    8.3861   -0.6829   22.7583 C   0  0  1  0  0  0  0  0  0  0  0  0
    7.9362    0.2254   23.9322 C   0  0  0  0  0  0  0  0  0  0  0  0
    8.8995    1.2639   24.2102 N   0  0  0  0  0  0  0  0  0  0  0  0
    8.5863    2.6766   24.0920 C   0  0  0  0  0  0  0  0  0  0  0  0
    8.3291    3.3740   25.3965 C   0  0  0  0  0  0  0  0  0  0  0  0
    8.9981    4.4201   25.8000 N   0  0  0  0  0  0  0  0  0  0  0  0
    8.5599    4.7362   27.0593 N   0  0  0  0  0  0  0  0  0  0  0  0
    7.6160    3.8901   27.3589 C   0  0  0  0  0  0  0  0  0  0  0  0
    7.3974    3.0147   26.3326 N   0  0  0  0  0  0  0  0  0  0  0  0
    6.3584    2.0056   26.2606 C   0  0  0  0  0  0  0  0  0  0  0  0
    5.7364    2.0671   27.1600 H   0  0  0  0  0  0  0  0  0  0  0  0
    6.8079    1.0112   26.2292 H   0  0  0  0  0  0  0  0  0  0  0  0
    5.7383    2.1473   25.3668 H   0  0  0  0  0  0  0  0  0  0  0  0
    7.1072    3.8433   28.3142 H   0  0  0  0  0  0  0  0  0  0  0  0
    7.7493    2.7882   23.3893 H   0  0  0  0  0  0  0  0  0  0  0  0
    9.4485    3.1897   23.6575 H   0  0  0  0  0  0  0  0  0  0  0  0
   10.1982    0.9109   24.4923 C   0  0  0  0  0  0  0  0  0  0  0  0
   10.9259    1.5874   25.1988 O   0  0  0  0  0  0  0  0  0  0  0  0
   10.6999   -0.3065   23.7780 C   0  0  0  0  0  0  0  0  0  0  0  0
   12.0674   -0.5897   23.8783 C   0  0  0  0  0  0  0  0  0  0  0  0
   12.6596   -1.5149   23.0451 C   0  0  0  0  0  0  0  0  0  0  0  0
   11.8369   -2.1641   22.1295 C   0  0  0  0  0  0  0  0  0  0  0  0
   12.4097   -3.0257   21.2729 F   0  0  0  0  0  0  0  0  0  0  0  0
   10.4687   -1.9652   22.0597 C   0  0  0  0  0  0  0  0  0  0  0  0
    9.8633   -1.0178   22.9073 C   0  0  0  0  0  0  0  0  0  0  0  0
    9.9136   -2.5345   21.3197 H   0  0  0  0  0  0  0  0  0  0  0  0
   13.7292   -1.7149   23.0617 H   0  0  0  0  0  0  0  0  0  0  0  0
   12.6717   -0.0387   24.5928 H   0  0  0  0  0  0  0  0  0  0  0  0
    7.8163   -0.4027   24.8240 H   0  0  0  0  0  0  0  0  0  0  0  0
    6.9545    0.6634   23.7203 H   0  0  0  0  0  0  0  0  0  0  0  0
    5.4144   -1.2481   22.2111 H   0  0  0  0  0  0  0  0  0  0  0  0
    6.0758   -2.3592   21.0006 H   0  0  0  0  0  0  0  0  0  0  0  0
    8.0761   -2.6961   22.1602 H   0  0  0  0  0  0  0  0  0  0  0  0
    7.8335   -2.7013   24.6614 H   0  0  0  0  0  0  0  0  0  0  0  0
    6.4695   -3.4668   23.8306 H   0  0  0  0  0  0  0  0  0  0  0  0
    6.2941   -1.8523   24.5080 H   0  0  0  0  0  0  0  0  0  0  0  0
  1  2  1  0
  2  3  1  0
  3  4  1  0
  4  5  1  0
  5  6  2  0
  6  7  1  0
  7  8  2  0
  8  9  1  0
  9 10  2  0
 10 11  1  0
 11 12  2  0
 12 13  1  0
 13 14  2  0
 13 15  1  0
 12 16  1  0
 11 17  1  0
 10 18  1  0
  8 19  1  0
  6 20  1  0
  4 21  1  0
 21 22  2  0
 21 23  1  0
 23 24  1  1
 24 25  1  0
 25 26  1  0
 26 27  1  0
 27 28  2  0
 28 29  1  0
 29 30  2  0
 30 31  1  0
 31 32  1  0
 32 33  1  0
 32 34  1  0
 32 35  1  0
 30 36  1  0
 26 37  1  0
 26 38  1  0
 25 39  1  0
 39 40  2  0
 39 41  1  0
 41 42  2  0
 42 43  1  0
 43 44  2  0
 44 45  1  0
 44 46  1  0
 46 47  2  0
 46 48  1  0
 43 49  1  0
 42 50  1  0
 24 51  1  0
 24 52  1  0
  3 53  1  0
  3 54  1  0
  2 55  1  6
  1 56  1  0
  1 57  1  0
  1 58  1  0
 23  2  1  0
 31 27  1  0
 47 41  1  0
 14  5  1  0
 47 23  1  0
 14  9  1  0
M  END
>  <cnnaffinities>  (17) 
[7.00591, 6.82396]

>  <score>  (17) 
7.00591

>  <index>  (17) 
17

>  <Smiles>  (17) 
C([C@]1(C(N(c2c(nc(c3c(c(c(c(c23)[H])[H])[H])[H])[H])[H])C(=O)[C@]21C(N(C(c1nnc(n1C([H])([H])[H])[H])([H])[H])C(=O)c1c(c(c(F)c(c21)[H])[H])[H])([H])[H])([H])[H])[H])([H])([H])[H]

>  <h>  (17) 
<NA>

>  <Training>  (17) 
True

>  <Success>  (17) 
True

>  <enamine_searched>  (17) 
False

>  <enamine_id>  (17) 
nan

$$$$

     RDKit          3D

 50 53  0  0  0  0  0  0  0  0999 V2000
    6.0152   -1.0388   29.7336 C   0  0  0  0  0  0  0  0  0  0  0  0
    6.3494   -0.7175   28.2849 C   0  0  1  0  0  0  0  0  0  0  0  0
    7.4225   -1.6534   27.7439 C   0  0  0  0  0  0  0  0  0  0  0  0
    7.7798   -1.3221   26.2901 C   0  0  0  0  0  0  0  0  0  0  0  0
    6.5708   -1.3676   25.3433 C   0  0  2  0  0  0  0  0  0  0  0  0
    6.0853   -2.8118   25.1073 C   0  0  0  0  0  0  0  0  0  0  0  0
    5.5782   -2.8647   23.6691 C   0  0  0  0  0  0  0  0  0  0  0  0
    6.2241   -1.7448   22.9880 N   0  0  0  0  0  0  0  0  0  0  0  0
    6.1671   -1.6419   21.6252 C   0  0  0  0  0  0  0  0  0  0  0  0
    5.5462   -2.4539   20.9585 O   0  0  0  0  0  0  0  0  0  0  0  0
    6.9123   -0.4842   20.9208 C   0  0  0  0  0  0  0  0  0  0  0  0
    6.1140    0.0896   19.7727 C   0  0  0  0  0  0  0  0  0  0  0  0
    6.4229   -0.2103   18.4700 C   0  0  0  0  0  0  0  0  0  0  0  0
    5.7667    0.2612   17.3778 N   0  0  0  0  0  0  0  0  0  0  0  0
    4.7300    1.0343   17.5806 C   0  0  0  0  0  0  0  0  0  0  0  0
    4.2828    1.4248   18.8717 C   0  0  0  0  0  0  0  0  0  0  0  0
    3.1623    2.2769   19.0436 C   0  0  0  0  0  0  0  0  0  0  0  0
    2.7494    2.6285   20.3010 C   0  0  0  0  0  0  0  0  0  0  0  0
    3.4410    2.1407   21.4317 C   0  0  0  0  0  0  0  0  0  0  0  0
    4.5316    1.3169   21.2898 C   0  0  0  0  0  0  0  0  0  0  0  0
    4.9885    0.9402   19.9983 C   0  0  0  0  0  0  0  0  0  0  0  0
    5.0468    0.9537   22.1740 H   0  0  0  0  0  0  0  0  0  0  0  0
    3.1061    2.4271   22.4229 H   0  0  0  0  0  0  0  0  0  0  0  0
    1.8931    3.2823   20.4365 H   0  0  0  0  0  0  0  0  0  0  0  0
    2.6413    2.6464   18.1637 H   0  0  0  0  0  0  0  0  0  0  0  0
    4.1971    1.3982   16.7003 H   0  0  0  0  0  0  0  0  0  0  0  0
    7.2650   -0.8657   18.2478 H   0  0  0  0  0  0  0  0  0  0  0  0
    7.2130    0.3142   21.6089 H   0  0  0  0  0  0  0  0  0  0  0  0
    7.8423   -0.9048   20.5148 H   0  0  0  0  0  0  0  0  0  0  0  0
    6.9604   -0.9039   23.9178 C   0  0  0  0  0  0  0  0  0  0  0  0
    8.0400   -1.0073   23.7530 H   0  0  0  0  0  0  0  0  0  0  0  0
    6.7113    0.1521   23.7756 H   0  0  0  0  0  0  0  0  0  0  0  0
    4.5003   -2.7597   23.6490 H   0  0  0  0  0  0  0  0  0  0  0  0
    5.8124   -3.8119   23.1846 H   0  0  0  0  0  0  0  0  0  0  0  0
    5.3124   -3.1143   25.8212 H   0  0  0  0  0  0  0  0  0  0  0  0
    6.9105   -3.5169   25.2411 H   0  0  0  0  0  0  0  0  0  0  0  0
    5.4465   -0.4780   25.9211 C   0  0  0  0  0  0  0  0  0  0  0  0
    5.1153   -0.7569   27.3896 C   0  0  0  0  0  0  0  0  0  0  0  0
    4.3789   -0.0275   27.7486 H   0  0  0  0  0  0  0  0  0  0  0  0
    4.6333   -1.7373   27.4878 H   0  0  0  0  0  0  0  0  0  0  0  0
    4.5460   -0.5794   25.3051 H   0  0  0  0  0  0  0  0  0  0  0  0
    5.7561    0.5723   25.8417 H   0  0  0  0  0  0  0  0  0  0  0  0
    8.5555   -2.0071   25.9234 H   0  0  0  0  0  0  0  0  0  0  0  0
    8.2245   -0.3186   26.2505 H   0  0  0  0  0  0  0  0  0  0  0  0
    8.2808   -1.6019   28.4232 H   0  0  0  0  0  0  0  0  0  0  0  0
    7.0871   -2.6947   27.8095 H   0  0  0  0  0  0  0  0  0  0  0  0
    6.7568    0.3015   28.2471 H   0  0  0  0  0  0  0  0  0  0  0  0
    5.2600   -0.3535   30.1278 H   0  0  0  0  0  0  0  0  0  0  0  0
    5.6192   -2.0556   29.8168 H   0  0  0  0  0  0  0  0  0  0  0  0
    6.9012   -0.9770   30.3736 H   0  0  0  0  0  0  0  0  0  0  0  0
  1  2  1  0
  2  3  1  0
  3  4  1  0
  5  4  1  1
  5  6  1  0
  6  7  1  0
  7  8  1  0
  8  9  1  0
  9 10  2  0
  9 11  1  0
 11 12  1  0
 12 13  2  0
 13 14  1  0
 14 15  2  0
 15 16  1  0
 16 17  2  0
 17 18  1  0
 18 19  2  0
 19 20  1  0
 20 21  2  0
 20 22  1  0
 19 23  1  0
 18 24  1  0
 17 25  1  0
 15 26  1  0
 13 27  1  0
 11 28  1  0
 11 29  1  0
  8 30  1  0
 30 31  1  0
 30 32  1  0
  7 33  1  0
  7 34  1  0
  6 35  1  0
  6 36  1  0
  5 37  1  0
 37 38  1  0
 38 39  1  0
 38 40  1  0
 37 41  1  0
 37 42  1  0
  4 43  1  0
  4 44  1  0
  3 45  1  0
  3 46  1  0
  2 47  1  1
  1 48  1  0
  1 49  1  0
  1 50  1  0
 38  2  1  0
 30  5  1  0
 21 12  1  0
 21 16  1  0
M  END
>  <cnnaffinities>  (18) 
[5.69284, 5.63602, 5.58041, 5.72326]

>  <score>  (18) 
5.69284

>  <index>  (18) 
18

>  <Smiles>  (18) 
C([C@]1(C(C([C@@]2(C(C(N(C(=O)C(c3c(nc(c4c(c(c(c(c34)[H])[H])[H])[H])[H])[H])([H])[H])C2([H])[H])([H])[H])([H])[H])C(C1([H])[H])([H])[H])([H])[H])([H])[H])[H])([H])([H])[H]

>  <h>  (18) 
<NA>

>  <Training>  (18) 
True

>  <Success>  (18) 
True

>  <enamine_searched>  (18) 
False

>  <enamine_id>  (18) 
nan

$$$$

     RDKit          3D

 67 71  0  0  0  0  0  0  0  0999 V2000
    8.3604    1.4681   26.6270 O   0  0  0  0  0  0  0  0  0  0  0  0
    7.2694    1.2057   26.1517 C   0  0  0  0  0  0  0  0  0  0  0  0
    6.9731    1.3907   24.6593 C   0  0  0  0  0  0  0  0  0  0  0  0
    7.5340    0.2618   23.8761 N   0  0  1  0  0  4  0  0  0  0  0  0
    9.0065    0.0941   24.1535 C   0  0  0  0  0  0  0  0  0  0  0  0
    9.5787   -0.9462   23.2305 C   0  0  0  0  0  0  0  0  0  0  0  0
   10.9549   -1.0096   23.0242 C   0  0  0  0  0  0  0  0  0  0  0  0
   11.5074   -1.8942   22.1156 C   0  0  0  0  0  0  0  0  0  0  0  0
   10.6708   -2.6962   21.3561 C   0  0  0  0  0  0  0  0  0  0  0  0
   11.4762   -3.6891   20.1677 Cl  0  0  0  0  0  0  0  0  0  0  0  0
    9.2992   -2.7069   21.5985 C   0  0  0  0  0  0  0  0  0  0  0  0
    8.7536   -1.8687   22.5809 C   0  0  0  0  0  0  0  0  0  0  0  0
    7.2601   -1.9207   22.8516 C   0  0  2  0  0  0  0  0  0  0  0  0
    6.4222   -1.3637   21.6952 C   0  0  0  0  0  0  0  0  0  0  0  0
    5.3130   -1.7820   21.4323 O   0  0  0  0  0  0  0  0  0  0  0  0
    6.9547   -0.2340   21.0674 N   0  0  0  0  0  0  0  0  0  0  0  0
    6.2401    0.2722   19.9529 C   0  0  0  0  0  0  0  0  0  0  0  0
    6.6108   -0.0680   18.6775 C   0  0  0  0  0  0  0  0  0  0  0  0
    5.9383    0.3108   17.5634 N   0  0  0  0  0  0  0  0  0  0  0  0
    4.8567    1.0320   17.7332 C   0  0  0  0  0  0  0  0  0  0  0  0
    4.3761    1.4679   18.9987 C   0  0  0  0  0  0  0  0  0  0  0  0
    3.2133    2.2694   19.1234 C   0  0  0  0  0  0  0  0  0  0  0  0
    2.7787    2.6752   20.3563 C   0  0  0  0  0  0  0  0  0  0  0  0
    3.4865    2.2956   21.5199 C   0  0  0  0  0  0  0  0  0  0  0  0
    4.6142    1.5180   21.4288 C   0  0  0  0  0  0  0  0  0  0  0  0
    5.0858    1.0807   20.1572 C   0  0  0  0  0  0  0  0  0  0  0  0
    5.1513    1.2257   22.3300 H   0  0  0  0  0  0  0  0  0  0  0  0
    3.1278    2.6290   22.4894 H   0  0  0  0  0  0  0  0  0  0  0  0
    1.8938    3.2980   20.4451 H   0  0  0  0  0  0  0  0  0  0  0  0
    2.6896    2.5637   18.2184 H   0  0  0  0  0  0  0  0  0  0  0  0
    4.2956    1.3081   16.8400 H   0  0  0  0  0  0  0  0  0  0  0  0
    7.4791   -0.7054   18.5040 H   0  0  0  0  0  0  0  0  0  0  0  0
    7.9662   -0.2204   20.9659 H   0  0  0  0  0  0  0  0  0  0  0  0
    6.8754   -1.0801   24.0772 C   0  0  0  0  0  0  0  0  0  0  0  0
    7.2190   -1.5200   25.0150 H   0  0  0  0  0  0  0  0  0  0  0  0
    5.7946   -0.9648   24.1318 H   0  0  0  0  0  0  0  0  0  0  0  0
    6.9123   -2.9460   22.9792 H   0  0  0  0  0  0  0  0  0  0  0  0
    8.6287   -3.3528   21.0528 H   0  0  0  0  0  0  0  0  0  0  0  0
   12.5787   -1.9665   21.9699 H   0  0  0  0  0  0  0  0  0  0  0  0
   11.6124   -0.3274   23.5536 H   0  0  0  0  0  0  0  0  0  0  0  0
    9.5125    1.0528   24.0160 H   0  0  0  0  0  0  0  0  0  0  0  0
    9.1232   -0.1581   25.2105 H   0  0  0  0  0  0  0  0  0  0  0  0
    7.4271    0.4974   22.8706 H   0  0  0  0  0  0  0  0  0  0  0  0
    5.8975    1.4483   24.4677 H   0  0  0  0  0  0  0  0  0  0  0  0
    7.4273    2.3214   24.3068 H   0  0  0  0  0  0  0  0  0  0  0  0
    6.2554    0.6539   26.8666 N   0  0  0  0  0  0  0  0  0  0  0  0
    6.4693    0.1325   28.2066 C   0  0  0  0  0  0  0  0  0  0  0  0
    5.1842   -0.4902   28.7701 C   0  0  0  0  0  0  0  0  0  0  0  0
    5.3072   -0.9553   30.2038 C   0  0  0  0  0  0  0  0  0  0  0  0
    4.9249   -0.1377   31.2706 C   0  0  0  0  0  0  0  0  0  0  0  0
    5.0229   -0.5914   32.5822 C   0  0  0  0  0  0  0  0  0  0  0  0
    5.5023   -1.8718   32.8420 C   0  0  0  0  0  0  0  0  0  0  0  0
    5.3906   -2.4437   34.2252 C   0  0  0  0  0  0  0  0  0  0  0  0
    4.2054   -3.1171   34.3463 F   0  0  0  0  0  0  0  0  0  0  0  0
    6.3795   -3.3486   34.4563 F   0  0  0  0  0  0  0  0  0  0  0  0
    5.4228   -1.6748   35.0100 H   0  0  0  0  0  0  0  0  0  0  0  0
    5.9723   -2.6569   31.7926 C   0  0  0  0  0  0  0  0  0  0  0  0
    5.8527   -2.2101   30.4825 C   0  0  0  0  0  0  0  0  0  0  0  0
    6.1720   -2.8430   29.6555 H   0  0  0  0  0  0  0  0  0  0  0  0
    6.4374   -3.6092   32.0126 H   0  0  0  0  0  0  0  0  0  0  0  0
    4.7171    0.0430   33.4136 H   0  0  0  0  0  0  0  0  0  0  0  0
    4.5484    0.8637   31.0779 H   0  0  0  0  0  0  0  0  0  0  0  0
    4.3639    0.2335   28.6911 H   0  0  0  0  0  0  0  0  0  0  0  0
    4.9100   -1.3559   28.1531 H   0  0  0  0  0  0  0  0  0  0  0  0
    6.8201    0.9448   28.8479 H   0  0  0  0  0  0  0  0  0  0  0  0
    7.2677   -0.6199   28.1842 H   0  0  0  0  0  0  0  0  0  0  0  0
    5.3800    0.4776   26.4011 H   0  0  0  0  0  0  0  0  0  0  0  0
  1  2  2  0
  2  3  1  0
  3  4  1  0
  4  5  1  0
  5  6  1  0
  6  7  2  0
  7  8  1  0
  8  9  2  0
  9 10  1  0
  9 11  1  0
 11 12  2  0
 12 13  1  0
 13 14  1  0
 14 15  2  0
 14 16  1  0
 16 17  1  0
 17 18  2  0
 18 19  1  0
 19 20  2  0
 20 21  1  0
 21 22  2  0
 22 23  1  0
 23 24  2  0
 24 25  1  0
 25 26  2  0
 25 27  1  0
 24 28  1  0
 23 29  1  0
 22 30  1  0
 20 31  1  0
 18 32  1  0
 16 33  1  0
 13 34  1  0
 34 35  1  0
 34 36  1  0
 13 37  1  1
 11 38  1  0
  8 39  1  0
  7 40  1  0
  5 41  1  0
  5 42  1  0
  4 43  1  6
  3 44  1  0
  3 45  1  0
  2 46  1  0
 46 47  1  0
 47 48  1  0
 48 49  1  0
 49 50  2  0
 50 51  1  0
 51 52  2  0
 52 53  1  0
 53 54  1  0
 53 55  1  0
 53 56  1  0
 52 57  1  0
 57 58  2  0
 58 59  1  0
 57 60  1  0
 51 61  1  0
 50 62  1  0
 48 63  1  0
 48 64  1  0
 47 65  1  0
 47 66  1  0
 46 67  1  0
 34  4  1  0
 58 49  1  0
 12  6  1  0
 26 17  1  0
 26 21  1  0
M  CHG  1   4   1
M  END
>  <cnnaffinities>  (19) 
[6.01004, 6.11647]

>  <score>  (19) 
6.01004

>  <index>  (19) 
19

>  <Smiles>  (19) 
O=C(C([N@+]1(C(c2c(c(c(Cl)c(c2[C@](C(=O)N(c2c(nc(c3c(c(c(c(c23)[H])[H])[H])[H])[H])[H])[H])(C1([H])[H])[H])[H])[H])[H])([H])[H])[H])([H])[H])N(C(C(c1c(c(c(C(F)(F)[H])c(c1[H])[H])[H])[H])([H])[H])([H])[H])[H]

>  <h>  (19) 
<NA>

>  <Training>  (19) 
True

>  <Success>  (19) 
True

>  <enamine_searched>  (19) 
False

>  <enamine_id>  (19) 
nan

$$$$

     RDKit          3D

 66 70  0  0  0  0  0  0  0  0999 V2000
    4.1504    7.1878   21.3947 C   0  0  0  0  0  0  0  0  0  0  0  0
    5.3498    6.2728   21.1245 C   0  0  0  0  0  0  0  0  0  0  0  0
    5.7894    5.4640   22.3324 C   0  0  0  0  0  0  0  0  0  0  0  0
    5.0579    4.6011   22.7740 O   0  0  0  0  0  0  0  0  0  0  0  0
    7.0733    5.6880   22.8347 N   0  0  0  0  0  0  0  0  0  0  0  0
    7.5855    7.0520   23.0107 C   0  0  0  0  0  0  0  0  0  0  0  0
    8.1319    7.2156   24.4255 C   0  0  0  0  0  0  0  0  0  0  0  0
    9.2686    6.2206   24.6350 C   0  0  0  0  0  0  0  0  0  0  0  0
    8.9048    4.8256   24.1624 C   0  0  0  0  0  0  0  0  0  0  0  0
    9.6698    3.7417   24.5750 C   0  0  0  0  0  0  0  0  0  0  0  0
    9.4194    2.4404   24.1580 C   0  0  0  0  0  0  0  0  0  0  0  0
    8.3923    2.2224   23.2363 C   0  0  0  0  0  0  0  0  0  0  0  0
    8.0570    0.9006   22.7926 N   0  0  0  0  0  0  0  0  0  0  0  0
    7.9099    0.7180   21.4027 C   0  0  0  0  0  0  0  0  0  0  0  0
    8.5030    1.4351   20.6232 O   0  0  0  0  0  0  0  0  0  0  0  0
    6.9790   -0.4025   20.9183 C   0  0  0  0  0  0  0  0  0  0  0  0
    6.1170    0.0887   19.7802 C   0  0  0  0  0  0  0  0  0  0  0  0
    6.4378   -0.1946   18.4790 C   0  0  0  0  0  0  0  0  0  0  0  0
    5.7794    0.2728   17.3868 N   0  0  0  0  0  0  0  0  0  0  0  0
    4.7411    1.0387   17.5892 C   0  0  0  0  0  0  0  0  0  0  0  0
    4.2856    1.4242   18.8775 C   0  0  0  0  0  0  0  0  0  0  0  0
    3.1747    2.2904   19.0527 C   0  0  0  0  0  0  0  0  0  0  0  0
    2.7751    2.6592   20.3059 C   0  0  0  0  0  0  0  0  0  0  0  0
    3.4682    2.1740   21.4397 C   0  0  0  0  0  0  0  0  0  0  0  0
    4.5496    1.3418   21.2939 C   0  0  0  0  0  0  0  0  0  0  0  0
    4.9931    0.9393   20.0051 C   0  0  0  0  0  0  0  0  0  0  0  0
    5.0744    0.9924   22.1819 H   0  0  0  0  0  0  0  0  0  0  0  0
    3.1647    2.4813   22.4355 H   0  0  0  0  0  0  0  0  0  0  0  0
    1.9329    3.3320   20.4351 H   0  0  0  0  0  0  0  0  0  0  0  0
    2.6676    2.6594   18.1650 H   0  0  0  0  0  0  0  0  0  0  0  0
    4.2030    1.3916   16.7073 H   0  0  0  0  0  0  0  0  0  0  0  0
    7.2758   -0.8493   18.2403 H   0  0  0  0  0  0  0  0  0  0  0  0
    6.4136   -0.7778   21.7764 H   0  0  0  0  0  0  0  0  0  0  0  0
    7.6118   -1.2238   20.5501 H   0  0  0  0  0  0  0  0  0  0  0  0
    8.1642   -0.1819   23.6600 N   0  0  0  0  0  0  0  0  0  0  0  0
    9.0907   -1.2651   23.3625 C   0  0  0  0  0  0  0  0  0  0  0  0
    8.5828   -2.2224   23.5474 H   0  0  0  0  0  0  0  0  0  0  0  0
    9.9970   -1.2296   23.9907 H   0  0  0  0  0  0  0  0  0  0  0  0
    9.3956   -1.2239   22.3126 H   0  0  0  0  0  0  0  0  0  0  0  0
    7.4598   -0.1551   24.8632 C   0  0  0  0  0  0  0  0  0  0  0  0
    7.8598   -0.9467   25.9448 C   0  0  0  0  0  0  0  0  0  0  0  0
    7.1960   -0.8672   27.1659 C   0  0  0  0  0  0  0  0  0  0  0  0
    6.0964   -0.0341   27.3238 C   0  0  0  0  0  0  0  0  0  0  0  0
    5.6877    0.7229   26.2328 C   0  0  0  0  0  0  0  0  0  0  0  0
    4.3035    1.7712   26.3905 Cl  0  0  0  0  0  0  0  0  0  0  0  0
    6.3481    0.6859   25.0175 C   0  0  0  0  0  0  0  0  0  0  0  0
    6.0173    1.3129   24.1944 H   0  0  0  0  0  0  0  0  0  0  0  0
    5.5596    0.0273   28.2638 H   0  0  0  0  0  0  0  0  0  0  0  0
    7.5426   -1.4701   28.0054 H   0  0  0  0  0  0  0  0  0  0  0  0
    8.7057   -1.6162   25.8302 H   0  0  0  0  0  0  0  0  0  0  0  0
    7.6295    3.2936   22.7791 C   0  0  0  0  0  0  0  0  0  0  0  0
    7.8503    4.5923   23.2713 C   0  0  0  0  0  0  0  0  0  0  0  0
    6.8561    3.1237   22.0311 H   0  0  0  0  0  0  0  0  0  0  0  0
    9.9988    1.6137   24.5534 H   0  0  0  0  0  0  0  0  0  0  0  0
   10.4916    3.9680   25.2489 H   0  0  0  0  0  0  0  0  0  0  0  0
   10.1617    6.5588   24.0840 H   0  0  0  0  0  0  0  0  0  0  0  0
    9.5670    6.1893   25.6910 H   0  0  0  0  0  0  0  0  0  0  0  0
    7.3278    7.0324   25.1494 H   0  0  0  0  0  0  0  0  0  0  0  0
    8.4841    8.2424   24.5737 H   0  0  0  0  0  0  0  0  0  0  0  0
    8.3673    7.2814   22.2664 H   0  0  0  0  0  0  0  0  0  0  0  0
    6.7430    7.7294   22.8404 H   0  0  0  0  0  0  0  0  0  0  0  0
    6.1889    6.8098   20.6628 H   0  0  0  0  0  0  0  0  0  0  0  0
    5.0616    5.4650   20.4380 H   0  0  0  0  0  0  0  0  0  0  0  0
    3.8555    7.7035   20.4746 H   0  0  0  0  0  0  0  0  0  0  0  0
    4.3719    7.9473   22.1542 H   0  0  0  0  0  0  0  0  0  0  0  0
    3.2979    6.5948   21.7358 H   0  0  0  0  0  0  0  0  0  0  0  0
  1  2  1  0
  2  3  1  0
  3  4  2  0
  3  5  1  0
  5  6  1  0
  6  7  1  0
  7  8  1  0
  8  9  1  0
  9 10  2  0
 10 11  1  0
 11 12  2  0
 12 13  1  0
 13 14  1  0
 14 15  2  0
 14 16  1  0
 16 17  1  0
 17 18  2  0
 18 19  1  0
 19 20  2  0
 20 21  1  0
 21 22  2  0
 22 23  1  0
 23 24  2  0
 24 25  1  0
 25 26  2  0
 25 27  1  0
 24 28  1  0
 23 29  1  0
 22 30  1  0
 20 31  1  0
 18 32  1  0
 16 33  1  0
 16 34  1  0
 13 35  1  0
 35 36  1  0
 36 37  1  0
 36 38  1  0
 36 39  1  0
 35 40  1  0
 40 41  2  0
 41 42  1  0
 42 43  2  0
 43 44  1  0
 44 45  1  0
 44 46  2  0
 46 47  1  0
 43 48  1  0
 42 49  1  0
 41 50  1  0
 12 51  1  0
 51 52  2  0
 51 53  1  0
 11 54  1  0
 10 55  1  0
  8 56  1  0
  8 57  1  0
  7 58  1  0
  7 59  1  0
  6 60  1  0
  6 61  1  0
  2 62  1  0
  2 63  1  0
  1 64  1  0
  1 65  1  0
  1 66  1  0
 52  5  1  0
 52  9  1  0
 26 17  1  0
 46 40  1  0
 26 21  1  0
M  END
>  <cnnaffinities>  (20) 
[7.03255]

>  <score>  (20) 
7.03255

>  <index>  (20) 
20

>  <Smiles>  (20) 
C(C(C(=O)N1C(C(C(c2c(c(c(N(C(=O)C(c3c(nc(c4c(c(c(c(c34)[H])[H])[H])[H])[H])[H])([H])[H])N(C([H])([H])[H])c3c(c(c(c(Cl)c3[H])[H])[H])[H])c(c12)[H])[H])[H])([H])[H])([H])[H])([H])[H])([H])[H])([H])([H])[H]

>  <h>  (20) 
<NA>

>  <Training>  (20) 
True

>  <Success>  (20) 
True

>  <enamine_searched>  (20) 
False

>  <enamine_id>  (20) 
nan

$$$$

     RDKit          3D

 41 44  0  0  0  0  0  0  0  0999 V2000
    8.5277    1.3513   20.7642 O   0  0  0  0  0  0  0  0  0  0  0  0
    7.8457    0.6711   21.5092 C   0  0  0  0  0  0  0  0  0  0  0  0
    6.9441   -0.4392   20.9205 C   0  0  0  0  0  0  0  0  0  0  0  0
    6.1071    0.0841   19.7731 C   0  0  0  0  0  0  0  0  0  0  0  0
    6.4305   -0.2002   18.4732 C   0  0  0  0  0  0  0  0  0  0  0  0
    5.7729    0.2712   17.3803 N   0  0  0  0  0  0  0  0  0  0  0  0
    4.7314    1.0351   17.5842 C   0  0  0  0  0  0  0  0  0  0  0  0
    4.2808    1.4230   18.8713 C   0  0  0  0  0  0  0  0  0  0  0  0
    3.1684    2.2830   19.0456 C   0  0  0  0  0  0  0  0  0  0  0  0
    2.7643    2.6495   20.2997 C   0  0  0  0  0  0  0  0  0  0  0  0
    3.4627    2.1694   21.4317 C   0  0  0  0  0  0  0  0  0  0  0  0
    4.5452    1.3377   21.2891 C   0  0  0  0  0  0  0  0  0  0  0  0
    4.9874    0.9397   20.0006 C   0  0  0  0  0  0  0  0  0  0  0  0
    5.0713    0.9848   22.1724 H   0  0  0  0  0  0  0  0  0  0  0  0
    3.1355    2.4668   22.4223 H   0  0  0  0  0  0  0  0  0  0  0  0
    1.9131    3.3117   20.4337 H   0  0  0  0  0  0  0  0  0  0  0  0
    2.6500    2.6502   18.1623 H   0  0  0  0  0  0  0  0  0  0  0  0
    4.1982    1.3960   16.7009 H   0  0  0  0  0  0  0  0  0  0  0  0
    7.2723   -0.8533   18.2440 H   0  0  0  0  0  0  0  0  0  0  0  0
    6.3041   -0.9033   21.6808 H   0  0  0  0  0  0  0  0  0  0  0  0
    7.6082   -1.2224   20.5333 H   0  0  0  0  0  0  0  0  0  0  0  0
    7.8167    0.8925   22.8738 N   0  0  0  0  0  0  0  0  0  0  0  0
    7.5084   -0.1500   23.8411 C   0  0  0  0  0  0  0  0  0  0  0  0
    8.1589    0.1215   25.1962 C   0  0  0  0  0  0  0  0  0  0  0  0
    7.8095    1.4913   25.7061 C   0  0  0  0  0  0  0  0  0  0  0  0
    7.5541    1.7944   27.0459 C   0  0  0  0  0  0  0  0  0  0  0  0
    7.5968    0.5431   28.2589 Cl  0  0  0  0  0  0  0  0  0  0  0  0
    7.2550    3.0804   27.4738 C   0  0  0  0  0  0  0  0  0  0  0  0
    7.2197    4.0984   26.5316 C   0  0  0  0  0  0  0  0  0  0  0  0
    7.4832    3.8223   25.1950 C   0  0  0  0  0  0  0  0  0  0  0  0
    7.7745    2.5269   24.7719 C   0  0  0  0  0  0  0  0  0  0  0  0
    8.1364    2.2478   23.3262 C   0  0  0  0  0  0  0  0  0  0  0  0
    9.1978    2.4575   23.1501 H   0  0  0  0  0  0  0  0  0  0  0  0
    7.6065    2.9586   22.6894 H   0  0  0  0  0  0  0  0  0  0  0  0
    7.4728    4.6364   24.4771 H   0  0  0  0  0  0  0  0  0  0  0  0
    6.9905    5.1086   26.8543 H   0  0  0  0  0  0  0  0  0  0  0  0
    7.0607    3.2704   28.5265 H   0  0  0  0  0  0  0  0  0  0  0  0
    9.2462    0.0281   25.1068 H   0  0  0  0  0  0  0  0  0  0  0  0
    7.8436   -0.6445   25.9035 H   0  0  0  0  0  0  0  0  0  0  0  0
    7.8760   -1.1043   23.4550 H   0  0  0  0  0  0  0  0  0  0  0  0
    6.4223   -0.2476   23.9778 H   0  0  0  0  0  0  0  0  0  0  0  0
  1  2  2  0
  2  3  1  0
  3  4  1  0
  4  5  2  0
  5  6  1  0
  6  7  2  0
  7  8  1  0
  8  9  2  0
  9 10  1  0
 10 11  2  0
 11 12  1  0
 12 13  2  0
 12 14  1  0
 11 15  1  0
 10 16  1  0
  9 17  1  0
  7 18  1  0
  5 19  1  0
  3 20  1  0
  3 21  1  0
  2 22  1  0
 22 23  1  0
 23 24  1  0
 24 25  1  0
 25 26  2  0
 26 27  1  0
 26 28  1  0
 28 29  2  0
 29 30  1  0
 30 31  2  0
 31 32  1  0
 32 33  1  0
 32 34  1  0
 30 35  1  0
 29 36  1  0
 28 37  1  0
 24 38  1  0
 24 39  1  0
 23 40  1  0
 23 41  1  0
 13  4  1  0
 32 22  1  0
 13  8  1  0
 31 25  1  0
M  END
>  <cnnaffinities>  (21) 
[5.44701]

>  <score>  (21) 
5.44701

>  <index>  (21) 
22

>  <Smiles>  (21) 
O=C(C(c1c(nc(c2c(c(c(c(c12)[H])[H])[H])[H])[H])[H])([H])[H])N1C(C(c2c(Cl)c(c(c(c2C1([H])[H])[H])[H])[H])([H])[H])([H])[H]

>  <h>  (21) 
<NA>

>  <Training>  (21) 
True

>  <Success>  (21) 
True

>  <enamine_searched>  (21) 
False

>  <enamine_id>  (21) 
nan

$$$$

     RDKit          3D

 69 74  0  0  0  0  0  0  0  0999 V2000
    3.6026    6.8640   21.7791 C   0  0  0  0  0  0  0  0  0  0  0  0
    3.8355    5.9295   22.9506 C   0  0  1  0  0  0  0  0  0  0  0  0
    5.0840    5.0704   22.7689 C   0  0  0  0  0  0  0  0  0  0  0  0
    5.3387    4.1968   23.9670 N   0  0  1  0  0  4  0  0  0  0  0  0
    6.5848    3.3926   23.7671 C   0  0  0  0  0  0  0  0  0  0  0  0
    6.7455    2.2809   24.8093 C   0  0  0  0  0  0  0  0  0  0  0  0
    7.7644    1.3208   24.4167 N   0  0  0  0  0  0  0  0  0  0  0  0
    7.4345   -0.0448   24.0490 C   0  0  0  0  0  0  0  0  0  0  0  0
    8.3060   -0.5227   22.8413 C   0  0  2  0  0  0  0  0  0  0  0  0
    7.8997    0.3428   21.6231 C   0  0  0  0  0  0  0  0  0  0  0  0
    8.2477    1.4801   21.3843 O   0  0  0  0  0  0  0  0  0  0  0  0
    6.9986   -0.3907   20.8705 N   0  0  0  0  0  0  0  0  0  0  0  0
    6.2068    0.1581   19.8266 C   0  0  0  0  0  0  0  0  0  0  0  0
    6.5015   -0.1815   18.5297 C   0  0  0  0  0  0  0  0  0  0  0  0
    5.8270    0.2619   17.4438 N   0  0  0  0  0  0  0  0  0  0  0  0
    4.7929    1.0347   17.6551 C   0  0  0  0  0  0  0  0  0  0  0  0
    4.3493    1.4384   18.9434 C   0  0  0  0  0  0  0  0  0  0  0  0
    3.2075    2.2673   19.0963 C   0  0  0  0  0  0  0  0  0  0  0  0
    2.7659    2.6178   20.3408 C   0  0  0  0  0  0  0  0  0  0  0  0
    3.4529    2.1583   21.4859 C   0  0  0  0  0  0  0  0  0  0  0  0
    4.5704    1.3648   21.3657 C   0  0  0  0  0  0  0  0  0  0  0  0
    5.0605    0.9844   20.0816 C   0  0  0  0  0  0  0  0  0  0  0  0
    5.0675    1.0173   22.2667 H   0  0  0  0  0  0  0  0  0  0  0  0
    3.1035    2.4557   22.4716 H   0  0  0  0  0  0  0  0  0  0  0  0
    1.8833    3.2438   20.4475 H   0  0  0  0  0  0  0  0  0  0  0  0
    2.7011    2.6108   18.1983 H   0  0  0  0  0  0  0  0  0  0  0  0
    4.2388    1.3818   16.7828 H   0  0  0  0  0  0  0  0  0  0  0  0
    7.3416   -0.8474   18.3361 H   0  0  0  0  0  0  0  0  0  0  0  0
    6.7710   -1.7372   21.3706 C   0  0  0  0  0  0  0  0  0  0  0  0
    7.9284   -1.9414   22.3571 C   0  0  2  0  0  0  0  0  0  0  0  0
    7.6445   -2.9230   23.4887 C   0  0  0  0  0  0  0  0  0  0  0  0
    8.4772   -2.9181   24.2035 H   0  0  0  0  0  0  0  0  0  0  0  0
    6.7366   -2.6237   24.0293 H   0  0  0  0  0  0  0  0  0  0  0  0
    7.5052   -3.9472   23.1269 H   0  0  0  0  0  0  0  0  0  0  0  0
    8.7730   -2.3021   21.7597 H   0  0  0  0  0  0  0  0  0  0  0  0
    6.7847   -2.4627   20.5498 H   0  0  0  0  0  0  0  0  0  0  0  0
    5.7943   -1.8226   21.8714 H   0  0  0  0  0  0  0  0  0  0  0  0
    9.7530   -0.3675   23.2620 C   0  0  0  0  0  0  0  0  0  0  0  0
   10.8013   -1.2188   22.8786 C   0  0  0  0  0  0  0  0  0  0  0  0
   12.1085   -0.9448   23.2544 C   0  0  0  0  0  0  0  0  0  0  0  0
   13.3857   -1.9228   22.5853 Cl  0  0  0  0  0  0  0  0  0  0  0  0
   12.4205    0.1015   24.1293 C   0  0  0  0  0  0  0  0  0  0  0  0
   11.3767    0.9151   24.5326 C   0  0  0  0  0  0  0  0  0  0  0  0
   10.0777    0.7143   24.0806 C   0  0  0  0  0  0  0  0  0  0  0  0
    9.0563    1.7336   24.4752 C   0  0  0  0  0  0  0  0  0  0  0  0
    9.3694    2.8606   24.8372 O   0  0  0  0  0  0  0  0  0  0  0  0
   11.4902    1.7519   25.2024 H   0  0  0  0  0  0  0  0  0  0  0  0
   13.4505    0.3241   24.4126 H   0  0  0  0  0  0  0  0  0  0  0  0
   10.6238   -2.1090   22.2909 H   0  0  0  0  0  0  0  0  0  0  0  0
    7.5903   -0.7113   24.9100 H   0  0  0  0  0  0  0  0  0  0  0  0
    6.3692   -0.0764   23.8007 H   0  0  0  0  0  0  0  0  0  0  0  0
    7.0126    2.7140   25.7810 H   0  0  0  0  0  0  0  0  0  0  0  0
    5.8025    1.7361   24.9268 H   0  0  0  0  0  0  0  0  0  0  0  0
    7.4547    4.0602   23.7990 H   0  0  0  0  0  0  0  0  0  0  0  0
    6.5513    2.9564   22.7620 H   0  0  0  0  0  0  0  0  0  0  0  0
    5.3451    5.0513   25.2152 C   0  0  0  0  0  0  0  0  0  0  0  0
    4.1002    5.9315   25.2706 C   0  0  0  0  0  0  0  0  0  0  0  0
    3.9631    6.7322   24.1167 O   0  0  0  0  0  0  0  0  0  0  0  0
    3.2045    5.2957   25.3918 H   0  0  0  0  0  0  0  0  0  0  0  0
    4.1535    6.6114   26.1281 H   0  0  0  0  0  0  0  0  0  0  0  0
    5.3735    4.4109   26.0991 H   0  0  0  0  0  0  0  0  0  0  0  0
    6.2439    5.6805   25.2044 H   0  0  0  0  0  0  0  0  0  0  0  0
    4.5456    3.5228   24.0346 H   0  0  0  0  0  0  0  0  0  0  0  0
    5.9552    5.7234   22.6266 H   0  0  0  0  0  0  0  0  0  0  0  0
    4.9840    4.4305   21.8852 H   0  0  0  0  0  0  0  0  0  0  0  0
    2.9686    5.2554   23.0782 H   0  0  0  0  0  0  0  0  0  0  0  0
    3.4685    6.3033   20.8454 H   0  0  0  0  0  0  0  0  0  0  0  0
    2.7079    7.4683   21.9547 H   0  0  0  0  0  0  0  0  0  0  0  0
    4.4610    7.5363   21.6641 H   0  0  0  0  0  0  0  0  0  0  0  0
  1  2  1  0
  2  3  1  0
  3  4  1  0
  4  5  1  0
  5  6  1  0
  6  7  1  0
  7  8  1  0
  9  8  1  1
  9 10  1  0
 10 11  2  0
 10 12  1  0
 12 13  1  0
 13 14  2  0
 14 15  1  0
 15 16  2  0
 16 17  1  0
 17 18  2  0
 18 19  1  0
 19 20  2  0
 20 21  1  0
 21 22  2  0
 21 23  1  0
 20 24  1  0
 19 25  1  0
 18 26  1  0
 16 27  1  0
 14 28  1  0
 12 29  1  0
 29 30  1  0
 30 31  1  0
 31 32  1  0
 31 33  1  0
 31 34  1  0
 30 35  1  6
 29 36  1  0
 29 37  1  0
  9 38  1  0
 38 39  2  0
 39 40  1  0
 40 41  1  0
 40 42  2  0
 42 43  1  0
 43 44  2  0
 44 45  1  0
 45 46  2  0
 43 47  1  0
 42 48  1  0
 39 49  1  0
  8 50  1  0
  8 51  1  0
  6 52  1  0
  6 53  1  0
  5 54  1  0
  5 55  1  0
  4 56  1  0
 56 57  1  0
 57 58  1  0
 57 59  1  0
 57 60  1  0
 56 61  1  0
 56 62  1  0
  4 63  1  1
  3 64  1  0
  3 65  1  0
  2 66  1  1
  1 67  1  0
  1 68  1  0
  1 69  1  0
 58  2  1  0
 45  7  1  0
 30  9  1  0
 44 38  1  0
 22 13  1  0
 22 17  1  0
M  CHG  1   4   1
M  END
>  <cnnaffinities>  (22) 
[6.89027]

>  <score>  (22) 
6.89027

>  <index>  (22) 
23

>  <Smiles>  (22) 
C([C@]1(C([N@@+](C(C(N2C([C@@]3(C(=O)N(c4c(nc(c5c(c(c(c(c45)[H])[H])[H])[H])[H])[H])C([C@@]3(C([H])([H])[H])[H])([H])[H])c3c(c(Cl)c(c(c3C2=O)[H])[H])[H])([H])[H])([H])[H])([H])[H])(C(C(O1)([H])[H])([H])[H])[H])([H])[H])[H])([H])([H])[H]

>  <h>  (22) 
<NA>

>  <Training>  (22) 
True

>  <Success>  (22) 
True

>  <enamine_searched>  (22) 
False

>  <enamine_id>  (22) 
nan

$$$$

     RDKit          3D

 70 75  0  0  0  0  0  0  0  0999 V2000
    6.1364    4.6285   22.0916 C   0  0  0  0  0  0  0  0  0  0  0  0
    6.6440    3.4725   22.8433 N   0  0  0  0  0  4  0  0  0  0  0  0
    7.5430    3.8326   23.9630 C   0  0  0  0  0  0  0  0  0  0  0  0
    7.6889    2.7202   25.0034 C   0  0  0  0  0  0  0  0  0  0  0  0
    8.3911    1.5342   24.5350 N   0  0  0  0  0  0  0  0  0  0  0  0
    7.6903    0.3075   24.2019 C   0  0  0  0  0  0  0  0  0  0  0  0
    8.3274   -0.4193   22.9769 C   0  0  2  0  0  0  0  0  0  0  0  0
    7.9000    0.4237   21.7512 C   0  0  0  0  0  0  0  0  0  0  0  0
    8.1252    1.6134   21.5711 O   0  0  0  0  0  0  0  0  0  0  0  0
    7.0579   -0.3231   20.9693 N   0  0  0  0  0  0  0  0  0  0  0  0
    6.3075    0.2416   19.9008 C   0  0  0  0  0  0  0  0  0  0  0  0
    6.6486   -0.0817   18.6150 C   0  0  0  0  0  0  0  0  0  0  0  0
    5.9644    0.3238   17.5228 N   0  0  0  0  0  0  0  0  0  0  0  0
    4.8976    1.0583   17.7183 C   0  0  0  0  0  0  0  0  0  0  0  0
    4.4381    1.4775   18.9990 C   0  0  0  0  0  0  0  0  0  0  0  0
    3.2861    2.2969   19.1490 C   0  0  0  0  0  0  0  0  0  0  0  0
    2.8423    2.6518   20.3932 C   0  0  0  0  0  0  0  0  0  0  0  0
    3.5204    2.1961   21.5432 C   0  0  0  0  0  0  0  0  0  0  0  0
    4.6377    1.3980   21.4195 C   0  0  0  0  0  0  0  0  0  0  0  0
    5.1459    1.0385   20.1390 C   0  0  0  0  0  0  0  0  0  0  0  0
    5.1116    1.0072   22.3148 H   0  0  0  0  0  0  0  0  0  0  0  0
    3.1590    2.4917   22.5253 H   0  0  0  0  0  0  0  0  0  0  0  0
    1.9639    3.2819   20.4996 H   0  0  0  0  0  0  0  0  0  0  0  0
    2.7664    2.6233   18.2529 H   0  0  0  0  0  0  0  0  0  0  0  0
    4.3339    1.3540   16.8343 H   0  0  0  0  0  0  0  0  0  0  0  0
    7.5221   -0.7064   18.4402 H   0  0  0  0  0  0  0  0  0  0  0  0
    6.5590   -1.5095   21.6441 C   0  0  0  0  0  0  0  0  0  0  0  0
    7.6624   -1.7897   22.6625 C   0  0  2  0  0  0  0  0  0  0  0  0
    7.2346   -2.6141   23.8681 C   0  0  0  0  0  0  0  0  0  0  0  0
    6.0537   -2.0645   24.4195 O   0  0  0  0  0  0  0  0  0  0  0  0
    5.7983   -2.4499   25.7494 C   0  0  0  0  0  0  0  0  0  0  0  0
    4.5325   -1.7454   26.1952 C   0  0  0  0  0  0  0  0  0  0  0  0
    4.7002   -0.2547   26.5444 C   0  0  0  0  0  0  0  0  0  0  0  0
    4.5416   -0.5162   27.9436 O   0  0  0  0  0  0  0  0  0  0  0  0
    4.2314   -1.8935   27.6895 C   0  0  0  0  0  0  0  0  0  0  0  0
    4.9007   -2.5695   28.2383 H   0  0  0  0  0  0  0  0  0  0  0  0
    3.1912   -2.1342   27.9438 H   0  0  0  0  0  0  0  0  0  0  0  0
    5.6839    0.1810   26.3191 H   0  0  0  0  0  0  0  0  0  0  0  0
    3.9159    0.4090   26.1585 H   0  0  0  0  0  0  0  0  0  0  0  0
    3.7162   -1.9674   25.5050 H   0  0  0  0  0  0  0  0  0  0  0  0
    6.6395   -2.1619   26.4092 H   0  0  0  0  0  0  0  0  0  0  0  0
    5.6847   -3.5447   25.8259 H   0  0  0  0  0  0  0  0  0  0  0  0
    7.0619   -3.6622   23.5774 H   0  0  0  0  0  0  0  0  0  0  0  0
    8.0493   -2.6008   24.6123 H   0  0  0  0  0  0  0  0  0  0  0  0
    8.4195   -2.3721   22.1373 H   0  0  0  0  0  0  0  0  0  0  0  0
    6.4262   -2.3138   20.9158 H   0  0  0  0  0  0  0  0  0  0  0  0
    5.5940   -1.3290   22.1349 H   0  0  0  0  0  0  0  0  0  0  0  0
    9.8251   -0.5444   23.2185 C   0  0  0  0  0  0  0  0  0  0  0  0
   10.6416   -1.5064   22.5906 C   0  0  0  0  0  0  0  0  0  0  0  0
   11.9804   -1.6098   22.9183 C   0  0  0  0  0  0  0  0  0  0  0  0
   13.0177   -2.6916   22.0208 Cl  0  0  0  0  0  0  0  0  0  0  0  0
   12.5351   -0.8489   23.9459 C   0  0  0  0  0  0  0  0  0  0  0  0
   11.7522    0.1250   24.5352 C   0  0  0  0  0  0  0  0  0  0  0  0
   10.4412    0.3304   24.1188 C   0  0  0  0  0  0  0  0  0  0  0  0
    9.7492    1.5989   24.5048 C   0  0  0  0  0  0  0  0  0  0  0  0
   10.3620    2.6323   24.7452 O   0  0  0  0  0  0  0  0  0  0  0  0
   12.1524    0.7568   25.3147 H   0  0  0  0  0  0  0  0  0  0  0  0
   13.5765   -0.9665   24.2104 H   0  0  0  0  0  0  0  0  0  0  0  0
   10.2751   -2.1433   21.7928 H   0  0  0  0  0  0  0  0  0  0  0  0
    7.6808   -0.3626   25.0665 H   0  0  0  0  0  0  0  0  0  0  0  0
    6.6588    0.5487   23.9425 H   0  0  0  0  0  0  0  0  0  0  0  0
    6.7074    2.4227   25.3922 H   0  0  0  0  0  0  0  0  0  0  0  0
    8.2624    3.1111   25.8479 H   0  0  0  0  0  0  0  0  0  0  0  0
    8.5294    4.0879   23.5703 H   0  0  0  0  0  0  0  0  0  0  0  0
    7.1493    4.7206   24.4687 H   0  0  0  0  0  0  0  0  0  0  0  0
    5.8172    2.9802   23.2257 H   0  0  0  0  0  0  0  0  0  0  0  0
    7.1424    2.8246   22.2005 H   0  0  0  0  0  0  0  0  0  0  0  0
    6.9255    5.0903   21.4945 H   0  0  0  0  0  0  0  0  0  0  0  0
    5.3267    4.3089   21.4346 H   0  0  0  0  0  0  0  0  0  0  0  0
    5.7460    5.3883   22.7775 H   0  0  0  0  0  0  0  0  0  0  0  0
  1  2  1  0
  2  3  1  0
  3  4  1  0
  4  5  1  0
  5  6  1  0
  7  6  1  1
  7  8  1  0
  8  9  2  0
  8 10  1  0
 10 11  1  0
 11 12  2  0
 12 13  1  0
 13 14  2  0
 14 15  1  0
 15 16  2  0
 16 17  1  0
 17 18  2  0
 18 19  1  0
 19 20  2  0
 19 21  1  0
 18 22  1  0
 17 23  1  0
 16 24  1  0
 14 25  1  0
 12 26  1  0
 10 27  1  0
 27 28  1  0
 28 29  1  0
 29 30  1  0
 30 31  1  0
 31 32  1  0
 32 33  1  0
 33 34  1  0
 34 35  1  0
 35 36  1  0
 35 37  1  0
 33 38  1  0
 33 39  1  0
 32 40  1  0
 31 41  1  0
 31 42  1  0
 29 43  1  0
 29 44  1  0
 28 45  1  6
 27 46  1  0
 27 47  1  0
  7 48  1  0
 48 49  2  0
 49 50  1  0
 50 51  1  0
 50 52  2  0
 52 53  1  0
 53 54  2  0
 54 55  1  0
 55 56  2  0
 53 57  1  0
 52 58  1  0
 49 59  1  0
  6 60  1  0
  6 61  1  0
  4 62  1  0
  4 63  1  0
  3 64  1  0
  3 65  1  0
  2 66  1  0
  2 67  1  0
  1 68  1  0
  1 69  1  0
  1 70  1  0
 55  5  1  0
 28  7  1  0
 35 32  1  0
 54 48  1  0
 20 11  1  0
 20 15  1  0
M  CHG  1   2   1
M  END
>  <cnnaffinities>  (23) 
[7.10883]

>  <score>  (23) 
7.10883

>  <index>  (23) 
24

>  <Smiles>  (23) 
C([N+](C(C(N1C([C@@]2(C(=O)N(c3c(nc(c4c(c(c(c(c34)[H])[H])[H])[H])[H])[H])C([C@@]2(C(OC(C2(C(OC2([H])[H])([H])[H])[H])([H])[H])([H])[H])[H])([H])[H])c2c(c(Cl)c(c(c2C1=O)[H])[H])[H])([H])[H])([H])[H])([H])[H])([H])[H])([H])([H])[H]

>  <h>  (23) 
<NA>

>  <Training>  (23) 
True

>  <Success>  (23) 
True

>  <enamine_searched>  (23) 
False

>  <enamine_id>  (23) 
nan

$$$$

     RDKit          3D

 68 73  0  0  0  0  0  0  0  0999 V2000
    6.6417    4.2558   21.4736 C   0  0  0  0  0  0  0  0  0  0  0  0
    7.6442    3.7343   22.3847 N   0  0  0  0  0  0  0  0  0  0  0  0
    7.2518    3.0788   23.5102 C   0  0  0  0  0  0  0  0  0  0  0  0
    6.0731    2.8812   23.7819 O   0  0  0  0  0  0  0  0  0  0  0  0
    8.3809    2.6313   24.4472 C   0  0  0  0  0  0  0  0  0  0  0  0
    8.8845    1.3047   24.1200 N   0  0  0  0  0  0  0  0  0  0  0  0
    7.9565    0.2164   23.8618 C   0  0  0  0  0  0  0  0  0  0  0  0
    8.4409   -0.6769   22.6882 C   0  0  2  0  0  0  0  0  0  0  0  0
    8.1206    0.0876   21.3763 C   0  0  0  0  0  0  0  0  0  0  0  0
    8.7262    1.0118   20.8666 O   0  0  0  0  0  0  0  0  0  0  0  0
    6.9349   -0.4149   20.8857 N   0  0  0  0  0  0  0  0  0  0  0  0
    6.2275    0.1761   19.8142 C   0  0  0  0  0  0  0  0  0  0  0  0
    6.6104   -0.0805   18.5235 C   0  0  0  0  0  0  0  0  0  0  0  0
    5.9298    0.3522   17.4359 N   0  0  0  0  0  0  0  0  0  0  0  0
    4.8445    1.0592   17.6364 C   0  0  0  0  0  0  0  0  0  0  0  0
    4.3564    1.4319   18.9215 C   0  0  0  0  0  0  0  0  0  0  0  0
    3.2118    2.2530   19.1000 C   0  0  0  0  0  0  0  0  0  0  0  0
    2.7968    2.6109   20.3538 C   0  0  0  0  0  0  0  0  0  0  0  0
    3.4980    2.1578   21.4941 C   0  0  0  0  0  0  0  0  0  0  0  0
    4.6022    1.3520   21.3475 C   0  0  0  0  0  0  0  0  0  0  0  0
    5.0634    0.9706   20.0575 C   0  0  0  0  0  0  0  0  0  0  0  0
    5.1653    1.0589   22.2288 H   0  0  0  0  0  0  0  0  0  0  0  0
    3.1865    2.4596   22.4896 H   0  0  0  0  0  0  0  0  0  0  0  0
    1.9325    3.2560   20.4803 H   0  0  0  0  0  0  0  0  0  0  0  0
    2.6882    2.6020   18.2138 H   0  0  0  0  0  0  0  0  0  0  0  0
    4.2866    1.3787   16.7546 H   0  0  0  0  0  0  0  0  0  0  0  0
    7.4950   -0.6860   18.3340 H   0  0  0  0  0  0  0  0  0  0  0  0
    6.3762   -1.5168   21.6385 C   0  0  0  0  0  0  0  0  0  0  0  0
    7.5522   -1.9501   22.5186 C   0  0  2  0  0  0  0  0  0  0  0  0
    7.1376   -2.6868   23.7908 C   0  0  0  0  0  0  0  0  0  0  0  0
    8.3351   -3.1908   24.4343 N   0  0  0  0  0  0  0  0  0  0  0  0
    8.2851   -3.6554   25.7478 C   0  0  0  0  0  0  0  0  0  0  0  0
    7.1969   -3.8120   26.6427 C   0  0  0  0  0  0  0  0  0  0  0  0
    7.6041   -4.2695   27.8230 N   0  0  0  0  0  0  0  0  0  0  0  0
    8.9282   -4.4050   27.7076 N   0  0  0  0  0  0  0  0  0  0  0  0
    9.7171   -4.8797   28.8176 C   0  0  0  0  0  0  0  0  0  0  0  0
    9.2508   -4.5373   29.7399 H   0  0  0  0  0  0  0  0  0  0  0  0
    9.7882   -5.9741   28.8307 H   0  0  0  0  0  0  0  0  0  0  0  0
   10.7216   -4.4542   28.7554 H   0  0  0  0  0  0  0  0  0  0  0  0
    9.3871   -4.0566   26.4798 C   0  0  0  0  0  0  0  0  0  0  0  0
   10.4436   -4.1148   26.2329 H   0  0  0  0  0  0  0  0  0  0  0  0
    6.1467   -3.5888   26.4864 H   0  0  0  0  0  0  0  0  0  0  0  0
    9.1197   -2.5485   24.3394 H   0  0  0  0  0  0  0  0  0  0  0  0
    6.4739   -3.5250   23.5409 H   0  0  0  0  0  0  0  0  0  0  0  0
    6.5581   -2.0175   24.4538 H   0  0  0  0  0  0  0  0  0  0  0  0
    8.1587   -2.6470   21.9324 H   0  0  0  0  0  0  0  0  0  0  0  0
    5.4903   -1.2160   22.2226 H   0  0  0  0  0  0  0  0  0  0  0  0
    6.0470   -2.3030   20.9501 H   0  0  0  0  0  0  0  0  0  0  0  0
    9.9224   -0.9799   22.8613 C   0  0  0  0  0  0  0  0  0  0  0  0
   10.5870   -1.9260   22.0491 C   0  0  0  0  0  0  0  0  0  0  0  0
   11.9560   -2.1178   22.1819 C   0  0  0  0  0  0  0  0  0  0  0  0
   12.7918   -3.2019   21.0957 Cl  0  0  0  0  0  0  0  0  0  0  0  0
   12.7202   -1.4197   23.1217 C   0  0  0  0  0  0  0  0  0  0  0  0
   12.0744   -0.4881   23.9134 C   0  0  0  0  0  0  0  0  0  0  0  0
   10.7063   -0.2439   23.7663 C   0  0  0  0  0  0  0  0  0  0  0  0
   10.1810    0.9925   24.4359 C   0  0  0  0  0  0  0  0  0  0  0  0
   10.8892    1.6836   25.1524 O   0  0  0  0  0  0  0  0  0  0  0  0
   12.6381    0.1265   24.6103 H   0  0  0  0  0  0  0  0  0  0  0  0
   13.7973   -1.5766   23.1824 H   0  0  0  0  0  0  0  0  0  0  0  0
   10.0688   -2.4941   21.2786 H   0  0  0  0  0  0  0  0  0  0  0  0
    7.8562   -0.3777   24.7788 H   0  0  0  0  0  0  0  0  0  0  0  0
    6.9822    0.6566   23.6333 H   0  0  0  0  0  0  0  0  0  0  0  0
    9.2220    3.3297   24.3878 H   0  0  0  0  0  0  0  0  0  0  0  0
    8.0020    2.6805   25.4781 H   0  0  0  0  0  0  0  0  0  0  0  0
    8.5842    3.5860   22.0463 H   0  0  0  0  0  0  0  0  0  0  0  0
    6.1815    3.4651   20.8646 H   0  0  0  0  0  0  0  0  0  0  0  0
    7.0939    5.0043   20.8232 H   0  0  0  0  0  0  0  0  0  0  0  0
    5.8620    4.7364   22.0668 H   0  0  0  0  0  0  0  0  0  0  0  0
  1  2  1  0
  2  3  1  0
  3  4  2  0
  3  5  1  0
  5  6  1  0
  6  7  1  0
  8  7  1  1
  8  9  1  0
  9 10  2  0
  9 11  1  0
 11 12  1  0
 12 13  2  0
 13 14  1  0
 14 15  2  0
 15 16  1  0
 16 17  2  0
 17 18  1  0
 18 19  2  0
 19 20  1  0
 20 21  2  0
 20 22  1  0
 19 23  1  0
 18 24  1  0
 17 25  1  0
 15 26  1  0
 13 27  1  0
 11 28  1  0
 28 29  1  0
 29 30  1  0
 30 31  1  0
 31 32  1  0
 32 33  1  0
 33 34  2  0
 34 35  1  0
 35 36  1  0
 36 37  1  0
 36 38  1  0
 36 39  1  0
 35 40  1  0
 40 41  1  0
 33 42  1  0
 31 43  1  0
 30 44  1  0
 30 45  1  0
 29 46  1  6
 28 47  1  0
 28 48  1  0
  8 49  1  0
 49 50  2  0
 50 51  1  0
 51 52  1  0
 51 53  2  0
 53 54  1  0
 54 55  2  0
 55 56  1  0
 56 57  2  0
 54 58  1  0
 53 59  1  0
 50 60  1  0
  7 61  1  0
  7 62  1  0
  5 63  1  0
  5 64  1  0
  2 65  1  0
  1 66  1  0
  1 67  1  0
  1 68  1  0
 56  6  1  0
 29  8  1  0
 40 32  2  0
 55 49  1  0
 21 12  1  0
 21 16  1  0
M  END
>  <cnnaffinities>  (24) 
[7.56741]

>  <score>  (24) 
7.56741

>  <index>  (24) 
25

>  <Smiles>  (24) 
C(N(C(=O)C(N1C([C@@]2(C(=O)N(c3c(nc(c4c(c(c(c(c34)[H])[H])[H])[H])[H])[H])C([C@@]2(C(N(c2c(nn(C([H])([H])[H])c2[H])[H])[H])([H])[H])[H])([H])[H])c2c(c(Cl)c(c(c2C1=O)[H])[H])[H])([H])[H])([H])[H])[H])([H])([H])[H]

>  <h>  (24) 
<NA>

>  <Training>  (24) 
True

>  <Success>  (24) 
True

>  <enamine_searched>  (24) 
False

>  <enamine_id>  (24) 
nan

$$$$

     RDKit          3D

 43 47  0  0  0  0  0  0  0  0999 V2000
    8.7370    0.6533   20.6530 O   0  0  0  0  0  0  0  0  0  0  0  0
    8.1026   -0.2676   21.1050 C   0  0  0  0  0  0  0  0  0  0  0  0
    8.5249   -1.3148   21.8979 N   0  0  0  0  0  0  0  0  0  0  0  0
    7.4082   -1.9455   22.5805 C   0  0  1  0  0  0  0  0  0  0  0  0
    7.5319   -3.4558   22.8132 C   0  0  0  0  0  0  0  0  0  0  0  0
    7.8522   -3.2038   24.3079 C   0  0  2  0  0  0  0  0  0  0  0  0
    7.1634   -4.0156   25.3797 C   0  0  0  0  0  0  0  0  0  0  0  0
    7.9099   -4.5293   26.4477 C   0  0  0  0  0  0  0  0  0  0  0  0
    7.3530   -5.3493   27.4248 C   0  0  0  0  0  0  0  0  0  0  0  0
    6.0000   -5.6673   27.3791 C   0  0  0  0  0  0  0  0  0  0  0  0
    5.2176   -5.1202   26.3724 C   0  0  0  0  0  0  0  0  0  0  0  0
    5.7876   -4.2805   25.4229 C   0  0  0  0  0  0  0  0  0  0  0  0
    4.6738   -3.5144   24.3316 Cl  0  0  0  0  0  0  0  0  0  0  0  0
    4.1429   -5.2618   26.3627 H   0  0  0  0  0  0  0  0  0  0  0  0
    5.5508   -6.3338   28.1114 H   0  0  0  0  0  0  0  0  0  0  0  0
    7.9767   -5.7534   28.2191 H   0  0  0  0  0  0  0  0  0  0  0  0
    8.9517   -4.2295   26.5289 H   0  0  0  0  0  0  0  0  0  0  0  0
    7.4247   -1.7232   24.1102 C   0  0  0  0  0  0  0  0  0  0  0  0
    8.1506   -0.9701   24.4286 H   0  0  0  0  0  0  0  0  0  0  0  0
    6.4590   -1.4837   24.5475 H   0  0  0  0  0  0  0  0  0  0  0  0
    8.9336   -3.2435   24.4744 H   0  0  0  0  0  0  0  0  0  0  0  0
    6.5958   -3.9836   22.6635 H   0  0  0  0  0  0  0  0  0  0  0  0
    8.3029   -3.8969   22.1962 H   0  0  0  0  0  0  0  0  0  0  0  0
    6.2310   -1.4693   21.7523 C   0  0  0  0  0  0  0  0  0  0  0  0
    5.0940   -1.8739   21.7658 O   0  0  0  0  0  0  0  0  0  0  0  0
    6.7268   -0.4690   20.9100 N   0  0  0  0  0  0  0  0  0  0  0  0
    6.0137    0.1113   19.8242 C   0  0  0  0  0  0  0  0  0  0  0  0
    6.4085   -0.1555   18.5404 C   0  0  0  0  0  0  0  0  0  0  0  0
    5.7706    0.3181   17.4453 N   0  0  0  0  0  0  0  0  0  0  0  0
    4.7173    1.0761   17.6207 C   0  0  0  0  0  0  0  0  0  0  0  0
    4.2089    1.4550   18.8941 C   0  0  0  0  0  0  0  0  0  0  0  0
    3.0863    2.3209   19.0491 C   0  0  0  0  0  0  0  0  0  0  0  0
    2.6919    2.7085   20.3012 C   0  0  0  0  0  0  0  0  0  0  0  0
    3.3894    2.2462   21.4436 C   0  0  0  0  0  0  0  0  0  0  0  0
    4.4587    1.3939   21.3168 C   0  0  0  0  0  0  0  0  0  0  0  0
    4.8907    0.9730   20.0343 C   0  0  0  0  0  0  0  0  0  0  0  0
    5.0017    1.0285   22.1840 H   0  0  0  0  0  0  0  0  0  0  0  0
    3.0951    2.5790   22.4334 H   0  0  0  0  0  0  0  0  0  0  0  0
    1.8594    3.4003   20.4302 H   0  0  0  0  0  0  0  0  0  0  0  0
    2.5793    2.6963   18.1603 H   0  0  0  0  0  0  0  0  0  0  0  0
    4.2307    1.4478   16.7194 H   0  0  0  0  0  0  0  0  0  0  0  0
    7.2770   -0.7838   18.3501 H   0  0  0  0  0  0  0  0  0  0  0  0
    9.3929   -1.2031   22.4029 H   0  0  0  0  0  0  0  0  0  0  0  0
  1  2  2  0
  2  3  1  0
  4  3  1  6
  4  5  1  0
  5  6  1  0
  6  7  1  0
  7  8  2  0
  8  9  1  0
  9 10  2  0
 10 11  1  0
 11 12  2  0
 12 13  1  0
 11 14  1  0
 10 15  1  0
  9 16  1  0
  8 17  1  0
  6 18  1  0
 18 19  1  0
 18 20  1  0
  6 21  1  6
  5 22  1  0
  5 23  1  0
  4 24  1  0
 24 25  2  0
 24 26  1  0
 26 27  1  0
 27 28  2  0
 28 29  1  0
 29 30  2  0
 30 31  1  0
 31 32  2  0
 32 33  1  0
 33 34  2  0
 34 35  1  0
 35 36  2  0
 35 37  1  0
 34 38  1  0
 33 39  1  0
 32 40  1  0
 30 41  1  0
 28 42  1  0
  3 43  1  0
 26  2  1  0
 36 27  1  0
 18  4  1  0
 36 31  1  0
 12  7  1  0
M  END
>  <cnnaffinities>  (25) 
[5.78417]

>  <score>  (25) 
5.78417

>  <index>  (25) 
26

>  <Smiles>  (25) 
O=C1N([C@]2(C([C@](c3c(c(c(c(c3Cl)[H])[H])[H])[H])(C2([H])[H])[H])([H])[H])C(=O)N1c1c(nc(c2c(c(c(c(c12)[H])[H])[H])[H])[H])[H])[H]

>  <h>  (25) 
<NA>

>  <Training>  (25) 
True

>  <Success>  (25) 
True

>  <enamine_searched>  (25) 
False

>  <enamine_id>  (25) 
nan

$$$$

     RDKit          3D

 46 48  0  0  0  0  0  0  0  0999 V2000
    6.8165    3.9152   21.4145 C   0  0  0  0  0  0  0  0  0  0  0  0
    7.1858    3.3738   22.7989 C   0  0  0  0  0  0  0  0  0  0  0  0
    8.4581    2.4885   22.7920 C   0  0  1  0  0  0  0  0  0  0  0  0
    9.3392    2.6773   24.0307 C   0  0  0  0  0  0  0  0  0  0  0  0
    8.9087    1.8672   25.2497 C   0  0  1  0  0  0  0  0  0  0  0  0
    7.8522    2.5561   26.0884 C   0  0  0  0  0  0  0  0  0  0  0  0
    7.7465    1.9644   27.2948 F   0  0  0  0  0  0  0  0  0  0  0  0
    6.6169    2.5269   25.5427 F   0  0  0  0  0  0  0  0  0  0  0  0
    8.1514    3.8540   26.2935 F   0  0  0  0  0  0  0  0  0  0  0  0
    8.5777    0.4326   24.8866 C   0  0  0  0  0  0  0  0  0  0  0  0
    7.6327    0.2989   23.7029 C   0  0  0  0  0  0  0  0  0  0  0  0
    8.1438    1.0720   22.5785 N   0  0  0  0  0  0  0  0  0  0  0  0
    8.0256    0.6820   21.2701 C   0  0  0  0  0  0  0  0  0  0  0  0
    8.7029    1.1878   20.3878 O   0  0  0  0  0  0  0  0  0  0  0  0
    6.9836   -0.3844   20.9103 C   0  0  0  0  0  0  0  0  0  0  0  0
    6.1131    0.1006   19.7807 C   0  0  0  0  0  0  0  0  0  0  0  0
    6.4432   -0.1843   18.4783 C   0  0  0  0  0  0  0  0  0  0  0  0
    5.7891    0.2837   17.3909 N   0  0  0  0  0  0  0  0  0  0  0  0
    4.7440    1.0433   17.5931 C   0  0  0  0  0  0  0  0  0  0  0  0
    4.2798    1.4273   18.8799 C   0  0  0  0  0  0  0  0  0  0  0  0
    3.1701    2.2901   19.0520 C   0  0  0  0  0  0  0  0  0  0  0  0
    2.7695    2.6659   20.3066 C   0  0  0  0  0  0  0  0  0  0  0  0
    3.4641    2.1897   21.4410 C   0  0  0  0  0  0  0  0  0  0  0  0
    4.5428    1.3482   21.2947 C   0  0  0  0  0  0  0  0  0  0  0  0
    4.9862    0.9428   20.0098 C   0  0  0  0  0  0  0  0  0  0  0  0
    5.0651    0.9965   22.1805 H   0  0  0  0  0  0  0  0  0  0  0  0
    3.1460    2.4878   22.4355 H   0  0  0  0  0  0  0  0  0  0  0  0
    1.9226    3.3330   20.4331 H   0  0  0  0  0  0  0  0  0  0  0  0
    2.6641    2.6562   18.1619 H   0  0  0  0  0  0  0  0  0  0  0  0
    4.2085    1.3905   16.7093 H   0  0  0  0  0  0  0  0  0  0  0  0
    7.2836   -0.8381   18.2499 H   0  0  0  0  0  0  0  0  0  0  0  0
    7.5478   -1.2625   20.5801 H   0  0  0  0  0  0  0  0  0  0  0  0
    6.3822   -0.6826   21.7750 H   0  0  0  0  0  0  0  0  0  0  0  0
    6.6208    0.6264   23.9844 H   0  0  0  0  0  0  0  0  0  0  0  0
    7.6017   -0.7497   23.3884 H   0  0  0  0  0  0  0  0  0  0  0  0
    8.1745   -0.0740   25.7697 H   0  0  0  0  0  0  0  0  0  0  0  0
    9.5348   -0.0252   24.6052 H   0  0  0  0  0  0  0  0  0  0  0  0
    9.7513    1.7301   25.9184 H   0  0  0  0  0  0  0  0  0  0  0  0
    9.3619    3.7444   24.2752 H   0  0  0  0  0  0  0  0  0  0  0  0
   10.3584    2.3705   23.7784 H   0  0  0  0  0  0  0  0  0  0  0  0
    9.0524    2.7504   21.9113 H   0  0  0  0  0  0  0  0  0  0  0  0
    6.3508    2.8009   23.2270 H   0  0  0  0  0  0  0  0  0  0  0  0
    7.3742    4.2096   23.4865 H   0  0  0  0  0  0  0  0  0  0  0  0
    7.5474    4.6627   21.0995 H   0  0  0  0  0  0  0  0  0  0  0  0
    6.7953    3.1120   20.6679 H   0  0  0  0  0  0  0  0  0  0  0  0
    5.8388    4.4084   21.4034 H   0  0  0  0  0  0  0  0  0  0  0  0
  1  2  1  0
  2  3  1  0
  3  4  1  0
  4  5  1  0
  5  6  1  0
  6  7  1  0
  6  8  1  0
  6  9  1  0
  5 10  1  0
 10 11  1  0
 11 12  1  0
 12 13  1  0
 13 14  2  0
 13 15  1  0
 15 16  1  0
 16 17  2  0
 17 18  1  0
 18 19  2  0
 19 20  1  0
 20 21  2  0
 21 22  1  0
 22 23  2  0
 23 24  1  0
 24 25  2  0
 24 26  1  0
 23 27  1  0
 22 28  1  0
 21 29  1  0
 19 30  1  0
 17 31  1  0
 15 32  1  0
 15 33  1  0
 11 34  1  0
 11 35  1  0
 10 36  1  0
 10 37  1  0
  5 38  1  1
  4 39  1  0
  4 40  1  0
  3 41  1  6
  2 42  1  0
  2 43  1  0
  1 44  1  0
  1 45  1  0
  1 46  1  0
 12  3  1  0
 25 16  1  0
 25 20  1  0
M  END
>  <cnnaffinities>  (26) 
[5.75173, 5.7518, 5.84155]

>  <score>  (26) 
5.75173

>  <index>  (26) 
27

>  <Smiles>  (26) 
C(C([C@]1(C([C@@](C(F)(F)F)(C(C(N1C(=O)C(c1c(nc(c2c(c(c(c(c12)[H])[H])[H])[H])[H])[H])([H])[H])([H])[H])([H])[H])[H])([H])[H])[H])([H])[H])([H])([H])[H]

>  <h>  (26) 
<NA>

>  <Training>  (26) 
True

>  <Success>  (26) 
True

>  <enamine_searched>  (26) 
False

>  <enamine_id>  (26) 
nan

$$$$

     RDKit          3D

 70 75  0  0  0  0  0  0  0  0999 V2000
    5.4932    1.3529   28.2432 C   0  0  0  0  0  0  0  0  0  0  0  0
    5.9360    1.2339   26.8549 N   0  0  0  0  0  4  0  0  0  0  0  0
    6.3855    2.5014   26.2129 C   0  0  0  0  0  0  0  0  0  0  0  0
    6.6976    2.2269   24.7413 C   0  0  0  0  0  0  0  0  0  0  0  0
    7.7288    1.2138   24.5662 N   0  0  0  0  0  0  0  0  0  0  0  0
    7.4095   -0.1386   24.1427 C   0  0  0  0  0  0  0  0  0  0  0  0
    8.2699   -0.5442   22.8986 C   0  0  2  0  0  0  0  0  0  0  0  0
    7.8653    0.3384   21.6907 C   0  0  0  0  0  0  0  0  0  0  0  0
    8.2367    1.4605   21.4336 O   0  0  0  0  0  0  0  0  0  0  0  0
    6.9808   -0.3907   20.9184 N   0  0  0  0  0  0  0  0  0  0  0  0
    6.2227    0.1668   19.8607 C   0  0  0  0  0  0  0  0  0  0  0  0
    6.5428   -0.1635   18.5685 C   0  0  0  0  0  0  0  0  0  0  0  0
    5.8738    0.2697   17.4758 N   0  0  0  0  0  0  0  0  0  0  0  0
    4.8258    1.0273   17.6740 C   0  0  0  0  0  0  0  0  0  0  0  0
    4.3663    1.4283   18.9566 C   0  0  0  0  0  0  0  0  0  0  0  0
    3.2251    2.2575   19.0929 C   0  0  0  0  0  0  0  0  0  0  0  0
    2.7665    2.6018   20.3322 C   0  0  0  0  0  0  0  0  0  0  0  0
    3.4264    2.1245   21.4869 C   0  0  0  0  0  0  0  0  0  0  0  0
    4.5450    1.3324   21.3800 C   0  0  0  0  0  0  0  0  0  0  0  0
    5.0609    0.9761   20.1003 C   0  0  0  0  0  0  0  0  0  0  0  0
    5.0335    0.9704   22.2814 H   0  0  0  0  0  0  0  0  0  0  0  0
    3.0410    2.3927   22.4656 H   0  0  0  0  0  0  0  0  0  0  0  0
    1.8939    3.2405   20.4339 H   0  0  0  0  0  0  0  0  0  0  0  0
    2.7347    2.6041   18.1878 H   0  0  0  0  0  0  0  0  0  0  0  0
    4.2816    1.3632   16.7924 H   0  0  0  0  0  0  0  0  0  0  0  0
    7.3933   -0.8170   18.3773 H   0  0  0  0  0  0  0  0  0  0  0  0
    6.7727   -1.7560   21.3649 C   0  0  0  0  0  0  0  0  0  0  0  0
    7.9233   -1.9560   22.3580 C   0  0  2  0  0  0  0  0  0  0  0  0
    7.7097   -3.0374   23.4069 C   0  0  0  0  0  0  0  0  0  0  0  0
    6.4711   -2.8233   24.0580 O   0  0  0  0  0  0  0  0  0  0  0  0
    6.2077   -3.7948   25.0341 C   0  0  0  0  0  0  0  0  0  0  0  0
    4.9022   -3.4794   25.7185 C   0  0  0  0  0  0  0  0  0  0  0  0
    3.8934   -3.5064   24.7816 F   0  0  0  0  0  0  0  0  0  0  0  0
    4.5646   -4.2884   26.9665 C   0  0  0  0  0  0  0  0  0  0  0  0
    4.6086   -3.1173   27.7934 O   0  0  0  0  0  0  0  0  0  0  0  0
    4.8402   -2.2690   26.6600 C   0  0  0  0  0  0  0  0  0  0  0  0
    3.9928   -1.6051   26.4532 H   0  0  0  0  0  0  0  0  0  0  0  0
    5.7603   -1.6804   26.7646 H   0  0  0  0  0  0  0  0  0  0  0  0
    3.5644   -4.7350   26.9094 H   0  0  0  0  0  0  0  0  0  0  0  0
    5.2950   -5.0443   27.2802 H   0  0  0  0  0  0  0  0  0  0  0  0
    7.0177   -3.8436   25.7804 H   0  0  0  0  0  0  0  0  0  0  0  0
    6.1194   -4.7755   24.5521 H   0  0  0  0  0  0  0  0  0  0  0  0
    8.5351   -2.9843   24.1402 H   0  0  0  0  0  0  0  0  0  0  0  0
    7.7303   -4.0432   22.9521 H   0  0  0  0  0  0  0  0  0  0  0  0
    8.7786   -2.2707   21.7561 H   0  0  0  0  0  0  0  0  0  0  0  0
    6.8349   -2.4433   20.5121 H   0  0  0  0  0  0  0  0  0  0  0  0
    5.7889   -1.8828   21.8374 H   0  0  0  0  0  0  0  0  0  0  0  0
    9.7289   -0.3448   23.2761 C   0  0  0  0  0  0  0  0  0  0  0  0
   10.7720   -1.1520   22.7970 C   0  0  0  0  0  0  0  0  0  0  0  0
   12.0631   -0.9333   23.2561 C   0  0  0  0  0  0  0  0  0  0  0  0
   13.3744   -1.9087   22.6442 Cl  0  0  0  0  0  0  0  0  0  0  0  0
   12.3592    0.0529   24.1936 C   0  0  0  0  0  0  0  0  0  0  0  0
   11.3459    0.8799   24.6219 C   0  0  0  0  0  0  0  0  0  0  0  0
   10.0537    0.7037   24.1430 C   0  0  0  0  0  0  0  0  0  0  0  0
    9.0107    1.6853   24.5568 C   0  0  0  0  0  0  0  0  0  0  0  0
    9.2865    2.8332   24.8793 O   0  0  0  0  0  0  0  0  0  0  0  0
   11.5167    1.6839   25.3150 H   0  0  0  0  0  0  0  0  0  0  0  0
   13.3691    0.1481   24.5713 H   0  0  0  0  0  0  0  0  0  0  0  0
   10.6003   -1.9235   22.0531 H   0  0  0  0  0  0  0  0  0  0  0  0
    7.6143   -0.8504   24.9580 H   0  0  0  0  0  0  0  0  0  0  0  0
    6.3369   -0.1724   23.9188 H   0  0  0  0  0  0  0  0  0  0  0  0
    5.7919    1.9199   24.1952 H   0  0  0  0  0  0  0  0  0  0  0  0
    7.0873    3.1377   24.2830 H   0  0  0  0  0  0  0  0  0  0  0  0
    7.2789    2.8722   26.7231 H   0  0  0  0  0  0  0  0  0  0  0  0
    5.6144    3.2697   26.3145 H   0  0  0  0  0  0  0  0  0  0  0  0
    6.7443    0.5823   26.7886 H   0  0  0  0  0  0  0  0  0  0  0  0
    5.1444    0.8476   26.2962 H   0  0  0  0  0  0  0  0  0  0  0  0
    4.6615    2.0593   28.3148 H   0  0  0  0  0  0  0  0  0  0  0  0
    5.1625    0.3788   28.6042 H   0  0  0  0  0  0  0  0  0  0  0  0
    6.2996    1.7188   28.8833 H   0  0  0  0  0  0  0  0  0  0  0  0
  1  2  1  0
  2  3  1  0
  3  4  1  0
  4  5  1  0
  5  6  1  0
  7  6  1  1
  7  8  1  0
  8  9  2  0
  8 10  1  0
 10 11  1  0
 11 12  2  0
 12 13  1  0
 13 14  2  0
 14 15  1  0
 15 16  2  0
 16 17  1  0
 17 18  2  0
 18 19  1  0
 19 20  2  0
 19 21  1  0
 18 22  1  0
 17 23  1  0
 16 24  1  0
 14 25  1  0
 12 26  1  0
 10 27  1  0
 27 28  1  0
 28 29  1  0
 29 30  1  0
 30 31  1  0
 31 32  1  0
 32 33  1  0
 32 34  1  0
 34 35  1  0
 35 36  1  0
 36 37  1  0
 36 38  1  0
 34 39  1  0
 34 40  1  0
 31 41  1  0
 31 42  1  0
 29 43  1  0
 29 44  1  0
 28 45  1  6
 27 46  1  0
 27 47  1  0
  7 48  1  0
 48 49  2  0
 49 50  1  0
 50 51  1  0
 50 52  2  0
 52 53  1  0
 53 54  2  0
 54 55  1  0
 55 56  2  0
 53 57  1  0
 52 58  1  0
 49 59  1  0
  6 60  1  0
  6 61  1  0
  4 62  1  0
  4 63  1  0
  3 64  1  0
  3 65  1  0
  2 66  1  0
  2 67  1  0
  1 68  1  0
  1 69  1  0
  1 70  1  0
 55  5  1  0
 28  7  1  0
 36 32  1  0
 54 48  1  0
 20 11  1  0
 20 15  1  0
M  CHG  1   2   1
M  END
>  <cnnaffinities>  (27) 
[6.71367]

>  <score>  (27) 
6.71367

>  <index>  (27) 
28

>  <Smiles>  (27) 
C([N+](C(C(N1C([C@@]2(C(=O)N(c3c(nc(c4c(c(c(c(c34)[H])[H])[H])[H])[H])[H])C([C@@]2(C(OC(C2(F)C(OC2([H])[H])([H])[H])([H])[H])([H])[H])[H])([H])[H])c2c(c(Cl)c(c(c2C1=O)[H])[H])[H])([H])[H])([H])[H])([H])[H])([H])[H])([H])([H])[H]

>  <h>  (27) 
<NA>

>  <Training>  (27) 
True

>  <Success>  (27) 
True

>  <enamine_searched>  (27) 
False

>  <enamine_id>  (27) 
nan

$$$$

     RDKit          3D

 67 72  0  0  0  0  0  0  0  0999 V2000
    6.4154    4.0459   22.7555 C   0  0  0  0  0  0  0  0  0  0  0  0
    7.6176    3.3621   22.2543 N   0  0  0  0  0  4  0  0  0  0  0  0
    8.7846    3.4325   23.1714 C   0  0  0  0  0  0  0  0  0  0  0  0
    8.7815    2.4705   24.3785 C   0  0  0  0  0  0  0  0  0  0  0  0
    9.1689    1.0910   24.1189 N   0  0  0  0  0  0  0  0  0  0  0  0
    8.1606    0.0877   23.8673 C   0  0  0  0  0  0  0  0  0  0  0  0
    8.5048   -0.7765   22.6262 C   0  0  2  0  0  0  0  0  0  0  0  0
    8.0239    0.0592   21.4120 C   0  0  0  0  0  0  0  0  0  0  0  0
    8.4129    1.1715   21.0918 O   0  0  0  0  0  0  0  0  0  0  0  0
    6.9110   -0.5278   20.8755 N   0  0  0  0  0  0  0  0  0  0  0  0
    6.1873    0.1000   19.8269 C   0  0  0  0  0  0  0  0  0  0  0  0
    6.5659   -0.1504   18.5342 C   0  0  0  0  0  0  0  0  0  0  0  0
    5.8990    0.3068   17.4508 N   0  0  0  0  0  0  0  0  0  0  0  0
    4.8310    1.0306   17.6639 C   0  0  0  0  0  0  0  0  0  0  0  0
    4.3597    1.4116   18.9503 C   0  0  0  0  0  0  0  0  0  0  0  0
    3.2201    2.2442   19.1072 C   0  0  0  0  0  0  0  0  0  0  0  0
    2.7996    2.6151   20.3521 C   0  0  0  0  0  0  0  0  0  0  0  0
    3.5027    2.1689   21.4941 C   0  0  0  0  0  0  0  0  0  0  0  0
    4.6100    1.3624   21.3668 C   0  0  0  0  0  0  0  0  0  0  0  0
    5.0669    0.9497   20.0839 C   0  0  0  0  0  0  0  0  0  0  0  0
    5.1441    1.0532   22.2616 H   0  0  0  0  0  0  0  0  0  0  0  0
    3.1772    2.4889   22.4790 H   0  0  0  0  0  0  0  0  0  0  0  0
    1.9392    3.2675   20.4708 H   0  0  0  0  0  0  0  0  0  0  0  0
    2.7114    2.5855   18.2100 H   0  0  0  0  0  0  0  0  0  0  0  0
    4.2809    1.3643   16.7856 H   0  0  0  0  0  0  0  0  0  0  0  0
    7.4393   -0.7677   18.3372 H   0  0  0  0  0  0  0  0  0  0  0  0
    6.3720   -1.5955   21.6945 C   0  0  0  0  0  0  0  0  0  0  0  0
    7.5897   -2.0323   22.5145 C   0  0  2  0  0  0  0  0  0  0  0  0
    7.2295   -2.7164   23.8241 C   0  0  0  0  0  0  0  0  0  0  0  0
    8.4260   -3.1629   24.5134 N   0  0  0  0  0  0  0  0  0  0  0  0
    8.3663   -3.6475   25.7675 C   0  0  0  0  0  0  0  0  0  0  0  0
    7.1467   -3.7281   26.3326 N   0  0  0  0  0  0  0  0  0  0  0  0
    7.1567   -4.2173   27.5605 C   0  0  0  0  0  0  0  0  0  0  0  0
    8.2145   -4.6450   28.2451 N   0  0  0  0  0  0  0  0  0  0  0  0
    9.3604   -4.5177   27.5685 C   0  0  0  0  0  0  0  0  0  0  0  0
    9.5189   -4.0273   26.3500 N   0  0  0  0  0  0  0  0  0  0  0  0
   10.2661   -4.8513   28.0748 H   0  0  0  0  0  0  0  0  0  0  0  0
    6.1941   -4.2808   28.0675 H   0  0  0  0  0  0  0  0  0  0  0  0
    9.3432   -2.8791   24.2027 H   0  0  0  0  0  0  0  0  0  0  0  0
    6.6503   -2.0492   24.4718 H   0  0  0  0  0  0  0  0  0  0  0  0
    6.5724   -3.5747   23.6648 H   0  0  0  0  0  0  0  0  0  0  0  0
    8.1452   -2.7574   21.9181 H   0  0  0  0  0  0  0  0  0  0  0  0
    5.9758   -2.3882   21.0512 H   0  0  0  0  0  0  0  0  0  0  0  0
    5.5643   -1.2294   22.3494 H   0  0  0  0  0  0  0  0  0  0  0  0
    9.9891   -1.1336   22.6455 C   0  0  0  0  0  0  0  0  0  0  0  0
   10.5174   -2.0976   21.7615 C   0  0  0  0  0  0  0  0  0  0  0  0
   11.8833   -2.3152   21.6794 C   0  0  0  0  0  0  0  0  0  0  0  0
   12.5056   -3.4105   20.4735 Cl  0  0  0  0  0  0  0  0  0  0  0  0
   12.7827   -1.6530   22.5140 C   0  0  0  0  0  0  0  0  0  0  0  0
   12.2676   -0.7739   23.4478 C   0  0  0  0  0  0  0  0  0  0  0  0
   10.8986   -0.4918   23.5042 C   0  0  0  0  0  0  0  0  0  0  0  0
   10.4592    0.6698   24.3604 C   0  0  0  0  0  0  0  0  0  0  0  0
   11.2129    1.2305   25.1411 O   0  0  0  0  0  0  0  0  0  0  0  0
   12.9288   -0.2485   24.1286 H   0  0  0  0  0  0  0  0  0  0  0  0
   13.8520   -1.8123   22.4036 H   0  0  0  0  0  0  0  0  0  0  0  0
    9.8787   -2.6532   21.0844 H   0  0  0  0  0  0  0  0  0  0  0  0
    7.1989    0.5826   23.7020 H   0  0  0  0  0  0  0  0  0  0  0  0
    8.0672   -0.5377   24.7647 H   0  0  0  0  0  0  0  0  0  0  0  0
    7.8067    2.4763   24.8809 H   0  0  0  0  0  0  0  0  0  0  0  0
    9.5189    2.8321   25.0911 H   0  0  0  0  0  0  0  0  0  0  0  0
    9.6823    3.2331   22.5885 H   0  0  0  0  0  0  0  0  0  0  0  0
    8.8494    4.4606   23.5521 H   0  0  0  0  0  0  0  0  0  0  0  0
    7.8984    3.7932   21.3605 H   0  0  0  0  0  0  0  0  0  0  0  0
    7.4572    2.3798   22.0004 H   0  0  0  0  0  0  0  0  0  0  0  0
    6.6022    5.1187   22.8833 H   0  0  0  0  0  0  0  0  0  0  0  0
    5.5911    3.9232   22.0551 H   0  0  0  0  0  0  0  0  0  0  0  0
    6.0981    3.6498   23.7244 H   0  0  0  0  0  0  0  0  0  0  0  0
  1  2  1  0
  2  3  1  0
  3  4  1  0
  4  5  1  0
  5  6  1  0
  7  6  1  1
  7  8  1  0
  8  9  2  0
  8 10  1  0
 10 11  1  0
 11 12  2  0
 12 13  1  0
 13 14  2  0
 14 15  1  0
 15 16  2  0
 16 17  1  0
 17 18  2  0
 18 19  1  0
 19 20  2  0
 19 21  1  0
 18 22  1  0
 17 23  1  0
 16 24  1  0
 14 25  1  0
 12 26  1  0
 10 27  1  0
 27 28  1  0
 28 29  1  0
 29 30  1  0
 30 31  1  0
 31 32  2  0
 32 33  1  0
 33 34  2  0
 34 35  1  0
 35 36  2  0
 35 37  1  0
 33 38  1  0
 30 39  1  0
 29 40  1  0
 29 41  1  0
 28 42  1  6
 27 43  1  0
 27 44  1  0
  7 45  1  0
 45 46  2  0
 46 47  1  0
 47 48  1  0
 47 49  2  0
 49 50  1  0
 50 51  2  0
 51 52  1  0
 52 53  2  0
 50 54  1  0
 49 55  1  0
 46 56  1  0
  6 57  1  0
  6 58  1  0
  4 59  1  0
  4 60  1  0
  3 61  1  0
  3 62  1  0
  2 63  1  0
  2 64  1  0
  1 65  1  0
  1 66  1  0
  1 67  1  0
 52  5  1  0
 28  7  1  0
 36 31  1  0
 51 45  1  0
 20 11  1  0
 20 15  1  0
M  CHG  1   2   1
M  END
>  <cnnaffinities>  (28) 
[7.36038]

>  <score>  (28) 
7.36038

>  <index>  (28) 
29

>  <Smiles>  (28) 
C([N+](C(C(N1C([C@@]2(C(=O)N(c3c(nc(c4c(c(c(c(c34)[H])[H])[H])[H])[H])[H])C([C@@]2(C(N(c2nc(nc(n2)[H])[H])[H])([H])[H])[H])([H])[H])c2c(c(Cl)c(c(c2C1=O)[H])[H])[H])([H])[H])([H])[H])([H])[H])([H])[H])([H])([H])[H]

>  <h>  (28) 
<NA>

>  <Training>  (28) 
True

>  <Success>  (28) 
True

>  <enamine_searched>  (28) 
False

>  <enamine_id>  (28) 
nan

$$$$

     RDKit          3D

 66 71  0  0  0  0  0  0  0  0999 V2000
    8.1530    5.2161   22.4343 C   0  0  0  0  0  0  0  0  0  0  0  0
    8.3394    4.2680   23.5061 N   0  0  0  0  0  0  0  0  0  0  0  0
    7.3744    3.3586   23.7758 C   0  0  0  0  0  0  0  0  0  0  0  0
    6.3428    3.2399   23.1320 O   0  0  0  0  0  0  0  0  0  0  0  0
    7.7108    2.4595   24.9625 C   0  0  0  0  0  0  0  0  0  0  0  0
    8.4497    1.2947   24.4971 N   0  0  0  0  0  0  0  0  0  0  0  0
    7.7066    0.1390   24.0295 C   0  0  0  0  0  0  0  0  0  0  0  0
    8.3676   -0.5963   22.8269 C   0  0  2  0  0  0  0  0  0  0  0  0
    8.0844    0.1688   21.4976 C   0  0  0  0  0  0  0  0  0  0  0  0
    8.7028    1.0965   21.0205 O   0  0  0  0  0  0  0  0  0  0  0  0
    6.9384   -0.3749   20.9441 N   0  0  0  0  0  0  0  0  0  0  0  0
    6.2338    0.1914   19.8533 C   0  0  0  0  0  0  0  0  0  0  0  0
    6.6097   -0.0911   18.5664 C   0  0  0  0  0  0  0  0  0  0  0  0
    5.9365    0.3290   17.4672 N   0  0  0  0  0  0  0  0  0  0  0  0
    4.8468    1.0338   17.6451 C   0  0  0  0  0  0  0  0  0  0  0  0
    4.3490    1.4174   18.9228 C   0  0  0  0  0  0  0  0  0  0  0  0
    3.1902    2.2288   19.0790 C   0  0  0  0  0  0  0  0  0  0  0  0
    2.7515    2.5778   20.3263 C   0  0  0  0  0  0  0  0  0  0  0  0
    3.4504    2.1356   21.4729 C   0  0  0  0  0  0  0  0  0  0  0  0
    4.5733    1.3537   21.3474 C   0  0  0  0  0  0  0  0  0  0  0  0
    5.0546    0.9775   20.0666 C   0  0  0  0  0  0  0  0  0  0  0  0
    5.1222    1.0526   22.2344 H   0  0  0  0  0  0  0  0  0  0  0  0
    3.1069    2.4234   22.4616 H   0  0  0  0  0  0  0  0  0  0  0  0
    1.8745    3.2102   20.4468 H   0  0  0  0  0  0  0  0  0  0  0  0
    2.6692    2.5731   18.1882 H   0  0  0  0  0  0  0  0  0  0  0  0
    4.2992    1.3381   16.7512 H   0  0  0  0  0  0  0  0  0  0  0  0
    7.4977   -0.6920   18.3819 H   0  0  0  0  0  0  0  0  0  0  0  0
    6.4506   -1.5633   21.6104 C   0  0  0  0  0  0  0  0  0  0  0  0
    7.6114   -1.9220   22.5494 C   0  0  2  0  0  0  0  0  0  0  0  0
    7.1912   -2.7710   23.7642 C   0  0  0  0  0  0  0  0  0  0  0  0
    6.7597   -4.1339   23.2849 C   0  0  0  0  0  0  0  0  0  0  0  0
    5.4282   -4.4376   22.9918 C   0  0  0  0  0  0  0  0  0  0  0  0
    5.1122   -5.5786   22.2562 C   0  0  0  0  0  0  0  0  0  0  0  0
    6.1236   -6.4177   21.7921 C   0  0  0  0  0  0  0  0  0  0  0  0
    7.4444   -6.1719   22.1544 C   0  0  0  0  0  0  0  0  0  0  0  0
    7.7380   -5.0648   22.9474 C   0  0  0  0  0  0  0  0  0  0  0  0
    8.7551   -4.8734   23.2841 H   0  0  0  0  0  0  0  0  0  0  0  0
    8.2477   -6.8262   21.8189 H   0  0  0  0  0  0  0  0  0  0  0  0
    5.8808   -7.2819   21.1797 H   0  0  0  0  0  0  0  0  0  0  0  0
    4.0734   -5.8012   22.0225 H   0  0  0  0  0  0  0  0  0  0  0  0
    4.6313   -3.7815   23.3412 H   0  0  0  0  0  0  0  0  0  0  0  0
    8.0492   -2.8626   24.4435 H   0  0  0  0  0  0  0  0  0  0  0  0
    6.3808   -2.2786   24.3184 H   0  0  0  0  0  0  0  0  0  0  0  0
    8.3038   -2.5320   21.9635 H   0  0  0  0  0  0  0  0  0  0  0  0
    5.5090   -1.3776   22.1522 H   0  0  0  0  0  0  0  0  0  0  0  0
    6.2379   -2.3557   20.8813 H   0  0  0  0  0  0  0  0  0  0  0  0
    9.8490   -0.7652   23.1224 C   0  0  0  0  0  0  0  0  0  0  0  0
   10.6367   -1.7316   22.4678 C   0  0  0  0  0  0  0  0  0  0  0  0
   11.9935   -1.8208   22.7452 C   0  0  0  0  0  0  0  0  0  0  0  0
   12.9907   -2.9316   21.8322 Cl  0  0  0  0  0  0  0  0  0  0  0  0
   12.6132   -1.0024   23.6946 C   0  0  0  0  0  0  0  0  0  0  0  0
   11.8563   -0.0194   24.3040 C   0  0  0  0  0  0  0  0  0  0  0  0
   10.5009    0.1232   23.9918 C   0  0  0  0  0  0  0  0  0  0  0  0
    9.8072    1.3686   24.4439 C   0  0  0  0  0  0  0  0  0  0  0  0
   10.4191    2.3948   24.7400 O   0  0  0  0  0  0  0  0  0  0  0  0
   12.3202    0.6929   24.9823 H   0  0  0  0  0  0  0  0  0  0  0  0
   13.6753   -1.1138   23.9035 H   0  0  0  0  0  0  0  0  0  0  0  0
   10.2212   -2.3866   21.7045 H   0  0  0  0  0  0  0  0  0  0  0  0
    6.7042    0.4723   23.7399 H   0  0  0  0  0  0  0  0  0  0  0  0
    7.6033   -0.5625   24.8631 H   0  0  0  0  0  0  0  0  0  0  0  0
    6.7737    2.1741   25.4530 H   0  0  0  0  0  0  0  0  0  0  0  0
    8.3343    3.0082   25.6730 H   0  0  0  0  0  0  0  0  0  0  0  0
    9.2403    4.1276   23.9389 H   0  0  0  0  0  0  0  0  0  0  0  0
    9.1260    5.5687   22.0874 H   0  0  0  0  0  0  0  0  0  0  0  0
    7.5736    6.0740   22.7902 H   0  0  0  0  0  0  0  0  0  0  0  0
    7.6072    4.7082   21.6312 H   0  0  0  0  0  0  0  0  0  0  0  0
  1  2  1  0
  2  3  1  0
  3  4  2  0
  3  5  1  0
  5  6  1  0
  6  7  1  0
  8  7  1  1
  8  9  1  0
  9 10  2  0
  9 11  1  0
 11 12  1  0
 12 13  2  0
 13 14  1  0
 14 15  2  0
 15 16  1  0
 16 17  2  0
 17 18  1  0
 18 19  2  0
 19 20  1  0
 20 21  2  0
 20 22  1  0
 19 23  1  0
 18 24  1  0
 17 25  1  0
 15 26  1  0
 13 27  1  0
 11 28  1  0
 28 29  1  0
 29 30  1  0
 30 31  1  0
 31 32  2  0
 32 33  1  0
 33 34  2  0
 34 35  1  0
 35 36  2  0
 36 37  1  0
 35 38  1  0
 34 39  1  0
 33 40  1  0
 32 41  1  0
 30 42  1  0
 30 43  1  0
 29 44  1  6
 28 45  1  0
 28 46  1  0
  8 47  1  0
 47 48  2  0
 48 49  1  0
 49 50  1  0
 49 51  2  0
 51 52  1  0
 52 53  2  0
 53 54  1  0
 54 55  2  0
 52 56  1  0
 51 57  1  0
 48 58  1  0
  7 59  1  0
  7 60  1  0
  5 61  1  0
  5 62  1  0
  2 63  1  0
  1 64  1  0
  1 65  1  0
  1 66  1  0
 54  6  1  0
 29  8  1  0
 36 31  1  0
 53 47  1  0
 21 12  1  0
 21 16  1  0
M  END
>  <cnnaffinities>  (29) 
[7.79057, 7.69044]

>  <score>  (29) 
7.79057

>  <index>  (29) 
30

>  <Smiles>  (29) 
C(N(C(=O)C(N1C([C@@]2(C(=O)N(c3c(nc(c4c(c(c(c(c34)[H])[H])[H])[H])[H])[H])C([C@@]2(C(c2c(c(c(c(c2[H])[H])[H])[H])[H])([H])[H])[H])([H])[H])c2c(c(Cl)c(c(c2C1=O)[H])[H])[H])([H])[H])([H])[H])[H])([H])([H])[H]

>  <h>  (29) 
<NA>

>  <Training>  (29) 
True

>  <Success>  (29) 
True

>  <enamine_searched>  (29) 
False

>  <enamine_id>  (29) 
nan

$$$$

     RDKit          3D

 64 70  0  0  0  0  0  0  0  0999 V2000
   10.4711    2.4163   24.7396 O   0  0  0  0  0  0  0  0  0  0  0  0
    9.8222    1.4504   24.3645 C   0  0  0  0  0  0  0  0  0  0  0  0
   10.4980    0.1679   23.9538 C   0  0  0  0  0  0  0  0  0  0  0  0
   11.8489    0.0327   24.2908 C   0  0  0  0  0  0  0  0  0  0  0  0
   12.6362   -0.9253   23.6809 C   0  0  0  0  0  0  0  0  0  0  0  0
   12.0509   -1.7293   22.6994 C   0  0  0  0  0  0  0  0  0  0  0  0
   13.1038   -2.7799   21.7894 Cl  0  0  0  0  0  0  0  0  0  0  0  0
   10.6963   -1.6690   22.4082 C   0  0  0  0  0  0  0  0  0  0  0  0
    9.8777   -0.7161   23.0599 C   0  0  0  0  0  0  0  0  0  0  0  0
    8.3915   -0.5565   22.7824 C   0  0  1  0  0  0  0  0  0  0  0  0
    7.7332    0.2455   23.9519 C   0  0  0  0  0  0  0  0  0  0  0  0
    8.4576    1.4753   24.2494 N   0  0  0  0  0  0  0  0  0  0  0  0
    7.7722    2.7238   24.5551 C   0  0  0  0  0  0  0  0  0  0  0  0
    7.5407    3.6222   23.3751 C   0  0  0  0  0  0  0  0  0  0  0  0
    8.0390    4.7836   23.1153 N   0  0  0  0  0  0  0  0  0  0  0  0
    7.4416    5.2155   21.9364 N   0  0  0  0  0  0  0  0  0  0  0  0
    6.6278    4.2836   21.5862 C   0  0  0  0  0  0  0  0  0  0  0  0
    6.6269    3.2388   22.4540 O   0  0  0  0  0  0  0  0  0  0  0  0
    5.9538    4.2585   20.7395 H   0  0  0  0  0  0  0  0  0  0  0  0
    8.3807    3.2824   25.2680 H   0  0  0  0  0  0  0  0  0  0  0  0
    6.8030    2.5135   25.0178 H   0  0  0  0  0  0  0  0  0  0  0  0
    7.6963   -0.3868   24.8501 H   0  0  0  0  0  0  0  0  0  0  0  0
    6.7081    0.5128   23.6715 H   0  0  0  0  0  0  0  0  0  0  0  0
    8.0517    0.1986   21.4663 C   0  0  0  0  0  0  0  0  0  0  0  0
    8.5941    1.1641   20.9749 O   0  0  0  0  0  0  0  0  0  0  0  0
    6.9152   -0.3930   20.9492 N   0  0  0  0  0  0  0  0  0  0  0  0
    6.2025    0.1604   19.8616 C   0  0  0  0  0  0  0  0  0  0  0  0
    6.6168   -0.0891   18.5807 C   0  0  0  0  0  0  0  0  0  0  0  0
    5.9596    0.3475   17.4801 N   0  0  0  0  0  0  0  0  0  0  0  0
    4.8748    1.0604   17.6609 C   0  0  0  0  0  0  0  0  0  0  0  0
    4.3611    1.4312   18.9391 C   0  0  0  0  0  0  0  0  0  0  0  0
    3.2173    2.2609   19.0989 C   0  0  0  0  0  0  0  0  0  0  0  0
    2.7558    2.5774   20.3476 C   0  0  0  0  0  0  0  0  0  0  0  0
    3.4033    2.0734   21.4961 C   0  0  0  0  0  0  0  0  0  0  0  0
    4.5147    1.2734   21.3687 C   0  0  0  0  0  0  0  0  0  0  0  0
    5.0274    0.9442   20.0833 C   0  0  0  0  0  0  0  0  0  0  0  0
    5.0209    0.9155   22.2597 H   0  0  0  0  0  0  0  0  0  0  0  0
    3.0389    2.3357   22.4858 H   0  0  0  0  0  0  0  0  0  0  0  0
    1.8894    3.2236   20.4645 H   0  0  0  0  0  0  0  0  0  0  0  0
    2.7284    2.6415   18.2067 H   0  0  0  0  0  0  0  0  0  0  0  0
    4.3357    1.3805   16.7687 H   0  0  0  0  0  0  0  0  0  0  0  0
    7.5141   -0.6823   18.4080 H   0  0  0  0  0  0  0  0  0  0  0  0
    6.4607   -1.5778   21.6469 C   0  0  0  0  0  0  0  0  0  0  0  0
    7.6716   -1.9058   22.5318 C   0  0  2  0  0  0  0  0  0  0  0  0
    7.3625   -2.7590   23.7694 C   0  0  0  0  0  0  0  0  0  0  0  0
    7.1353   -4.1561   23.4513 N   0  0  0  0  0  0  0  0  0  0  0  0
    5.9422   -4.7160   23.1125 C   0  0  0  0  0  0  0  0  0  0  0  0
    4.7131   -4.2117   23.5718 C   0  0  0  0  0  0  0  0  0  0  0  0
    3.5873   -4.9077   23.1939 C   0  0  0  0  0  0  0  0  0  0  0  0
    3.6208   -6.0083   22.4310 N   0  0  0  0  0  0  0  0  0  0  0  0
    4.8370   -6.4064   22.0778 C   0  0  0  0  0  0  0  0  0  0  0  0
    5.9994   -5.8341   22.3672 N   0  0  0  0  0  0  0  0  0  0  0  0
    4.8980   -7.3086   21.4667 H   0  0  0  0  0  0  0  0  0  0  0  0
    2.6016   -4.5868   23.5333 H   0  0  0  0  0  0  0  0  0  0  0  0
    4.6620   -3.3418   24.2201 H   0  0  0  0  0  0  0  0  0  0  0  0
    7.9135   -4.6367   23.0265 H   0  0  0  0  0  0  0  0  0  0  0  0
    6.4983   -2.3520   24.3071 H   0  0  0  0  0  0  0  0  0  0  0  0
    8.2119   -2.7102   24.4623 H   0  0  0  0  0  0  0  0  0  0  0  0
    8.3714   -2.4784   21.9136 H   0  0  0  0  0  0  0  0  0  0  0  0
    6.2297   -2.3700   20.9266 H   0  0  0  0  0  0  0  0  0  0  0  0
    5.5391   -1.3772   22.2221 H   0  0  0  0  0  0  0  0  0  0  0  0
   10.3257   -2.3092   21.6105 H   0  0  0  0  0  0  0  0  0  0  0  0
   13.7046   -1.0005   23.8806 H   0  0  0  0  0  0  0  0  0  0  0  0
   12.2920    0.7761   24.9489 H   0  0  0  0  0  0  0  0  0  0  0  0
  1  2  2  0
  2  3  1  0
  3  4  2  0
  4  5  1  0
  5  6  2  0
  6  7  1  0
  6  8  1  0
  8  9  2  0
  9 10  1  0
 10 11  1  1
 11 12  1  0
 12 13  1  0
 13 14  1  0
 14 15  2  0
 15 16  1  0
 16 17  2  0
 17 18  1  0
 17 19  1  0
 13 20  1  0
 13 21  1  0
 11 22  1  0
 11 23  1  0
 10 24  1  0
 24 25  2  0
 24 26  1  0
 26 27  1  0
 27 28  2  0
 28 29  1  0
 29 30  2  0
 30 31  1  0
 31 32  2  0
 32 33  1  0
 33 34  2  0
 34 35  1  0
 35 36  2  0
 35 37  1  0
 34 38  1  0
 33 39  1  0
 32 40  1  0
 30 41  1  0
 28 42  1  0
 26 43  1  0
 43 44  1  0
 44 45  1  0
 45 46  1  0
 46 47  1  0
 47 48  2  0
 48 49  1  0
 49 50  2  0
 50 51  1  0
 51 52  2  0
 51 53  1  0
 49 54  1  0
 48 55  1  0
 46 56  1  0
 45 57  1  0
 45 58  1  0
 44 59  1  6
 43 60  1  0
 43 61  1  0
  8 62  1  0
  5 63  1  0
  4 64  1  0
 12  2  1  0
 18 14  1  0
 36 27  1  0
 52 47  1  0
  9  3  1  0
 44 10  1  0
 36 31  1  0
M  END
>  <cnnaffinities>  (30) 
[7.63351, 7.37378]

>  <score>  (30) 
7.63351

>  <index>  (30) 
31

>  <Smiles>  (30) 
O=C1c2c(c(c(Cl)c(c2[C@@]2(C(N1C(c1nnc(o1)[H])([H])[H])([H])[H])C(=O)N(c1c(nc(c3c(c(c(c(c13)[H])[H])[H])[H])[H])[H])C([C@@]2(C(N(c1c(c(nc(n1)[H])[H])[H])[H])([H])[H])[H])([H])[H])[H])[H])[H]

>  <h>  (30) 
<NA>

>  <Training>  (30) 
True

>  <Success>  (30) 
True

>  <enamine_searched>  (30) 
False

>  <enamine_id>  (30) 
nan

$$$$

     RDKit          3D

 72 77  0  0  0  0  0  0  0  0999 V2000
    7.6645   -3.0289   23.3795 C   0  0  0  0  0  0  0  0  0  0  0  0
    7.9414   -1.9902   22.3002 C   0  0  1  0  0  0  0  0  0  0  0  0
    6.8022   -1.7859   21.2929 C   0  0  0  0  0  0  0  0  0  0  0  0
    6.9825   -0.4110   20.8618 N   0  0  0  0  0  0  0  0  0  0  0  0
    6.1945    0.1489   19.8256 C   0  0  0  0  0  0  0  0  0  0  0  0
    6.4946   -0.1796   18.5284 C   0  0  0  0  0  0  0  0  0  0  0  0
    5.8247    0.2703   17.4433 N   0  0  0  0  0  0  0  0  0  0  0  0
    4.7865    1.0383   17.6520 C   0  0  0  0  0  0  0  0  0  0  0  0
    4.3377    1.4314   18.9412 C   0  0  0  0  0  0  0  0  0  0  0  0
    3.1977    2.2627   19.0944 C   0  0  0  0  0  0  0  0  0  0  0  0
    2.7618    2.6137   20.3402 C   0  0  0  0  0  0  0  0  0  0  0  0
    3.4424    2.1455   21.4849 C   0  0  0  0  0  0  0  0  0  0  0  0
    4.5534    1.3423   21.3645 C   0  0  0  0  0  0  0  0  0  0  0  0
    5.0457    0.9716   20.0796 C   0  0  0  0  0  0  0  0  0  0  0  0
    5.0469    0.9833   22.2626 H   0  0  0  0  0  0  0  0  0  0  0  0
    3.0891    2.4294   22.4723 H   0  0  0  0  0  0  0  0  0  0  0  0
    1.8813    3.2424   20.4485 H   0  0  0  0  0  0  0  0  0  0  0  0
    2.6934    2.6108   18.1967 H   0  0  0  0  0  0  0  0  0  0  0  0
    4.2369    1.3906   16.7771 H   0  0  0  0  0  0  0  0  0  0  0  0
    7.3388   -0.8379   18.3291 H   0  0  0  0  0  0  0  0  0  0  0  0
    7.8225    0.3264   21.6731 C   0  0  0  0  0  0  0  0  0  0  0  0
    8.1055    1.4933   21.4920 O   0  0  0  0  0  0  0  0  0  0  0  0
    8.2428   -0.5765   22.8617 C   0  0  1  0  0  0  0  0  0  0  0  0
    7.3248   -0.1943   24.0694 C   0  0  0  0  0  0  0  0  0  0  0  0
    7.5793    1.1745   24.4926 N   0  0  0  0  0  0  0  0  0  0  0  0
    6.5139    2.0623   24.9332 C   0  0  0  0  0  0  0  0  0  0  0  0
    6.3781    3.2693   24.0013 C   0  0  0  0  0  0  0  0  0  0  0  0
    5.1674    4.1036   24.2933 N   0  0  1  0  0  4  0  0  0  0  0  0
    5.2380    4.8549   25.6039 C   0  0  0  0  0  0  0  0  0  0  0  0
    4.0274    5.7618   25.7728 C   0  0  0  0  0  0  0  0  0  0  0  0
    3.8979    6.6775   24.7049 O   0  0  0  0  0  0  0  0  0  0  0  0
    3.7719    6.0494   23.4229 C   0  0  0  0  0  0  0  0  0  0  0  0
    2.4359    5.3106   23.3064 C   0  0  0  0  0  0  0  0  0  0  0  0
    1.6084    5.9827   23.5547 H   0  0  0  0  0  0  0  0  0  0  0  0
    2.3880    4.4364   23.9671 H   0  0  0  0  0  0  0  0  0  0  0  0
    2.2949    4.9507   22.2804 H   0  0  0  0  0  0  0  0  0  0  0  0
    3.8427    7.1957   22.4215 C   0  0  0  0  0  0  0  0  0  0  0  0
    3.0042    7.8810   22.5784 H   0  0  0  0  0  0  0  0  0  0  0  0
    3.8058    6.8248   21.3902 H   0  0  0  0  0  0  0  0  0  0  0  0
    4.7745    7.7540   22.5592 H   0  0  0  0  0  0  0  0  0  0  0  0
    4.9522    5.0948   23.1813 C   0  0  0  0  0  0  0  0  0  0  0  0
    5.8740    5.6801   23.0764 H   0  0  0  0  0  0  0  0  0  0  0  0
    4.7971    4.5425   22.2467 H   0  0  0  0  0  0  0  0  0  0  0  0
    3.1170    5.1540   25.8799 H   0  0  0  0  0  0  0  0  0  0  0  0
    4.1320    6.3647   26.6817 H   0  0  0  0  0  0  0  0  0  0  0  0
    6.1498    5.4631   25.6051 H   0  0  0  0  0  0  0  0  0  0  0  0
    5.2827    4.1476   26.4346 H   0  0  0  0  0  0  0  0  0  0  0  0
    4.3567    3.4538   24.3283 H   0  0  0  0  0  0  0  0  0  0  0  0
    7.2704    3.8972   24.0850 H   0  0  0  0  0  0  0  0  0  0  0  0
    6.3158    2.9322   22.9597 H   0  0  0  0  0  0  0  0  0  0  0  0
    6.7214    2.4060   25.9550 H   0  0  0  0  0  0  0  0  0  0  0  0
    5.5795    1.4925   24.9561 H   0  0  0  0  0  0  0  0  0  0  0  0
    8.8476    1.6443   24.6157 C   0  0  0  0  0  0  0  0  0  0  0  0
    9.0914    2.7643   25.0620 O   0  0  0  0  0  0  0  0  0  0  0  0
    9.9345    0.7123   24.1828 C   0  0  0  0  0  0  0  0  0  0  0  0
   11.2191    0.9861   24.6300 C   0  0  0  0  0  0  0  0  0  0  0  0
   12.3039    0.2325   24.2192 C   0  0  0  0  0  0  0  0  0  0  0  0
   12.0478   -0.8202   23.3375 C   0  0  0  0  0  0  0  0  0  0  0  0
   13.3705   -1.7555   22.7066 Cl  0  0  0  0  0  0  0  0  0  0  0  0
   10.7664   -1.1299   22.9097 C   0  0  0  0  0  0  0  0  0  0  0  0
    9.6721   -0.3549   23.3203 C   0  0  0  0  0  0  0  0  0  0  0  0
   10.6395   -2.0082   22.2896 H   0  0  0  0  0  0  0  0  0  0  0  0
   13.3055    0.4575   24.5702 H   0  0  0  0  0  0  0  0  0  0  0  0
   11.3132    1.7992   25.3303 H   0  0  0  0  0  0  0  0  0  0  0  0
    6.2725   -0.2602   23.7760 H   0  0  0  0  0  0  0  0  0  0  0  0
    7.4888   -0.9032   24.8992 H   0  0  0  0  0  0  0  0  0  0  0  0
    5.8150   -1.9481   21.7539 H   0  0  0  0  0  0  0  0  0  0  0  0
    6.8663   -2.4637   20.4371 H   0  0  0  0  0  0  0  0  0  0  0  0
    8.8156   -2.2924   21.7094 H   0  0  0  0  0  0  0  0  0  0  0  0
    8.4720   -3.0170   24.1212 H   0  0  0  0  0  0  0  0  0  0  0  0
    7.5805   -4.0405   22.9720 H   0  0  0  0  0  0  0  0  0  0  0  0
    6.7280   -2.7902   23.9009 H   0  0  0  0  0  0  0  0  0  0  0  0
  1  2  1  0
  2  3  1  0
  3  4  1  0
  4  5  1  0
  5  6  2  0
  6  7  1  0
  7  8  2  0
  8  9  1  0
  9 10  2  0
 10 11  1  0
 11 12  2  0
 12 13  1  0
 13 14  2  0
 13 15  1  0
 12 16  1  0
 11 17  1  0
 10 18  1  0
  8 19  1  0
  6 20  1  0
  4 21  1  0
 21 22  2  0
 21 23  1  0
 23 24  1  1
 24 25  1  0
 25 26  1  0
 26 27  1  0
 27 28  1  0
 28 29  1  0
 29 30  1  0
 30 31  1  0
 31 32  1  0
 32 33  1  0
 33 34  1  0
 33 35  1  0
 33 36  1  0
 32 37  1  0
 37 38  1  0
 37 39  1  0
 37 40  1  0
 32 41  1  0
 41 42  1  0
 41 43  1  0
 30 44  1  0
 30 45  1  0
 29 46  1  0
 29 47  1  0
 28 48  1  1
 27 49  1  0
 27 50  1  0
 26 51  1  0
 26 52  1  0
 25 53  1  0
 53 54  2  0
 53 55  1  0
 55 56  2  0
 56 57  1  0
 57 58  2  0
 58 59  1  0
 58 60  1  0
 60 61  2  0
 60 62  1  0
 57 63  1  0
 56 64  1  0
 24 65  1  0
 24 66  1  0
  3 67  1  0
  3 68  1  0
  2 69  1  6
  1 70  1  0
  1 71  1  0
  1 72  1  0
 23  2  1  0
 41 28  1  0
 61 55  1  0
 14  5  1  0
 61 23  1  0
 14  9  1  0
M  CHG  1  28   1
M  END
>  <cnnaffinities>  (31) 
[6.84793, 6.82384]

>  <score>  (31) 
6.84793

>  <index>  (31) 
32

>  <Smiles>  (31) 
C([C@]1(C(N(c2c(nc(c3c(c(c(c(c23)[H])[H])[H])[H])[H])[H])C(=O)[C@]21C(N(C(C([N@+]1(C(C(OC(C([H])([H])[H])(C([H])([H])[H])C1([H])[H])([H])[H])([H])[H])[H])([H])[H])([H])[H])C(=O)c1c(c(c(Cl)c(c21)[H])[H])[H])([H])[H])([H])[H])[H])([H])([H])[H]

>  <h>  (31) 
<NA>

>  <Training>  (31) 
True

>  <Success>  (31) 
True

>  <enamine_searched>  (31) 
False

>  <enamine_id>  (31) 
nan

$$$$

     RDKit          3D

 44 47  0  0  0  0  0  0  0  0999 V2000
    8.5161    1.3907   20.7346 O   0  0  0  0  0  0  0  0  0  0  0  0
    7.8687    0.6920   21.5018 C   0  0  0  0  0  0  0  0  0  0  0  0
    6.9535   -0.4151   20.9262 C   0  0  0  0  0  0  0  0  0  0  0  0
    6.1106    0.0888   19.7750 C   0  0  0  0  0  0  0  0  0  0  0  0
    6.4300   -0.2001   18.4738 C   0  0  0  0  0  0  0  0  0  0  0  0
    5.7704    0.2700   17.3804 N   0  0  0  0  0  0  0  0  0  0  0  0
    4.7299    1.0339   17.5842 C   0  0  0  0  0  0  0  0  0  0  0  0
    4.2809    1.4247   18.8726 C   0  0  0  0  0  0  0  0  0  0  0  0
    3.1694    2.2864   19.0482 C   0  0  0  0  0  0  0  0  0  0  0  0
    2.7635    2.6539   20.3002 C   0  0  0  0  0  0  0  0  0  0  0  0
    3.4649    2.1694   21.4302 C   0  0  0  0  0  0  0  0  0  0  0  0
    4.5443    1.3347   21.2910 C   0  0  0  0  0  0  0  0  0  0  0  0
    4.9885    0.9400   20.0029 C   0  0  0  0  0  0  0  0  0  0  0  0
    5.0709    0.9832   22.1771 H   0  0  0  0  0  0  0  0  0  0  0  0
    3.1339    2.4712   22.4189 H   0  0  0  0  0  0  0  0  0  0  0  0
    1.9122    3.3162   20.4324 H   0  0  0  0  0  0  0  0  0  0  0  0
    2.6523    2.6546   18.1632 H   0  0  0  0  0  0  0  0  0  0  0  0
    4.1982    1.3966   16.6998 H   0  0  0  0  0  0  0  0  0  0  0  0
    7.2728   -0.8530   18.2441 H   0  0  0  0  0  0  0  0  0  0  0  0
    7.6150   -1.1987   20.5367 H   0  0  0  0  0  0  0  0  0  0  0  0
    6.3229   -0.8905   21.6862 H   0  0  0  0  0  0  0  0  0  0  0  0
    7.9402    0.8595   22.8614 N   0  0  0  0  0  0  0  0  0  0  0  0
    7.4852   -0.0757   23.8821 C   0  0  0  0  0  0  0  0  0  0  0  0
    7.8296    0.5793   25.2255 C   0  0  0  0  0  0  0  0  0  0  0  0
    8.7614    1.7535   24.9076 C   0  0  0  0  0  0  0  0  0  0  0  0
    8.5830    2.0520   23.4130 C   0  0  2  0  0  0  0  0  0  0  0  0
    7.7945    3.3172   23.1439 C   0  0  0  0  0  0  0  0  0  0  0  0
    8.3949    4.4125   22.5256 C   0  0  0  0  0  0  0  0  0  0  0  0
    7.6645    5.5685   22.2704 C   0  0  0  0  0  0  0  0  0  0  0  0
    6.3282    5.6583   22.6336 C   0  0  0  0  0  0  0  0  0  0  0  0
    5.7650    4.5624   23.2651 C   0  0  0  0  0  0  0  0  0  0  0  0
    4.4671    4.6184   23.6165 F   0  0  0  0  0  0  0  0  0  0  0  0
    6.4641    3.3999   23.5353 C   0  0  0  0  0  0  0  0  0  0  0  0
    5.9551    2.5757   24.0303 H   0  0  0  0  0  0  0  0  0  0  0  0
    5.7345    6.5448   22.4320 H   0  0  0  0  0  0  0  0  0  0  0  0
    8.1382    6.4020   21.7673 H   0  0  0  0  0  0  0  0  0  0  0  0
    9.4390    4.3573   22.2284 H   0  0  0  0  0  0  0  0  0  0  0  0
    9.5528    2.1843   22.9471 H   0  0  0  0  0  0  0  0  0  0  0  0
    8.5336    2.6291   25.5193 H   0  0  0  0  0  0  0  0  0  0  0  0
    9.8009    1.5008   25.1343 H   0  0  0  0  0  0  0  0  0  0  0  0
    8.3006   -0.1293   25.9065 H   0  0  0  0  0  0  0  0  0  0  0  0
    6.9276    0.9275   25.7329 H   0  0  0  0  0  0  0  0  0  0  0  0
    7.9984   -1.0330   23.7590 H   0  0  0  0  0  0  0  0  0  0  0  0
    6.4091   -0.2690   23.8104 H   0  0  0  0  0  0  0  0  0  0  0  0
  1  2  2  0
  2  3  1  0
  3  4  1  0
  4  5  2  0
  5  6  1  0
  6  7  2  0
  7  8  1  0
  8  9  2  0
  9 10  1  0
 10 11  2  0
 11 12  1  0
 12 13  2  0
 12 14  1  0
 11 15  1  0
 10 16  1  0
  9 17  1  0
  7 18  1  0
  5 19  1  0
  3 20  1  0
  3 21  1  0
  2 22  1  0
 22 23  1  0
 23 24  1  0
 24 25  1  0
 25 26  1  0
 26 27  1  0
 27 28  2  0
 28 29  1  0
 29 30  2  0
 30 31  1  0
 31 32  1  0
 31 33  2  0
 33 34  1  0
 30 35  1  0
 29 36  1  0
 28 37  1  0
 26 38  1  6
 25 39  1  0
 25 40  1  0
 24 41  1  0
 24 42  1  0
 23 43  1  0
 23 44  1  0
 13  4  1  0
 26 22  1  0
 33 27  1  0
 13  8  1  0
M  END
>  <cnnaffinities>  (32) 
[5.67392]

>  <score>  (32) 
5.67392

>  <index>  (32) 
33

>  <Smiles>  (32) 
O=C(C(c1c(nc(c2c(c(c(c(c12)[H])[H])[H])[H])[H])[H])([H])[H])N1C(C(C([C@@]1(c1c(c(c(c(F)c1[H])[H])[H])[H])[H])([H])[H])([H])[H])([H])[H]

>  <h>  (32) 
<NA>

>  <Training>  (32) 
True

>  <Success>  (32) 
True

>  <enamine_searched>  (32) 
False

>  <enamine_id>  (32) 
nan

$$$$

     RDKit          3D

 51 54  0  0  0  0  0  0  0  0999 V2000
   13.8782    0.0436   22.3104 N   0  0  0  0  0  0  0  0  0  0  0  0
   13.2716   -0.7086   22.9466 C   0  0  0  0  0  0  0  0  0  0  0  0
   12.5145   -1.6795   23.7554 C   0  0  0  0  0  0  0  0  0  0  0  0
   11.0915   -1.8737   23.2738 C   0  0  0  0  0  0  0  0  0  0  0  0
   10.0006   -1.2639   23.8895 C   0  0  0  0  0  0  0  0  0  0  0  0
    8.7046   -1.4887   23.4316 C   0  0  0  0  0  0  0  0  0  0  0  0
    8.4778   -2.3244   22.3399 C   0  0  0  0  0  0  0  0  0  0  0  0
    7.1451   -2.6735   21.9437 N   0  0  0  0  0  0  0  0  0  0  0  0
    6.6124   -3.9839   22.2918 C   0  0  0  0  0  0  0  0  0  0  0  0
    6.0998   -4.0613   23.7120 C   0  0  0  0  0  0  0  0  0  0  0  0
    4.7362   -3.9631   23.9754 C   0  0  0  0  0  0  0  0  0  0  0  0
    4.2702   -3.9451   25.2841 C   0  0  0  0  0  0  0  0  0  0  0  0
    5.1520   -4.1206   26.3421 C   0  0  0  0  0  0  0  0  0  0  0  0
    6.5043   -4.2738   26.0703 C   0  0  0  0  0  0  0  0  0  0  0  0
    7.6033   -4.6248   27.3729 Cl  0  0  0  0  0  0  0  0  0  0  0  0
    6.9904   -4.2090   24.7710 C   0  0  0  0  0  0  0  0  0  0  0  0
    8.0558   -4.3266   24.5911 H   0  0  0  0  0  0  0  0  0  0  0  0
    4.8016   -4.1567   27.3678 H   0  0  0  0  0  0  0  0  0  0  0  0
    3.2085   -3.8329   25.4823 H   0  0  0  0  0  0  0  0  0  0  0  0
    4.0361   -3.9277   23.1464 H   0  0  0  0  0  0  0  0  0  0  0  0
    5.7964   -4.1687   21.5929 H   0  0  0  0  0  0  0  0  0  0  0  0
    7.3999   -4.7220   22.1198 H   0  0  0  0  0  0  0  0  0  0  0  0
    6.2515   -1.7783   21.3985 C   0  0  0  0  0  0  0  0  0  0  0  0
    5.0576   -2.0202   21.2935 O   0  0  0  0  0  0  0  0  0  0  0  0
    6.8856   -0.4997   20.8801 C   0  0  0  0  0  0  0  0  0  0  0  0
    6.1123    0.1111   19.7619 C   0  0  0  0  0  0  0  0  0  0  0  0
    6.4499   -0.1713   18.4662 C   0  0  0  0  0  0  0  0  0  0  0  0
    5.7989    0.3005   17.3751 N   0  0  0  0  0  0  0  0  0  0  0  0
    4.7489    1.0521   17.5896 C   0  0  0  0  0  0  0  0  0  0  0  0
    4.2837    1.4171   18.8776 C   0  0  0  0  0  0  0  0  0  0  0  0
    3.1666    2.2670   19.0538 C   0  0  0  0  0  0  0  0  0  0  0  0
    2.7499    2.6147   20.3085 C   0  0  0  0  0  0  0  0  0  0  0  0
    3.4296    2.1197   21.4446 C   0  0  0  0  0  0  0  0  0  0  0  0
    4.5114    1.2885   21.3015 C   0  0  0  0  0  0  0  0  0  0  0  0
    4.9772    0.9296   20.0079 C   0  0  0  0  0  0  0  0  0  0  0  0
    5.0143    0.8990   22.1826 H   0  0  0  0  0  0  0  0  0  0  0  0
    3.0987    2.4162   22.4372 H   0  0  0  0  0  0  0  0  0  0  0  0
    1.8995    3.2788   20.4391 H   0  0  0  0  0  0  0  0  0  0  0  0
    2.6654    2.6427   18.1653 H   0  0  0  0  0  0  0  0  0  0  0  0
    4.2054    1.4174   16.7164 H   0  0  0  0  0  0  0  0  0  0  0  0
    7.2955   -0.8262   18.2471 H   0  0  0  0  0  0  0  0  0  0  0  0
    7.0202    0.1834   21.7302 H   0  0  0  0  0  0  0  0  0  0  0  0
    7.8875   -0.7796   20.5410 H   0  0  0  0  0  0  0  0  0  0  0  0
    9.5784   -2.8570   21.6770 C   0  0  0  0  0  0  0  0  0  0  0  0
   10.8605   -2.6650   22.1563 C   0  0  0  0  0  0  0  0  0  0  0  0
   11.6831   -3.1598   21.6557 H   0  0  0  0  0  0  0  0  0  0  0  0
    9.4476   -3.4510   20.7872 H   0  0  0  0  0  0  0  0  0  0  0  0
    7.8608   -1.0470   23.9578 H   0  0  0  0  0  0  0  0  0  0  0  0
   10.1413   -0.6272   24.7620 H   0  0  0  0  0  0  0  0  0  0  0  0
   13.0543   -2.6314   23.7063 H   0  0  0  0  0  0  0  0  0  0  0  0
   12.5572   -1.3438   24.7951 H   0  0  0  0  0  0  0  0  0  0  0  0
  1  2  3  0
  2  3  1  0
  3  4  1  0
  4  5  2  0
  5  6  1  0
  6  7  2  0
  7  8  1  0
  8  9  1  0
  9 10  1  0
 10 11  2  0
 11 12  1  0
 12 13  2  0
 13 14  1  0
 14 15  1  0
 14 16  2  0
 16 17  1  0
 13 18  1  0
 12 19  1  0
 11 20  1  0
  9 21  1  0
  9 22  1  0
  8 23  1  0
 23 24  2  0
 23 25  1  0
 25 26  1  0
 26 27  2  0
 27 28  1  0
 28 29  2  0
 29 30  1  0
 30 31  2  0
 31 32  1  0
 32 33  2  0
 33 34  1  0
 34 35  2  0
 34 36  1  0
 33 37  1  0
 32 38  1  0
 31 39  1  0
 29 40  1  0
 27 41  1  0
 25 42  1  0
 25 43  1  0
  7 44  1  0
 44 45  2  0
 45 46  1  0
 44 47  1  0
  6 48  1  0
  5 49  1  0
  3 50  1  0
  3 51  1  0
 45  4  1  0
 16 10  1  0
 35 26  1  0
 35 30  1  0
M  END
>  <cnnaffinities>  (33) 
[6.93792]

>  <score>  (33) 
6.93792

>  <index>  (33) 
35

>  <Smiles>  (33) 
N#CC(c1c(c(c(N(C(c2c(c(c(c(Cl)c2[H])[H])[H])[H])([H])[H])C(=O)C(c2c(nc(c3c(c(c(c(c23)[H])[H])[H])[H])[H])[H])([H])[H])c(c1[H])[H])[H])[H])([H])[H]

>  <h>  (33) 
<NA>

>  <Training>  (33) 
True

>  <Success>  (33) 
True

>  <enamine_searched>  (33) 
False

>  <enamine_id>  (33) 
nan

$$$$

     RDKit          3D

 59 64  0  0  0  0  0  0  0  0999 V2000
    7.6174   -2.9238   23.5299 C   0  0  0  0  0  0  0  0  0  0  0  0
    7.8831   -1.9319   22.4010 C   0  0  1  0  0  0  0  0  0  0  0  0
    6.7177   -1.7056   21.4247 C   0  0  0  0  0  0  0  0  0  0  0  0
    6.9860   -0.3765   20.9116 N   0  0  0  0  0  0  0  0  0  0  0  0
    6.2378    0.1768   19.8477 C   0  0  0  0  0  0  0  0  0  0  0  0
    6.5787   -0.1399   18.5601 C   0  0  0  0  0  0  0  0  0  0  0  0
    5.9088    0.2929   17.4667 N   0  0  0  0  0  0  0  0  0  0  0  0
    4.8500    1.0395   17.6557 C   0  0  0  0  0  0  0  0  0  0  0  0
    4.3803    1.4376   18.9382 C   0  0  0  0  0  0  0  0  0  0  0  0
    3.2311    2.2547   19.0930 C   0  0  0  0  0  0  0  0  0  0  0  0
    2.7803    2.5909   20.3392 C   0  0  0  0  0  0  0  0  0  0  0  0
    3.4570    2.1235   21.4887 C   0  0  0  0  0  0  0  0  0  0  0  0
    4.5796    1.3427   21.3643 C   0  0  0  0  0  0  0  0  0  0  0  0
    5.0799    0.9889   20.0801 C   0  0  0  0  0  0  0  0  0  0  0  0
    5.0818    0.9762   22.2548 H   0  0  0  0  0  0  0  0  0  0  0  0
    3.0848    2.3850   22.4751 H   0  0  0  0  0  0  0  0  0  0  0  0
    1.9011    3.2195   20.4540 H   0  0  0  0  0  0  0  0  0  0  0  0
    2.7278    2.6053   18.1965 H   0  0  0  0  0  0  0  0  0  0  0  0
    4.2941    1.3626   16.7733 H   0  0  0  0  0  0  0  0  0  0  0  0
    7.4421   -0.7774   18.3698 H   0  0  0  0  0  0  0  0  0  0  0  0
    7.9712    0.3194   21.5881 C   0  0  0  0  0  0  0  0  0  0  0  0
    8.4084    1.3960   21.2507 O   0  0  0  0  0  0  0  0  0  0  0  0
    8.3239   -0.5166   22.8514 C   0  0  1  0  0  0  0  0  0  0  0  0
    7.4617    0.0231   24.0240 C   0  0  0  0  0  0  0  0  0  0  0  0
    7.8112    1.3972   24.3373 N   0  0  0  0  0  0  0  0  0  0  0  0
    6.8069    2.3543   24.7971 C   0  0  0  0  0  0  0  0  0  0  0  0
    6.3957    2.2012   26.2416 C   0  0  0  0  0  0  0  0  0  0  0  0
    5.5154    1.2743   26.8511 C   0  0  0  0  0  0  0  0  0  0  0  0
    5.5302    1.6137   28.1856 C   0  0  0  0  0  0  0  0  0  0  0  0
    6.3615    2.6721   28.3176 N   0  0  0  0  0  0  0  0  0  0  0  0
    6.7196    3.3890   29.5281 C   0  0  0  0  0  0  0  0  0  0  0  0
    7.6023    2.9511   30.0063 H   0  0  0  0  0  0  0  0  0  0  0  0
    5.8838    3.3564   30.2325 H   0  0  0  0  0  0  0  0  0  0  0  0
    6.9346    4.4253   29.2550 H   0  0  0  0  0  0  0  0  0  0  0  0
    6.8990    3.0329   27.1450 N   0  0  0  0  0  0  0  0  0  0  0  0
    5.0057    1.2065   29.0411 H   0  0  0  0  0  0  0  0  0  0  0  0
    4.9462    0.4770   26.3847 H   0  0  0  0  0  0  0  0  0  0  0  0
    7.2757    3.3379   24.6899 H   0  0  0  0  0  0  0  0  0  0  0  0
    5.9262    2.3130   24.1350 H   0  0  0  0  0  0  0  0  0  0  0  0
    9.1355    1.7466   24.4434 C   0  0  0  0  0  0  0  0  0  0  0  0
    9.4898    2.8759   24.7457 O   0  0  0  0  0  0  0  0  0  0  0  0
   10.1245    0.6477   24.1551 C   0  0  0  0  0  0  0  0  0  0  0  0
   11.4126    0.7526   24.6763 C   0  0  0  0  0  0  0  0  0  0  0  0
   12.4101   -0.1404   24.3376 C   0  0  0  0  0  0  0  0  0  0  0  0
   12.0601   -1.1536   23.4561 C   0  0  0  0  0  0  0  0  0  0  0  0
   13.0325   -1.9964   23.0654 F   0  0  0  0  0  0  0  0  0  0  0  0
   10.7822   -1.3268   22.9629 C   0  0  0  0  0  0  0  0  0  0  0  0
    9.7649   -0.4247   23.3230 C   0  0  0  0  0  0  0  0  0  0  0  0
   10.6350   -2.1692   22.2964 H   0  0  0  0  0  0  0  0  0  0  0  0
   13.4294   -0.0493   24.6992 H   0  0  0  0  0  0  0  0  0  0  0  0
   11.6192    1.5638   25.3515 H   0  0  0  0  0  0  0  0  0  0  0  0
    7.6415   -0.6036   24.9063 H   0  0  0  0  0  0  0  0  0  0  0  0
    6.4026   -0.0584   23.7615 H   0  0  0  0  0  0  0  0  0  0  0  0
    6.7179   -2.4264   20.6000 H   0  0  0  0  0  0  0  0  0  0  0  0
    5.7337   -1.7636   21.9179 H   0  0  0  0  0  0  0  0  0  0  0  0
    8.7065   -2.3175   21.7894 H   0  0  0  0  0  0  0  0  0  0  0  0
    8.4725   -2.9508   24.2189 H   0  0  0  0  0  0  0  0  0  0  0  0
    6.7281   -2.6490   24.1114 H   0  0  0  0  0  0  0  0  0  0  0  0
    7.4603   -3.9325   23.1332 H   0  0  0  0  0  0  0  0  0  0  0  0
  1  2  1  0
  2  3  1  0
  3  4  1  0
  4  5  1  0
  5  6  2  0
  6  7  1  0
  7  8  2  0
  8  9  1  0
  9 10  2  0
 10 11  1  0
 11 12  2  0
 12 13  1  0
 13 14  2  0
 13 15  1  0
 12 16  1  0
 11 17  1  0
 10 18  1  0
  8 19  1  0
  6 20  1  0
  4 21  1  0
 21 22  2  0
 21 23  1  0
 23 24  1  1
 24 25  1  0
 25 26  1  0
 26 27  1  0
 27 28  1  0
 28 29  2  0
 29 30  1  0
 30 31  1  0
 31 32  1  0
 31 33  1  0
 31 34  1  0
 30 35  1  0
 29 36  1  0
 28 37  1  0
 26 38  1  0
 26 39  1  0
 25 40  1  0
 40 41  2  0
 40 42  1  0
 42 43  2  0
 43 44  1  0
 44 45  2  0
 45 46  1  0
 45 47  1  0
 47 48  2  0
 47 49  1  0
 44 50  1  0
 43 51  1  0
 24 52  1  0
 24 53  1  0
  3 54  1  0
  3 55  1  0
  2 56  1  6
  1 57  1  0
  1 58  1  0
  1 59  1  0
 23  2  1  0
 35 27  2  0
 48 42  1  0
 14  5  1  0
 48 23  1  0
 14  9  1  0
M  END
>  <cnnaffinities>  (34) 
[6.95712]

>  <score>  (34) 
6.95712

>  <index>  (34) 
36

>  <Smiles>  (34) 
C([C@]1(C(N(c2c(nc(c3c(c(c(c(c23)[H])[H])[H])[H])[H])[H])C(=O)[C@]21C(N(C(c1c(c(n(C([H])([H])[H])n1)[H])[H])([H])[H])C(=O)c1c(c(c(F)c(c21)[H])[H])[H])([H])[H])([H])[H])[H])([H])([H])[H]

>  <h>  (34) 
<NA>

>  <Training>  (34) 
True

>  <Success>  (34) 
True

>  <enamine_searched>  (34) 
False

>  <enamine_id>  (34) 
nan

$$$$

     RDKit          3D

 48 51  0  0  0  0  0  0  0  0999 V2000
   13.4112   -1.3689   24.3237 N   0  0  0  0  0  0  0  0  0  0  0  0
   12.3290   -1.5908   23.9779 C   0  0  0  0  0  0  0  0  0  0  0  0
   11.0006   -1.8253   23.4830 C   0  0  0  0  0  0  0  0  0  0  0  0
    9.9078   -1.1433   24.0255 C   0  0  0  0  0  0  0  0  0  0  0  0
    8.6354   -1.3982   23.5328 C   0  0  0  0  0  0  0  0  0  0  0  0
    8.4435   -2.3019   22.4874 C   0  0  0  0  0  0  0  0  0  0  0  0
    7.1298   -2.6700   22.0618 N   0  0  0  0  0  0  0  0  0  0  0  0
    6.5850   -3.9806   22.4395 C   0  0  0  0  0  0  0  0  0  0  0  0
    6.0311   -4.0090   23.8549 C   0  0  0  0  0  0  0  0  0  0  0  0
    6.8699   -4.1706   24.9582 C   0  0  0  0  0  0  0  0  0  0  0  0
    6.3467   -4.1364   26.2499 C   0  0  0  0  0  0  0  0  0  0  0  0
    4.9885   -3.8973   26.4501 C   0  0  0  0  0  0  0  0  0  0  0  0
    4.1553   -3.7511   25.3446 C   0  0  0  0  0  0  0  0  0  0  0  0
    2.4639   -3.4099   25.6188 Cl  0  0  0  0  0  0  0  0  0  0  0  0
    4.6580   -3.8505   24.0499 C   0  0  0  0  0  0  0  0  0  0  0  0
    4.0091   -3.8325   23.1765 H   0  0  0  0  0  0  0  0  0  0  0  0
    4.5687   -3.8398   27.4529 H   0  0  0  0  0  0  0  0  0  0  0  0
    7.0015   -4.3023   27.1057 H   0  0  0  0  0  0  0  0  0  0  0  0
    7.9302   -4.3739   24.8012 H   0  0  0  0  0  0  0  0  0  0  0  0
    7.3760   -4.7338   22.3176 H   0  0  0  0  0  0  0  0  0  0  0  0
    5.7771   -4.1886   21.7325 H   0  0  0  0  0  0  0  0  0  0  0  0
    6.2679   -1.7804   21.4592 C   0  0  0  0  0  0  0  0  0  0  0  0
    5.0760   -2.0107   21.3563 O   0  0  0  0  0  0  0  0  0  0  0  0
    6.9149   -0.5149   20.8885 C   0  0  0  0  0  0  0  0  0  0  0  0
    6.1149    0.0896   19.7692 C   0  0  0  0  0  0  0  0  0  0  0  0
    6.4383   -0.1933   18.4690 C   0  0  0  0  0  0  0  0  0  0  0  0
    5.7844    0.2820   17.3797 N   0  0  0  0  0  0  0  0  0  0  0  0
    4.7420    1.0431   17.5923 C   0  0  0  0  0  0  0  0  0  0  0  0
    4.2826    1.4171   18.8804 C   0  0  0  0  0  0  0  0  0  0  0  0
    3.1623    2.2679   19.0512 C   0  0  0  0  0  0  0  0  0  0  0  0
    2.7460    2.6192   20.3054 C   0  0  0  0  0  0  0  0  0  0  0  0
    3.4322    2.1273   21.4401 C   0  0  0  0  0  0  0  0  0  0  0  0
    4.5175    1.2968   21.2981 C   0  0  0  0  0  0  0  0  0  0  0  0
    4.9801    0.9237   20.0079 C   0  0  0  0  0  0  0  0  0  0  0  0
    5.0274    0.9112   22.1763 H   0  0  0  0  0  0  0  0  0  0  0  0
    3.0962    2.4164   22.4322 H   0  0  0  0  0  0  0  0  0  0  0  0
    1.8917    3.2791   20.4327 H   0  0  0  0  0  0  0  0  0  0  0  0
    2.6636    2.6402   18.1586 H   0  0  0  0  0  0  0  0  0  0  0  0
    4.2031    1.3999   16.7143 H   0  0  0  0  0  0  0  0  0  0  0  0
    7.2789   -0.8506   18.2403 H   0  0  0  0  0  0  0  0  0  0  0  0
    7.9205   -0.7945   20.5498 H   0  0  0  0  0  0  0  0  0  0  0  0
    7.0730    0.1985   21.7107 H   0  0  0  0  0  0  0  0  0  0  0  0
    9.5495   -2.9022   21.8882 C   0  0  0  0  0  0  0  0  0  0  0  0
   10.8234   -2.6991   22.4055 C   0  0  0  0  0  0  0  0  0  0  0  0
   11.6672   -3.2749   22.0289 H   0  0  0  0  0  0  0  0  0  0  0  0
    9.3983   -3.5095   20.9997 H   0  0  0  0  0  0  0  0  0  0  0  0
    7.7829   -0.8904   23.9715 H   0  0  0  0  0  0  0  0  0  0  0  0
   10.0680   -0.3738   24.7767 H   0  0  0  0  0  0  0  0  0  0  0  0
  1  2  3  0
  2  3  1  0
  3  4  2  0
  4  5  1  0
  5  6  2  0
  6  7  1  0
  7  8  1  0
  8  9  1  0
  9 10  2  0
 10 11  1  0
 11 12  2  0
 12 13  1  0
 13 14  1  0
 13 15  2  0
 15 16  1  0
 12 17  1  0
 11 18  1  0
 10 19  1  0
  8 20  1  0
  8 21  1  0
  7 22  1  0
 22 23  2  0
 22 24  1  0
 24 25  1  0
 25 26  2  0
 26 27  1  0
 27 28  2  0
 28 29  1  0
 29 30  2  0
 30 31  1  0
 31 32  2  0
 32 33  1  0
 33 34  2  0
 33 35  1  0
 32 36  1  0
 31 37  1  0
 30 38  1  0
 28 39  1  0
 26 40  1  0
 24 41  1  0
 24 42  1  0
  6 43  1  0
 43 44  2  0
 44 45  1  0
 43 46  1  0
  5 47  1  0
  4 48  1  0
 44  3  1  0
 15  9  1  0
 34 25  1  0
 34 29  1  0
M  END
>  <cnnaffinities>  (35) 
[6.52199]

>  <score>  (35) 
6.52199

>  <index>  (35) 
37

>  <Smiles>  (35) 
N#Cc1c(c(c(N(C(c2c(c(c(c(Cl)c2[H])[H])[H])[H])([H])[H])C(=O)C(c2c(nc(c3c(c(c(c(c23)[H])[H])[H])[H])[H])[H])([H])[H])c(c1[H])[H])[H])[H]

>  <h>  (35) 
<NA>

>  <Training>  (35) 
True

>  <Success>  (35) 
True

>  <enamine_searched>  (35) 
False

>  <enamine_id>  (35) 
nan

$$$$

     RDKit          3D

 72 77  0  0  0  0  0  0  0  0999 V2000
    5.4241    5.0915   25.3311 C   0  0  0  0  0  0  0  0  0  0  0  0
    5.2416    4.2506   24.1309 N   0  0  0  0  0  4  0  0  0  0  0  0
    6.4193    3.3861   23.8224 C   0  0  0  0  0  0  0  0  0  0  0  0
    6.6665    2.3100   24.8892 C   0  0  0  0  0  0  0  0  0  0  0  0
    7.6623    1.3509   24.4455 N   0  0  0  0  0  0  0  0  0  0  0  0
    7.2721    0.0100   24.0674 C   0  0  0  0  0  0  0  0  0  0  0  0
    8.1506   -0.5642   22.9142 C   0  0  2  0  0  0  0  0  0  0  0  0
    7.8475    0.2304   21.6201 C   0  0  0  0  0  0  0  0  0  0  0  0
    8.2705    1.3208   21.3023 O   0  0  0  0  0  0  0  0  0  0  0  0
    6.9487   -0.4997   20.8691 N   0  0  0  0  0  0  0  0  0  0  0  0
    6.2079    0.1062   19.8158 C   0  0  0  0  0  0  0  0  0  0  0  0
    6.5685   -0.1315   18.5150 C   0  0  0  0  0  0  0  0  0  0  0  0
    5.9155    0.3602   17.4333 N   0  0  0  0  0  0  0  0  0  0  0  0
    4.8592    1.1033   17.6447 C   0  0  0  0  0  0  0  0  0  0  0  0
    4.3840    1.4551   18.9379 C   0  0  0  0  0  0  0  0  0  0  0  0
    3.2512    2.2955   19.1068 C   0  0  0  0  0  0  0  0  0  0  0  0
    2.8138    2.6298   20.3582 C   0  0  0  0  0  0  0  0  0  0  0  0
    3.4917    2.1358   21.4940 C   0  0  0  0  0  0  0  0  0  0  0  0
    4.5878    1.3178   21.3541 C   0  0  0  0  0  0  0  0  0  0  0  0
    5.0741    0.9527   20.0667 C   0  0  0  0  0  0  0  0  0  0  0  0
    5.0907    0.9518   22.2422 H   0  0  0  0  0  0  0  0  0  0  0  0
    3.1353    2.3973   22.4861 H   0  0  0  0  0  0  0  0  0  0  0  0
    1.9485    3.2749   20.4816 H   0  0  0  0  0  0  0  0  0  0  0  0
    2.7485    2.6686   18.2183 H   0  0  0  0  0  0  0  0  0  0  0  0
    4.3222    1.4748   16.7703 H   0  0  0  0  0  0  0  0  0  0  0  0
    7.4389   -0.7490   18.3004 H   0  0  0  0  0  0  0  0  0  0  0  0
    6.6220   -1.8040   21.4262 C   0  0  0  0  0  0  0  0  0  0  0  0
    7.6794   -2.0012   22.5337 C   0  0  2  0  0  0  0  0  0  0  0  0
    7.1751   -2.8266   23.7315 C   0  0  0  0  0  0  0  0  0  0  0  0
    6.8861   -4.1830   23.4496 O   0  0  0  0  0  0  0  0  0  0  0  0
    7.9926   -4.9600   23.2796 C   0  0  0  0  0  0  0  0  0  0  0  0
    7.8862   -7.5151   22.0225 C   0  0  0  0  0  0  0  0  0  0  0  0
    7.8944   -7.4200   22.2395 C   0  0  0  0  0  0  0  0  0  0  0  0
    6.0215   -6.3448   20.3437 S   0  0  0  0  0  0  0  0  0  0  0  0
    5.3459   -5.0781   20.1371 O   0  0  0  0  0  0  0  0  0  0  0  0
    6.0067   -7.4209   19.3706 O   0  0  0  0  0  0  0  0  0  0  0  0
    7.5963   -6.1522   21.1522 C   0  0  0  0  0  0  0  0  0  0  0  0
    7.5254   -5.0605   21.6285 H   0  0  0  0  0  0  0  0  0  0  0  0
    8.3530   -5.9686   20.3462 H   0  0  0  0  0  0  0  0  0  0  0  0
    8.1236   -8.6030   22.7421 H   0  0  0  0  0  0  0  0  0  0  0  0
    6.6225   -7.5900   22.3780 H   0  0  0  0  0  0  0  0  0  0  0  0
    9.1526   -7.2013   22.1255 H   0  0  0  0  0  0  0  0  0  0  0  0
    8.9470   -4.4642   23.4950 H   0  0  0  0  0  0  0  0  0  0  0  0
    7.9416   -5.9984   23.6008 H   0  0  0  0  0  0  0  0  0  0  0  0
    6.2264   -2.4140   24.0887 H   0  0  0  0  0  0  0  0  0  0  0  0
    7.9123   -2.7968   24.5505 H   0  0  0  0  0  0  0  0  0  0  0  0
    8.5311   -2.5193   22.0819 H   0  0  0  0  0  0  0  0  0  0  0  0
    5.6049   -1.8115   21.8433 H   0  0  0  0  0  0  0  0  0  0  0  0
    6.6558   -2.5734   20.6477 H   0  0  0  0  0  0  0  0  0  0  0  0
    9.5998   -0.4211   23.3501 C   0  0  0  0  0  0  0  0  0  0  0  0
   10.6234   -1.2619   22.8934 C   0  0  0  0  0  0  0  0  0  0  0  0
   11.9167   -1.0987   23.3638 C   0  0  0  0  0  0  0  0  0  0  0  0
   13.1704   -2.1575   22.7811 Cl  0  0  0  0  0  0  0  0  0  0  0  0
   12.2508   -0.1015   24.2789 C   0  0  0  0  0  0  0  0  0  0  0  0
   11.2605    0.7754   24.6724 C   0  0  0  0  0  0  0  0  0  0  0  0
    9.9597    0.6393   24.1969 C   0  0  0  0  0  0  0  0  0  0  0  0
    8.9696    1.7028   24.5620 C   0  0  0  0  0  0  0  0  0  0  0  0
    9.3126    2.8138   24.9518 O   0  0  0  0  0  0  0  0  0  0  0  0
   11.4639    1.6011   25.3390 H   0  0  0  0  0  0  0  0  0  0  0  0
   13.2704   -0.0026   24.6351 H   0  0  0  0  0  0  0  0  0  0  0  0
   10.4374   -2.0251   22.1468 H   0  0  0  0  0  0  0  0  0  0  0  0
    7.3545   -0.6528   24.9375 H   0  0  0  0  0  0  0  0  0  0  0  0
    6.2210    0.0336   23.7592 H   0  0  0  0  0  0  0  0  0  0  0  0
    7.0311    2.7617   25.8180 H   0  0  0  0  0  0  0  0  0  0  0  0
    5.7468    1.7561   25.1193 H   0  0  0  0  0  0  0  0  0  0  0  0
    6.2329    2.9299   22.8518 H   0  0  0  0  0  0  0  0  0  0  0  0
    7.3082    4.0109   23.7352 H   0  0  0  0  0  0  0  0  0  0  0  0
    4.4209    3.6168   24.2923 H   0  0  0  0  0  0  0  0  0  0  0  0
    5.0327    4.8710   23.3220 H   0  0  0  0  0  0  0  0  0  0  0  0
    5.3569    4.4988   26.2439 H   0  0  0  0  0  0  0  0  0  0  0  0
    6.4101    5.5613   25.3139 H   0  0  0  0  0  0  0  0  0  0  0  0
    4.6638    5.8689   25.3639 H   0  0  0  0  0  0  0  0  0  0  0  0
  1  2  1  0
  2  3  1  0
  3  4  1  0
  4  5  1  0
  5  6  1  0
  7  6  1  1
  7  8  1  0
  8  9  2  0
  8 10  1  0
 10 11  1  0
 11 12  2  0
 12 13  1  0
 13 14  2  0
 14 15  1  0
 15 16  2  0
 16 17  1  0
 17 18  2  0
 18 19  1  0
 19 20  2  0
 19 21  1  0
 18 22  1  0
 17 23  1  0
 16 24  1  0
 14 25  1  0
 12 26  1  0
 10 27  1  0
 27 28  1  0
 28 29  1  0
 29 30  1  0
 30 31  1  0
 31 32  1  0
 32 33  1  0
 33 34  1  0
 34 35  2  0
 34 36  2  0
 34 37  1  0
 37 38  1  0
 37 39  1  0
 33 40  1  0
 33 41  1  0
 32 42  1  0
 31 43  1  0
 31 44  1  0
 29 45  1  0
 29 46  1  0
 28 47  1  6
 27 48  1  0
 27 49  1  0
  7 50  1  0
 50 51  2  0
 51 52  1  0
 52 53  1  0
 52 54  2  0
 54 55  1  0
 55 56  2  0
 56 57  1  0
 57 58  2  0
 55 59  1  0
 54 60  1  0
 51 61  1  0
  6 62  1  0
  6 63  1  0
  4 64  1  0
  4 65  1  0
  3 66  1  0
  3 67  1  0
  2 68  1  0
  2 69  1  0
  1 70  1  0
  1 71  1  0
  1 72  1  0
 57  5  1  0
 28  7  1  0
 37 32  1  0
 56 50  1  0
 20 11  1  0
 20 15  1  0
M  CHG  1   2   1
M  END
>  <cnnaffinities>  (36) 
[7.52283]

>  <score>  (36) 
7.52283

>  <index>  (36) 
38

>  <Smiles>  (36) 
C([N+](C(C(N1C([C@@]2(C(=O)N(c3c(nc(c4c(c(c(c(c34)[H])[H])[H])[H])[H])[H])C([C@@]2(C(OC(C2(C(S(=O)(=O)C2([H])[H])([H])[H])[H])([H])[H])([H])[H])[H])([H])[H])c2c(c(Cl)c(c(c2C1=O)[H])[H])[H])([H])[H])([H])[H])([H])[H])([H])[H])([H])([H])[H]

>  <h>  (36) 
<NA>

>  <Training>  (36) 
True

>  <Success>  (36) 
True

>  <enamine_searched>  (36) 
False

>  <enamine_id>  (36) 
nan

$$$$

     RDKit          3D

 60 64  0  0  0  0  0  0  0  0999 V2000
    8.1161   -4.5729   24.1893 C   0  0  0  0  0  0  0  0  0  0  0  0
    8.1095   -3.1027   24.5561 C   0  0  0  0  0  0  0  0  0  0  0  0
    7.1358   -2.4207   23.7821 O   0  0  0  0  0  0  0  0  0  0  0  0
    7.6174   -1.8711   22.5831 C   0  0  1  0  0  0  0  0  0  0  0  0
    6.4349   -1.4711   21.6978 C   0  0  0  0  0  0  0  0  0  0  0  0
    6.9718   -0.3506   20.9503 N   0  0  0  0  0  0  0  0  0  0  0  0
    6.2662    0.2193   19.8617 C   0  0  0  0  0  0  0  0  0  0  0  0
    6.6724   -0.0302   18.5749 C   0  0  0  0  0  0  0  0  0  0  0  0
    5.9932    0.3804   17.4787 N   0  0  0  0  0  0  0  0  0  0  0  0
    4.8853    1.0598   17.6604 C   0  0  0  0  0  0  0  0  0  0  0  0
    4.3729    1.4307   18.9372 C   0  0  0  0  0  0  0  0  0  0  0  0
    3.2113    2.2351   19.0982 C   0  0  0  0  0  0  0  0  0  0  0  0
    2.7820    2.5983   20.3474 C   0  0  0  0  0  0  0  0  0  0  0  0
    3.4876    2.1731   21.4926 C   0  0  0  0  0  0  0  0  0  0  0  0
    4.6092    1.3877   21.3602 C   0  0  0  0  0  0  0  0  0  0  0  0
    5.0819    0.9942   20.0796 C   0  0  0  0  0  0  0  0  0  0  0  0
    5.1819    1.1297   22.2440 H   0  0  0  0  0  0  0  0  0  0  0  0
    3.1736    2.4867   22.4830 H   0  0  0  0  0  0  0  0  0  0  0  0
    1.9069    3.2310   20.4624 H   0  0  0  0  0  0  0  0  0  0  0  0
    2.6881    2.5750   18.2098 H   0  0  0  0  0  0  0  0  0  0  0  0
    4.3401    1.3621   16.7668 H   0  0  0  0  0  0  0  0  0  0  0  0
    7.5766   -0.6093   18.3945 H   0  0  0  0  0  0  0  0  0  0  0  0
    8.1617    0.1569   21.4379 C   0  0  0  0  0  0  0  0  0  0  0  0
    8.7888    1.0575   20.9206 O   0  0  0  0  0  0  0  0  0  0  0  0
    8.4681   -0.5844   22.7677 C   0  0  1  0  0  0  0  0  0  0  0  0
    7.8736    0.2515   23.9461 C   0  0  0  0  0  0  0  0  0  0  0  0
    8.7079    1.3930   24.2832 N   0  0  0  0  0  0  0  0  0  0  0  0
    8.0786    2.6475   24.6677 C   0  0  0  0  0  0  0  0  0  0  0  0
    7.0205    3.1182   23.6762 C   0  0  0  0  0  0  0  0  0  0  0  0
    5.8242    2.9591   23.8874 O   0  0  0  0  0  0  0  0  0  0  0  0
    7.4966    3.7389   22.5657 N   0  0  0  0  0  0  0  0  0  0  0  0
    6.5667    4.2821   21.5885 C   0  0  0  0  0  0  0  0  0  0  0  0
    6.1525    3.4933   20.9421 H   0  0  0  0  0  0  0  0  0  0  0  0
    7.0634    5.0360   20.9709 H   0  0  0  0  0  0  0  0  0  0  0  0
    5.7401    4.7578   22.1263 H   0  0  0  0  0  0  0  0  0  0  0  0
    8.4606    3.5857   22.2987 H   0  0  0  0  0  0  0  0  0  0  0  0
    7.5980    2.5864   25.6510 H   0  0  0  0  0  0  0  0  0  0  0  0
    8.8785    3.3871   24.7304 H   0  0  0  0  0  0  0  0  0  0  0  0
   10.0526    1.2330   24.4765 C   0  0  0  0  0  0  0  0  0  0  0  0
   10.7744    2.0894   24.9688 O   0  0  0  0  0  0  0  0  0  0  0  0
   10.6255   -0.0610   23.9831 C   0  0  0  0  0  0  0  0  0  0  0  0
   11.9461   -0.3327   24.3400 C   0  0  0  0  0  0  0  0  0  0  0  0
   12.6585   -1.3256   23.6994 C   0  0  0  0  0  0  0  0  0  0  0  0
   12.0286   -2.0140   22.6632 C   0  0  0  0  0  0  0  0  0  0  0  0
   12.9908   -3.1237   21.7347 Cl  0  0  0  0  0  0  0  0  0  0  0  0
   10.6979   -1.7936   22.3278 C   0  0  0  0  0  0  0  0  0  0  0  0
    9.9447   -0.8344   23.0317 C   0  0  0  0  0  0  0  0  0  0  0  0
   10.2541   -2.3642   21.5186 H   0  0  0  0  0  0  0  0  0  0  0  0
   13.6969   -1.5301   23.9477 H   0  0  0  0  0  0  0  0  0  0  0  0
   12.4222    0.3055   25.0789 H   0  0  0  0  0  0  0  0  0  0  0  0
    7.7326   -0.3967   24.8206 H   0  0  0  0  0  0  0  0  0  0  0  0
    6.8942    0.6400   23.6517 H   0  0  0  0  0  0  0  0  0  0  0  0
    6.1324   -2.2728   21.0135 H   0  0  0  0  0  0  0  0  0  0  0  0
    5.5563   -1.2074   22.3076 H   0  0  0  0  0  0  0  0  0  0  0  0
    8.2280   -2.6095   22.0442 H   0  0  0  0  0  0  0  0  0  0  0  0
    7.8162   -2.9695   25.6049 H   0  0  0  0  0  0  0  0  0  0  0  0
    9.1085   -2.6589   24.4360 H   0  0  0  0  0  0  0  0  0  0  0  0
    8.4935   -4.7398   23.1770 H   0  0  0  0  0  0  0  0  0  0  0  0
    8.7324   -5.1444   24.8917 H   0  0  0  0  0  0  0  0  0  0  0  0
    7.0816   -4.9208   24.2184 H   0  0  0  0  0  0  0  0  0  0  0  0
  1  2  1  0
  2  3  1  0
  3  4  1  0
  4  5  1  0
  5  6  1  0
  6  7  1  0
  7  8  2  0
  8  9  1  0
  9 10  2  0
 10 11  1  0
 11 12  2  0
 12 13  1  0
 13 14  2  0
 14 15  1  0
 15 16  2  0
 15 17  1  0
 14 18  1  0
 13 19  1  0
 12 20  1  0
 10 21  1  0
  8 22  1  0
  6 23  1  0
 23 24  2  0
 23 25  1  0
 25 26  1  1
 26 27  1  0
 27 28  1  0
 28 29  1  0
 29 30  2  0
 29 31  1  0
 31 32  1  0
 32 33  1  0
 32 34  1  0
 32 35  1  0
 31 36  1  0
 28 37  1  0
 28 38  1  0
 27 39  1  0
 39 40  2  0
 39 41  1  0
 41 42  2  0
 42 43  1  0
 43 44  2  0
 44 45  1  0
 44 46  1  0
 46 47  2  0
 46 48  1  0
 43 49  1  0
 42 50  1  0
 26 51  1  0
 26 52  1  0
  5 53  1  0
  5 54  1  0
  4 55  1  6
  2 56  1  0
  2 57  1  0
  1 58  1  0
  1 59  1  0
  1 60  1  0
 25  4  1  0
 47 41  1  0
 16  7  1  0
 47 25  1  0
 16 11  1  0
M  END
>  <cnnaffinities>  (37) 
[7.13728]

>  <score>  (37) 
7.13728

>  <index>  (37) 
39

>  <Smiles>  (37) 
C(C(O[C@]1(C(N(c2c(nc(c3c(c(c(c(c23)[H])[H])[H])[H])[H])[H])C(=O)[C@]21C(N(C(C(=O)N(C([H])([H])[H])[H])([H])[H])C(=O)c1c(c(c(Cl)c(c21)[H])[H])[H])([H])[H])([H])[H])[H])([H])[H])([H])([H])[H]

>  <h>  (37) 
<NA>

>  <Training>  (37) 
True

>  <Success>  (37) 
True

>  <enamine_searched>  (37) 
False

>  <enamine_id>  (37) 
nan

$$$$

     RDKit          3D

 57 61  0  0  0  0  0  0  0  0999 V2000
    6.5724    4.3424   21.4711 C   0  0  0  0  0  0  0  0  0  0  0  0
    7.5398    3.8523   22.4379 N   0  0  0  0  0  0  0  0  0  0  0  0
    7.0876    3.2290   23.5572 C   0  0  0  0  0  0  0  0  0  0  0  0
    5.8928    3.0753   23.7803 O   0  0  0  0  0  0  0  0  0  0  0  0
    8.1509    2.7648   24.5494 C   0  0  0  0  0  0  0  0  0  0  0  0
    8.7311    1.4671   24.2243 N   0  0  0  0  0  0  0  0  0  0  0  0
    7.8685    0.3268   23.9582 C   0  0  0  0  0  0  0  0  0  0  0  0
    8.4174   -0.5701   22.8045 C   0  0  2  0  0  0  0  0  0  0  0  0
    8.1177    0.1479   21.4545 C   0  0  0  0  0  0  0  0  0  0  0  0
    8.7242    1.0648   20.9368 O   0  0  0  0  0  0  0  0  0  0  0  0
    6.9519   -0.3979   20.9406 N   0  0  0  0  0  0  0  0  0  0  0  0
    6.2411    0.1809   19.8576 C   0  0  0  0  0  0  0  0  0  0  0  0
    6.6389   -0.0687   18.5688 C   0  0  0  0  0  0  0  0  0  0  0  0
    5.9662    0.3569   17.4736 N   0  0  0  0  0  0  0  0  0  0  0  0
    4.8677    1.0490   17.6575 C   0  0  0  0  0  0  0  0  0  0  0  0
    4.3641    1.4226   18.9362 C   0  0  0  0  0  0  0  0  0  0  0  0
    3.2086    2.2346   19.0971 C   0  0  0  0  0  0  0  0  0  0  0  0
    2.7841    2.6035   20.3453 C   0  0  0  0  0  0  0  0  0  0  0  0
    3.4924    2.1792   21.4904 C   0  0  0  0  0  0  0  0  0  0  0  0
    4.6078    1.3853   21.3590 C   0  0  0  0  0  0  0  0  0  0  0  0
    5.0717    0.9784   20.0789 C   0  0  0  0  0  0  0  0  0  0  0  0
    5.1816    1.1236   22.2423 H   0  0  0  0  0  0  0  0  0  0  0  0
    3.1794    2.4986   22.4793 H   0  0  0  0  0  0  0  0  0  0  0  0
    1.9088    3.2360   20.4607 H   0  0  0  0  0  0  0  0  0  0  0  0
    2.6865    2.5746   18.2070 H   0  0  0  0  0  0  0  0  0  0  0  0
    4.3217    1.3640   16.7667 H   0  0  0  0  0  0  0  0  0  0  0  0
    7.5350   -0.6583   18.3857 H   0  0  0  0  0  0  0  0  0  0  0  0
    6.4173   -1.5148   21.6989 C   0  0  0  0  0  0  0  0  0  0  0  0
    7.5937   -1.8727   22.6168 C   0  0  2  0  0  0  0  0  0  0  0  0
    7.2136   -2.6344   23.8972 C   0  0  0  0  0  0  0  0  0  0  0  0
    6.0220   -2.0982   24.5691 C   0  0  0  0  0  0  0  0  0  0  0  0
    5.0770   -1.6666   25.0831 N   0  0  0  0  0  0  0  0  0  0  0  0
    8.0501   -2.6150   24.6042 H   0  0  0  0  0  0  0  0  0  0  0  0
    7.0011   -3.6824   23.6678 H   0  0  0  0  0  0  0  0  0  0  0  0
    8.2440   -2.5349   22.0425 H   0  0  0  0  0  0  0  0  0  0  0  0
    6.1419   -2.3409   21.0324 H   0  0  0  0  0  0  0  0  0  0  0  0
    5.5100   -1.2488   22.2615 H   0  0  0  0  0  0  0  0  0  0  0  0
    9.8970   -0.8275   23.0657 C   0  0  0  0  0  0  0  0  0  0  0  0
   10.6170   -1.7966   22.3436 C   0  0  0  0  0  0  0  0  0  0  0  0
   11.9709   -1.9725   22.5820 C   0  0  0  0  0  0  0  0  0  0  0  0
   12.8755   -3.0678   21.5772 Cl  0  0  0  0  0  0  0  0  0  0  0  0
   12.6532   -1.2493   23.5622 C   0  0  0  0  0  0  0  0  0  0  0  0
   11.9624   -0.2773   24.2540 C   0  0  0  0  0  0  0  0  0  0  0  0
   10.6186   -0.0331   23.9666 C   0  0  0  0  0  0  0  0  0  0  0  0
   10.0607    1.2650   24.4595 C   0  0  0  0  0  0  0  0  0  0  0  0
   10.7908    2.1108   24.9512 O   0  0  0  0  0  0  0  0  0  0  0  0
   12.4692    0.3695   24.9644 H   0  0  0  0  0  0  0  0  0  0  0  0
   13.7137   -1.4100   23.7173 H   0  0  0  0  0  0  0  0  0  0  0  0
   10.1327   -2.3998   21.5779 H   0  0  0  0  0  0  0  0  0  0  0  0
    7.7551   -0.2666   24.8757 H   0  0  0  0  0  0  0  0  0  0  0  0
    6.8979    0.7350   23.6723 H   0  0  0  0  0  0  0  0  0  0  0  0
    8.9718    3.4866   24.5741 H   0  0  0  0  0  0  0  0  0  0  0  0
    7.6836    2.7635   25.5424 H   0  0  0  0  0  0  0  0  0  0  0  0
    8.4939    3.6981   22.1419 H   0  0  0  0  0  0  0  0  0  0  0  0
    5.7693    4.8437   22.0175 H   0  0  0  0  0  0  0  0  0  0  0  0
    6.1332    3.5152   20.8941 H   0  0  0  0  0  0  0  0  0  0  0  0
    7.0377    5.0654   20.7965 H   0  0  0  0  0  0  0  0  0  0  0  0
  1  2  1  0
  2  3  1  0
  3  4  2  0
  3  5  1  0
  5  6  1  0
  6  7  1  0
  8  7  1  1
  8  9  1  0
  9 10  2  0
  9 11  1  0
 11 12  1  0
 12 13  2  0
 13 14  1  0
 14 15  2  0
 15 16  1  0
 16 17  2  0
 17 18  1  0
 18 19  2  0
 19 20  1  0
 20 21  2  0
 20 22  1  0
 19 23  1  0
 18 24  1  0
 17 25  1  0
 15 26  1  0
 13 27  1  0
 11 28  1  0
 28 29  1  0
 29 30  1  0
 30 31  1  0
 31 32  3  0
 30 33  1  0
 30 34  1  0
 29 35  1  6
 28 36  1  0
 28 37  1  0
  8 38  1  0
 38 39  2  0
 39 40  1  0
 40 41  1  0
 40 42  2  0
 42 43  1  0
 43 44  2  0
 44 45  1  0
 45 46  2  0
 43 47  1  0
 42 48  1  0
 39 49  1  0
  7 50  1  0
  7 51  1  0
  5 52  1  0
  5 53  1  0
  2 54  1  0
  1 55  1  0
  1 56  1  0
  1 57  1  0
 45  6  1  0
 29  8  1  0
 44 38  1  0
 21 12  1  0
 21 16  1  0
M  END
>  <cnnaffinities>  (38) 
[7.26235]

>  <score>  (38) 
7.26235

>  <index>  (38) 
40

>  <Smiles>  (38) 
C(N(C(=O)C(N1C([C@@]2(C(=O)N(c3c(nc(c4c(c(c(c(c34)[H])[H])[H])[H])[H])[H])C([C@@]2(C(C#N)([H])[H])[H])([H])[H])c2c(c(Cl)c(c(c2C1=O)[H])[H])[H])([H])[H])([H])[H])[H])([H])([H])[H]

>  <h>  (38) 
<NA>

>  <Training>  (38) 
True

>  <Success>  (38) 
True

>  <enamine_searched>  (38) 
False

>  <enamine_id>  (38) 
nan

$$$$

     RDKit          3D

 68 73  0  0  0  0  0  0  0  0999 V2000
    7.5137   -2.6445   23.7932 C   0  0  0  0  0  0  0  0  0  0  0  0
    7.7783   -1.7652   22.5756 C   0  0  1  0  0  0  0  0  0  0  0  0
    6.6053   -1.5360   21.6111 C   0  0  0  0  0  0  0  0  0  0  0  0
    6.9922   -0.3010   20.9471 N   0  0  0  0  0  0  0  0  0  0  0  0
    6.2458    0.2437   19.8778 C   0  0  0  0  0  0  0  0  0  0  0  0
    6.6118   -0.0685   18.5967 C   0  0  0  0  0  0  0  0  0  0  0  0
    5.9325    0.3291   17.4978 N   0  0  0  0  0  0  0  0  0  0  0  0
    4.8523    1.0512   17.6777 C   0  0  0  0  0  0  0  0  0  0  0  0
    4.3737    1.4689   18.9529 C   0  0  0  0  0  0  0  0  0  0  0  0
    3.2170    2.2822   19.0964 C   0  0  0  0  0  0  0  0  0  0  0  0
    2.7736    2.6559   20.3381 C   0  0  0  0  0  0  0  0  0  0  0  0
    3.4788    2.2512   21.4918 C   0  0  0  0  0  0  0  0  0  0  0  0
    4.6006    1.4616   21.3782 C   0  0  0  0  0  0  0  0  0  0  0  0
    5.0842    1.0521   20.1022 C   0  0  0  0  0  0  0  0  0  0  0  0
    5.1269    1.1542   22.2743 H   0  0  0  0  0  0  0  0  0  0  0  0
    3.1426    2.5903   22.4672 H   0  0  0  0  0  0  0  0  0  0  0  0
    1.8871    3.2779   20.4427 H   0  0  0  0  0  0  0  0  0  0  0  0
    2.6967    2.6051   18.2014 H   0  0  0  0  0  0  0  0  0  0  0  0
    4.2914    1.3415   16.7885 H   0  0  0  0  0  0  0  0  0  0  0  0
    7.4992   -0.6781   18.4273 H   0  0  0  0  0  0  0  0  0  0  0  0
    8.0704    0.3488   21.5195 C   0  0  0  0  0  0  0  0  0  0  0  0
    8.6699    1.2736   21.0141 O   0  0  0  0  0  0  0  0  0  0  0  0
    8.3006   -0.3383   22.8955 C   0  0  1  0  0  0  0  0  0  0  0  0
    7.4036    0.3754   23.9541 C   0  0  0  0  0  0  0  0  0  0  0  0
    7.8556    1.7325   24.2144 N   0  0  0  0  0  0  0  0  0  0  0  0
    6.9322    2.8432   24.3895 C   0  0  0  0  0  0  0  0  0  0  0  0
    6.8589    3.7125   23.1357 C   0  0  0  0  0  0  0  0  0  0  0  0
    5.7967    4.7477   23.1974 N   0  0  0  0  0  4  0  0  0  0  0  0
    6.1054    5.8577   24.1549 C   0  0  0  0  0  0  0  0  0  0  0  0
    4.8165    6.5435   24.6273 C   0  0  0  0  0  0  0  0  0  0  0  0
    3.5941    6.4816   23.3014 S   0  0  0  0  0  0  0  0  0  0  0  0
    3.0045    5.1310   23.3527 O   0  0  0  0  0  0  0  0  0  0  0  0
    2.7582    7.6750   23.3660 O   0  0  0  0  0  0  0  0  0  0  0  0
    4.6255    6.5272   21.8275 C   0  0  0  0  0  0  0  0  0  0  0  0
    5.5174    5.2744   21.8111 C   0  0  0  0  0  0  0  0  0  0  0  0
    5.0244    4.4700   21.2558 H   0  0  0  0  0  0  0  0  0  0  0  0
    6.4639    5.4991   21.3088 H   0  0  0  0  0  0  0  0  0  0  0  0
    3.9431    6.5410   20.9724 H   0  0  0  0  0  0  0  0  0  0  0  0
    5.2014    7.4587   21.8273 H   0  0  0  0  0  0  0  0  0  0  0  0
    4.3510    6.0123   25.4643 H   0  0  0  0  0  0  0  0  0  0  0  0
    4.9847    7.5838   24.9144 H   0  0  0  0  0  0  0  0  0  0  0  0
    6.6355    5.4522   25.0190 H   0  0  0  0  0  0  0  0  0  0  0  0
    6.7793    6.5743   23.6721 H   0  0  0  0  0  0  0  0  0  0  0  0
    4.8929    4.3273   23.4885 H   0  0  0  0  0  0  0  0  0  0  0  0
    6.6761    3.0869   22.2546 H   0  0  0  0  0  0  0  0  0  0  0  0
    7.8220    4.2131   22.9851 H   0  0  0  0  0  0  0  0  0  0  0  0
    5.9307    2.4737   24.6314 H   0  0  0  0  0  0  0  0  0  0  0  0
    7.2873    3.4307   25.2392 H   0  0  0  0  0  0  0  0  0  0  0  0
    9.1809    1.9793   24.4340 C   0  0  0  0  0  0  0  0  0  0  0  0
    9.6046    3.0835   24.7482 O   0  0  0  0  0  0  0  0  0  0  0  0
   10.0865    0.7862   24.2497 C   0  0  0  0  0  0  0  0  0  0  0  0
   11.3540    0.8302   24.8280 C   0  0  0  0  0  0  0  0  0  0  0  0
   12.3084   -0.1322   24.5593 C   0  0  0  0  0  0  0  0  0  0  0  0
   11.9626   -1.1632   23.6902 C   0  0  0  0  0  0  0  0  0  0  0  0
   13.1809   -2.3323   23.2678 Cl  0  0  0  0  0  0  0  0  0  0  0  0
   10.6876   -1.2721   23.1516 C   0  0  0  0  0  0  0  0  0  0  0  0
    9.7173   -0.2944   23.4330 C   0  0  0  0  0  0  0  0  0  0  0  0
   10.4535   -2.1123   22.5058 H   0  0  0  0  0  0  0  0  0  0  0  0
   13.3210   -0.0685   24.9548 H   0  0  0  0  0  0  0  0  0  0  0  0
   11.5675    1.6269   25.5150 H   0  0  0  0  0  0  0  0  0  0  0  0
    7.4530   -0.2038   24.8847 H   0  0  0  0  0  0  0  0  0  0  0  0
    6.3600    0.3801   23.6286 H   0  0  0  0  0  0  0  0  0  0  0  0
    6.4974   -2.3370   20.8719 H   0  0  0  0  0  0  0  0  0  0  0  0
    5.6420   -1.4465   22.1379 H   0  0  0  0  0  0  0  0  0  0  0  0
    8.5572   -2.2446   21.9730 H   0  0  0  0  0  0  0  0  0  0  0  0
    8.3836   -2.6434   24.4631 H   0  0  0  0  0  0  0  0  0  0  0  0
    7.3182   -3.6826   23.5063 H   0  0  0  0  0  0  0  0  0  0  0  0
    6.6541   -2.2849   24.3703 H   0  0  0  0  0  0  0  0  0  0  0  0
  1  2  1  0
  2  3  1  0
  3  4  1  0
  4  5  1  0
  5  6  2  0
  6  7  1  0
  7  8  2  0
  8  9  1  0
  9 10  2  0
 10 11  1  0
 11 12  2  0
 12 13  1  0
 13 14  2  0
 13 15  1  0
 12 16  1  0
 11 17  1  0
 10 18  1  0
  8 19  1  0
  6 20  1  0
  4 21  1  0
 21 22  2  0
 21 23  1  0
 23 24  1  1
 24 25  1  0
 25 26  1  0
 26 27  1  0
 27 28  1  0
 28 29  1  0
 29 30  1  0
 30 31  1  0
 31 32  2  0
 31 33  2  0
 31 34  1  0
 34 35  1  0
 35 36  1  0
 35 37  1  0
 34 38  1  0
 34 39  1  0
 30 40  1  0
 30 41  1  0
 29 42  1  0
 29 43  1  0
 28 44  1  0
 27 45  1  0
 27 46  1  0
 26 47  1  0
 26 48  1  0
 25 49  1  0
 49 50  2  0
 49 51  1  0
 51 52  2  0
 52 53  1  0
 53 54  2  0
 54 55  1  0
 54 56  1  0
 56 57  2  0
 56 58  1  0
 53 59  1  0
 52 60  1  0
 24 61  1  0
 24 62  1  0
  3 63  1  0
  3 64  1  0
  2 65  1  6
  1 66  1  0
  1 67  1  0
  1 68  1  0
 23  2  1  0
 35 28  1  0
 57 51  1  0
 14  5  1  0
 57 23  1  0
 14  9  1  0
M  CHG  1  28   1
M  END
>  <cnnaffinities>  (39) 
[7.10518]

>  <score>  (39) 
7.10518

>  <index>  (39) 
41

>  <Smiles>  (39) 
C([C@]1(C(N(c2c(nc(c3c(c(c(c(c23)[H])[H])[H])[H])[H])[H])C(=O)[C@]21C(N(C(C([N+]1(C(C(S(=O)(=O)C(C1([H])[H])([H])[H])([H])[H])([H])[H])[H])([H])[H])([H])[H])C(=O)c1c(c(c(Cl)c(c21)[H])[H])[H])([H])[H])([H])[H])[H])([H])([H])[H]

>  <h>  (39) 
<NA>

>  <Training>  (39) 
True

>  <Success>  (39) 
True

>  <enamine_searched>  (39) 
False

>  <enamine_id>  (39) 
nan

$$$$

     RDKit          3D

 60 65  0  0  0  0  0  0  0  0999 V2000
    7.9919    4.4275   22.7108 C   0  0  0  0  0  0  0  0  0  0  0  0
    6.7696    3.6831   22.9807 N   0  0  0  0  0  0  0  0  0  0  0  0
    6.5188    2.8402   24.0154 C   0  0  0  0  0  0  0  0  0  0  0  0
    5.4249    2.3171   24.1829 O   0  0  0  0  0  0  0  0  0  0  0  0
    7.6797    2.5038   24.9577 C   0  0  0  0  0  0  0  0  0  0  0  0
    8.4638    1.4079   24.4040 N   0  0  0  0  0  0  0  0  0  0  0  0
    7.8073    0.1562   24.0821 C   0  0  0  0  0  0  0  0  0  0  0  0
    8.4328   -0.5328   22.8432 C   0  0  2  0  0  0  0  0  0  0  0  0
    8.0631    0.2588   21.5540 C   0  0  0  0  0  0  0  0  0  0  0  0
    8.5552    1.2835   21.1308 O   0  0  0  0  0  0  0  0  0  0  0  0
    6.9929   -0.3785   20.9635 N   0  0  0  0  0  0  0  0  0  0  0  0
    6.2576    0.1723   19.8856 C   0  0  0  0  0  0  0  0  0  0  0  0
    6.5896   -0.1569   18.5979 C   0  0  0  0  0  0  0  0  0  0  0  0
    5.9170    0.2644   17.4992 N   0  0  0  0  0  0  0  0  0  0  0  0
    4.8578    1.0144   17.6797 C   0  0  0  0  0  0  0  0  0  0  0  0
    4.3957    1.4251   18.9615 C   0  0  0  0  0  0  0  0  0  0  0  0
    3.2471    2.2456   19.1142 C   0  0  0  0  0  0  0  0  0  0  0  0
    2.8154    2.6130   20.3607 C   0  0  0  0  0  0  0  0  0  0  0  0
    3.5116    2.1757   21.5104 C   0  0  0  0  0  0  0  0  0  0  0  0
    4.6272    1.3817   21.3867 C   0  0  0  0  0  0  0  0  0  0  0  0
    5.1048    0.9915   20.1057 C   0  0  0  0  0  0  0  0  0  0  0  0
    5.1460    1.0668   22.2861 H   0  0  0  0  0  0  0  0  0  0  0  0
    3.1774    2.4736   22.5022 H   0  0  0  0  0  0  0  0  0  0  0  0
    1.9397    3.2478   20.4692 H   0  0  0  0  0  0  0  0  0  0  0  0
    2.7292    2.5757   18.2174 H   0  0  0  0  0  0  0  0  0  0  0  0
    4.3004    1.3316   16.7947 H   0  0  0  0  0  0  0  0  0  0  0  0
    7.4486   -0.7995   18.4123 H   0  0  0  0  0  0  0  0  0  0  0  0
    6.6157   -1.6344   21.5672 C   0  0  0  0  0  0  0  0  0  0  0  0
    7.7499   -1.8943   22.5703 C   0  0  2  0  0  0  0  0  0  0  0  0
    7.3512   -2.7357   23.8016 C   0  0  0  0  0  0  0  0  0  0  0  0
    7.0088   -4.1005   23.3050 C   0  0  0  0  0  0  0  0  0  0  0  0
    7.9183   -5.0443   23.1238 N   0  0  0  0  0  0  0  0  0  0  0  0
    7.2954   -5.9851   22.4179 N   0  0  0  0  0  0  0  0  0  0  0  0
    6.0525   -5.6349   22.2225 N   0  0  0  0  0  2  0  0  0  0  0  0
    5.8383   -4.4435   22.7792 N   0  0  0  0  0  0  0  0  0  0  0  0
    6.5027   -2.3067   24.3401 H   0  0  0  0  0  0  0  0  0  0  0  0
    8.2005   -2.8094   24.4880 H   0  0  0  0  0  0  0  0  0  0  0  0
    8.4827   -2.4993   22.0322 H   0  0  0  0  0  0  0  0  0  0  0  0
    6.5575   -2.4211   20.8063 H   0  0  0  0  0  0  0  0  0  0  0  0
    5.6265   -1.5633   22.0394 H   0  0  0  0  0  0  0  0  0  0  0  0
    9.9252   -0.6420   23.1179 C   0  0  0  0  0  0  0  0  0  0  0  0
   10.7359   -1.6017   22.4911 C   0  0  0  0  0  0  0  0  0  0  0  0
   12.1075   -1.5939   22.6947 C   0  0  0  0  0  0  0  0  0  0  0  0
   13.0668   -2.6837   21.7318 Cl  0  0  0  0  0  0  0  0  0  0  0  0
   12.7223   -0.7346   23.6078 C   0  0  0  0  0  0  0  0  0  0  0  0
   11.9268    0.2001   24.2393 C   0  0  0  0  0  0  0  0  0  0  0  0
   10.5553    0.2699   23.9805 C   0  0  0  0  0  0  0  0  0  0  0  0
    9.8223    1.4980   24.4260 C   0  0  0  0  0  0  0  0  0  0  0  0
   10.4014    2.5348   24.7273 O   0  0  0  0  0  0  0  0  0  0  0  0
   12.3392    0.9373   24.9177 H   0  0  0  0  0  0  0  0  0  0  0  0
   13.7883   -0.7877   23.8147 H   0  0  0  0  0  0  0  0  0  0  0  0
   10.3591   -2.3536   21.8020 H   0  0  0  0  0  0  0  0  0  0  0  0
    6.7498    0.3556   23.9126 H   0  0  0  0  0  0  0  0  0  0  0  0
    7.8873   -0.5306   24.9325 H   0  0  0  0  0  0  0  0  0  0  0  0
    7.2521    2.2171   25.9292 H   0  0  0  0  0  0  0  0  0  0  0  0
    8.3694    3.3384   25.1076 H   0  0  0  0  0  0  0  0  0  0  0  0
    5.9721    3.8214   22.3724 H   0  0  0  0  0  0  0  0  0  0  0  0
    7.8381    4.9962   21.7913 H   0  0  0  0  0  0  0  0  0  0  0  0
    8.2363    5.1357   23.5133 H   0  0  0  0  0  0  0  0  0  0  0  0
    8.8486    3.7615   22.5613 H   0  0  0  0  0  0  0  0  0  0  0  0
  1  2  1  0
  2  3  1  0
  3  4  2  0
  3  5  1  0
  5  6  1  0
  6  7  1  0
  8  7  1  1
  8  9  1  0
  9 10  2  0
  9 11  1  0
 11 12  1  0
 12 13  2  0
 13 14  1  0
 14 15  2  0
 15 16  1  0
 16 17  2  0
 17 18  1  0
 18 19  2  0
 19 20  1  0
 20 21  2  0
 20 22  1  0
 19 23  1  0
 18 24  1  0
 17 25  1  0
 15 26  1  0
 13 27  1  0
 11 28  1  0
 28 29  1  0
 29 30  1  0
 30 31  1  0
 31 32  1  0
 32 33  2  0
 33 34  1  0
 34 35  1  0
 30 36  1  0
 30 37  1  0
 29 38  1  6
 28 39  1  0
 28 40  1  0
  8 41  1  0
 41 42  2  0
 42 43  1  0
 43 44  1  0
 43 45  2  0
 45 46  1  0
 46 47  2  0
 47 48  1  0
 48 49  2  0
 46 50  1  0
 45 51  1  0
 42 52  1  0
  7 53  1  0
  7 54  1  0
  5 55  1  0
  5 56  1  0
  2 57  1  0
  1 58  1  0
  1 59  1  0
  1 60  1  0
 48  6  1  0
 29  8  1  0
 35 31  2  0
 47 41  1  0
 21 12  1  0
 21 16  1  0
M  CHG  1  34  -1
M  END
>  <cnnaffinities>  (40) 
[7.6905]

>  <score>  (40) 
7.6905

>  <index>  (40) 
42

>  <Smiles>  (40) 
C(N(C(=O)C(N1C([C@@]2(C(=O)N(c3c(nc(c4c(c(c(c(c34)[H])[H])[H])[H])[H])[H])C([C@@]2(C(c2nn[n-]n2)([H])[H])[H])([H])[H])c2c(c(Cl)c(c(c2C1=O)[H])[H])[H])([H])[H])([H])[H])[H])([H])([H])[H]

>  <h>  (40) 
<NA>

>  <Training>  (40) 
True

>  <Success>  (40) 
True

>  <enamine_searched>  (40) 
False

>  <enamine_id>  (40) 
nan

$$$$

     RDKit          3D

 62 67  0  0  0  0  0  0  0  0999 V2000
    4.5180    3.4571   24.9140 C   0  0  0  0  0  0  0  0  0  0  0  0
    5.6934    4.3665   25.2783 C   0  0  0  0  0  0  0  0  0  0  0  0
    6.7143    3.6911   26.0760 N   0  0  0  0  0  0  0  0  0  0  0  0
    6.5756    3.7021   27.4151 N   0  0  0  0  0  0  0  0  0  0  0  0
    7.3664    2.7398   27.8603 C   0  0  0  0  0  0  0  0  0  0  0  0
    8.0090    2.0714   26.7997 C   0  0  0  0  0  0  0  0  0  0  0  0
    7.6119    2.7441   25.6745 C   0  0  0  0  0  0  0  0  0  0  0  0
    8.1956    2.6463   24.2966 C   0  0  0  0  0  0  0  0  0  0  0  0
    8.7831    1.3530   24.0091 N   0  0  0  0  0  0  0  0  0  0  0  0
    7.9096    0.2076   23.8495 C   0  0  0  0  0  0  0  0  0  0  0  0
    8.4140   -0.7139   22.7067 C   0  0  2  0  0  0  0  0  0  0  0  0
    8.1022    0.0163   21.3692 C   0  0  0  0  0  0  0  0  0  0  0  0
    8.7244    0.9033   20.8290 O   0  0  0  0  0  0  0  0  0  0  0  0
    6.8883   -0.4596   20.9197 N   0  0  0  0  0  0  0  0  0  0  0  0
    6.1933    0.1405   19.8425 C   0  0  0  0  0  0  0  0  0  0  0  0
    6.5943   -0.0936   18.5543 C   0  0  0  0  0  0  0  0  0  0  0  0
    5.9258    0.3489   17.4605 N   0  0  0  0  0  0  0  0  0  0  0  0
    4.8387    1.0548   17.6496 C   0  0  0  0  0  0  0  0  0  0  0  0
    4.3409    1.4188   18.9329 C   0  0  0  0  0  0  0  0  0  0  0  0
    3.1964    2.2428   19.0972 C   0  0  0  0  0  0  0  0  0  0  0  0
    2.7698    2.5968   20.3484 C   0  0  0  0  0  0  0  0  0  0  0  0
    3.4564    2.1353   21.4941 C   0  0  0  0  0  0  0  0  0  0  0  0
    4.5619    1.3314   21.3594 C   0  0  0  0  0  0  0  0  0  0  0  0
    5.0359    0.9539   20.0723 C   0  0  0  0  0  0  0  0  0  0  0  0
    5.0895    0.9832   22.2417 H   0  0  0  0  0  0  0  0  0  0  0  0
    3.1102    2.4178   22.4857 H   0  0  0  0  0  0  0  0  0  0  0  0
    1.9045    3.2424   20.4691 H   0  0  0  0  0  0  0  0  0  0  0  0
    2.6830    2.6000   18.2082 H   0  0  0  0  0  0  0  0  0  0  0  0
    4.2923    1.3807   16.7622 H   0  0  0  0  0  0  0  0  0  0  0  0
    7.4888   -0.6826   18.3612 H   0  0  0  0  0  0  0  0  0  0  0  0
    6.3574   -1.5854   21.6654 C   0  0  0  0  0  0  0  0  0  0  0  0
    7.5307   -1.9908   22.5845 C   0  0  2  0  0  0  0  0  0  0  0  0
    7.1037   -2.6301   23.9078 C   0  0  0  0  0  0  0  0  0  0  0  0
    6.6278   -3.6029   23.7446 H   0  0  0  0  0  0  0  0  0  0  0  0
    7.9716   -2.7839   24.5607 H   0  0  0  0  0  0  0  0  0  0  0  0
    6.3880   -2.0031   24.4556 H   0  0  0  0  0  0  0  0  0  0  0  0
    8.1319   -2.7245   22.0351 H   0  0  0  0  0  0  0  0  0  0  0  0
    5.4531   -1.3133   22.2320 H   0  0  0  0  0  0  0  0  0  0  0  0
    6.0635   -2.3815   20.9711 H   0  0  0  0  0  0  0  0  0  0  0  0
    9.8984   -0.9799   22.8988 C   0  0  0  0  0  0  0  0  0  0  0  0
   10.5864   -1.9364   22.1278 C   0  0  0  0  0  0  0  0  0  0  0  0
   11.9489   -2.1102   22.3127 C   0  0  0  0  0  0  0  0  0  0  0  0
   12.6055   -2.9885   21.5368 F   0  0  0  0  0  0  0  0  0  0  0  0
   12.6922   -1.3926   23.2507 C   0  0  0  0  0  0  0  0  0  0  0  0
   12.0282   -0.4120   23.9623 C   0  0  0  0  0  0  0  0  0  0  0  0
   10.6550   -0.1784   23.7704 C   0  0  0  0  0  0  0  0  0  0  0  0
   10.0910    1.0982   24.3456 C   0  0  0  0  0  0  0  0  0  0  0  0
   10.7855    1.8567   25.0051 O   0  0  0  0  0  0  0  0  0  0  0  0
   12.5787    0.2401   24.6356 H   0  0  0  0  0  0  0  0  0  0  0  0
   13.7587   -1.5981   23.3731 H   0  0  0  0  0  0  0  0  0  0  0  0
   10.1011   -2.5554   21.3748 H   0  0  0  0  0  0  0  0  0  0  0  0
    7.8703   -0.3617   24.7894 H   0  0  0  0  0  0  0  0  0  0  0  0
    6.8978    0.5596   23.6336 H   0  0  0  0  0  0  0  0  0  0  0  0
    7.4356    2.8742   23.5420 H   0  0  0  0  0  0  0  0  0  0  0  0
    8.9842    3.3909   24.1646 H   0  0  0  0  0  0  0  0  0  0  0  0
    8.6756    1.2218   26.8026 H   0  0  0  0  0  0  0  0  0  0  0  0
    7.4541    2.5801   28.9278 H   0  0  0  0  0  0  0  0  0  0  0  0
    5.3392    5.2032   25.8854 H   0  0  0  0  0  0  0  0  0  0  0  0
    6.1765    4.7880   24.3932 H   0  0  0  0  0  0  0  0  0  0  0  0
    3.7349    4.0446   24.4224 H   0  0  0  0  0  0  0  0  0  0  0  0
    4.8195    2.6444   24.2403 H   0  0  0  0  0  0  0  0  0  0  0  0
    4.1041    3.0176   25.8267 H   0  0  0  0  0  0  0  0  0  0  0  0
  1  2  1  0
  2  3  1  0
  3  4  1  0
  4  5  2  0
  5  6  1  0
  6  7  2  0
  7  8  1  0
  8  9  1  0
  9 10  1  0
 11 10  1  1
 11 12  1  0
 12 13  2  0
 12 14  1  0
 14 15  1  0
 15 16  2  0
 16 17  1  0
 17 18  2  0
 18 19  1  0
 19 20  2  0
 20 21  1  0
 21 22  2  0
 22 23  1  0
 23 24  2  0
 23 25  1  0
 22 26  1  0
 21 27  1  0
 20 28  1  0
 18 29  1  0
 16 30  1  0
 14 31  1  0
 31 32  1  0
 32 33  1  0
 33 34  1  0
 33 35  1  0
 33 36  1  0
 32 37  1  6
 31 38  1  0
 31 39  1  0
 11 40  1  0
 40 41  2  0
 41 42  1  0
 42 43  1  0
 42 44  2  0
 44 45  1  0
 45 46  2  0
 46 47  1  0
 47 48  2  0
 45 49  1  0
 44 50  1  0
 41 51  1  0
 10 52  1  0
 10 53  1  0
  8 54  1  0
  8 55  1  0
  6 56  1  0
  5 57  1  0
  2 58  1  0
  2 59  1  0
  1 60  1  0
  1 61  1  0
  1 62  1  0
  7  3  1  0
 47  9  1  0
 32 11  1  0
 46 40  1  0
 24 15  1  0
 24 19  1  0
M  END
>  <cnnaffinities>  (41) 
[7.23594]

>  <score>  (41) 
7.23594

>  <index>  (41) 
43

>  <Smiles>  (41) 
C(C(n1nc(c(c1C(N1C([C@@]2(C(=O)N(c3c(nc(c4c(c(c(c(c34)[H])[H])[H])[H])[H])[H])C([C@@]2(C([H])([H])[H])[H])([H])[H])c2c(c(F)c(c(c2C1=O)[H])[H])[H])([H])[H])([H])[H])[H])[H])([H])[H])([H])([H])[H]

>  <h>  (41) 
<NA>

>  <Training>  (41) 
True

>  <Success>  (41) 
True

>  <enamine_searched>  (41) 
False

>  <enamine_id>  (41) 
nan

$$$$

     RDKit          3D

 56 60  0  0  0  0  0  0  0  0999 V2000
    6.5881    4.3425   21.4627 C   0  0  0  0  0  0  0  0  0  0  0  0
    7.5266    3.8302   22.4484 N   0  0  0  0  0  0  0  0  0  0  0  0
    7.0635    3.2158   23.5678 C   0  0  0  0  0  0  0  0  0  0  0  0
    5.8718    3.0375   23.7772 O   0  0  0  0  0  0  0  0  0  0  0  0
    8.1257    2.7660   24.5715 C   0  0  0  0  0  0  0  0  0  0  0  0
    8.7194    1.4776   24.2246 N   0  0  0  0  0  0  0  0  0  0  0  0
    7.8725    0.3207   23.9586 C   0  0  0  0  0  0  0  0  0  0  0  0
    8.4186   -0.5568   22.7920 C   0  0  2  0  0  0  0  0  0  0  0  0
    8.1103    0.1670   21.4540 C   0  0  0  0  0  0  0  0  0  0  0  0
    8.7109    1.0876   20.9374 O   0  0  0  0  0  0  0  0  0  0  0  0
    6.9575   -0.3894   20.9341 N   0  0  0  0  0  0  0  0  0  0  0  0
    6.2447    0.1823   19.8532 C   0  0  0  0  0  0  0  0  0  0  0  0
    6.6435   -0.0753   18.5678 C   0  0  0  0  0  0  0  0  0  0  0  0
    5.9686    0.3466   17.4734 N   0  0  0  0  0  0  0  0  0  0  0  0
    4.8759    1.0496   17.6551 C   0  0  0  0  0  0  0  0  0  0  0  0
    4.3719    1.4243   18.9343 C   0  0  0  0  0  0  0  0  0  0  0  0
    3.2184    2.2370   19.1029 C   0  0  0  0  0  0  0  0  0  0  0  0
    2.7914    2.5951   20.3548 C   0  0  0  0  0  0  0  0  0  0  0  0
    3.4903    2.1531   21.5007 C   0  0  0  0  0  0  0  0  0  0  0  0
    4.6015    1.3557   21.3635 C   0  0  0  0  0  0  0  0  0  0  0  0
    5.0747    0.9750   20.0775 C   0  0  0  0  0  0  0  0  0  0  0  0
    5.1605    1.0576   22.2468 H   0  0  0  0  0  0  0  0  0  0  0  0
    3.1737    2.4574   22.4946 H   0  0  0  0  0  0  0  0  0  0  0  0
    1.9203    3.2334   20.4756 H   0  0  0  0  0  0  0  0  0  0  0  0
    2.6960    2.5835   18.2160 H   0  0  0  0  0  0  0  0  0  0  0  0
    4.3201    1.3568   16.7667 H   0  0  0  0  0  0  0  0  0  0  0  0
    7.5392   -0.6676   18.3841 H   0  0  0  0  0  0  0  0  0  0  0  0
    6.4341   -1.5209   21.6707 C   0  0  0  0  0  0  0  0  0  0  0  0
    7.5963   -1.8679   22.6118 C   0  0  2  0  0  0  0  0  0  0  0  0
    7.2552   -2.6759   23.8675 C   0  0  0  0  0  0  0  0  0  0  0  0
    5.7613   -2.1767   24.7414 Cl  0  0  0  0  0  0  0  0  0  0  0  0
    8.0725   -2.6124   24.5933 H   0  0  0  0  0  0  0  0  0  0  0  0
    7.1045   -3.7260   23.6123 H   0  0  0  0  0  0  0  0  0  0  0  0
    8.2721   -2.5145   22.0453 H   0  0  0  0  0  0  0  0  0  0  0  0
    6.1936   -2.3422   20.9866 H   0  0  0  0  0  0  0  0  0  0  0  0
    5.5110   -1.2782   22.2130 H   0  0  0  0  0  0  0  0  0  0  0  0
    9.9066   -0.8040   23.0140 C   0  0  0  0  0  0  0  0  0  0  0  0
   10.6202   -1.7950   22.3037 C   0  0  0  0  0  0  0  0  0  0  0  0
   11.9851   -1.9482   22.5271 C   0  0  0  0  0  0  0  0  0  0  0  0
   12.9030   -3.0795   21.5648 Cl  0  0  0  0  0  0  0  0  0  0  0  0
   12.6743   -1.1939   23.4793 C   0  0  0  0  0  0  0  0  0  0  0  0
   11.9877   -0.2012   24.1467 C   0  0  0  0  0  0  0  0  0  0  0  0
   10.6271    0.0082   23.8990 C   0  0  0  0  0  0  0  0  0  0  0  0
   10.0621    1.2981   24.4214 C   0  0  0  0  0  0  0  0  0  0  0  0
   10.7947    2.1412   24.9096 O   0  0  0  0  0  0  0  0  0  0  0  0
   12.4976    0.4960   24.8032 H   0  0  0  0  0  0  0  0  0  0  0  0
   13.7377   -1.3631   23.6491 H   0  0  0  0  0  0  0  0  0  0  0  0
   10.1548   -2.3884   21.5153 H   0  0  0  0  0  0  0  0  0  0  0  0
    7.7864   -0.2908   24.8662 H   0  0  0  0  0  0  0  0  0  0  0  0
    6.8766    0.6956   23.7109 H   0  0  0  0  0  0  0  0  0  0  0  0
    7.6528    2.7558   25.5640 H   0  0  0  0  0  0  0  0  0  0  0  0
    8.9421    3.4926   24.6022 H   0  0  0  0  0  0  0  0  0  0  0  0
    8.5051    3.7430   22.2109 H   0  0  0  0  0  0  0  0  0  0  0  0
    5.7894    4.8799   21.9820 H   0  0  0  0  0  0  0  0  0  0  0  0
    6.1349    3.5306   20.8752 H   0  0  0  0  0  0  0  0  0  0  0  0
    7.0973    5.0363   20.7909 H   0  0  0  0  0  0  0  0  0  0  0  0
  1  2  1  0
  2  3  1  0
  3  4  2  0
  3  5  1  0
  5  6  1  0
  6  7  1  0
  8  7  1  1
  8  9  1  0
  9 10  2  0
  9 11  1  0
 11 12  1  0
 12 13  2  0
 13 14  1  0
 14 15  2  0
 15 16  1  0
 16 17  2  0
 17 18  1  0
 18 19  2  0
 19 20  1  0
 20 21  2  0
 20 22  1  0
 19 23  1  0
 18 24  1  0
 17 25  1  0
 15 26  1  0
 13 27  1  0
 11 28  1  0
 28 29  1  0
 29 30  1  0
 30 31  1  0
 30 32  1  0
 30 33  1  0
 29 34  1  6
 28 35  1  0
 28 36  1  0
  8 37  1  0
 37 38  2  0
 38 39  1  0
 39 40  1  0
 39 41  2  0
 41 42  1  0
 42 43  2  0
 43 44  1  0
 44 45  2  0
 42 46  1  0
 41 47  1  0
 38 48  1  0
  7 49  1  0
  7 50  1  0
  5 51  1  0
  5 52  1  0
  2 53  1  0
  1 54  1  0
  1 55  1  0
  1 56  1  0
 44  6  1  0
 29  8  1  0
 43 37  1  0
 21 12  1  0
 21 16  1  0
M  END
>  <cnnaffinities>  (42) 
[7.22555]

>  <score>  (42) 
7.22555

>  <index>  (42) 
44

>  <Smiles>  (42) 
C(N(C(=O)C(N1C([C@@]2(C(=O)N(c3c(nc(c4c(c(c(c(c34)[H])[H])[H])[H])[H])[H])C([C@@]2(C(Cl)([H])[H])[H])([H])[H])c2c(c(Cl)c(c(c2C1=O)[H])[H])[H])([H])[H])([H])[H])[H])([H])([H])[H]

>  <h>  (42) 
<NA>

>  <Training>  (42) 
True

>  <Success>  (42) 
True

>  <enamine_searched>  (42) 
False

>  <enamine_id>  (42) 
nan

$$$$

     RDKit          3D

 60 64  0  0  0  0  0  0  0  0999 V2000
    6.5977    4.2395   21.4514 C   0  0  0  0  0  0  0  0  0  0  0  0
    7.5906    3.6611   22.3399 N   0  0  0  0  0  0  0  0  0  0  0  0
    7.1580    3.1237   23.5148 C   0  0  0  0  0  0  0  0  0  0  0  0
    5.9642    3.0562   23.7909 O   0  0  0  0  0  0  0  0  0  0  0  0
    8.2005    2.6453   24.5243 C   0  0  0  0  0  0  0  0  0  0  0  0
    8.7860    1.3667   24.1685 N   0  0  0  0  0  0  0  0  0  0  0  0
    7.9373    0.2108   23.9167 C   0  0  0  0  0  0  0  0  0  0  0  0
    8.4594   -0.6306   22.7153 C   0  0  2  0  0  0  0  0  0  0  0  0
    8.1189    0.1167   21.3993 C   0  0  0  0  0  0  0  0  0  0  0  0
    8.6940    1.0597   20.8957 O   0  0  0  0  0  0  0  0  0  0  0  0
    6.9478   -0.4246   20.9060 N   0  0  0  0  0  0  0  0  0  0  0  0
    6.2408    0.1704   19.8290 C   0  0  0  0  0  0  0  0  0  0  0  0
    6.6660   -0.0233   18.5381 C   0  0  0  0  0  0  0  0  0  0  0  0
    6.0055    0.4303   17.4467 N   0  0  0  0  0  0  0  0  0  0  0  0
    4.8981    1.1055   17.6424 C   0  0  0  0  0  0  0  0  0  0  0  0
    4.3762    1.4341   18.9251 C   0  0  0  0  0  0  0  0  0  0  0  0
    3.2148    2.2339   19.0928 C   0  0  0  0  0  0  0  0  0  0  0  0
    2.7848    2.5853   20.3444 C   0  0  0  0  0  0  0  0  0  0  0  0
    3.4963    2.1554   21.4865 C   0  0  0  0  0  0  0  0  0  0  0  0
    4.6113    1.3611   21.3491 C   0  0  0  0  0  0  0  0  0  0  0  0
    5.0736    0.9651   20.0635 C   0  0  0  0  0  0  0  0  0  0  0  0
    5.1874    1.0966   22.2307 H   0  0  0  0  0  0  0  0  0  0  0  0
    3.1834    2.4706   22.4775 H   0  0  0  0  0  0  0  0  0  0  0  0
    1.9043    3.2101   20.4642 H   0  0  0  0  0  0  0  0  0  0  0  0
    2.6880    2.5743   18.2056 H   0  0  0  0  0  0  0  0  0  0  0  0
    4.3583    1.4419   16.7574 H   0  0  0  0  0  0  0  0  0  0  0  0
    7.5799   -0.5832   18.3523 H   0  0  0  0  0  0  0  0  0  0  0  0
    6.4218   -1.5184   21.7052 C   0  0  0  0  0  0  0  0  0  0  0  0
    7.6361   -1.9402   22.5415 C   0  0  2  0  0  0  0  0  0  0  0  0
    7.2827   -2.6563   23.8373 C   0  0  0  0  0  0  0  0  0  0  0  0
    8.4939   -2.9169   24.5048 O   0  0  0  0  0  0  0  0  0  0  0  0
    8.3410   -3.3753   25.8215 C   0  0  0  0  0  0  0  0  0  0  0  0
    7.7841   -4.3224   25.8561 H   0  0  0  0  0  0  0  0  0  0  0  0
    7.8194   -2.6460   26.4618 H   0  0  0  0  0  0  0  0  0  0  0  0
    9.3457   -3.5273   26.2237 H   0  0  0  0  0  0  0  0  0  0  0  0
    6.7428   -3.5976   23.6382 H   0  0  0  0  0  0  0  0  0  0  0  0
    6.6184   -2.0191   24.4487 H   0  0  0  0  0  0  0  0  0  0  0  0
    8.2458   -2.6338   21.9529 H   0  0  0  0  0  0  0  0  0  0  0  0
    5.5885   -1.1928   22.3507 H   0  0  0  0  0  0  0  0  0  0  0  0
    6.0416   -2.3195   21.0642 H   0  0  0  0  0  0  0  0  0  0  0  0
    9.9413   -0.8552   22.9193 C   0  0  0  0  0  0  0  0  0  0  0  0
   10.6371   -1.7882   22.1373 C   0  0  0  0  0  0  0  0  0  0  0  0
   11.9965   -1.9762   22.3218 C   0  0  0  0  0  0  0  0  0  0  0  0
   12.8227   -3.1081   21.2827 Cl  0  0  0  0  0  0  0  0  0  0  0  0
   12.7263   -1.2539   23.2739 C   0  0  0  0  0  0  0  0  0  0  0  0
   12.0575   -0.2823   23.9960 C   0  0  0  0  0  0  0  0  0  0  0  0
   10.6895   -0.0802   23.8141 C   0  0  0  0  0  0  0  0  0  0  0  0
   10.1214    1.1760   24.4006 C   0  0  0  0  0  0  0  0  0  0  0  0
   10.8237    1.9931   24.9798 O   0  0  0  0  0  0  0  0  0  0  0  0
   12.5753    0.4153   24.6486 H   0  0  0  0  0  0  0  0  0  0  0  0
   13.7984   -1.3991   23.3819 H   0  0  0  0  0  0  0  0  0  0  0  0
   10.1288   -2.3337   21.3473 H   0  0  0  0  0  0  0  0  0  0  0  0
    6.9168    0.5600   23.7188 H   0  0  0  0  0  0  0  0  0  0  0  0
    7.9495   -0.4325   24.8077 H   0  0  0  0  0  0  0  0  0  0  0  0
    7.7121    2.6342   25.5103 H   0  0  0  0  0  0  0  0  0  0  0  0
    9.0302    3.3519   24.6011 H   0  0  0  0  0  0  0  0  0  0  0  0
    8.4852    3.3987   21.9424 H   0  0  0  0  0  0  0  0  0  0  0  0
    7.0582    4.9869   20.8038 H   0  0  0  0  0  0  0  0  0  0  0  0
    6.0963    3.4735   20.8440 H   0  0  0  0  0  0  0  0  0  0  0  0
    5.8432    4.7328   22.0685 H   0  0  0  0  0  0  0  0  0  0  0  0
  1  2  1  0
  2  3  1  0
  3  4  2  0
  3  5  1  0
  5  6  1  0
  6  7  1  0
  8  7  1  1
  8  9  1  0
  9 10  2  0
  9 11  1  0
 11 12  1  0
 12 13  2  0
 13 14  1  0
 14 15  2  0
 15 16  1  0
 16 17  2  0
 17 18  1  0
 18 19  2  0
 19 20  1  0
 20 21  2  0
 20 22  1  0
 19 23  1  0
 18 24  1  0
 17 25  1  0
 15 26  1  0
 13 27  1  0
 11 28  1  0
 28 29  1  0
 29 30  1  0
 30 31  1  0
 31 32  1  0
 32 33  1  0
 32 34  1  0
 32 35  1  0
 30 36  1  0
 30 37  1  0
 29 38  1  6
 28 39  1  0
 28 40  1  0
  8 41  1  0
 41 42  2  0
 42 43  1  0
 43 44  1  0
 43 45  2  0
 45 46  1  0
 46 47  2  0
 47 48  1  0
 48 49  2  0
 46 50  1  0
 45 51  1  0
 42 52  1  0
  7 53  1  0
  7 54  1  0
  5 55  1  0
  5 56  1  0
  2 57  1  0
  1 58  1  0
  1 59  1  0
  1 60  1  0
 48  6  1  0
 29  8  1  0
 47 41  1  0
 21 12  1  0
 21 16  1  0
M  END
>  <cnnaffinities>  (43) 
[7.15187]

>  <score>  (43) 
7.15187

>  <index>  (43) 
45

>  <Smiles>  (43) 
C(N(C(=O)C(N1C([C@@]2(C(=O)N(c3c(nc(c4c(c(c(c(c34)[H])[H])[H])[H])[H])[H])C([C@@]2(C(OC([H])([H])[H])([H])[H])[H])([H])[H])c2c(c(Cl)c(c(c2C1=O)[H])[H])[H])([H])[H])([H])[H])[H])([H])([H])[H]

>  <h>  (43) 
<NA>

>  <Training>  (43) 
True

>  <Success>  (43) 
True

>  <enamine_searched>  (43) 
False

>  <enamine_id>  (43) 
nan

$$$$

     RDKit          3D

 64 68  0  0  0  0  0  0  0  0999 V2000
    6.9268   -2.7503   27.0187 C   0  0  0  0  0  0  0  0  0  0  0  0
    7.6274   -3.8917   26.3020 C   0  0  0  0  0  0  0  0  0  0  0  0
    8.4391   -3.3647   24.7887 S   0  0  0  0  0  0  0  0  0  0  0  0
    9.4494   -2.4054   25.2029 O   0  0  0  0  0  0  0  0  0  0  0  0
    8.8157   -4.5544   24.0325 O   0  0  0  0  0  0  0  0  0  0  0  0
    7.2117   -2.5473   23.8974 N   0  0  0  0  0  0  0  0  0  0  0  0
    7.6585   -1.9005   22.6314 C   0  0  1  0  0  0  0  0  0  0  0  0
    6.4647   -1.5531   21.7267 C   0  0  0  0  0  0  0  0  0  0  0  0
    6.9472   -0.4177   20.9686 N   0  0  0  0  0  0  0  0  0  0  0  0
    6.2297    0.1439   19.8810 C   0  0  0  0  0  0  0  0  0  0  0  0
    6.6318   -0.1103   18.5940 C   0  0  0  0  0  0  0  0  0  0  0  0
    5.9664    0.3198   17.4963 N   0  0  0  0  0  0  0  0  0  0  0  0
    4.8774    1.0268   17.6759 C   0  0  0  0  0  0  0  0  0  0  0  0
    4.3718    1.4018   18.9525 C   0  0  0  0  0  0  0  0  0  0  0  0
    3.2254    2.2271   19.1076 C   0  0  0  0  0  0  0  0  0  0  0  0
    2.7966    2.5969   20.3547 C   0  0  0  0  0  0  0  0  0  0  0  0
    3.4887    2.1560   21.5057 C   0  0  0  0  0  0  0  0  0  0  0  0
    4.5938    1.3461   21.3799 C   0  0  0  0  0  0  0  0  0  0  0  0
    5.0661    0.9478   20.0995 C   0  0  0  0  0  0  0  0  0  0  0  0
    5.1501    1.0616   22.2679 H   0  0  0  0  0  0  0  0  0  0  0  0
    3.1729    2.4765   22.4950 H   0  0  0  0  0  0  0  0  0  0  0  0
    1.9298    3.2438   20.4676 H   0  0  0  0  0  0  0  0  0  0  0  0
    2.7106    2.5700   18.2137 H   0  0  0  0  0  0  0  0  0  0  0  0
    4.3318    1.3446   16.7858 H   0  0  0  0  0  0  0  0  0  0  0  0
    7.5294   -0.6974   18.4101 H   0  0  0  0  0  0  0  0  0  0  0  0
    8.1103    0.1422   21.4515 C   0  0  0  0  0  0  0  0  0  0  0  0
    8.6785    1.0800   20.9280 O   0  0  0  0  0  0  0  0  0  0  0  0
    8.4589   -0.5818   22.7816 C   0  0  1  0  0  0  0  0  0  0  0  0
    7.9088    0.2721   23.9636 C   0  0  0  0  0  0  0  0  0  0  0  0
    8.7267    1.4477   24.2255 N   0  0  0  0  0  0  0  0  0  0  0  0
    8.1008    2.7163   24.6052 C   0  0  0  0  0  0  0  0  0  0  0  0
    7.0493    3.1810   23.5840 C   0  0  0  0  0  0  0  0  0  0  0  0
    5.8529    3.0132   23.7784 O   0  0  0  0  0  0  0  0  0  0  0  0
    7.5163    3.8049   22.4698 N   0  0  0  0  0  0  0  0  0  0  0  0
    6.5773    4.3196   21.4869 C   0  0  0  0  0  0  0  0  0  0  0  0
    6.1193    3.5148   20.8975 H   0  0  0  0  0  0  0  0  0  0  0  0
    5.7799    4.8471   22.0127 H   0  0  0  0  0  0  0  0  0  0  0  0
    7.0814    5.0188   20.8184 H   0  0  0  0  0  0  0  0  0  0  0  0
    8.4832    3.6793   22.2133 H   0  0  0  0  0  0  0  0  0  0  0  0
    7.5963    2.6611   25.5840 H   0  0  0  0  0  0  0  0  0  0  0  0
    8.9023    3.4585   24.6950 H   0  0  0  0  0  0  0  0  0  0  0  0
   10.0722    1.2752   24.4293 C   0  0  0  0  0  0  0  0  0  0  0  0
   10.7842    2.1219   24.9410 O   0  0  0  0  0  0  0  0  0  0  0  0
   10.6585    0.0039   23.8874 C   0  0  0  0  0  0  0  0  0  0  0  0
   12.0108   -0.2243   24.1577 C   0  0  0  0  0  0  0  0  0  0  0  0
   12.7143   -1.1956   23.4708 C   0  0  0  0  0  0  0  0  0  0  0  0
   12.0420   -1.8944   22.4624 C   0  0  0  0  0  0  0  0  0  0  0  0
   12.9753   -2.9857   21.4716 Cl  0  0  0  0  0  0  0  0  0  0  0  0
   10.6778   -1.7421   22.2326 C   0  0  0  0  0  0  0  0  0  0  0  0
    9.9516   -0.7862   22.9725 C   0  0  0  0  0  0  0  0  0  0  0  0
   10.2281   -2.3116   21.4198 H   0  0  0  0  0  0  0  0  0  0  0  0
   13.7849   -1.3388   23.6279 H   0  0  0  0  0  0  0  0  0  0  0  0
   12.5024    0.4243   24.8755 H   0  0  0  0  0  0  0  0  0  0  0  0
    7.8786   -0.3590   24.8566 H   0  0  0  0  0  0  0  0  0  0  0  0
    6.8904    0.5969   23.7411 H   0  0  0  0  0  0  0  0  0  0  0  0
    6.1953   -2.3750   21.0529 H   0  0  0  0  0  0  0  0  0  0  0  0
    5.5763   -1.3001   22.3233 H   0  0  0  0  0  0  0  0  0  0  0  0
    8.3086   -2.5933   22.0904 H   0  0  0  0  0  0  0  0  0  0  0  0
    6.5119   -3.2532   23.6648 H   0  0  0  0  0  0  0  0  0  0  0  0
    8.4413   -4.3299   26.8934 H   0  0  0  0  0  0  0  0  0  0  0  0
    6.9401   -4.6943   26.0359 H   0  0  0  0  0  0  0  0  0  0  0  0
    7.5961   -1.8927   27.1306 H   0  0  0  0  0  0  0  0  0  0  0  0
    6.6011   -3.0822   28.0087 H   0  0  0  0  0  0  0  0  0  0  0  0
    6.0505   -2.4351   26.4458 H   0  0  0  0  0  0  0  0  0  0  0  0
  1  2  1  0
  2  3  1  0
  3  4  2  0
  3  5  2  0
  3  6  1  0
  6  7  1  0
  7  8  1  0
  8  9  1  0
  9 10  1  0
 10 11  2  0
 11 12  1  0
 12 13  2  0
 13 14  1  0
 14 15  2  0
 15 16  1  0
 16 17  2  0
 17 18  1  0
 18 19  2  0
 18 20  1  0
 17 21  1  0
 16 22  1  0
 15 23  1  0
 13 24  1  0
 11 25  1  0
  9 26  1  0
 26 27  2  0
 26 28  1  0
 28 29  1  1
 29 30  1  0
 30 31  1  0
 31 32  1  0
 32 33  2  0
 32 34  1  0
 34 35  1  0
 35 36  1  0
 35 37  1  0
 35 38  1  0
 34 39  1  0
 31 40  1  0
 31 41  1  0
 30 42  1  0
 42 43  2  0
 42 44  1  0
 44 45  2  0
 45 46  1  0
 46 47  2  0
 47 48  1  0
 47 49  1  0
 49 50  2  0
 49 51  1  0
 46 52  1  0
 45 53  1  0
 29 54  1  0
 29 55  1  0
  8 56  1  0
  8 57  1  0
  7 58  1  6
  6 59  1  0
  2 60  1  0
  2 61  1  0
  1 62  1  0
  1 63  1  0
  1 64  1  0
 28  7  1  0
 50 44  1  0
 19 10  1  0
 50 28  1  0
 19 14  1  0
M  END
>  <cnnaffinities>  (44) 
[7.36586]

>  <score>  (44) 
7.36586

>  <index>  (44) 
46

>  <Smiles>  (44) 
C(C(S(=O)(=O)N([C@]1(C(N(c2c(nc(c3c(c(c(c(c23)[H])[H])[H])[H])[H])[H])C(=O)[C@]21C(N(C(C(=O)N(C([H])([H])[H])[H])([H])[H])C(=O)c1c(c(c(Cl)c(c21)[H])[H])[H])([H])[H])([H])[H])[H])[H])([H])[H])([H])([H])[H]

>  <h>  (44) 
<NA>

>  <Training>  (44) 
True

>  <Success>  (44) 
True

>  <enamine_searched>  (44) 
False

>  <enamine_id>  (44) 
nan

$$$$

     RDKit          3D

 56 60  0  0  0  0  0  0  0  0999 V2000
    6.5927    4.3062   21.4977 C   0  0  0  0  0  0  0  0  0  0  0  0
    7.5630    3.7999   22.4549 N   0  0  0  0  0  0  0  0  0  0  0  0
    7.0980    3.1640   23.5640 C   0  0  0  0  0  0  0  0  0  0  0  0
    5.9016    2.9910   23.7451 O   0  0  0  0  0  0  0  0  0  0  0  0
    8.1407    2.7079   24.5914 C   0  0  0  0  0  0  0  0  0  0  0  0
    8.7126    1.4116   24.2477 N   0  0  0  0  0  0  0  0  0  0  0  0
    7.8674    0.2673   23.9470 C   0  0  0  0  0  0  0  0  0  0  0  0
    8.4331   -0.5906   22.7746 C   0  0  2  0  0  0  0  0  0  0  0  0
    8.1344    0.1351   21.4283 C   0  0  0  0  0  0  0  0  0  0  0  0
    8.7567    1.0356   20.9030 O   0  0  0  0  0  0  0  0  0  0  0  0
    6.9598   -0.3915   20.9284 N   0  0  0  0  0  0  0  0  0  0  0  0
    6.2510    0.1862   19.8503 C   0  0  0  0  0  0  0  0  0  0  0  0
    6.6495   -0.0637   18.5627 C   0  0  0  0  0  0  0  0  0  0  0  0
    5.9706    0.3555   17.4701 N   0  0  0  0  0  0  0  0  0  0  0  0
    4.8722    1.0462   17.6611 C   0  0  0  0  0  0  0  0  0  0  0  0
    4.3755    1.4216   18.9420 C   0  0  0  0  0  0  0  0  0  0  0  0
    3.2219    2.2338   19.1058 C   0  0  0  0  0  0  0  0  0  0  0  0
    2.7963    2.5978   20.3551 C   0  0  0  0  0  0  0  0  0  0  0  0
    3.5000    2.1634   21.5000 C   0  0  0  0  0  0  0  0  0  0  0  0
    4.6124    1.3647   21.3679 C   0  0  0  0  0  0  0  0  0  0  0  0
    5.0818    0.9752   20.0830 C   0  0  0  0  0  0  0  0  0  0  0  0
    5.1729    1.0887   22.2555 H   0  0  0  0  0  0  0  0  0  0  0  0
    3.1852    2.4819   22.4891 H   0  0  0  0  0  0  0  0  0  0  0  0
    1.9206    3.2309   20.4711 H   0  0  0  0  0  0  0  0  0  0  0  0
    2.6998    2.5728   18.2156 H   0  0  0  0  0  0  0  0  0  0  0  0
    4.3147    1.3520   16.7746 H   0  0  0  0  0  0  0  0  0  0  0  0
    7.5482   -0.6499   18.3808 H   0  0  0  0  0  0  0  0  0  0  0  0
    6.4301   -1.5205   21.6659 C   0  0  0  0  0  0  0  0  0  0  0  0
    7.6043   -1.8964   22.5833 C   0  0  2  0  0  0  0  0  0  0  0  0
    7.2257   -2.6175   23.8694 C   0  0  0  0  0  0  0  0  0  0  0  0
    6.8116   -3.6082   23.6646 H   0  0  0  0  0  0  0  0  0  0  0  0
    6.4708   -2.0568   24.4303 H   0  0  0  0  0  0  0  0  0  0  0  0
    8.1065   -2.7289   24.5132 H   0  0  0  0  0  0  0  0  0  0  0  0
    8.2446   -2.5569   21.9948 H   0  0  0  0  0  0  0  0  0  0  0  0
    5.5217   -1.2515   22.2239 H   0  0  0  0  0  0  0  0  0  0  0  0
    6.1482   -2.3317   20.9821 H   0  0  0  0  0  0  0  0  0  0  0  0
    9.9156   -0.8410   23.0334 C   0  0  0  0  0  0  0  0  0  0  0  0
   10.6438   -1.8211   22.3407 C   0  0  0  0  0  0  0  0  0  0  0  0
   12.0030   -1.9495   22.5695 C   0  0  0  0  0  0  0  0  0  0  0  0
   12.7051   -2.7936   21.7919 F   0  0  0  0  0  0  0  0  0  0  0  0
   12.6915   -1.2367   23.5516 C   0  0  0  0  0  0  0  0  0  0  0  0
   11.9723   -0.2897   24.2496 C   0  0  0  0  0  0  0  0  0  0  0  0
   10.6296   -0.0490   23.9438 C   0  0  0  0  0  0  0  0  0  0  0  0
   10.0416    1.2131   24.4784 C   0  0  0  0  0  0  0  0  0  0  0  0
   10.7444    2.0361   25.0465 O   0  0  0  0  0  0  0  0  0  0  0  0
   12.4328    0.3450   24.9986 H   0  0  0  0  0  0  0  0  0  0  0  0
   13.7594   -1.3753   23.7019 H   0  0  0  0  0  0  0  0  0  0  0  0
   10.1826   -2.4942   21.6167 H   0  0  0  0  0  0  0  0  0  0  0  0
    6.8700    0.6307   23.6971 H   0  0  0  0  0  0  0  0  0  0  0  0
    7.7825   -0.3509   24.8495 H   0  0  0  0  0  0  0  0  0  0  0  0
    7.6481    2.6775   25.5732 H   0  0  0  0  0  0  0  0  0  0  0  0
    8.9731    3.4226   24.6554 H   0  0  0  0  0  0  0  0  0  0  0  0
    8.5088    3.6285   22.1386 H   0  0  0  0  0  0  0  0  0  0  0  0
    7.0510    5.0332   20.8217 H   0  0  0  0  0  0  0  0  0  0  0  0
    6.1398    3.4869   20.9220 H   0  0  0  0  0  0  0  0  0  0  0  0
    5.7980    4.8012   22.0605 H   0  0  0  0  0  0  0  0  0  0  0  0
  1  2  1  0
  2  3  1  0
  3  4  2  0
  3  5  1  0
  5  6  1  0
  6  7  1  0
  8  7  1  1
  8  9  1  0
  9 10  2  0
  9 11  1  0
 11 12  1  0
 12 13  2  0
 13 14  1  0
 14 15  2  0
 15 16  1  0
 16 17  2  0
 17 18  1  0
 18 19  2  0
 19 20  1  0
 20 21  2  0
 20 22  1  0
 19 23  1  0
 18 24  1  0
 17 25  1  0
 15 26  1  0
 13 27  1  0
 11 28  1  0
 28 29  1  0
 29 30  1  0
 30 31  1  0
 30 32  1  0
 30 33  1  0
 29 34  1  6
 28 35  1  0
 28 36  1  0
  8 37  1  0
 37 38  2  0
 38 39  1  0
 39 40  1  0
 39 41  2  0
 41 42  1  0
 42 43  2  0
 43 44  1  0
 44 45  2  0
 42 46  1  0
 41 47  1  0
 38 48  1  0
  7 49  1  0
  7 50  1  0
  5 51  1  0
  5 52  1  0
  2 53  1  0
  1 54  1  0
  1 55  1  0
  1 56  1  0
 44  6  1  0
 29  8  1  0
 43 37  1  0
 21 12  1  0
 21 16  1  0
M  END
>  <cnnaffinities>  (45) 
[7.05091]

>  <score>  (45) 
7.05091

>  <index>  (45) 
47

>  <Smiles>  (45) 
C(N(C(=O)C(N1C([C@@]2(C(=O)N(c3c(nc(c4c(c(c(c(c34)[H])[H])[H])[H])[H])[H])C([C@@]2(C([H])([H])[H])[H])([H])[H])c2c(c(F)c(c(c2C1=O)[H])[H])[H])([H])[H])([H])[H])[H])([H])([H])[H]

>  <h>  (45) 
<NA>

>  <Training>  (45) 
True

>  <Success>  (45) 
True

>  <enamine_searched>  (45) 
False

>  <enamine_id>  (45) 
nan

$$$$

     RDKit          3D

 41 43  0  0  0  0  0  0  0  0999 V2000
    5.4617    0.8528   26.2671 C   0  0  0  0  0  0  0  0  0  0  0  0
    6.6454    0.8163   25.3241 C   0  0  1  0  0  0  0  0  0  0  0  0
    6.7306   -0.5057   24.5636 C   0  0  0  0  0  0  0  0  0  0  0  0
    7.9923   -0.6544   23.7074 C   0  0  0  0  0  0  0  0  0  0  0  0
    8.3129    0.4770   22.8483 N   0  0  0  0  0  0  0  0  0  0  0  0
    7.8617    0.6315   21.5557 C   0  0  0  0  0  0  0  0  0  0  0  0
    8.1993    1.5931   20.8854 O   0  0  0  0  0  0  0  0  0  0  0  0
    6.9448   -0.4465   20.9224 C   0  0  0  0  0  0  0  0  0  0  0  0
    6.1154    0.0876   19.7761 C   0  0  0  0  0  0  0  0  0  0  0  0
    6.4303   -0.2009   18.4730 C   0  0  0  0  0  0  0  0  0  0  0  0
    5.7714    0.2672   17.3798 N   0  0  0  0  0  0  0  0  0  0  0  0
    4.7304    1.0331   17.5821 C   0  0  0  0  0  0  0  0  0  0  0  0
    4.2847    1.4241   18.8727 C   0  0  0  0  0  0  0  0  0  0  0  0
    3.1688    2.2829   19.0458 C   0  0  0  0  0  0  0  0  0  0  0  0
    2.7654    2.6484   20.3010 C   0  0  0  0  0  0  0  0  0  0  0  0
    3.4638    2.1694   21.4325 C   0  0  0  0  0  0  0  0  0  0  0  0
    4.5477    1.3375   21.2901 C   0  0  0  0  0  0  0  0  0  0  0  0
    4.9940    0.9431   20.0007 C   0  0  0  0  0  0  0  0  0  0  0  0
    5.0758    0.9951   22.1767 H   0  0  0  0  0  0  0  0  0  0  0  0
    3.1410    2.4686   22.4243 H   0  0  0  0  0  0  0  0  0  0  0  0
    1.9138    3.3096   20.4357 H   0  0  0  0  0  0  0  0  0  0  0  0
    2.6467    2.6502   18.1644 H   0  0  0  0  0  0  0  0  0  0  0  0
    4.1978    1.3969   16.7003 H   0  0  0  0  0  0  0  0  0  0  0  0
    7.2726   -0.8542   18.2449 H   0  0  0  0  0  0  0  0  0  0  0  0
    7.5994   -1.2392   20.5361 H   0  0  0  0  0  0  0  0  0  0  0  0
    6.2876   -0.9187   21.6648 H   0  0  0  0  0  0  0  0  0  0  0  0
    8.8056    1.6727   23.5322 C   0  0  0  0  0  0  0  0  0  0  0  0
    7.7055    2.5826   24.1209 C   0  0  0  0  0  0  0  0  0  0  0  0
    6.5059    1.9065   24.4206 O   0  0  0  0  0  0  0  0  0  0  0  0
    7.4439    3.3652   23.4015 H   0  0  0  0  0  0  0  0  0  0  0  0
    8.0784    3.0923   25.0311 H   0  0  0  0  0  0  0  0  0  0  0  0
    9.4573    1.3434   24.3455 H   0  0  0  0  0  0  0  0  0  0  0  0
    9.4157    2.2531   22.8421 H   0  0  0  0  0  0  0  0  0  0  0  0
    7.9483   -1.5606   23.1013 H   0  0  0  0  0  0  0  0  0  0  0  0
    8.8451   -0.7800   24.3790 H   0  0  0  0  0  0  0  0  0  0  0  0
    5.8456   -0.5841   23.9245 H   0  0  0  0  0  0  0  0  0  0  0  0
    6.6755   -1.3371   25.2828 H   0  0  0  0  0  0  0  0  0  0  0  0
    7.5628    0.9549   25.9108 H   0  0  0  0  0  0  0  0  0  0  0  0
    5.4183    1.8134   26.7873 H   0  0  0  0  0  0  0  0  0  0  0  0
    5.5436    0.0578   27.0146 H   0  0  0  0  0  0  0  0  0  0  0  0
    4.5300    0.7193   25.7109 H   0  0  0  0  0  0  0  0  0  0  0  0
  1  2  1  0
  2  3  1  0
  3  4  1  0
  4  5  1  0
  5  6  1  0
  6  7  2  0
  6  8  1  0
  8  9  1  0
  9 10  2  0
 10 11  1  0
 11 12  2  0
 12 13  1  0
 13 14  2  0
 14 15  1  0
 15 16  2  0
 16 17  1  0
 17 18  2  0
 17 19  1  0
 16 20  1  0
 15 21  1  0
 14 22  1  0
 12 23  1  0
 10 24  1  0
  8 25  1  0
  8 26  1  0
  5 27  1  0
 27 28  1  0
 28 29  1  0
 28 30  1  0
 28 31  1  0
 27 32  1  0
 27 33  1  0
  4 34  1  0
  4 35  1  0
  3 36  1  0
  3 37  1  0
  2 38  1  1
  1 39  1  0
  1 40  1  0
  1 41  1  0
 29  2  1  0
 18  9  1  0
 18 13  1  0
M  END
>  <cnnaffinities>  (46) 
[5.1295]

>  <score>  (46) 
5.1295

>  <index>  (46) 
48

>  <Smiles>  (46) 
C([C@]1(C(C(N(C(=O)C(c2c(nc(c3c(c(c(c(c23)[H])[H])[H])[H])[H])[H])([H])[H])C(C(O1)([H])[H])([H])[H])([H])[H])([H])[H])[H])([H])([H])[H]

>  <h>  (46) 
<NA>

>  <Training>  (46) 
True

>  <Success>  (46) 
True

>  <enamine_searched>  (46) 
False

>  <enamine_id>  (46) 
nan

$$$$

     RDKit          3D

 42 45  0  0  0  0  0  0  0  0999 V2000
    6.7059   -4.4285   21.6468 C   0  0  0  0  0  0  0  0  0  0  0  0
    7.3130   -3.2946   22.3433 N   0  0  0  0  0  0  0  0  0  0  0  0
    8.6151   -2.7739   21.9242 C   0  0  0  0  0  0  0  0  0  0  0  0
    8.7820   -1.2676   22.1573 C   0  0  1  0  0  0  0  0  0  0  0  0
    8.1232   -0.3329   21.1237 C   0  0  0  0  0  0  0  0  0  0  0  0
    8.7089    0.5825   20.5802 O   0  0  0  0  0  0  0  0  0  0  0  0
    6.7864   -0.5407   20.9116 N   0  0  0  0  0  0  0  0  0  0  0  0
    6.1041    0.0614   19.8292 C   0  0  0  0  0  0  0  0  0  0  0  0
    6.4942   -0.1722   18.5353 C   0  0  0  0  0  0  0  0  0  0  0  0
    5.8510    0.3125   17.4486 N   0  0  0  0  0  0  0  0  0  0  0  0
    4.7856    1.0420   17.6533 C   0  0  0  0  0  0  0  0  0  0  0  0
    4.2823    1.3776   18.9383 C   0  0  0  0  0  0  0  0  0  0  0  0
    3.1667    2.2340   19.0971 C   0  0  0  0  0  0  0  0  0  0  0  0
    2.7688    2.6087   20.3513 C   0  0  0  0  0  0  0  0  0  0  0  0
    3.4605    2.1377   21.4902 C   0  0  0  0  0  0  0  0  0  0  0  0
    4.5288    1.2851   21.3639 C   0  0  0  0  0  0  0  0  0  0  0  0
    4.9646    0.8867   20.0725 C   0  0  0  0  0  0  0  0  0  0  0  0
    5.0651    0.9267   22.2405 H   0  0  0  0  0  0  0  0  0  0  0  0
    3.1531    2.4820   22.4734 H   0  0  0  0  0  0  0  0  0  0  0  0
    1.9462    3.3055   20.4723 H   0  0  0  0  0  0  0  0  0  0  0  0
    2.6766    2.6157   18.2066 H   0  0  0  0  0  0  0  0  0  0  0  0
    4.2775    1.4307   16.7724 H   0  0  0  0  0  0  0  0  0  0  0  0
    7.3759   -0.7737   18.3261 H   0  0  0  0  0  0  0  0  0  0  0  0
    6.3698   -1.3656   21.3162 H   0  0  0  0  0  0  0  0  0  0  0  0
    8.2850   -0.9223   23.5304 C   0  0  0  0  0  0  0  0  0  0  0  0
    8.6363    0.3109   24.0736 C   0  0  0  0  0  0  0  0  0  0  0  0
    8.1104    0.6734   25.2987 C   0  0  0  0  0  0  0  0  0  0  0  0
    8.4382    2.2703   25.8901 Cl  0  0  0  0  0  0  0  0  0  0  0  0
    7.2958   -0.1882   26.0315 C   0  0  0  0  0  0  0  0  0  0  0  0
    6.9739   -1.4243   25.5037 C   0  0  0  0  0  0  0  0  0  0  0  0
    7.4033   -1.7547   24.2196 C   0  0  0  0  0  0  0  0  0  0  0  0
    6.8286   -2.9928   23.5955 C   0  0  0  0  0  0  0  0  0  0  0  0
    5.9646   -3.6483   24.1576 O   0  0  0  0  0  0  0  0  0  0  0  0
    6.3888   -2.1479   26.0678 H   0  0  0  0  0  0  0  0  0  0  0  0
    6.9143    0.1125   26.9975 H   0  0  0  0  0  0  0  0  0  0  0  0
    9.3047    0.9881   23.5497 H   0  0  0  0  0  0  0  0  0  0  0  0
    9.8480   -1.0439   22.0614 H   0  0  0  0  0  0  0  0  0  0  0  0
    9.4312   -3.2958   22.4522 H   0  0  0  0  0  0  0  0  0  0  0  0
    8.7496   -2.9620   20.8660 H   0  0  0  0  0  0  0  0  0  0  0  0
    7.4601   -5.0536   21.1592 H   0  0  0  0  0  0  0  0  0  0  0  0
    6.1737   -5.0281   22.3886 H   0  0  0  0  0  0  0  0  0  0  0  0
    5.9636   -4.1439   20.8841 H   0  0  0  0  0  0  0  0  0  0  0  0
  1  2  1  0
  2  3  1  0
  3  4  1  0
  4  5  1  0
  5  6  2  0
  5  7  1  0
  7  8  1  0
  8  9  2  0
  9 10  1  0
 10 11  2  0
 11 12  1  0
 12 13  2  0
 13 14  1  0
 14 15  2  0
 15 16  1  0
 16 17  2  0
 16 18  1  0
 15 19  1  0
 14 20  1  0
 13 21  1  0
 11 22  1  0
  9 23  1  0
  7 24  1  0
  4 25  1  0
 25 26  2  0
 26 27  1  0
 27 28  1  0
 27 29  2  0
 29 30  1  0
 30 31  2  0
 31 32  1  0
 32 33  2  0
 30 34  1  0
 29 35  1  0
 26 36  1  0
  4 37  1  1
  3 38  1  0
  3 39  1  0
  1 40  1  0
  1 41  1  0
  1 42  1  0
 32  2  1  0
 17  8  1  0
 31 25  1  0
 17 12  1  0
M  END
>  <cnnaffinities>  (47) 
[5.79328]

>  <score>  (47) 
5.79328

>  <index>  (47) 
49

>  <Smiles>  (47) 
C(N1C([C@@](C(=O)N(c2c(nc(c3c(c(c(c(c23)[H])[H])[H])[H])[H])[H])[H])(c2c(c(Cl)c(c(c2C1=O)[H])[H])[H])[H])([H])[H])([H])([H])[H]

>  <h>  (47) 
<NA>

>  <Training>  (47) 
True

>  <Success>  (47) 
True

>  <enamine_searched>  (47) 
False

>  <enamine_id>  (47) 
nan

$$$$

     RDKit          3D

 38 41  0  0  0  0  0  0  0  0999 V2000
    8.6107    1.2636   20.7274 O   0  0  0  0  0  0  0  0  0  0  0  0
    7.8636    0.6707   21.4849 C   0  0  0  0  0  0  0  0  0  0  0  0
    6.9473   -0.4383   20.9214 C   0  0  0  0  0  0  0  0  0  0  0  0
    6.1074    0.0822   19.7723 C   0  0  0  0  0  0  0  0  0  0  0  0
    6.4286   -0.2021   18.4698 C   0  0  0  0  0  0  0  0  0  0  0  0
    5.7701    0.2683   17.3775 N   0  0  0  0  0  0  0  0  0  0  0  0
    4.7289    1.0333   17.5815 C   0  0  0  0  0  0  0  0  0  0  0  0
    4.2813    1.4237   18.8718 C   0  0  0  0  0  0  0  0  0  0  0  0
    3.1676    2.2842   19.0442 C   0  0  0  0  0  0  0  0  0  0  0  0
    2.7641    2.6498   20.2994 C   0  0  0  0  0  0  0  0  0  0  0  0
    3.4613    2.1699   21.4304 C   0  0  0  0  0  0  0  0  0  0  0  0
    4.5445    1.3365   21.2880 C   0  0  0  0  0  0  0  0  0  0  0  0
    4.9883    0.9408   19.9982 C   0  0  0  0  0  0  0  0  0  0  0  0
    5.0714    0.9874   22.1709 H   0  0  0  0  0  0  0  0  0  0  0  0
    3.1354    2.4672   22.4213 H   0  0  0  0  0  0  0  0  0  0  0  0
    1.9130    3.3110   20.4339 H   0  0  0  0  0  0  0  0  0  0  0  0
    2.6469    2.6514   18.1625 H   0  0  0  0  0  0  0  0  0  0  0  0
    4.1976    1.3974   16.6998 H   0  0  0  0  0  0  0  0  0  0  0  0
    7.2718   -0.8549   18.2449 H   0  0  0  0  0  0  0  0  0  0  0  0
    6.3030   -0.8993   21.6776 H   0  0  0  0  0  0  0  0  0  0  0  0
    7.6000   -1.2280   20.5334 H   0  0  0  0  0  0  0  0  0  0  0  0
    7.7612    1.0127   22.8216 N   0  0  0  0  0  0  0  0  0  0  0  0
    8.3093    2.3199   23.2099 C   0  0  0  0  0  0  0  0  0  0  0  0
    7.6741    2.8463   24.4935 C   0  0  0  0  0  0  0  0  0  0  0  0
    7.7377    1.7983   25.5535 C   0  0  0  0  0  0  0  0  0  0  0  0
    7.7854    2.0749   27.2601 S   0  0  0  0  0  0  0  0  0  0  0  0
    7.7567    0.3753   27.5650 C   0  0  0  0  0  0  0  0  0  0  0  0
    7.7083   -0.3545   26.4134 C   0  0  0  0  0  0  0  0  0  0  0  0
    7.6952    0.4764   25.2525 C   0  0  0  0  0  0  0  0  0  0  0  0
    7.5145   -0.0058   23.8386 C   0  0  0  0  0  0  0  0  0  0  0  0
    8.1573   -0.8826   23.6946 H   0  0  0  0  0  0  0  0  0  0  0  0
    6.4913   -0.3922   23.7462 H   0  0  0  0  0  0  0  0  0  0  0  0
    7.6689   -1.4416   26.3966 H   0  0  0  0  0  0  0  0  0  0  0  0
    7.8216    0.0058   28.5802 H   0  0  0  0  0  0  0  0  0  0  0  0
    8.1603    3.7689   24.8180 H   0  0  0  0  0  0  0  0  0  0  0  0
    6.6233    3.1051   24.3130 H   0  0  0  0  0  0  0  0  0  0  0  0
    9.3970    2.2732   23.3354 H   0  0  0  0  0  0  0  0  0  0  0  0
    8.1198    3.0139   22.3902 H   0  0  0  0  0  0  0  0  0  0  0  0
  1  2  2  0
  2  3  1  0
  3  4  1  0
  4  5  2  0
  5  6  1  0
  6  7  2  0
  7  8  1  0
  8  9  2  0
  9 10  1  0
 10 11  2  0
 11 12  1  0
 12 13  2  0
 12 14  1  0
 11 15  1  0
 10 16  1  0
  9 17  1  0
  7 18  1  0
  5 19  1  0
  3 20  1  0
  3 21  1  0
  2 22  1  0
 22 23  1  0
 23 24  1  0
 24 25  1  0
 25 26  1  0
 26 27  1  0
 27 28  2  0
 28 29  1  0
 29 30  1  0
 30 31  1  0
 30 32  1  0
 28 33  1  0
 27 34  1  0
 24 35  1  0
 24 36  1  0
 23 37  1  0
 23 38  1  0
 13  4  1  0
 30 22  1  0
 13  8  1  0
 29 25  2  0
M  END
>  <cnnaffinities>  (48) 
[5.22171, 5.37122, 5.29819]

>  <score>  (48) 
5.22171

>  <index>  (48) 
50

>  <Smiles>  (48) 
O=C(C(c1c(nc(c2c(c(c(c(c12)[H])[H])[H])[H])[H])[H])([H])[H])N1C(C(c2sc(c(c2C1([H])[H])[H])[H])([H])[H])([H])[H]

>  <h>  (48) 
<NA>

>  <Training>  (48) 
True

>  <Success>  (48) 
True

>  <enamine_searched>  (48) 
False

>  <enamine_id>  (48) 
nan

$$$$

     RDKit          3D

 67 73  0  0  0  0  0  0  0  0999 V2000
    7.1256    3.3439   29.5503 C   0  0  0  0  0  0  0  0  0  0  0  0
    6.7046    2.7339   28.2627 C   0  0  0  0  0  0  0  0  0  0  0  0
    5.7115    1.9451   28.0361 N   0  0  0  0  0  0  0  0  0  0  0  0
    5.7132    1.6950   26.6678 N   0  0  0  0  0  0  0  0  0  0  0  0
    6.7019    2.3564   26.1786 C   0  0  0  0  0  0  0  0  0  0  0  0
    7.1176    2.4581   24.7422 C   0  0  0  0  0  0  0  0  0  0  0  0
    8.0339    1.4132   24.3316 N   0  0  0  0  0  0  0  0  0  0  0  0
    7.5609    0.0723   24.0560 C   0  0  0  0  0  0  0  0  0  0  0  0
    8.3339   -0.5315   22.8460 C   0  0  2  0  0  0  0  0  0  0  0  0
    7.9669    0.3013   21.5831 C   0  0  0  0  0  0  0  0  0  0  0  0
    8.4158    1.3596   21.2140 O   0  0  0  0  0  0  0  0  0  0  0  0
    6.9520   -0.3822   20.9285 N   0  0  0  0  0  0  0  0  0  0  0  0
    6.2088    0.1682   19.8541 C   0  0  0  0  0  0  0  0  0  0  0  0
    6.5476   -0.1485   18.5649 C   0  0  0  0  0  0  0  0  0  0  0  0
    5.8794    0.2838   17.4677 N   0  0  0  0  0  0  0  0  0  0  0  0
    4.8230    1.0329   17.6540 C   0  0  0  0  0  0  0  0  0  0  0  0
    4.3539    1.4347   18.9348 C   0  0  0  0  0  0  0  0  0  0  0  0
    3.2102    2.2598   19.0827 C   0  0  0  0  0  0  0  0  0  0  0  0
    2.7692    2.6090   20.3283 C   0  0  0  0  0  0  0  0  0  0  0  0
    3.4434    2.1461   21.4804 C   0  0  0  0  0  0  0  0  0  0  0  0
    4.5591    1.3547   21.3610 C   0  0  0  0  0  0  0  0  0  0  0  0
    5.0530    0.9876   20.0783 C   0  0  0  0  0  0  0  0  0  0  0  0
    5.0694    0.9988   22.2519 H   0  0  0  0  0  0  0  0  0  0  0  0
    3.0781    2.4243   22.4643 H   0  0  0  0  0  0  0  0  0  0  0  0
    1.8955    3.2439   20.4400 H   0  0  0  0  0  0  0  0  0  0  0  0
    2.7070    2.6061   18.1835 H   0  0  0  0  0  0  0  0  0  0  0  0
    4.2827    1.3654   16.7661 H   0  0  0  0  0  0  0  0  0  0  0  0
    7.4071   -0.7906   18.3771 H   0  0  0  0  0  0  0  0  0  0  0  0
    6.6139   -1.6722   21.4954 C   0  0  0  0  0  0  0  0  0  0  0  0
    7.7929   -1.9181   22.4454 C   0  0  2  0  0  0  0  0  0  0  0  0
    7.5350   -2.8271   23.6436 C   0  0  0  0  0  0  0  0  0  0  0  0
    7.3684   -4.2190   23.3047 N   0  0  0  0  0  0  0  0  0  0  0  0
    6.2075   -4.7766   22.8598 C   0  0  0  0  0  0  0  0  0  0  0  0
    4.9421   -4.2250   23.1280 C   0  0  0  0  0  0  0  0  0  0  0  0
    3.8538   -4.9726   22.7309 C   0  0  0  0  0  0  0  0  0  0  0  0
    3.9506   -6.1413   22.0898 N   0  0  0  0  0  0  0  0  0  0  0  0
    5.1920   -6.5443   21.8561 C   0  0  0  0  0  0  0  0  0  0  0  0
    6.3239   -5.9432   22.2049 N   0  0  0  0  0  0  0  0  0  0  0  0
    5.2961   -7.4767   21.3001 H   0  0  0  0  0  0  0  0  0  0  0  0
    2.8435   -4.6223   22.9277 H   0  0  0  0  0  0  0  0  0  0  0  0
    4.8187   -3.2685   23.6252 H   0  0  0  0  0  0  0  0  0  0  0  0
    8.1912   -4.6710   22.9402 H   0  0  0  0  0  0  0  0  0  0  0  0
    6.6702   -2.4824   24.2146 H   0  0  0  0  0  0  0  0  0  0  0  0
    8.3962   -2.7356   24.3157 H   0  0  0  0  0  0  0  0  0  0  0  0
    8.5635   -2.3961   21.8313 H   0  0  0  0  0  0  0  0  0  0  0  0
    5.6353   -1.6619   22.0052 H   0  0  0  0  0  0  0  0  0  0  0  0
    6.5544   -2.4220   20.6987 H   0  0  0  0  0  0  0  0  0  0  0  0
    9.8059   -0.5320   23.2378 C   0  0  0  0  0  0  0  0  0  0  0  0
   10.7470   -1.4764   22.7766 C   0  0  0  0  0  0  0  0  0  0  0  0
   12.0745   -1.3910   23.1674 C   0  0  0  0  0  0  0  0  0  0  0  0
   13.2443   -2.4828   22.4714 Cl  0  0  0  0  0  0  0  0  0  0  0  0
   12.5135   -0.4278   24.0718 C   0  0  0  0  0  0  0  0  0  0  0  0
   11.5913    0.5020   24.5224 C   0  0  0  0  0  0  0  0  0  0  0  0
   10.2656    0.4877   24.0852 C   0  0  0  0  0  0  0  0  0  0  0  0
    9.3798    1.6600   24.4212 C   0  0  0  0  0  0  0  0  0  0  0  0
    9.8210    2.7579   24.7305 O   0  0  0  0  0  0  0  0  0  0  0  0
   11.8948    1.2758   25.2101 H   0  0  0  0  0  0  0  0  0  0  0  0
   13.5509   -0.4234   24.4031 H   0  0  0  0  0  0  0  0  0  0  0  0
   10.4689   -2.2843   22.1099 H   0  0  0  0  0  0  0  0  0  0  0  0
    7.7228   -0.5674   24.9345 H   0  0  0  0  0  0  0  0  0  0  0  0
    6.4815    0.0978   23.8644 H   0  0  0  0  0  0  0  0  0  0  0  0
    7.6350    3.4060   24.5813 H   0  0  0  0  0  0  0  0  0  0  0  0
    6.2078    2.4224   24.1287 H   0  0  0  0  0  0  0  0  0  0  0  0
    7.3939    3.0338   27.1288 O   0  0  0  0  0  0  0  0  0  0  0  0
    7.4854    4.3604   29.3840 H   0  0  0  0  0  0  0  0  0  0  0  0
    6.2732    3.3657   30.2299 H   0  0  0  0  0  0  0  0  0  0  0  0
    7.9271    2.7722   30.0304 H   0  0  0  0  0  0  0  0  0  0  0  0
  1  2  1  0
  2  3  2  0
  3  4  1  0
  4  5  2  0
  5  6  1  0
  6  7  1  0
  7  8  1  0
  9  8  1  1
  9 10  1  0
 10 11  2  0
 10 12  1  0
 12 13  1  0
 13 14  2  0
 14 15  1  0
 15 16  2  0
 16 17  1  0
 17 18  2  0
 18 19  1  0
 19 20  2  0
 20 21  1  0
 21 22  2  0
 21 23  1  0
 20 24  1  0
 19 25  1  0
 18 26  1  0
 16 27  1  0
 14 28  1  0
 12 29  1  0
 29 30  1  0
 30 31  1  0
 31 32  1  0
 32 33  1  0
 33 34  2  0
 34 35  1  0
 35 36  2  0
 36 37  1  0
 37 38  2  0
 37 39  1  0
 35 40  1  0
 34 41  1  0
 32 42  1  0
 31 43  1  0
 31 44  1  0
 30 45  1  6
 29 46  1  0
 29 47  1  0
  9 48  1  0
 48 49  2  0
 49 50  1  0
 50 51  1  0
 50 52  2  0
 52 53  1  0
 53 54  2  0
 54 55  1  0
 55 56  2  0
 53 57  1  0
 52 58  1  0
 49 59  1  0
  8 60  1  0
  8 61  1  0
  6 62  1  0
  6 63  1  0
  5 64  1  0
  1 65  1  0
  1 66  1  0
  1 67  1  0
 64  2  1  0
 55  7  1  0
 30  9  1  0
 38 33  1  0
 54 48  1  0
 22 13  1  0
 22 17  1  0
M  END
>  <cnnaffinities>  (49) 
[7.26728]

>  <score>  (49) 
7.26728

>  <index>  (49) 
51

>  <Smiles>  (49) 
C(c1nnc(C(N2C([C@@]3(C(=O)N(c4c(nc(c5c(c(c(c(c45)[H])[H])[H])[H])[H])[H])C([C@@]3(C(N(c3c(c(nc(n3)[H])[H])[H])[H])([H])[H])[H])([H])[H])c3c(c(Cl)c(c(c3C2=O)[H])[H])[H])([H])[H])([H])[H])o1)([H])([H])[H]

>  <h>  (49) 
<NA>

>  <Training>  (49) 
True

>  <Success>  (49) 
True

>  <enamine_searched>  (49) 
False

>  <enamine_id>  (49) 
nan

$$$$

     RDKit          3D

 66 71  0  0  0  0  0  0  0  0999 V2000
    8.0362    5.6188   22.8082 C   0  0  0  0  0  0  0  0  0  0  0  0
    8.0473    4.5792   23.8195 N   0  0  0  0  0  0  0  0  0  0  0  0
    7.1414    3.5620   23.7373 C   0  0  0  0  0  0  0  0  0  0  0  0
    6.2771    3.5042   22.8796 O   0  0  0  0  0  0  0  0  0  0  0  0
    7.2898    2.4815   24.8183 C   0  0  0  0  0  0  0  0  0  0  0  0
    8.1356    1.3909   24.3425 N   0  0  0  0  0  0  0  0  0  0  0  0
    7.5874    0.0846   24.0124 C   0  0  0  0  0  0  0  0  0  0  0  0
    8.3515   -0.5864   22.8315 C   0  0  2  0  0  0  0  0  0  0  0  0
    8.0376    0.2027   21.5187 C   0  0  0  0  0  0  0  0  0  0  0  0
    8.5890    1.1754   21.0551 O   0  0  0  0  0  0  0  0  0  0  0  0
    6.9298   -0.4042   20.9464 N   0  0  0  0  0  0  0  0  0  0  0  0
    6.2050    0.1529   19.8609 C   0  0  0  0  0  0  0  0  0  0  0  0
    6.5634   -0.1493   18.5738 C   0  0  0  0  0  0  0  0  0  0  0  0
    5.9007    0.2789   17.4726 N   0  0  0  0  0  0  0  0  0  0  0  0
    4.8320    1.0148   17.6556 C   0  0  0  0  0  0  0  0  0  0  0  0
    4.3464    1.4126   18.9321 C   0  0  0  0  0  0  0  0  0  0  0  0
    3.1991    2.2368   19.0798 C   0  0  0  0  0  0  0  0  0  0  0  0
    2.7615    2.5944   20.3257 C   0  0  0  0  0  0  0  0  0  0  0  0
    3.4469    2.1422   21.4737 C   0  0  0  0  0  0  0  0  0  0  0  0
    4.5623    1.3503   21.3552 C   0  0  0  0  0  0  0  0  0  0  0  0
    5.0440    0.9679   20.0769 C   0  0  0  0  0  0  0  0  0  0  0  0
    5.1017    1.0343   22.2429 H   0  0  0  0  0  0  0  0  0  0  0  0
    3.0994    2.4384   22.4581 H   0  0  0  0  0  0  0  0  0  0  0  0
    1.8910    3.2338   20.4353 H   0  0  0  0  0  0  0  0  0  0  0  0
    2.6920    2.5795   18.1827 H   0  0  0  0  0  0  0  0  0  0  0  0
    4.2988    1.3389   16.7638 H   0  0  0  0  0  0  0  0  0  0  0  0
    7.4359   -0.7774   18.4000 H   0  0  0  0  0  0  0  0  0  0  0  0
    6.5784   -1.6951   21.5045 C   0  0  0  0  0  0  0  0  0  0  0  0
    7.7471   -1.9675   22.4625 C   0  0  2  0  0  0  0  0  0  0  0  0
    7.3843   -2.8962   23.6276 C   0  0  0  0  0  0  0  0  0  0  0  0
    7.1927   -4.2719   23.2013 N   0  0  0  0  0  0  0  0  0  0  0  0
    5.9900   -4.8526   22.9424 C   0  0  0  0  0  0  0  0  0  0  0  0
    5.9300   -6.0637   22.2087 C   0  0  0  0  0  0  0  0  0  0  0  0
    4.6867   -6.6324   22.0568 C   0  0  0  0  0  0  0  0  0  0  0  0
    3.5608   -6.0861   22.5425 N   0  0  0  0  0  0  0  0  0  0  0  0
    3.7343   -4.9470   23.1953 C   0  0  0  0  0  0  0  0  0  0  0  0
    4.8726   -4.2874   23.4156 N   0  0  0  0  0  0  0  0  0  0  0  0
    2.8371   -4.4945   23.6149 H   0  0  0  0  0  0  0  0  0  0  0  0
    4.5628   -7.5757   21.5240 H   0  0  0  0  0  0  0  0  0  0  0  0
    6.8258   -6.5246   21.8010 H   0  0  0  0  0  0  0  0  0  0  0  0
    8.0058   -4.7546   22.8541 H   0  0  0  0  0  0  0  0  0  0  0  0
    6.4601   -2.5702   24.1134 H   0  0  0  0  0  0  0  0  0  0  0  0
    8.1816   -2.8655   24.3793 H   0  0  0  0  0  0  0  0  0  0  0  0
    8.5148   -2.4673   21.8650 H   0  0  0  0  0  0  0  0  0  0  0  0
    6.5090   -2.4448   20.7042 H   0  0  0  0  0  0  0  0  0  0  0  0
    5.6044   -1.6776   22.0234 H   0  0  0  0  0  0  0  0  0  0  0  0
    9.8224   -0.6238   23.2206 C   0  0  0  0  0  0  0  0  0  0  0  0
   10.7290   -1.5747   22.7246 C   0  0  0  0  0  0  0  0  0  0  0  0
   12.0640   -1.5246   23.0856 C   0  0  0  0  0  0  0  0  0  0  0  0
   13.1974   -2.6250   22.3564 Cl  0  0  0  0  0  0  0  0  0  0  0  0
   12.5481   -0.5723   23.9810 C   0  0  0  0  0  0  0  0  0  0  0  0
   11.6683    0.3818   24.4617 C   0  0  0  0  0  0  0  0  0  0  0  0
   10.3281    0.3820   24.0584 C   0  0  0  0  0  0  0  0  0  0  0  0
    9.4825    1.5704   24.4138 C   0  0  0  0  0  0  0  0  0  0  0  0
    9.9817    2.6475   24.7413 O   0  0  0  0  0  0  0  0  0  0  0  0
   12.0167    1.1736   25.1150 H   0  0  0  0  0  0  0  0  0  0  0  0
   13.5955   -0.5763   24.2736 H   0  0  0  0  0  0  0  0  0  0  0  0
   10.4141   -2.3614   22.0513 H   0  0  0  0  0  0  0  0  0  0  0  0
    7.6767   -0.5617   24.8950 H   0  0  0  0  0  0  0  0  0  0  0  0
    6.5280    0.1973   23.7533 H   0  0  0  0  0  0  0  0  0  0  0  0
    7.7449    2.8991   25.7228 H   0  0  0  0  0  0  0  0  0  0  0  0
    6.2946    2.1008   25.0739 H   0  0  0  0  0  0  0  0  0  0  0  0
    8.9225    4.3569   24.2746 H   0  0  0  0  0  0  0  0  0  0  0  0
    8.2731    5.2269   21.8137 H   0  0  0  0  0  0  0  0  0  0  0  0
    7.0412    6.0669   22.7591 H   0  0  0  0  0  0  0  0  0  0  0  0
    8.7651    6.3884   23.0807 H   0  0  0  0  0  0  0  0  0  0  0  0
  1  2  1  0
  2  3  1  0
  3  4  2  0
  3  5  1  0
  5  6  1  0
  6  7  1  0
  8  7  1  1
  8  9  1  0
  9 10  2  0
  9 11  1  0
 11 12  1  0
 12 13  2  0
 13 14  1  0
 14 15  2  0
 15 16  1  0
 16 17  2  0
 17 18  1  0
 18 19  2  0
 19 20  1  0
 20 21  2  0
 20 22  1  0
 19 23  1  0
 18 24  1  0
 17 25  1  0
 15 26  1  0
 13 27  1  0
 11 28  1  0
 28 29  1  0
 29 30  1  0
 30 31  1  0
 31 32  1  0
 32 33  2  0
 33 34  1  0
 34 35  2  0
 35 36  1  0
 36 37  2  0
 36 38  1  0
 34 39  1  0
 33 40  1  0
 31 41  1  0
 30 42  1  0
 30 43  1  0
 29 44  1  6
 28 45  1  0
 28 46  1  0
  8 47  1  0
 47 48  2  0
 48 49  1  0
 49 50  1  0
 49 51  2  0
 51 52  1  0
 52 53  2  0
 53 54  1  0
 54 55  2  0
 52 56  1  0
 51 57  1  0
 48 58  1  0
  7 59  1  0
  7 60  1  0
  5 61  1  0
  5 62  1  0
  2 63  1  0
  1 64  1  0
  1 65  1  0
  1 66  1  0
 54  6  1  0
 29  8  1  0
 37 32  1  0
 53 47  1  0
 21 12  1  0
 21 16  1  0
M  END
>  <cnnaffinities>  (50) 
[7.52556]

>  <score>  (50) 
7.52556

>  <index>  (50) 
52

>  <Smiles>  (50) 
C(N(C(=O)C(N1C([C@@]2(C(=O)N(c3c(nc(c4c(c(c(c(c34)[H])[H])[H])[H])[H])[H])C([C@@]2(C(N(c2c(c(nc(n2)[H])[H])[H])[H])([H])[H])[H])([H])[H])c2c(c(Cl)c(c(c2C1=O)[H])[H])[H])([H])[H])([H])[H])[H])([H])([H])[H]

>  <h>  (50) 
<NA>

>  <Training>  (50) 
True

>  <Success>  (50) 
True

>  <enamine_searched>  (50) 
False

>  <enamine_id>  (50) 
nan

$$$$

     RDKit          3D

 77 84  0  0  0  0  0  0  0  0999 V2000
   11.1804    1.1108   24.8834 O   0  0  0  0  0  0  0  0  0  0  0  0
   10.4056    0.4811   24.1817 C   0  0  0  0  0  0  0  0  0  0  0  0
   10.8581   -0.6840   23.3424 C   0  0  0  0  0  0  0  0  0  0  0  0
   12.2321   -0.9183   23.2792 C   0  0  0  0  0  0  0  0  0  0  0  0
   12.7499   -1.8089   22.3641 C   0  0  0  0  0  0  0  0  0  0  0  0
   11.8681   -2.5106   21.5410 C   0  0  0  0  0  0  0  0  0  0  0  0
   12.5374   -3.5850   20.3429 Cl  0  0  0  0  0  0  0  0  0  0  0  0
   10.4973   -2.3327   21.6268 C   0  0  0  0  0  0  0  0  0  0  0  0
    9.9649   -1.3841   22.5161 C   0  0  0  0  0  0  0  0  0  0  0  0
    8.4851   -1.0430   22.4787 C   0  0  1  0  0  0  0  0  0  0  0  0
    8.1274   -0.2435   23.7578 C   0  0  0  0  0  0  0  0  0  0  0  0
    9.0836    0.8086   24.0160 N   0  0  0  0  0  0  0  0  0  0  0  0
    8.6257    2.1702   24.2042 C   0  0  0  0  0  0  0  0  0  0  0  0
    8.1781    2.7954   22.8844 C   0  0  0  0  0  0  0  0  0  0  0  0
    7.6445    4.1623   23.1610 N   0  0  0  0  0  4  0  0  0  0  0  0
    8.6430    5.2310   23.6175 C   0  0  0  0  0  0  0  0  0  0  0  0
    8.1683    6.1943   22.5179 C   0  0  0  0  0  0  0  0  0  0  0  0
    9.2110    6.8055   21.6023 C   0  0  0  0  0  0  0  0  0  0  0  0
    9.0744    8.0693   22.2632 O   0  0  0  0  0  0  0  0  0  0  0  0
    7.8189    7.6483   22.8080 C   0  0  0  0  0  0  0  0  0  0  0  0
    6.9758    7.9924   22.1880 H   0  0  0  0  0  0  0  0  0  0  0  0
    7.6884    7.9814   23.8433 H   0  0  0  0  0  0  0  0  0  0  0  0
    8.8565    6.8536   20.5629 H   0  0  0  0  0  0  0  0  0  0  0  0
   10.2208    6.3821   21.6410 H   0  0  0  0  0  0  0  0  0  0  0  0
    7.2061    5.0895   22.0394 C   0  0  0  0  0  0  0  0  0  0  0  0
    7.4417    4.6795   21.0583 H   0  0  0  0  0  0  0  0  0  0  0  0
    6.1396    5.2968   22.1147 H   0  0  0  0  0  0  0  0  0  0  0  0
    8.4690    5.5147   24.6508 H   0  0  0  0  0  0  0  0  0  0  0  0
    9.6638    4.8765   23.4846 H   0  0  0  0  0  0  0  0  0  0  0  0
    6.8601    4.0550   23.8282 H   0  0  0  0  0  0  0  0  0  0  0  0
    7.3781    2.2317   22.3984 H   0  0  0  0  0  0  0  0  0  0  0  0
    9.0160    2.8670   22.1867 H   0  0  0  0  0  0  0  0  0  0  0  0
    9.4545    2.7220   24.6634 H   0  0  0  0  0  0  0  0  0  0  0  0
    7.7775    2.1845   24.9070 H   0  0  0  0  0  0  0  0  0  0  0  0
    8.1270   -0.9271   24.6161 H   0  0  0  0  0  0  0  0  0  0  0  0
    7.1150    0.1727   23.6730 H   0  0  0  0  0  0  0  0  0  0  0  0
    8.0883   -0.1941   21.2380 C   0  0  0  0  0  0  0  0  0  0  0  0
    8.7191    0.6939   20.7015 O   0  0  0  0  0  0  0  0  0  0  0  0
    6.8173   -0.5625   20.8596 N   0  0  0  0  0  0  0  0  0  0  0  0
    6.1380    0.0745   19.7954 C   0  0  0  0  0  0  0  0  0  0  0  0
    6.5351   -0.1475   18.5020 C   0  0  0  0  0  0  0  0  0  0  0  0
    5.8798    0.3352   17.4198 N   0  0  0  0  0  0  0  0  0  0  0  0
    4.8084    1.0594   17.6250 C   0  0  0  0  0  0  0  0  0  0  0  0
    4.3276    1.4208   18.9138 C   0  0  0  0  0  0  0  0  0  0  0  0
    3.2070    2.2752   19.0861 C   0  0  0  0  0  0  0  0  0  0  0  0
    2.8095    2.6490   20.3401 C   0  0  0  0  0  0  0  0  0  0  0  0
    3.5103    2.1867   21.4764 C   0  0  0  0  0  0  0  0  0  0  0  0
    4.5901    1.3467   21.3367 C   0  0  0  0  0  0  0  0  0  0  0  0
    5.0188    0.9325   20.0451 C   0  0  0  0  0  0  0  0  0  0  0  0
    5.1293    1.0085   22.2177 H   0  0  0  0  0  0  0  0  0  0  0  0
    3.1927    2.4980   22.4668 H   0  0  0  0  0  0  0  0  0  0  0  0
    1.9594    3.3133   20.4698 H   0  0  0  0  0  0  0  0  0  0  0  0
    2.6895    2.6350   18.2011 H   0  0  0  0  0  0  0  0  0  0  0  0
    4.2701    1.4145   16.7446 H   0  0  0  0  0  0  0  0  0  0  0  0
    7.4136   -0.7552   18.2938 H   0  0  0  0  0  0  0  0  0  0  0  0
    6.2668   -1.6512   21.6395 C   0  0  0  0  0  0  0  0  0  0  0  0
    7.5191   -2.2423   22.3127 C   0  0  2  0  0  0  0  0  0  0  0  0
    7.2132   -3.0329   23.5905 C   0  0  0  0  0  0  0  0  0  0  0  0
    6.3449   -4.1587   23.3371 N   0  0  0  0  0  0  0  0  0  0  0  0
    6.8456   -5.3266   22.8552 C   0  0  0  0  0  0  0  0  0  0  0  0
    5.9490   -6.0823   22.1912 N   0  0  0  0  0  0  0  0  0  0  0  0
    6.3513   -7.2966   21.8669 C   0  0  0  0  0  0  0  0  0  0  0  0
    7.6314   -7.7788   22.1558 C   0  0  0  0  0  0  0  0  0  0  0  0
    8.4935   -6.8879   22.7791 C   0  0  0  0  0  0  0  0  0  0  0  0
    8.1164   -5.6531   23.1247 N   0  0  0  0  0  0  0  0  0  0  0  0
    9.4979   -7.1708   23.0875 H   0  0  0  0  0  0  0  0  0  0  0  0
    7.8929   -8.8153   22.0049 H   0  0  0  0  0  0  0  0  0  0  0  0
    5.6017   -7.8924   21.3529 H   0  0  0  0  0  0  0  0  0  0  0  0
    5.4224   -3.9549   22.9718 H   0  0  0  0  0  0  0  0  0  0  0  0
    6.7104   -2.4030   24.3327 H   0  0  0  0  0  0  0  0  0  0  0  0
    8.1368   -3.4074   24.0442 H   0  0  0  0  0  0  0  0  0  0  0  0
    7.9731   -2.9356   21.5985 H   0  0  0  0  0  0  0  0  0  0  0  0
    5.7564   -2.3664   20.9838 H   0  0  0  0  0  0  0  0  0  0  0  0
    5.5398   -1.2903   22.3885 H   0  0  0  0  0  0  0  0  0  0  0  0
    9.8423   -2.8860   20.9614 H   0  0  0  0  0  0  0  0  0  0  0  0
   13.8206   -1.9254   22.2329 H   0  0  0  0  0  0  0  0  0  0  0  0
   12.8857   -0.3465   23.9301 H   0  0  0  0  0  0  0  0  0  0  0  0
  1  2  2  0
  2  3  1  0
  3  4  2  0
  4  5  1  0
  5  6  2  0
  6  7  1  0
  6  8  1  0
  8  9  2  0
  9 10  1  0
 10 11  1  1
 11 12  1  0
 12 13  1  0
 13 14  1  0
 14 15  1  0
 15 16  1  0
 16 17  1  0
 17 18  1  0
 18 19  1  0
 19 20  1  0
 20 21  1  0
 20 22  1  0
 18 23  1  0
 18 24  1  0
 17 25  1  0
 25 26  1  0
 25 27  1  0
 16 28  1  0
 16 29  1  0
 15 30  1  0
 14 31  1  0
 14 32  1  0
 13 33  1  0
 13 34  1  0
 11 35  1  0
 11 36  1  0
 10 37  1  0
 37 38  2  0
 37 39  1  0
 39 40  1  0
 40 41  2  0
 41 42  1  0
 42 43  2  0
 43 44  1  0
 44 45  2  0
 45 46  1  0
 46 47  2  0
 47 48  1  0
 48 49  2  0
 48 50  1  0
 47 51  1  0
 46 52  1  0
 45 53  1  0
 43 54  1  0
 41 55  1  0
 39 56  1  0
 56 57  1  0
 57 58  1  0
 58 59  1  0
 59 60  1  0
 60 61  2  0
 61 62  1  0
 62 63  2  0
 63 64  1  0
 64 65  2  0
 64 66  1  0
 63 67  1  0
 62 68  1  0
 59 69  1  0
 58 70  1  0
 58 71  1  0
 57 72  1  6
 56 73  1  0
 56 74  1  0
  8 75  1  0
  5 76  1  0
  4 77  1  0
 12  2  1  0
 25 15  1  0
 49 40  1  0
 65 60  1  0
  9  3  1  0
 57 10  1  0
 20 17  1  0
 49 44  1  0
M  CHG  1  15   1
M  END
>  <cnnaffinities>  (51) 
[7.57309]

>  <score>  (51) 
7.57309

>  <index>  (51) 
53

>  <Smiles>  (51) 
O=C1c2c(c(c(Cl)c(c2[C@@]2(C(N1C(C([N+]1(C(C3(C(OC3([H])[H])([H])[H])C1([H])[H])([H])[H])[H])([H])[H])([H])[H])([H])[H])C(=O)N(c1c(nc(c3c(c(c(c(c13)[H])[H])[H])[H])[H])[H])C([C@@]2(C(N(c1nc(c(c(n1)[H])[H])[H])[H])([H])[H])[H])([H])[H])[H])[H])[H]

>  <h>  (51) 
<NA>

>  <Training>  (51) 
True

>  <Success>  (51) 
True

>  <enamine_searched>  (51) 
False

>  <enamine_id>  (51) 
nan

$$$$

     RDKit          3D

 66 71  0  0  0  0  0  0  0  0999 V2000
    6.1629    1.6990   28.8099 C   0  0  0  0  0  0  0  0  0  0  0  0
    6.5295    2.0809   27.4619 N   0  0  0  0  0  0  0  0  0  0  0  0
    5.9928    1.3908   26.4204 C   0  0  0  0  0  0  0  0  0  0  0  0
    5.2180    0.4623   26.5661 O   0  0  0  0  0  0  0  0  0  0  0  0
    6.4506    1.8568   25.0393 C   0  0  0  0  0  0  0  0  0  0  0  0
    7.5539    1.0572   24.5640 N   0  0  0  0  0  0  0  0  0  0  0  0
    7.3358   -0.3033   24.1054 C   0  0  0  0  0  0  0  0  0  0  0  0
    8.2445   -0.6024   22.8729 C   0  0  2  0  0  0  0  0  0  0  0  0
    7.8110    0.3212   21.7026 C   0  0  0  0  0  0  0  0  0  0  0  0
    8.1036    1.4813   21.5364 O   0  0  0  0  0  0  0  0  0  0  0  0
    6.9990   -0.4193   20.8587 N   0  0  0  0  0  0  0  0  0  0  0  0
    6.2045    0.1404   19.8251 C   0  0  0  0  0  0  0  0  0  0  0  0
    6.5076   -0.1793   18.5260 C   0  0  0  0  0  0  0  0  0  0  0  0
    5.8399    0.2712   17.4387 N   0  0  0  0  0  0  0  0  0  0  0  0
    4.7967    1.0333   17.6426 C   0  0  0  0  0  0  0  0  0  0  0  0
    4.3422    1.4175   18.9320 C   0  0  0  0  0  0  0  0  0  0  0  0
    3.2051    2.2531   19.0787 C   0  0  0  0  0  0  0  0  0  0  0  0
    2.7558    2.5975   20.3211 C   0  0  0  0  0  0  0  0  0  0  0  0
    3.4198    2.1122   21.4701 C   0  0  0  0  0  0  0  0  0  0  0  0
    4.5294    1.3093   21.3532 C   0  0  0  0  0  0  0  0  0  0  0  0
    5.0411    0.9522   20.0720 C   0  0  0  0  0  0  0  0  0  0  0  0
    5.0169    0.9426   22.2530 H   0  0  0  0  0  0  0  0  0  0  0  0
    3.0440    2.3837   22.4518 H   0  0  0  0  0  0  0  0  0  0  0  0
    1.8907    3.2451   20.4313 H   0  0  0  0  0  0  0  0  0  0  0  0
    2.7108    2.6119   18.1790 H   0  0  0  0  0  0  0  0  0  0  0  0
    4.2466    1.3866   16.7681 H   0  0  0  0  0  0  0  0  0  0  0  0
    7.3547   -0.8336   18.3254 H   0  0  0  0  0  0  0  0  0  0  0  0
    6.8185   -1.7985   21.2811 C   0  0  0  0  0  0  0  0  0  0  0  0
    7.9825   -1.9992   22.2605 C   0  0  2  0  0  0  0  0  0  0  0  0
    7.8608   -3.1354   23.2848 C   0  0  0  0  0  0  0  0  0  0  0  0
    6.5609   -3.2873   23.8990 N   0  0  0  0  0  0  0  0  0  0  0  0
    5.5716   -4.1033   23.4249 C   0  0  0  0  0  0  0  0  0  0  0  0
    5.6722   -4.7769   22.1837 C   0  0  0  0  0  0  0  0  0  0  0  0
    4.7027   -5.5476   21.7190 N   0  0  0  0  0  0  0  0  0  0  0  0
    3.6103   -5.6635   22.4807 C   0  0  0  0  0  0  0  0  0  0  0  0
    3.5123   -5.0055   23.6954 C   0  0  0  0  0  0  0  0  0  0  0  0
    4.4835   -4.2325   24.1804 N   0  0  0  0  0  0  0  0  0  0  0  0
    2.6135   -5.0866   24.3028 H   0  0  0  0  0  0  0  0  0  0  0  0
    2.8028   -6.2871   22.1044 H   0  0  0  0  0  0  0  0  0  0  0  0
    6.5574   -4.6678   21.5596 H   0  0  0  0  0  0  0  0  0  0  0  0
    6.3370   -2.8152   24.7661 H   0  0  0  0  0  0  0  0  0  0  0  0
    8.1224   -4.0917   22.8249 H   0  0  0  0  0  0  0  0  0  0  0  0
    8.6052   -2.9634   24.0747 H   0  0  0  0  0  0  0  0  0  0  0  0
    8.8513   -2.2243   21.6320 H   0  0  0  0  0  0  0  0  0  0  0  0
    5.8309   -1.9336   21.7384 H   0  0  0  0  0  0  0  0  0  0  0  0
    6.8616   -2.4761   20.4233 H   0  0  0  0  0  0  0  0  0  0  0  0
    9.6713   -0.3537   23.3413 C   0  0  0  0  0  0  0  0  0  0  0  0
   10.7857   -1.1025   22.9292 C   0  0  0  0  0  0  0  0  0  0  0  0
   12.0543   -0.7931   23.3906 C   0  0  0  0  0  0  0  0  0  0  0  0
   13.4046   -1.7133   22.7737 Cl  0  0  0  0  0  0  0  0  0  0  0  0
   12.2852    0.2648   24.2731 C   0  0  0  0  0  0  0  0  0  0  0  0
   11.1922    1.0089   24.6726 C   0  0  0  0  0  0  0  0  0  0  0  0
    9.9106    0.6992   24.2344 C   0  0  0  0  0  0  0  0  0  0  0  0
    8.8012    1.5711   24.7224 C   0  0  0  0  0  0  0  0  0  0  0  0
    8.9910    2.6729   25.2312 O   0  0  0  0  0  0  0  0  0  0  0  0
   11.2646    1.8362   25.3613 H   0  0  0  0  0  0  0  0  0  0  0  0
   13.2840    0.5226   24.6119 H   0  0  0  0  0  0  0  0  0  0  0  0
   10.6817   -1.9385   22.2530 H   0  0  0  0  0  0  0  0  0  0  0  0
    7.5588   -1.0272   24.9052 H   0  0  0  0  0  0  0  0  0  0  0  0
    6.2761   -0.4005   23.8511 H   0  0  0  0  0  0  0  0  0  0  0  0
    5.6206    1.7710   24.3333 H   0  0  0  0  0  0  0  0  0  0  0  0
    6.7943    2.8929   25.0670 H   0  0  0  0  0  0  0  0  0  0  0  0
    7.3485    2.6474   27.2982 H   0  0  0  0  0  0  0  0  0  0  0  0
    6.6690    2.3497   29.5256 H   0  0  0  0  0  0  0  0  0  0  0  0
    6.4241    0.6536   29.0102 H   0  0  0  0  0  0  0  0  0  0  0  0
    5.0812    1.8063   28.9317 H   0  0  0  0  0  0  0  0  0  0  0  0
  1  2  1  0
  2  3  1  0
  3  4  2  0
  3  5  1  0
  5  6  1  0
  6  7  1  0
  8  7  1  1
  8  9  1  0
  9 10  2  0
  9 11  1  0
 11 12  1  0
 12 13  2  0
 13 14  1  0
 14 15  2  0
 15 16  1  0
 16 17  2  0
 17 18  1  0
 18 19  2  0
 19 20  1  0
 20 21  2  0
 20 22  1  0
 19 23  1  0
 18 24  1  0
 17 25  1  0
 15 26  1  0
 13 27  1  0
 11 28  1  0
 28 29  1  0
 29 30  1  0
 30 31  1  0
 31 32  1  0
 32 33  2  0
 33 34  1  0
 34 35  2  0
 35 36  1  0
 36 37  2  0
 36 38  1  0
 35 39  1  0
 33 40  1  0
 31 41  1  0
 30 42  1  0
 30 43  1  0
 29 44  1  6
 28 45  1  0
 28 46  1  0
  8 47  1  0
 47 48  2  0
 48 49  1  0
 49 50  1  0
 49 51  2  0
 51 52  1  0
 52 53  2  0
 53 54  1  0
 54 55  2  0
 52 56  1  0
 51 57  1  0
 48 58  1  0
  7 59  1  0
  7 60  1  0
  5 61  1  0
  5 62  1  0
  2 63  1  0
  1 64  1  0
  1 65  1  0
  1 66  1  0
 54  6  1  0
 29  8  1  0
 37 32  1  0
 53 47  1  0
 21 12  1  0
 21 16  1  0
M  END
>  <cnnaffinities>  (52) 
[7.18339, 7.40044]

>  <score>  (52) 
7.18339

>  <index>  (52) 
54

>  <Smiles>  (52) 
C(N(C(=O)C(N1C([C@@]2(C(=O)N(c3c(nc(c4c(c(c(c(c34)[H])[H])[H])[H])[H])[H])C([C@@]2(C(N(c2c(nc(c(n2)[H])[H])[H])[H])([H])[H])[H])([H])[H])c2c(c(Cl)c(c(c2C1=O)[H])[H])[H])([H])[H])([H])[H])[H])([H])([H])[H]

>  <h>  (52) 
<NA>

>  <Training>  (52) 
True

>  <Success>  (52) 
True

>  <enamine_searched>  (52) 
False

>  <enamine_id>  (52) 
nan

$$$$

     RDKit          3D

 41 43  0  0  0  0  0  0  0  0999 V2000
    5.3103   -2.3580   20.9863 O   0  0  0  0  0  0  0  0  0  0  0  0
    6.1501   -1.7187   21.5887 C   0  0  0  0  0  0  0  0  0  0  0  0
    6.8872   -0.5515   20.9346 C   0  0  0  0  0  0  0  0  0  0  0  0
    6.1201    0.0649   19.7985 C   0  0  0  0  0  0  0  0  0  0  0  0
    6.4541   -0.2050   18.4996 C   0  0  0  0  0  0  0  0  0  0  0  0
    5.8125    0.2794   17.4052 N   0  0  0  0  0  0  0  0  0  0  0  0
    4.7626    1.0357   17.6141 C   0  0  0  0  0  0  0  0  0  0  0  0
    4.2964    1.4024   18.9037 C   0  0  0  0  0  0  0  0  0  0  0  0
    3.1764    2.2535   19.0680 C   0  0  0  0  0  0  0  0  0  0  0  0
    2.7551    2.6110   20.3205 C   0  0  0  0  0  0  0  0  0  0  0  0
    3.4447    2.1291   21.4592 C   0  0  0  0  0  0  0  0  0  0  0  0
    4.5344    1.3015   21.3222 C   0  0  0  0  0  0  0  0  0  0  0  0
    4.9930    0.9127   20.0354 C   0  0  0  0  0  0  0  0  0  0  0  0
    5.0619    0.9571   22.2119 H   0  0  0  0  0  0  0  0  0  0  0  0
    3.1104    2.4318   22.4472 H   0  0  0  0  0  0  0  0  0  0  0  0
    1.9026    3.2704   20.4477 H   0  0  0  0  0  0  0  0  0  0  0  0
    2.6723    2.6256   18.1780 H   0  0  0  0  0  0  0  0  0  0  0  0
    4.2269    1.4035   16.7383 H   0  0  0  0  0  0  0  0  0  0  0  0
    7.3021   -0.8557   18.2864 H   0  0  0  0  0  0  0  0  0  0  0  0
    7.0838    0.1907   21.7166 H   0  0  0  0  0  0  0  0  0  0  0  0
    7.8570   -0.9377   20.5912 H   0  0  0  0  0  0  0  0  0  0  0  0
    6.4373   -1.9578   22.9253 N   0  0  0  0  0  0  0  0  0  0  0  0
    5.3964   -2.5927   23.7204 C   0  0  0  0  0  0  0  0  0  0  0  0
    4.4978   -1.5818   24.4305 C   0  0  0  0  0  0  0  0  0  0  0  0
    5.0343   -0.6908   25.5513 C   0  0  0  0  0  0  0  0  0  0  0  0
    6.5029    0.2950   25.1547 S   0  0  0  0  0  0  0  0  0  0  0  0
    7.6223   -1.1116   24.9742 C   0  0  0  0  0  0  0  0  0  0  0  0
    7.7131   -1.6666   23.5495 C   0  0  1  0  0  0  0  0  0  0  0  0
    8.5531   -2.9333   23.5626 C   0  0  0  0  0  0  0  0  0  0  0  0
    9.7624   -2.7246   24.1082 F   0  0  0  0  0  0  0  0  0  0  0  0
    7.9758   -3.9227   24.2758 F   0  0  0  0  0  0  0  0  0  0  0  0
    8.7270   -3.3767   22.3173 F   0  0  0  0  0  0  0  0  0  0  0  0
    8.2622   -0.9593   22.9234 H   0  0  0  0  0  0  0  0  0  0  0  0
    7.2329   -1.8811   25.6413 H   0  0  0  0  0  0  0  0  0  0  0  0
    8.6200   -0.8509   25.3404 H   0  0  0  0  0  0  0  0  0  0  0  0
    4.2479    0.0332   25.8010 H   0  0  0  0  0  0  0  0  0  0  0  0
    5.2350   -1.2514   26.4718 H   0  0  0  0  0  0  0  0  0  0  0  0
    3.6563   -2.1538   24.8469 H   0  0  0  0  0  0  0  0  0  0  0  0
    4.1274   -0.9144   23.6413 H   0  0  0  0  0  0  0  0  0  0  0  0
    4.7912   -3.1714   23.0166 H   0  0  0  0  0  0  0  0  0  0  0  0
    5.8430   -3.3192   24.3938 H   0  0  0  0  0  0  0  0  0  0  0  0
  1  2  2  0
  2  3  1  0
  3  4  1  0
  4  5  2  0
  5  6  1  0
  6  7  2  0
  7  8  1  0
  8  9  2  0
  9 10  1  0
 10 11  2  0
 11 12  1  0
 12 13  2  0
 12 14  1  0
 11 15  1  0
 10 16  1  0
  9 17  1  0
  7 18  1  0
  5 19  1  0
  3 20  1  0
  3 21  1  0
  2 22  1  0
 22 23  1  0
 23 24  1  0
 24 25  1  0
 25 26  1  0
 26 27  1  0
 27 28  1  0
 28 29  1  0
 29 30  1  0
 29 31  1  0
 29 32  1  0
 28 33  1  6
 27 34  1  0
 27 35  1  0
 25 36  1  0
 25 37  1  0
 24 38  1  0
 24 39  1  0
 23 40  1  0
 23 41  1  0
 13  4  1  0
 28 22  1  0
 13  8  1  0
M  END
>  <cnnaffinities>  (53) 
[5.35127, 5.35141, 5.21659, 5.21405, 5.2133]

>  <score>  (53) 
5.35127

>  <index>  (53) 
56

>  <Smiles>  (53) 
O=C(C(c1c(nc(c2c(c(c(c(c12)[H])[H])[H])[H])[H])[H])([H])[H])N1C(C(C(SC([C@]1(C(F)(F)F)[H])([H])[H])([H])[H])([H])[H])([H])[H]

>  <h>  (53) 
<NA>

>  <Training>  (53) 
True

>  <Success>  (53) 
True

>  <enamine_searched>  (53) 
False

>  <enamine_id>  (53) 
nan

$$$$

     RDKit          3D

 67 72  0  0  0  0  0  0  0  0999 V2000
    7.6141    5.6992   23.5045 C   0  0  0  0  0  0  0  0  0  0  0  0
    7.5013    4.5819   24.4226 N   0  0  0  0  0  0  0  0  0  0  0  0
    6.8228    3.4671   24.0121 C   0  0  0  0  0  0  0  0  0  0  0  0
    6.1163    3.4376   23.0193 O   0  0  0  0  0  0  0  0  0  0  0  0
    6.9799    2.2529   24.9244 C   0  0  0  0  0  0  0  0  0  0  0  0
    7.9312    1.2946   24.3891 N   0  0  0  0  0  0  0  0  0  0  0  0
    7.5211   -0.0584   24.0445 C   0  0  0  0  0  0  0  0  0  0  0  0
    8.3268   -0.5950   22.8183 C   0  0  2  0  0  0  0  0  0  0  0  0
    7.9369    0.2690   21.5889 C   0  0  0  0  0  0  0  0  0  0  0  0
    8.3556    1.3674   21.2999 O   0  0  0  0  0  0  0  0  0  0  0  0
    6.9631   -0.4260   20.8860 N   0  0  0  0  0  0  0  0  0  0  0  0
    6.1945    0.1289   19.8288 C   0  0  0  0  0  0  0  0  0  0  0  0
    6.5077   -0.1924   18.5316 C   0  0  0  0  0  0  0  0  0  0  0  0
    5.8416    0.2585   17.4425 N   0  0  0  0  0  0  0  0  0  0  0  0
    4.7954    1.0194   17.6399 C   0  0  0  0  0  0  0  0  0  0  0  0
    4.3322    1.4043   18.9264 C   0  0  0  0  0  0  0  0  0  0  0  0
    3.1960    2.2427   19.0809 C   0  0  0  0  0  0  0  0  0  0  0  0
    2.7614    2.5973   20.3259 C   0  0  0  0  0  0  0  0  0  0  0  0
    3.4451    2.1312   21.4718 C   0  0  0  0  0  0  0  0  0  0  0  0
    4.5514    1.3243   21.3466 C   0  0  0  0  0  0  0  0  0  0  0  0
    5.0349    0.9445   20.0663 C   0  0  0  0  0  0  0  0  0  0  0  0
    5.0744    0.9991   22.2418 H   0  0  0  0  0  0  0  0  0  0  0  0
    3.1099    2.4320   22.4588 H   0  0  0  0  0  0  0  0  0  0  0  0
    1.8980    3.2480   20.4402 H   0  0  0  0  0  0  0  0  0  0  0  0
    2.6954    2.6014   18.1842 H   0  0  0  0  0  0  0  0  0  0  0  0
    4.2534    1.3753   16.7620 H   0  0  0  0  0  0  0  0  0  0  0  0
    7.3536   -0.8484   18.3311 H   0  0  0  0  0  0  0  0  0  0  0  0
    6.7197   -1.7723   21.3697 C   0  0  0  0  0  0  0  0  0  0  0  0
    7.8817   -1.9976   22.3445 C   0  0  2  0  0  0  0  0  0  0  0  0
    7.5832   -2.9807   23.4789 C   0  0  0  0  0  0  0  0  0  0  0  0
    7.4373   -4.3320   23.0111 N   0  0  0  0  0  0  0  0  0  0  0  0
    6.2401   -4.9301   22.7129 C   0  0  0  0  0  0  0  0  0  0  0  0
    6.0392   -6.0913   22.0283 C   0  0  0  0  0  0  0  0  0  0  0  0
    4.7302   -6.4890   21.8777 N   0  0  0  0  0  0  0  0  0  0  0  0
    3.9159   -5.6617   22.4541 C   0  0  0  0  0  0  0  0  0  0  0  0
    2.4311   -5.8329   22.5096 C   0  0  0  0  0  0  0  0  0  0  0  0
    2.1273   -6.5316   21.7257 H   0  0  0  0  0  0  0  0  0  0  0  0
    1.9110   -4.8779   22.3819 H   0  0  0  0  0  0  0  0  0  0  0  0
    2.1313   -6.2574   23.4774 H   0  0  0  0  0  0  0  0  0  0  0  0
    4.6986   -4.2959   23.2284 S   0  0  0  0  0  0  0  0  0  0  0  0
    6.8377   -6.7048   21.6267 H   0  0  0  0  0  0  0  0  0  0  0  0
    8.2599   -4.8158   22.6909 H   0  0  0  0  0  0  0  0  0  0  0  0
    8.4041   -2.9469   24.2064 H   0  0  0  0  0  0  0  0  0  0  0  0
    6.6611   -2.6828   23.9938 H   0  0  0  0  0  0  0  0  0  0  0  0
    8.7019   -2.3951   21.7358 H   0  0  0  0  0  0  0  0  0  0  0  0
    5.7390   -1.8656   21.8563 H   0  0  0  0  0  0  0  0  0  0  0  0
    6.7302   -2.4867   20.5400 H   0  0  0  0  0  0  0  0  0  0  0  0
    9.7906   -0.4931   23.2081 C   0  0  0  0  0  0  0  0  0  0  0  0
   10.7932   -1.3446   22.7225 C   0  0  0  0  0  0  0  0  0  0  0  0
   12.1270   -1.1244   23.0358 C   0  0  0  0  0  0  0  0  0  0  0  0
   13.3385   -2.1141   22.2662 Cl  0  0  0  0  0  0  0  0  0  0  0  0
   12.5138   -0.1480   23.9570 C   0  0  0  0  0  0  0  0  0  0  0  0
   11.5182    0.6731   24.4600 C   0  0  0  0  0  0  0  0  0  0  0  0
   10.1969    0.5576   24.0394 C   0  0  0  0  0  0  0  0  0  0  0  0
    9.2431    1.6323   24.4406 C   0  0  0  0  0  0  0  0  0  0  0  0
    9.6178    2.7458   24.8122 O   0  0  0  0  0  0  0  0  0  0  0  0
   11.7133    1.4623   25.1716 H   0  0  0  0  0  0  0  0  0  0  0  0
   13.5545   -0.0008   24.2375 H   0  0  0  0  0  0  0  0  0  0  0  0
   10.5511   -2.2017   22.1077 H   0  0  0  0  0  0  0  0  0  0  0  0
    7.6658   -0.7230   24.9086 H   0  0  0  0  0  0  0  0  0  0  0  0
    6.4492   -0.0236   23.8276 H   0  0  0  0  0  0  0  0  0  0  0  0
    7.2932    2.5879   25.9167 H   0  0  0  0  0  0  0  0  0  0  0  0
    6.0160    1.7506   25.0149 H   0  0  0  0  0  0  0  0  0  0  0  0
    8.3388    4.3674   24.9486 H   0  0  0  0  0  0  0  0  0  0  0  0
    8.2270    6.4740   23.9735 H   0  0  0  0  0  0  0  0  0  0  0  0
    8.0700    5.3922   22.5554 H   0  0  0  0  0  0  0  0  0  0  0  0
    6.6262    6.1149   23.2927 H   0  0  0  0  0  0  0  0  0  0  0  0
  1  2  1  0
  2  3  1  0
  3  4  2  0
  3  5  1  0
  5  6  1  0
  6  7  1  0
  8  7  1  1
  8  9  1  0
  9 10  2  0
  9 11  1  0
 11 12  1  0
 12 13  2  0
 13 14  1  0
 14 15  2  0
 15 16  1  0
 16 17  2  0
 17 18  1  0
 18 19  2  0
 19 20  1  0
 20 21  2  0
 20 22  1  0
 19 23  1  0
 18 24  1  0
 17 25  1  0
 15 26  1  0
 13 27  1  0
 11 28  1  0
 28 29  1  0
 29 30  1  0
 30 31  1  0
 31 32  1  0
 32 33  2  0
 33 34  1  0
 34 35  2  0
 35 36  1  0
 36 37  1  0
 36 38  1  0
 36 39  1  0
 35 40  1  0
 33 41  1  0
 31 42  1  0
 30 43  1  0
 30 44  1  0
 29 45  1  6
 28 46  1  0
 28 47  1  0
  8 48  1  0
 48 49  2  0
 49 50  1  0
 50 51  1  0
 50 52  2  0
 52 53  1  0
 53 54  2  0
 54 55  1  0
 55 56  2  0
 53 57  1  0
 52 58  1  0
 49 59  1  0
  7 60  1  0
  7 61  1  0
  5 62  1  0
  5 63  1  0
  2 64  1  0
  1 65  1  0
  1 66  1  0
  1 67  1  0
 55  6  1  0
 29  8  1  0
 40 32  1  0
 54 48  1  0
 21 12  1  0
 21 16  1  0
M  END
>  <cnnaffinities>  (54) 
[7.58879]

>  <score>  (54) 
7.58879

>  <index>  (54) 
57

>  <Smiles>  (54) 
C(N(C(=O)C(N1C([C@@]2(C(=O)N(c3c(nc(c4c(c(c(c(c34)[H])[H])[H])[H])[H])[H])C([C@@]2(C(N(c2c(nc(C([H])([H])[H])s2)[H])[H])([H])[H])[H])([H])[H])c2c(c(Cl)c(c(c2C1=O)[H])[H])[H])([H])[H])([H])[H])[H])([H])([H])[H]

>  <h>  (54) 
<NA>

>  <Training>  (54) 
True

>  <Success>  (54) 
True

>  <enamine_searched>  (54) 
False

>  <enamine_id>  (54) 
nan

$$$$

     RDKit          3D

 38 41  0  0  0  0  0  0  0  0999 V2000
    8.6107    1.2636   20.7274 O   0  0  0  0  0  0  0  0  0  0  0  0
    7.8636    0.6707   21.4849 C   0  0  0  0  0  0  0  0  0  0  0  0
    6.9473   -0.4383   20.9214 C   0  0  0  0  0  0  0  0  0  0  0  0
    6.1074    0.0822   19.7723 C   0  0  0  0  0  0  0  0  0  0  0  0
    6.4286   -0.2021   18.4698 C   0  0  0  0  0  0  0  0  0  0  0  0
    5.7701    0.2683   17.3775 N   0  0  0  0  0  0  0  0  0  0  0  0
    4.7289    1.0333   17.5815 C   0  0  0  0  0  0  0  0  0  0  0  0
    4.2813    1.4237   18.8718 C   0  0  0  0  0  0  0  0  0  0  0  0
    3.1676    2.2842   19.0442 C   0  0  0  0  0  0  0  0  0  0  0  0
    2.7641    2.6498   20.2994 C   0  0  0  0  0  0  0  0  0  0  0  0
    3.4613    2.1699   21.4304 C   0  0  0  0  0  0  0  0  0  0  0  0
    4.5445    1.3365   21.2880 C   0  0  0  0  0  0  0  0  0  0  0  0
    4.9883    0.9408   19.9982 C   0  0  0  0  0  0  0  0  0  0  0  0
    5.0714    0.9874   22.1709 H   0  0  0  0  0  0  0  0  0  0  0  0
    3.1354    2.4672   22.4213 H   0  0  0  0  0  0  0  0  0  0  0  0
    1.9130    3.3110   20.4339 H   0  0  0  0  0  0  0  0  0  0  0  0
    2.6469    2.6514   18.1625 H   0  0  0  0  0  0  0  0  0  0  0  0
    4.1976    1.3974   16.6998 H   0  0  0  0  0  0  0  0  0  0  0  0
    7.2718   -0.8549   18.2449 H   0  0  0  0  0  0  0  0  0  0  0  0
    6.3030   -0.8993   21.6776 H   0  0  0  0  0  0  0  0  0  0  0  0
    7.6000   -1.2280   20.5334 H   0  0  0  0  0  0  0  0  0  0  0  0
    7.7612    1.0127   22.8216 N   0  0  0  0  0  0  0  0  0  0  0  0
    8.3093    2.3199   23.2099 C   0  0  0  0  0  0  0  0  0  0  0  0
    7.6741    2.8463   24.4935 C   0  0  0  0  0  0  0  0  0  0  0  0
    7.7377    1.7983   25.5535 C   0  0  0  0  0  0  0  0  0  0  0  0
    7.7854    2.0749   27.2601 S   0  0  0  0  0  0  0  0  0  0  0  0
    7.7567    0.3753   27.5650 C   0  0  0  0  0  0  0  0  0  0  0  0
    7.7083   -0.3545   26.4134 C   0  0  0  0  0  0  0  0  0  0  0  0
    7.6952    0.4764   25.2525 C   0  0  0  0  0  0  0  0  0  0  0  0
    7.5145   -0.0058   23.8386 C   0  0  0  0  0  0  0  0  0  0  0  0
    8.1573   -0.8826   23.6946 H   0  0  0  0  0  0  0  0  0  0  0  0
    6.4913   -0.3922   23.7462 H   0  0  0  0  0  0  0  0  0  0  0  0
    7.6689   -1.4416   26.3966 H   0  0  0  0  0  0  0  0  0  0  0  0
    7.8216    0.0058   28.5802 H   0  0  0  0  0  0  0  0  0  0  0  0
    8.1603    3.7689   24.8180 H   0  0  0  0  0  0  0  0  0  0  0  0
    6.6233    3.1051   24.3130 H   0  0  0  0  0  0  0  0  0  0  0  0
    9.3970    2.2732   23.3354 H   0  0  0  0  0  0  0  0  0  0  0  0
    8.1198    3.0139   22.3902 H   0  0  0  0  0  0  0  0  0  0  0  0
  1  2  2  0
  2  3  1  0
  3  4  1  0
  4  5  2  0
  5  6  1  0
  6  7  2  0
  7  8  1  0
  8  9  2  0
  9 10  1  0
 10 11  2  0
 11 12  1  0
 12 13  2  0
 12 14  1  0
 11 15  1  0
 10 16  1  0
  9 17  1  0
  7 18  1  0
  5 19  1  0
  3 20  1  0
  3 21  1  0
  2 22  1  0
 22 23  1  0
 23 24  1  0
 24 25  1  0
 25 26  1  0
 26 27  1  0
 27 28  2  0
 28 29  1  0
 29 30  1  0
 30 31  1  0
 30 32  1  0
 28 33  1  0
 27 34  1  0
 24 35  1  0
 24 36  1  0
 23 37  1  0
 23 38  1  0
 13  4  1  0
 30 22  1  0
 13  8  1  0
 29 25  2  0
M  END
>  <cnnaffinities>  (55) 
[5.22171, 5.37122, 5.29817]

>  <score>  (55) 
5.22171

>  <index>  (55) 
60

>  <Smiles>  (55) 
O=C(C(c1c(nc(c2c(c(c(c(c12)[H])[H])[H])[H])[H])[H])([H])[H])N1C(C(c2sc(c(c2C1([H])[H])[H])[H])([H])[H])([H])[H]

>  <h>  (55) 
<NA>

>  <Training>  (55) 
True

>  <Success>  (55) 
True

>  <enamine_searched>  (55) 
False

>  <enamine_id>  (55) 
nan

$$$$

     RDKit          3D

 64 70  0  0  0  0  0  0  0  0999 V2000
    9.3257    2.8344   24.8556 O   0  0  0  0  0  0  0  0  0  0  0  0
    9.0121    1.6967   24.5160 C   0  0  0  0  0  0  0  0  0  0  0  0
   10.0330    0.6842   24.1147 C   0  0  0  0  0  0  0  0  0  0  0  0
   11.3355    0.8967   24.5543 C   0  0  0  0  0  0  0  0  0  0  0  0
   12.3842    0.1170   24.0958 C   0  0  0  0  0  0  0  0  0  0  0  0
   12.0703   -0.8979   23.1870 C   0  0  0  0  0  0  0  0  0  0  0  0
   13.3424   -1.8360   22.4618 Cl  0  0  0  0  0  0  0  0  0  0  0  0
   10.7626   -1.1799   22.8155 C   0  0  0  0  0  0  0  0  0  0  0  0
    9.7026   -0.3820   23.2729 C   0  0  0  0  0  0  0  0  0  0  0  0
    8.2525   -0.5539   22.8572 C   0  0  1  0  0  0  0  0  0  0  0  0
    7.4044   -0.1068   24.0930 C   0  0  0  0  0  0  0  0  0  0  0  0
    7.7273    1.2551   24.4871 N   0  0  0  0  0  0  0  0  0  0  0  0
    6.6611    2.2023   24.7407 C   0  0  0  0  0  0  0  0  0  0  0  0
    5.8608    1.8605   25.9766 C   0  0  0  0  0  0  0  0  0  0  0  0
    6.3646    2.0603   27.2439 C   0  0  0  0  0  0  0  0  0  0  0  0
    5.5750    1.6524   28.3170 C   0  0  0  0  0  0  0  0  0  0  0  0
    4.3775    1.0844   28.1859 N   0  0  0  0  0  0  0  0  0  0  0  0
    3.8852    0.8915   26.9714 N   0  0  0  0  0  0  0  0  0  0  0  0
    4.5945    1.2692   25.9105 C   0  0  0  0  0  0  0  0  0  0  0  0
    4.1211    1.0789   24.9486 H   0  0  0  0  0  0  0  0  0  0  0  0
    5.9214    1.7948   29.3400 H   0  0  0  0  0  0  0  0  0  0  0  0
    7.3403    2.5238   27.4088 H   0  0  0  0  0  0  0  0  0  0  0  0
    7.1412    3.1789   24.8505 H   0  0  0  0  0  0  0  0  0  0  0  0
    6.0216    2.2346   23.8495 H   0  0  0  0  0  0  0  0  0  0  0  0
    7.5776   -0.7895   24.9366 H   0  0  0  0  0  0  0  0  0  0  0  0
    6.3365   -0.1481   23.8652 H   0  0  0  0  0  0  0  0  0  0  0  0
    7.8138    0.3269   21.6584 C   0  0  0  0  0  0  0  0  0  0  0  0
    8.0895    1.4903   21.4601 O   0  0  0  0  0  0  0  0  0  0  0  0
    6.9560   -0.4239   20.8732 N   0  0  0  0  0  0  0  0  0  0  0  0
    6.1791    0.1258   19.8218 C   0  0  0  0  0  0  0  0  0  0  0  0
    6.4910   -0.1937   18.5250 C   0  0  0  0  0  0  0  0  0  0  0  0
    5.8287    0.2634   17.4363 N   0  0  0  0  0  0  0  0  0  0  0  0
    4.7880    1.0311   17.6392 C   0  0  0  0  0  0  0  0  0  0  0  0
    4.3322    1.4205   18.9283 C   0  0  0  0  0  0  0  0  0  0  0  0
    3.1991    2.2621   19.0821 C   0  0  0  0  0  0  0  0  0  0  0  0
    2.7591    2.6082   20.3293 C   0  0  0  0  0  0  0  0  0  0  0  0
    3.4266    2.1191   21.4741 C   0  0  0  0  0  0  0  0  0  0  0  0
    4.5280    1.3062   21.3515 C   0  0  0  0  0  0  0  0  0  0  0  0
    5.0266    0.9476   20.0660 C   0  0  0  0  0  0  0  0  0  0  0  0
    5.0156    0.9220   22.2423 H   0  0  0  0  0  0  0  0  0  0  0  0
    3.0586    2.3952   22.4581 H   0  0  0  0  0  0  0  0  0  0  0  0
    1.8964    3.2586   20.4425 H   0  0  0  0  0  0  0  0  0  0  0  0
    2.7005    2.6238   18.1863 H   0  0  0  0  0  0  0  0  0  0  0  0
    4.2441    1.3857   16.7628 H   0  0  0  0  0  0  0  0  0  0  0  0
    7.3379   -0.8494   18.3276 H   0  0  0  0  0  0  0  0  0  0  0  0
    6.7629   -1.7867   21.3314 C   0  0  0  0  0  0  0  0  0  0  0  0
    7.9024   -1.9665   22.3410 C   0  0  2  0  0  0  0  0  0  0  0  0
    7.5963   -2.9632   23.4599 C   0  0  0  0  0  0  0  0  0  0  0  0
    7.5218   -4.3278   22.9847 N   0  0  0  0  0  0  0  0  0  0  0  0
    6.3390   -4.8770   22.6194 C   0  0  0  0  0  0  0  0  0  0  0  0
    5.1707   -4.3259   22.8279 N   0  0  0  0  0  0  0  0  0  0  0  0
    4.1335   -5.1418   22.4592 N   0  0  0  0  0  0  0  0  0  0  0  0
    4.5285   -6.2672   21.9690 C   0  0  0  0  0  0  0  0  0  0  0  0
    6.2515   -6.4442   21.8590 S   0  0  0  0  0  0  0  0  0  0  0  0
    3.8538   -7.0542   21.6545 H   0  0  0  0  0  0  0  0  0  0  0  0
    8.3818   -4.7923   22.7415 H   0  0  0  0  0  0  0  0  0  0  0  0
    6.6335   -2.7126   23.9211 H   0  0  0  0  0  0  0  0  0  0  0  0
    8.3762   -2.8883   24.2293 H   0  0  0  0  0  0  0  0  0  0  0  0
    8.7629   -2.3242   21.7607 H   0  0  0  0  0  0  0  0  0  0  0  0
    5.7766   -1.9305   21.7949 H   0  0  0  0  0  0  0  0  0  0  0  0
    6.8209   -2.4882   20.4930 H   0  0  0  0  0  0  0  0  0  0  0  0
   10.5978   -2.0353   22.1772 H   0  0  0  0  0  0  0  0  0  0  0  0
   13.4076    0.3308   24.3976 H   0  0  0  0  0  0  0  0  0  0  0  0
   11.4510    1.7310   25.2321 H   0  0  0  0  0  0  0  0  0  0  0  0
  1  2  2  0
  2  3  1  0
  3  4  2  0
  4  5  1  0
  5  6  2  0
  6  7  1  0
  6  8  1  0
  8  9  2  0
  9 10  1  0
 10 11  1  1
 11 12  1  0
 12 13  1  0
 13 14  1  0
 14 15  2  0
 15 16  1  0
 16 17  2  0
 17 18  1  0
 18 19  2  0
 19 20  1  0
 16 21  1  0
 15 22  1  0
 13 23  1  0
 13 24  1  0
 11 25  1  0
 11 26  1  0
 10 27  1  0
 27 28  2  0
 27 29  1  0
 29 30  1  0
 30 31  2  0
 31 32  1  0
 32 33  2  0
 33 34  1  0
 34 35  2  0
 35 36  1  0
 36 37  2  0
 37 38  1  0
 38 39  2  0
 38 40  1  0
 37 41  1  0
 36 42  1  0
 35 43  1  0
 33 44  1  0
 31 45  1  0
 29 46  1  0
 46 47  1  0
 47 48  1  0
 48 49  1  0
 49 50  1  0
 50 51  2  0
 51 52  1  0
 52 53  2  0
 53 54  1  0
 53 55  1  0
 49 56  1  0
 48 57  1  0
 48 58  1  0
 47 59  1  6
 46 60  1  0
 46 61  1  0
  8 62  1  0
  5 63  1  0
  4 64  1  0
 12  2  1  0
 19 14  1  0
 39 30  1  0
 54 50  1  0
  9  3  1  0
 47 10  1  0
 39 34  1  0
M  END
>  <cnnaffinities>  (56) 
[7.53349, 7.50579]

>  <score>  (56) 
7.53349

>  <index>  (56) 
61

>  <Smiles>  (56) 
O=C1c2c(c(c(Cl)c(c2[C@@]2(C(N1C(c1c(c(nnc1[H])[H])[H])([H])[H])([H])[H])C(=O)N(c1c(nc(c3c(c(c(c(c13)[H])[H])[H])[H])[H])[H])C([C@@]2(C(N(c1nnc(s1)[H])[H])([H])[H])[H])([H])[H])[H])[H])[H]

>  <h>  (56) 
<NA>

>  <Training>  (56) 
True

>  <Success>  (56) 
True

>  <enamine_searched>  (56) 
False

>  <enamine_id>  (56) 
nan

$$$$

     RDKit          3D

 70 76  0  0  0  0  0  0  0  0999 V2000
    7.3071   -3.0314   23.5385 C   0  0  0  0  0  0  0  0  0  0  0  0
    7.6018   -2.2196   22.2844 C   0  0  1  0  0  0  0  0  0  0  0  0
    6.3579   -1.6971   21.5525 C   0  0  0  0  0  0  0  0  0  0  0  0
    6.8621   -0.5364   20.8431 N   0  0  0  0  0  0  0  0  0  0  0  0
    6.1568    0.0933   19.7885 C   0  0  0  0  0  0  0  0  0  0  0  0
    6.5124   -0.1584   18.4888 C   0  0  0  0  0  0  0  0  0  0  0  0
    5.8436    0.3112   17.4083 N   0  0  0  0  0  0  0  0  0  0  0  0
    4.7861    1.0504   17.6232 C   0  0  0  0  0  0  0  0  0  0  0  0
    4.3237    1.4179   18.9170 C   0  0  0  0  0  0  0  0  0  0  0  0
    3.1996    2.2649   19.0862 C   0  0  0  0  0  0  0  0  0  0  0  0
    2.7903    2.6269   20.3403 C   0  0  0  0  0  0  0  0  0  0  0  0
    3.4856    2.1535   21.4770 C   0  0  0  0  0  0  0  0  0  0  0  0
    4.5747    1.3261   21.3400 C   0  0  0  0  0  0  0  0  0  0  0  0
    5.0257    0.9318   20.0473 C   0  0  0  0  0  0  0  0  0  0  0  0
    5.0926    0.9723   22.2281 H   0  0  0  0  0  0  0  0  0  0  0  0
    3.1655    2.4699   22.4673 H   0  0  0  0  0  0  0  0  0  0  0  0
    1.9387    3.2882   20.4711 H   0  0  0  0  0  0  0  0  0  0  0  0
    2.6887    2.6286   18.1980 H   0  0  0  0  0  0  0  0  0  0  0  0
    4.2385    1.4112   16.7502 H   0  0  0  0  0  0  0  0  0  0  0  0
    7.3749   -0.7871   18.2823 H   0  0  0  0  0  0  0  0  0  0  0  0
    8.1061   -0.1174   21.2597 C   0  0  0  0  0  0  0  0  0  0  0  0
    8.7346    0.7791   20.7312 O   0  0  0  0  0  0  0  0  0  0  0  0
    8.4846   -0.9586   22.5098 C   0  0  1  0  0  0  0  0  0  0  0  0
    8.0542   -0.1943   23.7891 C   0  0  0  0  0  0  0  0  0  0  0  0
    8.9298    0.9350   24.0440 N   0  0  0  0  0  0  0  0  0  0  0  0
    8.3589    2.2430   24.3335 C   0  0  0  0  0  0  0  0  0  0  0  0
    7.8792    2.9396   23.0532 C   0  0  0  0  0  0  0  0  0  0  0  0
    7.1453    4.2062   23.3263 N   0  0  2  0  0  4  0  0  0  0  0  0
    6.4375    4.7877   22.1305 C   0  0  0  0  0  0  0  0  0  0  0  0
    6.2323    6.2564   22.4696 C   0  0  0  0  0  0  0  0  0  0  0  0
    7.4626    6.6523   23.2945 C   0  0  0  0  0  0  0  0  0  0  0  0
    8.5139    7.5356   22.5925 C   0  0  0  0  0  0  0  0  0  0  0  0
    8.3177    8.6167   23.5092 O   0  0  0  0  0  0  0  0  0  0  0  0
    7.3204    7.8749   24.2206 C   0  0  0  0  0  0  0  0  0  0  0  0
    7.6084    7.7147   25.2671 H   0  0  0  0  0  0  0  0  0  0  0  0
    6.3435    8.3759   24.1769 H   0  0  0  0  0  0  0  0  0  0  0  0
    9.5448    7.1613   22.6217 H   0  0  0  0  0  0  0  0  0  0  0  0
    8.2473    7.8172   21.5681 H   0  0  0  0  0  0  0  0  0  0  0  0
    7.9861    5.3371   23.8946 C   0  0  0  0  0  0  0  0  0  0  0  0
    9.0265    5.1502   23.6114 H   0  0  0  0  0  0  0  0  0  0  0  0
    7.9138    5.3123   24.9859 H   0  0  0  0  0  0  0  0  0  0  0  0
    5.3196    6.3806   23.0675 H   0  0  0  0  0  0  0  0  0  0  0  0
    6.1190    6.8638   21.5644 H   0  0  0  0  0  0  0  0  0  0  0  0
    7.0855    4.6755   21.2570 H   0  0  0  0  0  0  0  0  0  0  0  0
    5.5044    4.2524   21.9423 H   0  0  0  0  0  0  0  0  0  0  0  0
    6.4043    3.9702   24.0182 H   0  0  0  0  0  0  0  0  0  0  0  0
    8.7277    3.1452   22.3863 H   0  0  0  0  0  0  0  0  0  0  0  0
    7.2062    2.2647   22.5116 H   0  0  0  0  0  0  0  0  0  0  0  0
    7.5039    2.1208   25.0188 H   0  0  0  0  0  0  0  0  0  0  0  0
    9.1246    2.8227   24.8579 H   0  0  0  0  0  0  0  0  0  0  0  0
   10.2516    0.6565   24.2945 C   0  0  0  0  0  0  0  0  0  0  0  0
   10.9543    1.3025   25.0562 O   0  0  0  0  0  0  0  0  0  0  0  0
   10.7975   -0.4913   23.4723 C   0  0  0  0  0  0  0  0  0  0  0  0
   12.1833   -0.6578   23.4311 C   0  0  0  0  0  0  0  0  0  0  0  0
   12.7736   -1.5185   22.5219 C   0  0  0  0  0  0  0  0  0  0  0  0
   11.9497   -2.2720   21.6813 C   0  0  0  0  0  0  0  0  0  0  0  0
   12.6478   -3.4114   20.5562 Cl  0  0  0  0  0  0  0  0  0  0  0  0
   10.5752   -2.1546   21.7411 C   0  0  0  0  0  0  0  0  0  0  0  0
    9.9715   -1.2301   22.6096 C   0  0  0  0  0  0  0  0  0  0  0  0
    9.9867   -2.8175   21.1155 H   0  0  0  0  0  0  0  0  0  0  0  0
   13.8516   -1.6080   22.4520 H   0  0  0  0  0  0  0  0  0  0  0  0
   12.7813   -0.0458   24.0990 H   0  0  0  0  0  0  0  0  0  0  0  0
    8.1242   -0.8902   24.6395 H   0  0  0  0  0  0  0  0  0  0  0  0
    7.0172    0.1569   23.7219 H   0  0  0  0  0  0  0  0  0  0  0  0
    5.5536   -1.4359   22.2566 H   0  0  0  0  0  0  0  0  0  0  0  0
    5.9521   -2.4297   20.8480 H   0  0  0  0  0  0  0  0  0  0  0  0
    8.1232   -2.8644   21.5690 H   0  0  0  0  0  0  0  0  0  0  0  0
    6.6795   -2.4583   24.2332 H   0  0  0  0  0  0  0  0  0  0  0  0
    8.2425   -3.2820   24.0538 H   0  0  0  0  0  0  0  0  0  0  0  0
    6.7815   -3.9607   23.2957 H   0  0  0  0  0  0  0  0  0  0  0  0
  1  2  1  0
  2  3  1  0
  3  4  1  0
  4  5  1  0
  5  6  2  0
  6  7  1  0
  7  8  2  0
  8  9  1  0
  9 10  2  0
 10 11  1  0
 11 12  2  0
 12 13  1  0
 13 14  2  0
 13 15  1  0
 12 16  1  0
 11 17  1  0
 10 18  1  0
  8 19  1  0
  6 20  1  0
  4 21  1  0
 21 22  2  0
 21 23  1  0
 23 24  1  1
 24 25  1  0
 25 26  1  0
 26 27  1  0
 27 28  1  0
 28 29  1  0
 29 30  1  0
 30 31  1  0
 31 32  1  0
 32 33  1  0
 33 34  1  0
 34 35  1  0
 34 36  1  0
 32 37  1  0
 32 38  1  0
 31 39  1  0
 39 40  1  0
 39 41  1  0
 30 42  1  0
 30 43  1  0
 29 44  1  0
 29 45  1  0
 28 46  1  1
 27 47  1  0
 27 48  1  0
 26 49  1  0
 26 50  1  0
 25 51  1  0
 51 52  2  0
 51 53  1  0
 53 54  2  0
 54 55  1  0
 55 56  2  0
 56 57  1  0
 56 58  1  0
 58 59  2  0
 58 60  1  0
 55 61  1  0
 54 62  1  0
 24 63  1  0
 24 64  1  0
  3 65  1  0
  3 66  1  0
  2 67  1  6
  1 68  1  0
  1 69  1  0
  1 70  1  0
 23  2  1  0
 39 28  1  0
 59 53  1  0
 14  5  1  0
 59 23  1  0
 14  9  1  0
 34 31  1  0
M  CHG  1  28   1
M  END
>  <cnnaffinities>  (57) 
[7.42398]

>  <score>  (57) 
7.42398

>  <index>  (57) 
62

>  <Smiles>  (57) 
C([C@]1(C(N(c2c(nc(c3c(c(c(c(c23)[H])[H])[H])[H])[H])[H])C(=O)[C@]21C(N(C(C([N@@+]1(C(C(C3(C(OC3([H])[H])([H])[H])C1([H])[H])([H])[H])([H])[H])[H])([H])[H])([H])[H])C(=O)c1c(c(c(Cl)c(c21)[H])[H])[H])([H])[H])([H])[H])[H])([H])([H])[H]

>  <h>  (57) 
<NA>

>  <Training>  (57) 
True

>  <Success>  (57) 
True

>  <enamine_searched>  (57) 
False

>  <enamine_id>  (57) 
nan

$$$$

     RDKit          3D

 66 71  0  0  0  0  0  0  0  0999 V2000
    7.3031   -3.1080   23.4610 C   0  0  0  0  0  0  0  0  0  0  0  0
    7.5879   -2.2900   22.2093 C   0  0  1  0  0  0  0  0  0  0  0  0
    6.3259   -1.7044   21.5571 C   0  0  0  0  0  0  0  0  0  0  0  0
    6.8356   -0.5587   20.8306 N   0  0  0  0  0  0  0  0  0  0  0  0
    6.1304    0.0722   19.7759 C   0  0  0  0  0  0  0  0  0  0  0  0
    6.4767   -0.1942   18.4748 C   0  0  0  0  0  0  0  0  0  0  0  0
    5.8127    0.2865   17.3975 N   0  0  0  0  0  0  0  0  0  0  0  0
    4.7639    1.0418   17.6115 C   0  0  0  0  0  0  0  0  0  0  0  0
    4.3141    1.4209   18.9064 C   0  0  0  0  0  0  0  0  0  0  0  0
    3.2007    2.2860   19.0771 C   0  0  0  0  0  0  0  0  0  0  0  0
    2.8043    2.6587   20.3321 C   0  0  0  0  0  0  0  0  0  0  0  0
    3.4982    2.1879   21.4644 C   0  0  0  0  0  0  0  0  0  0  0  0
    4.5770    1.3417   21.3273 C   0  0  0  0  0  0  0  0  0  0  0  0
    5.0132    0.9319   20.0335 C   0  0  0  0  0  0  0  0  0  0  0  0
    5.0972    0.9936   22.2134 H   0  0  0  0  0  0  0  0  0  0  0  0
    3.1789    2.5031   22.4556 H   0  0  0  0  0  0  0  0  0  0  0  0
    1.9544    3.3244   20.4559 H   0  0  0  0  0  0  0  0  0  0  0  0
    2.6877    2.6470   18.1912 H   0  0  0  0  0  0  0  0  0  0  0  0
    4.2164    1.4046   16.7400 H   0  0  0  0  0  0  0  0  0  0  0  0
    7.3256   -0.8435   18.2661 H   0  0  0  0  0  0  0  0  0  0  0  0
    8.1093   -0.1898   21.2017 C   0  0  0  0  0  0  0  0  0  0  0  0
    8.7339    0.7191   20.6925 O   0  0  0  0  0  0  0  0  0  0  0  0
    8.5276   -1.0737   22.4063 C   0  0  1  0  0  0  0  0  0  0  0  0
    8.1997   -0.3343   23.7219 C   0  0  0  0  0  0  0  0  0  0  0  0
    9.0911    0.7853   23.9381 N   0  0  0  0  0  0  0  0  0  0  0  0
    8.5469    2.0963   24.2564 C   0  0  0  0  0  0  0  0  0  0  0  0
    7.9434    2.7933   23.0272 C   0  0  0  0  0  0  0  0  0  0  0  0
    7.2275    4.0674   23.3262 N   0  0  0  0  0  4  0  0  0  0  0  0
    6.7999    4.7791   22.0626 C   0  0  0  0  0  0  0  0  0  0  0  0
    6.1529    6.1415   22.3936 C   0  0  0  0  0  0  0  0  0  0  0  0
    5.8551    6.2480   23.7714 O   0  0  0  0  0  0  0  0  0  0  0  0
    5.1289    5.1183   24.2030 C   0  0  0  0  0  0  0  0  0  0  0  0
    6.0566    3.8954   24.2764 C   0  0  0  0  0  0  0  0  0  0  0  0
    6.4541    3.7926   25.2879 H   0  0  0  0  0  0  0  0  0  0  0  0
    5.5138    2.9811   24.0205 H   0  0  0  0  0  0  0  0  0  0  0  0
    4.7235    5.3550   25.1919 H   0  0  0  0  0  0  0  0  0  0  0  0
    4.2775    4.9222   23.5294 H   0  0  0  0  0  0  0  0  0  0  0  0
    6.8204    6.9765   22.1615 H   0  0  0  0  0  0  0  0  0  0  0  0
    5.2356    6.2709   21.7924 H   0  0  0  0  0  0  0  0  0  0  0  0
    6.0947    4.1363   21.5226 H   0  0  0  0  0  0  0  0  0  0  0  0
    7.6777    4.9155   21.4232 H   0  0  0  0  0  0  0  0  0  0  0  0
    7.8908    4.7113   23.7914 H   0  0  0  0  0  0  0  0  0  0  0  0
    8.7220    2.9932   22.2847 H   0  0  0  0  0  0  0  0  0  0  0  0
    7.2249    2.1273   22.5390 H   0  0  0  0  0  0  0  0  0  0  0  0
    7.7703    1.9519   25.0164 H   0  0  0  0  0  0  0  0  0  0  0  0
    9.3528    2.6826   24.7022 H   0  0  0  0  0  0  0  0  0  0  0  0
   10.4186    0.4755   24.1119 C   0  0  0  0  0  0  0  0  0  0  0  0
   11.1802    1.0771   24.8534 O   0  0  0  0  0  0  0  0  0  0  0  0
   10.9002   -0.6444   23.2185 C   0  0  0  0  0  0  0  0  0  0  0  0
   12.2859   -0.8065   23.0992 C   0  0  0  0  0  0  0  0  0  0  0  0
   12.8102   -1.7519   22.2376 C   0  0  0  0  0  0  0  0  0  0  0  0
   11.9171   -2.5511   21.5193 C   0  0  0  0  0  0  0  0  0  0  0  0
   12.5474   -3.6611   20.3322 Cl  0  0  0  0  0  0  0  0  0  0  0  0
   10.5449   -2.3940   21.6159 C   0  0  0  0  0  0  0  0  0  0  0  0
   10.0075   -1.3994   22.4431 C   0  0  0  0  0  0  0  0  0  0  0  0
    9.9064   -3.0160   20.9966 H   0  0  0  0  0  0  0  0  0  0  0  0
   13.8835   -1.8450   22.0858 H   0  0  0  0  0  0  0  0  0  0  0  0
   12.9233   -0.1197   23.6489 H   0  0  0  0  0  0  0  0  0  0  0  0
    7.1615    0.0080   23.7492 H   0  0  0  0  0  0  0  0  0  0  0  0
    8.3270   -1.0577   24.5383 H   0  0  0  0  0  0  0  0  0  0  0  0
    5.8377   -2.4089   20.8742 H   0  0  0  0  0  0  0  0  0  0  0  0
    5.5936   -1.4043   22.3233 H   0  0  0  0  0  0  0  0  0  0  0  0
    8.0538   -2.9378   21.4627 H   0  0  0  0  0  0  0  0  0  0  0  0
    6.7003   -3.9916   23.2324 H   0  0  0  0  0  0  0  0  0  0  0  0
    6.7427   -2.5093   24.1879 H   0  0  0  0  0  0  0  0  0  0  0  0
    8.2276   -3.4405   23.9462 H   0  0  0  0  0  0  0  0  0  0  0  0
  1  2  1  0
  2  3  1  0
  3  4  1  0
  4  5  1  0
  5  6  2  0
  6  7  1  0
  7  8  2  0
  8  9  1  0
  9 10  2  0
 10 11  1  0
 11 12  2  0
 12 13  1  0
 13 14  2  0
 13 15  1  0
 12 16  1  0
 11 17  1  0
 10 18  1  0
  8 19  1  0
  6 20  1  0
  4 21  1  0
 21 22  2  0
 21 23  1  0
 23 24  1  1
 24 25  1  0
 25 26  1  0
 26 27  1  0
 27 28  1  0
 28 29  1  0
 29 30  1  0
 30 31  1  0
 31 32  1  0
 32 33  1  0
 33 34  1  0
 33 35  1  0
 32 36  1  0
 32 37  1  0
 30 38  1  0
 30 39  1  0
 29 40  1  0
 29 41  1  0
 28 42  1  0
 27 43  1  0
 27 44  1  0
 26 45  1  0
 26 46  1  0
 25 47  1  0
 47 48  2  0
 47 49  1  0
 49 50  2  0
 50 51  1  0
 51 52  2  0
 52 53  1  0
 52 54  1  0
 54 55  2  0
 54 56  1  0
 51 57  1  0
 50 58  1  0
 24 59  1  0
 24 60  1  0
  3 61  1  0
  3 62  1  0
  2 63  1  6
  1 64  1  0
  1 65  1  0
  1 66  1  0
 23  2  1  0
 33 28  1  0
 55 49  1  0
 14  5  1  0
 55 23  1  0
 14  9  1  0
M  CHG  1  28   1
M  END
>  <cnnaffinities>  (58) 
[7.21531, 7.28491, 7.07669]

>  <score>  (58) 
7.21531

>  <index>  (58) 
64

>  <Smiles>  (58) 
C([C@]1(C(N(c2c(nc(c3c(c(c(c(c23)[H])[H])[H])[H])[H])[H])C(=O)[C@]21C(N(C(C([N+]1(C(C(OC(C1([H])[H])([H])[H])([H])[H])([H])[H])[H])([H])[H])([H])[H])C(=O)c1c(c(c(Cl)c(c21)[H])[H])[H])([H])[H])([H])[H])[H])([H])([H])[H]

>  <h>  (58) 
<NA>

>  <Training>  (58) 
True

>  <Success>  (58) 
True

>  <enamine_searched>  (58) 
False

>  <enamine_id>  (58) 
nan

$$$$

     RDKit          3D

 54 59  0  0  0  0  0  0  0  0999 V2000
   12.6750   -2.6215   20.9464 C   0  0  0  0  0  0  0  0  0  0  0  0
   12.1289   -2.1922   22.2165 N   0  0  0  0  0  0  0  0  0  0  0  0
   12.4703   -1.0135   22.7977 C   0  0  0  0  0  0  0  0  0  0  0  0
   13.3462   -0.2897   22.3583 O   0  0  0  0  0  0  0  0  0  0  0  0
   11.7636   -0.7129   24.1258 C   0  0  0  0  0  0  0  0  0  0  0  0
   10.3145   -0.8228   24.1479 N   0  0  0  0  0  0  0  0  0  0  0  0
    9.6373   -1.5876   25.1071 C   0  0  0  0  0  0  0  0  0  0  0  0
   10.0779   -2.5758   25.6631 O   0  0  0  0  0  0  0  0  0  0  0  0
    8.2654   -1.0140   25.2344 C   0  0  0  0  0  0  0  0  0  0  0  0
    7.2698   -1.3538   26.1153 C   0  0  0  0  0  0  0  0  0  0  0  0
    6.0861   -0.5747   26.1312 C   0  0  0  0  0  0  0  0  0  0  0  0
    5.9965    0.5640   25.3736 C   0  0  0  0  0  0  0  0  0  0  0  0
    4.5413    1.5123   25.4167 Cl  0  0  0  0  0  0  0  0  0  0  0  0
    7.1124    1.1067   24.5534 C   0  0  0  0  0  0  0  0  0  0  0  0
    8.0936    0.0013   24.2137 C   0  0  1  0  0  0  0  0  0  0  0  0
    9.4307    0.1426   23.5576 C   0  0  2  0  0  0  0  0  0  0  0  0
    8.2947   -0.3826   22.7183 C   0  0  2  0  0  0  0  0  0  0  0  0
    7.7576    0.5172   21.6198 C   0  0  0  0  0  0  0  0  0  0  0  0
    7.9496    1.7000   21.4306 O   0  0  0  0  0  0  0  0  0  0  0  0
    6.9358   -0.2666   20.8350 N   0  0  0  0  0  0  0  0  0  0  0  0
    6.1696    0.2410   19.7621 C   0  0  0  0  0  0  0  0  0  0  0  0
    6.5029   -0.0645   18.4664 C   0  0  0  0  0  0  0  0  0  0  0  0
    5.8209    0.3757   17.3843 N   0  0  0  0  0  0  0  0  0  0  0  0
    4.7606    1.1145   17.6006 C   0  0  0  0  0  0  0  0  0  0  0  0
    4.2979    1.4896   18.8933 C   0  0  0  0  0  0  0  0  0  0  0  0
    3.1557    2.3090   19.0828 C   0  0  0  0  0  0  0  0  0  0  0  0
    2.7245    2.6156   20.3432 C   0  0  0  0  0  0  0  0  0  0  0  0
    3.4005    2.1132   21.4776 C   0  0  0  0  0  0  0  0  0  0  0  0
    4.5128    1.3254   21.3200 C   0  0  0  0  0  0  0  0  0  0  0  0
    5.0044    1.0235   20.0193 C   0  0  0  0  0  0  0  0  0  0  0  0
    5.0125    0.9290   22.1985 H   0  0  0  0  0  0  0  0  0  0  0  0
    3.0542    2.3551   22.4785 H   0  0  0  0  0  0  0  0  0  0  0  0
    1.8578    3.2543   20.4800 H   0  0  0  0  0  0  0  0  0  0  0  0
    2.6471    2.6936   18.2044 H   0  0  0  0  0  0  0  0  0  0  0  0
    4.2117    1.4597   16.7268 H   0  0  0  0  0  0  0  0  0  0  0  0
    7.3734   -0.6874   18.2619 H   0  0  0  0  0  0  0  0  0  0  0  0
    7.0185   -1.6819   21.1102 C   0  0  0  0  0  0  0  0  0  0  0  0
    7.9934   -1.7657   22.2617 C   0  0  0  0  0  0  0  0  0  0  0  0
    8.3338   -2.9574   22.7610 C   0  0  0  0  0  0  0  0  0  0  0  0
    7.6853   -4.0590   22.3233 F   0  0  0  0  0  0  0  0  0  0  0  0
    9.0923   -3.1992   23.4976 H   0  0  0  0  0  0  0  0  0  0  0  0
    7.3536   -2.2360   20.2310 H   0  0  0  0  0  0  0  0  0  0  0  0
    6.0313   -2.0645   21.3866 H   0  0  0  0  0  0  0  0  0  0  0  0
    9.8025    1.1428   23.3717 H   0  0  0  0  0  0  0  0  0  0  0  0
    7.6457    1.9183   25.0874 H   0  0  0  0  0  0  0  0  0  0  0  0
    6.7069    1.5914   23.6541 H   0  0  0  0  0  0  0  0  0  0  0  0
    5.2447   -0.8579   26.7622 H   0  0  0  0  0  0  0  0  0  0  0  0
    7.3781   -2.2039   26.7815 H   0  0  0  0  0  0  0  0  0  0  0  0
   12.1222    0.2636   24.4793 H   0  0  0  0  0  0  0  0  0  0  0  0
   12.1238   -1.4817   24.8068 H   0  0  0  0  0  0  0  0  0  0  0  0
   11.2887   -2.6387   22.5392 H   0  0  0  0  0  0  0  0  0  0  0  0
   13.7233   -2.3268   20.8663 H   0  0  0  0  0  0  0  0  0  0  0  0
   12.6028   -3.7107   20.8959 H   0  0  0  0  0  0  0  0  0  0  0  0
   12.1400   -2.1739   20.1035 H   0  0  0  0  0  0  0  0  0  0  0  0
  1  2  1  0
  2  3  1  0
  3  4  2  0
  3  5  1  0
  5  6  1  0
  6  7  1  0
  7  8  2  0
  7  9  1  0
  9 10  2  0
 10 11  1  0
 11 12  2  0
 12 13  1  0
 12 14  1  0
 15 14  1  6
 15 16  1  0
 16 17  1  0
 17 18  1  6
 18 19  2  0
 18 20  1  0
 20 21  1  0
 21 22  2  0
 22 23  1  0
 23 24  2  0
 24 25  1  0
 25 26  2  0
 26 27  1  0
 27 28  2  0
 28 29  1  0
 29 30  2  0
 29 31  1  0
 28 32  1  0
 27 33  1  0
 26 34  1  0
 24 35  1  0
 22 36  1  0
 20 37  1  0
 37 38  1  0
 38 39  2  0
 39 40  1  0
 39 41  1  0
 37 42  1  0
 37 43  1  0
 16 44  1  6
 14 45  1  0
 14 46  1  0
 11 47  1  0
 10 48  1  0
  5 49  1  0
  5 50  1  0
  2 51  1  0
  1 52  1  0
  1 53  1  0
  1 54  1  0
 16  6  1  0
 38 17  1  0
 15  9  1  0
 30 21  1  0
 17 15  1  0
 30 25  1  0
M  END
>  <cnnaffinities>  (59) 
[6.72096]

>  <score>  (59) 
6.72096

>  <index>  (59) 
65

>  <Smiles>  (59) 
C(N(C(=O)C(N1C(=O)C2=C(C(=C(Cl)C([C@]32[C@@]1([C@@]13C(=O)N(c2c(nc(c3c(c(c(c(c23)[H])[H])[H])[H])[H])[H])C(/C/1=C(\F)/[H])([H])[H])[H])([H])[H])[H])[H])([H])[H])[H])([H])([H])[H]

>  <h>  (59) 
<NA>

>  <Training>  (59) 
True

>  <Success>  (59) 
True

>  <enamine_searched>  (59) 
False

>  <enamine_id>  (59) 
nan

$$$$

     RDKit          3D

 47 50  0  0  0  0  0  0  0  0999 V2000
    8.6940    1.2014   20.6363 O   0  0  0  0  0  0  0  0  0  0  0  0
    7.8925    0.6968   21.3902 C   0  0  0  0  0  0  0  0  0  0  0  0
    6.9650   -0.4343   20.9094 C   0  0  0  0  0  0  0  0  0  0  0  0
    6.1067    0.0800   19.7720 C   0  0  0  0  0  0  0  0  0  0  0  0
    6.4302   -0.2001   18.4715 C   0  0  0  0  0  0  0  0  0  0  0  0
    5.7737    0.2734   17.3812 N   0  0  0  0  0  0  0  0  0  0  0  0
    4.7310    1.0370   17.5860 C   0  0  0  0  0  0  0  0  0  0  0  0
    4.2825    1.4241   18.8735 C   0  0  0  0  0  0  0  0  0  0  0  0
    3.1717    2.2860   19.0471 C   0  0  0  0  0  0  0  0  0  0  0  0
    2.7684    2.6553   20.3012 C   0  0  0  0  0  0  0  0  0  0  0  0
    3.4646    2.1732   21.4316 C   0  0  0  0  0  0  0  0  0  0  0  0
    4.5445    1.3362   21.2873 C   0  0  0  0  0  0  0  0  0  0  0  0
    4.9909    0.9404   20.0007 C   0  0  0  0  0  0  0  0  0  0  0  0
    5.0615    0.9732   22.1679 H   0  0  0  0  0  0  0  0  0  0  0  0
    3.1349    2.4699   22.4230 H   0  0  0  0  0  0  0  0  0  0  0  0
    1.9193    3.3213   20.4319 H   0  0  0  0  0  0  0  0  0  0  0  0
    2.6558    2.6533   18.1633 H   0  0  0  0  0  0  0  0  0  0  0  0
    4.1990    1.3949   16.7020 H   0  0  0  0  0  0  0  0  0  0  0  0
    7.2713   -0.8530   18.2393 H   0  0  0  0  0  0  0  0  0  0  0  0
    6.3435   -0.8176   21.7280 H   0  0  0  0  0  0  0  0  0  0  0  0
    7.5908   -1.2534   20.5342 H   0  0  0  0  0  0  0  0  0  0  0  0
    7.6776    1.1691   22.6910 N   0  0  0  0  0  0  0  0  0  0  0  0
    7.7792    0.3111   23.8639 C   0  0  0  0  0  0  0  0  0  0  0  0
    6.7864    0.7561   24.9309 C   0  0  0  0  0  0  0  0  0  0  0  0
    6.9165    2.2422   25.2692 C   0  0  1  0  0  0  0  0  0  0  0  0
    8.1451    2.5515   26.1326 C   0  0  0  0  0  0  0  0  0  0  0  0
    8.2093    4.0347   26.4950 C   0  0  0  0  0  0  0  0  0  0  0  0
    8.1952    4.8982   25.2555 C   0  0  0  0  0  0  0  0  0  0  0  0
    8.1433    6.2197   25.6220 F   0  0  0  0  0  0  0  0  0  0  0  0
    9.3951    4.7405   24.5963 F   0  0  0  0  0  0  0  0  0  0  0  0
    7.0475    4.5852   24.3134 C   0  0  0  0  0  0  0  0  0  0  0  0
    6.8927    3.0907   23.9866 C   0  0  1  0  0  0  0  0  0  0  0  0
    7.9062    2.5827   22.9510 C   0  0  0  0  0  0  0  0  0  0  0  0
    7.7567    3.1050   22.0055 H   0  0  0  0  0  0  0  0  0  0  0  0
    8.9352    2.8022   23.2619 H   0  0  0  0  0  0  0  0  0  0  0  0
    5.9054    2.9589   23.5225 H   0  0  0  0  0  0  0  0  0  0  0  0
    7.1770    5.1819   23.4063 H   0  0  0  0  0  0  0  0  0  0  0  0
    6.1467    4.9569   24.8132 H   0  0  0  0  0  0  0  0  0  0  0  0
    9.0997    4.2965   27.0681 H   0  0  0  0  0  0  0  0  0  0  0  0
    7.3438    4.3163   27.1013 H   0  0  0  0  0  0  0  0  0  0  0  0
    9.0513    2.2569   25.5957 H   0  0  0  0  0  0  0  0  0  0  0  0
    8.1131    1.9496   27.0462 H   0  0  0  0  0  0  0  0  0  0  0  0
    6.0443    2.5307   25.8701 H   0  0  0  0  0  0  0  0  0  0  0  0
    5.7747    0.5559   24.5614 H   0  0  0  0  0  0  0  0  0  0  0  0
    6.9171    0.1537   25.8370 H   0  0  0  0  0  0  0  0  0  0  0  0
    8.8000    0.3202   24.2866 H   0  0  0  0  0  0  0  0  0  0  0  0
    7.5873   -0.7176   23.5591 H   0  0  0  0  0  0  0  0  0  0  0  0
  1  2  2  0
  2  3  1  0
  3  4  1  0
  4  5  2  0
  5  6  1  0
  6  7  2  0
  7  8  1  0
  8  9  2  0
  9 10  1  0
 10 11  2  0
 11 12  1  0
 12 13  2  0
 12 14  1  0
 11 15  1  0
 10 16  1  0
  9 17  1  0
  7 18  1  0
  5 19  1  0
  3 20  1  0
  3 21  1  0
  2 22  1  0
 22 23  1  0
 23 24  1  0
 24 25  1  0
 25 26  1  0
 26 27  1  0
 27 28  1  0
 28 29  1  0
 28 30  1  0
 28 31  1  0
 31 32  1  0
 32 33  1  0
 33 34  1  0
 33 35  1  0
 32 36  1  6
 31 37  1  0
 31 38  1  0
 27 39  1  0
 27 40  1  0
 26 41  1  0
 26 42  1  0
 25 43  1  1
 24 44  1  0
 24 45  1  0
 23 46  1  0
 23 47  1  0
 13  4  1  0
 33 22  1  0
 13  8  1  0
 32 25  1  0
M  END
>  <cnnaffinities>  (60) 
[5.57846, 5.57846, 5.77466, 5.77471]

>  <score>  (60) 
5.57846

>  <index>  (60) 
66

>  <Smiles>  (60) 
O=C(C(c1c(nc(c2c(c(c(c(c12)[H])[H])[H])[H])[H])[H])([H])[H])N1C(C([C@]2(C(C(C(F)(F)C([C@]2(C1([H])[H])[H])([H])[H])([H])[H])([H])[H])[H])([H])[H])([H])[H]

>  <h>  (60) 
<NA>

>  <Training>  (60) 
True

>  <Success>  (60) 
True

>  <enamine_searched>  (60) 
False

>  <enamine_id>  (60) 
nan

$$$$

     RDKit          3D

 69 74  0  0  0  0  0  0  0  0999 V2000
    9.1381    4.9150   22.7800 C   0  0  0  0  0  0  0  0  0  0  0  0
    8.3603    3.7358   22.3362 N   0  0  0  0  0  4  0  0  0  0  0  0
    7.2364    3.4376   23.2564 C   0  0  0  0  0  0  0  0  0  0  0  0
    7.7269    2.8564   24.5877 C   0  0  0  0  0  0  0  0  0  0  0  0
    8.4865    1.6329   24.3867 N   0  0  0  0  0  0  0  0  0  0  0  0
    7.7593    0.3968   24.1891 C   0  0  0  0  0  0  0  0  0  0  0  0
    8.3381   -0.4304   23.0083 C   0  0  2  0  0  0  0  0  0  0  0  0
    8.0768    0.3179   21.6769 C   0  0  0  0  0  0  0  0  0  0  0  0
    8.6430    1.3316   21.2879 O   0  0  0  0  0  0  0  0  0  0  0  0
    7.0190   -0.2819   21.0335 N   0  0  0  0  0  0  0  0  0  0  0  0
    6.3319    0.2934   19.9296 C   0  0  0  0  0  0  0  0  0  0  0  0
    6.7716    0.0664   18.6506 C   0  0  0  0  0  0  0  0  0  0  0  0
    6.1097    0.4651   17.5346 N   0  0  0  0  0  0  0  0  0  0  0  0
    4.9862    1.1172   17.6994 C   0  0  0  0  0  0  0  0  0  0  0  0
    4.4397    1.4657   18.9670 C   0  0  0  0  0  0  0  0  0  0  0  0
    3.2538    2.2389   19.0891 C   0  0  0  0  0  0  0  0  0  0  0  0
    2.7759    2.5897   20.3196 C   0  0  0  0  0  0  0  0  0  0  0  0
    3.4464    2.1610   21.4868 C   0  0  0  0  0  0  0  0  0  0  0  0
    4.5826    1.3926   21.3935 C   0  0  0  0  0  0  0  0  0  0  0  0
    5.1237    1.0396   20.1247 C   0  0  0  0  0  0  0  0  0  0  0  0
    5.0795    1.0681   22.3031 H   0  0  0  0  0  0  0  0  0  0  0  0
    3.0662    2.4473   22.4600 H   0  0  0  0  0  0  0  0  0  0  0  0
    1.8821    3.2020   20.4076 H   0  0  0  0  0  0  0  0  0  0  0  0
    2.7527    2.5520   18.1773 H   0  0  0  0  0  0  0  0  0  0  0  0
    4.4494    1.4207   16.8003 H   0  0  0  0  0  0  0  0  0  0  0  0
    7.6967   -0.4833   18.4937 H   0  0  0  0  0  0  0  0  0  0  0  0
    6.4281   -1.3764   21.7864 C   0  0  0  0  0  0  0  0  0  0  0  0
    7.5441   -1.7494   22.7643 C   0  0  2  0  0  0  0  0  0  0  0  0
    7.0381   -2.4909   23.9955 C   0  0  0  0  0  0  0  0  0  0  0  0
    5.9750   -1.7507   24.5682 O   0  0  0  0  0  0  0  0  0  0  0  0
    5.6924   -2.0352   25.9175 C   0  0  0  0  0  0  0  0  0  0  0  0
    4.5093   -2.9645   26.0407 C   0  0  0  0  0  0  0  0  0  0  0  0
    3.3317   -2.3105   25.7539 F   0  0  0  0  0  0  0  0  0  0  0  0
    4.6136   -4.3958   25.6263 C   0  0  0  0  0  0  0  0  0  0  0  0
    4.4766   -4.0163   27.0923 C   0  0  0  0  0  0  0  0  0  0  0  0
    3.5275   -4.2354   27.5681 H   0  0  0  0  0  0  0  0  0  0  0  0
    5.3437   -4.1229   27.7398 H   0  0  0  0  0  0  0  0  0  0  0  0
    3.7523   -4.8533   25.1434 H   0  0  0  0  0  0  0  0  0  0  0  0
    5.5810   -4.7398   25.2713 H   0  0  0  0  0  0  0  0  0  0  0  0
    6.5768   -2.4558   26.4292 H   0  0  0  0  0  0  0  0  0  0  0  0
    5.4545   -1.0809   26.4034 H   0  0  0  0  0  0  0  0  0  0  0  0
    7.8584   -2.6156   24.7212 H   0  0  0  0  0  0  0  0  0  0  0  0
    6.6713   -3.4947   23.7344 H   0  0  0  0  0  0  0  0  0  0  0  0
    8.2209   -2.4185   22.2302 H   0  0  0  0  0  0  0  0  0  0  0  0
    5.5254   -1.0631   22.3243 H   0  0  0  0  0  0  0  0  0  0  0  0
    6.1452   -2.1931   21.1109 H   0  0  0  0  0  0  0  0  0  0  0  0
    9.8121   -0.6093   23.3023 C   0  0  0  0  0  0  0  0  0  0  0  0
   10.5545   -1.6559   22.7426 C   0  0  0  0  0  0  0  0  0  0  0  0
   11.8417   -1.8853   23.1894 C   0  0  0  0  0  0  0  0  0  0  0  0
   12.7477   -3.2039   22.5106 Cl  0  0  0  0  0  0  0  0  0  0  0  0
   12.4501   -1.0810   24.1512 C   0  0  0  0  0  0  0  0  0  0  0  0
   11.7689    0.0345   24.6006 C   0  0  0  0  0  0  0  0  0  0  0  0
   10.4807    0.2987   24.1364 C   0  0  0  0  0  0  0  0  0  0  0  0
    9.8470    1.6226   24.4498 C   0  0  0  0  0  0  0  0  0  0  0  0
   10.5215    2.6141   24.7074 O   0  0  0  0  0  0  0  0  0  0  0  0
   12.2268    0.7246   25.2977 H   0  0  0  0  0  0  0  0  0  0  0  0
   13.4396   -1.3307   24.5210 H   0  0  0  0  0  0  0  0  0  0  0  0
   10.1497   -2.3119   21.9820 H   0  0  0  0  0  0  0  0  0  0  0  0
    6.7099    0.6222   23.9955 H   0  0  0  0  0  0  0  0  0  0  0  0
    7.8175   -0.2051   25.1065 H   0  0  0  0  0  0  0  0  0  0  0  0
    6.8620    2.6205   25.2176 H   0  0  0  0  0  0  0  0  0  0  0  0
    8.3648    3.5503   25.1389 H   0  0  0  0  0  0  0  0  0  0  0  0
    6.5861    2.7178   22.7575 H   0  0  0  0  0  0  0  0  0  0  0  0
    6.6495    4.3492   23.4182 H   0  0  0  0  0  0  0  0  0  0  0  0
    7.9994    3.9071   21.3831 H   0  0  0  0  0  0  0  0  0  0  0  0
    8.9418    2.8843   22.2435 H   0  0  0  0  0  0  0  0  0  0  0  0
    9.6696    5.3711   21.9445 H   0  0  0  0  0  0  0  0  0  0  0  0
    8.4534    5.6611   23.2013 H   0  0  0  0  0  0  0  0  0  0  0  0
    9.8520    4.6364   23.5549 H   0  0  0  0  0  0  0  0  0  0  0  0
  1  2  1  0
  2  3  1  0
  3  4  1  0
  4  5  1  0
  5  6  1  0
  7  6  1  1
  7  8  1  0
  8  9  2  0
  8 10  1  0
 10 11  1  0
 11 12  2  0
 12 13  1  0
 13 14  2  0
 14 15  1  0
 15 16  2  0
 16 17  1  0
 17 18  2  0
 18 19  1  0
 19 20  2  0
 19 21  1  0
 18 22  1  0
 17 23  1  0
 16 24  1  0
 14 25  1  0
 12 26  1  0
 10 27  1  0
 27 28  1  0
 28 29  1  0
 29 30  1  0
 30 31  1  0
 31 32  1  0
 32 33  1  0
 32 34  1  0
 34 35  1  0
 35 36  1  0
 35 37  1  0
 34 38  1  0
 34 39  1  0
 31 40  1  0
 31 41  1  0
 29 42  1  0
 29 43  1  0
 28 44  1  6
 27 45  1  0
 27 46  1  0
  7 47  1  0
 47 48  2  0
 48 49  1  0
 49 50  1  0
 49 51  2  0
 51 52  1  0
 52 53  2  0
 53 54  1  0
 54 55  2  0
 52 56  1  0
 51 57  1  0
 48 58  1  0
  6 59  1  0
  6 60  1  0
  4 61  1  0
  4 62  1  0
  3 63  1  0
  3 64  1  0
  2 65  1  0
  2 66  1  0
  1 67  1  0
  1 68  1  0
  1 69  1  0
 54  5  1  0
 28  7  1  0
 35 32  1  0
 53 47  1  0
 20 11  1  0
 20 15  1  0
M  CHG  1   2   1
M  END
>  <cnnaffinities>  (61) 
[7.21173]

>  <score>  (61) 
7.21173

>  <index>  (61) 
67

>  <Smiles>  (61) 
C([N+](C(C(N1C([C@@]2(C(=O)N(c3c(nc(c4c(c(c(c(c34)[H])[H])[H])[H])[H])[H])C([C@@]2(C(OC(C2(F)C(C2([H])[H])([H])[H])([H])[H])([H])[H])[H])([H])[H])c2c(c(Cl)c(c(c2C1=O)[H])[H])[H])([H])[H])([H])[H])([H])[H])([H])[H])([H])([H])[H]

>  <h>  (61) 
<NA>

>  <Training>  (61) 
True

>  <Success>  (61) 
True

>  <enamine_searched>  (61) 
False

>  <enamine_id>  (61) 
nan

$$$$

     RDKit          3D

 57 62  0  0  0  0  0  0  0  0999 V2000
    8.0189   -9.0034   22.9935 C   0  0  0  0  0  0  0  0  0  0  0  0
    7.6244   -7.8261   22.1709 C   0  0  0  0  0  0  0  0  0  0  0  0
    6.4262   -7.3185   22.1168 N   0  0  0  0  0  0  0  0  0  0  0  0
    6.6332   -6.1813   21.3892 C   0  0  0  0  0  0  0  0  0  0  0  0
    5.8242   -4.9427   21.6128 C   0  0  0  0  0  0  0  0  0  0  0  0
    6.5512   -4.2078   22.6535 N   0  0  0  0  0  0  0  0  0  0  0  0
    7.7165   -3.3679   22.3699 C   0  0  0  0  0  0  0  0  0  0  0  0
    7.3835   -1.8703   22.6952 C   0  0  2  0  0  0  0  0  0  0  0  0
    6.3070   -1.4181   21.6885 C   0  0  0  0  0  0  0  0  0  0  0  0
    5.1765   -1.8527   21.5979 O   0  0  0  0  0  0  0  0  0  0  0  0
    6.8483   -0.4553   20.8670 N   0  0  0  0  0  0  0  0  0  0  0  0
    6.1132    0.0927   19.7989 C   0  0  0  0  0  0  0  0  0  0  0  0
    6.4762   -0.1812   18.5070 C   0  0  0  0  0  0  0  0  0  0  0  0
    5.8243    0.2824   17.4166 N   0  0  0  0  0  0  0  0  0  0  0  0
    4.7711    1.0343   17.6199 C   0  0  0  0  0  0  0  0  0  0  0  0
    4.3043    1.4173   18.9081 C   0  0  0  0  0  0  0  0  0  0  0  0
    3.1829    2.2731   19.0645 C   0  0  0  0  0  0  0  0  0  0  0  0
    2.7768    2.6574   20.3125 C   0  0  0  0  0  0  0  0  0  0  0  0
    3.4686    2.2053   21.4589 C   0  0  0  0  0  0  0  0  0  0  0  0
    4.5502    1.3686   21.3334 C   0  0  0  0  0  0  0  0  0  0  0  0
    4.9918    0.9463   20.0455 C   0  0  0  0  0  0  0  0  0  0  0  0
    5.0753    1.0187   22.2172 H   0  0  0  0  0  0  0  0  0  0  0  0
    3.1435    2.5349   22.4421 H   0  0  0  0  0  0  0  0  0  0  0  0
    1.9256    3.3226   20.4288 H   0  0  0  0  0  0  0  0  0  0  0  0
    2.6720    2.6236   18.1713 H   0  0  0  0  0  0  0  0  0  0  0  0
    4.2365    1.3914   16.7401 H   0  0  0  0  0  0  0  0  0  0  0  0
    7.3234   -0.8401   18.3200 H   0  0  0  0  0  0  0  0  0  0  0  0
    8.2941   -0.3768   20.9646 C   0  0  0  0  0  0  0  0  0  0  0  0
    8.5950   -0.9424   22.3685 C   0  0  2  0  0  0  0  0  0  0  0  0
    9.9887   -1.5751   22.4709 C   0  0  0  0  0  0  0  0  0  0  0  0
   10.1495   -2.3216   21.6839 H   0  0  0  0  0  0  0  0  0  0  0  0
   10.7804   -0.8270   22.3764 H   0  0  0  0  0  0  0  0  0  0  0  0
   10.1431   -2.0696   23.4354 H   0  0  0  0  0  0  0  0  0  0  0  0
    8.5639   -0.0989   23.0616 H   0  0  0  0  0  0  0  0  0  0  0  0
    8.7830   -0.9745   20.1801 H   0  0  0  0  0  0  0  0  0  0  0  0
    8.6185    0.6624   20.8533 H   0  0  0  0  0  0  0  0  0  0  0  0
    6.7818   -1.7225   24.0842 C   0  0  0  0  0  0  0  0  0  0  0  0
    6.8120   -0.5498   24.8231 C   0  0  0  0  0  0  0  0  0  0  0  0
    6.3753   -0.5421   26.1339 C   0  0  0  0  0  0  0  0  0  0  0  0
    6.3960    0.6155   26.8088 F   0  0  0  0  0  0  0  0  0  0  0  0
    6.0368   -1.7164   26.8216 C   0  0  0  0  0  0  0  0  0  0  0  0
    5.9638   -2.8960   26.1237 C   0  0  0  0  0  0  0  0  0  0  0  0
    6.0731   -2.8610   24.6901 C   0  0  0  0  0  0  0  0  0  0  0  0
    5.9677   -3.9615   23.8064 C   0  0  0  0  0  0  0  0  0  0  0  0
    4.7685   -3.4739   24.0042 O   0  0  0  0  0  0  0  0  0  0  0  0
    5.7183   -3.8393   26.5983 H   0  0  0  0  0  0  0  0  0  0  0  0
    5.8099   -1.6661   27.8800 H   0  0  0  0  0  0  0  0  0  0  0  0
    7.2426    0.3611   24.4239 H   0  0  0  0  0  0  0  0  0  0  0  0
    7.9706   -3.5056   21.3168 H   0  0  0  0  0  0  0  0  0  0  0  0
    8.5662   -3.7091   22.9725 H   0  0  0  0  0  0  0  0  0  0  0  0
    4.8349   -5.1787   22.0122 H   0  0  0  0  0  0  0  0  0  0  0  0
    5.7405   -4.3219   20.7114 H   0  0  0  0  0  0  0  0  0  0  0  0
    7.8321   -6.0743   20.8894 N   0  0  0  0  0  0  0  0  0  0  0  0
    8.4981   -7.1642   21.4170 O   0  0  0  0  0  0  0  0  0  0  0  0
    7.7628   -9.9188   22.4607 H   0  0  0  0  0  0  0  0  0  0  0  0
    7.4010   -9.0186   23.8892 H   0  0  0  0  0  0  0  0  0  0  0  0
    9.0795   -8.9895   23.2709 H   0  0  0  0  0  0  0  0  0  0  0  0
  1  2  1  0
  2  3  2  0
  3  4  1  0
  4  5  1  0
  5  6  1  0
  6  7  1  0
  8  7  1  6
  8  9  1  0
  9 10  2  0
  9 11  1  0
 11 12  1  0
 12 13  2  0
 13 14  1  0
 14 15  2  0
 15 16  1  0
 16 17  2  0
 17 18  1  0
 18 19  2  0
 19 20  1  0
 20 21  2  0
 20 22  1  0
 19 23  1  0
 18 24  1  0
 17 25  1  0
 15 26  1  0
 13 27  1  0
 11 28  1  0
 28 29  1  0
 29 30  1  0
 30 31  1  0
 30 32  1  0
 30 33  1  0
 29 34  1  1
 28 35  1  0
 28 36  1  0
  8 37  1  0
 37 38  2  0
 38 39  1  0
 39 40  1  0
 39 41  2  0
 41 42  1  0
 42 43  2  0
 43 44  1  0
 44 45  2  0
 42 46  1  0
 41 47  1  0
 38 48  1  0
  7 49  1  0
  7 50  1  0
  5 51  1  0
  5 52  1  0
  4 53  2  0
 53 54  1  0
  1 55  1  0
  1 56  1  0
  1 57  1  0
 54  2  1  0
 44  6  1  0
 29  8  1  0
 43 37  1  0
 21 12  1  0
 21 16  1  0
M  END
>  <cnnaffinities>  (62) 
[6.80011]

>  <score>  (62) 
6.80011

>  <index>  (62) 
68

>  <Smiles>  (62) 
C(c1nc(C(N2C([C@@]3(C(=O)N(c4c(nc(c5c(c(c(c(c45)[H])[H])[H])[H])[H])[H])C([C@@]3(C([H])([H])[H])[H])([H])[H])c3c(c(F)c(c(c3C2=O)[H])[H])[H])([H])[H])([H])[H])no1)([H])([H])[H]

>  <h>  (62) 
<NA>

>  <Training>  (62) 
True

>  <Success>  (62) 
True

>  <enamine_searched>  (62) 
False

>  <enamine_id>  (62) 
nan

$$$$

     RDKit          3D

 64 68  0  0  0  0  0  0  0  0999 V2000
    2.4400   -0.3260   29.2816 C   0  0  0  0  0  0  0  0  0  0  0  0
    2.6654   -0.2432   27.7636 C   0  0  0  0  0  0  0  0  0  0  0  0
    3.6408   -1.2849   27.2279 C   0  0  0  0  0  0  0  0  0  0  0  0
    4.8392   -1.1373   27.3707 O   0  0  0  0  0  0  0  0  0  0  0  0
    3.1062   -2.3835   26.5461 N   0  0  0  0  0  0  0  0  0  0  0  0
    2.0105   -3.1178   27.1989 C   0  0  0  0  0  0  0  0  0  0  0  0
    1.4475   -4.2257   26.3182 C   0  0  0  0  0  0  0  0  0  0  0  0
    2.5920   -5.1120   25.8278 C   0  0  0  0  0  0  0  0  0  0  0  0
    3.6188   -4.2708   25.1048 C   0  0  0  0  0  0  0  0  0  0  0  0
    4.3234   -4.7858   24.0263 C   0  0  0  0  0  0  0  0  0  0  0  0
    5.2404   -4.0359   23.3068 C   0  0  0  0  0  0  0  0  0  0  0  0
    5.4441   -2.7055   23.6680 C   0  0  0  0  0  0  0  0  0  0  0  0
    6.3948   -1.9087   22.9575 N   0  0  0  0  0  0  0  0  0  0  0  0
    7.5224   -1.3420   23.7060 C   0  0  0  0  0  0  0  0  0  0  0  0
    8.0745   -2.2954   24.7614 C   0  0  0  0  0  0  0  0  0  0  0  0
    7.8776   -2.0288   26.1187 C   0  0  0  0  0  0  0  0  0  0  0  0
    8.3235   -2.9226   27.0911 C   0  0  0  0  0  0  0  0  0  0  0  0
    8.9829   -4.0846   26.7220 C   0  0  0  0  0  0  0  0  0  0  0  0
    9.1545   -4.3590   25.3728 C   0  0  0  0  0  0  0  0  0  0  0  0
    9.8940   -5.8830   24.9617 Cl  0  0  0  0  0  0  0  0  0  0  0  0
    8.7203   -3.4767   24.3879 C   0  0  0  0  0  0  0  0  0  0  0  0
    8.8632   -3.7131   23.3360 H   0  0  0  0  0  0  0  0  0  0  0  0
    9.3852   -4.7756   27.4567 H   0  0  0  0  0  0  0  0  0  0  0  0
    8.2094   -2.6880   28.1492 H   0  0  0  0  0  0  0  0  0  0  0  0
    7.3837   -1.1079   26.4277 H   0  0  0  0  0  0  0  0  0  0  0  0
    7.2135   -0.4107   24.2096 H   0  0  0  0  0  0  0  0  0  0  0  0
    8.2946   -1.0961   22.9666 H   0  0  0  0  0  0  0  0  0  0  0  0
    6.1601   -1.6814   21.6087 C   0  0  0  0  0  0  0  0  0  0  0  0
    5.3986   -2.3767   20.9673 O   0  0  0  0  0  0  0  0  0  0  0  0
    6.8962   -0.5014   20.9288 C   0  0  0  0  0  0  0  0  0  0  0  0
    6.1098    0.0890   19.7848 C   0  0  0  0  0  0  0  0  0  0  0  0
    6.4276   -0.1900   18.4803 C   0  0  0  0  0  0  0  0  0  0  0  0
    5.7787    0.2848   17.3880 N   0  0  0  0  0  0  0  0  0  0  0  0
    4.7337    1.0483   17.5856 C   0  0  0  0  0  0  0  0  0  0  0  0
    4.2864    1.4166   18.8818 C   0  0  0  0  0  0  0  0  0  0  0  0
    3.1695    2.2545   19.0825 C   0  0  0  0  0  0  0  0  0  0  0  0
    2.5324    2.6918   17.9837 F   0  0  0  0  0  0  0  0  0  0  0  0
    2.7351    2.6182   20.3232 C   0  0  0  0  0  0  0  0  0  0  0  0
    3.4277    2.1255   21.4496 C   0  0  0  0  0  0  0  0  0  0  0  0
    4.5200    1.3041   21.3038 C   0  0  0  0  0  0  0  0  0  0  0  0
    4.9795    0.9333   20.0123 C   0  0  0  0  0  0  0  0  0  0  0  0
    5.0498    0.9263   22.1704 H   0  0  0  0  0  0  0  0  0  0  0  0
    3.0940    2.4049   22.4466 H   0  0  0  0  0  0  0  0  0  0  0  0
    1.8775    3.2746   20.4150 H   0  0  0  0  0  0  0  0  0  0  0  0
    4.1952    1.4007   16.7104 H   0  0  0  0  0  0  0  0  0  0  0  0
    7.2613   -0.8513   18.2478 H   0  0  0  0  0  0  0  0  0  0  0  0
    7.8477   -0.8882   20.5382 H   0  0  0  0  0  0  0  0  0  0  0  0
    7.1493    0.2697   21.6667 H   0  0  0  0  0  0  0  0  0  0  0  0
    4.7667   -2.1603   24.7552 C   0  0  0  0  0  0  0  0  0  0  0  0
    3.8530   -2.9412   25.4848 C   0  0  0  0  0  0  0  0  0  0  0  0
    4.9488   -1.1236   25.0230 H   0  0  0  0  0  0  0  0  0  0  0  0
    5.7930   -4.4842   22.4865 H   0  0  0  0  0  0  0  0  0  0  0  0
    4.1208   -5.8126   23.7313 H   0  0  0  0  0  0  0  0  0  0  0  0
    3.0579   -5.6381   26.6779 H   0  0  0  0  0  0  0  0  0  0  0  0
    2.2207   -5.8958   25.1545 H   0  0  0  0  0  0  0  0  0  0  0  0
    0.7247   -4.8087   26.9019 H   0  0  0  0  0  0  0  0  0  0  0  0
    0.9092   -3.7943   25.4639 H   0  0  0  0  0  0  0  0  0  0  0  0
    1.2364   -2.3916   27.4637 H   0  0  0  0  0  0  0  0  0  0  0  0
    2.3780   -3.5659   28.1391 H   0  0  0  0  0  0  0  0  0  0  0  0
    3.1481    0.7117   27.5228 H   0  0  0  0  0  0  0  0  0  0  0  0
    1.7200   -0.2770   27.2063 H   0  0  0  0  0  0  0  0  0  0  0  0
    1.9813   -1.2764   29.5824 H   0  0  0  0  0  0  0  0  0  0  0  0
    3.3905   -0.2189   29.8156 H   0  0  0  0  0  0  0  0  0  0  0  0
    1.7824    0.4874   29.6109 H   0  0  0  0  0  0  0  0  0  0  0  0
  1  2  1  0
  2  3  1  0
  3  4  2  0
  3  5  1  0
  5  6  1  0
  6  7  1  0
  7  8  1  0
  8  9  1  0
  9 10  2  0
 10 11  1  0
 11 12  2  0
 12 13  1  0
 13 14  1  0
 14 15  1  0
 15 16  2  0
 16 17  1  0
 17 18  2  0
 18 19  1  0
 19 20  1  0
 19 21  2  0
 21 22  1  0
 18 23  1  0
 17 24  1  0
 16 25  1  0
 14 26  1  0
 14 27  1  0
 13 28  1  0
 28 29  2  0
 28 30  1  0
 30 31  1  0
 31 32  2  0
 32 33  1  0
 33 34  2  0
 34 35  1  0
 35 36  2  0
 36 37  1  0
 36 38  1  0
 38 39  2  0
 39 40  1  0
 40 41  2  0
 40 42  1  0
 39 43  1  0
 38 44  1  0
 34 45  1  0
 32 46  1  0
 30 47  1  0
 30 48  1  0
 12 49  1  0
 49 50  2  0
 49 51  1  0
 11 52  1  0
 10 53  1  0
  8 54  1  0
  8 55  1  0
  7 56  1  0
  7 57  1  0
  6 58  1  0
  6 59  1  0
  2 60  1  0
  2 61  1  0
  1 62  1  0
  1 63  1  0
  1 64  1  0
 50  5  1  0
 50  9  1  0
 21 15  1  0
 41 31  1  0
 41 35  1  0
M  END
>  <cnnaffinities>  (63) 
[6.24555, 6.58408]

>  <score>  (63) 
6.24555

>  <index>  (63) 
69

>  <Smiles>  (63) 
C(C(C(=O)N1C(C(C(c2c(c(c(N(C(c3c(c(c(c(Cl)c3[H])[H])[H])[H])([H])[H])C(=O)C(c3c(nc(c4c(F)c(c(c(c34)[H])[H])[H])[H])[H])([H])[H])c(c12)[H])[H])[H])([H])[H])([H])[H])([H])[H])([H])[H])([H])([H])[H]

>  <h>  (63) 
<NA>

>  <Training>  (63) 
True

>  <Success>  (63) 
True

>  <enamine_searched>  (63) 
False

>  <enamine_id>  (63) 
nan

$$$$

     RDKit          3D

 57 62  0  0  0  0  0  0  0  0999 V2000
    9.8084   -1.2222   22.8128 C   0  0  0  0  0  0  0  0  0  0  0  0
    8.4414   -0.7030   22.3844 C   0  0  1  0  0  0  0  0  0  0  0  0
    8.2835   -0.4349   20.8832 C   0  0  0  0  0  0  0  0  0  0  0  0
    6.8435   -0.5022   20.7106 N   0  0  0  0  0  0  0  0  0  0  0  0
    6.1533    0.1460   19.6676 C   0  0  0  0  0  0  0  0  0  0  0  0
    6.6154    0.0657   18.3762 C   0  0  0  0  0  0  0  0  0  0  0  0
    5.9824    0.5951   17.3016 N   0  0  0  0  0  0  0  0  0  0  0  0
    4.8679    1.2493   17.5199 C   0  0  0  0  0  0  0  0  0  0  0  0
    4.3350    1.4995   18.8139 C   0  0  0  0  0  0  0  0  0  0  0  0
    3.1812    2.3075   18.9954 C   0  0  0  0  0  0  0  0  0  0  0  0
    2.7313    2.5957   20.2542 C   0  0  0  0  0  0  0  0  0  0  0  0
    3.4147    2.0902   21.3833 C   0  0  0  0  0  0  0  0  0  0  0  0
    4.5225    1.2947   21.2334 C   0  0  0  0  0  0  0  0  0  0  0  0
    5.0002    0.9601   19.9338 C   0  0  0  0  0  0  0  0  0  0  0  0
    5.0426    0.9078   22.1044 H   0  0  0  0  0  0  0  0  0  0  0  0
    3.0657    2.3454   22.3786 H   0  0  0  0  0  0  0  0  0  0  0  0
    1.8617    3.2325   20.3939 H   0  0  0  0  0  0  0  0  0  0  0  0
    2.6817    2.7014   18.1142 H   0  0  0  0  0  0  0  0  0  0  0  0
    4.3428    1.6541   16.6545 H   0  0  0  0  0  0  0  0  0  0  0  0
    7.5332   -0.4795   18.1566 H   0  0  0  0  0  0  0  0  0  0  0  0
    6.2571   -1.3921   21.5999 C   0  0  0  0  0  0  0  0  0  0  0  0
    5.1693   -1.8991   21.4367 O   0  0  0  0  0  0  0  0  0  0  0  0
    7.2714   -1.6568   22.7475 C   0  0  1  0  0  0  0  0  0  0  0  0
    7.7182   -3.1609   22.6555 C   0  0  0  0  0  0  0  0  0  0  0  0
    6.5673   -4.0557   22.8349 N   0  0  0  0  0  0  0  0  0  0  0  0
    5.9302   -4.7510   21.7101 C   0  0  0  0  0  0  0  0  0  0  0  0
    6.1554   -6.1946   21.7428 C   0  0  0  0  0  0  0  0  0  0  0  0
    7.5426   -6.6166   21.7711 N   0  0  0  0  0  0  0  0  0  0  0  0
    7.5182   -6.7099   21.8939 N   0  0  0  0  0  0  0  0  0  0  0  0
    6.7880   -7.9228   22.1424 N   0  0  0  0  0  0  0  0  0  0  0  0
    7.4687   -8.9776   23.0016 C   0  0  0  0  0  0  0  0  0  0  0  0
    7.4752   -9.9296   22.4603 H   0  0  0  0  0  0  0  0  0  0  0  0
    6.9554   -9.1313   23.9590 H   0  0  0  0  0  0  0  0  0  0  0  0
    8.4896   -8.5865   23.1387 H   0  0  0  0  0  0  0  0  0  0  0  0
    5.4730   -7.2626   22.0837 N   0  0  0  0  0  0  0  0  0  0  0  0
    6.3461   -4.3215   20.7830 H   0  0  0  0  0  0  0  0  0  0  0  0
    4.8623   -4.5090   21.7361 H   0  0  0  0  0  0  0  0  0  0  0  0
    5.8209   -3.6894   23.8664 C   0  0  0  0  0  0  0  0  0  0  0  0
    4.6953   -3.0138   23.9612 O   0  0  0  0  0  0  0  0  0  0  0  0
    5.9295   -2.5595   24.7332 C   0  0  0  0  0  0  0  0  0  0  0  0
    5.8219   -2.6933   26.1568 C   0  0  0  0  0  0  0  0  0  0  0  0
    6.3596   -1.7380   26.9889 C   0  0  0  0  0  0  0  0  0  0  0  0
    6.9749   -0.6252   26.4170 C   0  0  0  0  0  0  0  0  0  0  0  0
    7.4595    0.3209   27.2361 F   0  0  0  0  0  0  0  0  0  0  0  0
    7.1385   -0.4695   25.0477 C   0  0  0  0  0  0  0  0  0  0  0  0
    6.7343   -1.4597   24.1594 C   0  0  0  0  0  0  0  0  0  0  0  0
    7.5932    0.4505   24.7133 H   0  0  0  0  0  0  0  0  0  0  0  0
    6.3098   -1.8368   28.0662 H   0  0  0  0  0  0  0  0  0  0  0  0
    5.2647   -3.5446   26.5319 H   0  0  0  0  0  0  0  0  0  0  0  0
    8.1863   -3.3994   21.6947 H   0  0  0  0  0  0  0  0  0  0  0  0
    8.4114   -3.3499   23.4875 H   0  0  0  0  0  0  0  0  0  0  0  0
    8.8056   -1.1975   20.2810 H   0  0  0  0  0  0  0  0  0  0  0  0
    8.6409    0.5542   20.5906 H   0  0  0  0  0  0  0  0  0  0  0  0
    8.2413    0.2589   22.8708 H   0  0  0  0  0  0  0  0  0  0  0  0
    9.7990   -1.4811   23.8781 H   0  0  0  0  0  0  0  0  0  0  0  0
   10.0737   -2.1257   22.2513 H   0  0  0  0  0  0  0  0  0  0  0  0
   10.6033   -0.4933   22.6583 H   0  0  0  0  0  0  0  0  0  0  0  0
  1  2  1  0
  2  3  1  0
  3  4  1  0
  4  5  1  0
  5  6  2  0
  6  7  1  0
  7  8  2  0
  8  9  1  0
  9 10  2  0
 10 11  1  0
 11 12  2  0
 12 13  1  0
 13 14  2  0
 13 15  1  0
 12 16  1  0
 11 17  1  0
 10 18  1  0
  8 19  1  0
  6 20  1  0
  4 21  1  0
 21 22  2  0
 21 23  1  0
 23 24  1  1
 24 25  1  0
 25 26  1  0
 26 27  1  0
 27 28  1  0
 28 29  2  0
 29 30  1  0
 30 31  1  0
 31 32  1  0
 31 33  1  0
 31 34  1  0
 30 35  1  0
 26 36  1  0
 26 37  1  0
 25 38  1  0
 38 39  2  0
 38 40  1  0
 40 41  2  0
 41 42  1  0
 42 43  2  0
 43 44  1  0
 43 45  1  0
 45 46  2  0
 45 47  1  0
 42 48  1  0
 41 49  1  0
 24 50  1  0
 24 51  1  0
  3 52  1  0
  3 53  1  0
  2 54  1  1
  1 55  1  0
  1 56  1  0
  1 57  1  0
 23  2  1  0
 35 27  2  0
 46 40  1  0
 14  5  1  0
 46 23  1  0
 14  9  1  0
M  END
>  <cnnaffinities>  (64) 
[6.57746]

>  <score>  (64) 
6.57746

>  <index>  (64) 
70

>  <Smiles>  (64) 
C([C@]1(C(N(c2c(nc(c3c(c(c(c(c23)[H])[H])[H])[H])[H])[H])C(=O)[C@]21C(N(C(c1nnn(C([H])([H])[H])n1)([H])[H])C(=O)c1c(c(c(F)c(c21)[H])[H])[H])([H])[H])([H])[H])[H])([H])([H])[H]

>  <h>  (64) 
<NA>

>  <Training>  (64) 
True

>  <Success>  (64) 
True

>  <enamine_searched>  (64) 
False

>  <enamine_id>  (64) 
nan

$$$$

     RDKit          3D

 59 64  0  0  0  0  0  0  0  0999 V2000
    7.2797   -2.6659   23.8724 C   0  0  0  0  0  0  0  0  0  0  0  0
    7.6366   -1.9155   22.5986 C   0  0  1  0  0  0  0  0  0  0  0  0
    6.4556   -1.5379   21.6867 C   0  0  0  0  0  0  0  0  0  0  0  0
    6.9821   -0.3894   20.9700 N   0  0  0  0  0  0  0  0  0  0  0  0
    6.2750    0.1975   19.8948 C   0  0  0  0  0  0  0  0  0  0  0  0
    6.6527   -0.0704   18.6060 C   0  0  0  0  0  0  0  0  0  0  0  0
    5.9674    0.3374   17.5083 N   0  0  0  0  0  0  0  0  0  0  0  0
    4.8738    1.0324   17.6990 C   0  0  0  0  0  0  0  0  0  0  0  0
    4.3944    1.4261   18.9812 C   0  0  0  0  0  0  0  0  0  0  0  0
    3.2439    2.2453   19.1359 C   0  0  0  0  0  0  0  0  0  0  0  0
    2.8173    2.6163   20.3793 C   0  0  0  0  0  0  0  0  0  0  0  0
    3.5190    2.1843   21.5283 C   0  0  0  0  0  0  0  0  0  0  0  0
    4.6365    1.3938   21.4091 C   0  0  0  0  0  0  0  0  0  0  0  0
    5.1062    0.9946   20.1259 C   0  0  0  0  0  0  0  0  0  0  0  0
    5.1755    1.0980   22.3072 H   0  0  0  0  0  0  0  0  0  0  0  0
    3.1817    2.4870   22.5140 H   0  0  0  0  0  0  0  0  0  0  0  0
    1.9429    3.2532   20.4917 H   0  0  0  0  0  0  0  0  0  0  0  0
    2.7242    2.5802   18.2407 H   0  0  0  0  0  0  0  0  0  0  0  0
    4.3091    1.3310   16.8128 H   0  0  0  0  0  0  0  0  0  0  0  0
    7.5487   -0.6593   18.4218 H   0  0  0  0  0  0  0  0  0  0  0  0
    8.1443    0.1430   21.4946 C   0  0  0  0  0  0  0  0  0  0  0  0
    8.7681    1.0523   20.9903 O   0  0  0  0  0  0  0  0  0  0  0  0
    8.4076   -0.5892   22.8390 C   0  0  1  0  0  0  0  0  0  0  0  0
    7.7419    0.2187   23.9883 C   0  0  0  0  0  0  0  0  0  0  0  0
    8.4636    1.4484   24.2414 N   0  0  0  0  0  0  0  0  0  0  0  0
    7.7791    2.7287   24.0562 C   0  0  0  0  0  0  0  0  0  0  0  0
    6.6114    2.8546   24.9863 C   0  0  0  0  0  0  0  0  0  0  0  0
    5.3388    2.7284   24.6699 N   0  0  0  0  0  0  0  0  0  0  0  0
    4.6652    2.8065   25.8647 C   0  0  0  0  0  0  0  0  0  0  0  0
    5.5448    2.9760   26.8988 C   0  0  0  0  0  0  0  0  0  0  0  0
    6.7918    3.0112   26.3230 N   0  0  0  0  0  0  0  0  0  0  0  0
    8.0762    3.0547   26.9822 C   0  0  0  0  0  0  0  0  0  0  0  0
    7.9339    2.9993   28.0614 H   0  0  0  0  0  0  0  0  0  0  0  0
    8.6719    2.1991   26.6548 H   0  0  0  0  0  0  0  0  0  0  0  0
    8.6095    3.9777   26.7381 H   0  0  0  0  0  0  0  0  0  0  0  0
    5.4212    3.0679   27.9667 H   0  0  0  0  0  0  0  0  0  0  0  0
    3.5882    2.7321   25.9205 H   0  0  0  0  0  0  0  0  0  0  0  0
    7.4296    2.8329   23.0219 H   0  0  0  0  0  0  0  0  0  0  0  0
    8.5309    3.5042   24.2295 H   0  0  0  0  0  0  0  0  0  0  0  0
    9.8149    1.4179   24.4392 C   0  0  0  0  0  0  0  0  0  0  0  0
   10.4508    2.3916   24.8193 O   0  0  0  0  0  0  0  0  0  0  0  0
   10.5040    0.1301   24.0901 C   0  0  0  0  0  0  0  0  0  0  0  0
   11.8252   -0.0747   24.5154 C   0  0  0  0  0  0  0  0  0  0  0  0
   12.5980   -1.0568   23.9218 C   0  0  0  0  0  0  0  0  0  0  0  0
   12.0331   -1.8071   22.8978 C   0  0  0  0  0  0  0  0  0  0  0  0
   12.8253   -2.6464   22.2036 F   0  0  0  0  0  0  0  0  0  0  0  0
   10.6957   -1.7094   22.5639 C   0  0  0  0  0  0  0  0  0  0  0  0
    9.8864   -0.7401   23.1761 C   0  0  0  0  0  0  0  0  0  0  0  0
   10.3262   -2.3766   21.7981 H   0  0  0  0  0  0  0  0  0  0  0  0
   13.6450   -1.2031   24.1590 H   0  0  0  0  0  0  0  0  0  0  0  0
   12.2465    0.5701   25.2848 H   0  0  0  0  0  0  0  0  0  0  0  0
    7.7290   -0.3736   24.9148 H   0  0  0  0  0  0  0  0  0  0  0  0
    6.7088    0.4731   23.7377 H   0  0  0  0  0  0  0  0  0  0  0  0
    5.5403   -1.2775   22.2439 H   0  0  0  0  0  0  0  0  0  0  0  0
    6.1829   -2.3300   20.9776 H   0  0  0  0  0  0  0  0  0  0  0  0
    8.3118   -2.5225   21.9886 H   0  0  0  0  0  0  0  0  0  0  0  0
    6.9206   -3.6749   23.6599 H   0  0  0  0  0  0  0  0  0  0  0  0
    8.1668   -2.7310   24.5128 H   0  0  0  0  0  0  0  0  0  0  0  0
    6.4981   -2.1406   24.4341 H   0  0  0  0  0  0  0  0  0  0  0  0
  1  2  1  0
  2  3  1  0
  3  4  1  0
  4  5  1  0
  5  6  2  0
  6  7  1  0
  7  8  2  0
  8  9  1  0
  9 10  2  0
 10 11  1  0
 11 12  2  0
 12 13  1  0
 13 14  2  0
 13 15  1  0
 12 16  1  0
 11 17  1  0
 10 18  1  0
  8 19  1  0
  6 20  1  0
  4 21  1  0
 21 22  2  0
 21 23  1  0
 23 24  1  1
 24 25  1  0
 25 26  1  0
 26 27  1  0
 27 28  2  0
 28 29  1  0
 29 30  2  0
 30 31  1  0
 31 32  1  0
 32 33  1  0
 32 34  1  0
 32 35  1  0
 30 36  1  0
 29 37  1  0
 26 38  1  0
 26 39  1  0
 25 40  1  0
 40 41  2  0
 40 42  1  0
 42 43  2  0
 43 44  1  0
 44 45  2  0
 45 46  1  0
 45 47  1  0
 47 48  2  0
 47 49  1  0
 44 50  1  0
 43 51  1  0
 24 52  1  0
 24 53  1  0
  3 54  1  0
  3 55  1  0
  2 56  1  6
  1 57  1  0
  1 58  1  0
  1 59  1  0
 23  2  1  0
 31 27  1  0
 48 42  1  0
 14  5  1  0
 48 23  1  0
 14  9  1  0
M  END
>  <cnnaffinities>  (65) 
[7.11329]

>  <score>  (65) 
7.11329

>  <index>  (65) 
71

>  <Smiles>  (65) 
C([C@]1(C(N(c2c(nc(c3c(c(c(c(c23)[H])[H])[H])[H])[H])[H])C(=O)[C@]21C(N(C(c1nc(c(n1C([H])([H])[H])[H])[H])([H])[H])C(=O)c1c(c(c(F)c(c21)[H])[H])[H])([H])[H])([H])[H])[H])([H])([H])[H]

>  <h>  (65) 
<NA>

>  <Training>  (65) 
True

>  <Success>  (65) 
True

>  <enamine_searched>  (65) 
False

>  <enamine_id>  (65) 
nan

$$$$

     RDKit          3D

 60 64  0  0  0  0  0  0  0  0999 V2000
    6.5518    4.2497   21.5461 C   0  0  0  0  0  0  0  0  0  0  0  0
    7.5013    3.7106   22.5047 N   0  0  0  0  0  0  0  0  0  0  0  0
    7.0518    3.1090   23.6387 C   0  0  0  0  0  0  0  0  0  0  0  0
    5.8640    2.9725   23.8943 O   0  0  0  0  0  0  0  0  0  0  0  0
    8.1356    2.6499   24.6121 C   0  0  0  0  0  0  0  0  0  0  0  0
    8.7392    1.3715   24.2614 N   0  0  0  0  0  0  0  0  0  0  0  0
    7.8986    0.2199   23.9655 C   0  0  0  0  0  0  0  0  0  0  0  0
    8.4792   -0.6378   22.7963 C   0  0  2  0  0  0  0  0  0  0  0  0
    8.1545    0.0983   21.4695 C   0  0  0  0  0  0  0  0  0  0  0  0
    8.7497    1.0180   20.9486 O   0  0  0  0  0  0  0  0  0  0  0  0
    6.9754   -0.4346   20.9884 N   0  0  0  0  0  0  0  0  0  0  0  0
    6.2705    0.1397   19.9035 C   0  0  0  0  0  0  0  0  0  0  0  0
    6.6918   -0.0971   18.6207 C   0  0  0  0  0  0  0  0  0  0  0  0
    6.0299    0.3296   17.5208 N   0  0  0  0  0  0  0  0  0  0  0  0
    4.9263    1.0165   17.6975 C   0  0  0  0  0  0  0  0  0  0  0  0
    4.4067    1.3822   18.9725 C   0  0  0  0  0  0  0  0  0  0  0  0
    3.2537    2.1984   19.1254 C   0  0  0  0  0  0  0  0  0  0  0  0
    2.8212    2.5688   20.3710 C   0  0  0  0  0  0  0  0  0  0  0  0
    3.5120    2.1334   21.5220 C   0  0  0  0  0  0  0  0  0  0  0  0
    4.6191    1.3270   21.3982 C   0  0  0  0  0  0  0  0  0  0  0  0
    5.0970    0.9287   20.1207 C   0  0  0  0  0  0  0  0  0  0  0  0
    5.1753    1.0540   22.2880 H   0  0  0  0  0  0  0  0  0  0  0  0
    3.1972    2.4595   22.5087 H   0  0  0  0  0  0  0  0  0  0  0  0
    1.9529    3.2122   20.4788 H   0  0  0  0  0  0  0  0  0  0  0  0
    2.7400    2.5425   18.2324 H   0  0  0  0  0  0  0  0  0  0  0  0
    4.3931    1.3384   16.8020 H   0  0  0  0  0  0  0  0  0  0  0  0
    7.5961   -0.6776   18.4475 H   0  0  0  0  0  0  0  0  0  0  0  0
    6.4661   -1.5670   21.7345 C   0  0  0  0  0  0  0  0  0  0  0  0
    7.6721   -1.9596   22.6004 C   0  0  2  0  0  0  0  0  0  0  0  0
    7.2912   -2.6694   23.7995 N   0  0  0  0  0  0  0  0  0  0  0  0
    8.1622   -3.4748   24.4976 C   0  0  0  0  0  0  0  0  0  0  0  0
    9.1435   -3.9821   23.9864 O   0  0  0  0  0  0  0  0  0  0  0  0
    7.7530   -3.6832   25.9443 C   0  0  0  0  0  0  0  0  0  0  0  0
    6.8488   -4.3006   25.9996 H   0  0  0  0  0  0  0  0  0  0  0  0
    8.5600   -4.1757   26.4884 H   0  0  0  0  0  0  0  0  0  0  0  0
    7.5310   -2.7219   26.4263 H   0  0  0  0  0  0  0  0  0  0  0  0
    6.5126   -2.2833   24.3134 H   0  0  0  0  0  0  0  0  0  0  0  0
    8.3119   -2.6368   22.0343 H   0  0  0  0  0  0  0  0  0  0  0  0
    6.1667   -2.3654   21.0493 H   0  0  0  0  0  0  0  0  0  0  0  0
    5.5828   -1.3051   22.3438 H   0  0  0  0  0  0  0  0  0  0  0  0
    9.9581   -0.8672   23.0472 C   0  0  0  0  0  0  0  0  0  0  0  0
   10.7042   -1.8067   22.3180 C   0  0  0  0  0  0  0  0  0  0  0  0
   12.0434   -2.0051   22.6068 C   0  0  0  0  0  0  0  0  0  0  0  0
   12.9784   -3.1151   21.6453 Cl  0  0  0  0  0  0  0  0  0  0  0  0
   12.6975   -1.3075   23.6283 C   0  0  0  0  0  0  0  0  0  0  0  0
   11.9885   -0.3319   24.2977 C   0  0  0  0  0  0  0  0  0  0  0  0
   10.6530   -0.0874   23.9799 C   0  0  0  0  0  0  0  0  0  0  0  0
   10.0762    1.1925   24.4882 C   0  0  0  0  0  0  0  0  0  0  0  0
   10.7929    2.0290   25.0151 O   0  0  0  0  0  0  0  0  0  0  0  0
   12.4748    0.2974   25.0372 H   0  0  0  0  0  0  0  0  0  0  0  0
   13.7301   -1.5282   23.8750 H   0  0  0  0  0  0  0  0  0  0  0  0
   10.2390   -2.3929   21.5306 H   0  0  0  0  0  0  0  0  0  0  0  0
    6.9153    0.6074   23.6878 H   0  0  0  0  0  0  0  0  0  0  0  0
    7.7898   -0.4037   24.8605 H   0  0  0  0  0  0  0  0  0  0  0  0
    8.9453    3.3817   24.6281 H   0  0  0  0  0  0  0  0  0  0  0  0
    7.6936    2.6423   25.6155 H   0  0  0  0  0  0  0  0  0  0  0  0
    8.4533    3.5361   22.2091 H   0  0  0  0  0  0  0  0  0  0  0  0
    5.7362    4.7179   22.1040 H   0  0  0  0  0  0  0  0  0  0  0  0
    7.0332    5.0137   20.9313 H   0  0  0  0  0  0  0  0  0  0  0  0
    6.1325    3.4649   20.8981 H   0  0  0  0  0  0  0  0  0  0  0  0
  1  2  1  0
  2  3  1  0
  3  4  2  0
  3  5  1  0
  5  6  1  0
  6  7  1  0
  8  7  1  1
  8  9  1  0
  9 10  2  0
  9 11  1  0
 11 12  1  0
 12 13  2  0
 13 14  1  0
 14 15  2  0
 15 16  1  0
 16 17  2  0
 17 18  1  0
 18 19  2  0
 19 20  1  0
 20 21  2  0
 20 22  1  0
 19 23  1  0
 18 24  1  0
 17 25  1  0
 15 26  1  0
 13 27  1  0
 11 28  1  0
 28 29  1  0
 29 30  1  0
 30 31  1  0
 31 32  2  0
 31 33  1  0
 33 34  1  0
 33 35  1  0
 33 36  1  0
 30 37  1  0
 29 38  1  6
 28 39  1  0
 28 40  1  0
  8 41  1  0
 41 42  2  0
 42 43  1  0
 43 44  1  0
 43 45  2  0
 45 46  1  0
 46 47  2  0
 47 48  1  0
 48 49  2  0
 46 50  1  0
 45 51  1  0
 42 52  1  0
  7 53  1  0
  7 54  1  0
  5 55  1  0
  5 56  1  0
  2 57  1  0
  1 58  1  0
  1 59  1  0
  1 60  1  0
 48  6  1  0
 29  8  1  0
 47 41  1  0
 21 12  1  0
 21 16  1  0
M  END
>  <cnnaffinities>  (66) 
[7.21686]

>  <score>  (66) 
7.21686

>  <index>  (66) 
72

>  <Smiles>  (66) 
C(N(C(=O)C(N1C([C@@]2(C(=O)N(c3c(nc(c4c(c(c(c(c34)[H])[H])[H])[H])[H])[H])C([C@@]2(N(C(=O)C([H])([H])[H])[H])[H])([H])[H])c2c(c(Cl)c(c(c2C1=O)[H])[H])[H])([H])[H])([H])[H])[H])([H])([H])[H]

>  <h>  (66) 
<NA>

>  <Training>  (66) 
True

>  <Success>  (66) 
True

>  <enamine_searched>  (66) 
False

>  <enamine_id>  (66) 
nan

$$$$

     RDKit          3D

 56 61  0  0  0  0  0  0  0  0999 V2000
    7.1099   -2.5616   23.9649 C   0  0  0  0  0  0  0  0  0  0  0  0
    7.5402   -1.9236   22.6440 C   0  0  1  0  0  0  0  0  0  0  0  0
    6.3782   -1.5486   21.7008 C   0  0  0  0  0  0  0  0  0  0  0  0
    6.9227   -0.4442   20.9338 N   0  0  0  0  0  0  0  0  0  0  0  0
    6.2194    0.1464   19.8528 C   0  0  0  0  0  0  0  0  0  0  0  0
    6.6078   -0.0911   18.5598 C   0  0  0  0  0  0  0  0  0  0  0  0
    5.9243    0.3436   17.4711 N   0  0  0  0  0  0  0  0  0  0  0  0
    4.8384    1.0488   17.6708 C   0  0  0  0  0  0  0  0  0  0  0  0
    4.3582    1.4268   18.9580 C   0  0  0  0  0  0  0  0  0  0  0  0
    3.2208    2.2604   19.1368 C   0  0  0  0  0  0  0  0  0  0  0  0
    2.8220    2.6308   20.3917 C   0  0  0  0  0  0  0  0  0  0  0  0
    3.5208    2.1690   21.5294 C   0  0  0  0  0  0  0  0  0  0  0  0
    4.6061    1.3402   21.3819 C   0  0  0  0  0  0  0  0  0  0  0  0
    5.0635    0.9602   20.0897 C   0  0  0  0  0  0  0  0  0  0  0  0
    5.1246    0.9693   22.2608 H   0  0  0  0  0  0  0  0  0  0  0  0
    3.2031    2.4697   22.5239 H   0  0  0  0  0  0  0  0  0  0  0  0
    1.9676    3.2887   20.5215 H   0  0  0  0  0  0  0  0  0  0  0  0
    2.6929    2.6108   18.2535 H   0  0  0  0  0  0  0  0  0  0  0  0
    4.2813    1.3662   16.7881 H   0  0  0  0  0  0  0  0  0  0  0  0
    7.5031   -0.6772   18.3631 H   0  0  0  0  0  0  0  0  0  0  0  0
    8.1191    0.0542   21.4079 C   0  0  0  0  0  0  0  0  0  0  0  0
    8.7540    0.9268   20.8520 O   0  0  0  0  0  0  0  0  0  0  0  0
    8.4142   -0.6365   22.7653 C   0  0  1  0  0  0  0  0  0  0  0  0
    7.9036    0.2850   23.9129 C   0  0  0  0  0  0  0  0  0  0  0  0
    8.7819    1.4229   24.1512 N   0  0  0  0  0  0  0  0  0  0  0  0
    8.2713    2.7711   24.3781 C   0  0  0  0  0  0  0  0  0  0  0  0
    7.1315    2.9396   25.4273 C   0  0  0  0  0  0  0  0  0  0  0  0
    6.1232    3.3224   24.3434 N   0  0  0  0  0  4  0  0  0  0  0  0
    7.2541    3.2721   23.3180 C   0  0  0  0  0  0  0  0  0  0  0  0
    7.0611    2.5582   22.5215 H   0  0  0  0  0  0  0  0  0  0  0  0
    7.4384    4.2444   22.8719 H   0  0  0  0  0  0  0  0  0  0  0  0
    5.3772    2.6173   24.1979 H   0  0  0  0  0  0  0  0  0  0  0  0
    5.6640    4.2372   24.4474 H   0  0  0  0  0  0  0  0  0  0  0  0
    7.2647    3.7435   26.1467 H   0  0  0  0  0  0  0  0  0  0  0  0
    6.8543    2.0363   25.9666 H   0  0  0  0  0  0  0  0  0  0  0  0
    9.1514    3.3978   24.5448 H   0  0  0  0  0  0  0  0  0  0  0  0
   10.0985    1.1550   24.4337 C   0  0  0  0  0  0  0  0  0  0  0  0
   10.8325    1.9127   25.0480 O   0  0  0  0  0  0  0  0  0  0  0  0
   10.6376   -0.1258   23.8647 C   0  0  0  0  0  0  0  0  0  0  0  0
   11.9962   -0.3744   24.0889 C   0  0  0  0  0  0  0  0  0  0  0  0
   12.6652   -1.3429   23.3710 C   0  0  0  0  0  0  0  0  0  0  0  0
   11.9482   -2.0512   22.4027 C   0  0  0  0  0  0  0  0  0  0  0  0
   12.8279   -3.1491   21.3775 Cl  0  0  0  0  0  0  0  0  0  0  0  0
   10.5840   -1.8682   22.2111 C   0  0  0  0  0  0  0  0  0  0  0  0
    9.8931   -0.9099   22.9767 C   0  0  0  0  0  0  0  0  0  0  0  0
   10.0897   -2.4406   21.4317 H   0  0  0  0  0  0  0  0  0  0  0  0
   13.7340   -1.5158   23.5088 H   0  0  0  0  0  0  0  0  0  0  0  0
   12.5233    0.2733   24.7843 H   0  0  0  0  0  0  0  0  0  0  0  0
    6.8936    0.6294   23.6794 H   0  0  0  0  0  0  0  0  0  0  0  0
    7.8408   -0.3045   24.8360 H   0  0  0  0  0  0  0  0  0  0  0  0
    5.4660   -1.2602   22.2473 H   0  0  0  0  0  0  0  0  0  0  0  0
    6.0949   -2.3638   21.0225 H   0  0  0  0  0  0  0  0  0  0  0  0
    8.1604   -2.6513   22.1094 H   0  0  0  0  0  0  0  0  0  0  0  0
    6.3753   -1.9451   24.4988 H   0  0  0  0  0  0  0  0  0  0  0  0
    7.9743   -2.6936   24.6272 H   0  0  0  0  0  0  0  0  0  0  0  0
    6.6554   -3.5448   23.8031 H   0  0  0  0  0  0  0  0  0  0  0  0
  1  2  1  0
  2  3  1  0
  3  4  1  0
  4  5  1  0
  5  6  2  0
  6  7  1  0
  7  8  2  0
  8  9  1  0
  9 10  2  0
 10 11  1  0
 11 12  2  0
 12 13  1  0
 13 14  2  0
 13 15  1  0
 12 16  1  0
 11 17  1  0
 10 18  1  0
  8 19  1  0
  6 20  1  0
  4 21  1  0
 21 22  2  0
 21 23  1  0
 23 24  1  1
 24 25  1  0
 25 26  1  0
 26 27  1  0
 27 28  1  0
 28 29  1  0
 29 30  1  0
 29 31  1  0
 28 32  1  0
 28 33  1  0
 27 34  1  0
 27 35  1  0
 26 36  1  0
 25 37  1  0
 37 38  2  0
 37 39  1  0
 39 40  2  0
 40 41  1  0
 41 42  2  0
 42 43  1  0
 42 44  1  0
 44 45  2  0
 44 46  1  0
 41 47  1  0
 40 48  1  0
 24 49  1  0
 24 50  1  0
  3 51  1  0
  3 52  1  0
  2 53  1  6
  1 54  1  0
  1 55  1  0
  1 56  1  0
 23  2  1  0
 29 26  1  0
 45 39  1  0
 14  5  1  0
 45 23  1  0
 14  9  1  0
M  CHG  1  28   1
M  END
>  <cnnaffinities>  (67) 
[6.8793, 6.8795, 7.08387, 7.08342]

>  <score>  (67) 
6.8793

>  <index>  (67) 
73

>  <Smiles>  (67) 
C([C@]1(C(N(c2c(nc(c3c(c(c(c(c23)[H])[H])[H])[H])[H])[H])C(=O)[C@]21C(N(C1(C([N+](C1([H])[H])([H])[H])([H])[H])[H])C(=O)c1c(c(c(Cl)c(c21)[H])[H])[H])([H])[H])([H])[H])[H])([H])([H])[H]

>  <h>  (67) 
<NA>

>  <Training>  (67) 
True

>  <Success>  (67) 
True

>  <enamine_searched>  (67) 
False

>  <enamine_id>  (67) 
nan

$$$$

     RDKit          3D

 55 60  0  0  0  0  0  0  0  0999 V2000
    7.2604   -2.7422   23.7808 C   0  0  0  0  0  0  0  0  0  0  0  0
    7.6678   -1.9406   22.5449 C   0  0  1  0  0  0  0  0  0  0  0  0
    6.5053   -1.6055   21.5904 C   0  0  0  0  0  0  0  0  0  0  0  0
    6.9572   -0.3937   20.9409 N   0  0  0  0  0  0  0  0  0  0  0  0
    6.2365    0.1697   19.8591 C   0  0  0  0  0  0  0  0  0  0  0  0
    6.6097   -0.1123   18.5721 C   0  0  0  0  0  0  0  0  0  0  0  0
    5.9367    0.3111   17.4747 N   0  0  0  0  0  0  0  0  0  0  0  0
    4.8603    1.0332   17.6588 C   0  0  0  0  0  0  0  0  0  0  0  0
    4.3656    1.4137   18.9377 C   0  0  0  0  0  0  0  0  0  0  0  0
    3.2261    2.2499   19.0925 C   0  0  0  0  0  0  0  0  0  0  0  0
    2.7692    2.5790   20.3378 C   0  0  0  0  0  0  0  0  0  0  0  0
    3.4126    2.0616   21.4857 C   0  0  0  0  0  0  0  0  0  0  0  0
    4.5188    1.2548   21.3605 C   0  0  0  0  0  0  0  0  0  0  0  0
    5.0490    0.9403   20.0818 C   0  0  0  0  0  0  0  0  0  0  0  0
    5.0154    0.8920   22.2564 H   0  0  0  0  0  0  0  0  0  0  0  0
    3.0476    2.3276   22.4742 H   0  0  0  0  0  0  0  0  0  0  0  0
    1.9183    3.2465   20.4549 H   0  0  0  0  0  0  0  0  0  0  0  0
    2.7378    2.6253   18.1954 H   0  0  0  0  0  0  0  0  0  0  0  0
    4.3135    1.3478   16.7685 H   0  0  0  0  0  0  0  0  0  0  0  0
    7.4935   -0.7199   18.3888 H   0  0  0  0  0  0  0  0  0  0  0  0
    8.1068    0.1581   21.4680 C   0  0  0  0  0  0  0  0  0  0  0  0
    8.7046    1.0911   20.9779 O   0  0  0  0  0  0  0  0  0  0  0  0
    8.4017   -0.5895   22.8060 C   0  0  1  0  0  0  0  0  0  0  0  0
    7.7367    0.1978   23.9820 C   0  0  0  0  0  0  0  0  0  0  0  0
    8.4469    1.4233   24.3155 N   0  0  0  0  0  0  0  0  0  0  0  0
    7.7392    2.6484   24.6922 C   0  0  0  0  0  0  0  0  0  0  0  0
    7.5028    3.5944   23.5309 C   0  0  0  0  0  0  0  0  0  0  0  0
    8.3434    4.5827   22.9406 C   0  0  0  0  0  0  0  0  0  0  0  0
    7.5652    5.1345   21.9799 C   0  0  0  0  0  0  0  0  0  0  0  0
    6.3670    4.5421   21.9598 O   0  0  0  0  0  0  0  0  0  0  0  0
    6.3250    3.5860   22.9460 N   0  0  0  0  0  0  0  0  0  0  0  0
    7.6939    5.9364   21.2660 H   0  0  0  0  0  0  0  0  0  0  0  0
    9.3717    4.8030   23.1759 H   0  0  0  0  0  0  0  0  0  0  0  0
    6.7653    2.3922   25.1256 H   0  0  0  0  0  0  0  0  0  0  0  0
    8.3282    3.1295   25.4822 H   0  0  0  0  0  0  0  0  0  0  0  0
    9.8132    1.4259   24.3969 C   0  0  0  0  0  0  0  0  0  0  0  0
   10.4434    2.4012   24.7786 O   0  0  0  0  0  0  0  0  0  0  0  0
   10.5124    0.1652   23.9837 C   0  0  0  0  0  0  0  0  0  0  0  0
   11.8713    0.0596   24.2987 C   0  0  0  0  0  0  0  0  0  0  0  0
   12.6548   -0.9232   23.7259 C   0  0  0  0  0  0  0  0  0  0  0  0
   12.0456   -1.7594   22.7918 C   0  0  0  0  0  0  0  0  0  0  0  0
   12.8344   -2.6185   22.1231 F   0  0  0  0  0  0  0  0  0  0  0  0
   10.6940   -1.7233   22.5117 C   0  0  0  0  0  0  0  0  0  0  0  0
    9.8823   -0.7455   23.1233 C   0  0  0  0  0  0  0  0  0  0  0  0
   10.3211   -2.4284   21.7739 H   0  0  0  0  0  0  0  0  0  0  0  0
   13.7123   -1.0200   23.9427 H   0  0  0  0  0  0  0  0  0  0  0  0
   12.3051    0.8048   24.9575 H   0  0  0  0  0  0  0  0  0  0  0  0
    7.7183   -0.4513   24.8675 H   0  0  0  0  0  0  0  0  0  0  0  0
    6.7052    0.4562   23.7189 H   0  0  0  0  0  0  0  0  0  0  0  0
    6.3251   -2.3806   20.8325 H   0  0  0  0  0  0  0  0  0  0  0  0
    5.5545   -1.4380   22.1184 H   0  0  0  0  0  0  0  0  0  0  0  0
    8.3720   -2.5471   21.9678 H   0  0  0  0  0  0  0  0  0  0  0  0
    8.1051   -2.8529   24.4714 H   0  0  0  0  0  0  0  0  0  0  0  0
    6.9128   -3.7455   23.5067 H   0  0  0  0  0  0  0  0  0  0  0  0
    6.4453   -2.2531   24.3291 H   0  0  0  0  0  0  0  0  0  0  0  0
  1  2  1  0
  2  3  1  0
  3  4  1  0
  4  5  1  0
  5  6  2  0
  6  7  1  0
  7  8  2  0
  8  9  1  0
  9 10  2  0
 10 11  1  0
 11 12  2  0
 12 13  1  0
 13 14  2  0
 13 15  1  0
 12 16  1  0
 11 17  1  0
 10 18  1  0
  8 19  1  0
  6 20  1  0
  4 21  1  0
 21 22  2  0
 21 23  1  0
 23 24  1  1
 24 25  1  0
 25 26  1  0
 26 27  1  0
 27 28  1  0
 28 29  2  0
 29 30  1  0
 30 31  1  0
 29 32  1  0
 28 33  1  0
 26 34  1  0
 26 35  1  0
 25 36  1  0
 36 37  2  0
 36 38  1  0
 38 39  2  0
 39 40  1  0
 40 41  2  0
 41 42  1  0
 41 43  1  0
 43 44  2  0
 43 45  1  0
 40 46  1  0
 39 47  1  0
 24 48  1  0
 24 49  1  0
  3 50  1  0
  3 51  1  0
  2 52  1  6
  1 53  1  0
  1 54  1  0
  1 55  1  0
 23  2  1  0
 31 27  2  0
 44 38  1  0
 14  5  1  0
 44 23  1  0
 14  9  1  0
M  END
>  <cnnaffinities>  (68) 
[7.11467]

>  <score>  (68) 
7.11467

>  <index>  (68) 
74

>  <Smiles>  (68) 
C([C@]1(C(N(c2c(nc(c3c(c(c(c(c23)[H])[H])[H])[H])[H])[H])C(=O)[C@]21C(N(C(c1c(c(on1)[H])[H])([H])[H])C(=O)c1c(c(c(F)c(c21)[H])[H])[H])([H])[H])([H])[H])[H])([H])([H])[H]

>  <h>  (68) 
<NA>

>  <Training>  (68) 
True

>  <Success>  (68) 
True

>  <enamine_searched>  (68) 
False

>  <enamine_id>  (68) 
nan

$$$$

     RDKit          3D

 70 75  0  0  0  0  0  0  0  0999 V2000
    3.5699    6.2137   31.0935 C   0  0  0  0  0  0  0  0  0  0  0  0
    4.5927    5.3412   30.6646 O   0  0  0  0  0  0  0  0  0  0  0  0
    4.2091    4.1288   30.1812 C   0  0  0  0  0  0  0  0  0  0  0  0
    2.8827    3.7010   30.1316 C   0  0  0  0  0  0  0  0  0  0  0  0
    2.5844    2.4413   29.6180 C   0  0  0  0  0  0  0  0  0  0  0  0
    3.5953    1.6137   29.1543 C   0  0  0  0  0  0  0  0  0  0  0  0
    4.9278    2.0359   29.2158 C   0  0  0  0  0  0  0  0  0  0  0  0
    6.0412    1.1545   28.6849 C   0  0  0  0  0  0  0  0  0  0  0  0
    6.5586    1.6120   27.4059 N   0  0  0  0  0  0  0  0  0  0  0  0
    5.8734    1.3208   26.2686 C   0  0  0  0  0  0  0  0  0  0  0  0
    4.8453    0.6581   26.2581 O   0  0  0  0  0  0  0  0  0  0  0  0
    6.5125    1.8398   24.9872 C   0  0  0  0  0  0  0  0  0  0  0  0
    7.6253    1.0165   24.5730 N   0  0  0  0  0  0  0  0  0  0  0  0
    7.3568   -0.3210   24.0923 C   0  0  0  0  0  0  0  0  0  0  0  0
    8.2343   -0.6640   22.8517 C   0  0  2  0  0  0  0  0  0  0  0  0
    7.8252    0.2659   21.6789 C   0  0  0  0  0  0  0  0  0  0  0  0
    8.1621    1.4121   21.4805 O   0  0  0  0  0  0  0  0  0  0  0  0
    6.9335   -0.4380   20.8962 N   0  0  0  0  0  0  0  0  0  0  0  0
    6.2054    0.1445   19.8349 C   0  0  0  0  0  0  0  0  0  0  0  0
    6.5447   -0.1574   18.5405 C   0  0  0  0  0  0  0  0  0  0  0  0
    5.8885    0.3010   17.4492 N   0  0  0  0  0  0  0  0  0  0  0  0
    4.8351    1.0512   17.6529 C   0  0  0  0  0  0  0  0  0  0  0  0
    4.3668    1.4340   18.9392 C   0  0  0  0  0  0  0  0  0  0  0  0
    3.2212    2.2565   19.0893 C   0  0  0  0  0  0  0  0  0  0  0  0
    2.7638    2.5890   20.3334 C   0  0  0  0  0  0  0  0  0  0  0  0
    3.4323    2.1097   21.4832 C   0  0  0  0  0  0  0  0  0  0  0  0
    4.5515    1.3216   21.3622 C   0  0  0  0  0  0  0  0  0  0  0  0
    5.0575    0.9679   20.0784 C   0  0  0  0  0  0  0  0  0  0  0  0
    5.0489    0.9567   22.2570 H   0  0  0  0  0  0  0  0  0  0  0  0
    3.0538    2.3734   22.4665 H   0  0  0  0  0  0  0  0  0  0  0  0
    1.8876    3.2226   20.4426 H   0  0  0  0  0  0  0  0  0  0  0  0
    2.7264    2.6081   18.1882 H   0  0  0  0  0  0  0  0  0  0  0  0
    4.2870    1.3943   16.7760 H   0  0  0  0  0  0  0  0  0  0  0  0
    7.4031   -0.7999   18.3452 H   0  0  0  0  0  0  0  0  0  0  0  0
    6.7502   -1.8219   21.2832 C   0  0  0  0  0  0  0  0  0  0  0  0
    7.8992   -2.0629   22.2683 C   0  0  2  0  0  0  0  0  0  0  0  0
    7.6465   -3.1624   23.2940 C   0  0  0  0  0  0  0  0  0  0  0  0
    8.4691   -3.2223   24.0170 H   0  0  0  0  0  0  0  0  0  0  0  0
    7.5422   -4.1355   22.8053 H   0  0  0  0  0  0  0  0  0  0  0  0
    6.7258   -2.9713   23.8573 H   0  0  0  0  0  0  0  0  0  0  0  0
    8.7547   -2.3477   21.6504 H   0  0  0  0  0  0  0  0  0  0  0  0
    5.7678   -1.9786   21.7495 H   0  0  0  0  0  0  0  0  0  0  0  0
    6.8115   -2.4744   20.4068 H   0  0  0  0  0  0  0  0  0  0  0  0
    9.6747   -0.4669   23.2892 C   0  0  0  0  0  0  0  0  0  0  0  0
   10.7473   -1.2303   22.7967 C   0  0  0  0  0  0  0  0  0  0  0  0
   12.0303   -1.0092   23.2677 C   0  0  0  0  0  0  0  0  0  0  0  0
   13.3828   -1.8956   22.6171 Cl  0  0  0  0  0  0  0  0  0  0  0  0
   12.3068   -0.0402   24.2263 C   0  0  0  0  0  0  0  0  0  0  0  0
   11.2697    0.7592   24.6646 C   0  0  0  0  0  0  0  0  0  0  0  0
    9.9704    0.5626   24.1988 C   0  0  0  0  0  0  0  0  0  0  0  0
    8.8936    1.5073   24.6498 C   0  0  0  0  0  0  0  0  0  0  0  0
    9.1289    2.6291   25.0861 O   0  0  0  0  0  0  0  0  0  0  0  0
   11.4545    1.5495   25.3768 H   0  0  0  0  0  0  0  0  0  0  0  0
   13.3273    0.0831   24.5705 H   0  0  0  0  0  0  0  0  0  0  0  0
   10.6175   -1.9816   22.0243 H   0  0  0  0  0  0  0  0  0  0  0  0
    7.5596   -1.0452   24.8941 H   0  0  0  0  0  0  0  0  0  0  0  0
    6.2924   -0.3790   23.8471 H   0  0  0  0  0  0  0  0  0  0  0  0
    6.9216    2.8409   25.1215 H   0  0  0  0  0  0  0  0  0  0  0  0
    5.7488    1.8501   24.2017 H   0  0  0  0  0  0  0  0  0  0  0  0
    7.4683    2.0492   27.3513 H   0  0  0  0  0  0  0  0  0  0  0  0
    6.8687    1.1040   29.3976 H   0  0  0  0  0  0  0  0  0  0  0  0
    5.6594    0.1415   28.5500 H   0  0  0  0  0  0  0  0  0  0  0  0
    5.2298    3.2938   29.7175 C   0  0  0  0  0  0  0  0  0  0  0  0
    6.2593    3.6464   29.7409 H   0  0  0  0  0  0  0  0  0  0  0  0
    3.3600    0.6487   28.7114 H   0  0  0  0  0  0  0  0  0  0  0  0
    1.5459    2.1129   29.5859 H   0  0  0  0  0  0  0  0  0  0  0  0
    2.0807    4.3361   30.4900 H   0  0  0  0  0  0  0  0  0  0  0  0
    2.8781    6.4532   30.2755 H   0  0  0  0  0  0  0  0  0  0  0  0
    4.0680    7.1251   31.4238 H   0  0  0  0  0  0  0  0  0  0  0  0
    2.9988    5.7901   31.9301 H   0  0  0  0  0  0  0  0  0  0  0  0
  1  2  1  0
  2  3  1  0
  3  4  2  0
  4  5  1  0
  5  6  2  0
  6  7  1  0
  7  8  1  0
  8  9  1  0
  9 10  1  0
 10 11  2  0
 10 12  1  0
 12 13  1  0
 13 14  1  0
 15 14  1  1
 15 16  1  0
 16 17  2  0
 16 18  1  0
 18 19  1  0
 19 20  2  0
 20 21  1  0
 21 22  2  0
 22 23  1  0
 23 24  2  0
 24 25  1  0
 25 26  2  0
 26 27  1  0
 27 28  2  0
 27 29  1  0
 26 30  1  0
 25 31  1  0
 24 32  1  0
 22 33  1  0
 20 34  1  0
 18 35  1  0
 35 36  1  0
 36 37  1  0
 37 38  1  0
 37 39  1  0
 37 40  1  0
 36 41  1  6
 35 42  1  0
 35 43  1  0
 15 44  1  0
 44 45  2  0
 45 46  1  0
 46 47  1  0
 46 48  2  0
 48 49  1  0
 49 50  2  0
 50 51  1  0
 51 52  2  0
 49 53  1  0
 48 54  1  0
 45 55  1  0
 14 56  1  0
 14 57  1  0
 12 58  1  0
 12 59  1  0
  9 60  1  0
  8 61  1  0
  8 62  1  0
  7 63  2  0
 63 64  1  0
  6 65  1  0
  5 66  1  0
  4 67  1  0
  1 68  1  0
  1 69  1  0
  1 70  1  0
 63  3  1  0
 51 13  1  0
 36 15  1  0
 50 44  1  0
 28 19  1  0
 28 23  1  0
M  END
>  <cnnaffinities>  (69) 
[7.03515]

>  <score>  (69) 
7.03515

>  <index>  (69) 
75

>  <Smiles>  (69) 
C(Oc1c(c(c(c(C(N(C(=O)C(N2C([C@@]3(C(=O)N(c4c(nc(c5c(c(c(c(c45)[H])[H])[H])[H])[H])[H])C([C@@]3(C([H])([H])[H])[H])([H])[H])c3c(c(Cl)c(c(c3C2=O)[H])[H])[H])([H])[H])([H])[H])[H])([H])[H])c1[H])[H])[H])[H])([H])([H])[H]

>  <h>  (69) 
<NA>

>  <Training>  (69) 
True

>  <Success>  (69) 
True

>  <enamine_searched>  (69) 
False

>  <enamine_id>  (69) 
nan

$$$$

     RDKit          3D

 61 65  0  0  0  0  0  0  0  0999 V2000
    7.4107   -2.6554   23.7839 C   0  0  0  0  0  0  0  0  0  0  0  0
    7.7721   -1.8096   22.5682 C   0  0  1  0  0  0  0  0  0  0  0  0
    6.6296   -1.4895   21.5963 C   0  0  0  0  0  0  0  0  0  0  0  0
    7.0970   -0.2779   20.9467 N   0  0  0  0  0  0  0  0  0  0  0  0
    6.3356    0.2607   19.8792 C   0  0  0  0  0  0  0  0  0  0  0  0
    6.6564   -0.0861   18.5941 C   0  0  0  0  0  0  0  0  0  0  0  0
    5.9574    0.3000   17.5028 N   0  0  0  0  0  0  0  0  0  0  0  0
    4.8909    1.0331   17.7008 C   0  0  0  0  0  0  0  0  0  0  0  0
    4.4363    1.4589   18.9792 C   0  0  0  0  0  0  0  0  0  0  0  0
    3.2858    2.2777   19.1295 C   0  0  0  0  0  0  0  0  0  0  0  0
    2.8401    2.6244   20.3735 C   0  0  0  0  0  0  0  0  0  0  0  0
    3.5132    2.1560   21.5230 C   0  0  0  0  0  0  0  0  0  0  0  0
    4.6322    1.3652   21.3999 C   0  0  0  0  0  0  0  0  0  0  0  0
    5.1500    1.0267   20.1186 C   0  0  0  0  0  0  0  0  0  0  0  0
    5.1251    1.0073   22.2978 H   0  0  0  0  0  0  0  0  0  0  0  0
    3.1390    2.4214   22.5065 H   0  0  0  0  0  0  0  0  0  0  0  0
    1.9624    3.2550   20.4817 H   0  0  0  0  0  0  0  0  0  0  0  0
    2.7758    2.6158   18.2314 H   0  0  0  0  0  0  0  0  0  0  0  0
    4.3203    1.3177   16.8187 H   0  0  0  0  0  0  0  0  0  0  0  0
    7.5230   -0.7209   18.4195 H   0  0  0  0  0  0  0  0  0  0  0  0
    8.0844    0.3986   21.6356 C   0  0  0  0  0  0  0  0  0  0  0  0
    8.5306    1.4926   21.3378 O   0  0  0  0  0  0  0  0  0  0  0  0
    8.4153   -0.4367   22.9044 C   0  0  1  0  0  0  0  0  0  0  0  0
    7.7055    0.2697   24.0959 C   0  0  0  0  0  0  0  0  0  0  0  0
    8.3435    1.5310   24.4229 N   0  0  0  0  0  0  0  0  0  0  0  0
    7.5421    2.6700   24.8267 C   0  0  0  0  0  0  0  0  0  0  0  0
    6.8927    3.3967   23.6571 C   0  0  0  0  0  0  0  0  0  0  0  0
    7.8538    4.1795   22.8117 N   0  0  0  0  0  4  0  0  0  0  0  0
    8.4642    5.3189   23.5617 C   0  0  0  0  0  0  0  0  0  0  0  0
    9.1174    4.9541   24.3530 H   0  0  0  0  0  0  0  0  0  0  0  0
    7.6637    5.9362   23.9918 H   0  0  0  0  0  0  0  0  0  0  0  0
    9.0485    5.9416   22.8776 H   0  0  0  0  0  0  0  0  0  0  0  0
    7.1387    4.7209   21.6256 C   0  0  0  0  0  0  0  0  0  0  0  0
    6.9668    3.9245   20.8995 H   0  0  0  0  0  0  0  0  0  0  0  0
    7.7241    5.5197   21.1650 H   0  0  0  0  0  0  0  0  0  0  0  0
    6.1758    5.1451   21.9371 H   0  0  0  0  0  0  0  0  0  0  0  0
    8.5721    3.5233   22.4686 H   0  0  0  0  0  0  0  0  0  0  0  0
    6.1280    4.0921   24.0221 H   0  0  0  0  0  0  0  0  0  0  0  0
    6.4030    2.6749   23.0022 H   0  0  0  0  0  0  0  0  0  0  0  0
    6.7688    2.3442   25.5301 H   0  0  0  0  0  0  0  0  0  0  0  0
    8.2167    3.3258   25.3692 H   0  0  0  0  0  0  0  0  0  0  0  0
    9.7004    1.6454   24.4432 C   0  0  0  0  0  0  0  0  0  0  0  0
   10.2758    2.6990   24.7039 O   0  0  0  0  0  0  0  0  0  0  0  0
   10.4622    0.3967   24.1150 C   0  0  0  0  0  0  0  0  0  0  0  0
   11.7778    0.2544   24.5576 C   0  0  0  0  0  0  0  0  0  0  0  0
   12.6123   -0.6928   24.0034 C   0  0  0  0  0  0  0  0  0  0  0  0
   12.0958   -1.4917   22.9832 C   0  0  0  0  0  0  0  0  0  0  0  0
   13.1968   -2.4860   22.0717 Cl  0  0  0  0  0  0  0  0  0  0  0  0
   10.7543   -1.4710   22.6530 C   0  0  0  0  0  0  0  0  0  0  0  0
    9.8913   -0.5379   23.2399 C   0  0  0  0  0  0  0  0  0  0  0  0
   10.4135   -2.1471   21.8759 H   0  0  0  0  0  0  0  0  0  0  0  0
   13.6593   -0.7869   24.2817 H   0  0  0  0  0  0  0  0  0  0  0  0
   12.1766    0.9554   25.2791 H   0  0  0  0  0  0  0  0  0  0  0  0
    6.6559    0.4522   23.8405 H   0  0  0  0  0  0  0  0  0  0  0  0
    7.7254   -0.3870   24.9736 H   0  0  0  0  0  0  0  0  0  0  0  0
    6.4641   -2.2666   20.8409 H   0  0  0  0  0  0  0  0  0  0  0  0
    5.6703   -1.3310   22.1150 H   0  0  0  0  0  0  0  0  0  0  0  0
    8.5129   -2.3577   21.9824 H   0  0  0  0  0  0  0  0  0  0  0  0
    6.5916   -2.2020   24.3510 H   0  0  0  0  0  0  0  0  0  0  0  0
    7.0953   -3.6647   23.5048 H   0  0  0  0  0  0  0  0  0  0  0  0
    8.2744   -2.7374   24.4557 H   0  0  0  0  0  0  0  0  0  0  0  0
  1  2  1  0
  2  3  1  0
  3  4  1  0
  4  5  1  0
  5  6  2  0
  6  7  1  0
  7  8  2  0
  8  9  1  0
  9 10  2  0
 10 11  1  0
 11 12  2  0
 12 13  1  0
 13 14  2  0
 13 15  1  0
 12 16  1  0
 11 17  1  0
 10 18  1  0
  8 19  1  0
  6 20  1  0
  4 21  1  0
 21 22  2  0
 21 23  1  0
 23 24  1  1
 24 25  1  0
 25 26  1  0
 26 27  1  0
 27 28  1  0
 28 29  1  0
 29 30  1  0
 29 31  1  0
 29 32  1  0
 28 33  1  0
 33 34  1  0
 33 35  1  0
 33 36  1  0
 28 37  1  0
 27 38  1  0
 27 39  1  0
 26 40  1  0
 26 41  1  0
 25 42  1  0
 42 43  2  0
 42 44  1  0
 44 45  2  0
 45 46  1  0
 46 47  2  0
 47 48  1  0
 47 49  1  0
 49 50  2  0
 49 51  1  0
 46 52  1  0
 45 53  1  0
 24 54  1  0
 24 55  1  0
  3 56  1  0
  3 57  1  0
  2 58  1  6
  1 59  1  0
  1 60  1  0
  1 61  1  0
 23  2  1  0
 50 44  1  0
 14  5  1  0
 50 23  1  0
 14  9  1  0
M  CHG  1  28   1
M  END
>  <cnnaffinities>  (70) 
[7.09747]

>  <score>  (70) 
7.09747

>  <index>  (70) 
76

>  <Smiles>  (70) 
C([C@]1(C(N(c2c(nc(c3c(c(c(c(c23)[H])[H])[H])[H])[H])[H])C(=O)[C@]21C(N(C(C([N+](C([H])([H])[H])(C([H])([H])[H])[H])([H])[H])([H])[H])C(=O)c1c(c(c(Cl)c(c21)[H])[H])[H])([H])[H])([H])[H])[H])([H])([H])[H]

>  <h>  (70) 
<NA>

>  <Training>  (70) 
True

>  <Success>  (70) 
True

>  <enamine_searched>  (70) 
False

>  <enamine_id>  (70) 
nan

$$$$

     RDKit          3D

 57 60  0  0  0  0  0  0  0  0999 V2000
   10.6611    6.6065   23.9975 C   0  0  0  0  0  0  0  0  0  0  0  0
    9.3403    6.1756   24.6776 C   0  0  0  0  0  0  0  0  0  0  0  0
    8.2689    7.2547   24.4386 C   0  0  0  0  0  0  0  0  0  0  0  0
    8.5883    8.1919   24.9034 H   0  0  0  0  0  0  0  0  0  0  0  0
    7.3055    6.9650   24.8697 H   0  0  0  0  0  0  0  0  0  0  0  0
    8.1424    7.4320   23.3669 H   0  0  0  0  0  0  0  0  0  0  0  0
    9.5809    6.1399   26.1443 C   0  0  0  0  0  0  0  0  0  0  0  0
    9.7600    6.1881   27.2867 N   0  0  0  0  0  0  0  0  0  0  0  0
    8.9215    4.7765   24.1986 C   0  0  0  0  0  0  0  0  0  0  0  0
    9.6897    3.6769   24.5828 C   0  0  0  0  0  0  0  0  0  0  0  0
    9.3642    2.3882   24.1778 C   0  0  0  0  0  0  0  0  0  0  0  0
    8.3078    2.1768   23.2893 C   0  0  0  0  0  0  0  0  0  0  0  0
    7.9803    0.8606   22.8384 N   0  0  0  0  0  0  0  0  0  0  0  0
    7.6702   -0.1609   23.8365 C   0  0  0  0  0  0  0  0  0  0  0  0
    6.2401   -0.0973   24.3648 C   0  0  0  0  0  0  0  0  0  0  0  0
    5.3830   -1.1972   24.2655 C   0  0  0  0  0  0  0  0  0  0  0  0
    4.1155   -1.1681   24.8365 C   0  0  0  0  0  0  0  0  0  0  0  0
    3.6226    0.0226   25.3560 C   0  0  0  0  0  0  0  0  0  0  0  0
    4.4874    1.1075   25.4858 C   0  0  0  0  0  0  0  0  0  0  0  0
    3.9267    2.5360   26.3220 Cl  0  0  0  0  0  0  0  0  0  0  0  0
    5.8046    1.0473   25.0406 C   0  0  0  0  0  0  0  0  0  0  0  0
    6.5019    1.8648   25.2394 H   0  0  0  0  0  0  0  0  0  0  0  0
    2.5885    0.1109   25.6654 H   0  0  0  0  0  0  0  0  0  0  0  0
    3.5238   -2.0825   24.9027 H   0  0  0  0  0  0  0  0  0  0  0  0
    5.7057   -2.0858   23.7281 H   0  0  0  0  0  0  0  0  0  0  0  0
    7.8789   -1.1473   23.4094 H   0  0  0  0  0  0  0  0  0  0  0  0
    8.3686   -0.0125   24.6721 H   0  0  0  0  0  0  0  0  0  0  0  0
    7.8844    0.6683   21.4584 C   0  0  0  0  0  0  0  0  0  0  0  0
    8.5229    1.3469   20.6774 O   0  0  0  0  0  0  0  0  0  0  0  0
    6.9496   -0.4310   20.9214 C   0  0  0  0  0  0  0  0  0  0  0  0
    6.1116    0.0890   19.7756 C   0  0  0  0  0  0  0  0  0  0  0  0
    6.4385   -0.1901   18.4756 C   0  0  0  0  0  0  0  0  0  0  0  0
    5.7832    0.2819   17.3831 N   0  0  0  0  0  0  0  0  0  0  0  0
    4.7402    1.0423   17.5902 C   0  0  0  0  0  0  0  0  0  0  0  0
    4.2823    1.4243   18.8774 C   0  0  0  0  0  0  0  0  0  0  0  0
    3.1666    2.2799   19.0506 C   0  0  0  0  0  0  0  0  0  0  0  0
    2.7646    2.6454   20.3025 C   0  0  0  0  0  0  0  0  0  0  0  0
    3.4643    2.1685   21.4365 C   0  0  0  0  0  0  0  0  0  0  0  0
    4.5508    1.3413   21.2961 C   0  0  0  0  0  0  0  0  0  0  0  0
    4.9901    0.9423   20.0071 C   0  0  0  0  0  0  0  0  0  0  0  0
    5.0705    0.9889   22.1851 H   0  0  0  0  0  0  0  0  0  0  0  0
    3.1374    2.4627   22.4286 H   0  0  0  0  0  0  0  0  0  0  0  0
    1.9148    3.3058   20.4370 H   0  0  0  0  0  0  0  0  0  0  0  0
    2.6558    2.6452   18.1616 H   0  0  0  0  0  0  0  0  0  0  0  0
    4.2010    1.3942   16.7088 H   0  0  0  0  0  0  0  0  0  0  0  0
    7.2756   -0.8474   18.2446 H   0  0  0  0  0  0  0  0  0  0  0  0
    7.5956   -1.2333   20.5434 H   0  0  0  0  0  0  0  0  0  0  0  0
    6.3204   -0.8613   21.7064 H   0  0  0  0  0  0  0  0  0  0  0  0
    7.5553    3.2782   22.8682 C   0  0  0  0  0  0  0  0  0  0  0  0
    7.8581    4.5553   23.3257 C   0  0  0  0  0  0  0  0  0  0  0  0
    7.2712    5.3957   22.9693 H   0  0  0  0  0  0  0  0  0  0  0  0
    6.7234    3.1375   22.1789 H   0  0  0  0  0  0  0  0  0  0  0  0
    9.9608    1.5446   24.5198 H   0  0  0  0  0  0  0  0  0  0  0  0
   10.5692    3.8551   25.1936 H   0  0  0  0  0  0  0  0  0  0  0  0
   10.9609    7.6021   24.3387 H   0  0  0  0  0  0  0  0  0  0  0  0
   10.5138    6.6392   22.9147 H   0  0  0  0  0  0  0  0  0  0  0  0
   11.4727    5.9041   24.2133 H   0  0  0  0  0  0  0  0  0  0  0  0
  1  2  1  0
  2  3  1  0
  3  4  1  0
  3  5  1  0
  3  6  1  0
  2  7  1  0
  7  8  3  0
  2  9  1  0
  9 10  2  0
 10 11  1  0
 11 12  2  0
 12 13  1  0
 13 14  1  0
 14 15  1  0
 15 16  2  0
 16 17  1  0
 17 18  2  0
 18 19  1  0
 19 20  1  0
 19 21  2  0
 21 22  1  0
 18 23  1  0
 17 24  1  0
 16 25  1  0
 14 26  1  0
 14 27  1  0
 13 28  1  0
 28 29  2  0
 28 30  1  0
 30 31  1  0
 31 32  2  0
 32 33  1  0
 33 34  2  0
 34 35  1  0
 35 36  2  0
 36 37  1  0
 37 38  2  0
 38 39  1  0
 39 40  2  0
 39 41  1  0
 38 42  1  0
 37 43  1  0
 36 44  1  0
 34 45  1  0
 32 46  1  0
 30 47  1  0
 30 48  1  0
 12 49  1  0
 49 50  2  0
 50 51  1  0
 49 52  1  0
 11 53  1  0
 10 54  1  0
  1 55  1  0
  1 56  1  0
  1 57  1  0
 50  9  1  0
 21 15  1  0
 40 31  1  0
 40 35  1  0
M  END
>  <cnnaffinities>  (71) 
[6.41289, 6.41354, 6.41469, 6.41495, 6.55641, 6.51825, 6.55459, 6.50798, 6.51456, 6.91418, 6.56285, 6.56443]

>  <score>  (71) 
6.41289

>  <index>  (71) 
77

>  <Smiles>  (71) 
C(C(C([H])([H])[H])(C#N)c1c(c(c(N(C(c2c(c(c(c(Cl)c2[H])[H])[H])[H])([H])[H])C(=O)C(c2c(nc(c3c(c(c(c(c23)[H])[H])[H])[H])[H])[H])([H])[H])c(c1[H])[H])[H])[H])([H])([H])[H]

>  <h>  (71) 
<NA>

>  <Training>  (71) 
True

>  <Success>  (71) 
True

>  <enamine_searched>  (71) 
False

>  <enamine_id>  (71) 
nan

$$$$

     RDKit          3D

 40 42  0  0  0  0  0  0  0  0999 V2000
    5.9609    2.7187   26.3091 C   0  0  0  0  0  0  0  0  0  0  0  0
    6.9764    2.2434   25.2723 C   0  0  0  0  0  0  0  0  0  0  0  0
    6.9158    3.0748   23.9958 C   0  0  0  0  0  0  0  0  0  0  0  0
    7.9029    2.5772   22.9441 C   0  0  0  0  0  0  0  0  0  0  0  0
    7.6798    1.1596   22.6881 N   0  0  0  0  0  0  0  0  0  0  0  0
    7.8936    0.6888   21.3901 C   0  0  0  0  0  0  0  0  0  0  0  0
    8.6963    1.1950   20.6363 O   0  0  0  0  0  0  0  0  0  0  0  0
    6.9623   -0.4383   20.9098 C   0  0  0  0  0  0  0  0  0  0  0  0
    6.1058    0.0790   19.7725 C   0  0  0  0  0  0  0  0  0  0  0  0
    6.4301   -0.2006   18.4718 C   0  0  0  0  0  0  0  0  0  0  0  0
    5.7734    0.2741   17.3813 N   0  0  0  0  0  0  0  0  0  0  0  0
    4.7309    1.0364   17.5861 C   0  0  0  0  0  0  0  0  0  0  0  0
    4.2826    1.4238   18.8737 C   0  0  0  0  0  0  0  0  0  0  0  0
    3.1711    2.2850   19.0474 C   0  0  0  0  0  0  0  0  0  0  0  0
    2.7670    2.6544   20.3009 C   0  0  0  0  0  0  0  0  0  0  0  0
    3.4648    2.1728   21.4327 C   0  0  0  0  0  0  0  0  0  0  0  0
    4.5457    1.3382   21.2879 C   0  0  0  0  0  0  0  0  0  0  0  0
    4.9916    0.9415   20.0016 C   0  0  0  0  0  0  0  0  0  0  0  0
    5.0625    0.9750   22.1689 H   0  0  0  0  0  0  0  0  0  0  0  0
    3.1364    2.4695   22.4239 H   0  0  0  0  0  0  0  0  0  0  0  0
    1.9177    3.3191   20.4319 H   0  0  0  0  0  0  0  0  0  0  0  0
    2.6546    2.6522   18.1632 H   0  0  0  0  0  0  0  0  0  0  0  0
    4.1991    1.3949   16.7016 H   0  0  0  0  0  0  0  0  0  0  0  0
    7.2707   -0.8533   18.2394 H   0  0  0  0  0  0  0  0  0  0  0  0
    6.3384   -0.8235   21.7263 H   0  0  0  0  0  0  0  0  0  0  0  0
    7.5870   -1.2567   20.5335 H   0  0  0  0  0  0  0  0  0  0  0  0
    7.7588    0.3052   23.8675 C   0  0  0  0  0  0  0  0  0  0  0  0
    6.7794    0.7701   24.9343 C   0  0  0  0  0  0  0  0  0  0  0  0
    5.7581    0.6150   24.5702 H   0  0  0  0  0  0  0  0  0  0  0  0
    6.8851    0.1588   25.8373 H   0  0  0  0  0  0  0  0  0  0  0  0
    7.5575   -0.7210   23.5672 H   0  0  0  0  0  0  0  0  0  0  0  0
    8.7757    0.3098   24.2986 H   0  0  0  0  0  0  0  0  0  0  0  0
    8.9336    2.7864   23.2691 H   0  0  0  0  0  0  0  0  0  0  0  0
    7.7620    3.1047   22.0016 H   0  0  0  0  0  0  0  0  0  0  0  0
    5.9000    3.0354   23.5820 H   0  0  0  0  0  0  0  0  0  0  0  0
    7.1061    4.1281   24.2242 H   0  0  0  0  0  0  0  0  0  0  0  0
    7.9822    2.3603   25.6982 H   0  0  0  0  0  0  0  0  0  0  0  0
    4.9391    2.6178   25.9243 H   0  0  0  0  0  0  0  0  0  0  0  0
    6.1102    3.7727   26.5692 H   0  0  0  0  0  0  0  0  0  0  0  0
    6.0214    2.1294   27.2313 H   0  0  0  0  0  0  0  0  0  0  0  0
  1  2  1  0
  2  3  1  0
  3  4  1  0
  4  5  1  0
  5  6  1  0
  6  7  2  0
  6  8  1  0
  8  9  1  0
  9 10  2  0
 10 11  1  0
 11 12  2  0
 12 13  1  0
 13 14  2  0
 14 15  1  0
 15 16  2  0
 16 17  1  0
 17 18  2  0
 17 19  1  0
 16 20  1  0
 15 21  1  0
 14 22  1  0
 12 23  1  0
 10 24  1  0
  8 25  1  0
  8 26  1  0
  5 27  1  0
 27 28  1  0
 28 29  1  0
 28 30  1  0
 27 31  1  0
 27 32  1  0
  4 33  1  0
  4 34  1  0
  3 35  1  0
  3 36  1  0
  2 37  1  0
  1 38  1  0
  1 39  1  0
  1 40  1  0
 28  2  1  0
 18  9  1  0
 18 13  1  0
M  END
>  <cnnaffinities>  (72) 
[5.30636, 5.30644]

>  <score>  (72) 
5.30636

>  <index>  (72) 
79

>  <Smiles>  (72) 
C(C1(C(C(N(C(=O)C(c2c(nc(c3c(c(c(c(c23)[H])[H])[H])[H])[H])[H])([H])[H])C(C1([H])[H])([H])[H])([H])[H])([H])[H])[H])([H])([H])[H]

>  <h>  (72) 
<NA>

>  <Training>  (72) 
True

>  <Success>  (72) 
True

>  <enamine_searched>  (72) 
False

>  <enamine_id>  (72) 
nan

$$$$

     RDKit          3D

 59 64  0  0  0  0  0  0  0  0999 V2000
    7.3477   -2.7278   23.7795 C   0  0  0  0  0  0  0  0  0  0  0  0
    7.7121   -1.9102   22.5452 C   0  0  1  0  0  0  0  0  0  0  0  0
    6.5374   -1.5840   21.6056 C   0  0  0  0  0  0  0  0  0  0  0  0
    6.9801   -0.3727   20.9489 N   0  0  0  0  0  0  0  0  0  0  0  0
    6.2547    0.1882   19.8679 C   0  0  0  0  0  0  0  0  0  0  0  0
    6.6063   -0.1184   18.5807 C   0  0  0  0  0  0  0  0  0  0  0  0
    5.9252    0.2967   17.4848 N   0  0  0  0  0  0  0  0  0  0  0  0
    4.8553    1.0253   17.6749 C   0  0  0  0  0  0  0  0  0  0  0  0
    4.3809    1.4305   18.9543 C   0  0  0  0  0  0  0  0  0  0  0  0
    3.2346    2.2533   19.1073 C   0  0  0  0  0  0  0  0  0  0  0  0
    2.7941    2.6084   20.3513 C   0  0  0  0  0  0  0  0  0  0  0  0
    3.4741    2.1465   21.5016 C   0  0  0  0  0  0  0  0  0  0  0  0
    4.5864    1.3487   21.3772 C   0  0  0  0  0  0  0  0  0  0  0  0
    5.0869    0.9863   20.0974 C   0  0  0  0  0  0  0  0  0  0  0  0
    5.0893    0.9963   22.2731 H   0  0  0  0  0  0  0  0  0  0  0  0
    3.1177    2.4303   22.4870 H   0  0  0  0  0  0  0  0  0  0  0  0
    1.9249    3.2508   20.4648 H   0  0  0  0  0  0  0  0  0  0  0  0
    2.7253    2.5967   18.2089 H   0  0  0  0  0  0  0  0  0  0  0  0
    4.3019    1.3361   16.7871 H   0  0  0  0  0  0  0  0  0  0  0  0
    7.4806   -0.7406   18.3975 H   0  0  0  0  0  0  0  0  0  0  0  0
    8.1213    0.1917   21.4808 C   0  0  0  0  0  0  0  0  0  0  0  0
    8.7204    1.1140   20.9746 O   0  0  0  0  0  0  0  0  0  0  0  0
    8.4119   -0.5499   22.8224 C   0  0  1  0  0  0  0  0  0  0  0  0
    7.7033    0.2041   23.9887 C   0  0  0  0  0  0  0  0  0  0  0  0
    8.3546    1.4532   24.3285 N   0  0  0  0  0  0  0  0  0  0  0  0
    7.6070    2.5973   24.8462 C   0  0  0  0  0  0  0  0  0  0  0  0
    7.5421    3.7601   23.8930 C   0  0  0  0  0  0  0  0  0  0  0  0
    7.0286    3.8575   22.6147 C   0  0  0  0  0  0  0  0  0  0  0  0
    7.1707    5.2149   22.2758 C   0  0  0  0  0  0  0  0  0  0  0  0
    7.7379    5.9068   23.2577 N   0  0  0  0  0  0  0  0  0  0  0  0
    7.9697    5.0078   24.2235 N   0  0  0  0  0  0  0  0  0  0  0  0
    8.5719    5.4355   25.4732 C   0  0  0  0  0  0  0  0  0  0  0  0
    9.4554    4.8321   25.6943 H   0  0  0  0  0  0  0  0  0  0  0  0
    8.8490    6.4814   25.3469 H   0  0  0  0  0  0  0  0  0  0  0  0
    7.8601    5.3561   26.3033 H   0  0  0  0  0  0  0  0  0  0  0  0
    6.8592    5.7188   21.3699 H   0  0  0  0  0  0  0  0  0  0  0  0
    6.6165    3.0612   22.0056 H   0  0  0  0  0  0  0  0  0  0  0  0
    8.0880    2.9181   25.7747 H   0  0  0  0  0  0  0  0  0  0  0  0
    6.5868    2.2795   25.1068 H   0  0  0  0  0  0  0  0  0  0  0  0
    9.7181    1.5229   24.4001 C   0  0  0  0  0  0  0  0  0  0  0  0
   10.2866    2.5506   24.7424 O   0  0  0  0  0  0  0  0  0  0  0  0
   10.4770    0.2780   24.0191 C   0  0  0  0  0  0  0  0  0  0  0  0
   11.8317    0.1922   24.3641 C   0  0  0  0  0  0  0  0  0  0  0  0
   12.6473   -0.7732   23.8073 C   0  0  0  0  0  0  0  0  0  0  0  0
   12.0800   -1.6443   22.8803 C   0  0  0  0  0  0  0  0  0  0  0  0
   12.8940   -2.4923   22.2213 F   0  0  0  0  0  0  0  0  0  0  0  0
   10.7347   -1.6261   22.5635 C   0  0  0  0  0  0  0  0  0  0  0  0
    9.8911   -0.6699   23.1613 C   0  0  0  0  0  0  0  0  0  0  0  0
   10.3805   -2.3726   21.8557 H   0  0  0  0  0  0  0  0  0  0  0  0
   13.7096   -0.8484   24.0333 H   0  0  0  0  0  0  0  0  0  0  0  0
   12.2417    0.9414   25.0397 H   0  0  0  0  0  0  0  0  0  0  0  0
    7.7072   -0.4459   24.8695 H   0  0  0  0  0  0  0  0  0  0  0  0
    6.6577    0.4019   23.7275 H   0  0  0  0  0  0  0  0  0  0  0  0
    6.3559   -2.3682   20.8586 H   0  0  0  0  0  0  0  0  0  0  0  0
    5.5957   -1.4183   22.1509 H   0  0  0  0  0  0  0  0  0  0  0  0
    8.4251   -2.4924   21.9551 H   0  0  0  0  0  0  0  0  0  0  0  0
    6.5310   -2.2670   24.3456 H   0  0  0  0  0  0  0  0  0  0  0  0
    8.2066   -2.8186   24.4551 H   0  0  0  0  0  0  0  0  0  0  0  0
    7.0219   -3.7353   23.5065 H   0  0  0  0  0  0  0  0  0  0  0  0
  1  2  1  0
  2  3  1  0
  3  4  1  0
  4  5  1  0
  5  6  2  0
  6  7  1  0
  7  8  2  0
  8  9  1  0
  9 10  2  0
 10 11  1  0
 11 12  2  0
 12 13  1  0
 13 14  2  0
 13 15  1  0
 12 16  1  0
 11 17  1  0
 10 18  1  0
  8 19  1  0
  6 20  1  0
  4 21  1  0
 21 22  2  0
 21 23  1  0
 23 24  1  1
 24 25  1  0
 25 26  1  0
 26 27  1  0
 27 28  2  0
 28 29  1  0
 29 30  2  0
 30 31  1  0
 31 32  1  0
 32 33  1  0
 32 34  1  0
 32 35  1  0
 29 36  1  0
 28 37  1  0
 26 38  1  0
 26 39  1  0
 25 40  1  0
 40 41  2  0
 40 42  1  0
 42 43  2  0
 43 44  1  0
 44 45  2  0
 45 46  1  0
 45 47  1  0
 47 48  2  0
 47 49  1  0
 44 50  1  0
 43 51  1  0
 24 52  1  0
 24 53  1  0
  3 54  1  0
  3 55  1  0
  2 56  1  6
  1 57  1  0
  1 58  1  0
  1 59  1  0
 23  2  1  0
 31 27  1  0
 48 42  1  0
 14  5  1  0
 48 23  1  0
 14  9  1  0
M  END
>  <cnnaffinities>  (73) 
[7.32697]

>  <score>  (73) 
7.32697

>  <index>  (73) 
80

>  <Smiles>  (73) 
C([C@]1(C(N(c2c(nc(c3c(c(c(c(c23)[H])[H])[H])[H])[H])[H])C(=O)[C@]21C(N(C(c1c(c(nn1C([H])([H])[H])[H])[H])([H])[H])C(=O)c1c(c(c(F)c(c21)[H])[H])[H])([H])[H])([H])[H])[H])([H])([H])[H]

>  <h>  (73) 
<NA>

>  <Training>  (73) 
True

>  <Success>  (73) 
True

>  <enamine_searched>  (73) 
False

>  <enamine_id>  (73) 
nan

$$$$

     RDKit          3D

 55 60  0  0  0  0  0  0  0  0999 V2000
    7.3594   -2.6830   23.7654 C   0  0  0  0  0  0  0  0  0  0  0  0
    7.7523   -1.8834   22.5259 C   0  0  1  0  0  0  0  0  0  0  0  0
    6.6088   -1.6107   21.5392 C   0  0  0  0  0  0  0  0  0  0  0  0
    7.0031   -0.3704   20.8977 N   0  0  0  0  0  0  0  0  0  0  0  0
    6.2275    0.1698   19.8321 C   0  0  0  0  0  0  0  0  0  0  0  0
    6.5359   -0.1591   18.5375 C   0  0  0  0  0  0  0  0  0  0  0  0
    5.8509    0.2693   17.4498 N   0  0  0  0  0  0  0  0  0  0  0  0
    4.8038    1.0279   17.6456 C   0  0  0  0  0  0  0  0  0  0  0  0
    4.3460    1.4227   18.9321 C   0  0  0  0  0  0  0  0  0  0  0  0
    3.2121    2.2626   19.0905 C   0  0  0  0  0  0  0  0  0  0  0  0
    2.7810    2.6090   20.3392 C   0  0  0  0  0  0  0  0  0  0  0  0
    3.4517    2.1186   21.4807 C   0  0  0  0  0  0  0  0  0  0  0  0
    4.5527    1.3040   21.3515 C   0  0  0  0  0  0  0  0  0  0  0  0
    5.0502    0.9565   20.0669 C   0  0  0  0  0  0  0  0  0  0  0  0
    5.0646    0.9505   22.2410 H   0  0  0  0  0  0  0  0  0  0  0  0
    3.1009    2.4059   22.4671 H   0  0  0  0  0  0  0  0  0  0  0  0
    1.9191    3.2602   20.4590 H   0  0  0  0  0  0  0  0  0  0  0  0
    2.7065    2.6194   18.1962 H   0  0  0  0  0  0  0  0  0  0  0  0
    4.2543    1.3709   16.7668 H   0  0  0  0  0  0  0  0  0  0  0  0
    7.3825   -0.8112   18.3324 H   0  0  0  0  0  0  0  0  0  0  0  0
    8.0195    0.3146   21.5481 C   0  0  0  0  0  0  0  0  0  0  0  0
    8.4586    1.3868   21.2025 O   0  0  0  0  0  0  0  0  0  0  0  0
    8.3896   -0.4993   22.8251 C   0  0  1  0  0  0  0  0  0  0  0  0
    7.7144    0.2091   24.0457 C   0  0  0  0  0  0  0  0  0  0  0  0
    8.3491    1.4813   24.3285 N   0  0  0  0  0  0  0  0  0  0  0  0
    7.5937    2.6910   24.5700 C   0  0  0  0  0  0  0  0  0  0  0  0
    7.4721    3.5783   23.3673 C   0  0  0  0  0  0  0  0  0  0  0  0
    8.1901    4.5967   23.0379 N   0  0  0  0  0  0  0  0  0  0  0  0
    7.5447    5.1229   21.9265 C   0  0  0  0  0  0  0  0  0  0  0  0
    6.4549    4.3816   21.6546 C   0  0  0  0  0  0  0  0  0  0  0  0
    6.3986    3.3746   22.5743 O   0  0  0  0  0  0  0  0  0  0  0  0
    5.6354    4.4723   20.9598 H   0  0  0  0  0  0  0  0  0  0  0  0
    7.8919    6.0225   21.4339 H   0  0  0  0  0  0  0  0  0  0  0  0
    8.1101    3.2500   25.3528 H   0  0  0  0  0  0  0  0  0  0  0  0
    6.5936    2.4296   24.9146 H   0  0  0  0  0  0  0  0  0  0  0  0
    9.7052    1.5766   24.4132 C   0  0  0  0  0  0  0  0  0  0  0  0
   10.2685    2.5983   24.7752 O   0  0  0  0  0  0  0  0  0  0  0  0
   10.4602    0.3559   23.9989 C   0  0  0  0  0  0  0  0  0  0  0  0
   11.8225    0.3050   24.3034 C   0  0  0  0  0  0  0  0  0  0  0  0
   12.6755   -0.5650   23.6555 C   0  0  0  0  0  0  0  0  0  0  0  0
   12.1020   -1.4645   22.7646 C   0  0  0  0  0  0  0  0  0  0  0  0
   12.8971   -2.3544   22.1447 F   0  0  0  0  0  0  0  0  0  0  0  0
   10.7387   -1.5211   22.5460 C   0  0  0  0  0  0  0  0  0  0  0  0
    9.8798   -0.5756   23.1258 C   0  0  0  0  0  0  0  0  0  0  0  0
   10.3852   -2.3219   21.9103 H   0  0  0  0  0  0  0  0  0  0  0  0
   13.7490   -0.5619   23.8115 H   0  0  0  0  0  0  0  0  0  0  0  0
   12.2022    1.0304   25.0125 H   0  0  0  0  0  0  0  0  0  0  0  0
    7.7844   -0.4340   24.9357 H   0  0  0  0  0  0  0  0  0  0  0  0
    6.6561    0.4042   23.8423 H   0  0  0  0  0  0  0  0  0  0  0  0
    5.6295   -1.5234   22.0372 H   0  0  0  0  0  0  0  0  0  0  0  0
    6.5142   -2.4076   20.7933 H   0  0  0  0  0  0  0  0  0  0  0  0
    8.4905   -2.4660   21.9653 H   0  0  0  0  0  0  0  0  0  0  0  0
    8.2154   -2.7498   24.4482 H   0  0  0  0  0  0  0  0  0  0  0  0
    6.5362   -2.1955   24.3051 H   0  0  0  0  0  0  0  0  0  0  0  0
    7.0455   -3.7007   23.5072 H   0  0  0  0  0  0  0  0  0  0  0  0
  1  2  1  0
  2  3  1  0
  3  4  1  0
  4  5  1  0
  5  6  2  0
  6  7  1  0
  7  8  2  0
  8  9  1  0
  9 10  2  0
 10 11  1  0
 11 12  2  0
 12 13  1  0
 13 14  2  0
 13 15  1  0
 12 16  1  0
 11 17  1  0
 10 18  1  0
  8 19  1  0
  6 20  1  0
  4 21  1  0
 21 22  2  0
 21 23  1  0
 23 24  1  1
 24 25  1  0
 25 26  1  0
 26 27  1  0
 27 28  2  0
 28 29  1  0
 29 30  2  0
 30 31  1  0
 30 32  1  0
 29 33  1  0
 26 34  1  0
 26 35  1  0
 25 36  1  0
 36 37  2  0
 36 38  1  0
 38 39  2  0
 39 40  1  0
 40 41  2  0
 41 42  1  0
 41 43  1  0
 43 44  2  0
 43 45  1  0
 40 46  1  0
 39 47  1  0
 24 48  1  0
 24 49  1  0
  3 50  1  0
  3 51  1  0
  2 52  1  6
  1 53  1  0
  1 54  1  0
  1 55  1  0
 23  2  1  0
 31 27  1  0
 44 38  1  0
 14  5  1  0
 44 23  1  0
 14  9  1  0
M  END
>  <cnnaffinities>  (74) 
[7.01049]

>  <score>  (74) 
7.01049

>  <index>  (74) 
82

>  <Smiles>  (74) 
C([C@]1(C(N(c2c(nc(c3c(c(c(c(c23)[H])[H])[H])[H])[H])[H])C(=O)[C@]21C(N(C(c1nc(c(o1)[H])[H])([H])[H])C(=O)c1c(c(c(F)c(c21)[H])[H])[H])([H])[H])([H])[H])[H])([H])([H])[H]

>  <h>  (74) 
<NA>

>  <Training>  (74) 
True

>  <Success>  (74) 
True

>  <enamine_searched>  (74) 
False

>  <enamine_id>  (74) 
nan

$$$$

     RDKit          3D

 72 77  0  0  0  0  0  0  0  0999 V2000
    5.2094    4.3890   23.5424 C   0  0  0  0  0  0  0  0  0  0  0  0
    6.4161    5.2070   23.9784 C   0  0  2  0  0  0  0  0  0  0  0  0
    6.0442    6.6903   23.9995 C   0  0  0  0  0  0  0  0  0  0  0  0
    7.1464    7.5455   24.2067 O   0  0  0  0  0  0  0  0  0  0  0  0
    8.0524    7.4088   23.1331 C   0  0  0  0  0  0  0  0  0  0  0  0
    8.6919    6.0255   23.1162 C   0  0  1  0  0  0  0  0  0  0  0  0
    9.5918    5.8340   24.3332 C   0  0  0  0  0  0  0  0  0  0  0  0
   10.1958    4.9240   24.2587 H   0  0  0  0  0  0  0  0  0  0  0  0
   10.2763    6.6837   24.4172 H   0  0  0  0  0  0  0  0  0  0  0  0
    9.0012    5.7953   25.2538 H   0  0  0  0  0  0  0  0  0  0  0  0
    7.5811    4.9858   23.0144 N   0  0  0  0  0  4  0  0  0  0  0  0
    8.0944    3.5715   22.8747 C   0  0  0  0  0  0  0  0  0  0  0  0
    8.2648    2.8138   24.2023 C   0  0  0  0  0  0  0  0  0  0  0  0
    8.8140    1.4788   24.0147 N   0  0  0  0  0  0  0  0  0  0  0  0
    7.9279    0.3376   23.8445 C   0  0  0  0  0  0  0  0  0  0  0  0
    8.4260   -0.5928   22.7012 C   0  0  2  0  0  0  0  0  0  0  0  0
    8.1232    0.0841   21.3447 C   0  0  0  0  0  0  0  0  0  0  0  0
    8.7640    0.9436   20.7736 O   0  0  0  0  0  0  0  0  0  0  0  0
    6.9334   -0.4347   20.8810 N   0  0  0  0  0  0  0  0  0  0  0  0
    6.1957    0.1481   19.8226 C   0  0  0  0  0  0  0  0  0  0  0  0
    6.5399   -0.1343   18.5285 C   0  0  0  0  0  0  0  0  0  0  0  0
    5.8536    0.2963   17.4423 N   0  0  0  0  0  0  0  0  0  0  0  0
    4.7902    1.0307   17.6458 C   0  0  0  0  0  0  0  0  0  0  0  0
    4.3321    1.4186   18.9341 C   0  0  0  0  0  0  0  0  0  0  0  0
    3.1980    2.2531   19.0915 C   0  0  0  0  0  0  0  0  0  0  0  0
    2.7836    2.6294   20.3370 C   0  0  0  0  0  0  0  0  0  0  0  0
    3.4820    2.1820   21.4794 C   0  0  0  0  0  0  0  0  0  0  0  0
    4.5815    1.3668   21.3568 C   0  0  0  0  0  0  0  0  0  0  0  0
    5.0453    0.9673   20.0713 C   0  0  0  0  0  0  0  0  0  0  0  0
    5.1030    1.0351   22.2505 H   0  0  0  0  0  0  0  0  0  0  0  0
    3.1503    2.5013   22.4633 H   0  0  0  0  0  0  0  0  0  0  0  0
    1.9193    3.2756   20.4530 H   0  0  0  0  0  0  0  0  0  0  0  0
    2.6842    2.5942   18.1979 H   0  0  0  0  0  0  0  0  0  0  0  0
    4.2382    1.3714   16.7673 H   0  0  0  0  0  0  0  0  0  0  0  0
    7.4025   -0.7660   18.3284 H   0  0  0  0  0  0  0  0  0  0  0  0
    6.4108   -1.5388   21.6620 C   0  0  0  0  0  0  0  0  0  0  0  0
    7.5824   -1.8959   22.5868 C   0  0  2  0  0  0  0  0  0  0  0  0
    7.1940   -2.5286   23.9164 C   0  0  0  0  0  0  0  0  0  0  0  0
    6.4962   -1.8863   24.4699 H   0  0  0  0  0  0  0  0  0  0  0  0
    6.7255   -3.5082   23.7685 H   0  0  0  0  0  0  0  0  0  0  0  0
    8.0914   -2.6615   24.5330 H   0  0  0  0  0  0  0  0  0  0  0  0
    8.1836   -2.6278   22.0365 H   0  0  0  0  0  0  0  0  0  0  0  0
    6.1456   -2.3705   20.9996 H   0  0  0  0  0  0  0  0  0  0  0  0
    5.5039   -1.2655   22.2234 H   0  0  0  0  0  0  0  0  0  0  0  0
    9.9027   -0.8417   22.8933 C   0  0  0  0  0  0  0  0  0  0  0  0
   10.5484   -1.8251   22.1306 C   0  0  0  0  0  0  0  0  0  0  0  0
   11.9232   -1.9568   22.1836 C   0  0  0  0  0  0  0  0  0  0  0  0
   12.6848   -3.0556   21.0585 Cl  0  0  0  0  0  0  0  0  0  0  0  0
   12.6999   -1.2036   23.0721 C   0  0  0  0  0  0  0  0  0  0  0  0
   12.0474   -0.2998   23.8933 C   0  0  0  0  0  0  0  0  0  0  0  0
   10.6728   -0.0654   23.7661 C   0  0  0  0  0  0  0  0  0  0  0  0
   10.1121    1.2054   24.3655 C   0  0  0  0  0  0  0  0  0  0  0  0
   10.8112    1.9470   25.0384 O   0  0  0  0  0  0  0  0  0  0  0  0
   12.6004    0.2695   24.6362 H   0  0  0  0  0  0  0  0  0  0  0  0
   13.7871   -1.3168   23.1035 H   0  0  0  0  0  0  0  0  0  0  0  0
    9.9831   -2.4957   21.4919 H   0  0  0  0  0  0  0  0  0  0  0  0
    6.9155    0.7044   23.6407 H   0  0  0  0  0  0  0  0  0  0  0  0
    7.8993   -0.2412   24.7819 H   0  0  0  0  0  0  0  0  0  0  0  0
    7.2886    2.7254   24.6896 H   0  0  0  0  0  0  0  0  0  0  0  0
    8.9238    3.3438   24.8935 H   0  0  0  0  0  0  0  0  0  0  0  0
    7.4084    3.0065   22.2266 H   0  0  0  0  0  0  0  0  0  0  0  0
    9.0579    3.6163   22.3503 H   0  0  0  0  0  0  0  0  0  0  0  0
    7.1442    5.1874   22.0934 H   0  0  0  0  0  0  0  0  0  0  0  0
    9.2914    5.9350   22.2014 H   0  0  0  0  0  0  0  0  0  0  0  0
    7.5305    7.5977   22.1806 H   0  0  0  0  0  0  0  0  0  0  0  0
    8.8206    8.1785   23.2567 H   0  0  0  0  0  0  0  0  0  0  0  0
    5.5571    6.9472   23.0424 H   0  0  0  0  0  0  0  0  0  0  0  0
    5.3310    6.8834   24.8082 H   0  0  0  0  0  0  0  0  0  0  0  0
    6.7428    4.9223   24.9813 H   0  0  0  0  0  0  0  0  0  0  0  0
    4.3597    4.5622   24.2110 H   0  0  0  0  0  0  0  0  0  0  0  0
    5.4092    3.3141   23.5246 H   0  0  0  0  0  0  0  0  0  0  0  0
    4.9215    4.6912   22.5257 H   0  0  0  0  0  0  0  0  0  0  0  0
  1  2  1  0
  2  3  1  0
  3  4  1  0
  4  5  1  0
  5  6  1  0
  6  7  1  0
  7  8  1  0
  7  9  1  0
  7 10  1  0
  6 11  1  0
 11 12  1  0
 12 13  1  0
 13 14  1  0
 14 15  1  0
 16 15  1  1
 16 17  1  0
 17 18  2  0
 17 19  1  0
 19 20  1  0
 20 21  2  0
 21 22  1  0
 22 23  2  0
 23 24  1  0
 24 25  2  0
 25 26  1  0
 26 27  2  0
 27 28  1  0
 28 29  2  0
 28 30  1  0
 27 31  1  0
 26 32  1  0
 25 33  1  0
 23 34  1  0
 21 35  1  0
 19 36  1  0
 36 37  1  0
 37 38  1  0
 38 39  1  0
 38 40  1  0
 38 41  1  0
 37 42  1  6
 36 43  1  0
 36 44  1  0
 16 45  1  0
 45 46  2  0
 46 47  1  0
 47 48  1  0
 47 49  2  0
 49 50  1  0
 50 51  2  0
 51 52  1  0
 52 53  2  0
 50 54  1  0
 49 55  1  0
 46 56  1  0
 15 57  1  0
 15 58  1  0
 13 59  1  0
 13 60  1  0
 12 61  1  0
 12 62  1  0
 11 63  1  0
  6 64  1  6
  5 65  1  0
  5 66  1  0
  3 67  1  0
  3 68  1  0
  2 69  1  1
  1 70  1  0
  1 71  1  0
  1 72  1  0
 11  2  1  0
 52 14  1  0
 37 16  1  0
 51 45  1  0
 29 20  1  0
 29 24  1  0
M  CHG  1  11   1
M  END
>  <cnnaffinities>  (75) 
[7.58147]

>  <score>  (75) 
7.58147

>  <index>  (75) 
83

>  <Smiles>  (75) 
C([C@@]1(C(OC([C@@](C([H])([H])[H])([N+]1(C(C(N1C([C@@]2(C(=O)N(c3c(nc(c4c(c(c(c(c34)[H])[H])[H])[H])[H])[H])C([C@@]2(C([H])([H])[H])[H])([H])[H])c2c(c(Cl)c(c(c2C1=O)[H])[H])[H])([H])[H])([H])[H])([H])[H])[H])[H])([H])[H])([H])[H])[H])([H])([H])[H]

>  <h>  (75) 
<NA>

>  <Training>  (75) 
True

>  <Success>  (75) 
True

>  <enamine_searched>  (75) 
False

>  <enamine_id>  (75) 
nan

$$$$

     RDKit          3D

 60 65  0  0  0  0  0  0  0  0999 V2000
    7.2425    1.8571   28.6215 C   0  0  0  0  0  0  0  0  0  0  0  0
    7.6530    1.8394   27.2282 N   0  0  0  0  0  0  0  0  0  0  0  0
    6.8656    2.4363   26.2964 C   0  0  0  0  0  0  0  0  0  0  0  0
    5.8022    2.9610   26.5831 O   0  0  0  0  0  0  0  0  0  0  0  0
    7.3962    2.4772   24.8707 C   0  0  0  0  0  0  0  0  0  0  0  0
    8.2298    1.4064   24.3932 N   0  0  0  0  0  0  0  0  0  0  0  0
    7.6064    0.1355   24.0777 C   0  0  0  0  0  0  0  0  0  0  0  0
    8.2974   -0.5567   22.8738 C   0  0  2  0  0  0  0  0  0  0  0  0
    7.9493    0.2701   21.6040 C   0  0  0  0  0  0  0  0  0  0  0  0
    8.3977    1.3423   21.2656 O   0  0  0  0  0  0  0  0  0  0  0  0
    6.9659   -0.4103   20.9065 N   0  0  0  0  0  0  0  0  0  0  0  0
    6.2174    0.1541   19.8405 C   0  0  0  0  0  0  0  0  0  0  0  0
    6.5606   -0.1425   18.5490 C   0  0  0  0  0  0  0  0  0  0  0  0
    5.8892    0.2999   17.4592 N   0  0  0  0  0  0  0  0  0  0  0  0
    4.8293    1.0424   17.6549 C   0  0  0  0  0  0  0  0  0  0  0  0
    4.3588    1.4288   18.9400 C   0  0  0  0  0  0  0  0  0  0  0  0
    3.2253    2.2660   19.0989 C   0  0  0  0  0  0  0  0  0  0  0  0
    2.7897    2.6089   20.3477 C   0  0  0  0  0  0  0  0  0  0  0  0
    3.4480    2.1055   21.4897 C   0  0  0  0  0  0  0  0  0  0  0  0
    4.5384    1.2813   21.3606 C   0  0  0  0  0  0  0  0  0  0  0  0
    5.0501    0.9520   20.0756 C   0  0  0  0  0  0  0  0  0  0  0  0
    5.0165    0.8816   22.2486 H   0  0  0  0  0  0  0  0  0  0  0  0
    3.0912    2.3822   22.4765 H   0  0  0  0  0  0  0  0  0  0  0  0
    1.9326    3.2628   20.4655 H   0  0  0  0  0  0  0  0  0  0  0  0
    2.7273    2.6304   18.2053 H   0  0  0  0  0  0  0  0  0  0  0  0
    4.2926    1.3820   16.7689 H   0  0  0  0  0  0  0  0  0  0  0  0
    7.4264   -0.7751   18.3566 H   0  0  0  0  0  0  0  0  0  0  0  0
    6.5370   -1.6489   21.5175 C   0  0  0  0  0  0  0  0  0  0  0  0
    7.6506   -1.9313   22.5381 C   0  0  2  0  0  0  0  0  0  0  0  0
    7.2325   -2.7735   23.7363 C   0  0  0  0  0  0  0  0  0  0  0  0
    6.3836   -2.3334   24.2674 H   0  0  0  0  0  0  0  0  0  0  0  0
    6.9346   -3.7791   23.4278 H   0  0  0  0  0  0  0  0  0  0  0  0
    8.0560   -2.8648   24.4532 H   0  0  0  0  0  0  0  0  0  0  0  0
    8.4067   -2.4994   21.9960 H   0  0  0  0  0  0  0  0  0  0  0  0
    5.5433   -1.5529   21.9865 H   0  0  0  0  0  0  0  0  0  0  0  0
    6.4645   -2.4296   20.7498 H   0  0  0  0  0  0  0  0  0  0  0  0
    9.7898   -0.6345   23.1835 C   0  0  0  0  0  0  0  0  0  0  0  0
   10.6438   -1.5807   22.5890 C   0  0  0  0  0  0  0  0  0  0  0  0
   11.9957   -1.5925   22.8994 C   0  0  0  0  0  0  0  0  0  0  0  0
   13.0371   -2.7176   22.0692 Cl  0  0  0  0  0  0  0  0  0  0  0  0
   12.5566   -0.7279   23.8392 C   0  0  0  0  0  0  0  0  0  0  0  0
   11.7318    0.2305   24.3971 C   0  0  0  0  0  0  0  0  0  0  0  0
   10.3776    0.3086   24.0406 C   0  0  0  0  0  0  0  0  0  0  0  0
    9.5973    1.5149   24.4591 C   0  0  0  0  0  0  0  0  0  0  0  0
   10.1376    2.5505   24.8133 O   0  0  0  0  0  0  0  0  0  0  0  0
   12.1272    0.9673   25.0862 H   0  0  0  0  0  0  0  0  0  0  0  0
   13.6095   -0.8125   24.1141 H   0  0  0  0  0  0  0  0  0  0  0  0
   10.2943   -2.3105   21.8670 H   0  0  0  0  0  0  0  0  0  0  0  0
    6.5555    0.3131   23.8526 H   0  0  0  0  0  0  0  0  0  0  0  0
    7.6521   -0.5196   24.9524 H   0  0  0  0  0  0  0  0  0  0  0  0
    7.5757    3.8825   24.3536 C   0  0  0  0  0  0  0  0  0  0  0  0
    6.4399    3.0595   23.8523 C   0  0  0  0  0  0  0  0  0  0  0  0
    6.5552    2.6790   22.8432 H   0  0  0  0  0  0  0  0  0  0  0  0
    5.4337    3.3001   24.1852 H   0  0  0  0  0  0  0  0  0  0  0  0
    7.3653    4.6810   25.0612 H   0  0  0  0  0  0  0  0  0  0  0  0
    8.4146    4.0448   23.6857 H   0  0  0  0  0  0  0  0  0  0  0  0
    8.6127    1.6276   27.0109 H   0  0  0  0  0  0  0  0  0  0  0  0
    6.3121    1.2993   28.7507 H   0  0  0  0  0  0  0  0  0  0  0  0
    8.0165    1.3997   29.2401 H   0  0  0  0  0  0  0  0  0  0  0  0
    7.0631    2.8771   28.9742 H   0  0  0  0  0  0  0  0  0  0  0  0
  1  2  1  0
  2  3  1  0
  3  4  2  0
  3  5  1  0
  5  6  1  0
  6  7  1  0
  8  7  1  1
  8  9  1  0
  9 10  2  0
  9 11  1  0
 11 12  1  0
 12 13  2  0
 13 14  1  0
 14 15  2  0
 15 16  1  0
 16 17  2  0
 17 18  1  0
 18 19  2  0
 19 20  1  0
 20 21  2  0
 20 22  1  0
 19 23  1  0
 18 24  1  0
 17 25  1  0
 15 26  1  0
 13 27  1  0
 11 28  1  0
 28 29  1  0
 29 30  1  0
 30 31  1  0
 30 32  1  0
 30 33  1  0
 29 34  1  6
 28 35  1  0
 28 36  1  0
  8 37  1  0
 37 38  2  0
 38 39  1  0
 39 40  1  0
 39 41  2  0
 41 42  1  0
 42 43  2  0
 43 44  1  0
 44 45  2  0
 42 46  1  0
 41 47  1  0
 38 48  1  0
  7 49  1  0
  7 50  1  0
  5 51  1  0
 51 52  1  0
 52 53  1  0
 52 54  1  0
 51 55  1  0
 51 56  1  0
  2 57  1  0
  1 58  1  0
  1 59  1  0
  1 60  1  0
 52  5  1  0
 44  6  1  0
 29  8  1  0
 43 37  1  0
 21 12  1  0
 21 16  1  0
M  END
>  <cnnaffinities>  (76) 
[7.07799]

>  <score>  (76) 
7.07799

>  <index>  (76) 
84

>  <Smiles>  (76) 
C(N(C(=O)C1(N2C([C@@]3(C(=O)N(c4c(nc(c5c(c(c(c(c45)[H])[H])[H])[H])[H])[H])C([C@@]3(C([H])([H])[H])[H])([H])[H])c3c(c(Cl)c(c(c3C2=O)[H])[H])[H])([H])[H])C(C1([H])[H])([H])[H])[H])([H])([H])[H]

>  <h>  (76) 
<NA>

>  <Training>  (76) 
True

>  <Success>  (76) 
True

>  <enamine_searched>  (76) 
False

>  <enamine_id>  (76) 
nan

$$$$

     RDKit          3D

 55 60  0  0  0  0  0  0  0  0999 V2000
    7.2308   -2.6745   23.8469 C   0  0  0  0  0  0  0  0  0  0  0  0
    7.6116   -1.9224   22.5792 C   0  0  1  0  0  0  0  0  0  0  0  0
    6.4323   -1.5320   21.6757 C   0  0  0  0  0  0  0  0  0  0  0  0
    6.9478   -0.3831   20.9608 N   0  0  0  0  0  0  0  0  0  0  0  0
    6.2454    0.1805   19.8698 C   0  0  0  0  0  0  0  0  0  0  0  0
    6.6504   -0.0661   18.5838 C   0  0  0  0  0  0  0  0  0  0  0  0
    5.9801    0.3564   17.4842 N   0  0  0  0  0  0  0  0  0  0  0  0
    4.8816    1.0493   17.6600 C   0  0  0  0  0  0  0  0  0  0  0  0
    4.3691    1.4124   18.9394 C   0  0  0  0  0  0  0  0  0  0  0  0
    3.2161    2.2318   19.0925 C   0  0  0  0  0  0  0  0  0  0  0  0
    2.7527    2.5531   20.3395 C   0  0  0  0  0  0  0  0  0  0  0  0
    3.4071    2.0537   21.4879 C   0  0  0  0  0  0  0  0  0  0  0  0
    4.5218    1.2564   21.3649 C   0  0  0  0  0  0  0  0  0  0  0  0
    5.0488    0.9380   20.0845 C   0  0  0  0  0  0  0  0  0  0  0  0
    5.0283    0.9100   22.2610 H   0  0  0  0  0  0  0  0  0  0  0  0
    3.0432    2.3222   22.4766 H   0  0  0  0  0  0  0  0  0  0  0  0
    1.8895    3.2047   20.4563 H   0  0  0  0  0  0  0  0  0  0  0  0
    2.7249    2.6101   18.1992 H   0  0  0  0  0  0  0  0  0  0  0  0
    4.3374    1.3650   16.7664 H   0  0  0  0  0  0  0  0  0  0  0  0
    7.5522   -0.6460   18.3983 H   0  0  0  0  0  0  0  0  0  0  0  0
    8.1507    0.1084   21.4323 C   0  0  0  0  0  0  0  0  0  0  0  0
    8.7933    0.9760   20.8905 O   0  0  0  0  0  0  0  0  0  0  0  0
    8.4283   -0.6108   22.7918 C   0  0  1  0  0  0  0  0  0  0  0  0
    7.8274    0.2542   23.9501 C   0  0  0  0  0  0  0  0  0  0  0  0
    8.6463    1.4104   24.2847 N   0  0  0  0  0  0  0  0  0  0  0  0
    8.0452    2.7106   24.5899 C   0  0  0  0  0  0  0  0  0  0  0  0
    7.6819    3.5559   23.4042 C   0  0  0  0  0  0  0  0  0  0  0  0
    8.3216    4.5808   22.7841 C   0  0  0  0  0  0  0  0  0  0  0  0
    7.5074    5.0323   21.7849 O   0  0  0  0  0  0  0  0  0  0  0  0
    6.4042    4.2675   21.8602 C   0  0  0  0  0  0  0  0  0  0  0  0
    6.4391    3.3834   22.8046 N   0  0  0  0  0  0  0  0  0  0  0  0
    5.6099    4.4535   21.1481 H   0  0  0  0  0  0  0  0  0  0  0  0
    9.2711    5.0825   22.8984 H   0  0  0  0  0  0  0  0  0  0  0  0
    8.7564    3.2258   25.2450 H   0  0  0  0  0  0  0  0  0  0  0  0
    7.1123    2.5516   25.1419 H   0  0  0  0  0  0  0  0  0  0  0  0
    9.9913    1.2501   24.4805 C   0  0  0  0  0  0  0  0  0  0  0  0
   10.6972    2.1189   24.9673 O   0  0  0  0  0  0  0  0  0  0  0  0
   10.5927   -0.0294   23.9927 C   0  0  0  0  0  0  0  0  0  0  0  0
   11.9368   -0.2432   24.3279 C   0  0  0  0  0  0  0  0  0  0  0  0
   12.6708   -1.2118   23.6695 C   0  0  0  0  0  0  0  0  0  0  0  0
   12.0199   -1.9556   22.6894 C   0  0  0  0  0  0  0  0  0  0  0  0
   12.7537   -2.8215   21.9627 F   0  0  0  0  0  0  0  0  0  0  0  0
   10.6661   -1.8329   22.4184 C   0  0  0  0  0  0  0  0  0  0  0  0
    9.9076   -0.8479   23.0834 C   0  0  0  0  0  0  0  0  0  0  0  0
   10.2503   -2.4845   21.6562 H   0  0  0  0  0  0  0  0  0  0  0  0
   13.7328   -1.3639   23.8441 H   0  0  0  0  0  0  0  0  0  0  0  0
   12.4000    0.4347   25.0447 H   0  0  0  0  0  0  0  0  0  0  0  0
    6.8404    0.6154   23.6515 H   0  0  0  0  0  0  0  0  0  0  0  0
    7.7136   -0.3684   24.8489 H   0  0  0  0  0  0  0  0  0  0  0  0
    5.5205   -1.2867   22.2396 H   0  0  0  0  0  0  0  0  0  0  0  0
    6.1574   -2.3214   20.9675 H   0  0  0  0  0  0  0  0  0  0  0  0
    8.2676   -2.5566   21.9744 H   0  0  0  0  0  0  0  0  0  0  0  0
    8.1021   -2.7879   24.5020 H   0  0  0  0  0  0  0  0  0  0  0  0
    6.4567   -2.1398   24.4090 H   0  0  0  0  0  0  0  0  0  0  0  0
    6.8427   -3.6693   23.6122 H   0  0  0  0  0  0  0  0  0  0  0  0
  1  2  1  0
  2  3  1  0
  3  4  1  0
  4  5  1  0
  5  6  2  0
  6  7  1  0
  7  8  2  0
  8  9  1  0
  9 10  2  0
 10 11  1  0
 11 12  2  0
 12 13  1  0
 13 14  2  0
 13 15  1  0
 12 16  1  0
 11 17  1  0
 10 18  1  0
  8 19  1  0
  6 20  1  0
  4 21  1  0
 21 22  2  0
 21 23  1  0
 23 24  1  1
 24 25  1  0
 25 26  1  0
 26 27  1  0
 27 28  2  0
 28 29  1  0
 29 30  1  0
 30 31  2  0
 30 32  1  0
 28 33  1  0
 26 34  1  0
 26 35  1  0
 25 36  1  0
 36 37  2  0
 36 38  1  0
 38 39  2  0
 39 40  1  0
 40 41  2  0
 41 42  1  0
 41 43  1  0
 43 44  2  0
 43 45  1  0
 40 46  1  0
 39 47  1  0
 24 48  1  0
 24 49  1  0
  3 50  1  0
  3 51  1  0
  2 52  1  6
  1 53  1  0
  1 54  1  0
  1 55  1  0
 23  2  1  0
 31 27  1  0
 44 38  1  0
 14  5  1  0
 44 23  1  0
 14  9  1  0
M  END
>  <cnnaffinities>  (77) 
[7.09415]

>  <score>  (77) 
7.09415

>  <index>  (77) 
85

>  <Smiles>  (77) 
C([C@]1(C(N(c2c(nc(c3c(c(c(c(c23)[H])[H])[H])[H])[H])[H])C(=O)[C@]21C(N(C(c1c(oc(n1)[H])[H])([H])[H])C(=O)c1c(c(c(F)c(c21)[H])[H])[H])([H])[H])([H])[H])[H])([H])([H])[H]

>  <h>  (77) 
<NA>

>  <Training>  (77) 
True

>  <Success>  (77) 
True

>  <enamine_searched>  (77) 
False

>  <enamine_id>  (77) 
nan

$$$$

     RDKit          3D

 65 70  0  0  0  0  0  0  0  0999 V2000
    6.5739    4.2804   21.4411 C   0  0  0  0  0  0  0  0  0  0  0  0
    7.4954    3.7223   22.4211 N   0  0  0  0  0  0  0  0  0  0  0  0
    7.0134    3.1439   23.5555 C   0  0  0  0  0  0  0  0  0  0  0  0
    5.8163    3.0369   23.7769 O   0  0  0  0  0  0  0  0  0  0  0  0
    8.0636    2.6560   24.5701 C   0  0  0  0  0  0  0  0  0  0  0  0
    8.7028    1.4092   24.1594 N   0  0  0  0  0  0  0  0  0  0  0  0
    7.8824    0.2325   23.9150 C   0  0  0  0  0  0  0  0  0  0  0  0
    8.4305   -0.6214   22.7309 C   0  0  2  0  0  0  0  0  0  0  0  0
    8.0862    0.1118   21.4071 C   0  0  0  0  0  0  0  0  0  0  0  0
    8.6724    1.0355   20.8802 O   0  0  0  0  0  0  0  0  0  0  0  0
    6.9081   -0.4284   20.9280 N   0  0  0  0  0  0  0  0  0  0  0  0
    6.2038    0.1435   19.8433 C   0  0  0  0  0  0  0  0  0  0  0  0
    6.6064   -0.1037   18.5556 C   0  0  0  0  0  0  0  0  0  0  0  0
    5.9406    0.3353   17.4629 N   0  0  0  0  0  0  0  0  0  0  0  0
    4.8538    1.0455   17.6500 C   0  0  0  0  0  0  0  0  0  0  0  0
    4.3559    1.4185   18.9303 C   0  0  0  0  0  0  0  0  0  0  0  0
    3.2124    2.2437   19.0960 C   0  0  0  0  0  0  0  0  0  0  0  0
    2.7880    2.6037   20.3480 C   0  0  0  0  0  0  0  0  0  0  0  0
    3.4784    2.1493   21.4928 C   0  0  0  0  0  0  0  0  0  0  0  0
    4.5795    1.3371   21.3557 C   0  0  0  0  0  0  0  0  0  0  0  0
    5.0482    0.9529   20.0703 C   0  0  0  0  0  0  0  0  0  0  0  0
    5.1316    1.0295   22.2376 H   0  0  0  0  0  0  0  0  0  0  0  0
    3.1663    2.4602   22.4857 H   0  0  0  0  0  0  0  0  0  0  0  0
    1.9228    3.2502   20.4664 H   0  0  0  0  0  0  0  0  0  0  0  0
    2.6951    2.5903   18.2063 H   0  0  0  0  0  0  0  0  0  0  0  0
    4.3086    1.3713   16.7630 H   0  0  0  0  0  0  0  0  0  0  0  0
    7.4976   -0.7002   18.3697 H   0  0  0  0  0  0  0  0  0  0  0  0
    6.4074   -1.5648   21.6801 C   0  0  0  0  0  0  0  0  0  0  0  0
    7.6323   -1.9370   22.5262 C   0  0  2  0  0  0  0  0  0  0  0  0
    7.3623   -2.7861   23.7716 C   0  0  0  0  0  0  0  0  0  0  0  0
    6.1756   -2.4119   24.5346 N   0  0  0  0  0  0  0  0  0  0  0  0
    5.0561   -3.1710   24.5890 C   0  0  0  0  0  0  0  0  0  0  0  0
    4.1728   -2.9043   25.5719 N   0  0  0  0  0  0  0  0  0  0  0  0
    3.1339   -3.7243   25.6106 C   0  0  0  0  0  0  0  0  0  0  0  0
    2.8704   -4.7266   24.7639 N   0  0  0  0  0  0  0  0  0  0  0  0
    3.7714   -4.8305   23.7880 C   0  0  0  0  0  0  0  0  0  0  0  0
    4.8768   -4.1147   23.6416 N   0  0  0  0  0  0  0  0  0  0  0  0
    3.5983   -5.5895   23.0260 H   0  0  0  0  0  0  0  0  0  0  0  0
    2.4105   -3.5600   26.4116 H   0  0  0  0  0  0  0  0  0  0  0  0
    6.2587   -1.7274   25.2758 H   0  0  0  0  0  0  0  0  0  0  0  0
    7.2213   -3.8230   23.4688 H   0  0  0  0  0  0  0  0  0  0  0  0
    8.2385   -2.7509   24.4313 H   0  0  0  0  0  0  0  0  0  0  0  0
    8.2700   -2.5424   21.8755 H   0  0  0  0  0  0  0  0  0  0  0  0
    5.5363   -1.3043   22.2972 H   0  0  0  0  0  0  0  0  0  0  0  0
    6.0971   -2.3669   20.9976 H   0  0  0  0  0  0  0  0  0  0  0  0
    9.9177   -0.8509   22.9544 C   0  0  0  0  0  0  0  0  0  0  0  0
   10.6484   -1.8133   22.2287 C   0  0  0  0  0  0  0  0  0  0  0  0
   12.0171   -1.9362   22.4123 C   0  0  0  0  0  0  0  0  0  0  0  0
   12.9252   -3.0083   21.3818 Cl  0  0  0  0  0  0  0  0  0  0  0  0
   12.7108   -1.1808   23.3575 C   0  0  0  0  0  0  0  0  0  0  0  0
   11.9994   -0.2413   24.0759 C   0  0  0  0  0  0  0  0  0  0  0  0
   10.6345   -0.0417   23.8429 C   0  0  0  0  0  0  0  0  0  0  0  0
   10.0363    1.2127   24.4176 C   0  0  0  0  0  0  0  0  0  0  0  0
   10.7352    2.0104   25.0179 O   0  0  0  0  0  0  0  0  0  0  0  0
   12.4987    0.4146   24.7807 H   0  0  0  0  0  0  0  0  0  0  0  0
   13.7835   -1.3072   23.4907 H   0  0  0  0  0  0  0  0  0  0  0  0
   10.1792   -2.4588   21.4936 H   0  0  0  0  0  0  0  0  0  0  0  0
    7.8656   -0.3825   24.8222 H   0  0  0  0  0  0  0  0  0  0  0  0
    6.8635    0.5663   23.7079 H   0  0  0  0  0  0  0  0  0  0  0  0
    8.8664    3.3912   24.6878 H   0  0  0  0  0  0  0  0  0  0  0  0
    7.5612    2.5722   25.5455 H   0  0  0  0  0  0  0  0  0  0  0  0
    8.4375    3.4917   22.1354 H   0  0  0  0  0  0  0  0  0  0  0  0
    5.7972    4.8331   21.9756 H   0  0  0  0  0  0  0  0  0  0  0  0
    6.0837    3.5022   20.8379 H   0  0  0  0  0  0  0  0  0  0  0  0
    7.0992    4.9712   20.7768 H   0  0  0  0  0  0  0  0  0  0  0  0
  1  2  1  0
  2  3  1  0
  3  4  2  0
  3  5  1  0
  5  6  1  0
  6  7  1  0
  8  7  1  1
  8  9  1  0
  9 10  2  0
  9 11  1  0
 11 12  1  0
 12 13  2  0
 13 14  1  0
 14 15  2  0
 15 16  1  0
 16 17  2  0
 17 18  1  0
 18 19  2  0
 19 20  1  0
 20 21  2  0
 20 22  1  0
 19 23  1  0
 18 24  1  0
 17 25  1  0
 15 26  1  0
 13 27  1  0
 11 28  1  0
 28 29  1  0
 29 30  1  0
 30 31  1  0
 31 32  1  0
 32 33  2  0
 33 34  1  0
 34 35  2  0
 35 36  1  0
 36 37  2  0
 36 38  1  0
 34 39  1  0
 31 40  1  0
 30 41  1  0
 30 42  1  0
 29 43  1  6
 28 44  1  0
 28 45  1  0
  8 46  1  0
 46 47  2  0
 47 48  1  0
 48 49  1  0
 48 50  2  0
 50 51  1  0
 51 52  2  0
 52 53  1  0
 53 54  2  0
 51 55  1  0
 50 56  1  0
 47 57  1  0
  7 58  1  0
  7 59  1  0
  5 60  1  0
  5 61  1  0
  2 62  1  0
  1 63  1  0
  1 64  1  0
  1 65  1  0
 53  6  1  0
 29  8  1  0
 37 32  1  0
 52 46  1  0
 21 12  1  0
 21 16  1  0
M  END
>  <cnnaffinities>  (78) 
[7.22939, 7.10951]

>  <score>  (78) 
7.22939

>  <index>  (78) 
86

>  <Smiles>  (78) 
C(N(C(=O)C(N1C([C@@]2(C(=O)N(c3c(nc(c4c(c(c(c(c34)[H])[H])[H])[H])[H])[H])C([C@@]2(C(N(c2nc(nc(n2)[H])[H])[H])([H])[H])[H])([H])[H])c2c(c(Cl)c(c(c2C1=O)[H])[H])[H])([H])[H])([H])[H])[H])([H])([H])[H]

>  <h>  (78) 
<NA>

>  <Training>  (78) 
True

>  <Success>  (78) 
True

>  <enamine_searched>  (78) 
False

>  <enamine_id>  (78) 
nan

$$$$

     RDKit          3D

 63 68  0  0  0  0  0  0  0  0999 V2000
    7.5073    5.0581   22.2000 C   0  0  0  0  0  0  0  0  0  0  0  0
    8.0306    4.0832   23.1449 N   0  0  0  0  0  0  0  0  0  0  0  0
    7.1938    3.2302   23.7881 C   0  0  0  0  0  0  0  0  0  0  0  0
    6.0252    3.0698   23.4682 O   0  0  0  0  0  0  0  0  0  0  0  0
    7.8235    2.4771   24.9718 C   0  0  0  0  0  0  0  0  0  0  0  0
    8.5411    1.2882   24.5469 N   0  0  0  0  0  0  0  0  0  0  0  0
    7.7710    0.1417   24.0981 C   0  0  0  0  0  0  0  0  0  0  0  0
    8.3947   -0.5848   22.8653 C   0  0  2  0  0  0  0  0  0  0  0  0
    8.0860    0.2507   21.5844 C   0  0  0  0  0  0  0  0  0  0  0  0
    8.6388    1.2566   21.1956 O   0  0  0  0  0  0  0  0  0  0  0  0
    6.9819   -0.3201   20.9735 N   0  0  0  0  0  0  0  0  0  0  0  0
    6.2831    0.2427   19.8773 C   0  0  0  0  0  0  0  0  0  0  0  0
    6.6597   -0.0560   18.5954 C   0  0  0  0  0  0  0  0  0  0  0  0
    5.9807    0.3389   17.4902 N   0  0  0  0  0  0  0  0  0  0  0  0
    4.8830    1.0344   17.6614 C   0  0  0  0  0  0  0  0  0  0  0  0
    4.3842    1.4309   18.9350 C   0  0  0  0  0  0  0  0  0  0  0  0
    3.2124    2.2219   19.0890 C   0  0  0  0  0  0  0  0  0  0  0  0
    2.7701    2.5694   20.3353 C   0  0  0  0  0  0  0  0  0  0  0  0
    3.4736    2.1470   21.4857 C   0  0  0  0  0  0  0  0  0  0  0  0
    4.6134    1.3910   21.3632 C   0  0  0  0  0  0  0  0  0  0  0  0
    5.0973    1.0169   20.0827 C   0  0  0  0  0  0  0  0  0  0  0  0
    5.1705    1.1097   22.2503 H   0  0  0  0  0  0  0  0  0  0  0  0
    3.1252    2.4324   22.4726 H   0  0  0  0  0  0  0  0  0  0  0  0
    1.8791    3.1812   20.4500 H   0  0  0  0  0  0  0  0  0  0  0  0
    2.6815    2.5488   18.1983 H   0  0  0  0  0  0  0  0  0  0  0  0
    4.3317    1.3220   16.7644 H   0  0  0  0  0  0  0  0  0  0  0  0
    7.5510   -0.6576   18.4261 H   0  0  0  0  0  0  0  0  0  0  0  0
    6.4774   -1.5099   21.6179 C   0  0  0  0  0  0  0  0  0  0  0  0
    7.6317   -1.8945   22.5494 C   0  0  2  0  0  0  0  0  0  0  0  0
    7.2038   -2.7360   23.7623 C   0  0  0  0  0  0  0  0  0  0  0  0
    6.7534   -4.0560   23.3552 N   0  0  0  0  0  0  0  0  0  0  0  0
    7.5613   -5.0745   22.9775 C   0  0  0  0  0  0  0  0  0  0  0  0
    6.8009   -5.9326   22.2170 C   0  0  0  0  0  0  0  0  0  0  0  0
    5.5101   -5.3565   22.2354 C   0  0  0  0  0  0  0  0  0  0  0  0
    5.4972   -4.2113   22.9060 N   0  0  0  0  0  0  0  0  0  0  0  0
    4.5952   -5.7031   21.7739 H   0  0  0  0  0  0  0  0  0  0  0  0
    7.1375   -6.8200   21.6967 H   0  0  0  0  0  0  0  0  0  0  0  0
    8.5972   -5.1014   23.2962 H   0  0  0  0  0  0  0  0  0  0  0  0
    8.0478   -2.8650   24.4494 H   0  0  0  0  0  0  0  0  0  0  0  0
    6.3690   -2.2693   24.2918 H   0  0  0  0  0  0  0  0  0  0  0  0
    8.3160   -2.5057   21.9545 H   0  0  0  0  0  0  0  0  0  0  0  0
    6.2569   -2.2804   20.8720 H   0  0  0  0  0  0  0  0  0  0  0  0
    5.5385   -1.3215   22.1636 H   0  0  0  0  0  0  0  0  0  0  0  0
    9.8779   -0.8012   23.1430 C   0  0  0  0  0  0  0  0  0  0  0  0
   10.6519   -1.7792   22.4872 C   0  0  0  0  0  0  0  0  0  0  0  0
   11.9886   -1.9513   22.8228 C   0  0  0  0  0  0  0  0  0  0  0  0
   12.9694   -3.0917   21.9362 Cl  0  0  0  0  0  0  0  0  0  0  0  0
   12.6140   -1.1729   23.7964 C   0  0  0  0  0  0  0  0  0  0  0  0
   11.8861   -0.1546   24.3749 C   0  0  0  0  0  0  0  0  0  0  0  0
   10.5500    0.0512   24.0278 C   0  0  0  0  0  0  0  0  0  0  0  0
    9.9005    1.3221   24.4784 C   0  0  0  0  0  0  0  0  0  0  0  0
   10.5475    2.3214   24.7697 O   0  0  0  0  0  0  0  0  0  0  0  0
   12.3528    0.5494   25.0570 H   0  0  0  0  0  0  0  0  0  0  0  0
   13.6571   -1.3475   24.0495 H   0  0  0  0  0  0  0  0  0  0  0  0
   10.2386   -2.3913   21.6933 H   0  0  0  0  0  0  0  0  0  0  0  0
    6.7670    0.4964   23.8480 H   0  0  0  0  0  0  0  0  0  0  0  0
    7.6750   -0.5686   24.9229 H   0  0  0  0  0  0  0  0  0  0  0  0
    7.0127    2.2044   25.6540 H   0  0  0  0  0  0  0  0  0  0  0  0
    8.5245    3.1192   25.5099 H   0  0  0  0  0  0  0  0  0  0  0  0
    8.9932    4.1209   23.4413 H   0  0  0  0  0  0  0  0  0  0  0  0
    8.3166    5.6604   21.7863 H   0  0  0  0  0  0  0  0  0  0  0  0
    7.0097    4.5341   21.3844 H   0  0  0  0  0  0  0  0  0  0  0  0
    6.7684    5.7258   22.6605 H   0  0  0  0  0  0  0  0  0  0  0  0
  1  2  1  0
  2  3  1  0
  3  4  2  0
  3  5  1  0
  5  6  1  0
  6  7  1  0
  8  7  1  1
  8  9  1  0
  9 10  2  0
  9 11  1  0
 11 12  1  0
 12 13  2  0
 13 14  1  0
 14 15  2  0
 15 16  1  0
 16 17  2  0
 17 18  1  0
 18 19  2  0
 19 20  1  0
 20 21  2  0
 20 22  1  0
 19 23  1  0
 18 24  1  0
 17 25  1  0
 15 26  1  0
 13 27  1  0
 11 28  1  0
 28 29  1  0
 29 30  1  0
 30 31  1  0
 31 32  1  0
 32 33  2  0
 33 34  1  0
 34 35  2  0
 34 36  1  0
 33 37  1  0
 32 38  1  0
 30 39  1  0
 30 40  1  0
 29 41  1  6
 28 42  1  0
 28 43  1  0
  8 44  1  0
 44 45  2  0
 45 46  1  0
 46 47  1  0
 46 48  2  0
 48 49  1  0
 49 50  2  0
 50 51  1  0
 51 52  2  0
 49 53  1  0
 48 54  1  0
 45 55  1  0
  7 56  1  0
  7 57  1  0
  5 58  1  0
  5 59  1  0
  2 60  1  0
  1 61  1  0
  1 62  1  0
  1 63  1  0
 51  6  1  0
 29  8  1  0
 35 31  1  0
 50 44  1  0
 21 12  1  0
 21 16  1  0
M  END
>  <cnnaffinities>  (79) 
[7.42805, 7.66156]

>  <score>  (79) 
7.42805

>  <index>  (79) 
87

>  <Smiles>  (79) 
C(N(C(=O)C(N1C([C@@]2(C(=O)N(c3c(nc(c4c(c(c(c(c34)[H])[H])[H])[H])[H])[H])C([C@@]2(C(n2c(c(c(n2)[H])[H])[H])([H])[H])[H])([H])[H])c2c(c(Cl)c(c(c2C1=O)[H])[H])[H])([H])[H])([H])[H])[H])([H])([H])[H]

>  <h>  (79) 
<NA>

>  <Training>  (79) 
True

>  <Success>  (79) 
True

>  <enamine_searched>  (79) 
False

>  <enamine_id>  (79) 
nan

$$$$

     RDKit          3D

 64 68  0  0  0  0  0  0  0  0999 V2000
    3.9232    0.6944   28.2573 C   0  0  0  0  0  0  0  0  0  0  0  0
    4.4130    0.7589   26.7963 C   0  0  0  0  0  0  0  0  0  0  0  0
    4.0369   -0.4803   25.9788 C   0  0  0  0  0  0  0  0  0  0  0  0
    2.8582   -0.6305   25.6904 O   0  0  0  0  0  0  0  0  0  0  0  0
    4.8845   -1.5808   25.9640 N   0  0  0  0  0  0  0  0  0  0  0  0
    4.4058   -2.8670   26.5012 C   0  0  0  0  0  0  0  0  0  0  0  0
    5.5685   -3.6128   27.1587 C   0  0  0  0  0  0  0  0  0  0  0  0
    6.6755   -3.8569   26.1384 C   0  0  0  0  0  0  0  0  0  0  0  0
    7.0192   -2.5996   25.3712 C   0  0  0  0  0  0  0  0  0  0  0  0
    8.2261   -2.5541   24.6618 C   0  0  0  0  0  0  0  0  0  0  0  0
    8.5425   -1.4554   23.8611 C   0  0  0  0  0  0  0  0  0  0  0  0
    7.6554   -0.3823   23.7614 C   0  0  0  0  0  0  0  0  0  0  0  0
    7.9860    0.6985   22.9404 N   0  0  0  0  0  0  0  0  0  0  0  0
    8.5142    1.9332   23.5363 C   0  0  0  0  0  0  0  0  0  0  0  0
    7.3761    2.8260   23.9677 C   0  0  0  0  0  0  0  0  0  0  0  0
    6.5752    3.4731   23.0131 C   0  0  0  0  0  0  0  0  0  0  0  0
    5.5134    4.2925   23.4133 C   0  0  0  0  0  0  0  0  0  0  0  0
    5.2538    4.4855   24.7745 C   0  0  0  0  0  0  0  0  0  0  0  0
    6.0543    3.8631   25.7384 C   0  0  0  0  0  0  0  0  0  0  0  0
    5.7107    4.1497   27.6004 Br  0  0  0  0  0  0  0  0  0  0  0  0
    7.1065    3.0337   25.3317 C   0  0  0  0  0  0  0  0  0  0  0  0
    7.7161    2.5542   26.0900 H   0  0  0  0  0  0  0  0  0  0  0  0
    4.4322    5.1234   25.0897 H   0  0  0  0  0  0  0  0  0  0  0  0
    4.8934    4.7800   22.6661 H   0  0  0  0  0  0  0  0  0  0  0  0
    6.7778    3.3389   21.9552 H   0  0  0  0  0  0  0  0  0  0  0  0
    9.1493    2.4774   22.8232 H   0  0  0  0  0  0  0  0  0  0  0  0
    9.1475    1.6888   24.3934 H   0  0  0  0  0  0  0  0  0  0  0  0
    7.8512    0.5971   21.5627 C   0  0  0  0  0  0  0  0  0  0  0  0
    8.3854    1.4393   20.8446 O   0  0  0  0  0  0  0  0  0  0  0  0
    6.9494   -0.4584   20.9043 C   0  0  0  0  0  0  0  0  0  0  0  0
    6.0894    0.0876   19.7629 C   0  0  0  0  0  0  0  0  0  0  0  0
    6.4311   -0.2196   18.4337 C   0  0  0  0  0  0  0  0  0  0  0  0
    5.7699    0.2671   17.3715 N   0  0  0  0  0  0  0  0  0  0  0  0
    4.7077    1.0534   17.5850 C   0  0  0  0  0  0  0  0  0  0  0  0
    4.2795    1.4207   18.8636 C   0  0  0  0  0  0  0  0  0  0  0  0
    3.1766    2.2711   19.0304 C   0  0  0  0  0  0  0  0  0  0  0  0
    2.7615    2.6352   20.3120 C   0  0  0  0  0  0  0  0  0  0  0  0
    3.4483    2.1570   21.4318 C   0  0  0  0  0  0  0  0  0  0  0  0
    4.5563    1.3136   21.2669 C   0  0  0  0  0  0  0  0  0  0  0  0
    4.9834    0.9326   19.9843 C   0  0  0  0  0  0  0  0  0  0  0  0
    5.0796    0.9494   22.1450 H   0  0  0  0  0  0  0  0  0  0  0  0
    3.1177    2.4419   22.4266 H   0  0  0  0  0  0  0  0  0  0  0  0
    1.9079    3.2932   20.4374 H   0  0  0  0  0  0  0  0  0  0  0  0
    2.6398    2.6582   18.1665 H   0  0  0  0  0  0  0  0  0  0  0  0
    4.1686    1.4207   16.7150 H   0  0  0  0  0  0  0  0  0  0  0  0
    7.2874   -0.8665   18.2611 H   0  0  0  0  0  0  0  0  0  0  0  0
    6.3033   -0.8918   21.6709 H   0  0  0  0  0  0  0  0  0  0  0  0
    7.5978   -1.2521   20.5291 H   0  0  0  0  0  0  0  0  0  0  0  0
    6.4593   -0.4121   24.4862 C   0  0  0  0  0  0  0  0  0  0  0  0
    6.1239   -1.5134   25.2980 C   0  0  0  0  0  0  0  0  0  0  0  0
    5.7725    0.4181   24.3937 H   0  0  0  0  0  0  0  0  0  0  0  0
    9.4836   -1.4295   23.3196 H   0  0  0  0  0  0  0  0  0  0  0  0
    8.9151   -3.3900   24.7233 H   0  0  0  0  0  0  0  0  0  0  0  0
    7.5621   -4.2540   26.6427 H   0  0  0  0  0  0  0  0  0  0  0  0
    6.3377   -4.6144   25.4294 H   0  0  0  0  0  0  0  0  0  0  0  0
    5.2258   -4.5677   27.5697 H   0  0  0  0  0  0  0  0  0  0  0  0
    5.9623   -3.0260   27.9909 H   0  0  0  0  0  0  0  0  0  0  0  0
    3.6293   -2.7141   27.2601 H   0  0  0  0  0  0  0  0  0  0  0  0
    3.9650   -3.4832   25.7110 H   0  0  0  0  0  0  0  0  0  0  0  0
    3.9781    1.6386   26.3191 H   0  0  0  0  0  0  0  0  0  0  0  0
    5.4960    0.8694   26.7836 H   0  0  0  0  0  0  0  0  0  0  0  0
    4.2299    1.5895   28.8102 H   0  0  0  0  0  0  0  0  0  0  0  0
    4.3406   -0.1761   28.7686 H   0  0  0  0  0  0  0  0  0  0  0  0
    2.8328    0.6276   28.3080 H   0  0  0  0  0  0  0  0  0  0  0  0
  1  2  1  0
  2  3  1  0
  3  4  2  0
  3  5  1  0
  5  6  1  0
  6  7  1  0
  7  8  1  0
  8  9  1  0
  9 10  2  0
 10 11  1  0
 11 12  2  0
 12 13  1  0
 13 14  1  0
 14 15  1  0
 15 16  2  0
 16 17  1  0
 17 18  2  0
 18 19  1  0
 19 20  1  0
 19 21  2  0
 21 22  1  0
 18 23  1  0
 17 24  1  0
 16 25  1  0
 14 26  1  0
 14 27  1  0
 13 28  1  0
 28 29  2  0
 28 30  1  0
 30 31  1  0
 31 32  2  0
 32 33  1  0
 33 34  2  0
 34 35  1  0
 35 36  2  0
 36 37  1  0
 37 38  2  0
 38 39  1  0
 39 40  2  0
 39 41  1  0
 38 42  1  0
 37 43  1  0
 36 44  1  0
 34 45  1  0
 32 46  1  0
 30 47  1  0
 30 48  1  0
 12 49  1  0
 49 50  2  0
 49 51  1  0
 11 52  1  0
 10 53  1  0
  8 54  1  0
  8 55  1  0
  7 56  1  0
  7 57  1  0
  6 58  1  0
  6 59  1  0
  2 60  1  0
  2 61  1  0
  1 62  1  0
  1 63  1  0
  1 64  1  0
 50  5  1  0
 50  9  1  0
 21 15  1  0
 40 31  1  0
 40 35  1  0
M  END
>  <cnnaffinities>  (80) 
[6.86837, 6.80646]

>  <score>  (80) 
6.86837

>  <index>  (80) 
88

>  <Smiles>  (80) 
C(C(C(=O)N1C(C(C(c2c(c(c(N(C(c3c(c(c(c(Br)c3[H])[H])[H])[H])([H])[H])C(=O)C(c3c(nc(c4c(c(c(c(c34)[H])[H])[H])[H])[H])[H])([H])[H])c(c12)[H])[H])[H])([H])[H])([H])[H])([H])[H])([H])[H])([H])([H])[H]

>  <h>  (80) 
<NA>

>  <Training>  (80) 
True

>  <Success>  (80) 
True

>  <enamine_searched>  (80) 
False

>  <enamine_id>  (80) 
nan

$$$$

     RDKit          3D

 38 40  0  0  0  0  0  0  0  0999 V2000
    8.3508    1.4860   20.7799 O   0  0  0  0  0  0  0  0  0  0  0  0
    7.8643    0.6539   21.5236 C   0  0  0  0  0  0  0  0  0  0  0  0
    6.9452   -0.4394   20.9217 C   0  0  0  0  0  0  0  0  0  0  0  0
    6.1124    0.0882   19.7731 C   0  0  0  0  0  0  0  0  0  0  0  0
    6.4308   -0.2002   18.4725 C   0  0  0  0  0  0  0  0  0  0  0  0
    5.7717    0.2688   17.3794 N   0  0  0  0  0  0  0  0  0  0  0  0
    4.7315    1.0343   17.5827 C   0  0  0  0  0  0  0  0  0  0  0  0
    4.2828    1.4250   18.8705 C   0  0  0  0  0  0  0  0  0  0  0  0
    3.1688    2.2836   19.0449 C   0  0  0  0  0  0  0  0  0  0  0  0
    2.7650    2.6497   20.2990 C   0  0  0  0  0  0  0  0  0  0  0  0
    3.4637    2.1695   21.4302 C   0  0  0  0  0  0  0  0  0  0  0  0
    4.5475    1.3393   21.2873 C   0  0  0  0  0  0  0  0  0  0  0  0
    4.9920    0.9431   19.9998 C   0  0  0  0  0  0  0  0  0  0  0  0
    5.0669    0.9834   22.1743 H   0  0  0  0  0  0  0  0  0  0  0  0
    3.1365    2.4662   22.4221 H   0  0  0  0  0  0  0  0  0  0  0  0
    1.9134    3.3116   20.4356 H   0  0  0  0  0  0  0  0  0  0  0  0
    2.6479    2.6509   18.1630 H   0  0  0  0  0  0  0  0  0  0  0  0
    4.1977    1.3966   16.7004 H   0  0  0  0  0  0  0  0  0  0  0  0
    7.2738   -0.8539   18.2435 H   0  0  0  0  0  0  0  0  0  0  0  0
    7.6054   -1.2269   20.5345 H   0  0  0  0  0  0  0  0  0  0  0  0
    6.2975   -0.9089   21.6721 H   0  0  0  0  0  0  0  0  0  0  0  0
    8.1248    0.6590   22.8822 N   0  0  0  0  0  0  0  0  0  0  0  0
    7.7899   -0.4484   23.7700 C   0  0  0  0  0  0  0  0  0  0  0  0
    6.3840   -0.4114   24.3315 C   0  0  0  0  0  0  0  0  0  0  0  0
    5.9181    0.5993   25.0591 C   0  0  0  0  0  0  0  0  0  0  0  0
    6.7343    1.8178   25.4351 C   0  0  0  0  0  0  0  0  0  0  0  0
    7.2796    2.6093   24.2345 C   0  0  0  0  0  0  0  0  0  0  0  0
    8.4557    1.9349   23.5198 C   0  0  0  0  0  0  0  0  0  0  0  0
    9.2412    1.7469   24.2592 H   0  0  0  0  0  0  0  0  0  0  0  0
    8.8724    2.5919   22.7536 H   0  0  0  0  0  0  0  0  0  0  0  0
    6.4739    2.7711   23.5106 H   0  0  0  0  0  0  0  0  0  0  0  0
    7.5902    3.6083   24.5735 H   0  0  0  0  0  0  0  0  0  0  0  0
    7.5841    1.5111   26.0604 H   0  0  0  0  0  0  0  0  0  0  0  0
    6.1212    2.4781   26.0583 H   0  0  0  0  0  0  0  0  0  0  0  0
    4.8724    0.5801   25.3666 H   0  0  0  0  0  0  0  0  0  0  0  0
    5.7328   -1.2623   24.1212 H   0  0  0  0  0  0  0  0  0  0  0  0
    8.5057   -0.4159   24.5991 H   0  0  0  0  0  0  0  0  0  0  0  0
    7.9801   -1.3886   23.2490 H   0  0  0  0  0  0  0  0  0  0  0  0
  1  2  2  0
  2  3  1  0
  3  4  1  0
  4  5  2  0
  5  6  1  0
  6  7  2  0
  7  8  1  0
  8  9  2  0
  9 10  1  0
 10 11  2  0
 11 12  1  0
 12 13  2  0
 12 14  1  0
 11 15  1  0
 10 16  1  0
  9 17  1  0
  7 18  1  0
  5 19  1  0
  3 20  1  0
  3 21  1  0
  2 22  1  0
 22 23  1  0
 23 24  1  0
 24 25  2  0
 25 26  1  0
 26 27  1  0
 27 28  1  0
 28 29  1  0
 28 30  1  0
 27 31  1  0
 27 32  1  0
 26 33  1  0
 26 34  1  0
 25 35  1  0
 24 36  1  0
 23 37  1  0
 23 38  1  0
 13  4  1  0
 28 22  1  0
 13  8  1  0
M  END
>  <cnnaffinities>  (81) 
[5.3099, 5.27431]

>  <score>  (81) 
5.3099

>  <index>  (81) 
89

>  <Smiles>  (81) 
O=C(C(c1c(nc(c2c(c(c(c(c12)[H])[H])[H])[H])[H])[H])([H])[H])N1C(C(=C(C(C(C1([H])[H])([H])[H])([H])[H])[H])[H])([H])[H]

>  <h>  (81) 
<NA>

>  <Training>  (81) 
True

>  <Success>  (81) 
True

>  <enamine_searched>  (81) 
False

>  <enamine_id>  (81) 
nan

$$$$

     RDKit          3D

 62 67  0  0  0  0  0  0  0  0999 V2000
    7.4053   -2.7677   23.6739 C   0  0  0  0  0  0  0  0  0  0  0  0
    7.8042   -1.9052   22.4812 C   0  0  1  0  0  0  0  0  0  0  0  0
    6.6846   -1.6385   21.4670 C   0  0  0  0  0  0  0  0  0  0  0  0
    7.0340   -0.3476   20.9029 N   0  0  0  0  0  0  0  0  0  0  0  0
    6.2485    0.1888   19.8426 C   0  0  0  0  0  0  0  0  0  0  0  0
    6.5347   -0.1665   18.5483 C   0  0  0  0  0  0  0  0  0  0  0  0
    5.8486    0.2577   17.4586 N   0  0  0  0  0  0  0  0  0  0  0  0
    4.8080    1.0242   17.6583 C   0  0  0  0  0  0  0  0  0  0  0  0
    4.3611    1.4300   18.9440 C   0  0  0  0  0  0  0  0  0  0  0  0
    3.2261    2.2694   19.0959 C   0  0  0  0  0  0  0  0  0  0  0  0
    2.7906    2.6228   20.3395 C   0  0  0  0  0  0  0  0  0  0  0  0
    3.4543    2.1369   21.4885 C   0  0  0  0  0  0  0  0  0  0  0  0
    4.5543    1.3177   21.3650 C   0  0  0  0  0  0  0  0  0  0  0  0
    5.0675    0.9735   20.0833 C   0  0  0  0  0  0  0  0  0  0  0  0
    5.0279    0.9312   22.2629 H   0  0  0  0  0  0  0  0  0  0  0  0
    3.0905    2.4151   22.4725 H   0  0  0  0  0  0  0  0  0  0  0  0
    1.9279    3.2746   20.4523 H   0  0  0  0  0  0  0  0  0  0  0  0
    2.7237    2.6201   18.1960 H   0  0  0  0  0  0  0  0  0  0  0  0
    4.2488    1.3601   16.7832 H   0  0  0  0  0  0  0  0  0  0  0  0
    7.3737   -0.8316   18.3490 H   0  0  0  0  0  0  0  0  0  0  0  0
    7.9921    0.3439   21.6245 C   0  0  0  0  0  0  0  0  0  0  0  0
    8.3873    1.4657   21.3717 O   0  0  0  0  0  0  0  0  0  0  0  0
    8.3760   -0.5162   22.8577 C   0  0  1  0  0  0  0  0  0  0  0  0
    7.6571    0.1102   24.0938 C   0  0  0  0  0  0  0  0  0  0  0  0
    8.2249    1.4019   24.4332 N   0  0  0  0  0  0  0  0  0  0  0  0
    7.3555    2.4565   24.9156 C   0  0  0  0  0  0  0  0  0  0  0  0
    6.7774    3.3057   23.7986 C   0  0  0  0  0  0  0  0  0  0  0  0
    7.8092    4.1892   23.1966 N   0  0  0  0  0  4  0  0  0  0  0  0
    7.3384    5.1456   22.0996 C   0  0  0  0  0  0  0  0  0  0  0  0
    7.8323    6.3941   22.8805 C   0  0  0  0  0  0  0  0  0  0  0  0
    8.2944    5.4144   23.9900 C   0  0  0  0  0  0  0  0  0  0  0  0
    7.7612    5.5098   24.9347 H   0  0  0  0  0  0  0  0  0  0  0  0
    9.3683    5.3343   24.1362 H   0  0  0  0  0  0  0  0  0  0  0  0
    8.6269    6.9703   22.3989 H   0  0  0  0  0  0  0  0  0  0  0  0
    7.0209    7.0531   23.1973 H   0  0  0  0  0  0  0  0  0  0  0  0
    6.2600    5.0874   21.9506 H   0  0  0  0  0  0  0  0  0  0  0  0
    7.8494    4.9180   21.1740 H   0  0  0  0  0  0  0  0  0  0  0  0
    8.6172    3.6306   22.8782 H   0  0  0  0  0  0  0  0  0  0  0  0
    5.9558    3.9139   24.1893 H   0  0  0  0  0  0  0  0  0  0  0  0
    6.3849    2.6856   22.9915 H   0  0  0  0  0  0  0  0  0  0  0  0
    7.9383    3.0835   25.5950 H   0  0  0  0  0  0  0  0  0  0  0  0
    6.5512    2.0040   25.5043 H   0  0  0  0  0  0  0  0  0  0  0  0
    9.5493    1.6582   24.3140 C   0  0  0  0  0  0  0  0  0  0  0  0
    9.9969    2.8023   24.4076 O   0  0  0  0  0  0  0  0  0  0  0  0
   10.3912    0.4444   24.0244 C   0  0  0  0  0  0  0  0  0  0  0  0
   11.7391    0.4324   24.3835 C   0  0  0  0  0  0  0  0  0  0  0  0
   12.6268   -0.4456   23.7840 C   0  0  0  0  0  0  0  0  0  0  0  0
   12.1110   -1.3737   22.8794 C   0  0  0  0  0  0  0  0  0  0  0  0
   13.1868   -2.4561   22.0348 Cl  0  0  0  0  0  0  0  0  0  0  0  0
   10.7569   -1.4683   22.6141 C   0  0  0  0  0  0  0  0  0  0  0  0
    9.8621   -0.5360   23.1671 C   0  0  0  0  0  0  0  0  0  0  0  0
   10.4355   -2.3191   22.0251 H   0  0  0  0  0  0  0  0  0  0  0  0
   13.6966   -0.4089   23.9774 H   0  0  0  0  0  0  0  0  0  0  0  0
   12.0827    1.1723   25.1007 H   0  0  0  0  0  0  0  0  0  0  0  0
    7.7403   -0.5627   24.9556 H   0  0  0  0  0  0  0  0  0  0  0  0
    6.5864    0.2437   23.8964 H   0  0  0  0  0  0  0  0  0  0  0  0
    6.6545   -2.3996   20.6778 H   0  0  0  0  0  0  0  0  0  0  0  0
    5.6882   -1.6162   21.9350 H   0  0  0  0  0  0  0  0  0  0  0  0
    8.5811   -2.4301   21.9195 H   0  0  0  0  0  0  0  0  0  0  0  0
    7.1364   -3.7858   23.3732 H   0  0  0  0  0  0  0  0  0  0  0  0
    8.2404   -2.8314   24.3814 H   0  0  0  0  0  0  0  0  0  0  0  0
    6.5517   -2.3276   24.2054 H   0  0  0  0  0  0  0  0  0  0  0  0
  1  2  1  0
  2  3  1  0
  3  4  1  0
  4  5  1  0
  5  6  2  0
  6  7  1  0
  7  8  2  0
  8  9  1  0
  9 10  2  0
 10 11  1  0
 11 12  2  0
 12 13  1  0
 13 14  2  0
 13 15  1  0
 12 16  1  0
 11 17  1  0
 10 18  1  0
  8 19  1  0
  6 20  1  0
  4 21  1  0
 21 22  2  0
 21 23  1  0
 23 24  1  1
 24 25  1  0
 25 26  1  0
 26 27  1  0
 27 28  1  0
 28 29  1  0
 29 30  1  0
 30 31  1  0
 31 32  1  0
 31 33  1  0
 30 34  1  0
 30 35  1  0
 29 36  1  0
 29 37  1  0
 28 38  1  0
 27 39  1  0
 27 40  1  0
 26 41  1  0
 26 42  1  0
 25 43  1  0
 43 44  2  0
 43 45  1  0
 45 46  2  0
 46 47  1  0
 47 48  2  0
 48 49  1  0
 48 50  1  0
 50 51  2  0
 50 52  1  0
 47 53  1  0
 46 54  1  0
 24 55  1  0
 24 56  1  0
  3 57  1  0
  3 58  1  0
  2 59  1  6
  1 60  1  0
  1 61  1  0
  1 62  1  0
 23  2  1  0
 31 28  1  0
 51 45  1  0
 14  5  1  0
 51 23  1  0
 14  9  1  0
M  CHG  1  28   1
M  END
>  <cnnaffinities>  (82) 
[7.24718, 7.24923, 7.26023]

>  <score>  (82) 
7.24718

>  <index>  (82) 
90

>  <Smiles>  (82) 
C([C@]1(C(N(c2c(nc(c3c(c(c(c(c23)[H])[H])[H])[H])[H])[H])C(=O)[C@]21C(N(C(C([N+]1(C(C(C1([H])[H])([H])[H])([H])[H])[H])([H])[H])([H])[H])C(=O)c1c(c(c(Cl)c(c21)[H])[H])[H])([H])[H])([H])[H])[H])([H])([H])[H]

>  <h>  (82) 
<NA>

>  <Training>  (82) 
True

>  <Success>  (82) 
True

>  <enamine_searched>  (82) 
False

>  <enamine_id>  (82) 
nan

$$$$

     RDKit          3D

 47 50  0  0  0  0  0  0  0  0999 V2000
    5.4535   -2.3175   21.0056 O   0  0  0  0  0  0  0  0  0  0  0  0
    6.1329   -1.5207   21.6217 C   0  0  0  0  0  0  0  0  0  0  0  0
    6.9612   -0.4589   20.9028 C   0  0  0  0  0  0  0  0  0  0  0  0
    6.1639    0.1249   19.7689 C   0  0  0  0  0  0  0  0  0  0  0  0
    6.4749   -0.1676   18.4694 C   0  0  0  0  0  0  0  0  0  0  0  0
    5.8075    0.2920   17.3779 N   0  0  0  0  0  0  0  0  0  0  0  0
    4.7626    1.0479   17.5996 C   0  0  0  0  0  0  0  0  0  0  0  0
    4.3070    1.4204   18.8919 C   0  0  0  0  0  0  0  0  0  0  0  0
    3.1780    2.2622   19.0610 C   0  0  0  0  0  0  0  0  0  0  0  0
    2.7565    2.6140   20.3127 C   0  0  0  0  0  0  0  0  0  0  0  0
    3.4449    2.1285   21.4447 C   0  0  0  0  0  0  0  0  0  0  0  0
    4.5410    1.3149   21.3086 C   0  0  0  0  0  0  0  0  0  0  0  0
    5.0183    0.9442   20.0168 C   0  0  0  0  0  0  0  0  0  0  0  0
    5.0522    0.9671   22.2024 H   0  0  0  0  0  0  0  0  0  0  0  0
    3.1054    2.4245   22.4337 H   0  0  0  0  0  0  0  0  0  0  0  0
    1.9000    3.2712   20.4396 H   0  0  0  0  0  0  0  0  0  0  0  0
    2.6665    2.6298   18.1754 H   0  0  0  0  0  0  0  0  0  0  0  0
    4.2162    1.4213   16.7328 H   0  0  0  0  0  0  0  0  0  0  0  0
    7.3231   -0.8226   18.2596 H   0  0  0  0  0  0  0  0  0  0  0  0
    7.2752    0.3190   21.6029 H   0  0  0  0  0  0  0  0  0  0  0  0
    7.8728   -0.9354   20.5199 H   0  0  0  0  0  0  0  0  0  0  0  0
    6.1391   -1.5184   23.0203 N   0  0  0  0  0  0  0  0  0  0  0  0
    5.0127   -2.1091   23.6410 C   0  0  0  0  0  0  0  0  0  0  0  0
    4.9733   -3.3955   23.9878 C   0  0  0  0  0  0  0  0  0  0  0  0
    6.1846   -4.1265   24.3408 C   0  0  0  0  0  0  0  0  0  0  0  0
    7.0419   -3.7015   25.2907 C   0  0  0  0  0  0  0  0  0  0  0  0
    7.0529   -2.3831   25.9077 C   0  0  0  0  0  0  0  0  0  0  0  0
    6.8627   -1.1799   25.3432 C   0  0  0  0  0  0  0  0  0  0  0  0
    7.1289   -0.8573   23.8931 C   0  0  1  0  0  0  0  0  0  0  0  0
    8.5794   -1.1675   23.5169 C   0  0  0  0  0  0  0  0  0  0  0  0
    8.9796   -2.3144   22.8393 C   0  0  0  0  0  0  0  0  0  0  0  0
   10.3144   -2.4906   22.4743 C   0  0  0  0  0  0  0  0  0  0  0  0
   11.2952   -1.6057   22.9134 C   0  0  0  0  0  0  0  0  0  0  0  0
   10.9071   -0.5105   23.6747 C   0  0  0  0  0  0  0  0  0  0  0  0
    9.5611   -0.2664   23.9200 C   0  0  0  0  0  0  0  0  0  0  0  0
    9.2791    0.6639   24.4105 H   0  0  0  0  0  0  0  0  0  0  0  0
   11.6601    0.1769   24.0510 H   0  0  0  0  0  0  0  0  0  0  0  0
   12.3529   -1.7571   22.7011 H   0  0  0  0  0  0  0  0  0  0  0  0
   10.5796   -3.3308   21.8466 H   0  0  0  0  0  0  0  0  0  0  0  0
    8.2510   -3.0892   22.6113 H   0  0  0  0  0  0  0  0  0  0  0  0
    7.0142    0.2320   23.8048 H   0  0  0  0  0  0  0  0  0  0  0  0
    6.6484   -0.3449   26.0039 H   0  0  0  0  0  0  0  0  0  0  0  0
    7.2353   -2.4098   26.9790 H   0  0  0  0  0  0  0  0  0  0  0  0
    7.6781   -4.4468   25.7590 H   0  0  0  0  0  0  0  0  0  0  0  0
    6.3611   -5.0802   23.8588 H   0  0  0  0  0  0  0  0  0  0  0  0
    4.0055   -3.8844   24.1428 H   0  0  0  0  0  0  0  0  0  0  0  0
    4.1990   -1.4171   23.8841 H   0  0  0  0  0  0  0  0  0  0  0  0
  1  2  2  0
  2  3  1  0
  3  4  1  0
  4  5  2  0
  5  6  1  0
  6  7  2  0
  7  8  1  0
  8  9  2  0
  9 10  1  0
 10 11  2  0
 11 12  1  0
 12 13  2  0
 12 14  1  0
 11 15  1  0
 10 16  1  0
  9 17  1  0
  7 18  1  0
  5 19  1  0
  3 20  1  0
  3 21  1  0
  2 22  1  0
 22 23  1  0
 23 24  2  3
 24 25  1  0
 25 26  2  3
 26 27  1  0
 27 28  2  3
 28 29  1  0
 29 30  1  0
 30 31  2  0
 31 32  1  0
 32 33  2  0
 33 34  1  0
 34 35  2  0
 35 36  1  0
 34 37  1  0
 33 38  1  0
 32 39  1  0
 31 40  1  0
 29 41  1  1
 28 42  1  0
 27 43  1  0
 26 44  1  0
 25 45  1  0
 24 46  1  0
 23 47  1  0
 13  4  1  0
 29 22  1  0
 35 30  1  0
 13  8  1  0
M  END
>  <cnnaffinities>  (83) 
[5.75752, 5.75721]

>  <score>  (83) 
5.75752

>  <index>  (83) 
92

>  <Smiles>  (83) 
O=C(C(c1c(nc(c2c(c(c(c(c12)[H])[H])[H])[H])[H])[H])([H])[H])N1C(=C(C(=C(C(=C([C@]1(c1c(c(c(c(c1[H])[H])[H])[H])[H])[H])[H])[H])[H])[H])[H])[H]

>  <h>  (83) 
<NA>

>  <Training>  (83) 
True

>  <Success>  (83) 
True

>  <enamine_searched>  (83) 
False

>  <enamine_id>  (83) 
nan

$$$$

     RDKit          3D

 58 62  0  0  0  0  0  0  0  0999 V2000
    8.2690    5.3738   24.0522 C   0  0  0  0  0  0  0  0  0  0  0  0
    7.9947    4.1380   23.2815 N   0  0  0  0  0  4  0  0  0  0  0  0
    6.8512    3.3515   23.8242 C   0  0  0  0  0  0  0  0  0  0  0  0
    7.2827    2.4110   24.9581 C   0  0  0  0  0  0  0  0  0  0  0  0
    8.1688    1.3549   24.4736 N   0  0  0  0  0  0  0  0  0  0  0  0
    7.6239    0.0565   24.1033 C   0  0  0  0  0  0  0  0  0  0  0  0
    8.3670   -0.5386   22.8655 C   0  0  2  0  0  0  0  0  0  0  0  0
    7.9971    0.3213   21.6261 C   0  0  0  0  0  0  0  0  0  0  0  0
    8.4250    1.4156   21.3128 O   0  0  0  0  0  0  0  0  0  0  0  0
    7.0274   -0.3592   20.9202 N   0  0  0  0  0  0  0  0  0  0  0  0
    6.2632    0.1966   19.8619 C   0  0  0  0  0  0  0  0  0  0  0  0
    6.5709   -0.1425   18.5699 C   0  0  0  0  0  0  0  0  0  0  0  0
    5.8885    0.2768   17.4778 N   0  0  0  0  0  0  0  0  0  0  0  0
    4.8380    1.0316   17.6732 C   0  0  0  0  0  0  0  0  0  0  0  0
    4.3843    1.4386   18.9576 C   0  0  0  0  0  0  0  0  0  0  0  0
    3.2415    2.2659   19.1079 C   0  0  0  0  0  0  0  0  0  0  0  0
    2.7980    2.6124   20.3524 C   0  0  0  0  0  0  0  0  0  0  0  0
    3.4654    2.1366   21.5030 C   0  0  0  0  0  0  0  0  0  0  0  0
    4.5772    1.3354   21.3805 C   0  0  0  0  0  0  0  0  0  0  0  0
    5.0894    0.9890   20.0990 C   0  0  0  0  0  0  0  0  0  0  0  0
    5.0623    0.9596   22.2759 H   0  0  0  0  0  0  0  0  0  0  0  0
    3.0935    2.4056   22.4869 H   0  0  0  0  0  0  0  0  0  0  0  0
    1.9265    3.2503   20.4644 H   0  0  0  0  0  0  0  0  0  0  0  0
    2.7366    2.6123   18.2093 H   0  0  0  0  0  0  0  0  0  0  0  0
    4.2794    1.3513   16.7918 H   0  0  0  0  0  0  0  0  0  0  0  0
    7.4198   -0.7964   18.3786 H   0  0  0  0  0  0  0  0  0  0  0  0
    6.6680   -1.6489   21.4709 C   0  0  0  0  0  0  0  0  0  0  0  0
    7.8049   -1.9294   22.4646 C   0  0  2  0  0  0  0  0  0  0  0  0
    7.4329   -2.8337   23.6360 C   0  0  0  0  0  0  0  0  0  0  0  0
    6.5733   -2.4349   24.1902 H   0  0  0  0  0  0  0  0  0  0  0  0
    7.1718   -3.8442   23.3036 H   0  0  0  0  0  0  0  0  0  0  0  0
    8.2769   -2.9022   24.3332 H   0  0  0  0  0  0  0  0  0  0  0  0
    8.5928   -2.4177   21.8842 H   0  0  0  0  0  0  0  0  0  0  0  0
    5.6770   -1.6232   21.9524 H   0  0  0  0  0  0  0  0  0  0  0  0
    6.6088   -2.3843   20.6602 H   0  0  0  0  0  0  0  0  0  0  0  0
    9.8525   -0.5551   23.1844 C   0  0  0  0  0  0  0  0  0  0  0  0
   10.7652   -1.4640   22.6199 C   0  0  0  0  0  0  0  0  0  0  0  0
   12.0940   -1.3591   22.9753 C   0  0  0  0  0  0  0  0  0  0  0  0
   12.9973   -2.1479   22.3645 F   0  0  0  0  0  0  0  0  0  0  0  0
   12.5820   -0.4711   23.9304 C   0  0  0  0  0  0  0  0  0  0  0  0
   11.6875    0.4286   24.4813 C   0  0  0  0  0  0  0  0  0  0  0  0
   10.3555    0.4193   24.0654 C   0  0  0  0  0  0  0  0  0  0  0  0
    9.4943    1.6041   24.3618 C   0  0  0  0  0  0  0  0  0  0  0  0
    9.9544    2.7516   24.4498 O   0  0  0  0  0  0  0  0  0  0  0  0
   11.9976    1.1885   25.1894 H   0  0  0  0  0  0  0  0  0  0  0  0
   13.6347   -0.5326   24.1857 H   0  0  0  0  0  0  0  0  0  0  0  0
   10.4900   -2.2049   21.8678 H   0  0  0  0  0  0  0  0  0  0  0  0
    7.7126   -0.6422   24.9456 H   0  0  0  0  0  0  0  0  0  0  0  0
    6.5536    0.1749   23.8928 H   0  0  0  0  0  0  0  0  0  0  0  0
    6.4037    1.9530   25.4279 H   0  0  0  0  0  0  0  0  0  0  0  0
    7.8116    2.9609   25.7474 H   0  0  0  0  0  0  0  0  0  0  0  0
    6.0738    4.0419   24.1720 H   0  0  0  0  0  0  0  0  0  0  0  0
    6.4307    2.7599   23.0079 H   0  0  0  0  0  0  0  0  0  0  0  0
    8.8566    3.5718   23.3663 H   0  0  0  0  0  0  0  0  0  0  0  0
    7.8546    4.3291   22.2702 H   0  0  0  0  0  0  0  0  0  0  0  0
    8.8291    5.1137   24.9553 H   0  0  0  0  0  0  0  0  0  0  0  0
    8.8668    6.0715   23.4629 H   0  0  0  0  0  0  0  0  0  0  0  0
    7.3348    5.8617   24.3435 H   0  0  0  0  0  0  0  0  0  0  0  0
  1  2  1  0
  2  3  1  0
  3  4  1  0
  4  5  1  0
  5  6  1  0
  7  6  1  1
  7  8  1  0
  8  9  2  0
  8 10  1  0
 10 11  1  0
 11 12  2  0
 12 13  1  0
 13 14  2  0
 14 15  1  0
 15 16  2  0
 16 17  1  0
 17 18  2  0
 18 19  1  0
 19 20  2  0
 19 21  1  0
 18 22  1  0
 17 23  1  0
 16 24  1  0
 14 25  1  0
 12 26  1  0
 10 27  1  0
 27 28  1  0
 28 29  1  0
 29 30  1  0
 29 31  1  0
 29 32  1  0
 28 33  1  6
 27 34  1  0
 27 35  1  0
  7 36  1  0
 36 37  2  0
 37 38  1  0
 38 39  1  0
 38 40  2  0
 40 41  1  0
 41 42  2  0
 42 43  1  0
 43 44  2  0
 41 45  1  0
 40 46  1  0
 37 47  1  0
  6 48  1  0
  6 49  1  0
  4 50  1  0
  4 51  1  0
  3 52  1  0
  3 53  1  0
  2 54  1  0
  2 55  1  0
  1 56  1  0
  1 57  1  0
  1 58  1  0
 43  5  1  0
 28  7  1  0
 42 36  1  0
 20 11  1  0
 20 15  1  0
M  CHG  1   2   1
M  END
>  <cnnaffinities>  (84) 
[6.92495]

>  <score>  (84) 
6.92495

>  <index>  (84) 
93

>  <Smiles>  (84) 
C([N+](C(C(N1C([C@@]2(C(=O)N(c3c(nc(c4c(c(c(c(c34)[H])[H])[H])[H])[H])[H])C([C@@]2(C([H])([H])[H])[H])([H])[H])c2c(c(F)c(c(c2C1=O)[H])[H])[H])([H])[H])([H])[H])([H])[H])([H])[H])([H])([H])[H]

>  <h>  (84) 
<NA>

>  <Training>  (84) 
True

>  <Success>  (84) 
True

>  <enamine_searched>  (84) 
False

>  <enamine_id>  (84) 
nan

$$$$

     RDKit          3D

 65 69  0  0  0  0  0  0  0  0999 V2000
    1.5370   -8.8226   24.8131 C   0  0  0  0  0  0  0  0  0  0  0  0
    2.7893   -8.5096   23.9850 C   0  0  0  0  0  0  0  0  0  0  0  0
    2.6977   -7.1302   23.3603 C   0  0  0  0  0  0  0  0  0  0  0  0
    1.9551   -6.8207   22.4619 O   0  0  0  0  0  0  0  0  0  0  0  0
    3.6025   -6.1247   23.9276 N   0  0  2  0  0  4  0  0  0  0  0  0
    2.8969   -4.9569   24.6320 C   0  0  0  0  0  0  0  0  0  0  0  0
    3.9919   -4.2212   25.3652 C   0  0  0  0  0  0  0  0  0  0  0  0
    4.9212   -3.5390   24.3745 C   0  0  0  0  0  0  0  0  0  0  0  0
    5.2746   -4.4139   23.1930 C   0  0  0  0  0  0  0  0  0  0  0  0
    6.2855   -4.0162   22.3082 C   0  0  0  0  0  0  0  0  0  0  0  0
    6.7853   -2.6701   22.3049 N   0  0  0  0  0  0  0  0  0  0  0  0
    8.1339   -2.4501   22.8577 C   0  0  0  0  0  0  0  0  0  0  0  0
    8.3816   -3.1395   24.2023 C   0  0  0  0  0  0  0  0  0  0  0  0
    8.8033   -4.4709   24.2953 C   0  0  0  0  0  0  0  0  0  0  0  0
    9.0601   -5.0642   25.5260 C   0  0  0  0  0  0  0  0  0  0  0  0
    8.8625   -4.3653   26.7124 C   0  0  0  0  0  0  0  0  0  0  0  0
    8.3576   -3.0777   26.6258 C   0  0  0  0  0  0  0  0  0  0  0  0
    7.8847   -2.2812   28.1049 Cl  0  0  0  0  0  0  0  0  0  0  0  0
    8.1613   -2.4390   25.3999 C   0  0  0  0  0  0  0  0  0  0  0  0
    7.7917   -1.4177   25.3904 H   0  0  0  0  0  0  0  0  0  0  0  0
    9.0434   -4.8165   27.6863 H   0  0  0  0  0  0  0  0  0  0  0  0
    9.4120   -6.0938   25.5681 H   0  0  0  0  0  0  0  0  0  0  0  0
    8.8568   -5.1007   23.4071 H   0  0  0  0  0  0  0  0  0  0  0  0
    8.2662   -1.3724   22.9958 H   0  0  0  0  0  0  0  0  0  0  0  0
    8.9013   -2.7629   22.1290 H   0  0  0  0  0  0  0  0  0  0  0  0
    6.1635   -1.8186   21.3867 C   0  0  0  0  0  0  0  0  0  0  0  0
    5.0692   -2.0895   20.9306 O   0  0  0  0  0  0  0  0  0  0  0  0
    6.8872   -0.5279   20.9484 C   0  0  0  0  0  0  0  0  0  0  0  0
    6.1583    0.1431   19.8128 C   0  0  0  0  0  0  0  0  0  0  0  0
    6.5269   -0.0867   18.5119 C   0  0  0  0  0  0  0  0  0  0  0  0
    5.8868    0.3916   17.4120 N   0  0  0  0  0  0  0  0  0  0  0  0
    4.8158    1.1195   17.6135 C   0  0  0  0  0  0  0  0  0  0  0  0
    4.3185    1.4542   18.9016 C   0  0  0  0  0  0  0  0  0  0  0  0
    3.1776    2.2773   19.0725 C   0  0  0  0  0  0  0  0  0  0  0  0
    2.7364    2.5961   20.3278 C   0  0  0  0  0  0  0  0  0  0  0  0
    3.4050    2.0856   21.4639 C   0  0  0  0  0  0  0  0  0  0  0  0
    4.5023    1.2729   21.3238 C   0  0  0  0  0  0  0  0  0  0  0  0
    5.0028    0.9520   20.0345 C   0  0  0  0  0  0  0  0  0  0  0  0
    4.9927    0.8692   22.2047 H   0  0  0  0  0  0  0  0  0  0  0  0
    3.0490    2.3471   22.4559 H   0  0  0  0  0  0  0  0  0  0  0  0
    1.8778    3.2483   20.4597 H   0  0  0  0  0  0  0  0  0  0  0  0
    2.6747    2.6624   18.1868 H   0  0  0  0  0  0  0  0  0  0  0  0
    4.2798    1.4826   16.7343 H   0  0  0  0  0  0  0  0  0  0  0  0
    7.3925   -0.7138   18.2953 H   0  0  0  0  0  0  0  0  0  0  0  0
    6.9938    0.1481   21.8074 H   0  0  0  0  0  0  0  0  0  0  0  0
    7.9012   -0.7930   20.6237 H   0  0  0  0  0  0  0  0  0  0  0  0
    6.8768   -4.9486   21.4694 C   0  0  0  0  0  0  0  0  0  0  0  0
    6.3526   -6.2305   21.3432 C   0  0  0  0  0  0  0  0  0  0  0  0
    5.2263   -6.5778   22.0739 C   0  0  0  0  0  0  0  0  0  0  0  0
    4.6914   -5.6585   22.9779 C   0  0  0  0  0  0  0  0  0  0  0  0
    4.7663   -7.5518   21.9468 H   0  0  0  0  0  0  0  0  0  0  0  0
    6.8374   -6.9518   20.6971 H   0  0  0  0  0  0  0  0  0  0  0  0
    7.7532   -4.6559   20.9169 H   0  0  0  0  0  0  0  0  0  0  0  0
    5.8330   -3.2257   24.8899 H   0  0  0  0  0  0  0  0  0  0  0  0
    4.4810   -2.6254   23.9695 H   0  0  0  0  0  0  0  0  0  0  0  0
    4.5539   -4.9549   25.9612 H   0  0  0  0  0  0  0  0  0  0  0  0
    3.5960   -3.4879   26.0693 H   0  0  0  0  0  0  0  0  0  0  0  0
    2.4075   -4.3477   23.8729 H   0  0  0  0  0  0  0  0  0  0  0  0
    2.1344   -5.3487   25.3066 H   0  0  0  0  0  0  0  0  0  0  0  0
    4.1128   -6.6086   24.7084 H   0  0  0  0  0  0  0  0  0  0  0  0
    3.6915   -8.5594   24.6100 H   0  0  0  0  0  0  0  0  0  0  0  0
    2.9058   -9.2359   23.1746 H   0  0  0  0  0  0  0  0  0  0  0  0
    0.6461   -8.7922   24.1779 H   0  0  0  0  0  0  0  0  0  0  0  0
    1.4136   -8.0843   25.6171 H   0  0  0  0  0  0  0  0  0  0  0  0
    1.6086   -9.8210   25.2594 H   0  0  0  0  0  0  0  0  0  0  0  0
  1  2  1  0
  2  3  1  0
  3  4  2  0
  3  5  1  0
  5  6  1  0
  6  7  1  0
  7  8  1  0
  8  9  1  0
  9 10  2  0
 10 11  1  0
 11 12  1  0
 12 13  1  0
 13 14  2  0
 14 15  1  0
 15 16  2  0
 16 17  1  0
 17 18  1  0
 17 19  2  0
 19 20  1  0
 16 21  1  0
 15 22  1  0
 14 23  1  0
 12 24  1  0
 12 25  1  0
 11 26  1  0
 26 27  2  0
 26 28  1  0
 28 29  1  0
 29 30  2  0
 30 31  1  0
 31 32  2  0
 32 33  1  0
 33 34  2  0
 34 35  1  0
 35 36  2  0
 36 37  1  0
 37 38  2  0
 37 39  1  0
 36 40  1  0
 35 41  1  0
 34 42  1  0
 32 43  1  0
 30 44  1  0
 28 45  1  0
 28 46  1  0
 10 47  1  0
 47 48  2  0
 48 49  1  0
 49 50  2  0
 49 51  1  0
 48 52  1  0
 47 53  1  0
  8 54  1  0
  8 55  1  0
  7 56  1  0
  7 57  1  0
  6 58  1  0
  6 59  1  0
  5 60  1  1
  2 61  1  0
  2 62  1  0
  1 63  1  0
  1 64  1  0
  1 65  1  0
 50  5  1  0
 50  9  1  0
 19 13  1  0
 38 29  1  0
 38 33  1  0
M  CHG  1   5   1
M  END
>  <cnnaffinities>  (85) 
[6.45669]

>  <score>  (85) 
6.45669

>  <index>  (85) 
94

>  <Smiles>  (85) 
C(C(C(=O)[N@@+]1(C(C(C(c2c(N(C(c3c(c(c(c(Cl)c3[H])[H])[H])[H])([H])[H])C(=O)C(c3c(nc(c4c(c(c(c(c34)[H])[H])[H])[H])[H])[H])([H])[H])c(c(c(c12)[H])[H])[H])([H])[H])([H])[H])([H])[H])[H])([H])[H])([H])([H])[H]

>  <h>  (85) 
<NA>

>  <Training>  (85) 
True

>  <Success>  (85) 
True

>  <enamine_searched>  (85) 
False

>  <enamine_id>  (85) 
nan

$$$$

     RDKit          3D

 67 71  0  0  0  0  0  0  0  0999 V2000
    4.6773   -0.5913   27.8065 C   0  0  0  0  0  0  0  0  0  0  0  0
    5.0908   -0.0378   26.5289 N   0  0  0  0  0  0  0  0  0  0  0  0
    5.8883    1.0735   26.5307 C   0  0  0  0  0  0  0  0  0  0  0  0
    6.2214    1.6201   27.5687 O   0  0  0  0  0  0  0  0  0  0  0  0
    6.3040    1.6413   25.1662 C   0  0  0  0  0  0  0  0  0  0  0  0
    7.4656    1.0210   24.5654 N   0  0  0  0  0  0  0  0  0  0  0  0
    7.2878   -0.2760   23.9490 C   0  0  0  0  0  0  0  0  0  0  0  0
    8.2768   -0.5136   22.7764 C   0  0  2  0  0  0  0  0  0  0  0  0
    7.8767    0.4332   21.6086 C   0  0  0  0  0  0  0  0  0  0  0  0
    8.2019    1.5837   21.4355 O   0  0  0  0  0  0  0  0  0  0  0  0
    7.0212   -0.2849   20.7819 N   0  0  0  0  0  0  0  0  0  0  0  0
    6.2297    0.2746   19.7482 C   0  0  0  0  0  0  0  0  0  0  0  0
    6.5296   -0.0416   18.4480 C   0  0  0  0  0  0  0  0  0  0  0  0
    5.8299    0.3877   17.3730 N   0  0  0  0  0  0  0  0  0  0  0  0
    4.7674    1.1225   17.5847 C   0  0  0  0  0  0  0  0  0  0  0  0
    4.3226    1.5082   18.8783 C   0  0  0  0  0  0  0  0  0  0  0  0
    3.1634    2.3091   19.0585 C   0  0  0  0  0  0  0  0  0  0  0  0
    2.7183    2.6147   20.3149 C   0  0  0  0  0  0  0  0  0  0  0  0
    3.4099    2.1267   21.4470 C   0  0  0  0  0  0  0  0  0  0  0  0
    4.5455    1.3680   21.2966 C   0  0  0  0  0  0  0  0  0  0  0  0
    5.0505    1.0558   20.0043 C   0  0  0  0  0  0  0  0  0  0  0  0
    5.0616    0.9859   22.1733 H   0  0  0  0  0  0  0  0  0  0  0  0
    3.0390    2.3519   22.4426 H   0  0  0  0  0  0  0  0  0  0  0  0
    1.8331    3.2317   20.4521 H   0  0  0  0  0  0  0  0  0  0  0  0
    2.6389    2.6649   18.1753 H   0  0  0  0  0  0  0  0  0  0  0  0
    4.1858    1.4349   16.7143 H   0  0  0  0  0  0  0  0  0  0  0  0
    7.3866   -0.6790   18.2281 H   0  0  0  0  0  0  0  0  0  0  0  0
    6.8567   -1.6781   21.1637 C   0  0  0  0  0  0  0  0  0  0  0  0
    8.0462   -1.8903   22.1021 C   0  0  2  0  0  0  0  0  0  0  0  0
    8.0011   -3.0777   23.0586 C   0  0  0  0  0  0  0  0  0  0  0  0
    6.3918   -3.6038   23.6270 S   0  0  0  0  0  0  0  0  0  0  0  0
    5.4931   -2.4701   23.8064 O   0  0  0  0  0  0  0  0  0  0  0  0
    6.6421   -4.4635   24.7706 O   0  0  0  0  0  0  0  0  0  0  0  0
    5.7840   -4.4806   22.3145 N   0  0  0  0  0  0  0  0  0  0  0  0
    4.4327   -4.9649   22.6039 C   0  0  0  0  0  0  0  0  0  0  0  0
    3.8704   -4.1553   23.0655 H   0  0  0  0  0  0  0  0  0  0  0  0
    4.4213   -5.8341   23.2770 H   0  0  0  0  0  0  0  0  0  0  0  0
    3.9598   -5.2245   21.6534 H   0  0  0  0  0  0  0  0  0  0  0  0
    6.6443   -5.4909   21.7008 C   0  0  0  0  0  0  0  0  0  0  0  0
    7.0432   -6.2299   22.4090 H   0  0  0  0  0  0  0  0  0  0  0  0
    7.4686   -5.0248   21.1556 H   0  0  0  0  0  0  0  0  0  0  0  0
    6.0433   -6.0089   20.9498 H   0  0  0  0  0  0  0  0  0  0  0  0
    8.4473   -3.9779   22.6419 H   0  0  0  0  0  0  0  0  0  0  0  0
    8.5742   -2.8682   23.9705 H   0  0  0  0  0  0  0  0  0  0  0  0
    8.9133   -2.0353   21.4449 H   0  0  0  0  0  0  0  0  0  0  0  0
    5.8857   -1.8411   21.6497 H   0  0  0  0  0  0  0  0  0  0  0  0
    6.9010   -2.3218   20.2833 H   0  0  0  0  0  0  0  0  0  0  0  0
    9.6630   -0.3034   23.3534 C   0  0  0  0  0  0  0  0  0  0  0  0
   10.7691   -1.1161   23.0458 C   0  0  0  0  0  0  0  0  0  0  0  0
   11.9945   -0.8377   23.6126 C   0  0  0  0  0  0  0  0  0  0  0  0
   13.0486   -1.6141   23.2922 F   0  0  0  0  0  0  0  0  0  0  0  0
   12.2070    0.2182   24.4861 C   0  0  0  0  0  0  0  0  0  0  0  0
   11.1241    1.0248   24.7814 C   0  0  0  0  0  0  0  0  0  0  0  0
    9.8566    0.7395   24.2739 C   0  0  0  0  0  0  0  0  0  0  0  0
    8.7045    1.5719   24.7692 C   0  0  0  0  0  0  0  0  0  0  0  0
    8.8571    2.6469   25.3251 O   0  0  0  0  0  0  0  0  0  0  0  0
   11.2099    1.8749   25.4360 H   0  0  0  0  0  0  0  0  0  0  0  0
   13.2002    0.3639   24.8995 H   0  0  0  0  0  0  0  0  0  0  0  0
   10.6933   -1.9892   22.4077 H   0  0  0  0  0  0  0  0  0  0  0  0
    7.4128   -1.0690   24.6985 H   0  0  0  0  0  0  0  0  0  0  0  0
    6.2719   -0.3248   23.5528 H   0  0  0  0  0  0  0  0  0  0  0  0
    5.4765    1.5415   24.4526 H   0  0  0  0  0  0  0  0  0  0  0  0
    6.5589    2.6925   25.3104 H   0  0  0  0  0  0  0  0  0  0  0  0
    4.9964   -0.6240   25.7062 H   0  0  0  0  0  0  0  0  0  0  0  0
    4.1652    0.1659   28.4076 H   0  0  0  0  0  0  0  0  0  0  0  0
    3.9874   -1.4176   27.6267 H   0  0  0  0  0  0  0  0  0  0  0  0
    5.5341   -0.9495   28.3879 H   0  0  0  0  0  0  0  0  0  0  0  0
  1  2  1  0
  2  3  1  0
  3  4  2  0
  3  5  1  0
  5  6  1  0
  6  7  1  0
  8  7  1  1
  8  9  1  0
  9 10  2  0
  9 11  1  0
 11 12  1  0
 12 13  2  0
 13 14  1  0
 14 15  2  0
 15 16  1  0
 16 17  2  0
 17 18  1  0
 18 19  2  0
 19 20  1  0
 20 21  2  0
 20 22  1  0
 19 23  1  0
 18 24  1  0
 17 25  1  0
 15 26  1  0
 13 27  1  0
 11 28  1  0
 28 29  1  0
 29 30  1  0
 30 31  1  0
 31 32  2  0
 31 33  2  0
 31 34  1  0
 34 35  1  0
 35 36  1  0
 35 37  1  0
 35 38  1  0
 34 39  1  0
 39 40  1  0
 39 41  1  0
 39 42  1  0
 30 43  1  0
 30 44  1  0
 29 45  1  6
 28 46  1  0
 28 47  1  0
  8 48  1  0
 48 49  2  0
 49 50  1  0
 50 51  1  0
 50 52  2  0
 52 53  1  0
 53 54  2  0
 54 55  1  0
 55 56  2  0
 53 57  1  0
 52 58  1  0
 49 59  1  0
  7 60  1  0
  7 61  1  0
  5 62  1  0
  5 63  1  0
  2 64  1  0
  1 65  1  0
  1 66  1  0
  1 67  1  0
 55  6  1  0
 29  8  1  0
 54 48  1  0
 21 12  1  0
 21 16  1  0
M  END
>  <cnnaffinities>  (86) 
[7.0465, 7.23683]

>  <score>  (86) 
7.0465

>  <index>  (86) 
95

>  <Smiles>  (86) 
C(N(C(=O)C(N1C([C@@]2(C(=O)N(c3c(nc(c4c(c(c(c(c34)[H])[H])[H])[H])[H])[H])C([C@@]2(C(S(=O)(=O)N(C([H])([H])[H])C([H])([H])[H])([H])[H])[H])([H])[H])c2c(c(F)c(c(c2C1=O)[H])[H])[H])([H])[H])([H])[H])[H])([H])([H])[H]

>  <h>  (86) 
<NA>

>  <Training>  (86) 
True

>  <Success>  (86) 
True

>  <enamine_searched>  (86) 
False

>  <enamine_id>  (86) 
nan

$$$$

     RDKit          3D

 37 39  0  0  0  0  0  0  0  0999 V2000
    5.3172   -1.2733   22.6493 O   0  0  0  0  0  0  0  0  0  0  0  0
    5.7308   -1.4515   21.5132 C   0  0  0  0  0  0  0  0  0  0  0  0
    6.6491   -0.4761   20.7708 C   0  0  0  0  0  0  0  0  0  0  0  0
    5.9633    0.2176   19.6297 C   0  0  0  0  0  0  0  0  0  0  0  0
    6.4261    0.1066   18.3452 C   0  0  0  0  0  0  0  0  0  0  0  0
    5.8479    0.6753   17.2559 N   0  0  0  0  0  0  0  0  0  0  0  0
    4.7615    1.3773   17.4659 C   0  0  0  0  0  0  0  0  0  0  0  0
    4.1971    1.6160   18.7449 C   0  0  0  0  0  0  0  0  0  0  0  0
    3.0556    2.4378   18.9211 C   0  0  0  0  0  0  0  0  0  0  0  0
    2.5595    2.6718   20.1737 C   0  0  0  0  0  0  0  0  0  0  0  0
    3.1840    2.0962   21.3029 C   0  0  0  0  0  0  0  0  0  0  0  0
    4.2858    1.2922   21.1595 C   0  0  0  0  0  0  0  0  0  0  0  0
    4.8154    1.0274   19.8667 C   0  0  0  0  0  0  0  0  0  0  0  0
    4.7525    0.8464   22.0301 H   0  0  0  0  0  0  0  0  0  0  0  0
    2.7892    2.2949   22.2949 H   0  0  0  0  0  0  0  0  0  0  0  0
    1.6906    3.3098   20.3101 H   0  0  0  0  0  0  0  0  0  0  0  0
    2.6045    2.8910   18.0414 H   0  0  0  0  0  0  0  0  0  0  0  0
    4.2727    1.8163   16.5967 H   0  0  0  0  0  0  0  0  0  0  0  0
    7.3341   -0.4621   18.1394 H   0  0  0  0  0  0  0  0  0  0  0  0
    7.5068   -1.0475   20.3892 H   0  0  0  0  0  0  0  0  0  0  0  0
    7.0428    0.2291   21.5102 H   0  0  0  0  0  0  0  0  0  0  0  0
    5.4901   -2.6048   20.8244 N   0  0  0  0  0  0  0  0  0  0  0  0
    5.2153   -3.8591   21.5332 C   0  0  0  0  0  0  0  0  0  0  0  0
    6.0977   -4.0906   22.7186 C   0  0  0  0  0  0  0  0  0  0  0  0
    7.1438   -5.0358   22.7025 C   0  0  0  0  0  0  0  0  0  0  0  0
    8.0007   -5.0620   23.6682 C   0  0  0  0  0  0  0  0  0  0  0  0
    8.2974   -4.8147   23.6693 C   0  0  0  0  0  0  0  0  0  0  0  0
    6.3274   -3.7576   25.1296 C   0  0  0  0  0  0  0  0  0  0  0  0
    5.7780   -2.9798   26.5788 Cl  0  0  0  0  0  0  0  0  0  0  0  0
    5.6307   -3.6762   23.9868 C   0  0  0  0  0  0  0  0  0  0  0  0
    4.6073   -3.2412   23.9931 H   0  0  0  0  0  0  0  0  0  0  0  0
    8.8786   -3.7963   23.6697 H   0  0  0  0  0  0  0  0  0  0  0  0
    8.6687   -5.7179   24.4368 H   0  0  0  0  0  0  0  0  0  0  0  0
    6.9118   -5.9162   23.1370 H   0  0  0  0  0  0  0  0  0  0  0  0
    5.3476   -4.6733   20.8153 H   0  0  0  0  0  0  0  0  0  0  0  0
    4.1644   -3.8402   21.8568 H   0  0  0  0  0  0  0  0  0  0  0  0
    5.6712   -2.6166   19.8345 H   0  0  0  0  0  0  0  0  0  0  0  0
  1  2  2  0
  2  3  1  0
  3  4  1  0
  4  5  2  0
  5  6  1  0
  6  7  2  0
  7  8  1  0
  8  9  2  0
  9 10  1  0
 10 11  2  0
 11 12  1  0
 12 13  2  0
 12 14  1  0
 11 15  1  0
 10 16  1  0
  9 17  1  0
  7 18  1  0
  5 19  1  0
  3 20  1  0
  3 21  1  0
  2 22  1  0
 22 23  1  0
 23 24  1  0
 24 25  2  0
 25 26  1  0
 26 27  2  0
 27 28  1  0
 28 29  1  0
 28 30  2  0
 30 31  1  0
 27 32  1  0
 26 33  1  0
 25 34  1  0
 23 35  1  0
 23 36  1  0
 22 37  1  0
 13  4  1  0
 30 24  1  0
 13  8  1  0
M  END
>  <cnnaffinities>  (87) 
[4.98725]

>  <score>  (87) 
4.98725

>  <index>  (87) 
96

>  <Smiles>  (87) 
O=C(C(c1c(nc(c2c(c(c(c(c12)[H])[H])[H])[H])[H])[H])([H])[H])N(C(c1c(c(c(c(Cl)c1[H])[H])[H])[H])([H])[H])[H]

>  <h>  (87) 
<NA>

>  <Training>  (87) 
True

>  <Success>  (87) 
True

>  <enamine_searched>  (87) 
False

>  <enamine_id>  (87) 
nan

$$$$
