
     RDKit          3D

 51 54  0  0  0  0  0  0  0  0999 V2000
   12.6393   -0.7645   24.7487 C   0  0  0  0  0  0  0  0  0  0  0  0
   12.3572   -1.6355   23.6889 O   0  0  0  0  0  0  0  0  0  0  0  0
   11.0405   -1.8616   23.4321 C   0  0  0  0  0  0  0  0  0  0  0  0
   10.8135   -2.8800   22.5112 C   0  0  0  0  0  0  0  0  0  0  0  0
    9.5337   -3.1558   22.0697 C   0  0  0  0  0  0  0  0  0  0  0  0
    8.4489   -2.4163   22.5397 C   0  0  0  0  0  0  0  0  0  0  0  0
    7.1364   -2.7157   22.0507 N   0  0  0  0  0  0  0  0  0  0  0  0
    6.5461   -4.0070   22.4237 C   0  0  0  0  0  0  0  0  0  0  0  0
    5.9778   -4.0110   23.8349 C   0  0  0  0  0  0  0  0  0  0  0  0
    6.8153   -4.2162   24.9322 C   0  0  0  0  0  0  0  0  0  0  0  0
    6.3148   -4.1546   26.2295 C   0  0  0  0  0  0  0  0  0  0  0  0
    4.9665   -3.8932   26.4507 C   0  0  0  0  0  0  0  0  0  0  0  0
    4.1337   -3.7077   25.3539 C   0  0  0  0  0  0  0  0  0  0  0  0
    2.4439   -3.3672   25.6151 Cl  0  0  0  0  0  0  0  0  0  0  0  0
    4.6207   -3.7663   24.0537 C   0  0  0  0  0  0  0  0  0  0  0  0
    3.9479   -3.5933   23.2185 H   0  0  0  0  0  0  0  0  0  0  0  0
    4.5621   -3.8260   27.4568 H   0  0  0  0  0  0  0  0  0  0  0  0
    6.9832   -4.2939   27.0765 H   0  0  0  0  0  0  0  0  0  0  0  0
    7.8751   -4.4025   24.7685 H   0  0  0  0  0  0  0  0  0  0  0  0
    5.7566   -4.2378   21.7016 H   0  0  0  0  0  0  0  0  0  0  0  0
    7.3304   -4.7696   22.3413 H   0  0  0  0  0  0  0  0  0  0  0  0
    6.2904   -1.7868   21.4676 C   0  0  0  0  0  0  0  0  0  0  0  0
    5.0928   -1.9911   21.3944 O   0  0  0  0  0  0  0  0  0  0  0  0
    6.9305   -0.5152   20.8845 C   0  0  0  0  0  0  0  0  0  0  0  0
    6.1166    0.0821   19.7635 C   0  0  0  0  0  0  0  0  0  0  0  0
    6.4264   -0.2147   18.4622 C   0  0  0  0  0  0  0  0  0  0  0  0
    5.7615    0.2396   17.3667 N   0  0  0  0  0  0  0  0  0  0  0  0
    4.7370    1.0293   17.5804 C   0  0  0  0  0  0  0  0  0  0  0  0
    4.2870    1.4159   18.8704 C   0  0  0  0  0  0  0  0  0  0  0  0
    3.1657    2.2662   19.0454 C   0  0  0  0  0  0  0  0  0  0  0  0
    2.7501    2.6198   20.2993 C   0  0  0  0  0  0  0  0  0  0  0  0
    3.4390    2.1330   21.4318 C   0  0  0  0  0  0  0  0  0  0  0  0
    4.5262    1.3049   21.2883 C   0  0  0  0  0  0  0  0  0  0  0  0
    4.9884    0.9273   19.9994 C   0  0  0  0  0  0  0  0  0  0  0  0
    5.0282    0.9163   22.1688 H   0  0  0  0  0  0  0  0  0  0  0  0
    3.0980    2.4136   22.4248 H   0  0  0  0  0  0  0  0  0  0  0  0
    1.8919    3.2746   20.4287 H   0  0  0  0  0  0  0  0  0  0  0  0
    2.6576    2.6348   18.1571 H   0  0  0  0  0  0  0  0  0  0  0  0
    4.2060    1.3992   16.7013 H   0  0  0  0  0  0  0  0  0  0  0  0
    7.2712   -0.8658   18.2371 H   0  0  0  0  0  0  0  0  0  0  0  0
    7.0744    0.2121   21.6961 H   0  0  0  0  0  0  0  0  0  0  0  0
    7.9385   -0.7789   20.5428 H   0  0  0  0  0  0  0  0  0  0  0  0
    8.6726   -1.4358   23.5039 C   0  0  0  0  0  0  0  0  0  0  0  0
    9.9620   -1.1601   23.9669 C   0  0  0  0  0  0  0  0  0  0  0  0
   10.0881   -0.3848   24.7177 H   0  0  0  0  0  0  0  0  0  0  0  0
    7.8213   -0.8954   23.9124 H   0  0  0  0  0  0  0  0  0  0  0  0
    9.3712   -3.9314   21.3271 H   0  0  0  0  0  0  0  0  0  0  0  0
   11.6965   -3.3980   22.1569 H   0  0  0  0  0  0  0  0  0  0  0  0
   12.3392    0.2556   24.4902 H   0  0  0  0  0  0  0  0  0  0  0  0
   13.7182   -0.7951   24.9130 H   0  0  0  0  0  0  0  0  0  0  0  0
   12.0914   -1.0908   25.6400 H   0  0  0  0  0  0  0  0  0  0  0  0
  1  2  1  0
  2  3  1  0
  3  4  2  0
  4  5  1  0
  5  6  2  0
  6  7  1  0
  7  8  1  0
  8  9  1  0
  9 10  2  0
 10 11  1  0
 11 12  2  0
 12 13  1  0
 13 14  1  0
 13 15  2  0
 15 16  1  0
 12 17  1  0
 11 18  1  0
 10 19  1  0
  8 20  1  0
  8 21  1  0
  7 22  1  0
 22 23  2  0
 22 24  1  0
 24 25  1  0
 25 26  2  0
 26 27  1  0
 27 28  2  0
 28 29  1  0
 29 30  2  0
 30 31  1  0
 31 32  2  0
 32 33  1  0
 33 34  2  0
 33 35  1  0
 32 36  1  0
 31 37  1  0
 30 38  1  0
 28 39  1  0
 26 40  1  0
 24 41  1  0
 24 42  1  0
  6 43  1  0
 43 44  2  0
 44 45  1  0
 43 46  1  0
  5 47  1  0
  4 48  1  0
  1 49  1  0
  1 50  1  0
  1 51  1  0
 44  3  1  0
 15  9  1  0
 34 25  1  0
 34 29  1  0
M  END
>  <cnnaffinities>  (1) 
[6.13774]

>  <score>  (1) 
6.13774

>  <index>  (1) 
1

>  <Smiles>  (1) 
C(Oc1c(c(c(N(C(c2c(c(c(c(Cl)c2[H])[H])[H])[H])([H])[H])C(=O)C(c2c(nc(c3c(c(c(c(c23)[H])[H])[H])[H])[H])[H])([H])[H])c(c1[H])[H])[H])[H])([H])([H])[H]

>  <h>  (1) 
<NA>

>  <Training>  (1) 
True

>  <Success>  (1) 
True

>  <enamine_searched>  (1) 
False

>  <enamine_id>  (1) 
nan

$$$$

     RDKit          3D

 67 73  0  0  0  0  0  0  0  0999 V2000
    9.3303    2.1717   24.7647 O   0  0  0  0  0  0  0  0  0  0  0  0
    8.9120    1.0307   24.5917 C   0  0  0  0  0  0  0  0  0  0  0  0
    9.7436   -0.1883   24.3170 C   0  0  0  0  0  0  0  0  0  0  0  0
   11.1166   -0.3261   24.9074 C   0  0  0  0  0  0  0  0  0  0  0  0
   11.8273   -1.3652   24.9571 C   0  0  0  0  0  0  0  0  0  0  0  0
   11.2177   -3.3891   23.8722 C   0  0  0  0  0  0  0  0  0  0  0  0
   11.8281   -2.0705   22.3423 Cl  0  0  0  0  0  0  0  0  0  0  0  0
   10.1686   -1.4663   22.2537 C   0  0  0  0  0  0  0  0  0  0  0  0
    9.3612   -0.9834   23.2388 C   0  0  0  0  0  0  0  0  0  0  0  0
    7.8508   -1.0651   22.9706 C   0  0  1  0  0  0  0  0  0  0  0  0
    7.0465   -0.4779   24.1639 C   0  0  0  0  0  0  0  0  0  0  0  0
    7.5699    0.8071   24.5390 N   0  0  0  0  0  0  0  0  0  0  0  0
    6.6425    1.8848   24.8202 C   0  0  0  0  0  0  0  0  0  0  0  0
    5.7791    1.5855   26.0277 C   0  0  0  0  0  0  0  0  0  0  0  0
    4.5083    1.0614   25.9398 C   0  0  0  0  0  0  0  0  0  0  0  0
    3.8508    0.7415   27.1258 C   0  0  0  0  0  0  0  0  0  0  0  0
    4.3737    0.9373   28.3307 N   0  0  0  0  0  0  0  0  0  0  0  0
    5.5906    1.4620   28.4279 N   0  0  0  0  0  0  0  0  0  0  0  0
    6.2686    1.7699   27.3285 C   0  0  0  0  0  0  0  0  0  0  0  0
    7.2502    2.2126   27.5020 H   0  0  0  0  0  0  0  0  0  0  0  0
    2.8530    0.3096   27.1164 H   0  0  0  0  0  0  0  0  0  0  0  0
    4.0204    0.9082   24.9783 H   0  0  0  0  0  0  0  0  0  0  0  0
    7.2496    2.7797   24.9814 H   0  0  0  0  0  0  0  0  0  0  0  0
    6.0179    2.0464   23.9271 H   0  0  0  0  0  0  0  0  0  0  0  0
    7.0103   -1.1110   25.0601 H   0  0  0  0  0  0  0  0  0  0  0  0
    6.0121   -0.3181   23.8404 H   0  0  0  0  0  0  0  0  0  0  0  0
    7.5076   -0.2049   21.7358 C   0  0  0  0  0  0  0  0  0  0  0  0
    7.8622    0.9341   21.5101 O   0  0  0  0  0  0  0  0  0  0  0  0
    6.6723   -0.9322   20.9198 N   0  0  0  0  0  0  0  0  0  0  0  0
    6.0504   -0.2438   19.8421 C   0  0  0  0  0  0  0  0  0  0  0  0
    6.5183   -0.4246   18.5666 C   0  0  0  0  0  0  0  0  0  0  0  0
    5.9929    0.1608   17.4596 N   0  0  0  0  0  0  0  0  0  0  0  0
    4.9747    0.9677   17.6362 C   0  0  0  0  0  0  0  0  0  0  0  0
    4.4171    1.2836   18.9066 C   0  0  0  0  0  0  0  0  0  0  0  0
    3.3193    2.1757   19.0346 C   0  0  0  0  0  0  0  0  0  0  0  0
    2.8645    2.5491   20.2683 C   0  0  0  0  0  0  0  0  0  0  0  0
    3.4880    2.0401   21.4281 C   0  0  0  0  0  0  0  0  0  0  0  0
    4.5197    1.1406   21.3282 C   0  0  0  0  0  0  0  0  0  0  0  0
    5.0022    0.7118   20.0577 C   0  0  0  0  0  0  0  0  0  0  0  0
    4.9804    0.7545   22.2309 H   0  0  0  0  0  0  0  0  0  0  0  0
    3.1426    2.3601   22.4069 H   0  0  0  0  0  0  0  0  0  0  0  0
    2.0363    3.2450   20.3602 H   0  0  0  0  0  0  0  0  0  0  0  0
    2.8632    2.5626   18.1279 H   0  0  0  0  0  0  0  0  0  0  0  0
    4.5500    1.4341   16.7473 H   0  0  0  0  0  0  0  0  0  0  0  0
    7.3801   -1.0678   18.4063 H   0  0  0  0  0  0  0  0  0  0  0  0
    6.2428   -2.1927   21.5370 C   0  0  0  0  0  0  0  0  0  0  0  0
    7.3980   -2.4675   22.5110 C   0  0  2  0  0  0  0  0  0  0  0  0
    7.2163   -3.5223   23.6103 C   0  0  0  0  0  0  0  0  0  0  0  0
    5.9295   -3.5392   24.2857 N   0  0  0  0  0  0  0  0  0  0  0  0
    4.8600   -4.1727   23.7251 C   0  0  0  0  0  0  0  0  0  0  0  0
    3.5402   -3.9078   24.1404 C   0  0  0  0  0  0  0  0  0  0  0  0
    2.5478   -4.5705   23.4526 C   0  0  0  0  0  0  0  0  0  0  0  0
    2.7818   -5.4542   22.4696 N   0  0  0  0  0  0  0  0  0  0  0  0
    4.0637   -5.6482   22.1944 C   0  0  0  0  0  0  0  0  0  0  0  0
    5.1131   -5.0346   22.7303 N   0  0  0  0  0  0  0  0  0  0  0  0
    4.2985   -6.3929   21.4322 H   0  0  0  0  0  0  0  0  0  0  0  0
    1.5005   -4.3935   23.6968 H   0  0  0  0  0  0  0  0  0  0  0  0
    3.3209   -3.2233   24.9588 H   0  0  0  0  0  0  0  0  0  0  0  0
    5.7289   -2.7546   24.8893 H   0  0  0  0  0  0  0  0  0  0  0  0
    7.9953   -3.3727   24.3648 H   0  0  0  0  0  0  0  0  0  0  0  0
    7.3412   -4.5179   23.1860 H   0  0  0  0  0  0  0  0  0  0  0  0
    8.2407   -2.8412   21.9189 H   0  0  0  0  0  0  0  0  0  0  0  0
    5.2891   -2.0534   22.0674 H   0  0  0  0  0  0  0  0  0  0  0  0
    6.1189   -2.9912   20.8019 H   0  0  0  0  0  0  0  0  0  0  0  0
    9.7678   -1.7851   21.3031 H   0  0  0  0  0  0  0  0  0  0  0  0
   12.7108   -1.9526   24.9615 H   0  0  0  0  0  0  0  0  0  0  0  0
   11.4517    0.6835   25.2688 H   0  0  0  0  0  0  0  0  0  0  0  0
  1  2  2  0
  2  3  1  0
  3  4  2  0
  4  5  1  0
  5  6  2  0
  6  7  1  0
  6  8  1  0
  8  9  2  0
  9 10  1  0
 10 11  1  1
 11 12  1  0
 12 13  1  0
 13 14  1  0
 14 15  2  0
 15 16  1  0
 16 17  2  0
 17 18  1  0
 18 19  2  0
 19 20  1  0
 16 21  1  0
 15 22  1  0
 13 23  1  0
 13 24  1  0
 11 25  1  0
 11 26  1  0
 10 27  1  0
 27 28  2  0
 27 29  1  0
 29 30  1  0
 30 31  2  0
 31 32  1  0
 32 33  2  0
 33 34  1  0
 34 35  2  0
 35 36  1  0
 36 37  2  0
 37 38  1  0
 38 39  2  0
 38 40  1  0
 37 41  1  0
 36 42  1  0
 35 43  1  0
 33 44  1  0
 31 45  1  0
 29 46  1  0
 46 47  1  0
 47 48  1  0
 48 49  1  0
 49 50  1  0
 50 51  2  0
 51 52  1  0
 52 53  2  0
 53 54  1  0
 54 55  2  0
 54 56  1  0
 52 57  1  0
 51 58  1  0
 49 59  1  0
 48 60  1  0
 48 61  1  0
 47 62  1  6
 46 63  1  0
 46 64  1  0
  8 65  1  0
  5 66  1  0
  4 67  1  0
 12  2  1  0
 19 14  1  0
 39 30  1  0
 55 50  1  0
  9  3  1  0
 47 10  1  0
 39 34  1  0
M  END
>  <cnnaffinities>  (2) 
[7.11024]

>  <score>  (2) 
7.11024

>  <index>  (2) 
3

>  <Smiles>  (2) 
O=C1c2c(c(c(Cl)c(c2[C@@]2(C(N1C(c1c(c(nnc1[H])[H])[H])([H])[H])([H])[H])C(=O)N(c1c(nc(c3c(c(c(c(c13)[H])[H])[H])[H])[H])[H])C([C@@]2(C(N(c1c(c(nc(n1)[H])[H])[H])[H])([H])[H])[H])([H])[H])[H])[H])[H]

>  <h>  (2) 
<NA>

>  <Training>  (2) 
True

>  <Success>  (2) 
True

>  <enamine_searched>  (2) 
False

>  <enamine_id>  (2) 
nan

$$$$

     RDKit          3D

 41 44  0  0  0  0  0  0  0  0999 V2000
    7.3420   -0.3136   24.4626 C   0  0  0  0  0  0  0  0  0  0  0  0
    7.7792   -1.4949   23.5896 C   0  0  1  0  0  0  0  0  0  0  0  0
    8.5075   -2.5236   24.4152 C   0  0  0  0  0  0  0  0  0  0  0  0
    9.8871   -2.4916   24.7845 C   0  0  0  0  0  0  0  0  0  0  0  0
   10.2134   -3.4914   25.6512 C   0  0  0  0  0  0  0  0  0  0  0  0
    8.8503   -4.4771   26.0416 S   0  0  0  0  0  0  0  0  0  0  0  0
    7.8248   -3.5226   25.0277 C   0  0  0  0  0  0  0  0  0  0  0  0
    6.3479   -3.6563   24.8564 C   0  0  0  0  0  0  0  0  0  0  0  0
    5.9155   -3.2471   23.4413 C   0  0  0  0  0  0  0  0  0  0  0  0
    6.6446   -2.0932   22.8726 N   0  0  0  0  0  0  0  0  0  0  0  0
    6.2033   -1.6617   21.6362 C   0  0  0  0  0  0  0  0  0  0  0  0
    5.2546   -2.2063   21.0971 O   0  0  0  0  0  0  0  0  0  0  0  0
    6.9222   -0.4897   20.9164 C   0  0  0  0  0  0  0  0  0  0  0  0
    6.1154    0.0832   19.7719 C   0  0  0  0  0  0  0  0  0  0  0  0
    6.4215   -0.2150   18.4677 C   0  0  0  0  0  0  0  0  0  0  0  0
    5.7604    0.2383   17.3655 N   0  0  0  0  0  0  0  0  0  0  0  0
    4.7366    1.0317   17.5755 C   0  0  0  0  0  0  0  0  0  0  0  0
    4.2870    1.4200   18.8685 C   0  0  0  0  0  0  0  0  0  0  0  0
    3.1643    2.2716   19.0453 C   0  0  0  0  0  0  0  0  0  0  0  0
    2.7496    2.6273   20.3008 C   0  0  0  0  0  0  0  0  0  0  0  0
    3.4414    2.1424   21.4320 C   0  0  0  0  0  0  0  0  0  0  0  0
    4.5302    1.3166   21.2864 C   0  0  0  0  0  0  0  0  0  0  0  0
    4.9888    0.9332   19.9980 C   0  0  0  0  0  0  0  0  0  0  0  0
    5.0412    0.9465   22.1690 H   0  0  0  0  0  0  0  0  0  0  0  0
    3.1031    2.4217   22.4240 H   0  0  0  0  0  0  0  0  0  0  0  0
    1.8925    3.2809   20.4366 H   0  0  0  0  0  0  0  0  0  0  0  0
    2.6445    2.6435   18.1650 H   0  0  0  0  0  0  0  0  0  0  0  0
    4.1993    1.4006   16.6994 H   0  0  0  0  0  0  0  0  0  0  0  0
    7.2650   -0.8670   18.2479 H   0  0  0  0  0  0  0  0  0  0  0  0
    7.8689   -0.8780   20.5149 H   0  0  0  0  0  0  0  0  0  0  0  0
    7.1950    0.3135   21.6141 H   0  0  0  0  0  0  0  0  0  0  0  0
    4.8433   -3.0250   23.4474 H   0  0  0  0  0  0  0  0  0  0  0  0
    6.0425   -4.1041   22.7725 H   0  0  0  0  0  0  0  0  0  0  0  0
    5.8459   -3.0305   25.6085 H   0  0  0  0  0  0  0  0  0  0  0  0
    6.0199   -4.6774   25.0707 H   0  0  0  0  0  0  0  0  0  0  0  0
   11.1779   -3.6975   26.0934 H   0  0  0  0  0  0  0  0  0  0  0  0
   10.5942   -1.7389   24.4453 H   0  0  0  0  0  0  0  0  0  0  0  0
    8.4997   -1.1359   22.8455 H   0  0  0  0  0  0  0  0  0  0  0  0
    6.8216    0.4513   23.8813 H   0  0  0  0  0  0  0  0  0  0  0  0
    8.2112    0.1424   24.9470 H   0  0  0  0  0  0  0  0  0  0  0  0
    6.6702   -0.6651   25.2488 H   0  0  0  0  0  0  0  0  0  0  0  0
  1  2  1  0
  2  3  1  0
  3  4  1  0
  4  5  2  0
  5  6  1  0
  6  7  1  0
  7  8  1  0
  8  9  1  0
  9 10  1  0
 10 11  1  0
 11 12  2  0
 11 13  1  0
 13 14  1  0
 14 15  2  0
 15 16  1  0
 16 17  2  0
 17 18  1  0
 18 19  2  0
 19 20  1  0
 20 21  2  0
 21 22  1  0
 22 23  2  0
 22 24  1  0
 21 25  1  0
 20 26  1  0
 19 27  1  0
 17 28  1  0
 15 29  1  0
 13 30  1  0
 13 31  1  0
  9 32  1  0
  9 33  1  0
  8 34  1  0
  8 35  1  0
  5 36  1  0
  4 37  1  0
  2 38  1  6
  1 39  1  0
  1 40  1  0
  1 41  1  0
 10  2  1  0
 23 14  1  0
  7  3  2  0
 23 18  1  0
M  END
>  <cnnaffinities>  (3) 
[5.48389, 5.37549, 5.44274]

>  <score>  (3) 
5.48389

>  <index>  (3) 
4

>  <Smiles>  (3) 
C([C@]1(c2c(c(sc2C(C(N1C(=O)C(c1c(nc(c2c(c(c(c(c12)[H])[H])[H])[H])[H])[H])([H])[H])([H])[H])([H])[H])[H])[H])[H])([H])([H])[H]

>  <h>  (3) 
<NA>

>  <Training>  (3) 
True

>  <Success>  (3) 
True

>  <enamine_searched>  (3) 
False

>  <enamine_id>  (3) 
nan

$$$$

     RDKit          3D

 50 54  0  0  0  0  0  0  0  0999 V2000
    9.7193   -2.0262   21.9000 C   0  0  0  0  0  0  0  0  0  0  0  0
    8.6379   -1.0077   22.3313 C   0  0  1  0  0  0  0  0  0  0  0  0
    8.1970   -0.0951   21.1523 C   0  0  0  0  0  0  0  0  0  0  0  0
    6.8507   -0.5177   20.8351 N   0  0  0  0  0  0  0  0  0  0  0  0
    6.0949    0.0453   19.7732 C   0  0  0  0  0  0  0  0  0  0  0  0
    6.4402   -0.2243   18.4730 C   0  0  0  0  0  0  0  0  0  0  0  0
    5.7830    0.2473   17.3865 N   0  0  0  0  0  0  0  0  0  0  0  0
    4.7492    1.0258   17.5972 C   0  0  0  0  0  0  0  0  0  0  0  0
    4.2956    1.4145   18.8892 C   0  0  0  0  0  0  0  0  0  0  0  0
    3.1771    2.2742   19.0595 C   0  0  0  0  0  0  0  0  0  0  0  0
    2.7799    2.6566   20.3104 C   0  0  0  0  0  0  0  0  0  0  0  0
    3.4910    2.2039   21.4456 C   0  0  0  0  0  0  0  0  0  0  0  0
    4.5743    1.3722   21.3100 C   0  0  0  0  0  0  0  0  0  0  0  0
    4.9927    0.9314   20.0198 C   0  0  0  0  0  0  0  0  0  0  0  0
    5.1046    1.0219   22.1962 H   0  0  0  0  0  0  0  0  0  0  0  0
    3.1652    2.5078   22.4374 H   0  0  0  0  0  0  0  0  0  0  0  0
    1.9252    3.3185   20.4376 H   0  0  0  0  0  0  0  0  0  0  0  0
    2.6623    2.6307   18.1709 H   0  0  0  0  0  0  0  0  0  0  0  0
    4.2200    1.3856   16.7162 H   0  0  0  0  0  0  0  0  0  0  0  0
    7.2892   -0.8724   18.2579 H   0  0  0  0  0  0  0  0  0  0  0  0
    6.2978   -1.3854   21.7485 C   0  0  0  0  0  0  0  0  0  0  0  0
    5.1835   -1.8514   21.6573 O   0  0  0  0  0  0  0  0  0  0  0  0
    7.3226   -1.6242   22.8853 C   0  0  1  0  0  0  0  0  0  0  0  0
    7.4709   -3.1290   23.1792 C   0  0  0  0  0  0  0  0  0  0  0  0
    6.2877   -3.6751   23.7949 N   0  0  0  0  0  0  0  0  0  0  0  0
    5.7554   -4.9518   23.3714 C   0  0  0  0  0  0  0  0  0  0  0  0
    4.4381   -4.8292   22.7174 C   0  0  0  0  0  0  0  0  0  0  0  0
    3.3962   -4.7528   22.2214 N   0  0  0  0  0  0  0  0  0  0  0  0
    6.4564   -5.4120   22.6692 H   0  0  0  0  0  0  0  0  0  0  0  0
    5.6504   -5.6197   24.2314 H   0  0  0  0  0  0  0  0  0  0  0  0
    5.7101   -3.0759   24.8796 C   0  0  0  0  0  0  0  0  0  0  0  0
    4.9181   -3.6831   25.5844 O   0  0  0  0  0  0  0  0  0  0  0  0
    6.0779   -1.6372   25.0919 C   0  0  0  0  0  0  0  0  0  0  0  0
    5.5805   -0.9933   26.2215 C   0  0  0  0  0  0  0  0  0  0  0  0
    5.8031    0.3518   26.4283 C   0  0  0  0  0  0  0  0  0  0  0  0
    6.5221    1.0450   25.4659 C   0  0  0  0  0  0  0  0  0  0  0  0
    6.7242    2.3607   25.6491 F   0  0  0  0  0  0  0  0  0  0  0  0
    7.0316    0.4411   24.3354 C   0  0  0  0  0  0  0  0  0  0  0  0
    6.8351   -0.9347   24.1484 C   0  0  0  0  0  0  0  0  0  0  0  0
    7.5606    1.0671   23.6222 H   0  0  0  0  0  0  0  0  0  0  0  0
    5.4312    0.8844   27.2955 H   0  0  0  0  0  0  0  0  0  0  0  0
    5.0016   -1.5806   26.9206 H   0  0  0  0  0  0  0  0  0  0  0  0
    8.3550   -3.2838   23.8215 H   0  0  0  0  0  0  0  0  0  0  0  0
    7.6226   -3.6558   22.2394 H   0  0  0  0  0  0  0  0  0  0  0  0
    8.2149    0.9828   21.3936 H   0  0  0  0  0  0  0  0  0  0  0  0
    8.8530   -0.2330   20.2927 H   0  0  0  0  0  0  0  0  0  0  0  0
    9.1075   -0.4123   23.1237 H   0  0  0  0  0  0  0  0  0  0  0  0
   10.6440   -1.4999   21.6558 H   0  0  0  0  0  0  0  0  0  0  0  0
    9.3863   -2.6268   21.0382 H   0  0  0  0  0  0  0  0  0  0  0  0
    9.9892   -2.7145   22.7146 H   0  0  0  0  0  0  0  0  0  0  0  0
  1  2  1  0
  2  3  1  0
  3  4  1  0
  4  5  1  0
  5  6  2  0
  6  7  1  0
  7  8  2  0
  8  9  1  0
  9 10  2  0
 10 11  1  0
 11 12  2  0
 12 13  1  0
 13 14  2  0
 13 15  1  0
 12 16  1  0
 11 17  1  0
 10 18  1  0
  8 19  1  0
  6 20  1  0
  4 21  1  0
 21 22  2  0
 21 23  1  0
 23 24  1  1
 24 25  1  0
 25 26  1  0
 26 27  1  0
 27 28  3  0
 26 29  1  0
 26 30  1  0
 25 31  1  0
 31 32  2  0
 31 33  1  0
 33 34  2  0
 34 35  1  0
 35 36  2  0
 36 37  1  0
 36 38  1  0
 38 39  2  0
 38 40  1  0
 35 41  1  0
 34 42  1  0
 24 43  1  0
 24 44  1  0
  3 45  1  0
  3 46  1  0
  2 47  1  1
  1 48  1  0
  1 49  1  0
  1 50  1  0
 23  2  1  0
 39 33  1  0
 14  5  1  0
 39 23  1  0
 14  9  1  0
M  END
>  <cnnaffinities>  (4) 
[5.8318, 5.92964]

>  <score>  (4) 
5.8318

>  <index>  (4) 
5

>  <Smiles>  (4) 
C([C@]1(C(N(c2c(nc(c3c(c(c(c(c23)[H])[H])[H])[H])[H])[H])C(=O)[C@]21C(N(C(C#N)([H])[H])C(=O)c1c(c(c(F)c(c21)[H])[H])[H])([H])[H])([H])[H])[H])([H])([H])[H]

>  <h>  (4) 
<NA>

>  <Training>  (4) 
True

>  <Success>  (4) 
True

>  <enamine_searched>  (4) 
False

>  <enamine_id>  (4) 
nan

$$$$

     RDKit          3D

 65 69  0  0  0  0  0  0  0  0999 V2000
    7.9516   -6.1406   26.8855 C   0  0  0  0  0  0  0  0  0  0  0  0
    9.0984   -5.6388   26.0110 C   0  0  0  0  0  0  0  0  0  0  0  0
    8.5892   -4.7496   24.9244 C   0  0  0  0  0  0  0  0  0  0  0  0
    7.7371   -5.0379   24.1219 O   0  0  0  0  0  0  0  0  0  0  0  0
    9.3238   -3.5095   24.8001 N   0  0  1  0  0  4  0  0  0  0  0  0
   10.4676   -3.6477   23.7529 C   0  0  0  0  0  0  0  0  0  0  0  0
   11.0408   -2.2751   23.6157 C   0  0  0  0  0  0  0  0  0  0  0  0
    9.9706   -1.3161   23.1226 C   0  0  0  0  0  0  0  0  0  0  0  0
    8.6583   -1.3169   23.8605 C   0  0  0  0  0  0  0  0  0  0  0  0
    7.6793   -0.3140   23.7381 C   0  0  0  0  0  0  0  0  0  0  0  0
    7.8751    0.7726   22.8330 N   0  0  0  0  0  0  0  0  0  0  0  0
    8.2114    2.0741   23.4045 C   0  0  0  0  0  0  0  0  0  0  0  0
    7.0674    3.0590   23.3546 C   0  0  0  0  0  0  0  0  0  0  0  0
    6.2181    3.2371   24.4435 C   0  0  0  0  0  0  0  0  0  0  0  0
    5.1420    4.1136   24.3483 C   0  0  0  0  0  0  0  0  0  0  0  0
    4.9110    4.8169   23.1722 C   0  0  0  0  0  0  0  0  0  0  0  0
    5.7713    4.6328   22.0930 C   0  0  0  0  0  0  0  0  0  0  0  0
    5.4580    5.4792   20.6007 Cl  0  0  0  0  0  0  0  0  0  0  0  0
    6.8494    3.7687   22.1728 C   0  0  0  0  0  0  0  0  0  0  0  0
    7.5089    3.6188   21.3219 H   0  0  0  0  0  0  0  0  0  0  0  0
    4.0587    5.4798   23.0672 H   0  0  0  0  0  0  0  0  0  0  0  0
    4.4761    4.2386   25.1964 H   0  0  0  0  0  0  0  0  0  0  0  0
    6.4068    2.6929   25.3681 H   0  0  0  0  0  0  0  0  0  0  0  0
    8.5488    1.8976   24.4291 H   0  0  0  0  0  0  0  0  0  0  0  0
    9.0314    2.4846   22.8147 H   0  0  0  0  0  0  0  0  0  0  0  0
    7.7794    0.6861   21.4609 C   0  0  0  0  0  0  0  0  0  0  0  0
    8.3176    1.4954   20.7200 O   0  0  0  0  0  0  0  0  0  0  0  0
    6.9330   -0.4453   20.8868 C   0  0  0  0  0  0  0  0  0  0  0  0
    6.0933    0.0611   19.7525 C   0  0  0  0  0  0  0  0  0  0  0  0
    6.4293   -0.2124   18.4539 C   0  0  0  0  0  0  0  0  0  0  0  0
    5.7759    0.2509   17.3553 N   0  0  0  0  0  0  0  0  0  0  0  0
    4.7488    1.0368   17.5758 C   0  0  0  0  0  0  0  0  0  0  0  0
    4.2952    1.4221   18.8679 C   0  0  0  0  0  0  0  0  0  0  0  0
    3.1788    2.2763   19.0458 C   0  0  0  0  0  0  0  0  0  0  0  0
    2.7693    2.6380   20.2994 C   0  0  0  0  0  0  0  0  0  0  0  0
    3.4570    2.1478   21.4360 C   0  0  0  0  0  0  0  0  0  0  0  0
    4.5443    1.3216   21.2888 C   0  0  0  0  0  0  0  0  0  0  0  0
    4.9922    0.9340   19.9971 C   0  0  0  0  0  0  0  0  0  0  0  0
    5.0740    0.9721   22.1732 H   0  0  0  0  0  0  0  0  0  0  0  0
    3.1088    2.4174   22.4300 H   0  0  0  0  0  0  0  0  0  0  0  0
    1.9165    3.3001   20.4231 H   0  0  0  0  0  0  0  0  0  0  0  0
    2.6621    2.6388   18.1598 H   0  0  0  0  0  0  0  0  0  0  0  0
    4.2146    1.4112   16.7024 H   0  0  0  0  0  0  0  0  0  0  0  0
    7.2853   -0.8545   18.2502 H   0  0  0  0  0  0  0  0  0  0  0  0
    7.6207   -1.2248   20.5341 H   0  0  0  0  0  0  0  0  0  0  0  0
    6.3328   -0.8710   21.6942 H   0  0  0  0  0  0  0  0  0  0  0  0
    6.5530   -0.3087   24.5510 C   0  0  0  0  0  0  0  0  0  0  0  0
    6.3246   -1.3435   25.4528 C   0  0  0  0  0  0  0  0  0  0  0  0
    7.2400   -2.3801   25.5260 C   0  0  0  0  0  0  0  0  0  0  0  0
    8.3781   -2.3546   24.7150 C   0  0  0  0  0  0  0  0  0  0  0  0
    7.0773   -3.2117   26.2047 H   0  0  0  0  0  0  0  0  0  0  0  0
    5.4239   -1.3602   26.0598 H   0  0  0  0  0  0  0  0  0  0  0  0
    5.8470    0.5079   24.4430 H   0  0  0  0  0  0  0  0  0  0  0  0
    9.7883   -1.5028   22.0604 H   0  0  0  0  0  0  0  0  0  0  0  0
   10.3938   -0.3369   23.2205 H   0  0  0  0  0  0  0  0  0  0  0  0
   11.8842   -2.2783   22.9163 H   0  0  0  0  0  0  0  0  0  0  0  0
   11.4265   -1.9484   24.5902 H   0  0  0  0  0  0  0  0  0  0  0  0
   11.2065   -4.3770   24.1047 H   0  0  0  0  0  0  0  0  0  0  0  0
   10.0398   -4.0291   22.8241 H   0  0  0  0  0  0  0  0  0  0  0  0
    9.8642   -3.3638   25.6916 H   0  0  0  0  0  0  0  0  0  0  0  0
    9.6278   -6.3898   25.4365 H   0  0  0  0  0  0  0  0  0  0  0  0
    9.8830   -5.1135   26.5808 H   0  0  0  0  0  0  0  0  0  0  0  0
    7.5928   -5.2973   27.4916 H   0  0  0  0  0  0  0  0  0  0  0  0
    7.1281   -6.4867   26.2494 H   0  0  0  0  0  0  0  0  0  0  0  0
    8.2728   -6.9455   27.5538 H   0  0  0  0  0  0  0  0  0  0  0  0
  1  2  1  0
  2  3  1  0
  3  4  2  0
  3  5  1  0
  5  6  1  0
  6  7  1  0
  7  8  1  0
  8  9  1  0
  9 10  2  0
 10 11  1  0
 11 12  1  0
 12 13  1  0
 13 14  2  0
 14 15  1  0
 15 16  2  0
 16 17  1  0
 17 18  1  0
 17 19  2  0
 19 20  1  0
 16 21  1  0
 15 22  1  0
 14 23  1  0
 12 24  1  0
 12 25  1  0
 11 26  1  0
 26 27  2  0
 26 28  1  0
 28 29  1  0
 29 30  2  0
 30 31  1  0
 31 32  2  0
 32 33  1  0
 33 34  2  0
 34 35  1  0
 35 36  2  0
 36 37  1  0
 37 38  2  0
 37 39  1  0
 36 40  1  0
 35 41  1  0
 34 42  1  0
 32 43  1  0
 30 44  1  0
 28 45  1  0
 28 46  1  0
 10 47  1  0
 47 48  2  0
 48 49  1  0
 49 50  2  0
 49 51  1  0
 48 52  1  0
 47 53  1  0
  8 54  1  0
  8 55  1  0
  7 56  1  0
  7 57  1  0
  6 58  1  0
  6 59  1  0
  5 60  1  1
  2 61  1  0
  2 62  1  0
  1 63  1  0
  1 64  1  0
  1 65  1  0
 50  5  1  0
 50  9  1  0
 19 13  1  0
 38 29  1  0
 38 33  1  0
M  CHG  1   5   1
M  END
>  <cnnaffinities>  (5) 
[6.67416]

>  <score>  (5) 
6.67416

>  <index>  (5) 
6

>  <Smiles>  (5) 
C(C(C(=O)[N@+]1(C(C(C(c2c(N(C(c3c(c(c(c(Cl)c3[H])[H])[H])[H])([H])[H])C(=O)C(c3c(nc(c4c(c(c(c(c34)[H])[H])[H])[H])[H])[H])([H])[H])c(c(c(c12)[H])[H])[H])([H])[H])([H])[H])([H])[H])[H])([H])[H])([H])([H])[H]

>  <h>  (5) 
<NA>

>  <Training>  (5) 
True

>  <Success>  (5) 
True

>  <enamine_searched>  (5) 
False

>  <enamine_id>  (5) 
nan

$$$$

     RDKit          3D

 37 39  0  0  0  0  0  0  0  0999 V2000
    5.0834   -2.0911   21.2078 O   0  0  0  0  0  0  0  0  0  0  0  0
    6.2340   -1.7823   21.4850 C   0  0  0  0  0  0  0  0  0  0  0  0
    6.8989   -0.5371   20.9007 C   0  0  0  0  0  0  0  0  0  0  0  0
    6.1148    0.0570   19.7715 C   0  0  0  0  0  0  0  0  0  0  0  0
    6.4400   -0.2317   18.4724 C   0  0  0  0  0  0  0  0  0  0  0  0
    5.7848    0.2264   17.3727 N   0  0  0  0  0  0  0  0  0  0  0  0
    4.7582    1.0142   17.5855 C   0  0  0  0  0  0  0  0  0  0  0  0
    4.2998    1.3889   18.8769 C   0  0  0  0  0  0  0  0  0  0  0  0
    3.1826    2.2470   19.0465 C   0  0  0  0  0  0  0  0  0  0  0  0
    2.7664    2.6063   20.2991 C   0  0  0  0  0  0  0  0  0  0  0  0
    3.4503    2.1198   21.4379 C   0  0  0  0  0  0  0  0  0  0  0  0
    4.5302    1.2813   21.2996 C   0  0  0  0  0  0  0  0  0  0  0  0
    4.9875    0.8991   20.0069 C   0  0  0  0  0  0  0  0  0  0  0  0
    5.0378    0.9056   22.1828 H   0  0  0  0  0  0  0  0  0  0  0  0
    3.1148    2.4160   22.4296 H   0  0  0  0  0  0  0  0  0  0  0  0
    1.9119    3.2665   20.4279 H   0  0  0  0  0  0  0  0  0  0  0  0
    2.6783    2.6178   18.1578 H   0  0  0  0  0  0  0  0  0  0  0  0
    4.2252    1.3956   16.7143 H   0  0  0  0  0  0  0  0  0  0  0  0
    7.2911   -0.8782   18.2540 H   0  0  0  0  0  0  0  0  0  0  0  0
    7.8961   -0.8326   20.5495 H   0  0  0  0  0  0  0  0  0  0  0  0
    7.0487    0.1905   21.7109 H   0  0  0  0  0  0  0  0  0  0  0  0
    7.0066   -2.5399   22.3126 N   0  0  0  0  0  0  0  0  0  0  0  0
    6.4818   -3.8442   22.6837 C   0  0  0  0  0  0  0  0  0  0  0  0
    7.6005   -4.8674   22.6844 C   0  0  0  0  0  0  0  0  0  0  0  0
    8.7432   -4.4322   23.6347 C   0  0  0  0  0  0  0  0  0  0  0  0
    8.6480   -2.9663   24.0839 C   0  0  0  0  0  0  0  0  0  0  0  0
    8.2983   -2.1202   22.8690 C   0  0  0  0  0  0  0  0  0  0  0  0
    9.1155   -2.2631   22.1483 H   0  0  0  0  0  0  0  0  0  0  0  0
    8.2585   -1.0587   23.1281 H   0  0  0  0  0  0  0  0  0  0  0  0
    7.9141   -2.8142   24.8780 H   0  0  0  0  0  0  0  0  0  0  0  0
    9.6133   -2.6457   24.5011 H   0  0  0  0  0  0  0  0  0  0  0  0
    9.6835   -4.4901   23.0954 H   0  0  0  0  0  0  0  0  0  0  0  0
    8.8332   -5.1122   24.4867 H   0  0  0  0  0  0  0  0  0  0  0  0
    7.9753   -4.9599   21.6564 H   0  0  0  0  0  0  0  0  0  0  0  0
    7.2000   -5.8512   22.9557 H   0  0  0  0  0  0  0  0  0  0  0  0
    6.0052   -3.7873   23.6699 H   0  0  0  0  0  0  0  0  0  0  0  0
    5.7038   -4.0892   21.9620 H   0  0  0  0  0  0  0  0  0  0  0  0
  1  2  2  0
  2  3  1  0
  3  4  1  0
  4  5  2  0
  5  6  1  0
  6  7  2  0
  7  8  1  0
  8  9  2  0
  9 10  1  0
 10 11  2  0
 11 12  1  0
 12 13  2  0
 12 14  1  0
 11 15  1  0
 10 16  1  0
  9 17  1  0
  7 18  1  0
  5 19  1  0
  3 20  1  0
  3 21  1  0
  2 22  1  0
 22 23  1  0
 23 24  1  0
 24 25  1  0
 25 26  1  0
 26 27  1  0
 27 28  1  0
 27 29  1  0
 26 30  1  0
 26 31  1  0
 25 32  1  0
 25 33  1  0
 24 34  1  0
 24 35  1  0
 23 36  1  0
 23 37  1  0
 13  4  1  0
 27 22  1  0
 13  8  1  0
M  END
>  <cnnaffinities>  (6) 
[4.61779, 4.61787, 4.61397, 4.96255, 4.28382, 4.27789, 4.90531, 4.98484, 4.98481]

>  <score>  (6) 
4.61779

>  <index>  (6) 
7

>  <Smiles>  (6) 
O=C(C(c1c(nc(c2c(c(c(c(c12)[H])[H])[H])[H])[H])[H])([H])[H])N1C(C(C(C(C1([H])[H])([H])[H])([H])[H])([H])[H])([H])[H]

>  <h>  (6) 
<NA>

>  <Training>  (6) 
True

>  <Success>  (6) 
True

>  <enamine_searched>  (6) 
False

>  <enamine_id>  (6) 
nan

$$$$

     RDKit          3D

 66 71  0  0  0  0  0  0  0  0999 V2000
    9.6631   -2.0448   21.9122 C   0  0  0  0  0  0  0  0  0  0  0  0
    8.5931   -1.0281   22.3334 C   0  0  1  0  0  0  0  0  0  0  0  0
    8.1744   -0.1229   21.1570 C   0  0  0  0  0  0  0  0  0  0  0  0
    6.8469   -0.5707   20.7997 N   0  0  0  0  0  0  0  0  0  0  0  0
    6.0976    0.0286   19.7603 C   0  0  0  0  0  0  0  0  0  0  0  0
    6.4536   -0.2213   18.4606 C   0  0  0  0  0  0  0  0  0  0  0  0
    5.7984    0.2511   17.3727 N   0  0  0  0  0  0  0  0  0  0  0  0
    4.7625    1.0238   17.6001 C   0  0  0  0  0  0  0  0  0  0  0  0
    4.3072    1.3928   18.8980 C   0  0  0  0  0  0  0  0  0  0  0  0
    3.1913    2.2535   19.0610 C   0  0  0  0  0  0  0  0  0  0  0  0
    2.7942    2.6401   20.3085 C   0  0  0  0  0  0  0  0  0  0  0  0
    3.4979    2.1893   21.4487 C   0  0  0  0  0  0  0  0  0  0  0  0
    4.5755    1.3468   21.3248 C   0  0  0  0  0  0  0  0  0  0  0  0
    4.9977    0.9077   20.0309 C   0  0  0  0  0  0  0  0  0  0  0  0
    5.1042    1.0212   22.2224 H   0  0  0  0  0  0  0  0  0  0  0  0
    3.1767    2.5213   22.4314 H   0  0  0  0  0  0  0  0  0  0  0  0
    1.9470    3.3090   20.4288 H   0  0  0  0  0  0  0  0  0  0  0  0
    2.6804    2.6064   18.1684 H   0  0  0  0  0  0  0  0  0  0  0  0
    4.2254    1.4075   16.7330 H   0  0  0  0  0  0  0  0  0  0  0  0
    7.3093   -0.8678   18.2723 H   0  0  0  0  0  0  0  0  0  0  0  0
    6.2779   -1.4449   21.6960 C   0  0  0  0  0  0  0  0  0  0  0  0
    5.1870   -1.9580   21.5604 O   0  0  0  0  0  0  0  0  0  0  0  0
    7.2602   -1.6364   22.8665 C   0  0  1  0  0  0  0  0  0  0  0  0
    7.4039   -3.1360   23.1828 C   0  0  0  0  0  0  0  0  0  0  0  0
    6.2108   -3.6835   23.8175 N   0  0  0  0  0  0  0  0  0  0  0  0
    5.9584   -5.1097   23.6335 C   0  0  0  0  0  0  0  0  0  0  0  0
    6.9606   -5.9440   24.4467 C   0  0  0  0  0  0  0  0  0  0  0  0
    7.8860   -6.5221   23.9045 O   0  0  0  0  0  0  0  0  0  0  0  0
    6.7524   -5.9317   25.7980 N   0  0  0  0  0  0  0  0  0  0  0  0
    7.8487   -6.1453   26.7373 C   0  0  0  0  0  0  0  0  0  0  0  0
    9.0390   -5.2865   26.4686 C   0  0  0  0  0  0  0  0  0  0  0  0
   10.1692   -5.4338   25.6818 C   0  0  0  0  0  0  0  0  0  0  0  0
   10.8097   -4.1841   25.7458 C   0  0  0  0  0  0  0  0  0  0  0  0
   10.1396   -3.3458   26.5203 N   0  0  0  0  0  0  0  0  0  0  0  0
    9.0782   -4.0283   26.9526 N   0  0  0  0  0  0  0  0  0  0  0  0
    8.0719   -3.4178   27.7945 C   0  0  0  0  0  0  0  0  0  0  0  0
    8.2029   -2.3389   27.7303 H   0  0  0  0  0  0  0  0  0  0  0  0
    7.0843   -3.6871   27.4041 H   0  0  0  0  0  0  0  0  0  0  0  0
    8.1511   -3.7513   28.8378 H   0  0  0  0  0  0  0  0  0  0  0  0
   11.7112   -3.8305   25.2594 H   0  0  0  0  0  0  0  0  0  0  0  0
   10.4715   -6.2922   25.1097 H   0  0  0  0  0  0  0  0  0  0  0  0
    8.1859   -7.1693   26.7375 H   0  0  0  0  0  0  0  0  0  0  0  0
    7.4307   -5.9636   27.7350 H   0  0  0  0  0  0  0  0  0  0  0  0
    6.0054   -5.3291   26.1247 H   0  0  0  0  0  0  0  0  0  0  0  0
    4.9307   -5.3180   23.9358 H   0  0  0  0  0  0  0  0  0  0  0  0
    6.0628   -5.3428   22.5672 H   0  0  0  0  0  0  0  0  0  0  0  0
    5.6694   -3.0596   24.9036 C   0  0  0  0  0  0  0  0  0  0  0  0
    4.9856   -3.6659   25.7323 O   0  0  0  0  0  0  0  0  0  0  0  0
    5.9659   -1.5981   25.0585 C   0  0  0  0  0  0  0  0  0  0  0  0
    5.4674   -0.9432   26.1883 C   0  0  0  0  0  0  0  0  0  0  0  0
    5.7428    0.3938   26.4018 C   0  0  0  0  0  0  0  0  0  0  0  0
    6.5102    1.0875   25.4681 C   0  0  0  0  0  0  0  0  0  0  0  0
    6.9894    0.4447   24.3380 C   0  0  0  0  0  0  0  0  0  0  0  0
    6.7425   -0.9176   24.1136 C   0  0  0  0  0  0  0  0  0  0  0  0
    7.5991    1.0236   23.6490 H   0  0  0  0  0  0  0  0  0  0  0  0
    6.7580    2.1297   25.6380 H   0  0  0  0  0  0  0  0  0  0  0  0
    5.3746    0.8939   27.2923 H   0  0  0  0  0  0  0  0  0  0  0  0
    4.8634   -1.5109   26.8874 H   0  0  0  0  0  0  0  0  0  0  0  0
    8.2806   -3.2608   23.8282 H   0  0  0  0  0  0  0  0  0  0  0  0
    7.5922   -3.6949   22.2652 H   0  0  0  0  0  0  0  0  0  0  0  0
    8.1660    0.9412   21.4397 H   0  0  0  0  0  0  0  0  0  0  0  0
    8.8538   -0.2324   20.3098 H   0  0  0  0  0  0  0  0  0  0  0  0
    9.0379   -0.4340   23.1386 H   0  0  0  0  0  0  0  0  0  0  0  0
   10.6266   -1.5538   21.7666 H   0  0  0  0  0  0  0  0  0  0  0  0
    9.3783   -2.5674   20.9896 H   0  0  0  0  0  0  0  0  0  0  0  0
    9.8309   -2.7806   22.7000 H   0  0  0  0  0  0  0  0  0  0  0  0
  1  2  1  0
  2  3  1  0
  3  4  1  0
  4  5  1  0
  5  6  2  0
  6  7  1  0
  7  8  2  0
  8  9  1  0
  9 10  2  0
 10 11  1  0
 11 12  2  0
 12 13  1  0
 13 14  2  0
 13 15  1  0
 12 16  1  0
 11 17  1  0
 10 18  1  0
  8 19  1  0
  6 20  1  0
  4 21  1  0
 21 22  2  0
 21 23  1  0
 23 24  1  1
 24 25  1  0
 25 26  1  0
 26 27  1  0
 27 28  2  0
 27 29  1  0
 29 30  1  0
 30 31  1  0
 31 32  2  0
 32 33  1  0
 33 34  2  0
 34 35  1  0
 35 36  1  0
 36 37  1  0
 36 38  1  0
 36 39  1  0
 33 40  1  0
 32 41  1  0
 30 42  1  0
 30 43  1  0
 29 44  1  0
 26 45  1  0
 26 46  1  0
 25 47  1  0
 47 48  2  0
 47 49  1  0
 49 50  2  0
 50 51  1  0
 51 52  2  0
 52 53  1  0
 53 54  2  0
 53 55  1  0
 52 56  1  0
 51 57  1  0
 50 58  1  0
 24 59  1  0
 24 60  1  0
  3 61  1  0
  3 62  1  0
  2 63  1  1
  1 64  1  0
  1 65  1  0
  1 66  1  0
 23  2  1  0
 35 31  1  0
 54 49  1  0
 14  5  1  0
 54 23  1  0
 14  9  1  0
M  END
>  <cnnaffinities>  (7) 
[6.778, 6.40935]

>  <score>  (7) 
6.778

>  <index>  (7) 
8

>  <Smiles>  (7) 
C([C@]1(C(N(c2c(nc(c3c(c(c(c(c23)[H])[H])[H])[H])[H])[H])C(=O)[C@]21C(N(C(C(=O)N(C(c1c(c(nn1C([H])([H])[H])[H])[H])([H])[H])[H])([H])[H])C(=O)c1c(c(c(c(c21)[H])[H])[H])[H])([H])[H])([H])[H])[H])([H])([H])[H]

>  <h>  (7) 
<NA>

>  <Training>  (7) 
True

>  <Success>  (7) 
True

>  <enamine_searched>  (7) 
False

>  <enamine_id>  (7) 
nan

$$$$

     RDKit          3D

 54 57  0  0  0  0  0  0  0  0999 V2000
    1.9582   -5.0113   24.3404 C   0  0  0  0  0  0  0  0  0  0  0  0
    3.1332   -4.2601   24.1041 O   0  0  0  0  0  0  0  0  0  0  0  0
    3.1538   -2.9110   24.3432 C   0  0  0  0  0  0  0  0  0  0  0  0
    2.0484   -2.2017   24.8186 C   0  0  0  0  0  0  0  0  0  0  0  0
    2.1543   -0.8332   25.0652 C   0  0  0  0  0  0  0  0  0  0  0  0
    3.3407   -0.1599   24.8111 C   0  0  0  0  0  0  0  0  0  0  0  0
    4.4231   -0.8756   24.3096 C   0  0  0  0  0  0  0  0  0  0  0  0
    4.3714   -2.2429   24.0684 C   0  0  0  0  0  0  0  0  0  0  0  0
    5.5917   -3.0247   23.5531 C   0  0  2  0  0  0  0  0  0  0  0  0
    6.2438   -3.8923   24.6494 C   0  0  0  0  0  0  0  0  0  0  0  0
    7.3829   -3.2531   25.4448 C   0  0  2  0  0  0  0  0  0  0  0  0
    6.9242   -2.2272   26.4808 C   0  0  0  0  0  0  0  0  0  0  0  0
    7.7676   -1.8734   27.0853 H   0  0  0  0  0  0  0  0  0  0  0  0
    6.1835   -2.6598   27.1618 H   0  0  0  0  0  0  0  0  0  0  0  0
    6.4582   -1.3526   26.0212 H   0  0  0  0  0  0  0  0  0  0  0  0
    8.3889   -2.6922   24.4484 C   0  0  0  0  0  0  0  0  0  0  0  0
    7.7747   -1.6858   23.4845 C   0  0  0  0  0  0  0  0  0  0  0  0
    6.5765   -2.1980   22.8230 N   0  0  0  0  0  0  0  0  0  0  0  0
    6.1810   -1.7506   21.5707 C   0  0  0  0  0  0  0  0  0  0  0  0
    5.2718   -2.2980   20.9730 O   0  0  0  0  0  0  0  0  0  0  0  0
    6.9003   -0.5287   20.9185 C   0  0  0  0  0  0  0  0  0  0  0  0
    6.1107    0.0765   19.7742 C   0  0  0  0  0  0  0  0  0  0  0  0
    6.4212   -0.2158   18.4712 C   0  0  0  0  0  0  0  0  0  0  0  0
    5.7622    0.2415   17.3689 N   0  0  0  0  0  0  0  0  0  0  0  0
    4.7374    1.0316   17.5783 C   0  0  0  0  0  0  0  0  0  0  0  0
    4.2855    1.4181   18.8685 C   0  0  0  0  0  0  0  0  0  0  0  0
    3.1606    2.2630   19.0470 C   0  0  0  0  0  0  0  0  0  0  0  0
    2.7429    2.6184   20.3005 C   0  0  0  0  0  0  0  0  0  0  0  0
    3.4433    2.1380   21.4296 C   0  0  0  0  0  0  0  0  0  0  0  0
    4.5366    1.3201   21.2901 C   0  0  0  0  0  0  0  0  0  0  0  0
    4.9918    0.9340   20.0022 C   0  0  0  0  0  0  0  0  0  0  0  0
    5.0556    0.9577   22.1742 H   0  0  0  0  0  0  0  0  0  0  0  0
    3.1031    2.4253   22.4206 H   0  0  0  0  0  0  0  0  0  0  0  0
    1.8806    3.2686   20.4363 H   0  0  0  0  0  0  0  0  0  0  0  0
    2.6423    2.6334   18.1639 H   0  0  0  0  0  0  0  0  0  0  0  0
    4.2014    1.3995   16.6985 H   0  0  0  0  0  0  0  0  0  0  0  0
    7.2626   -0.8697   18.2446 H   0  0  0  0  0  0  0  0  0  0  0  0
    7.1423    0.2429   21.6648 H   0  0  0  0  0  0  0  0  0  0  0  0
    7.8639   -0.8793   20.5181 H   0  0  0  0  0  0  0  0  0  0  0  0
    8.5142   -1.4503   22.7141 H   0  0  0  0  0  0  0  0  0  0  0  0
    7.5822   -0.7420   24.0179 H   0  0  0  0  0  0  0  0  0  0  0  0
    8.8222   -3.5156   23.8733 H   0  0  0  0  0  0  0  0  0  0  0  0
    9.2187   -2.2165   24.9798 H   0  0  0  0  0  0  0  0  0  0  0  0
    7.8777   -4.0608   26.0065 H   0  0  0  0  0  0  0  0  0  0  0  0
    6.6307   -4.8026   24.1752 H   0  0  0  0  0  0  0  0  0  0  0  0
    5.4635   -4.2271   25.3365 H   0  0  0  0  0  0  0  0  0  0  0  0
    5.1889   -3.7191   22.8129 H   0  0  0  0  0  0  0  0  0  0  0  0
    5.3497   -0.3456   24.1236 H   0  0  0  0  0  0  0  0  0  0  0  0
    3.4125    0.9199   24.9349 H   0  0  0  0  0  0  0  0  0  0  0  0
    1.2790   -0.2755   25.3814 H   0  0  0  0  0  0  0  0  0  0  0  0
    1.0973   -2.6993   24.9985 H   0  0  0  0  0  0  0  0  0  0  0  0
    1.6328   -5.0008   25.3878 H   0  0  0  0  0  0  0  0  0  0  0  0
    2.2096   -6.0389   24.0854 H   0  0  0  0  0  0  0  0  0  0  0  0
    1.1116   -4.7119   23.7108 H   0  0  0  0  0  0  0  0  0  0  0  0
  1  2  1  0
  2  3  1  0
  3  4  2  0
  4  5  1  0
  5  6  2  0
  6  7  1  0
  7  8  2  0
  8  9  1  0
  9 10  1  0
 10 11  1  0
 11 12  1  0
 12 13  1  0
 12 14  1  0
 12 15  1  0
 11 16  1  0
 16 17  1  0
 17 18  1  0
 18 19  1  0
 19 20  2  0
 19 21  1  0
 21 22  1  0
 22 23  2  0
 23 24  1  0
 24 25  2  0
 25 26  1  0
 26 27  2  0
 27 28  1  0
 28 29  2  0
 29 30  1  0
 30 31  2  0
 30 32  1  0
 29 33  1  0
 28 34  1  0
 27 35  1  0
 25 36  1  0
 23 37  1  0
 21 38  1  0
 21 39  1  0
 17 40  1  0
 17 41  1  0
 16 42  1  0
 16 43  1  0
 11 44  1  1
 10 45  1  0
 10 46  1  0
  9 47  1  6
  7 48  1  0
  6 49  1  0
  5 50  1  0
  4 51  1  0
  1 52  1  0
  1 53  1  0
  1 54  1  0
  8  3  1  0
 18  9  1  0
 31 22  1  0
 31 26  1  0
M  END
>  <cnnaffinities>  (8) 
[5.61299]

>  <score>  (8) 
5.61299

>  <index>  (8) 
11

>  <Smiles>  (8) 
C(Oc1c(c(c(c(c1[C@@]1(C([C@](C([H])([H])[H])(C(C(N1C(=O)C(c1c(nc(c2c(c(c(c(c12)[H])[H])[H])[H])[H])[H])([H])[H])([H])[H])([H])[H])[H])([H])[H])[H])[H])[H])[H])[H])([H])([H])[H]

>  <h>  (8) 
<NA>

>  <Training>  (8) 
True

>  <Success>  (8) 
True

>  <enamine_searched>  (8) 
False

>  <enamine_id>  (8) 
nan

$$$$

     RDKit          3D

 47 50  0  0  0  0  0  0  0  0999 V2000
    5.4688   -2.5031   20.8604 O   0  0  0  0  0  0  0  0  0  0  0  0
    6.0762   -1.6919   21.5413 C   0  0  0  0  0  0  0  0  0  0  0  0
    6.8683   -0.5474   20.9024 C   0  0  0  0  0  0  0  0  0  0  0  0
    6.1082    0.0717   19.7716 C   0  0  0  0  0  0  0  0  0  0  0  0
    6.4325   -0.2372   18.4771 C   0  0  0  0  0  0  0  0  0  0  0  0
    5.7844    0.2244   17.3748 N   0  0  0  0  0  0  0  0  0  0  0  0
    4.7641    1.0170   17.5891 C   0  0  0  0  0  0  0  0  0  0  0  0
    4.2976    1.4046   18.8774 C   0  0  0  0  0  0  0  0  0  0  0  0
    3.1761    2.2549   19.0440 C   0  0  0  0  0  0  0  0  0  0  0  0
    2.7545    2.6201   20.2906 C   0  0  0  0  0  0  0  0  0  0  0  0
    3.4413    2.1491   21.4327 C   0  0  0  0  0  0  0  0  0  0  0  0
    4.5301    1.3196   21.2985 C   0  0  0  0  0  0  0  0  0  0  0  0
    4.9895    0.9229   20.0128 C   0  0  0  0  0  0  0  0  0  0  0  0
    5.0357    0.9780   22.1959 H   0  0  0  0  0  0  0  0  0  0  0  0
    3.1004    2.4472   22.4165 H   0  0  0  0  0  0  0  0  0  0  0  0
    1.8984    3.2756   20.4141 H   0  0  0  0  0  0  0  0  0  0  0  0
    2.6673    2.6194   18.1547 H   0  0  0  0  0  0  0  0  0  0  0  0
    4.2409    1.3944   16.7104 H   0  0  0  0  0  0  0  0  0  0  0  0
    7.2773   -0.8994   18.2875 H   0  0  0  0  0  0  0  0  0  0  0  0
    7.1378    0.2063   21.6439 H   0  0  0  0  0  0  0  0  0  0  0  0
    7.8096   -0.9706   20.5281 H   0  0  0  0  0  0  0  0  0  0  0  0
    6.0933   -1.7637   22.8953 N   0  0  0  0  0  0  0  0  0  0  0  0
    5.4357   -2.8839   23.5541 C   0  0  0  0  0  0  0  0  0  0  0  0
    5.9594   -2.8083   24.9916 C   0  0  2  0  0  0  0  0  0  0  0  0
    5.0661   -3.4465   26.0334 C   0  0  0  0  0  0  0  0  0  0  0  0
    4.9633   -4.8108   25.8047 F   0  0  0  0  0  0  0  0  0  0  0  0
    4.0543   -3.0189   25.9983 H   0  0  0  0  0  0  0  0  0  0  0  0
    5.4750   -3.2893   27.0431 H   0  0  0  0  0  0  0  0  0  0  0  0
    6.2451   -1.3148   25.2343 C   0  0  0  0  0  0  0  0  0  0  0  0
    5.0245   -0.5098   25.7292 C   0  0  0  0  0  0  0  0  0  0  0  0
    5.5993    0.8084   26.2586 C   0  0  0  0  0  0  0  0  0  0  0  0
    7.0219    0.4638   26.7486 C   0  0  0  0  0  0  0  0  0  0  0  0
    7.2856   -0.9923   26.3130 C   0  0  0  0  0  0  0  0  0  0  0  0
    7.1577   -1.6716   27.1645 H   0  0  0  0  0  0  0  0  0  0  0  0
    8.2995   -1.1214   25.9183 H   0  0  0  0  0  0  0  0  0  0  0  0
    7.7642    1.1237   26.2902 H   0  0  0  0  0  0  0  0  0  0  0  0
    7.1342    0.5615   27.8324 H   0  0  0  0  0  0  0  0  0  0  0  0
    5.6541    1.5578   25.4606 H   0  0  0  0  0  0  0  0  0  0  0  0
    4.9716    1.2173   27.0577 H   0  0  0  0  0  0  0  0  0  0  0  0
    4.2932   -0.3470   24.9307 H   0  0  0  0  0  0  0  0  0  0  0  0
    4.5515   -1.0303   26.5774 H   0  0  0  0  0  0  0  0  0  0  0  0
    6.7539   -0.8719   23.8425 C   0  0  0  0  0  0  0  0  0  0  0  0
    7.8465   -0.9976   23.7867 H   0  0  0  0  0  0  0  0  0  0  0  0
    6.5309    0.1828   23.6411 H   0  0  0  0  0  0  0  0  0  0  0  0
    6.9300   -3.3224   25.0136 H   0  0  0  0  0  0  0  0  0  0  0  0
    4.3456   -2.7766   23.4814 H   0  0  0  0  0  0  0  0  0  0  0  0
    5.7023   -3.8197   23.0577 H   0  0  0  0  0  0  0  0  0  0  0  0
  1  2  2  0
  2  3  1  0
  3  4  1  0
  4  5  2  0
  5  6  1  0
  6  7  2  0
  7  8  1  0
  8  9  2  0
  9 10  1  0
 10 11  2  0
 11 12  1  0
 12 13  2  0
 12 14  1  0
 11 15  1  0
 10 16  1  0
  9 17  1  0
  7 18  1  0
  5 19  1  0
  3 20  1  0
  3 21  1  0
  2 22  1  0
 22 23  1  0
 23 24  1  0
 24 25  1  0
 25 26  1  0
 25 27  1  0
 25 28  1  0
 24 29  1  0
 29 30  1  0
 30 31  1  0
 31 32  1  0
 32 33  1  0
 33 34  1  0
 33 35  1  0
 32 36  1  0
 32 37  1  0
 31 38  1  0
 31 39  1  0
 30 40  1  0
 30 41  1  0
 29 42  1  0
 42 43  1  0
 42 44  1  0
 24 45  1  6
 23 46  1  0
 23 47  1  0
 13  4  1  0
 42 22  1  0
 13  8  1  0
 33 29  1  0
M  END
>  <cnnaffinities>  (9) 
[5.27101, 5.4679, 5.27239, 5.4021, 5.4092]

>  <score>  (9) 
5.27101

>  <index>  (9) 
12

>  <Smiles>  (9) 
O=C(C(c1c(nc(c2c(c(c(c(c12)[H])[H])[H])[H])[H])[H])([H])[H])N1C([C@](C(F)([H])[H])(C2(C(C(C(C2([H])[H])([H])[H])([H])[H])([H])[H])C1([H])[H])[H])([H])[H]

>  <h>  (9) 
<NA>

>  <Training>  (9) 
True

>  <Success>  (9) 
True

>  <enamine_searched>  (9) 
False

>  <enamine_id>  (9) 
nan

$$$$

     RDKit          3D

 67 73  0  0  0  0  0  0  0  0999 V2000
    9.6479   -2.0005   21.9671 C   0  0  0  0  0  0  0  0  0  0  0  0
    8.5791   -0.9723   22.3686 C   0  0  1  0  0  0  0  0  0  0  0  0
    8.1497   -0.0841   21.1811 C   0  0  0  0  0  0  0  0  0  0  0  0
    6.8453   -0.5850   20.7997 N   0  0  0  0  0  0  0  0  0  0  0  0
    6.0886    0.0084   19.7611 C   0  0  0  0  0  0  0  0  0  0  0  0
    6.4545   -0.2283   18.4611 C   0  0  0  0  0  0  0  0  0  0  0  0
    5.8068    0.2547   17.3738 N   0  0  0  0  0  0  0  0  0  0  0  0
    4.7711    1.0274   17.6014 C   0  0  0  0  0  0  0  0  0  0  0  0
    4.3079    1.3854   18.8990 C   0  0  0  0  0  0  0  0  0  0  0  0
    3.1936    2.2481   19.0575 C   0  0  0  0  0  0  0  0  0  0  0  0
    2.7952    2.6390   20.3026 C   0  0  0  0  0  0  0  0  0  0  0  0
    3.4955    2.1851   21.4442 C   0  0  0  0  0  0  0  0  0  0  0  0
    4.5675    1.3325   21.3249 C   0  0  0  0  0  0  0  0  0  0  0  0
    4.9913    0.8930   20.0325 C   0  0  0  0  0  0  0  0  0  0  0  0
    5.0906    1.0028   22.2239 H   0  0  0  0  0  0  0  0  0  0  0  0
    3.1739    2.5200   22.4249 H   0  0  0  0  0  0  0  0  0  0  0  0
    1.9525    3.3136   20.4205 H   0  0  0  0  0  0  0  0  0  0  0  0
    2.6907    2.6041   18.1616 H   0  0  0  0  0  0  0  0  0  0  0  0
    4.2392    1.4167   16.7339 H   0  0  0  0  0  0  0  0  0  0  0  0
    7.3162   -0.8663   18.2716 H   0  0  0  0  0  0  0  0  0  0  0  0
    6.2985   -1.4746   21.6944 C   0  0  0  0  0  0  0  0  0  0  0  0
    5.2453   -2.0581   21.5313 O   0  0  0  0  0  0  0  0  0  0  0  0
    7.2510   -1.5728   22.9063 C   0  0  1  0  0  0  0  0  0  0  0  0
    7.4094   -3.0474   23.3273 C   0  0  0  0  0  0  0  0  0  0  0  0
    6.2087   -3.6020   23.9359 N   0  0  0  0  0  0  0  0  0  0  0  0
    5.7818   -4.9112   23.4589 C   0  0  0  0  0  0  0  0  0  0  0  0
    6.8401   -5.9997   23.6611 C   0  0  0  0  0  0  0  0  0  0  0  0
    6.9854   -6.4755   25.0668 N   0  0  2  0  0  4  0  0  0  0  0  0
    5.7989   -7.2820   25.6068 C   0  0  0  0  0  0  0  0  0  0  0  0
    5.7133   -6.7596   27.0489 C   0  0  2  0  0  0  0  0  0  0  0  0
    5.8697   -5.2695   26.8161 C   0  0  0  0  0  0  0  0  0  0  0  0
    7.2400   -5.4482   26.1868 C   0  0  1  0  0  0  0  0  0  0  0  0
    7.9210   -6.1942   27.3198 C   0  0  0  0  0  0  0  0  0  0  0  0
    6.9024   -7.1130   27.7717 O   0  0  0  0  0  0  0  0  0  0  0  0
    8.8298   -6.7076   26.9830 H   0  0  0  0  0  0  0  0  0  0  0  0
    8.1731   -5.5198   28.1477 H   0  0  0  0  0  0  0  0  0  0  0  0
    7.7626   -4.5776   25.8173 H   0  0  0  0  0  0  0  0  0  0  0  0
    5.0961   -4.9006   26.1519 H   0  0  0  0  0  0  0  0  0  0  0  0
    5.9300   -4.6737   27.7246 H   0  0  0  0  0  0  0  0  0  0  0  0
    4.8221   -7.0900   27.5792 H   0  0  0  0  0  0  0  0  0  0  0  0
    4.9052   -7.0138   25.0370 H   0  0  0  0  0  0  0  0  0  0  0  0
    6.0118   -8.3473   25.5110 H   0  0  0  0  0  0  0  0  0  0  0  0
    7.8296   -7.0793   25.0538 H   0  0  0  0  0  0  0  0  0  0  0  0
    6.6029   -6.8633   23.0253 H   0  0  0  0  0  0  0  0  0  0  0  0
    7.8218   -5.6370   23.3293 H   0  0  0  0  0  0  0  0  0  0  0  0
    4.8537   -5.1668   23.9709 H   0  0  0  0  0  0  0  0  0  0  0  0
    5.5471   -4.8347   22.3888 H   0  0  0  0  0  0  0  0  0  0  0  0
    5.3712   -2.8436   24.7058 C   0  0  0  0  0  0  0  0  0  0  0  0
    4.3223   -3.2658   25.1856 O   0  0  0  0  0  0  0  0  0  0  0  0
    5.7963   -1.4311   24.9628 C   0  0  0  0  0  0  0  0  0  0  0  0
    5.2431   -0.7584   26.0536 C   0  0  0  0  0  0  0  0  0  0  0  0
    5.5535    0.5649   26.2962 C   0  0  0  0  0  0  0  0  0  0  0  0
    6.4214    1.2129   25.4177 C   0  0  0  0  0  0  0  0  0  0  0  0
    6.8274    2.8848   25.7059 Cl  0  0  0  0  0  0  0  0  0  0  0  0
    6.9834    0.5542   24.3344 C   0  0  0  0  0  0  0  0  0  0  0  0
    6.6875   -0.7943   24.0946 C   0  0  0  0  0  0  0  0  0  0  0  0
    7.6710    1.1086   23.7048 H   0  0  0  0  0  0  0  0  0  0  0  0
    5.1359    1.0887   27.1510 H   0  0  0  0  0  0  0  0  0  0  0  0
    4.5705   -1.3069   26.7059 H   0  0  0  0  0  0  0  0  0  0  0  0
    8.2562   -3.1165   24.0270 H   0  0  0  0  0  0  0  0  0  0  0  0
    7.6476   -3.6331   22.4332 H   0  0  0  0  0  0  0  0  0  0  0  0
    8.0927    0.9783   21.4614 H   0  0  0  0  0  0  0  0  0  0  0  0
    8.8518   -0.1577   20.3483 H   0  0  0  0  0  0  0  0  0  0  0  0
    9.0294   -0.3671   23.1613 H   0  0  0  0  0  0  0  0  0  0  0  0
    9.8177   -2.7312   22.7622 H   0  0  0  0  0  0  0  0  0  0  0  0
   10.6112   -1.5084   21.8111 H   0  0  0  0  0  0  0  0  0  0  0  0
    9.3619   -2.5380   21.0540 H   0  0  0  0  0  0  0  0  0  0  0  0
  1  2  1  0
  2  3  1  0
  3  4  1  0
  4  5  1  0
  5  6  2  0
  6  7  1  0
  7  8  2  0
  8  9  1  0
  9 10  2  0
 10 11  1  0
 11 12  2  0
 12 13  1  0
 13 14  2  0
 13 15  1  0
 12 16  1  0
 11 17  1  0
 10 18  1  0
  8 19  1  0
  6 20  1  0
  4 21  1  0
 21 22  2  0
 21 23  1  0
 23 24  1  1
 24 25  1  0
 25 26  1  0
 26 27  1  0
 27 28  1  0
 28 29  1  0
 29 30  1  0
 30 31  1  0
 31 32  1  0
 32 33  1  0
 33 34  1  0
 33 35  1  0
 33 36  1  0
 32 37  1  6
 31 38  1  0
 31 39  1  0
 30 40  1  1
 29 41  1  0
 29 42  1  0
 28 43  1  6
 27 44  1  0
 27 45  1  0
 26 46  1  0
 26 47  1  0
 25 48  1  0
 48 49  2  0
 48 50  1  0
 50 51  2  0
 51 52  1  0
 52 53  2  0
 53 54  1  0
 53 55  1  0
 55 56  2  0
 55 57  1  0
 52 58  1  0
 51 59  1  0
 24 60  1  0
 24 61  1  0
  3 62  1  0
  3 63  1  0
  2 64  1  1
  1 65  1  0
  1 66  1  0
  1 67  1  0
 23  2  1  0
 32 28  1  0
 56 50  1  0
 14  5  1  0
 56 23  1  0
 14  9  1  0
 34 30  1  0
M  CHG  1  28   1
M  END
>  <cnnaffinities>  (10) 
[6.44078]

>  <score>  (10) 
6.44078

>  <index>  (10) 
14

>  <Smiles>  (10) 
C([C@]1(C(N(c2c(nc(c3c(c(c(c(c23)[H])[H])[H])[H])[H])[H])C(=O)[C@]21C(N(C(C([N@@+]1(C([C@@]3(C([C@]1(C(O3)([H])[H])[H])([H])[H])[H])([H])[H])[H])([H])[H])([H])[H])C(=O)c1c(c(c(Cl)c(c21)[H])[H])[H])([H])[H])([H])[H])[H])([H])([H])[H]

>  <h>  (10) 
<NA>

>  <Training>  (10) 
True

>  <Success>  (10) 
True

>  <enamine_searched>  (10) 
False

>  <enamine_id>  (10) 
nan

$$$$

     RDKit          3D

 47 50  0  0  0  0  0  0  0  0999 V2000
    8.6406   -4.5096   23.9878 C   0  0  0  0  0  0  0  0  0  0  0  0
    7.3756   -3.7646   24.4100 C   0  0  1  0  0  0  0  0  0  0  0  0
    7.6870   -2.3582   24.9370 C   0  0  0  0  0  0  0  0  0  0  0  0
    7.4172   -1.3748   23.7819 C   0  0  2  0  0  0  0  0  0  0  0  0
    6.6532   -0.1513   24.2619 C   0  0  0  0  0  0  0  0  0  0  0  0
    5.3223   -0.2551   24.6703 C   0  0  0  0  0  0  0  0  0  0  0  0
    4.6281    0.8589   25.1239 C   0  0  0  0  0  0  0  0  0  0  0  0
    5.2624    2.0971   25.1901 C   0  0  0  0  0  0  0  0  0  0  0  0
    6.5985    2.2056   24.8142 C   0  0  0  0  0  0  0  0  0  0  0  0
    7.2888    1.0850   24.3600 C   0  0  0  0  0  0  0  0  0  0  0  0
    8.3356    1.1718   24.0725 H   0  0  0  0  0  0  0  0  0  0  0  0
    7.1015    3.1662   24.8561 H   0  0  0  0  0  0  0  0  0  0  0  0
    4.7163    2.9710   25.5307 H   0  0  0  0  0  0  0  0  0  0  0  0
    3.5897    0.7594   25.4276 H   0  0  0  0  0  0  0  0  0  0  0  0
    4.8204   -1.2185   24.6456 H   0  0  0  0  0  0  0  0  0  0  0  0
    6.6988   -2.1658   22.7893 N   0  0  0  0  0  0  0  0  0  0  0  0
    6.2486   -1.7392   21.5619 C   0  0  0  0  0  0  0  0  0  0  0  0
    5.3932   -2.3668   20.9587 O   0  0  0  0  0  0  0  0  0  0  0  0
    6.9129   -0.4922   20.9200 C   0  0  0  0  0  0  0  0  0  0  0  0
    6.1112    0.0826   19.7729 C   0  0  0  0  0  0  0  0  0  0  0  0
    6.4204   -0.2153   18.4705 C   0  0  0  0  0  0  0  0  0  0  0  0
    5.7597    0.2395   17.3681 N   0  0  0  0  0  0  0  0  0  0  0  0
    4.7368    1.0319   17.5784 C   0  0  0  0  0  0  0  0  0  0  0  0
    4.2859    1.4205   18.8698 C   0  0  0  0  0  0  0  0  0  0  0  0
    3.1654    2.2710   19.0458 C   0  0  0  0  0  0  0  0  0  0  0  0
    2.7530    2.6273   20.2989 C   0  0  0  0  0  0  0  0  0  0  0  0
    3.4489    2.1395   21.4295 C   0  0  0  0  0  0  0  0  0  0  0  0
    4.5353    1.3120   21.2970 C   0  0  0  0  0  0  0  0  0  0  0  0
    4.9882    0.9340   20.0037 C   0  0  0  0  0  0  0  0  0  0  0  0
    5.0466    0.9462   22.1894 H   0  0  0  0  0  0  0  0  0  0  0  0
    3.1090    2.4252   22.4193 H   0  0  0  0  0  0  0  0  0  0  0  0
    1.8961    3.2841   20.4375 H   0  0  0  0  0  0  0  0  0  0  0  0
    2.6484    2.6424   18.1630 H   0  0  0  0  0  0  0  0  0  0  0  0
    4.2018    1.4001   16.6985 H   0  0  0  0  0  0  0  0  0  0  0  0
    7.2645   -0.8669   18.2451 H   0  0  0  0  0  0  0  0  0  0  0  0
    7.1482    0.2826   21.6610 H   0  0  0  0  0  0  0  0  0  0  0  0
    7.8816   -0.8259   20.5211 H   0  0  0  0  0  0  0  0  0  0  0  0
    6.4168   -3.5252   23.2366 C   0  0  0  0  0  0  0  0  0  0  0  0
    5.3648   -3.6559   23.5257 H   0  0  0  0  0  0  0  0  0  0  0  0
    6.5947   -4.2154   22.4098 H   0  0  0  0  0  0  0  0  0  0  0  0
    8.3633   -1.0401   23.3434 H   0  0  0  0  0  0  0  0  0  0  0  0
    7.0638   -2.1218   25.8034 H   0  0  0  0  0  0  0  0  0  0  0  0
    8.7174   -2.2773   25.2882 H   0  0  0  0  0  0  0  0  0  0  0  0
    6.8859   -4.3590   25.1844 H   0  0  0  0  0  0  0  0  0  0  0  0
    9.1810   -3.9580   23.2123 H   0  0  0  0  0  0  0  0  0  0  0  0
    8.4010   -5.5030   23.5961 H   0  0  0  0  0  0  0  0  0  0  0  0
    9.3251   -4.6409   24.8331 H   0  0  0  0  0  0  0  0  0  0  0  0
  1  2  1  0
  2  3  1  0
  3  4  1  0
  4  5  1  0
  5  6  2  0
  6  7  1  0
  7  8  2  0
  8  9  1  0
  9 10  2  0
 10 11  1  0
  9 12  1  0
  8 13  1  0
  7 14  1  0
  6 15  1  0
  4 16  1  0
 16 17  1  0
 17 18  2  0
 17 19  1  0
 19 20  1  0
 20 21  2  0
 21 22  1  0
 22 23  2  0
 23 24  1  0
 24 25  2  0
 25 26  1  0
 26 27  2  0
 27 28  1  0
 28 29  2  0
 28 30  1  0
 27 31  1  0
 26 32  1  0
 25 33  1  0
 23 34  1  0
 21 35  1  0
 19 36  1  0
 19 37  1  0
 16 38  1  0
 38 39  1  0
 38 40  1  0
  4 41  1  6
  3 42  1  0
  3 43  1  0
  2 44  1  1
  1 45  1  0
  1 46  1  0
  1 47  1  0
 38  2  1  0
 10  5  1  0
 29 20  1  0
 29 24  1  0
M  END
>  <cnnaffinities>  (11) 
[5.64237, 5.56045]

>  <score>  (11) 
5.64237

>  <index>  (11) 
16

>  <Smiles>  (11) 
C([C@]1(C([C@](c2c(c(c(c(c2[H])[H])[H])[H])[H])(N(C(=O)C(c2c(nc(c3c(c(c(c(c23)[H])[H])[H])[H])[H])[H])([H])[H])C1([H])[H])[H])([H])[H])[H])([H])([H])[H]

>  <h>  (11) 
<NA>

>  <Training>  (11) 
True

>  <Success>  (11) 
True

>  <enamine_searched>  (11) 
False

>  <enamine_id>  (11) 
nan

$$$$

     RDKit          3D

 58 63  0  0  0  0  0  0  0  0999 V2000
    9.6365   -2.0113   21.9687 C   0  0  0  0  0  0  0  0  0  0  0  0
    8.5766   -0.9634   22.3540 C   0  0  1  0  0  0  0  0  0  0  0  0
    8.2236   -0.0730   21.1306 C   0  0  0  0  0  0  0  0  0  0  0  0
    6.8970   -0.4875   20.7457 N   0  0  0  0  0  0  0  0  0  0  0  0
    6.1509    0.0849   19.6926 C   0  0  0  0  0  0  0  0  0  0  0  0
    6.4832   -0.1811   18.3893 C   0  0  0  0  0  0  0  0  0  0  0  0
    5.8009    0.2858   17.3155 N   0  0  0  0  0  0  0  0  0  0  0  0
    4.7590    1.0478   17.5539 C   0  0  0  0  0  0  0  0  0  0  0  0
    4.3145    1.4077   18.8572 C   0  0  0  0  0  0  0  0  0  0  0  0
    3.1911    2.2524   19.0462 C   0  0  0  0  0  0  0  0  0  0  0  0
    2.8102    2.6303   20.3031 C   0  0  0  0  0  0  0  0  0  0  0  0
    3.5290    2.1686   21.4305 C   0  0  0  0  0  0  0  0  0  0  0  0
    4.6051    1.3306   21.2789 C   0  0  0  0  0  0  0  0  0  0  0  0
    5.0259    0.9253   19.9744 C   0  0  0  0  0  0  0  0  0  0  0  0
    5.1342    0.9656   22.1593 H   0  0  0  0  0  0  0  0  0  0  0  0
    3.2177    2.4784   22.4242 H   0  0  0  0  0  0  0  0  0  0  0  0
    1.9605    3.2929   20.4416 H   0  0  0  0  0  0  0  0  0  0  0  0
    2.6602    2.5971   18.1628 H   0  0  0  0  0  0  0  0  0  0  0  0
    4.2084    1.4279   16.6926 H   0  0  0  0  0  0  0  0  0  0  0  0
    7.3288   -0.8292   18.1633 H   0  0  0  0  0  0  0  0  0  0  0  0
    6.2924   -1.3445   21.6272 C   0  0  0  0  0  0  0  0  0  0  0  0
    5.2255   -1.8885   21.4130 O   0  0  0  0  0  0  0  0  0  0  0  0
    7.2066   -1.5355   22.8495 C   0  0  1  0  0  0  0  0  0  0  0  0
    7.1934   -3.0465   23.1521 C   0  0  0  0  0  0  0  0  0  0  0  0
    5.8668   -3.4148   23.6072 N   0  0  0  0  0  0  0  0  0  0  0  0
    5.1811   -4.5418   23.0170 C   0  0  0  0  0  0  0  0  0  0  0  0
    5.7325   -5.8010   23.5782 C   0  0  0  0  0  0  0  0  0  0  0  0
    7.0023   -6.1135   23.5116 N   0  0  0  0  0  0  0  0  0  0  0  0
    7.1709   -7.2780   24.2030 N   0  0  0  0  0  0  0  0  0  0  0  0
    6.0028   -7.6117   24.6791 C   0  0  0  0  0  0  0  0  0  0  0  0
    5.0324   -6.7397   24.2719 N   0  0  0  0  0  0  0  0  0  0  0  0
    3.6113   -6.7161   24.6051 C   0  0  0  0  0  0  0  0  0  0  0  0
    2.9829   -6.8498   23.7138 H   0  0  0  0  0  0  0  0  0  0  0  0
    3.3663   -5.7626   25.0895 H   0  0  0  0  0  0  0  0  0  0  0  0
    3.4037   -7.5532   25.2784 H   0  0  0  0  0  0  0  0  0  0  0  0
    5.8013   -8.4225   25.3660 H   0  0  0  0  0  0  0  0  0  0  0  0
    5.3333   -4.5184   21.9349 H   0  0  0  0  0  0  0  0  0  0  0  0
    4.1047   -4.4407   23.1768 H   0  0  0  0  0  0  0  0  0  0  0  0
    5.3852   -2.8837   24.7669 C   0  0  0  0  0  0  0  0  0  0  0  0
    4.5697   -3.4756   25.4675 O   0  0  0  0  0  0  0  0  0  0  0  0
    5.8987   -1.5037   25.0593 C   0  0  0  0  0  0  0  0  0  0  0  0
    5.5495   -0.9060   26.2698 C   0  0  0  0  0  0  0  0  0  0  0  0
    5.8641    0.4134   26.5224 C   0  0  0  0  0  0  0  0  0  0  0  0
    6.5370    1.1169   25.5341 C   0  0  0  0  0  0  0  0  0  0  0  0
    6.8123    2.4116   25.7697 F   0  0  0  0  0  0  0  0  0  0  0  0
    6.9529    0.5389   24.3468 C   0  0  0  0  0  0  0  0  0  0  0  0
    6.6731   -0.8175   24.1028 C   0  0  0  0  0  0  0  0  0  0  0  0
    7.5097    1.1757   23.6643 H   0  0  0  0  0  0  0  0  0  0  0  0
    5.5841    0.9054   27.4466 H   0  0  0  0  0  0  0  0  0  0  0  0
    5.0343   -1.5104   27.0076 H   0  0  0  0  0  0  0  0  0  0  0  0
    7.9174   -3.2626   23.9454 H   0  0  0  0  0  0  0  0  0  0  0  0
    7.4527   -3.6686   22.2896 H   0  0  0  0  0  0  0  0  0  0  0  0
    8.9317   -0.2407   20.3178 H   0  0  0  0  0  0  0  0  0  0  0  0
    8.2355    1.0043   21.3518 H   0  0  0  0  0  0  0  0  0  0  0  0
    9.0264   -0.3686   23.1596 H   0  0  0  0  0  0  0  0  0  0  0  0
    9.7625   -2.7692   22.7449 H   0  0  0  0  0  0  0  0  0  0  0  0
   10.6096   -1.5281   21.8395 H   0  0  0  0  0  0  0  0  0  0  0  0
    9.3901   -2.5321   21.0357 H   0  0  0  0  0  0  0  0  0  0  0  0
  1  2  1  0
  2  3  1  0
  3  4  1  0
  4  5  1  0
  5  6  2  0
  6  7  1  0
  7  8  2  0
  8  9  1  0
  9 10  2  0
 10 11  1  0
 11 12  2  0
 12 13  1  0
 13 14  2  0
 13 15  1  0
 12 16  1  0
 11 17  1  0
 10 18  1  0
  8 19  1  0
  6 20  1  0
  4 21  1  0
 21 22  2  0
 21 23  1  0
 23 24  1  1
 24 25  1  0
 25 26  1  0
 26 27  1  0
 27 28  2  0
 28 29  1  0
 29 30  2  0
 30 31  1  0
 31 32  1  0
 32 33  1  0
 32 34  1  0
 32 35  1  0
 30 36  1  0
 26 37  1  0
 26 38  1  0
 25 39  1  0
 39 40  2  0
 39 41  1  0
 41 42  2  0
 42 43  1  0
 43 44  2  0
 44 45  1  0
 44 46  1  0
 46 47  2  0
 46 48  1  0
 43 49  1  0
 42 50  1  0
 24 51  1  0
 24 52  1  0
  3 53  1  0
  3 54  1  0
  2 55  1  1
  1 56  1  0
  1 57  1  0
  1 58  1  0
 23  2  1  0
 31 27  1  0
 47 41  1  0
 14  5  1  0
 47 23  1  0
 14  9  1  0
M  END
>  <cnnaffinities>  (12) 
[6.15377]

>  <score>  (12) 
6.15377

>  <index>  (12) 
17

>  <Smiles>  (12) 
C([C@]1(C(N(c2c(nc(c3c(c(c(c(c23)[H])[H])[H])[H])[H])[H])C(=O)[C@]21C(N(C(c1nnc(n1C([H])([H])[H])[H])([H])[H])C(=O)c1c(c(c(F)c(c21)[H])[H])[H])([H])[H])([H])[H])[H])([H])([H])[H]

>  <h>  (12) 
<NA>

>  <Training>  (12) 
True

>  <Success>  (12) 
True

>  <enamine_searched>  (12) 
False

>  <enamine_id>  (12) 
nan

$$$$

     RDKit          3D

 50 53  0  0  0  0  0  0  0  0999 V2000
    3.9011   -1.8263   29.3972 C   0  0  0  0  0  0  0  0  0  0  0  0
    3.9693   -2.1646   27.9151 C   0  0  1  0  0  0  0  0  0  0  0  0
    4.0173   -0.9053   27.0490 C   0  0  0  0  0  0  0  0  0  0  0  0
    4.1265   -1.2245   25.5557 C   0  0  0  0  0  0  0  0  0  0  0  0
    5.2865   -2.1853   25.1953 C   0  0  2  0  0  0  0  0  0  0  0  0
    6.6534   -1.4727   25.2924 C   0  0  0  0  0  0  0  0  0  0  0  0
    6.9252   -0.8666   23.9099 C   0  0  0  0  0  0  0  0  0  0  0  0
    6.0981   -1.6410   22.9919 N   0  0  0  0  0  0  0  0  0  0  0  0
    6.1471   -1.6293   21.6262 C   0  0  0  0  0  0  0  0  0  0  0  0
    5.5820   -2.4835   20.9615 O   0  0  0  0  0  0  0  0  0  0  0  0
    6.9099   -0.4855   20.9188 C   0  0  0  0  0  0  0  0  0  0  0  0
    6.1154    0.0912   19.7664 C   0  0  0  0  0  0  0  0  0  0  0  0
    6.4216   -0.2139   18.4634 C   0  0  0  0  0  0  0  0  0  0  0  0
    5.7590    0.2391   17.3630 N   0  0  0  0  0  0  0  0  0  0  0  0
    4.7357    1.0323   17.5746 C   0  0  0  0  0  0  0  0  0  0  0  0
    4.2863    1.4233   18.8679 C   0  0  0  0  0  0  0  0  0  0  0  0
    3.1622    2.2723   19.0440 C   0  0  0  0  0  0  0  0  0  0  0  0
    2.7492    2.6269   20.3004 C   0  0  0  0  0  0  0  0  0  0  0  0
    3.4429    2.1441   21.4315 C   0  0  0  0  0  0  0  0  0  0  0  0
    4.5334    1.3208   21.2876 C   0  0  0  0  0  0  0  0  0  0  0  0
    4.9898    0.9411   19.9958 C   0  0  0  0  0  0  0  0  0  0  0  0
    5.0479    0.9566   22.1724 H   0  0  0  0  0  0  0  0  0  0  0  0
    3.1055    2.4255   22.4236 H   0  0  0  0  0  0  0  0  0  0  0  0
    1.8912    3.2793   20.4365 H   0  0  0  0  0  0  0  0  0  0  0  0
    2.6412    2.6427   18.1643 H   0  0  0  0  0  0  0  0  0  0  0  0
    4.1981    1.4008   16.6994 H   0  0  0  0  0  0  0  0  0  0  0  0
    7.2664   -0.8676   18.2482 H   0  0  0  0  0  0  0  0  0  0  0  0
    7.8367   -0.9158   20.5175 H   0  0  0  0  0  0  0  0  0  0  0  0
    7.2121    0.3112   21.6092 H   0  0  0  0  0  0  0  0  0  0  0  0
    5.2287   -2.5789   23.6996 C   0  0  0  0  0  0  0  0  0  0  0  0
    5.5660   -3.6115   23.5487 H   0  0  0  0  0  0  0  0  0  0  0  0
    4.2090   -2.5250   23.3093 H   0  0  0  0  0  0  0  0  0  0  0  0
    7.9835   -0.9514   23.6509 H   0  0  0  0  0  0  0  0  0  0  0  0
    6.6510    0.1941   23.8877 H   0  0  0  0  0  0  0  0  0  0  0  0
    6.6771   -0.7047   26.0702 H   0  0  0  0  0  0  0  0  0  0  0  0
    7.4352   -2.1935   25.5541 H   0  0  0  0  0  0  0  0  0  0  0  0
    5.2163   -3.4244   26.1116 C   0  0  0  0  0  0  0  0  0  0  0  0
    5.1543   -3.0770   27.5989 C   0  0  0  0  0  0  0  0  0  0  0  0
    5.0912   -3.9942   28.1992 H   0  0  0  0  0  0  0  0  0  0  0  0
    6.0867   -2.5831   27.9018 H   0  0  0  0  0  0  0  0  0  0  0  0
    4.3267   -4.0141   25.8508 H   0  0  0  0  0  0  0  0  0  0  0  0
    6.0770   -4.0773   25.9184 H   0  0  0  0  0  0  0  0  0  0  0  0
    3.1805   -1.6847   25.2419 H   0  0  0  0  0  0  0  0  0  0  0  0
    4.2220   -0.2973   24.9771 H   0  0  0  0  0  0  0  0  0  0  0  0
    3.1211   -0.2973   27.2313 H   0  0  0  0  0  0  0  0  0  0  0  0
    4.8640   -0.2821   27.3637 H   0  0  0  0  0  0  0  0  0  0  0  0
    3.0560   -2.7116   27.6474 H   0  0  0  0  0  0  0  0  0  0  0  0
    3.0367   -1.1950   29.6232 H   0  0  0  0  0  0  0  0  0  0  0  0
    3.8335   -2.7309   30.0090 H   0  0  0  0  0  0  0  0  0  0  0  0
    4.8000   -1.2837   29.7066 H   0  0  0  0  0  0  0  0  0  0  0  0
  1  2  1  0
  2  3  1  0
  3  4  1  0
  5  4  1  1
  5  6  1  0
  6  7  1  0
  7  8  1  0
  8  9  1  0
  9 10  2  0
  9 11  1  0
 11 12  1  0
 12 13  2  0
 13 14  1  0
 14 15  2  0
 15 16  1  0
 16 17  2  0
 17 18  1  0
 18 19  2  0
 19 20  1  0
 20 21  2  0
 20 22  1  0
 19 23  1  0
 18 24  1  0
 17 25  1  0
 15 26  1  0
 13 27  1  0
 11 28  1  0
 11 29  1  0
  8 30  1  0
 30 31  1  0
 30 32  1  0
  7 33  1  0
  7 34  1  0
  6 35  1  0
  6 36  1  0
  5 37  1  0
 37 38  1  0
 38 39  1  0
 38 40  1  0
 37 41  1  0
 37 42  1  0
  4 43  1  0
  4 44  1  0
  3 45  1  0
  3 46  1  0
  2 47  1  6
  1 48  1  0
  1 49  1  0
  1 50  1  0
 38  2  1  0
 30  5  1  0
 21 12  1  0
 21 16  1  0
M  END
>  <cnnaffinities>  (13) 
[5.34417, 5.53509]

>  <score>  (13) 
5.34417

>  <index>  (13) 
18

>  <Smiles>  (13) 
C([C@]1(C(C([C@@]2(C(C(N(C(=O)C(c3c(nc(c4c(c(c(c(c34)[H])[H])[H])[H])[H])[H])([H])[H])C2([H])[H])([H])[H])([H])[H])C(C1([H])[H])([H])[H])([H])[H])([H])[H])[H])([H])([H])[H]

>  <h>  (13) 
<NA>

>  <Training>  (13) 
True

>  <Success>  (13) 
True

>  <enamine_searched>  (13) 
False

>  <enamine_id>  (13) 
nan

$$$$

     RDKit          3D

 67 71  0  0  0  0  0  0  0  0999 V2000
    3.6172   -5.2698   21.8561 O   0  0  0  0  0  0  0  0  0  0  0  0
    4.1775   -5.8470   22.7783 C   0  0  0  0  0  0  0  0  0  0  0  0
    5.6911   -5.7025   22.8718 C   0  0  0  0  0  0  0  0  0  0  0  0
    5.9192   -4.2270   22.7794 N   0  0  1  0  0  4  0  0  0  0  0  0
    5.1983   -3.5949   23.9471 C   0  0  0  0  0  0  0  0  0  0  0  0
    5.5274   -2.1549   24.2333 C   0  0  0  0  0  0  0  0  0  0  0  0
    4.7284   -1.4464   25.1353 C   0  0  0  0  0  0  0  0  0  0  0  0
    5.0750   -0.1679   25.5468 C   0  0  0  0  0  0  0  0  0  0  0  0
    6.2480    0.3956   25.0495 C   0  0  0  0  0  0  0  0  0  0  0  0
    6.7251    1.9872   25.5807 Cl  0  0  0  0  0  0  0  0  0  0  0  0
    7.0263   -0.2771   24.1173 C   0  0  0  0  0  0  0  0  0  0  0  0
    6.6450   -1.5484   23.6761 C   0  0  0  0  0  0  0  0  0  0  0  0
    7.3533   -2.2438   22.5307 C   0  0  2  0  0  0  0  0  0  0  0  0
    6.6499   -1.8743   21.2145 C   0  0  0  0  0  0  0  0  0  0  0  0
    5.9757   -2.6757   20.5821 O   0  0  0  0  0  0  0  0  0  0  0  0
    6.8045   -0.5640   20.8262 N   0  0  0  0  0  0  0  0  0  0  0  0
    6.0888    0.0128   19.7497 C   0  0  0  0  0  0  0  0  0  0  0  0
    6.4319   -0.2698   18.4547 C   0  0  0  0  0  0  0  0  0  0  0  0
    5.7947    0.2304   17.3638 N   0  0  0  0  0  0  0  0  0  0  0  0
    4.7762    1.0291   17.5788 C   0  0  0  0  0  0  0  0  0  0  0  0
    4.3191    1.4136   18.8725 C   0  0  0  0  0  0  0  0  0  0  0  0
    3.1980    2.2631   19.0495 C   0  0  0  0  0  0  0  0  0  0  0  0
    2.7856    2.6085   20.3065 C   0  0  0  0  0  0  0  0  0  0  0  0
    3.4713    2.1200   21.4400 C   0  0  0  0  0  0  0  0  0  0  0  0
    4.5526    1.2857   21.2987 C   0  0  0  0  0  0  0  0  0  0  0  0
    5.0005    0.9113   20.0007 C   0  0  0  0  0  0  0  0  0  0  0  0
    5.0487    0.8961   22.1844 H   0  0  0  0  0  0  0  0  0  0  0  0
    3.1299    2.4057   22.4304 H   0  0  0  0  0  0  0  0  0  0  0  0
    1.9279    3.2593   20.4403 H   0  0  0  0  0  0  0  0  0  0  0  0
    2.6837    2.6278   18.1662 H   0  0  0  0  0  0  0  0  0  0  0  0
    4.2498    1.4145   16.7056 H   0  0  0  0  0  0  0  0  0  0  0  0
    7.2746   -0.9310   18.2685 H   0  0  0  0  0  0  0  0  0  0  0  0
    7.1638    0.0855   21.5139 H   0  0  0  0  0  0  0  0  0  0  0  0
    7.3360   -3.7670   22.6926 C   0  0  0  0  0  0  0  0  0  0  0  0
    7.8291   -4.2294   21.8351 H   0  0  0  0  0  0  0  0  0  0  0  0
    7.8864   -4.0718   23.5888 H   0  0  0  0  0  0  0  0  0  0  0  0
    8.3857   -1.8791   22.4804 H   0  0  0  0  0  0  0  0  0  0  0  0
    7.9343    0.1910   23.7484 H   0  0  0  0  0  0  0  0  0  0  0  0
    4.4629    0.3791   26.2581 H   0  0  0  0  0  0  0  0  0  0  0  0
    3.8268   -1.9038   25.5396 H   0  0  0  0  0  0  0  0  0  0  0  0
    5.4161   -4.1915   24.8415 H   0  0  0  0  0  0  0  0  0  0  0  0
    4.1237   -3.6730   23.7709 H   0  0  0  0  0  0  0  0  0  0  0  0
    5.4526   -3.9227   21.8924 H   0  0  0  0  0  0  0  0  0  0  0  0
    6.0848   -6.1037   23.8138 H   0  0  0  0  0  0  0  0  0  0  0  0
    6.1436   -6.2182   22.0179 H   0  0  0  0  0  0  0  0  0  0  0  0
    3.5143   -6.4683   23.7805 N   0  0  0  0  0  0  0  0  0  0  0  0
    2.0765   -6.7015   23.6940 C   0  0  0  0  0  0  0  0  0  0  0  0
    1.2854   -5.3848   23.6191 C   0  0  0  0  0  0  0  0  0  0  0  0
   -0.2084   -5.5768   23.5823 C   0  0  0  0  0  0  0  0  0  0  0  0
   -0.9392   -5.6141   24.7705 C   0  0  0  0  0  0  0  0  0  0  0  0
   -2.3127   -5.8322   24.7587 C   0  0  0  0  0  0  0  0  0  0  0  0
   -2.9839   -6.0159   23.5535 C   0  0  0  0  0  0  0  0  0  0  0  0
   -4.4629   -6.2485   23.5374 C   0  0  0  0  0  0  0  0  0  0  0  0
   -5.0820   -5.3337   22.7358 F   0  0  0  0  0  0  0  0  0  0  0  0
   -4.7385   -7.4768   23.0102 F   0  0  0  0  0  0  0  0  0  0  0  0
   -4.9125   -6.1925   24.5363 H   0  0  0  0  0  0  0  0  0  0  0  0
   -2.2634   -5.9793   22.3597 C   0  0  0  0  0  0  0  0  0  0  0  0
   -0.8903   -5.7574   22.3750 C   0  0  0  0  0  0  0  0  0  0  0  0
   -0.3493   -5.7127   21.4292 H   0  0  0  0  0  0  0  0  0  0  0  0
   -2.7806   -6.1080   21.4131 H   0  0  0  0  0  0  0  0  0  0  0  0
   -2.8599   -5.8406   25.7009 H   0  0  0  0  0  0  0  0  0  0  0  0
   -0.4232   -5.4620   25.7172 H   0  0  0  0  0  0  0  0  0  0  0  0
    1.5552   -4.7532   24.4771 H   0  0  0  0  0  0  0  0  0  0  0  0
    1.6275   -4.8700   22.7194 H   0  0  0  0  0  0  0  0  0  0  0  0
    1.7734   -7.2949   24.5592 H   0  0  0  0  0  0  0  0  0  0  0  0
    1.8339   -7.3000   22.8049 H   0  0  0  0  0  0  0  0  0  0  0  0
    4.0353   -6.7982   24.5743 H   0  0  0  0  0  0  0  0  0  0  0  0
  1  2  2  0
  2  3  1  0
  3  4  1  0
  4  5  1  0
  5  6  1  0
  6  7  2  0
  7  8  1  0
  8  9  2  0
  9 10  1  0
  9 11  1  0
 11 12  2  0
 12 13  1  0
 13 14  1  0
 14 15  2  0
 14 16  1  0
 16 17  1  0
 17 18  2  0
 18 19  1  0
 19 20  2  0
 20 21  1  0
 21 22  2  0
 22 23  1  0
 23 24  2  0
 24 25  1  0
 25 26  2  0
 25 27  1  0
 24 28  1  0
 23 29  1  0
 22 30  1  0
 20 31  1  0
 18 32  1  0
 16 33  1  0
 13 34  1  0
 34 35  1  0
 34 36  1  0
 13 37  1  6
 11 38  1  0
  8 39  1  0
  7 40  1  0
  5 41  1  0
  5 42  1  0
  4 43  1  6
  3 44  1  0
  3 45  1  0
  2 46  1  0
 46 47  1  0
 47 48  1  0
 48 49  1  0
 49 50  2  0
 50 51  1  0
 51 52  2  0
 52 53  1  0
 53 54  1  0
 53 55  1  0
 53 56  1  0
 52 57  1  0
 57 58  2  0
 58 59  1  0
 57 60  1  0
 51 61  1  0
 50 62  1  0
 48 63  1  0
 48 64  1  0
 47 65  1  0
 47 66  1  0
 46 67  1  0
 34  4  1  0
 58 49  1  0
 12  6  1  0
 26 17  1  0
 26 21  1  0
M  CHG  1   4   1
M  END
>  <cnnaffinities>  (14) 
[5.75323]

>  <score>  (14) 
5.75323

>  <index>  (14) 
19

>  <Smiles>  (14) 
O=C(C([N@+]1(C(c2c(c(c(Cl)c(c2[C@](C(=O)N(c2c(nc(c3c(c(c(c(c23)[H])[H])[H])[H])[H])[H])[H])(C1([H])[H])[H])[H])[H])[H])([H])[H])[H])([H])[H])N(C(C(c1c(c(c(C(F)(F)[H])c(c1[H])[H])[H])[H])([H])[H])([H])[H])[H]

>  <h>  (14) 
<NA>

>  <Training>  (14) 
True

>  <Success>  (14) 
True

>  <enamine_searched>  (14) 
False

>  <enamine_id>  (14) 
nan

$$$$

     RDKit          3D

 66 70  0  0  0  0  0  0  0  0999 V2000
    4.2683    6.1435   20.6099 C   0  0  0  0  0  0  0  0  0  0  0  0
    5.3353    5.0612   20.7893 C   0  0  0  0  0  0  0  0  0  0  0  0
    6.6683    5.7667   20.6973 C   0  0  0  0  0  0  0  0  0  0  0  0
    6.9552    6.4370   19.7269 O   0  0  0  0  0  0  0  0  0  0  0  0
    7.4548    5.8462   21.8493 N   0  0  0  0  0  0  0  0  0  0  0  0
    8.0729    7.1575   22.0218 C   0  0  0  0  0  0  0  0  0  0  0  0
    8.0575    7.5215   23.4905 C   0  0  0  0  0  0  0  0  0  0  0  0
    8.8927    6.4952   24.2497 C   0  0  0  0  0  0  0  0  0  0  0  0
    8.5467    5.0654   23.8663 C   0  0  0  0  0  0  0  0  0  0  0  0
    8.9132    3.9993   24.6906 C   0  0  0  0  0  0  0  0  0  0  0  0
    8.6602    2.6786   24.3431 C   0  0  0  0  0  0  0  0  0  0  0  0
    8.0545    2.3932   23.1159 C   0  0  0  0  0  0  0  0  0  0  0  0
    7.7994    1.0291   22.7544 N   0  0  0  0  0  0  0  0  0  0  0  0
    7.7819    0.7156   21.3882 C   0  0  0  0  0  0  0  0  0  0  0  0
    8.4111    1.3814   20.5928 O   0  0  0  0  0  0  0  0  0  0  0  0
    6.9130   -0.4386   20.9092 C   0  0  0  0  0  0  0  0  0  0  0  0
    6.0726    0.0492   19.7600 C   0  0  0  0  0  0  0  0  0  0  0  0
    6.4186   -0.2191   18.4627 C   0  0  0  0  0  0  0  0  0  0  0  0
    5.7779    0.2514   17.3628 N   0  0  0  0  0  0  0  0  0  0  0  0
    4.7501    1.0413   17.5770 C   0  0  0  0  0  0  0  0  0  0  0  0
    4.2902    1.4293   18.8653 C   0  0  0  0  0  0  0  0  0  0  0  0
    3.1652    2.2740   19.0460 C   0  0  0  0  0  0  0  0  0  0  0  0
    2.7621    2.6352   20.3023 C   0  0  0  0  0  0  0  0  0  0  0  0
    3.4661    2.1750   21.4356 C   0  0  0  0  0  0  0  0  0  0  0  0
    4.5622    1.3598   21.2870 C   0  0  0  0  0  0  0  0  0  0  0  0
    4.9872    0.9418   19.9963 C   0  0  0  0  0  0  0  0  0  0  0  0
    5.1001    1.0248   22.1703 H   0  0  0  0  0  0  0  0  0  0  0  0
    3.1410    2.4687   22.4315 H   0  0  0  0  0  0  0  0  0  0  0  0
    1.9025    3.2877   20.4331 H   0  0  0  0  0  0  0  0  0  0  0  0
    2.6475    2.6309   18.1601 H   0  0  0  0  0  0  0  0  0  0  0  0
    4.2172    1.4066   16.6988 H   0  0  0  0  0  0  0  0  0  0  0  0
    7.2747   -0.8630   18.2549 H   0  0  0  0  0  0  0  0  0  0  0  0
    6.3161   -0.8303   21.7338 H   0  0  0  0  0  0  0  0  0  0  0  0
    7.5894   -1.2350   20.5798 H   0  0  0  0  0  0  0  0  0  0  0  0
    7.5331    0.0728   23.7344 N   0  0  0  0  0  0  0  0  0  0  0  0
    6.3941    0.2962   24.5946 C   0  0  0  0  0  0  0  0  0  0  0  0
    6.6452    0.0032   25.6202 H   0  0  0  0  0  0  0  0  0  0  0  0
    5.5081   -0.2721   24.2779 H   0  0  0  0  0  0  0  0  0  0  0  0
    6.1343    1.3585   24.5913 H   0  0  0  0  0  0  0  0  0  0  0  0
    8.3005   -1.1013   23.8729 C   0  0  0  0  0  0  0  0  0  0  0  0
    9.6610   -1.1325   23.5579 C   0  0  0  0  0  0  0  0  0  0  0  0
   10.4003   -2.2978   23.6386 C   0  0  0  0  0  0  0  0  0  0  0  0
    9.8122   -3.4754   24.0840 C   0  0  0  0  0  0  0  0  0  0  0  0
    8.4724   -3.4515   24.4384 C   0  0  0  0  0  0  0  0  0  0  0  0
    7.7193   -4.9236   25.0158 Cl  0  0  0  0  0  0  0  0  0  0  0  0
    7.7170   -2.2857   24.3550 C   0  0  0  0  0  0  0  0  0  0  0  0
    6.6817   -2.3181   24.6670 H   0  0  0  0  0  0  0  0  0  0  0  0
   10.3811   -4.3887   24.1796 H   0  0  0  0  0  0  0  0  0  0  0  0
   11.4507   -2.2676   23.3513 H   0  0  0  0  0  0  0  0  0  0  0  0
   10.1803   -0.2423   23.2926 H   0  0  0  0  0  0  0  0  0  0  0  0
    7.6670    3.4386   22.2738 C   0  0  0  0  0  0  0  0  0  0  0  0
    7.8683    4.7715   22.6668 C   0  0  0  0  0  0  0  0  0  0  0  0
    7.2271    3.2220   21.3053 H   0  0  0  0  0  0  0  0  0  0  0  0
    8.9039    1.8577   25.0114 H   0  0  0  0  0  0  0  0  0  0  0  0
    9.4017    4.2125   25.6418 H   0  0  0  0  0  0  0  0  0  0  0  0
    8.7838    6.6205   25.3349 H   0  0  0  0  0  0  0  0  0  0  0  0
    9.9534    6.6806   24.0207 H   0  0  0  0  0  0  0  0  0  0  0  0
    8.4409    8.5386   23.6362 H   0  0  0  0  0  0  0  0  0  0  0  0
    7.0192    7.5067   23.8413 H   0  0  0  0  0  0  0  0  0  0  0  0
    9.0867    7.1391   21.5996 H   0  0  0  0  0  0  0  0  0  0  0  0
    7.4748    7.8506   21.4279 H   0  0  0  0  0  0  0  0  0  0  0  0
    5.2264    4.2878   20.0240 H   0  0  0  0  0  0  0  0  0  0  0  0
    5.2507    4.5574   21.7518 H   0  0  0  0  0  0  0  0  0  0  0  0
    4.3522    6.9157   21.3823 H   0  0  0  0  0  0  0  0  0  0  0  0
    4.4248    6.6351   19.6485 H   0  0  0  0  0  0  0  0  0  0  0  0
    3.2581    5.7314   20.6412 H   0  0  0  0  0  0  0  0  0  0  0  0
  1  2  1  0
  2  3  1  0
  3  4  2  0
  3  5  1  0
  5  6  1  0
  6  7  1  0
  7  8  1  0
  8  9  1  0
  9 10  2  0
 10 11  1  0
 11 12  2  0
 12 13  1  0
 13 14  1  0
 14 15  2  0
 14 16  1  0
 16 17  1  0
 17 18  2  0
 18 19  1  0
 19 20  2  0
 20 21  1  0
 21 22  2  0
 22 23  1  0
 23 24  2  0
 24 25  1  0
 25 26  2  0
 25 27  1  0
 24 28  1  0
 23 29  1  0
 22 30  1  0
 20 31  1  0
 18 32  1  0
 16 33  1  0
 16 34  1  0
 13 35  1  0
 35 36  1  0
 36 37  1  0
 36 38  1  0
 36 39  1  0
 35 40  1  0
 40 41  2  0
 41 42  1  0
 42 43  2  0
 43 44  1  0
 44 45  1  0
 44 46  2  0
 46 47  1  0
 43 48  1  0
 42 49  1  0
 41 50  1  0
 12 51  1  0
 51 52  2  0
 51 53  1  0
 11 54  1  0
 10 55  1  0
  8 56  1  0
  8 57  1  0
  7 58  1  0
  7 59  1  0
  6 60  1  0
  6 61  1  0
  2 62  1  0
  2 63  1  0
  1 64  1  0
  1 65  1  0
  1 66  1  0
 52  5  1  0
 52  9  1  0
 26 17  1  0
 46 40  1  0
 26 21  1  0
M  END
>  <cnnaffinities>  (15) 
[7.05101]

>  <score>  (15) 
7.05101

>  <index>  (15) 
20

>  <Smiles>  (15) 
C(C(C(=O)N1C(C(C(c2c(c(c(N(C(=O)C(c3c(nc(c4c(c(c(c(c34)[H])[H])[H])[H])[H])[H])([H])[H])N(C([H])([H])[H])c3c(c(c(c(Cl)c3[H])[H])[H])[H])c(c12)[H])[H])[H])([H])[H])([H])[H])([H])[H])([H])[H])([H])([H])[H]

>  <h>  (15) 
<NA>

>  <Training>  (15) 
True

>  <Success>  (15) 
True

>  <enamine_searched>  (15) 
False

>  <enamine_id>  (15) 
nan

$$$$

     RDKit          3D

 41 44  0  0  0  0  0  0  0  0999 V2000
    5.6290   -2.5268   20.9376 O   0  0  0  0  0  0  0  0  0  0  0  0
    6.1272   -1.6406   21.6077 C   0  0  0  0  0  0  0  0  0  0  0  0
    6.9044   -0.4928   20.9194 C   0  0  0  0  0  0  0  0  0  0  0  0
    6.1147    0.0916   19.7659 C   0  0  0  0  0  0  0  0  0  0  0  0
    6.4230   -0.2139   18.4656 C   0  0  0  0  0  0  0  0  0  0  0  0
    5.7594    0.2397   17.3649 N   0  0  0  0  0  0  0  0  0  0  0  0
    4.7363    1.0322   17.5765 C   0  0  0  0  0  0  0  0  0  0  0  0
    4.2868    1.4228   18.8663 C   0  0  0  0  0  0  0  0  0  0  0  0
    3.1634    2.2691   19.0452 C   0  0  0  0  0  0  0  0  0  0  0  0
    2.7484    2.6252   20.2995 C   0  0  0  0  0  0  0  0  0  0  0  0
    3.4439    2.1432   21.4320 C   0  0  0  0  0  0  0  0  0  0  0  0
    4.5346    1.3215   21.2878 C   0  0  0  0  0  0  0  0  0  0  0  0
    4.9912    0.9416   19.9973 C   0  0  0  0  0  0  0  0  0  0  0  0
    5.0486    0.9551   22.1731 H   0  0  0  0  0  0  0  0  0  0  0  0
    3.1065    2.4266   22.4238 H   0  0  0  0  0  0  0  0  0  0  0  0
    1.8900    3.2785   20.4347 H   0  0  0  0  0  0  0  0  0  0  0  0
    2.6459    2.6389   18.1630 H   0  0  0  0  0  0  0  0  0  0  0  0
    4.2006    1.4001   16.6985 H   0  0  0  0  0  0  0  0  0  0  0  0
    7.2657   -0.8675   18.2439 H   0  0  0  0  0  0  0  0  0  0  0  0
    7.8332   -0.9210   20.5208 H   0  0  0  0  0  0  0  0  0  0  0  0
    7.1923    0.2941   21.6286 H   0  0  0  0  0  0  0  0  0  0  0  0
    5.9641   -1.6042   22.9793 N   0  0  0  0  0  0  0  0  0  0  0  0
    6.9117   -0.9608   23.8755 C   0  0  0  0  0  0  0  0  0  0  0  0
    6.8950   -1.5904   25.2670 C   0  0  0  0  0  0  0  0  0  0  0  0
    5.5031   -1.6243   25.8333 C   0  0  0  0  0  0  0  0  0  0  0  0
    5.1946   -1.4012   27.1774 C   0  0  0  0  0  0  0  0  0  0  0  0
    6.4623   -1.0413   28.3209 Cl  0  0  0  0  0  0  0  0  0  0  0  0
    3.8943   -1.4610   27.6608 C   0  0  0  0  0  0  0  0  0  0  0  0
    2.8727   -1.7718   26.7738 C   0  0  0  0  0  0  0  0  0  0  0  0
    3.1591   -2.0146   25.4352 C   0  0  0  0  0  0  0  0  0  0  0  0
    4.4653   -1.9390   24.9554 C   0  0  0  0  0  0  0  0  0  0  0  0
    4.7815   -2.2803   23.5135 C   0  0  0  0  0  0  0  0  0  0  0  0
    3.9230   -2.0155   22.8942 H   0  0  0  0  0  0  0  0  0  0  0  0
    4.8859   -3.3647   23.3907 H   0  0  0  0  0  0  0  0  0  0  0  0
    2.3499   -2.2805   24.7625 H   0  0  0  0  0  0  0  0  0  0  0  0
    1.8532   -1.8308   27.1410 H   0  0  0  0  0  0  0  0  0  0  0  0
    3.6978   -1.2740   28.7133 H   0  0  0  0  0  0  0  0  0  0  0  0
    7.5634   -1.0289   25.9187 H   0  0  0  0  0  0  0  0  0  0  0  0
    7.2987   -2.6080   25.2231 H   0  0  0  0  0  0  0  0  0  0  0  0
    7.9145   -1.0564   23.4516 H   0  0  0  0  0  0  0  0  0  0  0  0
    6.6934    0.1124   23.9643 H   0  0  0  0  0  0  0  0  0  0  0  0
  1  2  2  0
  2  3  1  0
  3  4  1  0
  4  5  2  0
  5  6  1  0
  6  7  2  0
  7  8  1  0
  8  9  2  0
  9 10  1  0
 10 11  2  0
 11 12  1  0
 12 13  2  0
 12 14  1  0
 11 15  1  0
 10 16  1  0
  9 17  1  0
  7 18  1  0
  5 19  1  0
  3 20  1  0
  3 21  1  0
  2 22  1  0
 22 23  1  0
 23 24  1  0
 24 25  1  0
 25 26  2  0
 26 27  1  0
 26 28  1  0
 28 29  2  0
 29 30  1  0
 30 31  2  0
 31 32  1  0
 32 33  1  0
 32 34  1  0
 30 35  1  0
 29 36  1  0
 28 37  1  0
 24 38  1  0
 24 39  1  0
 23 40  1  0
 23 41  1  0
 13  4  1  0
 32 22  1  0
 13  8  1  0
 31 25  1  0
M  END
>  <cnnaffinities>  (16) 
[5.23369, 5.27265]

>  <score>  (16) 
5.23369

>  <index>  (16) 
22

>  <Smiles>  (16) 
O=C(C(c1c(nc(c2c(c(c(c(c12)[H])[H])[H])[H])[H])[H])([H])[H])N1C(C(c2c(Cl)c(c(c(c2C1([H])[H])[H])[H])[H])([H])[H])([H])[H]

>  <h>  (16) 
<NA>

>  <Training>  (16) 
True

>  <Success>  (16) 
True

>  <enamine_searched>  (16) 
False

>  <enamine_id>  (16) 
nan

$$$$

     RDKit          3D

 69 74  0  0  0  0  0  0  0  0999 V2000
    1.7183   -8.5961   24.3531 C   0  0  0  0  0  0  0  0  0  0  0  0
    2.1602   -7.8211   23.1281 C   0  0  1  0  0  0  0  0  0  0  0  0
    3.1275   -6.7063   23.5372 C   0  0  0  0  0  0  0  0  0  0  0  0
    3.7236   -6.0621   22.3119 N   0  0  1  0  0  4  0  0  0  0  0  0
    4.5099   -4.8267   22.5753 C   0  0  0  0  0  0  0  0  0  0  0  0
    5.7650   -5.0091   23.4289 C   0  0  0  0  0  0  0  0  0  0  0  0
    6.2773   -3.7141   23.8421 N   0  0  0  0  0  0  0  0  0  0  0  0
    7.4402   -3.1432   23.1990 C   0  0  0  0  0  0  0  0  0  0  0  0
    7.2796   -1.6398   22.8805 C   0  0  2  0  0  0  0  0  0  0  0  0
    6.2972   -1.4367   21.7095 C   0  0  0  0  0  0  0  0  0  0  0  0
    5.1993   -1.9422   21.5823 O   0  0  0  0  0  0  0  0  0  0  0  0
    6.8519   -0.5600   20.8122 N   0  0  0  0  0  0  0  0  0  0  0  0
    6.1012    0.0241   19.7600 C   0  0  0  0  0  0  0  0  0  0  0  0
    6.4576   -0.2243   18.4598 C   0  0  0  0  0  0  0  0  0  0  0  0
    5.8007    0.2532   17.3732 N   0  0  0  0  0  0  0  0  0  0  0  0
    4.7653    1.0259   17.5962 C   0  0  0  0  0  0  0  0  0  0  0  0
    4.3071    1.3946   18.8920 C   0  0  0  0  0  0  0  0  0  0  0  0
    3.1933    2.2570   19.0628 C   0  0  0  0  0  0  0  0  0  0  0  0
    2.7995    2.6428   20.3107 C   0  0  0  0  0  0  0  0  0  0  0  0
    3.5051    2.1848   21.4490 C   0  0  0  0  0  0  0  0  0  0  0  0
    4.5784    1.3389   21.3173 C   0  0  0  0  0  0  0  0  0  0  0  0
    4.9987    0.9028   20.0247 C   0  0  0  0  0  0  0  0  0  0  0  0
    5.1094    0.9989   22.2090 H   0  0  0  0  0  0  0  0  0  0  0  0
    3.1845    2.5059   22.4352 H   0  0  0  0  0  0  0  0  0  0  0  0
    1.9503    3.3091   20.4388 H   0  0  0  0  0  0  0  0  0  0  0  0
    2.6785    2.6124   18.1720 H   0  0  0  0  0  0  0  0  0  0  0  0
    4.2323    1.4075   16.7239 H   0  0  0  0  0  0  0  0  0  0  0  0
    7.3107   -0.8692   18.2525 H   0  0  0  0  0  0  0  0  0  0  0  0
    8.1796   -0.1109   21.1603 C   0  0  0  0  0  0  0  0  0  0  0  0
    8.6010   -0.9974   22.3580 C   0  0  2  0  0  0  0  0  0  0  0  0
    9.7100   -1.9812   21.9535 C   0  0  0  0  0  0  0  0  0  0  0  0
   10.6399   -1.4438   21.7590 H   0  0  0  0  0  0  0  0  0  0  0  0
    9.4411   -2.5525   21.0568 H   0  0  0  0  0  0  0  0  0  0  0  0
    9.9414   -2.6888   22.7523 H   0  0  0  0  0  0  0  0  0  0  0  0
    9.0246   -0.3873   23.1639 H   0  0  0  0  0  0  0  0  0  0  0  0
    8.1695    0.9623   21.4045 H   0  0  0  0  0  0  0  0  0  0  0  0
    8.8606   -0.2386   20.3162 H   0  0  0  0  0  0  0  0  0  0  0  0
    6.7437   -0.9347   24.1229 C   0  0  0  0  0  0  0  0  0  0  0  0
    6.9365    0.4421   24.3163 C   0  0  0  0  0  0  0  0  0  0  0  0
    6.4287    1.0623   25.4463 C   0  0  0  0  0  0  0  0  0  0  0  0
    6.7020    2.7678   25.6851 Cl  0  0  0  0  0  0  0  0  0  0  0  0
    5.7091    0.3533   26.4060 C   0  0  0  0  0  0  0  0  0  0  0  0
    5.4874   -0.9943   26.1998 C   0  0  0  0  0  0  0  0  0  0  0  0
    5.9895   -1.6355   25.0690 C   0  0  0  0  0  0  0  0  0  0  0  0
    5.6494   -3.0839   24.8760 C   0  0  0  0  0  0  0  0  0  0  0  0
    4.8185   -3.6485   25.5808 O   0  0  0  0  0  0  0  0  0  0  0  0
    4.9153   -1.5838   26.9069 H   0  0  0  0  0  0  0  0  0  0  0  0
    5.3274    0.8661   27.2824 H   0  0  0  0  0  0  0  0  0  0  0  0
    7.4851    1.0506   23.6016 H   0  0  0  0  0  0  0  0  0  0  0  0
    7.6292   -3.6864   22.2704 H   0  0  0  0  0  0  0  0  0  0  0  0
    8.3142   -3.2592   23.8550 H   0  0  0  0  0  0  0  0  0  0  0  0
    5.5561   -5.5813   24.3354 H   0  0  0  0  0  0  0  0  0  0  0  0
    6.5429   -5.5358   22.8646 H   0  0  0  0  0  0  0  0  0  0  0  0
    4.7944   -4.3841   21.6177 H   0  0  0  0  0  0  0  0  0  0  0  0
    3.8438   -4.1240   23.0790 H   0  0  0  0  0  0  0  0  0  0  0  0
    4.4206   -7.1295   21.5112 C   0  0  0  0  0  0  0  0  0  0  0  0
    3.3724   -8.1676   21.1083 C   0  0  0  0  0  0  0  0  0  0  0  0
    2.7554   -8.7426   22.2408 O   0  0  0  0  0  0  0  0  0  0  0  0
    3.8190   -9.0052   20.5719 H   0  0  0  0  0  0  0  0  0  0  0  0
    2.6032   -7.7434   20.4438 H   0  0  0  0  0  0  0  0  0  0  0  0
    4.9151   -6.7035   20.6351 H   0  0  0  0  0  0  0  0  0  0  0  0
    5.1903   -7.5894   22.1328 H   0  0  0  0  0  0  0  0  0  0  0  0
    2.9133   -5.7378   21.7497 H   0  0  0  0  0  0  0  0  0  0  0  0
    2.6033   -5.9468   24.1306 H   0  0  0  0  0  0  0  0  0  0  0  0
    3.9481   -7.1210   24.1336 H   0  0  0  0  0  0  0  0  0  0  0  0
    1.2999   -7.3490   22.6217 H   0  0  0  0  0  0  0  0  0  0  0  0
    1.1749   -9.4965   24.0605 H   0  0  0  0  0  0  0  0  0  0  0  0
    2.5946   -8.9039   24.9373 H   0  0  0  0  0  0  0  0  0  0  0  0
    1.0809   -7.9733   24.9865 H   0  0  0  0  0  0  0  0  0  0  0  0
  1  2  1  0
  2  3  1  0
  3  4  1  0
  4  5  1  0
  5  6  1  0
  6  7  1  0
  7  8  1  0
  9  8  1  1
  9 10  1  0
 10 11  2  0
 10 12  1  0
 12 13  1  0
 13 14  2  0
 14 15  1  0
 15 16  2  0
 16 17  1  0
 17 18  2  0
 18 19  1  0
 19 20  2  0
 20 21  1  0
 21 22  2  0
 21 23  1  0
 20 24  1  0
 19 25  1  0
 18 26  1  0
 16 27  1  0
 14 28  1  0
 12 29  1  0
 29 30  1  0
 30 31  1  0
 31 32  1  0
 31 33  1  0
 31 34  1  0
 30 35  1  1
 29 36  1  0
 29 37  1  0
  9 38  1  0
 38 39  2  0
 39 40  1  0
 40 41  1  0
 40 42  2  0
 42 43  1  0
 43 44  2  0
 44 45  1  0
 45 46  2  0
 43 47  1  0
 42 48  1  0
 39 49  1  0
  8 50  1  0
  8 51  1  0
  6 52  1  0
  6 53  1  0
  5 54  1  0
  5 55  1  0
  4 56  1  0
 56 57  1  0
 57 58  1  0
 57 59  1  0
 57 60  1  0
 56 61  1  0
 56 62  1  0
  4 63  1  6
  3 64  1  0
  3 65  1  0
  2 66  1  6
  1 67  1  0
  1 68  1  0
  1 69  1  0
 58  2  1  0
 45  7  1  0
 30  9  1  0
 44 38  1  0
 22 13  1  0
 22 17  1  0
M  CHG  1   4   1
M  END
>  <cnnaffinities>  (17) 
[6.2948]

>  <score>  (17) 
6.2948

>  <index>  (17) 
23

>  <Smiles>  (17) 
C([C@]1(C([N@@+](C(C(N2C([C@@]3(C(=O)N(c4c(nc(c5c(c(c(c(c45)[H])[H])[H])[H])[H])[H])C([C@@]3(C([H])([H])[H])[H])([H])[H])c3c(c(Cl)c(c(c3C2=O)[H])[H])[H])([H])[H])([H])[H])([H])[H])(C(C(O1)([H])[H])([H])[H])[H])([H])[H])[H])([H])([H])[H]

>  <h>  (17) 
<NA>

>  <Training>  (17) 
True

>  <Success>  (17) 
True

>  <enamine_searched>  (17) 
False

>  <enamine_id>  (17) 
nan

$$$$

     RDKit          3D

 70 75  0  0  0  0  0  0  0  0999 V2000
    4.7357   -7.0696   21.3343 C   0  0  0  0  0  0  0  0  0  0  0  0
    3.9223   -6.2637   22.2618 N   0  0  0  0  0  4  0  0  0  0  0  0
    4.5394   -4.9305   22.5357 C   0  0  0  0  0  0  0  0  0  0  0  0
    5.8047   -5.0312   23.3989 C   0  0  0  0  0  0  0  0  0  0  0  0
    6.2360   -3.7081   23.7999 N   0  0  0  0  0  0  0  0  0  0  0  0
    7.4066   -3.1207   23.1934 C   0  0  0  0  0  0  0  0  0  0  0  0
    7.2148   -1.6253   22.8774 C   0  0  2  0  0  0  0  0  0  0  0  0
    6.2586   -1.4390   21.6876 C   0  0  0  0  0  0  0  0  0  0  0  0
    5.1688   -1.9574   21.5302 O   0  0  0  0  0  0  0  0  0  0  0  0
    6.8286   -0.5614   20.8040 N   0  0  0  0  0  0  0  0  0  0  0  0
    6.0888    0.0300   19.7589 C   0  0  0  0  0  0  0  0  0  0  0  0
    6.4541   -0.2200   18.4624 C   0  0  0  0  0  0  0  0  0  0  0  0
    5.8015    0.2546   17.3749 N   0  0  0  0  0  0  0  0  0  0  0  0
    4.7647    1.0249   17.6036 C   0  0  0  0  0  0  0  0  0  0  0  0
    4.3068    1.3949   18.9002 C   0  0  0  0  0  0  0  0  0  0  0  0
    3.1926    2.2557   19.0646 C   0  0  0  0  0  0  0  0  0  0  0  0
    2.7937    2.6413   20.3112 C   0  0  0  0  0  0  0  0  0  0  0  0
    3.4954    2.1887   21.4537 C   0  0  0  0  0  0  0  0  0  0  0  0
    4.5723    1.3457   21.3303 C   0  0  0  0  0  0  0  0  0  0  0  0
    4.9930    0.9079   20.0346 C   0  0  0  0  0  0  0  0  0  0  0  0
    5.0994    1.0150   22.2292 H   0  0  0  0  0  0  0  0  0  0  0  0
    3.1691    2.5174   22.4361 H   0  0  0  0  0  0  0  0  0  0  0  0
    1.9456    3.3094   20.4312 H   0  0  0  0  0  0  0  0  0  0  0  0
    2.6854    2.6089   18.1698 H   0  0  0  0  0  0  0  0  0  0  0  0
    4.2281    1.4072   16.7350 H   0  0  0  0  0  0  0  0  0  0  0  0
    7.3117   -0.8646   18.2743 H   0  0  0  0  0  0  0  0  0  0  0  0
    8.1404   -0.0921   21.1803 C   0  0  0  0  0  0  0  0  0  0  0  0
    8.5202   -0.9486   22.3964 C   0  0  2  0  0  0  0  0  0  0  0  0
    9.6904   -1.8854   22.0955 C   0  0  0  0  0  0  0  0  0  0  0  0
   10.2334   -2.4265   23.2891 O   0  0  0  0  0  0  0  0  0  0  0  0
   11.2490   -1.5798   23.8077 C   0  0  0  0  0  0  0  0  0  0  0  0
   12.5111   -1.7970   23.0038 C   0  0  0  0  0  0  0  0  0  0  0  0
   12.9347   -3.2552   23.0688 C   0  0  0  0  0  0  0  0  0  0  0  0
   14.0626   -2.9361   23.9056 O   0  0  0  0  0  0  0  0  0  0  0  0
   13.8288   -1.5332   23.7066 C   0  0  0  0  0  0  0  0  0  0  0  0
   13.7972   -0.9796   24.6474 H   0  0  0  0  0  0  0  0  0  0  0  0
   14.5774   -1.1012   23.0417 H   0  0  0  0  0  0  0  0  0  0  0  0
   13.2366   -3.7085   22.1147 H   0  0  0  0  0  0  0  0  0  0  0  0
   12.1739   -3.8689   23.5688 H   0  0  0  0  0  0  0  0  0  0  0  0
   12.4665   -1.4290   21.9822 H   0  0  0  0  0  0  0  0  0  0  0  0
   10.9372   -0.5228   23.8098 H   0  0  0  0  0  0  0  0  0  0  0  0
   11.4075   -1.8977   24.8445 H   0  0  0  0  0  0  0  0  0  0  0  0
   10.4673   -1.2921   21.6336 H   0  0  0  0  0  0  0  0  0  0  0  0
    9.4141   -2.6922   21.3997 H   0  0  0  0  0  0  0  0  0  0  0  0
    8.8911   -0.3196   23.2104 H   0  0  0  0  0  0  0  0  0  0  0  0
    8.8440   -0.2188   20.3567 H   0  0  0  0  0  0  0  0  0  0  0  0
    8.1151    0.9818   21.4186 H   0  0  0  0  0  0  0  0  0  0  0  0
    6.6594   -0.9381   24.1133 C   0  0  0  0  0  0  0  0  0  0  0  0
    6.8571    0.4312   24.3353 C   0  0  0  0  0  0  0  0  0  0  0  0
    6.3218    1.0335   25.4596 C   0  0  0  0  0  0  0  0  0  0  0  0
    6.5799    2.7341   25.7123 Cl  0  0  0  0  0  0  0  0  0  0  0  0
    5.5849    0.3134   26.3963 C   0  0  0  0  0  0  0  0  0  0  0  0
    5.3736   -1.0318   26.1684 C   0  0  0  0  0  0  0  0  0  0  0  0
    5.8901   -1.6491   25.0327 C   0  0  0  0  0  0  0  0  0  0  0  0
    5.5650   -3.0942   24.8111 C   0  0  0  0  0  0  0  0  0  0  0  0
    4.7198   -3.6803   25.4821 O   0  0  0  0  0  0  0  0  0  0  0  0
    4.8011   -1.6422   26.8549 H   0  0  0  0  0  0  0  0  0  0  0  0
    5.1769    0.8088   27.2697 H   0  0  0  0  0  0  0  0  0  0  0  0
    7.4392    1.0383   23.6491 H   0  0  0  0  0  0  0  0  0  0  0  0
    8.2741   -3.2295   23.8479 H   0  0  0  0  0  0  0  0  0  0  0  0
    7.6217   -3.6545   22.2681 H   0  0  0  0  0  0  0  0  0  0  0  0
    6.6329   -5.5014   22.8531 H   0  0  0  0  0  0  0  0  0  0  0  0
    5.6237   -5.6108   24.3108 H   0  0  0  0  0  0  0  0  0  0  0  0
    3.8001   -4.3204   23.0419 H   0  0  0  0  0  0  0  0  0  0  0  0
    4.7874   -4.4404   21.5935 H   0  0  0  0  0  0  0  0  0  0  0  0
    2.9706   -6.1606   21.8656 H   0  0  0  0  0  0  0  0  0  0  0  0
    3.8679   -6.7757   23.1780 H   0  0  0  0  0  0  0  0  0  0  0  0
    4.9544   -6.5072   20.4215 H   0  0  0  0  0  0  0  0  0  0  0  0
    4.2267   -7.9952   21.0718 H   0  0  0  0  0  0  0  0  0  0  0  0
    5.6753   -7.2948   21.8203 H   0  0  0  0  0  0  0  0  0  0  0  0
  1  2  1  0
  2  3  1  0
  3  4  1  0
  4  5  1  0
  5  6  1  0
  7  6  1  1
  7  8  1  0
  8  9  2  0
  8 10  1  0
 10 11  1  0
 11 12  2  0
 12 13  1  0
 13 14  2  0
 14 15  1  0
 15 16  2  0
 16 17  1  0
 17 18  2  0
 18 19  1  0
 19 20  2  0
 19 21  1  0
 18 22  1  0
 17 23  1  0
 16 24  1  0
 14 25  1  0
 12 26  1  0
 10 27  1  0
 27 28  1  0
 28 29  1  0
 29 30  1  0
 30 31  1  0
 31 32  1  0
 32 33  1  0
 33 34  1  0
 34 35  1  0
 35 36  1  0
 35 37  1  0
 33 38  1  0
 33 39  1  0
 32 40  1  0
 31 41  1  0
 31 42  1  0
 29 43  1  0
 29 44  1  0
 28 45  1  1
 27 46  1  0
 27 47  1  0
  7 48  1  0
 48 49  2  0
 49 50  1  0
 50 51  1  0
 50 52  2  0
 52 53  1  0
 53 54  2  0
 54 55  1  0
 55 56  2  0
 53 57  1  0
 52 58  1  0
 49 59  1  0
  6 60  1  0
  6 61  1  0
  4 62  1  0
  4 63  1  0
  3 64  1  0
  3 65  1  0
  2 66  1  0
  2 67  1  0
  1 68  1  0
  1 69  1  0
  1 70  1  0
 55  5  1  0
 28  7  1  0
 35 32  1  0
 54 48  1  0
 20 11  1  0
 20 15  1  0
M  CHG  1   2   1
M  END
>  <cnnaffinities>  (18) 
[6.6942]

>  <score>  (18) 
6.6942

>  <index>  (18) 
24

>  <Smiles>  (18) 
C([N+](C(C(N1C([C@@]2(C(=O)N(c3c(nc(c4c(c(c(c(c34)[H])[H])[H])[H])[H])[H])C([C@@]2(C(OC(C2(C(OC2([H])[H])([H])[H])[H])([H])[H])([H])[H])[H])([H])[H])c2c(c(Cl)c(c(c2C1=O)[H])[H])[H])([H])[H])([H])[H])([H])[H])([H])[H])([H])([H])[H]

>  <h>  (18) 
<NA>

>  <Training>  (18) 
True

>  <Success>  (18) 
True

>  <enamine_searched>  (18) 
False

>  <enamine_id>  (18) 
nan

$$$$

     RDKit          3D

 43 47  0  0  0  0  0  0  0  0999 V2000
    8.8519    0.4561   20.4573 O   0  0  0  0  0  0  0  0  0  0  0  0
    8.2180   -0.4264   20.9821 C   0  0  0  0  0  0  0  0  0  0  0  0
    8.6159   -1.4240   21.8295 N   0  0  0  0  0  0  0  0  0  0  0  0
    7.5122   -2.0965   22.4812 C   0  0  1  0  0  0  0  0  0  0  0  0
    7.5748   -3.6391   22.5381 C   0  0  0  0  0  0  0  0  0  0  0  0
    7.6720   -3.5893   24.0982 C   0  0  2  0  0  0  0  0  0  0  0  0
    6.6099   -4.3422   24.8364 C   0  0  0  0  0  0  0  0  0  0  0  0
    5.2614   -4.0986   24.5575 C   0  0  0  0  0  0  0  0  0  0  0  0
    4.2554   -4.7871   25.2249 C   0  0  0  0  0  0  0  0  0  0  0  0
    4.5827   -5.7419   26.1872 C   0  0  0  0  0  0  0  0  0  0  0  0
    5.9164   -6.0032   26.4766 C   0  0  0  0  0  0  0  0  0  0  0  0
    6.9093   -5.3041   25.8012 C   0  0  0  0  0  0  0  0  0  0  0  0
    8.5688   -5.6706   26.2015 Cl  0  0  0  0  0  0  0  0  0  0  0  0
    6.2087   -6.7375   27.2218 H   0  0  0  0  0  0  0  0  0  0  0  0
    3.8003   -6.2817   26.7142 H   0  0  0  0  0  0  0  0  0  0  0  0
    3.2160   -4.5730   24.9918 H   0  0  0  0  0  0  0  0  0  0  0  0
    5.0104   -3.3525   23.8007 H   0  0  0  0  0  0  0  0  0  0  0  0
    7.4901   -2.0367   24.0356 C   0  0  0  0  0  0  0  0  0  0  0  0
    8.3053   -1.4453   24.4663 H   0  0  0  0  0  0  0  0  0  0  0  0
    6.5523   -1.6620   24.4652 H   0  0  0  0  0  0  0  0  0  0  0  0
    8.6621   -3.8771   24.4614 H   0  0  0  0  0  0  0  0  0  0  0  0
    8.4376   -4.0527   22.0090 H   0  0  0  0  0  0  0  0  0  0  0  0
    6.6675   -4.1173   22.1501 H   0  0  0  0  0  0  0  0  0  0  0  0
    6.3180   -1.5147   21.7457 C   0  0  0  0  0  0  0  0  0  0  0  0
    5.1502   -1.7907   21.9181 O   0  0  0  0  0  0  0  0  0  0  0  0
    6.8256   -0.5817   20.8405 N   0  0  0  0  0  0  0  0  0  0  0  0
    6.1071    0.0395   19.7807 C   0  0  0  0  0  0  0  0  0  0  0  0
    6.4586   -0.2311   18.4795 C   0  0  0  0  0  0  0  0  0  0  0  0
    5.7901    0.2348   17.3964 N   0  0  0  0  0  0  0  0  0  0  0  0
    4.7623    1.0170   17.6148 C   0  0  0  0  0  0  0  0  0  0  0  0
    4.3133    1.4109   18.9040 C   0  0  0  0  0  0  0  0  0  0  0  0
    3.1908    2.2665   19.0644 C   0  0  0  0  0  0  0  0  0  0  0  0
    2.7859    2.6486   20.3117 C   0  0  0  0  0  0  0  0  0  0  0  0
    3.4934    2.1932   21.4460 C   0  0  0  0  0  0  0  0  0  0  0  0
    4.5793    1.3615   21.3173 C   0  0  0  0  0  0  0  0  0  0  0  0
    5.0106    0.9293   20.0323 C   0  0  0  0  0  0  0  0  0  0  0  0
    5.1046    1.0125   22.2004 H   0  0  0  0  0  0  0  0  0  0  0  0
    3.1666    2.4991   22.4338 H   0  0  0  0  0  0  0  0  0  0  0  0
    1.9301    3.3082   20.4355 H   0  0  0  0  0  0  0  0  0  0  0  0
    2.6792    2.6154   18.1726 H   0  0  0  0  0  0  0  0  0  0  0  0
    4.2290    1.3785   16.7379 H   0  0  0  0  0  0  0  0  0  0  0  0
    7.3040   -0.8788   18.2559 H   0  0  0  0  0  0  0  0  0  0  0  0
    9.5778   -1.5851   22.0822 H   0  0  0  0  0  0  0  0  0  0  0  0
  1  2  2  0
  2  3  1  0
  4  3  1  6
  4  5  1  0
  5  6  1  0
  6  7  1  0
  7  8  2  0
  8  9  1  0
  9 10  2  0
 10 11  1  0
 11 12  2  0
 12 13  1  0
 11 14  1  0
 10 15  1  0
  9 16  1  0
  8 17  1  0
  6 18  1  0
 18 19  1  0
 18 20  1  0
  6 21  1  6
  5 22  1  0
  5 23  1  0
  4 24  1  0
 24 25  2  0
 24 26  1  0
 26 27  1  0
 27 28  2  0
 28 29  1  0
 29 30  2  0
 30 31  1  0
 31 32  2  0
 32 33  1  0
 33 34  2  0
 34 35  1  0
 35 36  2  0
 35 37  1  0
 34 38  1  0
 33 39  1  0
 32 40  1  0
 30 41  1  0
 28 42  1  0
  3 43  1  0
 26  2  1  0
 36 27  1  0
 18  4  1  0
 36 31  1  0
 12  7  1  0
M  END
>  <cnnaffinities>  (19) 
[5.84474]

>  <score>  (19) 
5.84474

>  <index>  (19) 
26

>  <Smiles>  (19) 
O=C1N([C@]2(C([C@](c3c(c(c(c(c3Cl)[H])[H])[H])[H])(C2([H])[H])[H])([H])[H])C(=O)N1c1c(nc(c2c(c(c(c(c12)[H])[H])[H])[H])[H])[H])[H]

>  <h>  (19) 
<NA>

>  <Training>  (19) 
True

>  <Success>  (19) 
True

>  <enamine_searched>  (19) 
False

>  <enamine_id>  (19) 
nan

$$$$

     RDKit          3D

 46 48  0  0  0  0  0  0  0  0999 V2000
    7.6408    0.6571   24.4154 C   0  0  0  0  0  0  0  0  0  0  0  0
    7.8403   -0.8004   24.7994 C   0  0  0  0  0  0  0  0  0  0  0  0
    7.7532   -1.7559   23.6053 C   0  0  1  0  0  0  0  0  0  0  0  0
    8.2457   -3.1876   23.9091 C   0  0  0  0  0  0  0  0  0  0  0  0
    7.2355   -4.1506   24.5484 C   0  0  1  0  0  0  0  0  0  0  0  0
    7.2220   -4.1399   26.0745 C   0  0  0  0  0  0  0  0  0  0  0  0
    6.5766   -3.0793   26.6033 F   0  0  0  0  0  0  0  0  0  0  0  0
    8.4575   -4.1515   26.6060 F   0  0  0  0  0  0  0  0  0  0  0  0
    6.5933   -5.2364   26.5539 F   0  0  0  0  0  0  0  0  0  0  0  0
    5.8330   -3.9984   23.9561 C   0  0  0  0  0  0  0  0  0  0  0  0
    5.4203   -2.5410   23.7732 C   0  0  0  0  0  0  0  0  0  0  0  0
    6.4112   -1.7875   23.0039 N   0  0  0  0  0  0  0  0  0  0  0  0
    6.1769   -1.6258   21.6388 C   0  0  0  0  0  0  0  0  0  0  0  0
    5.3624   -2.3070   21.0436 O   0  0  0  0  0  0  0  0  0  0  0  0
    6.9249   -0.4885   20.9084 C   0  0  0  0  0  0  0  0  0  0  0  0
    6.1181    0.0905   19.7666 C   0  0  0  0  0  0  0  0  0  0  0  0
    6.4222   -0.2139   18.4629 C   0  0  0  0  0  0  0  0  0  0  0  0
    5.7594    0.2383   17.3634 N   0  0  0  0  0  0  0  0  0  0  0  0
    4.7357    1.0324   17.5750 C   0  0  0  0  0  0  0  0  0  0  0  0
    4.2867    1.4216   18.8679 C   0  0  0  0  0  0  0  0  0  0  0  0
    3.1645    2.2722   19.0441 C   0  0  0  0  0  0  0  0  0  0  0  0
    2.7502    2.6284   20.3008 C   0  0  0  0  0  0  0  0  0  0  0  0
    3.4427    2.1436   21.4316 C   0  0  0  0  0  0  0  0  0  0  0  0
    4.5323    1.3170   21.2870 C   0  0  0  0  0  0  0  0  0  0  0  0
    4.9902    0.9362   19.9975 C   0  0  0  0  0  0  0  0  0  0  0  0
    5.0423    0.9488   22.1718 H   0  0  0  0  0  0  0  0  0  0  0  0
    3.1050    2.4238   22.4236 H   0  0  0  0  0  0  0  0  0  0  0  0
    1.8932    3.2823   20.4367 H   0  0  0  0  0  0  0  0  0  0  0  0
    2.6441    2.6440   18.1644 H   0  0  0  0  0  0  0  0  0  0  0  0
    4.1989    1.4008   16.6992 H   0  0  0  0  0  0  0  0  0  0  0  0
    7.2654   -0.8673   18.2460 H   0  0  0  0  0  0  0  0  0  0  0  0
    7.2162    0.3037   21.6130 H   0  0  0  0  0  0  0  0  0  0  0  0
    7.8577   -0.9069   20.5085 H   0  0  0  0  0  0  0  0  0  0  0  0
    4.4597   -2.4839   23.2573 H   0  0  0  0  0  0  0  0  0  0  0  0
    5.2883   -2.0704   24.7510 H   0  0  0  0  0  0  0  0  0  0  0  0
    5.8238   -4.4626   22.9681 H   0  0  0  0  0  0  0  0  0  0  0  0
    5.0977   -4.5396   24.5645 H   0  0  0  0  0  0  0  0  0  0  0  0
    7.5819   -5.1695   24.3410 H   0  0  0  0  0  0  0  0  0  0  0  0
    8.5470   -3.6352   22.9564 H   0  0  0  0  0  0  0  0  0  0  0  0
    9.1579   -3.1443   24.5132 H   0  0  0  0  0  0  0  0  0  0  0  0
    8.4346   -1.3650   22.8431 H   0  0  0  0  0  0  0  0  0  0  0  0
    8.8333   -0.9061   25.2545 H   0  0  0  0  0  0  0  0  0  0  0  0
    7.1254   -1.0879   25.5705 H   0  0  0  0  0  0  0  0  0  0  0  0
    7.7470    1.3091   25.2863 H   0  0  0  0  0  0  0  0  0  0  0  0
    8.3790    0.9802   23.6725 H   0  0  0  0  0  0  0  0  0  0  0  0
    6.6438    0.8192   23.9958 H   0  0  0  0  0  0  0  0  0  0  0  0
  1  2  1  0
  2  3  1  0
  3  4  1  0
  4  5  1  0
  5  6  1  0
  6  7  1  0
  6  8  1  0
  6  9  1  0
  5 10  1  0
 10 11  1  0
 11 12  1  0
 12 13  1  0
 13 14  2  0
 13 15  1  0
 15 16  1  0
 16 17  2  0
 17 18  1  0
 18 19  2  0
 19 20  1  0
 20 21  2  0
 21 22  1  0
 22 23  2  0
 23 24  1  0
 24 25  2  0
 24 26  1  0
 23 27  1  0
 22 28  1  0
 21 29  1  0
 19 30  1  0
 17 31  1  0
 15 32  1  0
 15 33  1  0
 11 34  1  0
 11 35  1  0
 10 36  1  0
 10 37  1  0
  5 38  1  1
  4 39  1  0
  4 40  1  0
  3 41  1  6
  2 42  1  0
  2 43  1  0
  1 44  1  0
  1 45  1  0
  1 46  1  0
 12  3  1  0
 25 16  1  0
 25 20  1  0
M  END
>  <cnnaffinities>  (20) 
[5.51683]

>  <score>  (20) 
5.51683

>  <index>  (20) 
27

>  <Smiles>  (20) 
C(C([C@]1(C([C@@](C(F)(F)F)(C(C(N1C(=O)C(c1c(nc(c2c(c(c(c(c12)[H])[H])[H])[H])[H])[H])([H])[H])([H])[H])([H])[H])[H])([H])[H])[H])([H])[H])([H])([H])[H]

>  <h>  (20) 
<NA>

>  <Training>  (20) 
True

>  <Success>  (20) 
True

>  <enamine_searched>  (20) 
False

>  <enamine_id>  (20) 
nan

$$$$

     RDKit          3D

 70 75  0  0  0  0  0  0  0  0999 V2000
    8.1287   -5.5655   25.9301 C   0  0  0  0  0  0  0  0  0  0  0  0
    6.8120   -6.0380   25.4372 N   0  0  0  0  0  4  0  0  0  0  0  0
    6.7410   -6.1466   23.9502 C   0  0  0  0  0  0  0  0  0  0  0  0
    5.7572   -5.1179   23.3762 C   0  0  0  0  0  0  0  0  0  0  0  0
    6.0752   -3.7544   23.7764 N   0  0  0  0  0  0  0  0  0  0  0  0
    7.2325   -3.1192   23.1586 C   0  0  0  0  0  0  0  0  0  0  0  0
    6.9905   -1.6155   22.9165 C   0  0  2  0  0  0  0  0  0  0  0  0
    6.0431   -1.4487   21.7114 C   0  0  0  0  0  0  0  0  0  0  0  0
    4.9805   -2.0115   21.5397 O   0  0  0  0  0  0  0  0  0  0  0  0
    6.5842   -0.5340   20.8429 N   0  0  0  0  0  0  0  0  0  0  0  0
    5.8600   -0.0054   19.7462 C   0  0  0  0  0  0  0  0  0  0  0  0
    6.2639   -0.2764   18.4626 C   0  0  0  0  0  0  0  0  0  0  0  0
    5.6633    0.2007   17.3441 N   0  0  0  0  0  0  0  0  0  0  0  0
    4.6371    0.9992   17.5165 C   0  0  0  0  0  0  0  0  0  0  0  0
    4.1267    1.3813   18.7889 C   0  0  0  0  0  0  0  0  0  0  0  0
    3.0365    2.2825   18.9036 C   0  0  0  0  0  0  0  0  0  0  0  0
    2.5898    2.6800   20.1317 C   0  0  0  0  0  0  0  0  0  0  0  0
    3.2016    2.1788   21.3033 C   0  0  0  0  0  0  0  0  0  0  0  0
    4.2440    1.2877   21.2224 C   0  0  0  0  0  0  0  0  0  0  0  0
    4.7428    0.8691   19.9519 C   0  0  0  0  0  0  0  0  0  0  0  0
    4.6832    0.8970   22.1382 H   0  0  0  0  0  0  0  0  0  0  0  0
    2.8424    2.4997   22.2773 H   0  0  0  0  0  0  0  0  0  0  0  0
    1.7705    3.3885   20.2155 H   0  0  0  0  0  0  0  0  0  0  0  0
    2.5874    2.6612   17.9902 H   0  0  0  0  0  0  0  0  0  0  0  0
    4.1561    1.3933   16.6225 H   0  0  0  0  0  0  0  0  0  0  0  0
    7.1153   -0.9353   18.3007 H   0  0  0  0  0  0  0  0  0  0  0  0
    7.9470   -0.1604   21.1372 C   0  0  0  0  0  0  0  0  0  0  0  0
    8.2751   -0.8240   22.4967 C   0  0  2  0  0  0  0  0  0  0  0  0
    9.6028   -1.5900   22.3911 C   0  0  0  0  0  0  0  0  0  0  0  0
   10.3700   -1.5350   23.5726 O   0  0  0  0  0  0  0  0  0  0  0  0
   11.7367   -1.6298   23.3316 C   0  0  0  0  0  0  0  0  0  0  0  0
   12.1593   -2.8422   23.9616 C   0  0  0  0  0  0  0  0  0  0  0  0
   10.2102   -3.9595   23.8698 F   0  0  0  0  0  0  0  0  0  0  0  0
   12.1134   -2.9310   25.5460 C   0  0  0  0  0  0  0  0  0  0  0  0
   12.8014   -3.7623   26.1469 O   0  0  0  0  0  0  0  0  0  0  0  0
   12.4975   -2.9477   23.8387 C   0  0  0  0  0  0  0  0  0  0  0  0
   13.5792   -2.7060   23.8468 H   0  0  0  0  0  0  0  0  0  0  0  0
   13.1028   -3.5652   23.0940 H   0  0  0  0  0  0  0  0  0  0  0  0
   12.3085   -1.8361   25.6750 H   0  0  0  0  0  0  0  0  0  0  0  0
   11.0063   -3.0567   25.6486 H   0  0  0  0  0  0  0  0  0  0  0  0
   11.9409   -1.6647   22.2758 H   0  0  0  0  0  0  0  0  0  0  0  0
   12.2050   -0.7575   23.7821 H   0  0  0  0  0  0  0  0  0  0  0  0
    9.4457   -2.6326   22.0909 H   0  0  0  0  0  0  0  0  0  0  0  0
   10.1964   -1.1312   21.6030 H   0  0  0  0  0  0  0  0  0  0  0  0
    8.4520   -0.0503   23.2486 H   0  0  0  0  0  0  0  0  0  0  0  0
    8.6186   -0.5141   20.3474 H   0  0  0  0  0  0  0  0  0  0  0  0
    8.0467    0.9321   21.1749 H   0  0  0  0  0  0  0  0  0  0  0  0
    6.3202   -1.0087   24.1494 C   0  0  0  0  0  0  0  0  0  0  0  0
    6.2368    0.3857   24.2817 C   0  0  0  0  0  0  0  0  0  0  0  0
    5.6536    0.9501   25.4051 C   0  0  0  0  0  0  0  0  0  0  0  0
    5.5479    2.6833   25.5367 Cl  0  0  0  0  0  0  0  0  0  0  0  0
    5.1420    0.1580   26.4325 C   0  0  0  0  0  0  0  0  0  0  0  0
    5.1569   -1.2142   26.2783 C   0  0  0  0  0  0  0  0  0  0  0  0
    5.7067   -1.7959   25.1327 C   0  0  0  0  0  0  0  0  0  0  0  0
    5.5856   -3.2703   24.9484 C   0  0  0  0  0  0  0  0  0  0  0  0
    5.0690   -4.0102   25.7949 O   0  0  0  0  0  0  0  0  0  0  0  0
    4.7212   -1.8643   27.0296 H   0  0  0  0  0  0  0  0  0  0  0  0
    4.7321    0.6226   27.3235 H   0  0  0  0  0  0  0  0  0  0  0  0
    6.6114    1.0513   23.5061 H   0  0  0  0  0  0  0  0  0  0  0  0
    7.4117   -3.6162   22.2024 H   0  0  0  0  0  0  0  0  0  0  0  0
    8.1331   -3.2537   23.7804 H   0  0  0  0  0  0  0  0  0  0  0  0
    5.7399   -5.1459   22.2812 H   0  0  0  0  0  0  0  0  0  0  0  0
    4.7452   -5.3283   23.7336 H   0  0  0  0  0  0  0  0  0  0  0  0
    6.4299   -7.1552   23.6664 H   0  0  0  0  0  0  0  0  0  0  0  0
    7.7441   -5.9788   23.5387 H   0  0  0  0  0  0  0  0  0  0  0  0
    6.0617   -5.3858   25.7599 H   0  0  0  0  0  0  0  0  0  0  0  0
    6.6189   -6.9617   25.8562 H   0  0  0  0  0  0  0  0  0  0  0  0
    8.9479   -6.1569   25.5092 H   0  0  0  0  0  0  0  0  0  0  0  0
    8.1748   -5.6189   27.0179 H   0  0  0  0  0  0  0  0  0  0  0  0
    8.3098   -4.5289   25.6279 H   0  0  0  0  0  0  0  0  0  0  0  0
  1  2  1  0
  2  3  1  0
  3  4  1  0
  4  5  1  0
  5  6  1  0
  7  6  1  1
  7  8  1  0
  8  9  2  0
  8 10  1  0
 10 11  1  0
 11 12  2  0
 12 13  1  0
 13 14  2  0
 14 15  1  0
 15 16  2  0
 16 17  1  0
 17 18  2  0
 18 19  1  0
 19 20  2  0
 19 21  1  0
 18 22  1  0
 17 23  1  0
 16 24  1  0
 14 25  1  0
 12 26  1  0
 10 27  1  0
 27 28  1  0
 28 29  1  0
 29 30  1  0
 30 31  1  0
 31 32  1  0
 32 33  1  0
 32 34  1  0
 34 35  1  0
 35 36  1  0
 36 37  1  0
 36 38  1  0
 34 39  1  0
 34 40  1  0
 31 41  1  0
 31 42  1  0
 29 43  1  0
 29 44  1  0
 28 45  1  1
 27 46  1  0
 27 47  1  0
  7 48  1  0
 48 49  2  0
 49 50  1  0
 50 51  1  0
 50 52  2  0
 52 53  1  0
 53 54  2  0
 54 55  1  0
 55 56  2  0
 53 57  1  0
 52 58  1  0
 49 59  1  0
  6 60  1  0
  6 61  1  0
  4 62  1  0
  4 63  1  0
  3 64  1  0
  3 65  1  0
  2 66  1  0
  2 67  1  0
  1 68  1  0
  1 69  1  0
  1 70  1  0
 55  5  1  0
 28  7  1  0
 36 32  1  0
 54 48  1  0
 20 11  1  0
 20 15  1  0
M  CHG  1   2   1
M  END
>  <cnnaffinities>  (21) 
[6.87966]

>  <score>  (21) 
6.87966

>  <index>  (21) 
28

>  <Smiles>  (21) 
C([N+](C(C(N1C([C@@]2(C(=O)N(c3c(nc(c4c(c(c(c(c34)[H])[H])[H])[H])[H])[H])C([C@@]2(C(OC(C2(F)C(OC2([H])[H])([H])[H])([H])[H])([H])[H])[H])([H])[H])c2c(c(Cl)c(c(c2C1=O)[H])[H])[H])([H])[H])([H])[H])([H])[H])([H])[H])([H])([H])[H]

>  <h>  (21) 
<NA>

>  <Training>  (21) 
True

>  <Success>  (21) 
True

>  <enamine_searched>  (21) 
False

>  <enamine_id>  (21) 
nan

$$$$

     RDKit          3D

 67 72  0  0  0  0  0  0  0  0999 V2000
    5.5145   -6.9237   25.7027 C   0  0  0  0  0  0  0  0  0  0  0  0
    6.7136   -6.2943   25.1067 N   0  0  0  0  0  4  0  0  0  0  0  0
    6.6059   -6.0968   23.6295 C   0  0  0  0  0  0  0  0  0  0  0  0
    5.7274   -4.8847   23.2956 C   0  0  0  0  0  0  0  0  0  0  0  0
    6.2462   -3.6649   23.8787 N   0  0  0  0  0  0  0  0  0  0  0  0
    7.4203   -3.1013   23.2583 C   0  0  0  0  0  0  0  0  0  0  0  0
    7.2539   -1.6131   22.8968 C   0  0  2  0  0  0  0  0  0  0  0  0
    6.2857   -1.4294   21.7145 C   0  0  0  0  0  0  0  0  0  0  0  0
    5.1894   -1.9385   21.5770 O   0  0  0  0  0  0  0  0  0  0  0  0
    6.8464   -0.5545   20.8186 N   0  0  0  0  0  0  0  0  0  0  0  0
    6.0964    0.0330   19.7716 C   0  0  0  0  0  0  0  0  0  0  0  0
    6.4546   -0.2236   18.4735 C   0  0  0  0  0  0  0  0  0  0  0  0
    5.7978    0.2461   17.3857 N   0  0  0  0  0  0  0  0  0  0  0  0
    4.7623    1.0210   17.6060 C   0  0  0  0  0  0  0  0  0  0  0  0
    4.3077    1.3996   18.9011 C   0  0  0  0  0  0  0  0  0  0  0  0
    3.1928    2.2619   19.0638 C   0  0  0  0  0  0  0  0  0  0  0  0
    2.7909    2.6513   20.3092 C   0  0  0  0  0  0  0  0  0  0  0  0
    3.4917    2.1987   21.4514 C   0  0  0  0  0  0  0  0  0  0  0  0
    4.5705    1.3584   21.3284 C   0  0  0  0  0  0  0  0  0  0  0  0
    4.9960    0.9152   20.0369 C   0  0  0  0  0  0  0  0  0  0  0  0
    5.0994    1.0342   22.2276 H   0  0  0  0  0  0  0  0  0  0  0  0
    3.1632    2.5183   22.4365 H   0  0  0  0  0  0  0  0  0  0  0  0
    1.9367    3.3127   20.4313 H   0  0  0  0  0  0  0  0  0  0  0  0
    2.6827    2.6139   18.1708 H   0  0  0  0  0  0  0  0  0  0  0  0
    4.2256    1.3958   16.7336 H   0  0  0  0  0  0  0  0  0  0  0  0
    7.3065   -0.8738   18.2726 H   0  0  0  0  0  0  0  0  0  0  0  0
    8.1742   -0.1124   21.1758 C   0  0  0  0  0  0  0  0  0  0  0  0
    8.5671   -0.9851   22.3815 C   0  0  2  0  0  0  0  0  0  0  0  0
    9.7056   -1.9504   22.0111 C   0  0  0  0  0  0  0  0  0  0  0  0
   10.2379   -2.6677   23.1668 N   0  0  0  0  0  0  0  0  0  0  0  0
   11.1664   -2.0728   23.9607 C   0  0  0  0  0  0  0  0  0  0  0  0
   11.3361   -0.7487   23.8343 N   0  0  0  0  0  0  0  0  0  0  0  0
   12.4471   -0.2946   24.3959 C   0  0  0  0  0  0  0  0  0  0  0  0
   13.2406   -0.9802   25.2087 N   0  0  0  0  0  0  0  0  0  0  0  0
   12.8133   -2.2299   25.4489 C   0  0  0  0  0  0  0  0  0  0  0  0
   11.8178   -2.8526   24.8459 N   0  0  0  0  0  0  0  0  0  0  0  0
   13.3114   -2.7959   26.2406 H   0  0  0  0  0  0  0  0  0  0  0  0
   12.7177    0.7434   24.1807 H   0  0  0  0  0  0  0  0  0  0  0  0
   10.3758   -3.6635   23.0733 H   0  0  0  0  0  0  0  0  0  0  0  0
    9.4169   -2.6495   21.2187 H   0  0  0  0  0  0  0  0  0  0  0  0
   10.5230   -1.3382   21.6544 H   0  0  0  0  0  0  0  0  0  0  0  0
    8.9970   -0.3808   23.1802 H   0  0  0  0  0  0  0  0  0  0  0  0
    8.1582    0.9598   21.4240 H   0  0  0  0  0  0  0  0  0  0  0  0
    8.8686   -0.2527   20.3443 H   0  0  0  0  0  0  0  0  0  0  0  0
    6.7234   -0.8883   24.1269 C   0  0  0  0  0  0  0  0  0  0  0  0
    6.9532    0.4833   24.3198 C   0  0  0  0  0  0  0  0  0  0  0  0
    6.4321    1.1184   25.4340 C   0  0  0  0  0  0  0  0  0  0  0  0
    6.7196    2.8244   25.6586 Cl  0  0  0  0  0  0  0  0  0  0  0  0
    5.6750    0.4248   26.3777 C   0  0  0  0  0  0  0  0  0  0  0  0
    5.4269   -0.9195   26.1769 C   0  0  0  0  0  0  0  0  0  0  0  0
    5.9345   -1.5720   25.0585 C   0  0  0  0  0  0  0  0  0  0  0  0
    5.5817   -3.0207   24.8716 C   0  0  0  0  0  0  0  0  0  0  0  0
    4.7449   -3.5848   25.5724 O   0  0  0  0  0  0  0  0  0  0  0  0
    4.8300   -1.5087   26.8642 H   0  0  0  0  0  0  0  0  0  0  0  0
    5.2786    0.9542   27.2356 H   0  0  0  0  0  0  0  0  0  0  0  0
    7.5496    1.0679   23.6218 H   0  0  0  0  0  0  0  0  0  0  0  0
    7.6203   -3.6589   22.3400 H   0  0  0  0  0  0  0  0  0  0  0  0
    8.2661   -3.1991   23.9411 H   0  0  0  0  0  0  0  0  0  0  0  0
    4.7167   -4.9988   23.6914 H   0  0  0  0  0  0  0  0  0  0  0  0
    5.6731   -4.7388   22.2104 H   0  0  0  0  0  0  0  0  0  0  0  0
    7.6202   -5.9694   23.2531 H   0  0  0  0  0  0  0  0  0  0  0  0
    6.1806   -6.9877   23.1679 H   0  0  0  0  0  0  0  0  0  0  0  0
    7.5537   -6.8639   25.3362 H   0  0  0  0  0  0  0  0  0  0  0  0
    6.8285   -5.3452   25.5323 H   0  0  0  0  0  0  0  0  0  0  0  0
    5.6948   -7.1468   26.7519 H   0  0  0  0  0  0  0  0  0  0  0  0
    5.2633   -7.8556   25.1880 H   0  0  0  0  0  0  0  0  0  0  0  0
    4.6644   -6.2470   25.6324 H   0  0  0  0  0  0  0  0  0  0  0  0
  1  2  1  0
  2  3  1  0
  3  4  1  0
  4  5  1  0
  5  6  1  0
  7  6  1  1
  7  8  1  0
  8  9  2  0
  8 10  1  0
 10 11  1  0
 11 12  2  0
 12 13  1  0
 13 14  2  0
 14 15  1  0
 15 16  2  0
 16 17  1  0
 17 18  2  0
 18 19  1  0
 19 20  2  0
 19 21  1  0
 18 22  1  0
 17 23  1  0
 16 24  1  0
 14 25  1  0
 12 26  1  0
 10 27  1  0
 27 28  1  0
 28 29  1  0
 29 30  1  0
 30 31  1  0
 31 32  2  0
 32 33  1  0
 33 34  2  0
 34 35  1  0
 35 36  2  0
 35 37  1  0
 33 38  1  0
 30 39  1  0
 29 40  1  0
 29 41  1  0
 28 42  1  1
 27 43  1  0
 27 44  1  0
  7 45  1  0
 45 46  2  0
 46 47  1  0
 47 48  1  0
 47 49  2  0
 49 50  1  0
 50 51  2  0
 51 52  1  0
 52 53  2  0
 50 54  1  0
 49 55  1  0
 46 56  1  0
  6 57  1  0
  6 58  1  0
  4 59  1  0
  4 60  1  0
  3 61  1  0
  3 62  1  0
  2 63  1  0
  2 64  1  0
  1 65  1  0
  1 66  1  0
  1 67  1  0
 52  5  1  0
 28  7  1  0
 36 31  1  0
 51 45  1  0
 20 11  1  0
 20 15  1  0
M  CHG  1   2   1
M  END
>  <cnnaffinities>  (22) 
[7.07618]

>  <score>  (22) 
7.07618

>  <index>  (22) 
29

>  <Smiles>  (22) 
C([N+](C(C(N1C([C@@]2(C(=O)N(c3c(nc(c4c(c(c(c(c34)[H])[H])[H])[H])[H])[H])C([C@@]2(C(N(c2nc(nc(n2)[H])[H])[H])([H])[H])[H])([H])[H])c2c(c(Cl)c(c(c2C1=O)[H])[H])[H])([H])[H])([H])[H])([H])[H])([H])[H])([H])([H])[H]

>  <h>  (22) 
<NA>

>  <Training>  (22) 
True

>  <Success>  (22) 
True

>  <enamine_searched>  (22) 
False

>  <enamine_id>  (22) 
nan

$$$$

     RDKit          3D

 72 77  0  0  0  0  0  0  0  0999 V2000
    9.6692   -2.1327   21.9105 C   0  0  0  0  0  0  0  0  0  0  0  0
    8.6174   -1.0848   22.3009 C   0  0  1  0  0  0  0  0  0  0  0  0
    8.2047   -0.2188   21.0918 C   0  0  0  0  0  0  0  0  0  0  0  0
    6.8303   -0.5690   20.8211 N   0  0  0  0  0  0  0  0  0  0  0  0
    6.0914    0.0265   19.7746 C   0  0  0  0  0  0  0  0  0  0  0  0
    6.4527   -0.2253   18.4732 C   0  0  0  0  0  0  0  0  0  0  0  0
    5.7974    0.2438   17.3853 N   0  0  0  0  0  0  0  0  0  0  0  0
    4.7613    1.0206   17.6031 C   0  0  0  0  0  0  0  0  0  0  0  0
    4.3088    1.3967   18.9014 C   0  0  0  0  0  0  0  0  0  0  0  0
    3.1937    2.2602   19.0613 C   0  0  0  0  0  0  0  0  0  0  0  0
    2.7936    2.6509   20.3093 C   0  0  0  0  0  0  0  0  0  0  0  0
    3.4931    2.2007   21.4515 C   0  0  0  0  0  0  0  0  0  0  0  0
    4.5716    1.3564   21.3292 C   0  0  0  0  0  0  0  0  0  0  0  0
    4.9930    0.9117   20.0354 C   0  0  0  0  0  0  0  0  0  0  0  0
    5.1059    1.0353   22.2239 H   0  0  0  0  0  0  0  0  0  0  0  0
    3.1685    2.5253   22.4366 H   0  0  0  0  0  0  0  0  0  0  0  0
    1.9387    3.3111   20.4307 H   0  0  0  0  0  0  0  0  0  0  0  0
    2.6816    2.6111   18.1708 H   0  0  0  0  0  0  0  0  0  0  0  0
    4.2246    1.3999   16.7336 H   0  0  0  0  0  0  0  0  0  0  0  0
    7.3030   -0.8775   18.2754 H   0  0  0  0  0  0  0  0  0  0  0  0
    6.2733   -1.4243   21.7327 C   0  0  0  0  0  0  0  0  0  0  0  0
    5.1579   -1.9050   21.6413 O   0  0  0  0  0  0  0  0  0  0  0  0
    7.2865   -1.6672   22.8654 C   0  0  1  0  0  0  0  0  0  0  0  0
    7.4092   -3.1695   23.1403 C   0  0  0  0  0  0  0  0  0  0  0  0
    6.3095   -3.7083   23.9090 N   0  0  0  0  0  0  0  0  0  0  0  0
    5.8743   -5.0584   23.6157 C   0  0  0  0  0  0  0  0  0  0  0  0
    4.5884   -5.1155   22.7844 C   0  0  0  0  0  0  0  0  0  0  0  0
    3.3647   -4.8553   23.6162 N   0  0  1  0  0  4  0  0  0  0  0  0
    2.9888   -3.4067   23.5442 C   0  0  0  0  0  0  0  0  0  0  0  0
    1.6758   -3.1322   24.2604 C   0  0  0  0  0  0  0  0  0  0  0  0
    0.6250   -3.9259   23.7451 O   0  0  0  0  0  0  0  0  0  0  0  0
    0.8635   -5.3342   23.8718 C   0  0  0  0  0  0  0  0  0  0  0  0
    0.8752   -5.7465   25.3398 C   0  0  0  0  0  0  0  0  0  0  0  0
   -0.0509   -5.4237   25.8274 H   0  0  0  0  0  0  0  0  0  0  0  0
    0.9564   -6.8353   25.4158 H   0  0  0  0  0  0  0  0  0  0  0  0
    1.7236   -5.3123   25.8752 H   0  0  0  0  0  0  0  0  0  0  0  0
   -0.2961   -6.0211   23.1538 C   0  0  0  0  0  0  0  0  0  0  0  0
   -0.1734   -7.1118   23.1549 H   0  0  0  0  0  0  0  0  0  0  0  0
   -1.2419   -5.7890   23.6535 H   0  0  0  0  0  0  0  0  0  0  0  0
   -0.3771   -5.6810   22.1168 H   0  0  0  0  0  0  0  0  0  0  0  0
    2.1850   -5.6949   23.1770 C   0  0  0  0  0  0  0  0  0  0  0  0
    2.0620   -5.5194   22.1067 H   0  0  0  0  0  0  0  0  0  0  0  0
    2.4061   -6.7558   23.3324 H   0  0  0  0  0  0  0  0  0  0  0  0
    1.3812   -2.0888   24.0925 H   0  0  0  0  0  0  0  0  0  0  0  0
    1.8094   -3.2787   25.3419 H   0  0  0  0  0  0  0  0  0  0  0  0
    2.9403   -3.1584   22.4836 H   0  0  0  0  0  0  0  0  0  0  0  0
    3.7759   -2.7874   23.9580 H   0  0  0  0  0  0  0  0  0  0  0  0
    3.6195   -5.0459   24.5991 H   0  0  0  0  0  0  0  0  0  0  0  0
    4.5005   -6.1093   22.3392 H   0  0  0  0  0  0  0  0  0  0  0  0
    4.6175   -4.3731   21.9767 H   0  0  0  0  0  0  0  0  0  0  0  0
    5.7210   -5.5764   24.5659 H   0  0  0  0  0  0  0  0  0  0  0  0
    6.6882   -5.5555   23.0806 H   0  0  0  0  0  0  0  0  0  0  0  0
    5.8005   -3.0832   25.0053 C   0  0  0  0  0  0  0  0  0  0  0  0
    5.0034   -3.6462   25.7582 O   0  0  0  0  0  0  0  0  0  0  0  0
    6.1756   -1.6384   25.1598 C   0  0  0  0  0  0  0  0  0  0  0  0
    5.7812   -0.9708   26.3195 C   0  0  0  0  0  0  0  0  0  0  0  0
    6.0027    0.3886   26.4544 C   0  0  0  0  0  0  0  0  0  0  0  0
    6.6209    1.0787   25.4112 C   0  0  0  0  0  0  0  0  0  0  0  0
    6.8766    2.8011   25.5536 Cl  0  0  0  0  0  0  0  0  0  0  0  0
    7.0384    0.4249   24.2645 C   0  0  0  0  0  0  0  0  0  0  0  0
    6.8410   -0.9578   24.1337 C   0  0  0  0  0  0  0  0  0  0  0  0
    7.5282    1.0008   23.4823 H   0  0  0  0  0  0  0  0  0  0  0  0
    5.6800    0.9324   27.3353 H   0  0  0  0  0  0  0  0  0  0  0  0
    5.2832   -1.5450   27.0961 H   0  0  0  0  0  0  0  0  0  0  0  0
    7.4622   -3.6965   22.1825 H   0  0  0  0  0  0  0  0  0  0  0  0
    8.3392   -3.3362   23.6924 H   0  0  0  0  0  0  0  0  0  0  0  0
    8.8323   -0.4282   20.2235 H   0  0  0  0  0  0  0  0  0  0  0  0
    8.2756    0.8559   21.2979 H   0  0  0  0  0  0  0  0  0  0  0  0
    9.0837   -0.4759   23.0829 H   0  0  0  0  0  0  0  0  0  0  0  0
    9.9057   -2.7945   22.7450 H   0  0  0  0  0  0  0  0  0  0  0  0
   10.6148   -1.6737   21.6225 H   0  0  0  0  0  0  0  0  0  0  0  0
    9.3314   -2.7580   21.0788 H   0  0  0  0  0  0  0  0  0  0  0  0
  1  2  1  0
  2  3  1  0
  3  4  1  0
  4  5  1  0
  5  6  2  0
  6  7  1  0
  7  8  2  0
  8  9  1  0
  9 10  2  0
 10 11  1  0
 11 12  2  0
 12 13  1  0
 13 14  2  0
 13 15  1  0
 12 16  1  0
 11 17  1  0
 10 18  1  0
  8 19  1  0
  6 20  1  0
  4 21  1  0
 21 22  2  0
 21 23  1  0
 23 24  1  1
 24 25  1  0
 25 26  1  0
 26 27  1  0
 27 28  1  0
 28 29  1  0
 29 30  1  0
 30 31  1  0
 31 32  1  0
 32 33  1  0
 33 34  1  0
 33 35  1  0
 33 36  1  0
 32 37  1  0
 37 38  1  0
 37 39  1  0
 37 40  1  0
 32 41  1  0
 41 42  1  0
 41 43  1  0
 30 44  1  0
 30 45  1  0
 29 46  1  0
 29 47  1  0
 28 48  1  1
 27 49  1  0
 27 50  1  0
 26 51  1  0
 26 52  1  0
 25 53  1  0
 53 54  2  0
 53 55  1  0
 55 56  2  0
 56 57  1  0
 57 58  2  0
 58 59  1  0
 58 60  1  0
 60 61  2  0
 60 62  1  0
 57 63  1  0
 56 64  1  0
 24 65  1  0
 24 66  1  0
  3 67  1  0
  3 68  1  0
  2 69  1  1
  1 70  1  0
  1 71  1  0
  1 72  1  0
 23  2  1  0
 41 28  1  0
 61 55  1  0
 14  5  1  0
 61 23  1  0
 14  9  1  0
M  CHG  1  28   1
M  END
>  <cnnaffinities>  (23) 
[6.23678, 6.33168]

>  <score>  (23) 
6.23678

>  <index>  (23) 
32

>  <Smiles>  (23) 
C([C@]1(C(N(c2c(nc(c3c(c(c(c(c23)[H])[H])[H])[H])[H])[H])C(=O)[C@]21C(N(C(C([N@+]1(C(C(OC(C([H])([H])[H])(C([H])([H])[H])C1([H])[H])([H])[H])([H])[H])[H])([H])[H])([H])[H])C(=O)c1c(c(c(Cl)c(c21)[H])[H])[H])([H])[H])([H])[H])[H])([H])([H])[H]

>  <h>  (23) 
<NA>

>  <Training>  (23) 
True

>  <Success>  (23) 
True

>  <enamine_searched>  (23) 
False

>  <enamine_id>  (23) 
nan

$$$$

     RDKit          3D

 44 47  0  0  0  0  0  0  0  0999 V2000
    5.4444   -2.3987   20.9432 O   0  0  0  0  0  0  0  0  0  0  0  0
    6.2321   -1.7172   21.5851 C   0  0  0  0  0  0  0  0  0  0  0  0
    6.9130   -0.4906   20.9239 C   0  0  0  0  0  0  0  0  0  0  0  0
    6.1135    0.0834   19.7718 C   0  0  0  0  0  0  0  0  0  0  0  0
    6.4209   -0.2150   18.4677 C   0  0  0  0  0  0  0  0  0  0  0  0
    5.7590    0.2397   17.3654 N   0  0  0  0  0  0  0  0  0  0  0  0
    4.7364    1.0322   17.5761 C   0  0  0  0  0  0  0  0  0  0  0  0
    4.2857    1.4220   18.8690 C   0  0  0  0  0  0  0  0  0  0  0  0
    3.1647    2.2726   19.0458 C   0  0  0  0  0  0  0  0  0  0  0  0
    2.7519    2.6297   20.2983 C   0  0  0  0  0  0  0  0  0  0  0  0
    3.4490    2.1412   21.4284 C   0  0  0  0  0  0  0  0  0  0  0  0
    4.5349    1.3136   21.2927 C   0  0  0  0  0  0  0  0  0  0  0  0
    4.9889    0.9357   20.0009 C   0  0  0  0  0  0  0  0  0  0  0  0
    5.0484    0.9465   22.1810 H   0  0  0  0  0  0  0  0  0  0  0  0
    3.1101    2.4288   22.4169 H   0  0  0  0  0  0  0  0  0  0  0  0
    1.8957    3.2858   20.4376 H   0  0  0  0  0  0  0  0  0  0  0  0
    2.6462    2.6443   18.1637 H   0  0  0  0  0  0  0  0  0  0  0  0
    4.2000    1.4007   16.6981 H   0  0  0  0  0  0  0  0  0  0  0  0
    7.2653   -0.8664   18.2450 H   0  0  0  0  0  0  0  0  0  0  0  0
    7.8739   -0.8397   20.5200 H   0  0  0  0  0  0  0  0  0  0  0  0
    7.1576    0.2943   21.6509 H   0  0  0  0  0  0  0  0  0  0  0  0
    6.5546   -2.0570   22.8728 N   0  0  0  0  0  0  0  0  0  0  0  0
    6.0867   -3.3286   23.4231 C   0  0  0  0  0  0  0  0  0  0  0  0
    6.6001   -3.3628   24.8648 C   0  0  0  0  0  0  0  0  0  0  0  0
    7.6639   -2.2660   24.9550 C   0  0  0  0  0  0  0  0  0  0  0  0
    7.3551   -1.2849   23.8127 C   0  0  2  0  0  0  0  0  0  0  0  0
    6.6479   -0.0320   24.2982 C   0  0  0  0  0  0  0  0  0  0  0  0
    7.3304    1.1829   24.3531 C   0  0  0  0  0  0  0  0  0  0  0  0
    6.6923    2.3321   24.8055 C   0  0  0  0  0  0  0  0  0  0  0  0
    5.3697    2.2928   25.2259 C   0  0  0  0  0  0  0  0  0  0  0  0
    4.7235    1.0676   25.1921 C   0  0  0  0  0  0  0  0  0  0  0  0
    3.4432    1.0105   25.5946 F   0  0  0  0  0  0  0  0  0  0  0  0
    5.3319   -0.0926   24.7459 C   0  0  0  0  0  0  0  0  0  0  0  0
    4.7630   -1.0179   24.7455 H   0  0  0  0  0  0  0  0  0  0  0  0
    4.8445    3.1791   25.5657 H   0  0  0  0  0  0  0  0  0  0  0  0
    7.2261    3.2728   24.8152 H   0  0  0  0  0  0  0  0  0  0  0  0
    8.3679    1.2293   24.0300 H   0  0  0  0  0  0  0  0  0  0  0  0
    8.2881   -0.9862   23.3321 H   0  0  0  0  0  0  0  0  0  0  0  0
    7.6559   -1.7664   25.9256 H   0  0  0  0  0  0  0  0  0  0  0  0
    8.6671   -2.6854   24.8400 H   0  0  0  0  0  0  0  0  0  0  0  0
    7.0162   -4.3377   25.1234 H   0  0  0  0  0  0  0  0  0  0  0  0
    5.7940   -3.1831   25.5807 H   0  0  0  0  0  0  0  0  0  0  0  0
    6.4905   -4.1487   22.8252 H   0  0  0  0  0  0  0  0  0  0  0  0
    4.9964   -3.4125   23.3742 H   0  0  0  0  0  0  0  0  0  0  0  0
  1  2  2  0
  2  3  1  0
  3  4  1  0
  4  5  2  0
  5  6  1  0
  6  7  2  0
  7  8  1  0
  8  9  2  0
  9 10  1  0
 10 11  2  0
 11 12  1  0
 12 13  2  0
 12 14  1  0
 11 15  1  0
 10 16  1  0
  9 17  1  0
  7 18  1  0
  5 19  1  0
  3 20  1  0
  3 21  1  0
  2 22  1  0
 22 23  1  0
 23 24  1  0
 24 25  1  0
 25 26  1  0
 26 27  1  0
 27 28  2  0
 28 29  1  0
 29 30  2  0
 30 31  1  0
 31 32  1  0
 31 33  2  0
 33 34  1  0
 30 35  1  0
 29 36  1  0
 28 37  1  0
 26 38  1  6
 25 39  1  0
 25 40  1  0
 24 41  1  0
 24 42  1  0
 23 43  1  0
 23 44  1  0
 13  4  1  0
 26 22  1  0
 33 27  1  0
 13  8  1  0
M  END
>  <cnnaffinities>  (24) 
[5.60627, 5.60537]

>  <score>  (24) 
5.60627

>  <index>  (24) 
33

>  <Smiles>  (24) 
O=C(C(c1c(nc(c2c(c(c(c(c12)[H])[H])[H])[H])[H])[H])([H])[H])N1C(C(C([C@@]1(c1c(c(c(c(F)c1[H])[H])[H])[H])[H])([H])[H])([H])[H])([H])[H]

>  <h>  (24) 
<NA>

>  <Training>  (24) 
True

>  <Success>  (24) 
True

>  <enamine_searched>  (24) 
False

>  <enamine_id>  (24) 
nan

$$$$

     RDKit          3D

 51 54  0  0  0  0  0  0  0  0999 V2000
   12.8649   -3.0728   26.1605 N   0  0  0  0  0  0  0  0  0  0  0  0
   12.6782   -2.4001   25.2407 C   0  0  0  0  0  0  0  0  0  0  0  0
   12.3897   -1.5810   24.0522 C   0  0  0  0  0  0  0  0  0  0  0  0
   11.0046   -1.8592   23.5108 C   0  0  0  0  0  0  0  0  0  0  0  0
    9.9020   -1.1593   23.9854 C   0  0  0  0  0  0  0  0  0  0  0  0
    8.6235   -1.4370   23.5165 C   0  0  0  0  0  0  0  0  0  0  0  0
    8.4204   -2.4315   22.5560 C   0  0  0  0  0  0  0  0  0  0  0  0
    7.1166   -2.7354   22.0509 N   0  0  0  0  0  0  0  0  0  0  0  0
    6.5245   -4.0271   22.4443 C   0  0  0  0  0  0  0  0  0  0  0  0
    5.9704   -4.0297   23.8589 C   0  0  0  0  0  0  0  0  0  0  0  0
    6.8206   -4.2271   24.9480 C   0  0  0  0  0  0  0  0  0  0  0  0
    6.3252   -4.1489   26.2436 C   0  0  0  0  0  0  0  0  0  0  0  0
    4.9830   -3.8757   26.4721 C   0  0  0  0  0  0  0  0  0  0  0  0
    4.1472   -3.6757   25.3833 C   0  0  0  0  0  0  0  0  0  0  0  0
    2.4674   -3.3265   25.6529 Cl  0  0  0  0  0  0  0  0  0  0  0  0
    4.6227   -3.7511   24.0818 C   0  0  0  0  0  0  0  0  0  0  0  0
    3.9549   -3.5729   23.2442 H   0  0  0  0  0  0  0  0  0  0  0  0
    4.5952   -3.8160   27.4829 H   0  0  0  0  0  0  0  0  0  0  0  0
    6.9932   -4.3008   27.0846 H   0  0  0  0  0  0  0  0  0  0  0  0
    7.8802   -4.4226   24.7830 H   0  0  0  0  0  0  0  0  0  0  0  0
    5.7457   -4.2920   21.7271 H   0  0  0  0  0  0  0  0  0  0  0  0
    7.2999   -4.7970   22.3640 H   0  0  0  0  0  0  0  0  0  0  0  0
    6.2912   -1.7702   21.4924 C   0  0  0  0  0  0  0  0  0  0  0  0
    5.0848   -1.9389   21.4069 O   0  0  0  0  0  0  0  0  0  0  0  0
    6.9387   -0.5063   20.8863 C   0  0  0  0  0  0  0  0  0  0  0  0
    6.1191    0.0924   19.7664 C   0  0  0  0  0  0  0  0  0  0  0  0
    6.4205   -0.2103   18.4643 C   0  0  0  0  0  0  0  0  0  0  0  0
    5.7584    0.2376   17.3620 N   0  0  0  0  0  0  0  0  0  0  0  0
    4.7357    1.0326   17.5753 C   0  0  0  0  0  0  0  0  0  0  0  0
    4.2850    1.4228   18.8682 C   0  0  0  0  0  0  0  0  0  0  0  0
    3.1604    2.2741   19.0435 C   0  0  0  0  0  0  0  0  0  0  0  0
    2.7453    2.6243   20.2987 C   0  0  0  0  0  0  0  0  0  0  0  0
    3.4342    2.1368   21.4294 C   0  0  0  0  0  0  0  0  0  0  0  0
    4.5239    1.3143   21.2879 C   0  0  0  0  0  0  0  0  0  0  0  0
    4.9861    0.9350   19.9993 C   0  0  0  0  0  0  0  0  0  0  0  0
    5.0255    0.9277   22.1687 H   0  0  0  0  0  0  0  0  0  0  0  0
    3.0915    2.4111   22.4214 H   0  0  0  0  0  0  0  0  0  0  0  0
    1.8876    3.2758   20.4338 H   0  0  0  0  0  0  0  0  0  0  0  0
    2.6412    2.6455   18.1621 H   0  0  0  0  0  0  0  0  0  0  0  0
    4.1971    1.4012   16.6997 H   0  0  0  0  0  0  0  0  0  0  0  0
    7.2635   -0.8652   18.2481 H   0  0  0  0  0  0  0  0  0  0  0  0
    7.9410   -0.7530   20.5189 H   0  0  0  0  0  0  0  0  0  0  0  0
    7.0824    0.2354   21.6806 H   0  0  0  0  0  0  0  0  0  0  0  0
    9.5201   -3.1623   22.1123 C   0  0  0  0  0  0  0  0  0  0  0  0
   10.7960   -2.8667   22.5768 C   0  0  0  0  0  0  0  0  0  0  0  0
   11.6521   -3.4301   22.2205 H   0  0  0  0  0  0  0  0  0  0  0  0
    9.3813   -3.9421   21.3703 H   0  0  0  0  0  0  0  0  0  0  0  0
    7.7765   -0.8853   23.9117 H   0  0  0  0  0  0  0  0  0  0  0  0
   10.0450   -0.3853   24.7346 H   0  0  0  0  0  0  0  0  0  0  0  0
   12.4948   -0.5304   24.3301 H   0  0  0  0  0  0  0  0  0  0  0  0
   13.1541   -1.7938   23.3013 H   0  0  0  0  0  0  0  0  0  0  0  0
  1  2  3  0
  2  3  1  0
  3  4  1  0
  4  5  2  0
  5  6  1  0
  6  7  2  0
  7  8  1  0
  8  9  1  0
  9 10  1  0
 10 11  2  0
 11 12  1  0
 12 13  2  0
 13 14  1  0
 14 15  1  0
 14 16  2  0
 16 17  1  0
 13 18  1  0
 12 19  1  0
 11 20  1  0
  9 21  1  0
  9 22  1  0
  8 23  1  0
 23 24  2  0
 23 25  1  0
 25 26  1  0
 26 27  2  0
 27 28  1  0
 28 29  2  0
 29 30  1  0
 30 31  2  0
 31 32  1  0
 32 33  2  0
 33 34  1  0
 34 35  2  0
 34 36  1  0
 33 37  1  0
 32 38  1  0
 31 39  1  0
 29 40  1  0
 27 41  1  0
 25 42  1  0
 25 43  1  0
  7 44  1  0
 44 45  2  0
 45 46  1  0
 44 47  1  0
  6 48  1  0
  5 49  1  0
  3 50  1  0
  3 51  1  0
 45  4  1  0
 16 10  1  0
 35 26  1  0
 35 30  1  0
M  END
>  <cnnaffinities>  (25) 
[6.42706]

>  <score>  (25) 
6.42706

>  <index>  (25) 
35

>  <Smiles>  (25) 
N#CC(c1c(c(c(N(C(c2c(c(c(c(Cl)c2[H])[H])[H])[H])([H])[H])C(=O)C(c2c(nc(c3c(c(c(c(c23)[H])[H])[H])[H])[H])[H])([H])[H])c(c1[H])[H])[H])[H])([H])[H]

>  <h>  (25) 
<NA>

>  <Training>  (25) 
True

>  <Success>  (25) 
True

>  <enamine_searched>  (25) 
False

>  <enamine_id>  (25) 
nan

$$$$

     RDKit          3D

 48 51  0  0  0  0  0  0  0  0999 V2000
   13.4256   -1.3709   24.3318 N   0  0  0  0  0  0  0  0  0  0  0  0
   12.3605   -1.6060   23.9414 C   0  0  0  0  0  0  0  0  0  0  0  0
   11.0240   -1.8922   23.4696 C   0  0  0  0  0  0  0  0  0  0  0  0
    9.9270   -1.1776   23.9583 C   0  0  0  0  0  0  0  0  0  0  0  0
    8.6471   -1.4540   23.4943 C   0  0  0  0  0  0  0  0  0  0  0  0
    8.4334   -2.4450   22.5316 C   0  0  0  0  0  0  0  0  0  0  0  0
    7.1237   -2.7417   22.0384 N   0  0  0  0  0  0  0  0  0  0  0  0
    6.5280   -4.0351   22.4240 C   0  0  0  0  0  0  0  0  0  0  0  0
    5.9678   -4.0423   23.8357 C   0  0  0  0  0  0  0  0  0  0  0  0
    6.8150   -4.2329   24.9280 C   0  0  0  0  0  0  0  0  0  0  0  0
    6.3148   -4.1598   26.2219 C   0  0  0  0  0  0  0  0  0  0  0  0
    4.9693   -3.8993   26.4460 C   0  0  0  0  0  0  0  0  0  0  0  0
    4.1352   -3.7075   25.3542 C   0  0  0  0  0  0  0  0  0  0  0  0
    2.4508   -3.3743   25.6178 Cl  0  0  0  0  0  0  0  0  0  0  0  0
    4.6164   -3.7782   24.0543 C   0  0  0  0  0  0  0  0  0  0  0  0
    3.9492   -3.6060   23.2147 H   0  0  0  0  0  0  0  0  0  0  0  0
    4.5768   -3.8434   27.4555 H   0  0  0  0  0  0  0  0  0  0  0  0
    6.9812   -4.3054   27.0655 H   0  0  0  0  0  0  0  0  0  0  0  0
    7.8765   -4.4193   24.7671 H   0  0  0  0  0  0  0  0  0  0  0  0
    7.3042   -4.8038   22.3441 H   0  0  0  0  0  0  0  0  0  0  0  0
    5.7508   -4.2972   21.7027 H   0  0  0  0  0  0  0  0  0  0  0  0
    6.2919   -1.7733   21.4882 C   0  0  0  0  0  0  0  0  0  0  0  0
    5.0892   -1.9390   21.4120 O   0  0  0  0  0  0  0  0  0  0  0  0
    6.9392   -0.5067   20.8859 C   0  0  0  0  0  0  0  0  0  0  0  0
    6.1184    0.0923   19.7661 C   0  0  0  0  0  0  0  0  0  0  0  0
    6.4207   -0.2102   18.4643 C   0  0  0  0  0  0  0  0  0  0  0  0
    5.7583    0.2378   17.3627 N   0  0  0  0  0  0  0  0  0  0  0  0
    4.7357    1.0326   17.5758 C   0  0  0  0  0  0  0  0  0  0  0  0
    4.2849    1.4227   18.8677 C   0  0  0  0  0  0  0  0  0  0  0  0
    3.1609    2.2737   19.0434 C   0  0  0  0  0  0  0  0  0  0  0  0
    2.7455    2.6241   20.2986 C   0  0  0  0  0  0  0  0  0  0  0  0
    3.4342    2.1367   21.4294 C   0  0  0  0  0  0  0  0  0  0  0  0
    4.5240    1.3139   21.2875 C   0  0  0  0  0  0  0  0  0  0  0  0
    4.9863    0.9349   19.9994 C   0  0  0  0  0  0  0  0  0  0  0  0
    5.0254    0.9273   22.1688 H   0  0  0  0  0  0  0  0  0  0  0  0
    3.0913    2.4112   22.4217 H   0  0  0  0  0  0  0  0  0  0  0  0
    1.8873    3.2760   20.4336 H   0  0  0  0  0  0  0  0  0  0  0  0
    2.6417    2.6453   18.1619 H   0  0  0  0  0  0  0  0  0  0  0  0
    4.1973    1.4012   16.6998 H   0  0  0  0  0  0  0  0  0  0  0  0
    7.2637   -0.8654   18.2482 H   0  0  0  0  0  0  0  0  0  0  0  0
    7.9425   -0.7517   20.5190 H   0  0  0  0  0  0  0  0  0  0  0  0
    7.0822    0.2328   21.6826 H   0  0  0  0  0  0  0  0  0  0  0  0
    9.5259   -3.1751   22.0690 C   0  0  0  0  0  0  0  0  0  0  0  0
   10.8088   -2.8931   22.5187 C   0  0  0  0  0  0  0  0  0  0  0  0
   11.6633   -3.4408   22.1430 H   0  0  0  0  0  0  0  0  0  0  0  0
    9.3743   -3.9484   21.3237 H   0  0  0  0  0  0  0  0  0  0  0  0
    7.8049   -0.9016   23.8975 H   0  0  0  0  0  0  0  0  0  0  0  0
   10.0842   -0.4002   24.6988 H   0  0  0  0  0  0  0  0  0  0  0  0
  1  2  3  0
  2  3  1  0
  3  4  2  0
  4  5  1  0
  5  6  2  0
  6  7  1  0
  7  8  1  0
  8  9  1  0
  9 10  2  0
 10 11  1  0
 11 12  2  0
 12 13  1  0
 13 14  1  0
 13 15  2  0
 15 16  1  0
 12 17  1  0
 11 18  1  0
 10 19  1  0
  8 20  1  0
  8 21  1  0
  7 22  1  0
 22 23  2  0
 22 24  1  0
 24 25  1  0
 25 26  2  0
 26 27  1  0
 27 28  2  0
 28 29  1  0
 29 30  2  0
 30 31  1  0
 31 32  2  0
 32 33  1  0
 33 34  2  0
 33 35  1  0
 32 36  1  0
 31 37  1  0
 30 38  1  0
 28 39  1  0
 26 40  1  0
 24 41  1  0
 24 42  1  0
  6 43  1  0
 43 44  2  0
 44 45  1  0
 43 46  1  0
  5 47  1  0
  4 48  1  0
 44  3  1  0
 15  9  1  0
 34 25  1  0
 34 29  1  0
M  END
>  <cnnaffinities>  (26) 
[6.50376]

>  <score>  (26) 
6.50376

>  <index>  (26) 
37

>  <Smiles>  (26) 
N#Cc1c(c(c(N(C(c2c(c(c(c(Cl)c2[H])[H])[H])[H])([H])[H])C(=O)C(c2c(nc(c3c(c(c(c(c23)[H])[H])[H])[H])[H])[H])([H])[H])c(c1[H])[H])[H])[H]

>  <h>  (26) 
<NA>

>  <Training>  (26) 
True

>  <Success>  (26) 
True

>  <enamine_searched>  (26) 
False

>  <enamine_id>  (26) 
nan

$$$$

     RDKit          3D

 72 77  0  0  0  0  0  0  0  0999 V2000
    2.8789   -5.4591   23.2646 C   0  0  0  0  0  0  0  0  0  0  0  0
    3.7404   -4.5278   22.4838 N   0  0  0  0  0  4  0  0  0  0  0  0
    5.0587   -5.1459   22.1417 C   0  0  0  0  0  0  0  0  0  0  0  0
    5.9822   -5.1724   23.3597 C   0  0  0  0  0  0  0  0  0  0  0  0
    6.2792   -3.8097   23.7765 N   0  0  0  0  0  0  0  0  0  0  0  0
    7.4197   -3.1727   23.1504 C   0  0  0  0  0  0  0  0  0  0  0  0
    7.1885   -1.6673   22.8815 C   0  0  2  0  0  0  0  0  0  0  0  0
    6.2263   -1.5059   21.6854 C   0  0  0  0  0  0  0  0  0  0  0  0
    5.1493   -2.0673   21.5396 O   0  0  0  0  0  0  0  0  0  0  0  0
    6.7802   -0.6125   20.8032 N   0  0  0  0  0  0  0  0  0  0  0  0
    6.0530   -0.0073   19.7555 C   0  0  0  0  0  0  0  0  0  0  0  0
    6.4474   -0.2292   18.4615 C   0  0  0  0  0  0  0  0  0  0  0  0
    5.8084    0.2633   17.3754 N   0  0  0  0  0  0  0  0  0  0  0  0
    4.7693    1.0323   17.6005 C   0  0  0  0  0  0  0  0  0  0  0  0
    4.2984    1.3848   18.8975 C   0  0  0  0  0  0  0  0  0  0  0  0
    3.1885    2.2484   19.0645 C   0  0  0  0  0  0  0  0  0  0  0  0
    2.7971    2.6338   20.3144 C   0  0  0  0  0  0  0  0  0  0  0  0
    3.4973    2.1767   21.4548 C   0  0  0  0  0  0  0  0  0  0  0  0
    4.5637    1.3197   21.3307 C   0  0  0  0  0  0  0  0  0  0  0  0
    4.9712    0.8846   20.0299 C   0  0  0  0  0  0  0  0  0  0  0  0
    5.0970    0.9821   22.2231 H   0  0  0  0  0  0  0  0  0  0  0  0
    3.1784    2.5079   22.4378 H   0  0  0  0  0  0  0  0  0  0  0  0
    1.9536    3.3065   20.4375 H   0  0  0  0  0  0  0  0  0  0  0  0
    2.6853    2.6084   18.1731 H   0  0  0  0  0  0  0  0  0  0  0  0
    4.2411    1.4238   16.7321 H   0  0  0  0  0  0  0  0  0  0  0  0
    7.3148   -0.8612   18.2707 H   0  0  0  0  0  0  0  0  0  0  0  0
    8.0923   -0.1232   21.1690 C   0  0  0  0  0  0  0  0  0  0  0  0
    8.4792   -0.9270   22.4187 C   0  0  2  0  0  0  0  0  0  0  0  0
    9.7135   -1.7942   22.1991 C   0  0  0  0  0  0  0  0  0  0  0  0
   10.2056   -2.2635   23.4417 O   0  0  0  0  0  0  0  0  0  0  0  0
   11.2655   -1.4763   23.9433 C   0  0  0  0  0  0  0  0  0  0  0  0
   12.5156   -1.7347   23.1329 C   0  0  0  0  0  0  0  0  0  0  0  0
   13.8423   -1.2427   23.7579 C   0  0  0  0  0  0  0  0  0  0  0  0
   14.2675   -2.9537   24.1668 S   0  0  0  0  0  0  0  0  0  0  0  0
   15.4986   -3.4104   23.5447 O   0  0  0  0  0  0  0  0  0  0  0  0
   13.9751   -3.2435   25.5589 O   0  0  0  0  0  0  0  0  0  0  0  0
   12.8307   -3.2347   23.1175 C   0  0  0  0  0  0  0  0  0  0  0  0
   12.0720   -3.8398   23.6026 H   0  0  0  0  0  0  0  0  0  0  0  0
   13.1263   -3.6181   22.1378 H   0  0  0  0  0  0  0  0  0  0  0  0
   13.8033   -0.6027   24.6420 H   0  0  0  0  0  0  0  0  0  0  0  0
   14.5214   -0.8489   23.0014 H   0  0  0  0  0  0  0  0  0  0  0  0
   12.4161   -1.4241   22.0983 H   0  0  0  0  0  0  0  0  0  0  0  0
   11.4178   -1.7976   24.9759 H   0  0  0  0  0  0  0  0  0  0  0  0
   11.0120   -0.4078   23.9586 H   0  0  0  0  0  0  0  0  0  0  0  0
    9.5115   -2.6452   21.5393 H   0  0  0  0  0  0  0  0  0  0  0  0
   10.4761   -1.1831   21.7253 H   0  0  0  0  0  0  0  0  0  0  0  0
    8.7933   -0.2506   23.2218 H   0  0  0  0  0  0  0  0  0  0  0  0
    8.0590    0.9566   21.3812 H   0  0  0  0  0  0  0  0  0  0  0  0
    8.8023   -0.2592   20.3470 H   0  0  0  0  0  0  0  0  0  0  0  0
    6.5933   -1.0159   24.1264 C   0  0  0  0  0  0  0  0  0  0  0  0
    6.7452    0.3640   24.3521 C   0  0  0  0  0  0  0  0  0  0  0  0
    6.2325    0.9477   25.4982 C   0  0  0  0  0  0  0  0  0  0  0  0
    6.4767    2.6549   25.7694 Cl  0  0  0  0  0  0  0  0  0  0  0  0
    5.5538    0.1852   26.4463 C   0  0  0  0  0  0  0  0  0  0  0  0
    5.3654   -1.1659   26.2089 C   0  0  0  0  0  0  0  0  0  0  0  0
    5.8590   -1.7681   25.0476 C   0  0  0  0  0  0  0  0  0  0  0  0
    5.5642   -3.2217   24.7786 C   0  0  0  0  0  0  0  0  0  0  0  0
    4.6774   -3.8214   25.3794 O   0  0  0  0  0  0  0  0  0  0  0  0
    4.8357   -1.7834   26.9252 H   0  0  0  0  0  0  0  0  0  0  0  0
    5.1786    0.6524   27.3500 H   0  0  0  0  0  0  0  0  0  0  0  0
    7.2725    1.0041   23.6488 H   0  0  0  0  0  0  0  0  0  0  0  0
    7.5992   -3.6586   22.1840 H   0  0  0  0  0  0  0  0  0  0  0  0
    8.3118   -3.2909   23.7739 H   0  0  0  0  0  0  0  0  0  0  0  0
    5.5374   -5.6968   24.2073 H   0  0  0  0  0  0  0  0  0  0  0  0
    6.9237   -5.6719   23.1088 H   0  0  0  0  0  0  0  0  0  0  0  0
    4.8963   -6.1515   21.7452 H   0  0  0  0  0  0  0  0  0  0  0  0
    5.5011   -4.5204   21.3716 H   0  0  0  0  0  0  0  0  0  0  0  0
    3.2453   -4.2682   21.6076 H   0  0  0  0  0  0  0  0  0  0  0  0
    3.9013   -3.6355   22.9981 H   0  0  0  0  0  0  0  0  0  0  0  0
    3.2689   -5.5798   24.2745 H   0  0  0  0  0  0  0  0  0  0  0  0
    2.8656   -6.4394   22.7764 H   0  0  0  0  0  0  0  0  0  0  0  0
    1.8614   -5.0755   23.3172 H   0  0  0  0  0  0  0  0  0  0  0  0
  1  2  1  0
  2  3  1  0
  3  4  1  0
  4  5  1  0
  5  6  1  0
  7  6  1  1
  7  8  1  0
  8  9  2  0
  8 10  1  0
 10 11  1  0
 11 12  2  0
 12 13  1  0
 13 14  2  0
 14 15  1  0
 15 16  2  0
 16 17  1  0
 17 18  2  0
 18 19  1  0
 19 20  2  0
 19 21  1  0
 18 22  1  0
 17 23  1  0
 16 24  1  0
 14 25  1  0
 12 26  1  0
 10 27  1  0
 27 28  1  0
 28 29  1  0
 29 30  1  0
 30 31  1  0
 31 32  1  0
 32 33  1  0
 33 34  1  0
 34 35  2  0
 34 36  2  0
 34 37  1  0
 37 38  1  0
 37 39  1  0
 33 40  1  0
 33 41  1  0
 32 42  1  0
 31 43  1  0
 31 44  1  0
 29 45  1  0
 29 46  1  0
 28 47  1  1
 27 48  1  0
 27 49  1  0
  7 50  1  0
 50 51  2  0
 51 52  1  0
 52 53  1  0
 52 54  2  0
 54 55  1  0
 55 56  2  0
 56 57  1  0
 57 58  2  0
 55 59  1  0
 54 60  1  0
 51 61  1  0
  6 62  1  0
  6 63  1  0
  4 64  1  0
  4 65  1  0
  3 66  1  0
  3 67  1  0
  2 68  1  0
  2 69  1  0
  1 70  1  0
  1 71  1  0
  1 72  1  0
 57  5  1  0
 28  7  1  0
 37 32  1  0
 56 50  1  0
 20 11  1  0
 20 15  1  0
M  CHG  1   2   1
M  END
>  <cnnaffinities>  (27) 
[6.70916]

>  <score>  (27) 
6.70916

>  <index>  (27) 
38

>  <Smiles>  (27) 
C([N+](C(C(N1C([C@@]2(C(=O)N(c3c(nc(c4c(c(c(c(c34)[H])[H])[H])[H])[H])[H])C([C@@]2(C(OC(C2(C(S(=O)(=O)C2([H])[H])([H])[H])[H])([H])[H])([H])[H])[H])([H])[H])c2c(c(Cl)c(c(c2C1=O)[H])[H])[H])([H])[H])([H])[H])([H])[H])([H])[H])([H])([H])[H]

>  <h>  (27) 
<NA>

>  <Training>  (27) 
True

>  <Success>  (27) 
True

>  <enamine_searched>  (27) 
False

>  <enamine_id>  (27) 
nan

$$$$

     RDKit          3D

 60 64  0  0  0  0  0  0  0  0999 V2000
   11.5188   -2.8433   21.8887 C   0  0  0  0  0  0  0  0  0  0  0  0
   10.5821   -1.7998   22.4364 C   0  0  0  0  0  0  0  0  0  0  0  0
    9.2758   -2.0624   21.9668 O   0  0  0  0  0  0  0  0  0  0  0  0
    8.3818   -1.0308   22.3456 C   0  0  1  0  0  0  0  0  0  0  0  0
    8.0315   -0.1784   21.1208 C   0  0  0  0  0  0  0  0  0  0  0  0
    6.7013   -0.6164   20.7788 N   0  0  0  0  0  0  0  0  0  0  0  0
    6.0026   -0.0031   19.7168 C   0  0  0  0  0  0  0  0  0  0  0  0
    6.4010   -0.2104   18.4203 C   0  0  0  0  0  0  0  0  0  0  0  0
    5.7689    0.2967   17.3339 N   0  0  0  0  0  0  0  0  0  0  0  0
    4.7280    1.0659   17.5501 C   0  0  0  0  0  0  0  0  0  0  0  0
    4.2528    1.4133   18.8480 C   0  0  0  0  0  0  0  0  0  0  0  0
    3.1429    2.2774   19.0312 C   0  0  0  0  0  0  0  0  0  0  0  0
    2.7672    2.6640   20.2867 C   0  0  0  0  0  0  0  0  0  0  0  0
    3.4887    2.2185   21.4182 C   0  0  0  0  0  0  0  0  0  0  0  0
    4.5536    1.3665   21.2739 C   0  0  0  0  0  0  0  0  0  0  0  0
    4.9324    0.9094   19.9764 C   0  0  0  0  0  0  0  0  0  0  0  0
    5.1157    1.0452   22.1517 H   0  0  0  0  0  0  0  0  0  0  0  0
    3.1912    2.5496   22.4082 H   0  0  0  0  0  0  0  0  0  0  0  0
    1.9175    3.3257   20.4244 H   0  0  0  0  0  0  0  0  0  0  0  0
    2.6189    2.6328   18.1479 H   0  0  0  0  0  0  0  0  0  0  0  0
    4.2153    1.4679   16.6751 H   0  0  0  0  0  0  0  0  0  0  0  0
    7.2618   -0.8442   18.2094 H   0  0  0  0  0  0  0  0  0  0  0  0
    6.1055   -1.4558   21.6935 C   0  0  0  0  0  0  0  0  0  0  0  0
    5.0025   -1.9446   21.5501 O   0  0  0  0  0  0  0  0  0  0  0  0
    7.0723   -1.6570   22.8859 C   0  0  1  0  0  0  0  0  0  0  0  0
    7.3234   -3.1592   23.1845 C   0  0  0  0  0  0  0  0  0  0  0  0
    6.2886   -3.8168   23.9665 N   0  0  0  0  0  0  0  0  0  0  0  0
    5.9879   -5.2051   23.6146 C   0  0  0  0  0  0  0  0  0  0  0  0
    4.7120   -5.2679   22.7570 C   0  0  0  0  0  0  0  0  0  0  0  0
    4.7627   -5.3599   21.5422 O   0  0  0  0  0  0  0  0  0  0  0  0
    3.5525   -5.1362   23.4582 N   0  0  0  0  0  0  0  0  0  0  0  0
    2.3653   -4.6893   22.7564 C   0  0  0  0  0  0  0  0  0  0  0  0
    1.6475   -4.2893   23.4784 H   0  0  0  0  0  0  0  0  0  0  0  0
    1.9198   -5.5291   22.2234 H   0  0  0  0  0  0  0  0  0  0  0  0
    2.6237   -3.9204   22.0229 H   0  0  0  0  0  0  0  0  0  0  0  0
    3.6536   -4.9056   24.4401 H   0  0  0  0  0  0  0  0  0  0  0  0
    5.9174   -5.8034   24.5292 H   0  0  0  0  0  0  0  0  0  0  0  0
    6.8135   -5.5840   23.0018 H   0  0  0  0  0  0  0  0  0  0  0  0
    5.5977   -3.1955   24.9622 C   0  0  0  0  0  0  0  0  0  0  0  0
    4.7733   -3.7947   25.6580 O   0  0  0  0  0  0  0  0  0  0  0  0
    5.8853   -1.7317   25.1363 C   0  0  0  0  0  0  0  0  0  0  0  0
    5.4680   -1.1212   26.3187 C   0  0  0  0  0  0  0  0  0  0  0  0
    5.7141    0.2189   26.5495 C   0  0  0  0  0  0  0  0  0  0  0  0
    6.3542    0.9637   25.5599 C   0  0  0  0  0  0  0  0  0  0  0  0
    6.6933    2.6492   25.8601 Cl  0  0  0  0  0  0  0  0  0  0  0  0
    6.7596    0.3828   24.3681 C   0  0  0  0  0  0  0  0  0  0  0  0
    6.5587   -0.9914   24.1514 C   0  0  0  0  0  0  0  0  0  0  0  0
    7.2688    1.0084   23.6364 H   0  0  0  0  0  0  0  0  0  0  0  0
    5.4328    0.6923   27.4849 H   0  0  0  0  0  0  0  0  0  0  0  0
    4.9687   -1.7335   27.0626 H   0  0  0  0  0  0  0  0  0  0  0  0
    7.3862   -3.6893   22.2357 H   0  0  0  0  0  0  0  0  0  0  0  0
    8.2950   -3.2496   23.6855 H   0  0  0  0  0  0  0  0  0  0  0  0
    8.0476    0.8997   21.3350 H   0  0  0  0  0  0  0  0  0  0  0  0
    8.7200   -0.3668   20.2923 H   0  0  0  0  0  0  0  0  0  0  0  0
    8.8691   -0.4434   23.1301 H   0  0  0  0  0  0  0  0  0  0  0  0
   10.8452   -0.8058   22.0964 H   0  0  0  0  0  0  0  0  0  0  0  0
   10.5993   -1.8065   23.5453 H   0  0  0  0  0  0  0  0  0  0  0  0
   12.5599   -2.5382   22.0075 H   0  0  0  0  0  0  0  0  0  0  0  0
   11.3166   -3.0434   20.8316 H   0  0  0  0  0  0  0  0  0  0  0  0
   11.3706   -3.7548   22.4600 H   0  0  0  0  0  0  0  0  0  0  0  0
  1  2  1  0
  2  3  1  0
  3  4  1  0
  4  5  1  0
  5  6  1  0
  6  7  1  0
  7  8  2  0
  8  9  1  0
  9 10  2  0
 10 11  1  0
 11 12  2  0
 12 13  1  0
 13 14  2  0
 14 15  1  0
 15 16  2  0
 15 17  1  0
 14 18  1  0
 13 19  1  0
 12 20  1  0
 10 21  1  0
  8 22  1  0
  6 23  1  0
 23 24  2  0
 23 25  1  0
 25 26  1  1
 26 27  1  0
 27 28  1  0
 28 29  1  0
 29 30  2  0
 29 31  1  0
 31 32  1  0
 32 33  1  0
 32 34  1  0
 32 35  1  0
 31 36  1  0
 28 37  1  0
 28 38  1  0
 27 39  1  0
 39 40  2  0
 39 41  1  0
 41 42  2  0
 42 43  1  0
 43 44  2  0
 44 45  1  0
 44 46  1  0
 46 47  2  0
 46 48  1  0
 43 49  1  0
 42 50  1  0
 26 51  1  0
 26 52  1  0
  5 53  1  0
  5 54  1  0
  4 55  1  1
  2 56  1  0
  2 57  1  0
  1 58  1  0
  1 59  1  0
  1 60  1  0
 25  4  1  0
 47 41  1  0
 16  7  1  0
 47 25  1  0
 16 11  1  0
M  END
>  <cnnaffinities>  (28) 
[6.29167]

>  <score>  (28) 
6.29167

>  <index>  (28) 
39

>  <Smiles>  (28) 
C(C(O[C@]1(C(N(c2c(nc(c3c(c(c(c(c23)[H])[H])[H])[H])[H])[H])C(=O)[C@]21C(N(C(C(=O)N(C([H])([H])[H])[H])([H])[H])C(=O)c1c(c(c(Cl)c(c21)[H])[H])[H])([H])[H])([H])[H])[H])([H])[H])([H])([H])[H]

>  <h>  (28) 
<NA>

>  <Training>  (28) 
True

>  <Success>  (28) 
True

>  <enamine_searched>  (28) 
False

>  <enamine_id>  (28) 
nan

$$$$

     RDKit          3D

 62 67  0  0  0  0  0  0  0  0999 V2000
    8.5015   -5.7347   25.4930 C   0  0  0  0  0  0  0  0  0  0  0  0
    7.7983   -6.3625   24.2940 C   0  0  0  0  0  0  0  0  0  0  0  0
    6.3644   -6.5904   24.4774 N   0  0  0  0  0  0  0  0  0  0  0  0
    5.9627   -7.6212   25.2359 N   0  0  0  0  0  0  0  0  0  0  0  0
    4.6407   -7.5489   25.2693 C   0  0  0  0  0  0  0  0  0  0  0  0
    4.1682   -6.4538   24.5277 C   0  0  0  0  0  0  0  0  0  0  0  0
    5.3054   -5.8732   24.0132 C   0  0  0  0  0  0  0  0  0  0  0  0
    5.5037   -4.6900   23.1329 C   0  0  0  0  0  0  0  0  0  0  0  0
    6.2226   -3.6215   23.8141 N   0  0  0  0  0  0  0  0  0  0  0  0
    7.4345   -3.0829   23.2408 C   0  0  0  0  0  0  0  0  0  0  0  0
    7.2895   -1.5937   22.8803 C   0  0  2  0  0  0  0  0  0  0  0  0
    6.3037   -1.4429   21.7034 C   0  0  0  0  0  0  0  0  0  0  0  0
    5.2243   -1.9892   21.5641 O   0  0  0  0  0  0  0  0  0  0  0  0
    6.8563   -0.5711   20.7984 N   0  0  0  0  0  0  0  0  0  0  0  0
    6.0990    0.0203   19.7602 C   0  0  0  0  0  0  0  0  0  0  0  0
    6.4566   -0.2255   18.4596 C   0  0  0  0  0  0  0  0  0  0  0  0
    5.8017    0.2491   17.3727 N   0  0  0  0  0  0  0  0  0  0  0  0
    4.7669    1.0220   17.6043 C   0  0  0  0  0  0  0  0  0  0  0  0
    4.3091    1.3854   18.9029 C   0  0  0  0  0  0  0  0  0  0  0  0
    3.1945    2.2474   19.0629 C   0  0  0  0  0  0  0  0  0  0  0  0
    2.7977    2.6368   20.3094 C   0  0  0  0  0  0  0  0  0  0  0  0
    3.5012    2.1859   21.4495 C   0  0  0  0  0  0  0  0  0  0  0  0
    4.5756    1.3385   21.3284 C   0  0  0  0  0  0  0  0  0  0  0  0
    4.9993    0.8990   20.0355 C   0  0  0  0  0  0  0  0  0  0  0  0
    5.1012    1.0089   22.2258 H   0  0  0  0  0  0  0  0  0  0  0  0
    3.1806    2.5226   22.4299 H   0  0  0  0  0  0  0  0  0  0  0  0
    1.9532    3.3090   20.4266 H   0  0  0  0  0  0  0  0  0  0  0  0
    2.6872    2.6004   18.1680 H   0  0  0  0  0  0  0  0  0  0  0  0
    4.2307    1.4076   16.7374 H   0  0  0  0  0  0  0  0  0  0  0  0
    7.3142   -0.8692   18.2707 H   0  0  0  0  0  0  0  0  0  0  0  0
    8.1859   -0.1138   21.1427 C   0  0  0  0  0  0  0  0  0  0  0  0
    8.6159   -0.9927   22.3337 C   0  0  2  0  0  0  0  0  0  0  0  0
    9.6951   -2.0190   21.9508 C   0  0  0  0  0  0  0  0  0  0  0  0
    9.4276   -2.5557   21.0302 H   0  0  0  0  0  0  0  0  0  0  0  0
   10.6592   -1.5232   21.8163 H   0  0  0  0  0  0  0  0  0  0  0  0
    9.8532   -2.7442   22.7521 H   0  0  0  0  0  0  0  0  0  0  0  0
    9.0525   -0.3735   23.1227 H   0  0  0  0  0  0  0  0  0  0  0  0
    8.1724    0.9553   21.4045 H   0  0  0  0  0  0  0  0  0  0  0  0
    8.8647   -0.2339   20.2984 H   0  0  0  0  0  0  0  0  0  0  0  0
    6.7698   -0.8656   24.1190 C   0  0  0  0  0  0  0  0  0  0  0  0
    7.0039    0.4993   24.3342 C   0  0  0  0  0  0  0  0  0  0  0  0
    6.5252    1.1037   25.4834 C   0  0  0  0  0  0  0  0  0  0  0  0
    6.7689    2.4109   25.6864 F   0  0  0  0  0  0  0  0  0  0  0  0
    5.8085    0.4137   26.4542 C   0  0  0  0  0  0  0  0  0  0  0  0
    5.5540   -0.9243   26.2313 C   0  0  0  0  0  0  0  0  0  0  0  0
    6.0066   -1.5517   25.0699 C   0  0  0  0  0  0  0  0  0  0  0  0
    5.5673   -2.9575   24.8164 C   0  0  0  0  0  0  0  0  0  0  0  0
    4.6390   -3.4430   25.4532 O   0  0  0  0  0  0  0  0  0  0  0  0
    4.9903   -1.5166   26.9443 H   0  0  0  0  0  0  0  0  0  0  0  0
    5.4481    0.9224   27.3423 H   0  0  0  0  0  0  0  0  0  0  0  0
    7.5774    1.1032   23.6405 H   0  0  0  0  0  0  0  0  0  0  0  0
    8.2754   -3.1893   23.9457 H   0  0  0  0  0  0  0  0  0  0  0  0
    7.6671   -3.6467   22.3369 H   0  0  0  0  0  0  0  0  0  0  0  0
    6.0684   -4.9627   22.2334 H   0  0  0  0  0  0  0  0  0  0  0  0
    4.5558   -4.2852   22.7718 H   0  0  0  0  0  0  0  0  0  0  0  0
    3.1597   -6.0636   24.4809 H   0  0  0  0  0  0  0  0  0  0  0  0
    4.0713   -8.2962   25.8090 H   0  0  0  0  0  0  0  0  0  0  0  0
    8.2517   -7.3364   24.0888 H   0  0  0  0  0  0  0  0  0  0  0  0
    7.9513   -5.7330   23.4128 H   0  0  0  0  0  0  0  0  0  0  0  0
    8.4341   -6.3945   26.3628 H   0  0  0  0  0  0  0  0  0  0  0  0
    8.0981   -4.7504   25.7593 H   0  0  0  0  0  0  0  0  0  0  0  0
    9.5557   -5.6123   25.2211 H   0  0  0  0  0  0  0  0  0  0  0  0
  1  2  1  0
  2  3  1  0
  3  4  1  0
  4  5  2  0
  5  6  1  0
  6  7  2  0
  7  8  1  0
  8  9  1  0
  9 10  1  0
 11 10  1  1
 11 12  1  0
 12 13  2  0
 12 14  1  0
 14 15  1  0
 15 16  2  0
 16 17  1  0
 17 18  2  0
 18 19  1  0
 19 20  2  0
 20 21  1  0
 21 22  2  0
 22 23  1  0
 23 24  2  0
 23 25  1  0
 22 26  1  0
 21 27  1  0
 20 28  1  0
 18 29  1  0
 16 30  1  0
 14 31  1  0
 31 32  1  0
 32 33  1  0
 33 34  1  0
 33 35  1  0
 33 36  1  0
 32 37  1  1
 31 38  1  0
 31 39  1  0
 11 40  1  0
 40 41  2  0
 41 42  1  0
 42 43  1  0
 42 44  2  0
 44 45  1  0
 45 46  2  0
 46 47  1  0
 47 48  2  0
 45 49  1  0
 44 50  1  0
 41 51  1  0
 10 52  1  0
 10 53  1  0
  8 54  1  0
  8 55  1  0
  6 56  1  0
  5 57  1  0
  2 58  1  0
  2 59  1  0
  1 60  1  0
  1 61  1  0
  1 62  1  0
  7  3  1  0
 47  9  1  0
 32 11  1  0
 46 40  1  0
 24 15  1  0
 24 19  1  0
M  END
>  <cnnaffinities>  (29) 
[6.41954]

>  <score>  (29) 
6.41954

>  <index>  (29) 
43

>  <Smiles>  (29) 
C(C(n1nc(c(c1C(N1C([C@@]2(C(=O)N(c3c(nc(c4c(c(c(c(c34)[H])[H])[H])[H])[H])[H])C([C@@]2(C([H])([H])[H])[H])([H])[H])c2c(c(F)c(c(c2C1=O)[H])[H])[H])([H])[H])([H])[H])[H])[H])([H])[H])([H])([H])[H]

>  <h>  (29) 
<NA>

>  <Training>  (29) 
True

>  <Success>  (29) 
True

>  <enamine_searched>  (29) 
False

>  <enamine_id>  (29) 
nan

$$$$

     RDKit          3D

 56 60  0  0  0  0  0  0  0  0999 V2000
    2.3074   -4.7407   22.3714 C   0  0  0  0  0  0  0  0  0  0  0  0
    3.4600   -4.0448   22.6968 N   0  0  0  0  0  0  0  0  0  0  0  0
    4.6943   -4.7869   22.2046 C   0  0  0  0  0  0  0  0  0  0  0  0
    4.7805   -5.1421   21.0626 O   0  0  0  0  0  0  0  0  0  0  0  0
    5.7211   -5.0082   23.3057 C   0  0  0  0  0  0  0  0  0  0  0  0
    6.2796   -3.7739   23.8365 N   0  0  0  0  0  0  0  0  0  0  0  0
    7.4334   -3.1898   23.1889 C   0  0  0  0  0  0  0  0  0  0  0  0
    7.2606   -1.6840   22.8834 C   0  0  2  0  0  0  0  0  0  0  0  0
    6.2355   -1.4949   21.7410 C   0  0  0  0  0  0  0  0  0  0  0  0
    5.1267   -2.0042   21.6760 O   0  0  0  0  0  0  0  0  0  0  0  0
    6.7796   -0.6402   20.8162 N   0  0  0  0  0  0  0  0  0  0  0  0
    6.0460   -0.0285   19.7698 C   0  0  0  0  0  0  0  0  0  0  0  0
    6.4367   -0.2439   18.4724 C   0  0  0  0  0  0  0  0  0  0  0  0
    5.8023    0.2528   17.3832 N   0  0  0  0  0  0  0  0  0  0  0  0
    4.7634    1.0234   17.6009 C   0  0  0  0  0  0  0  0  0  0  0  0
    4.2936    1.3824   18.8964 C   0  0  0  0  0  0  0  0  0  0  0  0
    3.1848    2.2520   19.0606 C   0  0  0  0  0  0  0  0  0  0  0  0
    2.7920    2.6445   20.3086 C   0  0  0  0  0  0  0  0  0  0  0  0
    3.4948    2.1912   21.4493 C   0  0  0  0  0  0  0  0  0  0  0  0
    4.5598    1.3325   21.3237 C   0  0  0  0  0  0  0  0  0  0  0  0
    4.9671    0.8787   20.0317 C   0  0  0  0  0  0  0  0  0  0  0  0
    5.0970    1.0037   22.2154 H   0  0  0  0  0  0  0  0  0  0  0  0
    3.1806    2.5259   22.4337 H   0  0  0  0  0  0  0  0  0  0  0  0
    1.9453    3.3147   20.4305 H   0  0  0  0  0  0  0  0  0  0  0  0
    2.6785    2.6097   18.1680 H   0  0  0  0  0  0  0  0  0  0  0  0
    4.2419    1.4173   16.7285 H   0  0  0  0  0  0  0  0  0  0  0  0
    7.3014   -0.8764   18.2728 H   0  0  0  0  0  0  0  0  0  0  0  0
    8.1113   -0.1726   21.1464 C   0  0  0  0  0  0  0  0  0  0  0  0
    8.5678   -1.0491   22.3301 C   0  0  2  0  0  0  0  0  0  0  0  0
    9.6721   -2.0360   21.9249 C   0  0  0  0  0  0  0  0  0  0  0  0
   10.6148   -1.5106   21.7609 H   0  0  0  0  0  0  0  0  0  0  0  0
    9.4100   -2.5863   21.0151 H   0  0  0  0  0  0  0  0  0  0  0  0
    9.8761   -2.7654   22.7110 H   0  0  0  0  0  0  0  0  0  0  0  0
    9.0087   -0.4317   23.1198 H   0  0  0  0  0  0  0  0  0  0  0  0
    8.0844    0.8945   21.4103 H   0  0  0  0  0  0  0  0  0  0  0  0
    8.7754   -0.2758   20.2868 H   0  0  0  0  0  0  0  0  0  0  0  0
    6.7564   -0.9811   24.1374 C   0  0  0  0  0  0  0  0  0  0  0  0
    6.9857    0.3845   24.3564 C   0  0  0  0  0  0  0  0  0  0  0  0
    6.4904    0.9767   25.5002 C   0  0  0  0  0  0  0  0  0  0  0  0
    6.7214    2.2847   25.7098 F   0  0  0  0  0  0  0  0  0  0  0  0
    5.7597    0.2731   26.4497 C   0  0  0  0  0  0  0  0  0  0  0  0
    5.4936   -1.0623   26.2110 C   0  0  0  0  0  0  0  0  0  0  0  0
    5.9605   -1.6835   25.0504 C   0  0  0  0  0  0  0  0  0  0  0  0
    5.5239   -3.0809   24.7275 C   0  0  0  0  0  0  0  0  0  0  0  0
    4.4667   -3.5674   25.1644 O   0  0  0  0  0  0  0  0  0  0  0  0
    4.9163   -1.6503   26.9168 H   0  0  0  0  0  0  0  0  0  0  0  0
    5.3908    0.7880   27.3289 H   0  0  0  0  0  0  0  0  0  0  0  0
    7.5447    1.0035   23.6615 H   0  0  0  0  0  0  0  0  0  0  0  0
    7.5869   -3.7100   22.2424 H   0  0  0  0  0  0  0  0  0  0  0  0
    8.3203   -3.3218   23.8241 H   0  0  0  0  0  0  0  0  0  0  0  0
    6.5303   -5.6235   22.9143 H   0  0  0  0  0  0  0  0  0  0  0  0
    5.2331   -5.5208   24.1411 H   0  0  0  0  0  0  0  0  0  0  0  0
    3.5575   -3.9655   23.7495 H   0  0  0  0  0  0  0  0  0  0  0  0
    1.4017   -4.2370   22.1094 H   0  0  0  0  0  0  0  0  0  0  0  0
    3.5019   -3.0874   22.2652 H   0  0  0  0  0  0  0  0  0  0  0  0
    2.4111   -5.8064   22.3286 H   0  0  0  0  0  0  0  0  0  0  0  0
  1  2  1  0
  2  3  1  0
  3  4  2  0
  3  5  1  0
  5  6  1  0
  6  7  1  0
  8  7  1  1
  8  9  1  0
  9 10  2  0
  9 11  1  0
 11 12  1  0
 12 13  2  0
 13 14  1  0
 14 15  2  0
 15 16  1  0
 16 17  2  0
 17 18  1  0
 18 19  2  0
 19 20  1  0
 20 21  2  0
 20 22  1  0
 19 23  1  0
 18 24  1  0
 17 25  1  0
 15 26  1  0
 13 27  1  0
 11 28  1  0
 28 29  1  0
 29 30  1  0
 30 31  1  0
 30 32  1  0
 30 33  1  0
 29 34  1  1
 28 35  1  0
 28 36  1  0
  8 37  1  0
 37 38  2  0
 38 39  1  0
 39 40  1  0
 39 41  2  0
 41 42  1  0
 42 43  2  0
 43 44  1  0
 44 45  2  0
 42 46  1  0
 41 47  1  0
 38 48  1  0
  7 49  1  0
  7 50  1  0
  5 51  1  0
  5 52  1  0
  2 53  1  0
  1 54  1  0
  1 55  1  0
  1 56  1  0
 44  6  1  0
 29  8  1  0
 43 37  1  0
 21 12  1  0
 21 16  1  0
M  END
>  <cnnaffinities>  (30) 
[6.07974]

>  <score>  (30) 
6.07974

>  <index>  (30) 
47

>  <Smiles>  (30) 
C(N(C(=O)C(N1C([C@@]2(C(=O)N(c3c(nc(c4c(c(c(c(c34)[H])[H])[H])[H])[H])[H])C([C@@]2(C([H])([H])[H])[H])([H])[H])c2c(c(F)c(c(c2C1=O)[H])[H])[H])([H])[H])([H])[H])[H])([H])([H])[H]

>  <h>  (30) 
<NA>

>  <Training>  (30) 
True

>  <Success>  (30) 
True

>  <enamine_searched>  (30) 
False

>  <enamine_id>  (30) 
nan

$$$$

     RDKit          3D

 41 43  0  0  0  0  0  0  0  0999 V2000
    4.7598   -6.7019   22.5066 C   0  0  0  0  0  0  0  0  0  0  0  0
    4.3353   -5.3337   22.0047 C   0  0  1  0  0  0  0  0  0  0  0  0
    4.6430   -4.1419   22.9240 C   0  0  0  0  0  0  0  0  0  0  0  0
    4.3065   -2.7793   22.3048 C   0  0  0  0  0  0  0  0  0  0  0  0
    5.3553   -2.2471   21.4461 N   0  0  0  0  0  0  0  0  0  0  0  0
    6.1547   -1.2358   21.9157 C   0  0  0  0  0  0  0  0  0  0  0  0
    6.1720   -0.9297   23.0995 O   0  0  0  0  0  0  0  0  0  0  0  0
    6.9712   -0.4487   20.8712 C   0  0  0  0  0  0  0  0  0  0  0  0
    6.1543    0.0873   19.7187 C   0  0  0  0  0  0  0  0  0  0  0  0
    6.4836   -0.1888   18.4155 C   0  0  0  0  0  0  0  0  0  0  0  0
    5.8089    0.2603   17.3243 N   0  0  0  0  0  0  0  0  0  0  0  0
    4.7616    1.0173   17.5474 C   0  0  0  0  0  0  0  0  0  0  0  0
    4.3100    1.3942   18.8413 C   0  0  0  0  0  0  0  0  0  0  0  0
    3.1808    2.2339   19.0300 C   0  0  0  0  0  0  0  0  0  0  0  0
    2.7852    2.5990   20.2904 C   0  0  0  0  0  0  0  0  0  0  0  0
    3.4927    2.1308   21.4149 C   0  0  0  0  0  0  0  0  0  0  0  0
    4.5824    1.3085   21.2648 C   0  0  0  0  0  0  0  0  0  0  0  0
    5.0237    0.9225   19.9637 C   0  0  0  0  0  0  0  0  0  0  0  0
    5.1101    0.9508   22.1404 H   0  0  0  0  0  0  0  0  0  0  0  0
    3.1673    2.4206   22.4109 H   0  0  0  0  0  0  0  0  0  0  0  0
    1.9336    3.2589   20.4315 H   0  0  0  0  0  0  0  0  0  0  0  0
    2.6480    2.5937   18.1559 H   0  0  0  0  0  0  0  0  0  0  0  0
    4.2124    1.3794   16.6765 H   0  0  0  0  0  0  0  0  0  0  0  0
    7.3519   -0.8133   18.1912 H   0  0  0  0  0  0  0  0  0  0  0  0
    7.8000   -1.0673   20.5001 H   0  0  0  0  0  0  0  0  0  0  0  0
    7.4432    0.3786   21.4092 H   0  0  0  0  0  0  0  0  0  0  0  0
    5.6014   -2.9418   20.2005 C   0  0  0  0  0  0  0  0  0  0  0  0
    5.8950   -4.4335   20.3446 C   0  0  0  0  0  0  0  0  0  0  0  0
    4.7922   -5.2283   20.6633 O   0  0  0  0  0  0  0  0  0  0  0  0
    6.7166   -4.5672   21.0636 H   0  0  0  0  0  0  0  0  0  0  0  0
    6.2192   -4.8318   19.3751 H   0  0  0  0  0  0  0  0  0  0  0  0
    6.4810   -2.4874   19.7590 H   0  0  0  0  0  0  0  0  0  0  0  0
    4.7719   -2.7907   19.4983 H   0  0  0  0  0  0  0  0  0  0  0  0
    4.1163   -2.0318   23.0766 H   0  0  0  0  0  0  0  0  0  0  0  0
    3.4070   -2.8919   21.6935 H   0  0  0  0  0  0  0  0  0  0  0  0
    4.0375   -4.2853   23.8282 H   0  0  0  0  0  0  0  0  0  0  0  0
    5.6796   -4.1378   23.2718 H   0  0  0  0  0  0  0  0  0  0  0  0
    3.2467   -5.3681   21.9023 H   0  0  0  0  0  0  0  0  0  0  0  0
    5.8377   -6.7564   22.6748 H   0  0  0  0  0  0  0  0  0  0  0  0
    4.2400   -6.9824   23.4246 H   0  0  0  0  0  0  0  0  0  0  0  0
    4.5031   -7.4378   21.7385 H   0  0  0  0  0  0  0  0  0  0  0  0
  1  2  1  0
  2  3  1  0
  3  4  1  0
  4  5  1  0
  5  6  1  0
  6  7  2  0
  6  8  1  0
  8  9  1  0
  9 10  2  0
 10 11  1  0
 11 12  2  0
 12 13  1  0
 13 14  2  0
 14 15  1  0
 15 16  2  0
 16 17  1  0
 17 18  2  0
 17 19  1  0
 16 20  1  0
 15 21  1  0
 14 22  1  0
 12 23  1  0
 10 24  1  0
  8 25  1  0
  8 26  1  0
  5 27  1  0
 27 28  1  0
 28 29  1  0
 28 30  1  0
 28 31  1  0
 27 32  1  0
 27 33  1  0
  4 34  1  0
  4 35  1  0
  3 36  1  0
  3 37  1  0
  2 38  1  6
  1 39  1  0
  1 40  1  0
  1 41  1  0
 29  2  1  0
 18  9  1  0
 18 13  1  0
M  END
>  <cnnaffinities>  (31) 
[4.70858, 5.03488, 4.81665]

>  <score>  (31) 
4.70858

>  <index>  (31) 
48

>  <Smiles>  (31) 
C([C@]1(C(C(N(C(=O)C(c2c(nc(c3c(c(c(c(c23)[H])[H])[H])[H])[H])[H])([H])[H])C(C(O1)([H])[H])([H])[H])([H])[H])([H])[H])[H])([H])([H])[H]

>  <h>  (31) 
<NA>

>  <Training>  (31) 
True

>  <Success>  (31) 
True

>  <enamine_searched>  (31) 
False

>  <enamine_id>  (31) 
nan

$$$$

     RDKit          3D

 42 45  0  0  0  0  0  0  0  0999 V2000
    4.7517   -4.4578   23.8464 C   0  0  0  0  0  0  0  0  0  0  0  0
    5.5357   -3.2584   24.1122 N   0  0  0  0  0  0  0  0  0  0  0  0
    6.8573   -3.0907   23.5341 C   0  0  0  0  0  0  0  0  0  0  0  0
    7.1113   -1.6540   23.0460 C   0  0  1  0  0  0  0  0  0  0  0  0
    6.2876   -1.3301   21.7840 C   0  0  0  0  0  0  0  0  0  0  0  0
    5.1545   -1.7372   21.6241 O   0  0  0  0  0  0  0  0  0  0  0  0
    6.8485   -0.4676   20.8613 N   0  0  0  0  0  0  0  0  0  0  0  0
    6.1013    0.0688   19.7766 C   0  0  0  0  0  0  0  0  0  0  0  0
    6.4394   -0.2139   18.4745 C   0  0  0  0  0  0  0  0  0  0  0  0
    5.7686    0.2387   17.3841 N   0  0  0  0  0  0  0  0  0  0  0  0
    4.7356    1.0260   17.5826 C   0  0  0  0  0  0  0  0  0  0  0  0
    4.2907    1.4202   18.8756 C   0  0  0  0  0  0  0  0  0  0  0  0
    3.1736    2.2816   19.0488 C   0  0  0  0  0  0  0  0  0  0  0  0
    2.7838    2.6675   20.3047 C   0  0  0  0  0  0  0  0  0  0  0  0
    3.4987    2.2131   21.4345 C   0  0  0  0  0  0  0  0  0  0  0  0
    4.5829    1.3824   21.2932 C   0  0  0  0  0  0  0  0  0  0  0  0
    4.9957    0.9462   20.0050 C   0  0  0  0  0  0  0  0  0  0  0  0
    5.1325    1.0443   22.1662 H   0  0  0  0  0  0  0  0  0  0  0  0
    3.1913    2.5241   22.4265 H   0  0  0  0  0  0  0  0  0  0  0  0
    1.9351    3.3312   20.4423 H   0  0  0  0  0  0  0  0  0  0  0  0
    2.6466    2.6458   18.1703 H   0  0  0  0  0  0  0  0  0  0  0  0
    4.2022    1.3971   16.7023 H   0  0  0  0  0  0  0  0  0  0  0  0
    7.2783   -0.8724   18.2546 H   0  0  0  0  0  0  0  0  0  0  0  0
    7.8491   -0.3587   20.8281 H   0  0  0  0  0  0  0  0  0  0  0  0
    6.7392   -0.6835   24.1422 C   0  0  0  0  0  0  0  0  0  0  0  0
    7.3601    0.5634   24.2040 C   0  0  0  0  0  0  0  0  0  0  0  0
    6.9722    1.4898   25.1580 C   0  0  0  0  0  0  0  0  0  0  0  0
    7.7562    3.0403   25.2173 Cl  0  0  0  0  0  0  0  0  0  0  0  0
    5.9542    1.2004   26.0635 C   0  0  0  0  0  0  0  0  0  0  0  0
    5.3343   -0.0376   25.9958 C   0  0  0  0  0  0  0  0  0  0  0  0
    5.7239   -0.9937   25.0443 C   0  0  0  0  0  0  0  0  0  0  0  0
    5.0159   -2.3289   24.9741 C   0  0  0  0  0  0  0  0  0  0  0  0
    4.0161   -2.5631   25.6358 O   0  0  0  0  0  0  0  0  0  0  0  0
    4.5385   -0.2610   26.6952 H   0  0  0  0  0  0  0  0  0  0  0  0
    5.6640    1.9469   26.8007 H   0  0  0  0  0  0  0  0  0  0  0  0
    8.1441    0.8150   23.4982 H   0  0  0  0  0  0  0  0  0  0  0  0
    8.1779   -1.5462   22.8169 H   0  0  0  0  0  0  0  0  0  0  0  0
    7.6220   -3.3638   24.2730 H   0  0  0  0  0  0  0  0  0  0  0  0
    6.9648   -3.7878   22.7047 H   0  0  0  0  0  0  0  0  0  0  0  0
    5.2934   -5.1208   23.1719 H   0  0  0  0  0  0  0  0  0  0  0  0
    3.8013   -4.2109   23.3683 H   0  0  0  0  0  0  0  0  0  0  0  0
    4.5276   -5.0167   24.7581 H   0  0  0  0  0  0  0  0  0  0  0  0
  1  2  1  0
  2  3  1  0
  3  4  1  0
  4  5  1  0
  5  6  2  0
  5  7  1  0
  7  8  1  0
  8  9  2  0
  9 10  1  0
 10 11  2  0
 11 12  1  0
 12 13  2  0
 13 14  1  0
 14 15  2  0
 15 16  1  0
 16 17  2  0
 16 18  1  0
 15 19  1  0
 14 20  1  0
 13 21  1  0
 11 22  1  0
  9 23  1  0
  7 24  1  0
  4 25  1  0
 25 26  2  0
 26 27  1  0
 27 28  1  0
 27 29  2  0
 29 30  1  0
 30 31  2  0
 31 32  1  0
 32 33  2  0
 30 34  1  0
 29 35  1  0
 26 36  1  0
  4 37  1  6
  3 38  1  0
  3 39  1  0
  1 40  1  0
  1 41  1  0
  1 42  1  0
 32  2  1  0
 17  8  1  0
 31 25  1  0
 17 12  1  0
M  END
>  <cnnaffinities>  (32) 
[5.62114]

>  <score>  (32) 
5.62114

>  <index>  (32) 
49

>  <Smiles>  (32) 
C(N1C([C@@](C(=O)N(c2c(nc(c3c(c(c(c(c23)[H])[H])[H])[H])[H])[H])[H])(c2c(c(Cl)c(c(c2C1=O)[H])[H])[H])[H])([H])[H])([H])([H])[H]

>  <h>  (32) 
<NA>

>  <Training>  (32) 
True

>  <Success>  (32) 
True

>  <enamine_searched>  (32) 
False

>  <enamine_id>  (32) 
nan

$$$$

     RDKit          3D

 38 41  0  0  0  0  0  0  0  0999 V2000
    5.0918   -1.9808   21.3320 O   0  0  0  0  0  0  0  0  0  0  0  0
    6.2777   -1.7688   21.5163 C   0  0  0  0  0  0  0  0  0  0  0  0
    6.9400   -0.5080   20.8975 C   0  0  0  0  0  0  0  0  0  0  0  0
    6.1194    0.0875   19.7715 C   0  0  0  0  0  0  0  0  0  0  0  0
    6.4225   -0.2109   18.4672 C   0  0  0  0  0  0  0  0  0  0  0  0
    5.7591    0.2376   17.3671 N   0  0  0  0  0  0  0  0  0  0  0  0
    4.7358    1.0322   17.5766 C   0  0  0  0  0  0  0  0  0  0  0  0
    4.2866    1.4204   18.8691 C   0  0  0  0  0  0  0  0  0  0  0  0
    3.1630    2.2718   19.0431 C   0  0  0  0  0  0  0  0  0  0  0  0
    2.7462    2.6244   20.2989 C   0  0  0  0  0  0  0  0  0  0  0  0
    3.4354    2.1366   21.4303 C   0  0  0  0  0  0  0  0  0  0  0  0
    4.5256    1.3117   21.2876 C   0  0  0  0  0  0  0  0  0  0  0  0
    4.9878    0.9331   19.9993 C   0  0  0  0  0  0  0  0  0  0  0  0
    5.0278    0.9270   22.1684 H   0  0  0  0  0  0  0  0  0  0  0  0
    3.0928    2.4122   22.4225 H   0  0  0  0  0  0  0  0  0  0  0  0
    1.8882    3.2774   20.4336 H   0  0  0  0  0  0  0  0  0  0  0  0
    2.6443    2.6443   18.1622 H   0  0  0  0  0  0  0  0  0  0  0  0
    4.1992    1.4004   16.7000 H   0  0  0  0  0  0  0  0  0  0  0  0
    7.2637   -0.8651   18.2452 H   0  0  0  0  0  0  0  0  0  0  0  0
    7.0932    0.2475   21.6812 H   0  0  0  0  0  0  0  0  0  0  0  0
    7.9389   -0.7574   20.5095 H   0  0  0  0  0  0  0  0  0  0  0  0
    7.0563   -2.6404   22.2532 N   0  0  0  0  0  0  0  0  0  0  0  0
    6.6257   -4.0344   22.4111 C   0  0  0  0  0  0  0  0  0  0  0  0
    6.7452   -4.5015   23.8601 C   0  0  0  0  0  0  0  0  0  0  0  0
    8.0913   -4.1329   24.4006 C   0  0  0  0  0  0  0  0  0  0  0  0
    8.8516   -4.8700   25.7713 S   0  0  0  0  0  0  0  0  0  0  0  0
   10.1975   -3.7959   25.6489 C   0  0  0  0  0  0  0  0  0  0  0  0
   10.0635   -2.9271   24.6061 C   0  0  0  0  0  0  0  0  0  0  0  0
    8.8457   -3.1272   23.8851 C   0  0  0  0  0  0  0  0  0  0  0  0
    8.4099   -2.3232   22.6873 C   0  0  0  0  0  0  0  0  0  0  0  0
    9.1513   -2.4625   21.8847 H   0  0  0  0  0  0  0  0  0  0  0  0
    8.4717   -1.2652   22.9614 H   0  0  0  0  0  0  0  0  0  0  0  0
   10.8053   -2.1701   24.3623 H   0  0  0  0  0  0  0  0  0  0  0  0
   11.0116   -3.8609   26.3596 H   0  0  0  0  0  0  0  0  0  0  0  0
    5.9681   -4.0207   24.4665 H   0  0  0  0  0  0  0  0  0  0  0  0
    6.5687   -5.5794   23.9342 H   0  0  0  0  0  0  0  0  0  0  0  0
    5.5939   -4.1210   22.0691 H   0  0  0  0  0  0  0  0  0  0  0  0
    7.2358   -4.6896   21.7734 H   0  0  0  0  0  0  0  0  0  0  0  0
  1  2  2  0
  2  3  1  0
  3  4  1  0
  4  5  2  0
  5  6  1  0
  6  7  2  0
  7  8  1  0
  8  9  2  0
  9 10  1  0
 10 11  2  0
 11 12  1  0
 12 13  2  0
 12 14  1  0
 11 15  1  0
 10 16  1  0
  9 17  1  0
  7 18  1  0
  5 19  1  0
  3 20  1  0
  3 21  1  0
  2 22  1  0
 22 23  1  0
 23 24  1  0
 24 25  1  0
 25 26  1  0
 26 27  1  0
 27 28  2  0
 28 29  1  0
 29 30  1  0
 30 31  1  0
 30 32  1  0
 28 33  1  0
 27 34  1  0
 24 35  1  0
 24 36  1  0
 23 37  1  0
 23 38  1  0
 13  4  1  0
 30 22  1  0
 13  8  1  0
 29 25  2  0
M  END
>  <cnnaffinities>  (33) 
[5.44801]

>  <score>  (33) 
5.44801

>  <index>  (33) 
50

>  <Smiles>  (33) 
O=C(C(c1c(nc(c2c(c(c(c(c12)[H])[H])[H])[H])[H])[H])([H])[H])N1C(C(c2sc(c(c2C1([H])[H])[H])[H])([H])[H])([H])[H]

>  <h>  (33) 
<NA>

>  <Training>  (33) 
True

>  <Success>  (33) 
True

>  <enamine_searched>  (33) 
False

>  <enamine_id>  (33) 
nan

$$$$

     RDKit          3D

 41 43  0  0  0  0  0  0  0  0999 V2000
    5.4649   -2.3591   21.0017 O   0  0  0  0  0  0  0  0  0  0  0  0
    6.1716   -1.6124   21.6540 C   0  0  0  0  0  0  0  0  0  0  0  0
    6.9182   -0.4792   20.9153 C   0  0  0  0  0  0  0  0  0  0  0  0
    6.1124    0.0875   19.7667 C   0  0  0  0  0  0  0  0  0  0  0  0
    6.4204   -0.2143   18.4625 C   0  0  0  0  0  0  0  0  0  0  0  0
    5.7592    0.2393   17.3625 N   0  0  0  0  0  0  0  0  0  0  0  0
    4.7351    1.0325   17.5750 C   0  0  0  0  0  0  0  0  0  0  0  0
    4.2860    1.4219   18.8676 C   0  0  0  0  0  0  0  0  0  0  0  0
    3.1628    2.2711   19.0444 C   0  0  0  0  0  0  0  0  0  0  0  0
    2.7494    2.6259   20.3010 C   0  0  0  0  0  0  0  0  0  0  0  0
    3.4437    2.1429   21.4330 C   0  0  0  0  0  0  0  0  0  0  0  0
    4.5344    1.3182   21.2889 C   0  0  0  0  0  0  0  0  0  0  0  0
    4.9891    0.9373   19.9976 C   0  0  0  0  0  0  0  0  0  0  0  0
    5.0453    0.9498   22.1767 H   0  0  0  0  0  0  0  0  0  0  0  0
    3.1072    2.4213   22.4259 H   0  0  0  0  0  0  0  0  0  0  0  0
    1.8906    3.2779   20.4368 H   0  0  0  0  0  0  0  0  0  0  0  0
    2.6414    2.6420   18.1650 H   0  0  0  0  0  0  0  0  0  0  0  0
    4.1979    1.4011   16.6996 H   0  0  0  0  0  0  0  0  0  0  0  0
    7.2656   -0.8668   18.2477 H   0  0  0  0  0  0  0  0  0  0  0  0
    7.2507    0.3223   21.5807 H   0  0  0  0  0  0  0  0  0  0  0  0
    7.8283   -0.9378   20.5061 H   0  0  0  0  0  0  0  0  0  0  0  0
    6.3400   -1.8361   23.0181 N   0  0  0  0  0  0  0  0  0  0  0  0
    5.7931   -3.1031   23.5356 C   0  0  0  0  0  0  0  0  0  0  0  0
    4.2901   -3.0850   23.8131 C   0  0  0  0  0  0  0  0  0  0  0  0
    3.9142   -2.3633   25.0989 C   0  0  0  0  0  0  0  0  0  0  0  0
    4.3556   -0.6066   25.1400 S   0  0  0  0  0  0  0  0  0  0  0  0
    6.1473   -0.7883   25.3089 C   0  0  0  0  0  0  0  0  0  0  0  0
    6.8775   -0.8671   23.9603 C   0  0  1  0  0  0  0  0  0  0  0  0
    8.3650   -1.1323   24.1663 C   0  0  0  0  0  0  0  0  0  0  0  0
    9.0109   -1.1598   22.9913 F   0  0  0  0  0  0  0  0  0  0  0  0
    8.9360   -0.1806   24.9258 F   0  0  0  0  0  0  0  0  0  0  0  0
    8.5778   -2.3133   24.7775 F   0  0  0  0  0  0  0  0  0  0  0  0
    6.8099    0.1353   23.5333 H   0  0  0  0  0  0  0  0  0  0  0  0
    6.5042    0.0824   25.8675 H   0  0  0  0  0  0  0  0  0  0  0  0
    6.3557   -1.6564   25.9369 H   0  0  0  0  0  0  0  0  0  0  0  0
    4.3930   -2.8382   25.9630 H   0  0  0  0  0  0  0  0  0  0  0  0
    2.8342   -2.4207   25.2679 H   0  0  0  0  0  0  0  0  0  0  0  0
    3.7867   -2.6142   22.9672 H   0  0  0  0  0  0  0  0  0  0  0  0
    3.9191   -4.1191   23.8811 H   0  0  0  0  0  0  0  0  0  0  0  0
    6.3400   -3.3766   24.4386 H   0  0  0  0  0  0  0  0  0  0  0  0
    6.0173   -3.8773   22.8005 H   0  0  0  0  0  0  0  0  0  0  0  0
  1  2  2  0
  2  3  1  0
  3  4  1  0
  4  5  2  0
  5  6  1  0
  6  7  2  0
  7  8  1  0
  8  9  2  0
  9 10  1  0
 10 11  2  0
 11 12  1  0
 12 13  2  0
 12 14  1  0
 11 15  1  0
 10 16  1  0
  9 17  1  0
  7 18  1  0
  5 19  1  0
  3 20  1  0
  3 21  1  0
  2 22  1  0
 22 23  1  0
 23 24  1  0
 24 25  1  0
 25 26  1  0
 26 27  1  0
 27 28  1  0
 28 29  1  0
 29 30  1  0
 29 31  1  0
 29 32  1  0
 28 33  1  6
 27 34  1  0
 27 35  1  0
 25 36  1  0
 25 37  1  0
 24 38  1  0
 24 39  1  0
 23 40  1  0
 23 41  1  0
 13  4  1  0
 28 22  1  0
 13  8  1  0
M  END
>  <cnnaffinities>  (34) 
[5.59739, 5.52107, 5.52108, 5.33086, 5.33105, 5.33127, 5.63736, 5.6374, 5.63737, 5.63752, 5.49586, 5.49611, 5.49613]

>  <score>  (34) 
5.59739

>  <index>  (34) 
56

>  <Smiles>  (34) 
O=C(C(c1c(nc(c2c(c(c(c(c12)[H])[H])[H])[H])[H])[H])([H])[H])N1C(C(C(SC([C@]1(C(F)(F)F)[H])([H])[H])([H])[H])([H])[H])([H])[H]

>  <h>  (34) 
<NA>

>  <Training>  (34) 
True

>  <Success>  (34) 
True

>  <enamine_searched>  (34) 
False

>  <enamine_id>  (34) 
nan

$$$$

     RDKit          3D

 38 41  0  0  0  0  0  0  0  0999 V2000
    5.0918   -1.9808   21.3320 O   0  0  0  0  0  0  0  0  0  0  0  0
    6.2777   -1.7688   21.5163 C   0  0  0  0  0  0  0  0  0  0  0  0
    6.9400   -0.5080   20.8975 C   0  0  0  0  0  0  0  0  0  0  0  0
    6.1194    0.0875   19.7715 C   0  0  0  0  0  0  0  0  0  0  0  0
    6.4225   -0.2109   18.4672 C   0  0  0  0  0  0  0  0  0  0  0  0
    5.7591    0.2376   17.3671 N   0  0  0  0  0  0  0  0  0  0  0  0
    4.7358    1.0322   17.5766 C   0  0  0  0  0  0  0  0  0  0  0  0
    4.2866    1.4204   18.8691 C   0  0  0  0  0  0  0  0  0  0  0  0
    3.1630    2.2718   19.0431 C   0  0  0  0  0  0  0  0  0  0  0  0
    2.7462    2.6244   20.2989 C   0  0  0  0  0  0  0  0  0  0  0  0
    3.4354    2.1366   21.4303 C   0  0  0  0  0  0  0  0  0  0  0  0
    4.5256    1.3117   21.2876 C   0  0  0  0  0  0  0  0  0  0  0  0
    4.9878    0.9331   19.9993 C   0  0  0  0  0  0  0  0  0  0  0  0
    5.0278    0.9270   22.1684 H   0  0  0  0  0  0  0  0  0  0  0  0
    3.0928    2.4122   22.4225 H   0  0  0  0  0  0  0  0  0  0  0  0
    1.8882    3.2774   20.4336 H   0  0  0  0  0  0  0  0  0  0  0  0
    2.6443    2.6443   18.1622 H   0  0  0  0  0  0  0  0  0  0  0  0
    4.1992    1.4004   16.7000 H   0  0  0  0  0  0  0  0  0  0  0  0
    7.2637   -0.8651   18.2452 H   0  0  0  0  0  0  0  0  0  0  0  0
    7.0932    0.2475   21.6812 H   0  0  0  0  0  0  0  0  0  0  0  0
    7.9389   -0.7574   20.5095 H   0  0  0  0  0  0  0  0  0  0  0  0
    7.0563   -2.6404   22.2532 N   0  0  0  0  0  0  0  0  0  0  0  0
    6.6257   -4.0344   22.4111 C   0  0  0  0  0  0  0  0  0  0  0  0
    6.7452   -4.5015   23.8601 C   0  0  0  0  0  0  0  0  0  0  0  0
    8.0913   -4.1329   24.4006 C   0  0  0  0  0  0  0  0  0  0  0  0
    8.8516   -4.8700   25.7713 S   0  0  0  0  0  0  0  0  0  0  0  0
   10.1975   -3.7959   25.6489 C   0  0  0  0  0  0  0  0  0  0  0  0
   10.0635   -2.9271   24.6061 C   0  0  0  0  0  0  0  0  0  0  0  0
    8.8457   -3.1272   23.8851 C   0  0  0  0  0  0  0  0  0  0  0  0
    8.4099   -2.3232   22.6873 C   0  0  0  0  0  0  0  0  0  0  0  0
    9.1513   -2.4625   21.8847 H   0  0  0  0  0  0  0  0  0  0  0  0
    8.4717   -1.2652   22.9614 H   0  0  0  0  0  0  0  0  0  0  0  0
   10.8053   -2.1701   24.3623 H   0  0  0  0  0  0  0  0  0  0  0  0
   11.0116   -3.8609   26.3596 H   0  0  0  0  0  0  0  0  0  0  0  0
    5.9681   -4.0207   24.4665 H   0  0  0  0  0  0  0  0  0  0  0  0
    6.5687   -5.5794   23.9342 H   0  0  0  0  0  0  0  0  0  0  0  0
    5.5939   -4.1210   22.0691 H   0  0  0  0  0  0  0  0  0  0  0  0
    7.2358   -4.6896   21.7734 H   0  0  0  0  0  0  0  0  0  0  0  0
  1  2  2  0
  2  3  1  0
  3  4  1  0
  4  5  2  0
  5  6  1  0
  6  7  2  0
  7  8  1  0
  8  9  2  0
  9 10  1  0
 10 11  2  0
 11 12  1  0
 12 13  2  0
 12 14  1  0
 11 15  1  0
 10 16  1  0
  9 17  1  0
  7 18  1  0
  5 19  1  0
  3 20  1  0
  3 21  1  0
  2 22  1  0
 22 23  1  0
 23 24  1  0
 24 25  1  0
 25 26  1  0
 26 27  1  0
 27 28  2  0
 28 29  1  0
 29 30  1  0
 30 31  1  0
 30 32  1  0
 28 33  1  0
 27 34  1  0
 24 35  1  0
 24 36  1  0
 23 37  1  0
 23 38  1  0
 13  4  1  0
 30 22  1  0
 13  8  1  0
 29 25  2  0
M  END
>  <cnnaffinities>  (35) 
[5.44801]

>  <score>  (35) 
5.44801

>  <index>  (35) 
60

>  <Smiles>  (35) 
O=C(C(c1c(nc(c2c(c(c(c(c12)[H])[H])[H])[H])[H])[H])([H])[H])N1C(C(c2sc(c(c2C1([H])[H])[H])[H])([H])[H])([H])[H]

>  <h>  (35) 
<NA>

>  <Training>  (35) 
True

>  <Success>  (35) 
True

>  <enamine_searched>  (35) 
False

>  <enamine_id>  (35) 
nan

$$$$

     RDKit          3D

 70 76  0  0  0  0  0  0  0  0999 V2000
    9.6883   -1.9784   22.0074 C   0  0  0  0  0  0  0  0  0  0  0  0
    8.6012   -0.9498   22.3752 C   0  0  1  0  0  0  0  0  0  0  0  0
    8.1987   -0.1183   21.1352 C   0  0  0  0  0  0  0  0  0  0  0  0
    6.8639   -0.5561   20.8087 N   0  0  0  0  0  0  0  0  0  0  0  0
    6.1077    0.0217   19.7598 C   0  0  0  0  0  0  0  0  0  0  0  0
    6.4661   -0.2205   18.4586 C   0  0  0  0  0  0  0  0  0  0  0  0
    5.8104    0.2584   17.3727 N   0  0  0  0  0  0  0  0  0  0  0  0
    4.7713    1.0265   17.5979 C   0  0  0  0  0  0  0  0  0  0  0  0
    4.3149    1.3886   18.8958 C   0  0  0  0  0  0  0  0  0  0  0  0
    3.1970    2.2448   19.0588 C   0  0  0  0  0  0  0  0  0  0  0  0
    2.8030    2.6387   20.3051 C   0  0  0  0  0  0  0  0  0  0  0  0
    3.5127    2.1920   21.4447 C   0  0  0  0  0  0  0  0  0  0  0  0
    4.5888    1.3472   21.3215 C   0  0  0  0  0  0  0  0  0  0  0  0
    5.0063    0.9018   20.0285 C   0  0  0  0  0  0  0  0  0  0  0  0
    5.1243    1.0254   22.2174 H   0  0  0  0  0  0  0  0  0  0  0  0
    3.1932    2.5247   22.4280 H   0  0  0  0  0  0  0  0  0  0  0  0
    1.9552    3.3070   20.4272 H   0  0  0  0  0  0  0  0  0  0  0  0
    2.6867    2.5940   18.1645 H   0  0  0  0  0  0  0  0  0  0  0  0
    4.2330    1.4150   16.7321 H   0  0  0  0  0  0  0  0  0  0  0  0
    7.3225   -0.8600   18.2476 H   0  0  0  0  0  0  0  0  0  0  0  0
    6.3164   -1.4302   21.7165 C   0  0  0  0  0  0  0  0  0  0  0  0
    5.2724   -2.0216   21.5404 O   0  0  0  0  0  0  0  0  0  0  0  0
    7.2654   -1.5290   22.9370 C   0  0  1  0  0  0  0  0  0  0  0  0
    7.3872   -3.0084   23.3422 C   0  0  0  0  0  0  0  0  0  0  0  0
    6.1860   -3.4620   23.9962 N   0  0  0  0  0  0  0  0  0  0  0  0
    5.6137   -4.7281   23.6352 C   0  0  0  0  0  0  0  0  0  0  0  0
    6.2075   -5.8455   24.4846 C   0  0  0  0  0  0  0  0  0  0  0  0
    5.5487   -7.1635   24.2142 N   0  0  2  0  0  4  0  0  0  0  0  0
    5.5771   -7.4120   22.7398 C   0  0  0  0  0  0  0  0  0  0  0  0
    4.1885   -7.0600   22.2006 C   0  0  0  0  0  0  0  0  0  0  0  0
    3.2201   -7.1171   23.3858 C   0  0  0  0  0  0  0  0  0  0  0  0
    2.0472   -8.1052   23.2556 C   0  0  0  0  0  0  0  0  0  0  0  0
    1.0877   -7.0549   23.1158 O   0  0  0  0  0  0  0  0  0  0  0  0
    2.0922   -6.0659   23.3504 C   0  0  0  0  0  0  0  0  0  0  0  0
    1.8941   -5.5229   24.2835 H   0  0  0  0  0  0  0  0  0  0  0  0
    2.1423   -5.3568   22.5126 H   0  0  0  0  0  0  0  0  0  0  0  0
    1.8556   -8.6991   24.1564 H   0  0  0  0  0  0  0  0  0  0  0  0
    2.0768   -8.7533   22.3717 H   0  0  0  0  0  0  0  0  0  0  0  0
    4.0967   -7.2516   24.6356 C   0  0  0  0  0  0  0  0  0  0  0  0
    3.9484   -8.2217   25.1120 H   0  0  0  0  0  0  0  0  0  0  0  0
    3.9150   -6.4734   25.3763 H   0  0  0  0  0  0  0  0  0  0  0  0
    4.2286   -6.0384   21.8049 H   0  0  0  0  0  0  0  0  0  0  0  0
    3.8627   -7.6996   21.3754 H   0  0  0  0  0  0  0  0  0  0  0  0
    6.3643   -6.8083   22.2995 H   0  0  0  0  0  0  0  0  0  0  0  0
    5.9279   -8.4210   22.5984 H   0  0  0  0  0  0  0  0  0  0  0  0
    6.0782   -7.8765   24.7262 H   0  0  0  0  0  0  0  0  0  0  0  0
    7.2760   -5.9454   24.2621 H   0  0  0  0  0  0  0  0  0  0  0  0
    6.1063   -5.6074   25.5416 H   0  0  0  0  0  0  0  0  0  0  0  0
    5.8064   -4.8584   22.5634 H   0  0  0  0  0  0  0  0  0  0  0  0
    4.5300   -4.6601   23.7722 H   0  0  0  0  0  0  0  0  0  0  0  0
    5.6638   -2.8309   25.0767 C   0  0  0  0  0  0  0  0  0  0  0  0
    4.9196   -3.3972   25.8696 O   0  0  0  0  0  0  0  0  0  0  0  0
    6.0213   -1.3921   25.1813 C   0  0  0  0  0  0  0  0  0  0  0  0
    5.5877   -0.7171   26.3200 C   0  0  0  0  0  0  0  0  0  0  0  0
    5.8300    0.6302   26.4713 C   0  0  0  0  0  0  0  0  0  0  0  0
    6.5067    1.2907   25.4491 C   0  0  0  0  0  0  0  0  0  0  0  0
    6.8291    2.9938   25.6265 Cl  0  0  0  0  0  0  0  0  0  0  0  0
    6.9522    0.6276   24.3109 C   0  0  0  0  0  0  0  0  0  0  0  0
    6.7375   -0.7508   24.1594 C   0  0  0  0  0  0  0  0  0  0  0  0
    7.4843    1.2071   23.5634 H   0  0  0  0  0  0  0  0  0  0  0  0
    5.5034    1.1609   27.3598 H   0  0  0  0  0  0  0  0  0  0  0  0
    5.0650   -1.2841   27.0836 H   0  0  0  0  0  0  0  0  0  0  0  0
    8.2552   -3.1346   24.0071 H   0  0  0  0  0  0  0  0  0  0  0  0
    7.5479   -3.6186   22.4491 H   0  0  0  0  0  0  0  0  0  0  0  0
    8.2112    0.9633   21.3244 H   0  0  0  0  0  0  0  0  0  0  0  0
    8.8815   -0.2997   20.3020 H   0  0  0  0  0  0  0  0  0  0  0  0
    9.0477   -0.3101   23.1422 H   0  0  0  0  0  0  0  0  0  0  0  0
   10.6467   -1.4768   21.8454 H   0  0  0  0  0  0  0  0  0  0  0  0
    9.8552   -2.7101   22.8000 H   0  0  0  0  0  0  0  0  0  0  0  0
    9.4356   -2.5349   21.0974 H   0  0  0  0  0  0  0  0  0  0  0  0
  1  2  1  0
  2  3  1  0
  3  4  1  0
  4  5  1  0
  5  6  2  0
  6  7  1  0
  7  8  2  0
  8  9  1  0
  9 10  2  0
 10 11  1  0
 11 12  2  0
 12 13  1  0
 13 14  2  0
 13 15  1  0
 12 16  1  0
 11 17  1  0
 10 18  1  0
  8 19  1  0
  6 20  1  0
  4 21  1  0
 21 22  2  0
 21 23  1  0
 23 24  1  1
 24 25  1  0
 25 26  1  0
 26 27  1  0
 27 28  1  0
 28 29  1  0
 29 30  1  0
 30 31  1  0
 31 32  1  0
 32 33  1  0
 33 34  1  0
 34 35  1  0
 34 36  1  0
 32 37  1  0
 32 38  1  0
 31 39  1  0
 39 40  1  0
 39 41  1  0
 30 42  1  0
 30 43  1  0
 29 44  1  0
 29 45  1  0
 28 46  1  1
 27 47  1  0
 27 48  1  0
 26 49  1  0
 26 50  1  0
 25 51  1  0
 51 52  2  0
 51 53  1  0
 53 54  2  0
 54 55  1  0
 55 56  2  0
 56 57  1  0
 56 58  1  0
 58 59  2  0
 58 60  1  0
 55 61  1  0
 54 62  1  0
 24 63  1  0
 24 64  1  0
  3 65  1  0
  3 66  1  0
  2 67  1  1
  1 68  1  0
  1 69  1  0
  1 70  1  0
 23  2  1  0
 39 28  1  0
 59 53  1  0
 14  5  1  0
 59 23  1  0
 14  9  1  0
 34 31  1  0
M  CHG  1  28   1
M  END
>  <cnnaffinities>  (36) 
[6.44868]

>  <score>  (36) 
6.44868

>  <index>  (36) 
62

>  <Smiles>  (36) 
C([C@]1(C(N(c2c(nc(c3c(c(c(c(c23)[H])[H])[H])[H])[H])[H])C(=O)[C@]21C(N(C(C([N@@+]1(C(C(C3(C(OC3([H])[H])([H])[H])C1([H])[H])([H])[H])([H])[H])[H])([H])[H])([H])[H])C(=O)c1c(c(c(Cl)c(c21)[H])[H])[H])([H])[H])([H])[H])[H])([H])([H])[H]

>  <h>  (36) 
<NA>

>  <Training>  (36) 
True

>  <Success>  (36) 
True

>  <enamine_searched>  (36) 
False

>  <enamine_id>  (36) 
nan

$$$$

     RDKit          3D

 66 71  0  0  0  0  0  0  0  0999 V2000
    9.7010   -1.9836   21.9786 C   0  0  0  0  0  0  0  0  0  0  0  0
    8.5738   -1.0149   22.3609 C   0  0  1  0  0  0  0  0  0  0  0  0
    8.1665   -0.1251   21.1643 C   0  0  0  0  0  0  0  0  0  0  0  0
    6.8496   -0.5803   20.7948 N   0  0  0  0  0  0  0  0  0  0  0  0
    6.1022    0.0163   19.7523 C   0  0  0  0  0  0  0  0  0  0  0  0
    6.4635   -0.2232   18.4523 C   0  0  0  0  0  0  0  0  0  0  0  0
    5.8096    0.2594   17.3677 N   0  0  0  0  0  0  0  0  0  0  0  0
    4.7710    1.0279   17.5952 C   0  0  0  0  0  0  0  0  0  0  0  0
    4.3124    1.3857   18.8943 C   0  0  0  0  0  0  0  0  0  0  0  0
    3.1984    2.2477   19.0626 C   0  0  0  0  0  0  0  0  0  0  0  0
    2.8056    2.6349   20.3123 C   0  0  0  0  0  0  0  0  0  0  0  0
    3.5092    2.1767   21.4500 C   0  0  0  0  0  0  0  0  0  0  0  0
    4.5803    1.3256   21.3215 C   0  0  0  0  0  0  0  0  0  0  0  0
    5.0005    0.8915   20.0251 C   0  0  0  0  0  0  0  0  0  0  0  0
    5.1086    0.9859   22.2146 H   0  0  0  0  0  0  0  0  0  0  0  0
    3.1904    2.5054   22.4354 H   0  0  0  0  0  0  0  0  0  0  0  0
    1.9597    3.3057   20.4371 H   0  0  0  0  0  0  0  0  0  0  0  0
    2.6876    2.6023   18.1712 H   0  0  0  0  0  0  0  0  0  0  0  0
    4.2376    1.4195   16.7275 H   0  0  0  0  0  0  0  0  0  0  0  0
    7.3190   -0.8651   18.2469 H   0  0  0  0  0  0  0  0  0  0  0  0
    6.2910   -1.4780   21.6647 C   0  0  0  0  0  0  0  0  0  0  0  0
    5.2065   -2.0006   21.4953 O   0  0  0  0  0  0  0  0  0  0  0  0
    7.2486   -1.6707   22.8577 C   0  0  1  0  0  0  0  0  0  0  0  0
    7.4104   -3.1704   23.1824 C   0  0  0  0  0  0  0  0  0  0  0  0
    6.2395   -3.7349   23.8094 N   0  0  0  0  0  0  0  0  0  0  0  0
    5.7263   -5.0226   23.3943 C   0  0  0  0  0  0  0  0  0  0  0  0
    4.4900   -4.8263   22.5125 C   0  0  0  0  0  0  0  0  0  0  0  0
    3.7334   -6.0843   22.2806 N   0  0  0  0  0  4  0  0  0  0  0  0
    4.6445   -7.1561   21.4099 C   0  0  0  0  0  0  0  0  0  0  0  0
    4.0657   -7.9429   20.4055 C   0  0  0  0  0  0  0  0  0  0  0  0
    2.3523   -8.5899   22.5153 O   0  0  0  0  0  0  0  0  0  0  0  0
    2.0292   -7.6493   23.3043 C   0  0  0  0  0  0  0  0  0  0  0  0
    3.1712   -6.5965   23.5647 C   0  0  0  0  0  0  0  0  0  0  0  0
    2.7732   -5.7425   24.1306 H   0  0  0  0  0  0  0  0  0  0  0  0
    3.9555   -7.0555   24.1802 H   0  0  0  0  0  0  0  0  0  0  0  0
    1.1540   -7.0037   22.9402 H   0  0  0  0  0  0  0  0  0  0  0  0
    1.7211   -7.9776   24.3630 H   0  0  0  0  0  0  0  0  0  0  0  0
    3.3424   -8.6912   20.6420 H   0  0  0  0  0  0  0  0  0  0  0  0
    4.2496   -7.7530   19.3562 H   0  0  0  0  0  0  0  0  0  0  0  0
    5.3956   -6.4729   20.9642 H   0  0  0  0  0  0  0  0  0  0  0  0
    5.1402   -7.7534   22.2021 H   0  0  0  0  0  0  0  0  0  0  0  0
    2.9276   -5.8980   21.6524 H   0  0  0  0  0  0  0  0  0  0  0  0
    4.7897   -4.3887   21.5593 H   0  0  0  0  0  0  0  0  0  0  0  0
    3.8252   -4.1025   22.9901 H   0  0  0  0  0  0  0  0  0  0  0  0
    6.5095   -5.5649   22.8495 H   0  0  0  0  0  0  0  0  0  0  0  0
    5.5004   -5.5749   24.3111 H   0  0  0  0  0  0  0  0  0  0  0  0
    5.6011   -3.1165   24.8425 C   0  0  0  0  0  0  0  0  0  0  0  0
    4.7740   -3.6980   25.5383 O   0  0  0  0  0  0  0  0  0  0  0  0
    5.9365   -1.6695   25.0400 C   0  0  0  0  0  0  0  0  0  0  0  0
    5.4574   -1.0394   26.1863 C   0  0  0  0  0  0  0  0  0  0  0  0
    5.6864    0.3042   26.3997 C   0  0  0  0  0  0  0  0  0  0  0  0
    6.3965    1.0173   25.4377 C   0  0  0  0  0  0  0  0  0  0  0  0
    6.6891    2.7141   25.6931 Cl  0  0  0  0  0  0  0  0  0  0  0  0
    6.8916    0.4042   24.2994 C   0  0  0  0  0  0  0  0  0  0  0  0
    6.6916   -0.9684   24.0941 C   0  0  0  0  0  0  0  0  0  0  0  0
    7.4532    1.0133   23.5974 H   0  0  0  0  0  0  0  0  0  0  0  0
    5.3206    0.8043   27.2883 H   0  0  0  0  0  0  0  0  0  0  0  0
    4.9040   -1.6369   26.9017 H   0  0  0  0  0  0  0  0  0  0  0  0
    7.6140   -3.7231   22.2624 H   0  0  0  0  0  0  0  0  0  0  0  0
    8.2726   -3.2930   23.8516 H   0  0  0  0  0  0  0  0  0  0  0  0
    8.1458    0.9451   21.4150 H   0  0  0  0  0  0  0  0  0  0  0  0
    8.8576   -0.2386   20.3277 H   0  0  0  0  0  0  0  0  0  0  0  0
    8.9748   -0.4032   23.1759 H   0  0  0  0  0  0  0  0  0  0  0  0
    9.8923   -2.7185   22.7627 H   0  0  0  0  0  0  0  0  0  0  0  0
    9.4795   -2.5267   21.0527 H   0  0  0  0  0  0  0  0  0  0  0  0
   10.6346   -1.4320   21.8481 H   0  0  0  0  0  0  0  0  0  0  0  0
  1  2  1  0
  2  3  1  0
  3  4  1  0
  4  5  1  0
  5  6  2  0
  6  7  1  0
  7  8  2  0
  8  9  1  0
  9 10  2  0
 10 11  1  0
 11 12  2  0
 12 13  1  0
 13 14  2  0
 13 15  1  0
 12 16  1  0
 11 17  1  0
 10 18  1  0
  8 19  1  0
  6 20  1  0
  4 21  1  0
 21 22  2  0
 21 23  1  0
 23 24  1  1
 24 25  1  0
 25 26  1  0
 26 27  1  0
 27 28  1  0
 28 29  1  0
 29 30  1  0
 30 31  1  0
 31 32  1  0
 32 33  1  0
 33 34  1  0
 33 35  1  0
 32 36  1  0
 32 37  1  0
 30 38  1  0
 30 39  1  0
 29 40  1  0
 29 41  1  0
 28 42  1  0
 27 43  1  0
 27 44  1  0
 26 45  1  0
 26 46  1  0
 25 47  1  0
 47 48  2  0
 47 49  1  0
 49 50  2  0
 50 51  1  0
 51 52  2  0
 52 53  1  0
 52 54  1  0
 54 55  2  0
 54 56  1  0
 51 57  1  0
 50 58  1  0
 24 59  1  0
 24 60  1  0
  3 61  1  0
  3 62  1  0
  2 63  1  1
  1 64  1  0
  1 65  1  0
  1 66  1  0
 23  2  1  0
 33 28  1  0
 55 49  1  0
 14  5  1  0
 55 23  1  0
 14  9  1  0
M  CHG  1  28   1
M  END
>  <cnnaffinities>  (37) 
[6.17956]

>  <score>  (37) 
6.17956

>  <index>  (37) 
64

>  <Smiles>  (37) 
C([C@]1(C(N(c2c(nc(c3c(c(c(c(c23)[H])[H])[H])[H])[H])[H])C(=O)[C@]21C(N(C(C([N+]1(C(C(OC(C1([H])[H])([H])[H])([H])[H])([H])[H])[H])([H])[H])([H])[H])C(=O)c1c(c(c(Cl)c(c21)[H])[H])[H])([H])[H])([H])[H])[H])([H])([H])[H]

>  <h>  (37) 
<NA>

>  <Training>  (37) 
True

>  <Success>  (37) 
True

>  <enamine_searched>  (37) 
False

>  <enamine_id>  (37) 
nan

$$$$

     RDKit          3D

 54 59  0  0  0  0  0  0  0  0999 V2000
    8.5666    3.6357   23.2307 C   0  0  0  0  0  0  0  0  0  0  0  0
    7.5459    2.7321   23.7378 N   0  0  0  0  0  0  0  0  0  0  0  0
    7.6872    2.2464   25.0030 C   0  0  0  0  0  0  0  0  0  0  0  0
    8.5872    2.6205   25.7329 O   0  0  0  0  0  0  0  0  0  0  0  0
    6.6421    1.2181   25.4756 C   0  0  0  0  0  0  0  0  0  0  0  0
    6.9808   -0.1545   25.1505 N   0  0  0  0  0  0  0  0  0  0  0  0
    7.7375   -0.9772   25.9062 C   0  0  0  0  0  0  0  0  0  0  0  0
    7.0815   -1.9819   26.5756 O   0  0  0  0  0  0  0  0  0  0  0  0
    7.8605   -2.2835   25.3570 C   0  0  0  0  0  0  0  0  0  0  0  0
    8.8600   -3.3977   25.6014 C   0  0  0  0  0  0  0  0  0  0  0  0
    8.1850   -4.7263   25.3218 C   0  0  0  0  0  0  0  0  0  0  0  0
    7.0819   -4.8273   24.5821 C   0  0  0  0  0  0  0  0  0  0  0  0
    6.4379   -6.4077   24.2053 Cl  0  0  0  0  0  0  0  0  0  0  0  0
    6.2427   -3.6958   24.0327 C   0  0  0  0  0  0  0  0  0  0  0  0
    6.9321   -2.3587   24.1525 C   0  0  1  0  0  0  0  0  0  0  0  0
    6.2830   -0.9804   24.1814 C   0  0  2  0  0  0  0  0  0  0  0  0
    7.0262   -1.4215   22.9612 C   0  0  2  0  0  0  0  0  0  0  0  0
    6.2335   -1.4222   21.6929 C   0  0  0  0  0  0  0  0  0  0  0  0
    5.2181   -2.0345   21.4204 O   0  0  0  0  0  0  0  0  0  0  0  0
    6.8571   -0.5433   20.8205 N   0  0  0  0  0  0  0  0  0  0  0  0
    6.1128    0.0337   19.7528 C   0  0  0  0  0  0  0  0  0  0  0  0
    6.4567   -0.2319   18.4527 C   0  0  0  0  0  0  0  0  0  0  0  0
    5.7927    0.2419   17.3679 N   0  0  0  0  0  0  0  0  0  0  0  0
    4.7588    1.0202   17.5851 C   0  0  0  0  0  0  0  0  0  0  0  0
    4.3089    1.3975   18.8823 C   0  0  0  0  0  0  0  0  0  0  0  0
    3.1928    2.2567   19.0629 C   0  0  0  0  0  0  0  0  0  0  0  0
    2.8039    2.6368   20.3173 C   0  0  0  0  0  0  0  0  0  0  0  0
    3.5103    2.1746   21.4523 C   0  0  0  0  0  0  0  0  0  0  0  0
    4.5845    1.3312   21.3059 C   0  0  0  0  0  0  0  0  0  0  0  0
    5.0054    0.9086   20.0090 C   0  0  0  0  0  0  0  0  0  0  0  0
    5.1226    0.9690   22.1819 H   0  0  0  0  0  0  0  0  0  0  0  0
    3.1934    2.4868   22.4434 H   0  0  0  0  0  0  0  0  0  0  0  0
    1.9546    3.3010   20.4500 H   0  0  0  0  0  0  0  0  0  0  0  0
    2.6724    2.6159   18.1787 H   0  0  0  0  0  0  0  0  0  0  0  0
    4.2185    1.3984   16.7141 H   0  0  0  0  0  0  0  0  0  0  0  0
    7.3064   -0.8796   18.2430 H   0  0  0  0  0  0  0  0  0  0  0  0
    8.0968    0.0380   21.2849 C   0  0  0  0  0  0  0  0  0  0  0  0
    8.4662   -0.8373   22.5970 C   0  0  0  0  0  0  0  0  0  0  0  0
    9.4272   -1.1537   23.3535 C   0  0  0  0  0  0  0  0  0  0  0  0
    9.9757   -3.2688   24.7798 F   0  0  0  0  0  0  0  0  0  0  0  0
   10.3801   -1.1872   23.8451 H   0  0  0  0  0  0  0  0  0  0  0  0
    7.9745    1.0867   21.5841 H   0  0  0  0  0  0  0  0  0  0  0  0
    8.8716   -0.0021   20.5219 H   0  0  0  0  0  0  0  0  0  0  0  0
    5.2113   -0.8508   24.0837 H   0  0  0  0  0  0  0  0  0  0  0  0
    5.9507   -3.8918   22.9965 H   0  0  0  0  0  0  0  0  0  0  0  0
    5.3236   -3.6844   24.6282 H   0  0  0  0  0  0  0  0  0  0  0  0
    8.6349   -5.6081   25.7579 H   0  0  0  0  0  0  0  0  0  0  0  0
    9.2446   -3.3895   26.6299 H   0  0  0  0  0  0  0  0  0  0  0  0
    6.5489    1.3347   26.5614 H   0  0  0  0  0  0  0  0  0  0  0  0
    5.6650    1.4423   25.0303 H   0  0  0  0  0  0  0  0  0  0  0  0
    6.7460    2.4882   23.1680 H   0  0  0  0  0  0  0  0  0  0  0  0
    8.7186    4.4746   23.9178 H   0  0  0  0  0  0  0  0  0  0  0  0
    9.5267    3.1158   23.1571 H   0  0  0  0  0  0  0  0  0  0  0  0
    8.2829    4.0165   22.2457 H   0  0  0  0  0  0  0  0  0  0  0  0
  1  2  1  0
  2  3  1  0
  3  4  2  0
  3  5  1  0
  5  6  1  0
  6  7  1  0
  7  8  2  0
  7  9  1  0
  9 10  2  0
 10 11  1  0
 11 12  2  0
 12 13  1  0
 12 14  1  0
 15 14  1  6
 15 16  1  0
 16 17  1  0
 17 18  1  6
 18 19  2  0
 18 20  1  0
 20 21  1  0
 21 22  2  0
 22 23  1  0
 23 24  2  0
 24 25  1  0
 25 26  2  0
 26 27  1  0
 27 28  2  0
 28 29  1  0
 29 30  2  0
 29 31  1  0
 28 32  1  0
 27 33  1  0
 26 34  1  0
 24 35  1  0
 22 36  1  0
 20 37  1  0
 37 38  1  0
 38 39  2  0
 39 40  1  0
 39 41  1  0
 37 42  1  0
 37 43  1  0
 16 44  1  6
 14 45  1  0
 14 46  1  0
 11 47  1  0
 10 48  1  0
  5 49  1  0
  5 50  1  0
  2 51  1  0
  1 52  1  0
  1 53  1  0
  1 54  1  0
 16  6  1  0
 38 17  1  0
 15  9  1  0
 30 21  1  0
 17 15  1  0
 30 25  1  0
M  END
>  <cnnaffinities>  (38) 
[6.46905]

>  <score>  (38) 
6.46905

>  <index>  (38) 
65

>  <Smiles>  (38) 
C(N(C(=O)C(N1C(=O)C2=C(C(=C(Cl)C([C@]32[C@@]1([C@@]13C(=O)N(c2c(nc(c3c(c(c(c(c23)[H])[H])[H])[H])[H])[H])C(/C/1=C(\F)/[H])([H])[H])[H])([H])[H])[H])[H])([H])[H])[H])([H])([H])[H]

>  <h>  (38) 
<NA>

>  <Training>  (38) 
True

>  <Success>  (38) 
True

>  <enamine_searched>  (38) 
False

>  <enamine_id>  (38) 
nan

$$$$

     RDKit          3D

 47 50  0  0  0  0  0  0  0  0999 V2000
    5.4688   -2.4304   20.9129 O   0  0  0  0  0  0  0  0  0  0  0  0
    6.1382   -1.6672   21.5835 C   0  0  0  0  0  0  0  0  0  0  0  0
    6.9057   -0.5050   20.9139 C   0  0  0  0  0  0  0  0  0  0  0  0
    6.1175    0.0892   19.7656 C   0  0  0  0  0  0  0  0  0  0  0  0
    6.4228   -0.2138   18.4632 C   0  0  0  0  0  0  0  0  0  0  0  0
    5.7601    0.2403   17.3642 N   0  0  0  0  0  0  0  0  0  0  0  0
    4.7365    1.0319   17.5753 C   0  0  0  0  0  0  0  0  0  0  0  0
    4.2865    1.4203   18.8677 C   0  0  0  0  0  0  0  0  0  0  0  0
    3.1620    2.2679   19.0466 C   0  0  0  0  0  0  0  0  0  0  0  0
    2.7481    2.6221   20.3024 C   0  0  0  0  0  0  0  0  0  0  0  0
    3.4442    2.1412   21.4344 C   0  0  0  0  0  0  0  0  0  0  0  0
    4.5361    1.3203   21.2848 C   0  0  0  0  0  0  0  0  0  0  0  0
    4.9916    0.9373   19.9965 C   0  0  0  0  0  0  0  0  0  0  0  0
    5.0616    0.9618   22.1644 H   0  0  0  0  0  0  0  0  0  0  0  0
    3.1072    2.4221   22.4288 H   0  0  0  0  0  0  0  0  0  0  0  0
    1.8880    3.2738   20.4387 H   0  0  0  0  0  0  0  0  0  0  0  0
    2.6412    2.6392   18.1661 H   0  0  0  0  0  0  0  0  0  0  0  0
    4.1994    1.4002   16.6990 H   0  0  0  0  0  0  0  0  0  0  0  0
    7.2658   -0.8686   18.2438 H   0  0  0  0  0  0  0  0  0  0  0  0
    7.8532   -0.9034   20.5239 H   0  0  0  0  0  0  0  0  0  0  0  0
    7.1654    0.2745   21.6458 H   0  0  0  0  0  0  0  0  0  0  0  0
    6.1918   -1.7438   22.9677 N   0  0  0  0  0  0  0  0  0  0  0  0
    7.4459   -1.6666   23.7166 C   0  0  0  0  0  0  0  0  0  0  0  0
    7.2225   -1.0293   25.0780 C   0  0  0  0  0  0  0  0  0  0  0  0
    6.1376   -1.7604   25.8679 C   0  0  1  0  0  0  0  0  0  0  0  0
    5.8695   -1.1103   27.2366 C   0  0  0  0  0  0  0  0  0  0  0  0
    5.1185    0.2184   27.1462 C   0  0  0  0  0  0  0  0  0  0  0  0
    3.8591    0.0737   26.3216 C   0  0  0  0  0  0  0  0  0  0  0  0
    3.2389    1.2895   26.1834 F   0  0  0  0  0  0  0  0  0  0  0  0
    2.9668   -0.7127   27.0062 F   0  0  0  0  0  0  0  0  0  0  0  0
    4.1011   -0.5393   24.9583 C   0  0  0  0  0  0  0  0  0  0  0  0
    4.8426   -1.8784   25.0488 C   0  0  1  0  0  0  0  0  0  0  0  0
    5.1293   -2.4697   23.6632 C   0  0  0  0  0  0  0  0  0  0  0  0
    5.3645   -3.5412   23.7619 H   0  0  0  0  0  0  0  0  0  0  0  0
    4.2329   -2.4186   23.0426 H   0  0  0  0  0  0  0  0  0  0  0  0
    4.1703   -2.5628   25.5776 H   0  0  0  0  0  0  0  0  0  0  0  0
    4.6730    0.1794   24.3673 H   0  0  0  0  0  0  0  0  0  0  0  0
    3.1314   -0.6633   24.4712 H   0  0  0  0  0  0  0  0  0  0  0  0
    4.8537    0.5977   28.1380 H   0  0  0  0  0  0  0  0  0  0  0  0
    5.7356    0.9789   26.6626 H   0  0  0  0  0  0  0  0  0  0  0  0
    6.8180   -0.9544   27.7619 H   0  0  0  0  0  0  0  0  0  0  0  0
    5.2849   -1.7990   27.8560 H   0  0  0  0  0  0  0  0  0  0  0  0
    6.5070   -2.7791   26.0508 H   0  0  0  0  0  0  0  0  0  0  0  0
    6.9599    0.0219   24.9425 H   0  0  0  0  0  0  0  0  0  0  0  0
    8.1592   -1.0322   25.6457 H   0  0  0  0  0  0  0  0  0  0  0  0
    7.8838   -2.6683   23.8606 H   0  0  0  0  0  0  0  0  0  0  0  0
    8.1747   -1.0986   23.1371 H   0  0  0  0  0  0  0  0  0  0  0  0
  1  2  2  0
  2  3  1  0
  3  4  1  0
  4  5  2  0
  5  6  1  0
  6  7  2  0
  7  8  1  0
  8  9  2  0
  9 10  1  0
 10 11  2  0
 11 12  1  0
 12 13  2  0
 12 14  1  0
 11 15  1  0
 10 16  1  0
  9 17  1  0
  7 18  1  0
  5 19  1  0
  3 20  1  0
  3 21  1  0
  2 22  1  0
 22 23  1  0
 23 24  1  0
 24 25  1  0
 25 26  1  0
 26 27  1  0
 27 28  1  0
 28 29  1  0
 28 30  1  0
 28 31  1  0
 31 32  1  0
 32 33  1  0
 33 34  1  0
 33 35  1  0
 32 36  1  1
 31 37  1  0
 31 38  1  0
 27 39  1  0
 27 40  1  0
 26 41  1  0
 26 42  1  0
 25 43  1  1
 24 44  1  0
 24 45  1  0
 23 46  1  0
 23 47  1  0
 13  4  1  0
 33 22  1  0
 13  8  1  0
 32 25  1  0
M  END
>  <cnnaffinities>  (39) 
[5.53527, 5.5352]

>  <score>  (39) 
5.53527

>  <index>  (39) 
66

>  <Smiles>  (39) 
O=C(C(c1c(nc(c2c(c(c(c(c12)[H])[H])[H])[H])[H])[H])([H])[H])N1C(C([C@]2(C(C(C(F)(F)C([C@]2(C1([H])[H])[H])([H])[H])([H])[H])([H])[H])[H])([H])[H])([H])[H]

>  <h>  (39) 
<NA>

>  <Training>  (39) 
True

>  <Success>  (39) 
True

>  <enamine_searched>  (39) 
False

>  <enamine_id>  (39) 
nan

$$$$

     RDKit          3D

 57 62  0  0  0  0  0  0  0  0999 V2000
    8.0750   -7.0405   24.0624 C   0  0  0  0  0  0  0  0  0  0  0  0
    6.7132   -6.7409   23.5783 C   0  0  0  0  0  0  0  0  0  0  0  0
    6.4469   -5.6513   22.9329 N   0  0  0  0  0  0  0  0  0  0  0  0
    5.1157   -5.5042   23.1723 C   0  0  0  0  0  0  0  0  0  0  0  0
    4.5447   -4.1581   22.8973 C   0  0  0  0  0  0  0  0  0  0  0  0
    5.3750   -3.1630   23.5516 N   0  0  0  0  0  0  0  0  0  0  0  0
    6.7503   -2.9292   23.1257 C   0  0  0  0  0  0  0  0  0  0  0  0
    6.9152   -1.4418   22.8030 C   0  0  2  0  0  0  0  0  0  0  0  0
    6.0934   -1.2344   21.5201 C   0  0  0  0  0  0  0  0  0  0  0  0
    4.9873   -1.6743   21.2799 O   0  0  0  0  0  0  0  0  0  0  0  0
    6.8352   -0.5065   20.6177 N   0  0  0  0  0  0  0  0  0  0  0  0
    6.1630    0.1513   19.5641 C   0  0  0  0  0  0  0  0  0  0  0  0
    6.5435   -0.0505   18.2645 C   0  0  0  0  0  0  0  0  0  0  0  0
    5.8654    0.4357   17.1964 N   0  0  0  0  0  0  0  0  0  0  0  0
    4.7974    1.1612   17.4439 C   0  0  0  0  0  0  0  0  0  0  0  0
    4.3323    1.4873   18.7497 C   0  0  0  0  0  0  0  0  0  0  0  0
    3.1775    2.2792   18.9733 C   0  0  0  0  0  0  0  0  0  0  0  0
    2.7956    2.6115   20.2435 C   0  0  0  0  0  0  0  0  0  0  0  0
    3.5518    2.1751   21.3542 C   0  0  0  0  0  0  0  0  0  0  0  0
    4.6637    1.3960   21.1734 C   0  0  0  0  0  0  0  0  0  0  0  0
    5.0566    1.0079   19.8558 C   0  0  0  0  0  0  0  0  0  0  0  0
    5.2393    1.0604   22.0371 H   0  0  0  0  0  0  0  0  0  0  0  0
    3.2435    2.4478   22.3581 H   0  0  0  0  0  0  0  0  0  0  0  0
    1.9180    3.2290   20.4074 H   0  0  0  0  0  0  0  0  0  0  0  0
    2.6222    2.6306   18.1094 H   0  0  0  0  0  0  0  0  0  0  0  0
    4.2424    1.5343   16.5827 H   0  0  0  0  0  0  0  0  0  0  0  0
    7.4200   -0.6628   18.0517 H   0  0  0  0  0  0  0  0  0  0  0  0
    8.1101   -0.0662   21.1465 C   0  0  0  0  0  0  0  0  0  0  0  0
    8.3474   -0.9804   22.3737 C   0  0  2  0  0  0  0  0  0  0  0  0
    9.3557   -2.0834   22.0290 C   0  0  0  0  0  0  0  0  0  0  0  0
    9.0539   -2.6414   21.1354 H   0  0  0  0  0  0  0  0  0  0  0  0
    9.4704   -2.7911   22.8553 H   0  0  0  0  0  0  0  0  0  0  0  0
   10.3397   -1.6360   21.8360 H   0  0  0  0  0  0  0  0  0  0  0  0
    8.7868   -0.4182   23.2040 H   0  0  0  0  0  0  0  0  0  0  0  0
    8.8945   -0.1833   20.3947 H   0  0  0  0  0  0  0  0  0  0  0  0
    8.0688    0.9968   21.4302 H   0  0  0  0  0  0  0  0  0  0  0  0
    6.4069   -0.6520   24.0147 C   0  0  0  0  0  0  0  0  0  0  0  0
    6.8142    0.6701   24.2543 C   0  0  0  0  0  0  0  0  0  0  0  0
    6.5892    1.2350   25.5008 C   0  0  0  0  0  0  0  0  0  0  0  0
    7.0557    2.4726   25.7532 F   0  0  0  0  0  0  0  0  0  0  0  0
    5.9259    0.5629   26.5254 C   0  0  0  0  0  0  0  0  0  0  0  0
    5.4053   -0.6863   26.2418 C   0  0  0  0  0  0  0  0  0  0  0  0
    5.5976   -1.2579   24.9853 C   0  0  0  0  0  0  0  0  0  0  0  0
    4.8938   -2.5353   24.6655 C   0  0  0  0  0  0  0  0  0  0  0  0
    3.9658   -2.9727   25.3266 O   0  0  0  0  0  0  0  0  0  0  0  0
    4.8398   -1.2508   26.9776 H   0  0  0  0  0  0  0  0  0  0  0  0
    5.8064    1.0301   27.4983 H   0  0  0  0  0  0  0  0  0  0  0  0
    7.3401    1.2607   23.5074 H   0  0  0  0  0  0  0  0  0  0  0  0
    7.4421   -3.2414   23.9194 H   0  0  0  0  0  0  0  0  0  0  0  0
    6.9491   -3.5273   22.2425 H   0  0  0  0  0  0  0  0  0  0  0  0
    4.5387   -3.9616   21.8210 H   0  0  0  0  0  0  0  0  0  0  0  0
    3.5499   -4.0744   23.3217 H   0  0  0  0  0  0  0  0  0  0  0  0
    4.5453   -6.5000   23.7751 N   0  0  0  0  0  0  0  0  0  0  0  0
    5.6252   -7.3423   24.0547 O   0  0  0  0  0  0  0  0  0  0  0  0
    8.7412   -6.3054   23.6291 H   0  0  0  0  0  0  0  0  0  0  0  0
    8.4072   -8.0510   23.8396 H   0  0  0  0  0  0  0  0  0  0  0  0
    8.0779   -6.8656   25.1445 H   0  0  0  0  0  0  0  0  0  0  0  0
  1  2  1  0
  2  3  2  0
  3  4  1  0
  4  5  1  0
  5  6  1  0
  6  7  1  0
  8  7  1  1
  8  9  1  0
  9 10  2  0
  9 11  1  0
 11 12  1  0
 12 13  2  0
 13 14  1  0
 14 15  2  0
 15 16  1  0
 16 17  2  0
 17 18  1  0
 18 19  2  0
 19 20  1  0
 20 21  2  0
 20 22  1  0
 19 23  1  0
 18 24  1  0
 17 25  1  0
 15 26  1  0
 13 27  1  0
 11 28  1  0
 28 29  1  0
 29 30  1  0
 30 31  1  0
 30 32  1  0
 30 33  1  0
 29 34  1  1
 28 35  1  0
 28 36  1  0
  8 37  1  0
 37 38  2  0
 38 39  1  0
 39 40  1  0
 39 41  2  0
 41 42  1  0
 42 43  2  0
 43 44  1  0
 44 45  2  0
 42 46  1  0
 41 47  1  0
 38 48  1  0
  7 49  1  0
  7 50  1  0
  5 51  1  0
  5 52  1  0
  4 53  2  0
 53 54  1  0
  1 55  1  0
  1 56  1  0
  1 57  1  0
 54  2  1  0
 44  6  1  0
 29  8  1  0
 43 37  1  0
 21 12  1  0
 21 16  1  0
M  END
>  <cnnaffinities>  (40) 
[6.06251]

>  <score>  (40) 
6.06251

>  <index>  (40) 
68

>  <Smiles>  (40) 
C(c1nc(C(N2C([C@@]3(C(=O)N(c4c(nc(c5c(c(c(c(c45)[H])[H])[H])[H])[H])[H])C([C@@]3(C([H])([H])[H])[H])([H])[H])c3c(c(F)c(c(c3C2=O)[H])[H])[H])([H])[H])([H])[H])no1)([H])([H])[H]

>  <h>  (40) 
<NA>

>  <Training>  (40) 
True

>  <Success>  (40) 
True

>  <enamine_searched>  (40) 
False

>  <enamine_id>  (40) 
nan

$$$$

     RDKit          3D

 64 68  0  0  0  0  0  0  0  0999 V2000
    2.4406   -1.8791   27.4709 C   0  0  0  0  0  0  0  0  0  0  0  0
    3.1431   -1.8071   26.1065 C   0  0  0  0  0  0  0  0  0  0  0  0
    4.6430   -1.5357   26.2150 C   0  0  0  0  0  0  0  0  0  0  0  0
    5.0353   -0.4564   26.6113 O   0  0  0  0  0  0  0  0  0  0  0  0
    5.5222   -2.5462   25.7968 N   0  0  0  0  0  0  0  0  0  0  0  0
    5.2682   -3.9473   26.1469 C   0  0  0  0  0  0  0  0  0  0  0  0
    6.5510   -4.6080   26.6505 C   0  0  0  0  0  0  0  0  0  0  0  0
    7.6057   -4.5573   25.5468 C   0  0  0  0  0  0  0  0  0  0  0  0
    7.7177   -3.1721   24.9442 C   0  0  0  0  0  0  0  0  0  0  0  0
    8.8414   -2.8420   24.1955 C   0  0  0  0  0  0  0  0  0  0  0  0
    8.9678   -1.6255   23.5416 C   0  0  0  0  0  0  0  0  0  0  0  0
    7.9286   -0.7018   23.6466 C   0  0  0  0  0  0  0  0  0  0  0  0
    8.0073    0.5406   22.9444 N   0  0  0  0  0  0  0  0  0  0  0  0
    8.4519    1.7132   23.6965 C   0  0  0  0  0  0  0  0  0  0  0  0
    7.3222    2.3474   24.4606 C   0  0  0  0  0  0  0  0  0  0  0  0
    6.3602    3.0896   23.7820 C   0  0  0  0  0  0  0  0  0  0  0  0
    5.2732    3.6095   24.4753 C   0  0  0  0  0  0  0  0  0  0  0  0
    5.1331    3.3990   25.8439 C   0  0  0  0  0  0  0  0  0  0  0  0
    6.1097    2.6707   26.5119 C   0  0  0  0  0  0  0  0  0  0  0  0
    5.9531    2.3880   28.2249 Cl  0  0  0  0  0  0  0  0  0  0  0  0
    7.1986    2.1433   25.8326 C   0  0  0  0  0  0  0  0  0  0  0  0
    7.9168    1.5399   26.3803 H   0  0  0  0  0  0  0  0  0  0  0  0
    4.2840    3.7884   26.3959 H   0  0  0  0  0  0  0  0  0  0  0  0
    4.5232    4.1851   23.9389 H   0  0  0  0  0  0  0  0  0  0  0  0
    6.4693    3.2367   22.7081 H   0  0  0  0  0  0  0  0  0  0  0  0
    9.2106    1.4022   24.4224 H   0  0  0  0  0  0  0  0  0  0  0  0
    8.8661    2.4158   22.9647 H   0  0  0  0  0  0  0  0  0  0  0  0
    7.7504    0.6863   21.5928 C   0  0  0  0  0  0  0  0  0  0  0  0
    8.1489    1.6492   20.9675 O   0  0  0  0  0  0  0  0  0  0  0  0
    6.9392   -0.4290   20.9074 C   0  0  0  0  0  0  0  0  0  0  0  0
    6.1139    0.0969   19.7638 C   0  0  0  0  0  0  0  0  0  0  0  0
    6.4263   -0.1952   18.4629 C   0  0  0  0  0  0  0  0  0  0  0  0
    5.7612    0.2559   17.3668 N   0  0  0  0  0  0  0  0  0  0  0  0
    4.7290    1.0412   17.5742 C   0  0  0  0  0  0  0  0  0  0  0  0
    4.2890    1.4185   18.8709 C   0  0  0  0  0  0  0  0  0  0  0  0
    3.1640    2.2446   19.0856 C   0  0  0  0  0  0  0  0  0  0  0  0
    2.4626    2.6330   18.0052 F   0  0  0  0  0  0  0  0  0  0  0  0
    2.7509    2.6327   20.3239 C   0  0  0  0  0  0  0  0  0  0  0  0
    3.4523    2.1466   21.4475 C   0  0  0  0  0  0  0  0  0  0  0  0
    4.5392    1.3252   21.2979 C   0  0  0  0  0  0  0  0  0  0  0  0
    4.9952    0.9461   20.0054 C   0  0  0  0  0  0  0  0  0  0  0  0
    5.0537    0.9478   22.1781 H   0  0  0  0  0  0  0  0  0  0  0  0
    3.0930    2.4150   22.4388 H   0  0  0  0  0  0  0  0  0  0  0  0
    1.8921    3.2867   20.4144 H   0  0  0  0  0  0  0  0  0  0  0  0
    4.1941    1.4048   16.6984 H   0  0  0  0  0  0  0  0  0  0  0  0
    7.2726   -0.8455   18.2362 H   0  0  0  0  0  0  0  0  0  0  0  0
    7.6556   -1.1663   20.5227 H   0  0  0  0  0  0  0  0  0  0  0  0
    6.3323   -0.9433   21.6628 H   0  0  0  0  0  0  0  0  0  0  0  0
    6.8119   -0.9862   24.4185 C   0  0  0  0  0  0  0  0  0  0  0  0
    6.6915   -2.2215   25.0733 C   0  0  0  0  0  0  0  0  0  0  0  0
    6.0142   -0.2525   24.4697 H   0  0  0  0  0  0  0  0  0  0  0  0
    9.8586   -1.3953   22.9637 H   0  0  0  0  0  0  0  0  0  0  0  0
    9.6372   -3.5779   24.1186 H   0  0  0  0  0  0  0  0  0  0  0  0
    8.5867   -4.8752   25.9268 H   0  0  0  0  0  0  0  0  0  0  0  0
    7.3466   -5.2814   24.7537 H   0  0  0  0  0  0  0  0  0  0  0  0
    6.3462   -5.6465   26.9397 H   0  0  0  0  0  0  0  0  0  0  0  0
    6.9109   -4.0802   27.5454 H   0  0  0  0  0  0  0  0  0  0  0  0
    4.5029   -3.9445   26.9295 H   0  0  0  0  0  0  0  0  0  0  0  0
    4.8727   -4.5052   25.2801 H   0  0  0  0  0  0  0  0  0  0  0  0
    2.9473   -2.6927   25.4874 H   0  0  0  0  0  0  0  0  0  0  0  0
    2.7554   -0.9374   25.5570 H   0  0  0  0  0  0  0  0  0  0  0  0
    2.6029   -0.9505   28.0314 H   0  0  0  0  0  0  0  0  0  0  0  0
    2.8033   -2.7172   28.0813 H   0  0  0  0  0  0  0  0  0  0  0  0
    1.3592   -2.0040   27.3334 H   0  0  0  0  0  0  0  0  0  0  0  0
  1  2  1  0
  2  3  1  0
  3  4  2  0
  3  5  1  0
  5  6  1  0
  6  7  1  0
  7  8  1  0
  8  9  1  0
  9 10  2  0
 10 11  1  0
 11 12  2  0
 12 13  1  0
 13 14  1  0
 14 15  1  0
 15 16  2  0
 16 17  1  0
 17 18  2  0
 18 19  1  0
 19 20  1  0
 19 21  2  0
 21 22  1  0
 18 23  1  0
 17 24  1  0
 16 25  1  0
 14 26  1  0
 14 27  1  0
 13 28  1  0
 28 29  2  0
 28 30  1  0
 30 31  1  0
 31 32  2  0
 32 33  1  0
 33 34  2  0
 34 35  1  0
 35 36  2  0
 36 37  1  0
 36 38  1  0
 38 39  2  0
 39 40  1  0
 40 41  2  0
 40 42  1  0
 39 43  1  0
 38 44  1  0
 34 45  1  0
 32 46  1  0
 30 47  1  0
 30 48  1  0
 12 49  1  0
 49 50  2  0
 49 51  1  0
 11 52  1  0
 10 53  1  0
  8 54  1  0
  8 55  1  0
  7 56  1  0
  7 57  1  0
  6 58  1  0
  6 59  1  0
  2 60  1  0
  2 61  1  0
  1 62  1  0
  1 63  1  0
  1 64  1  0
 50  5  1  0
 50  9  1  0
 21 15  1  0
 41 31  1  0
 41 35  1  0
M  END
>  <cnnaffinities>  (41) 
[6.46205, 6.36738]

>  <score>  (41) 
6.46205

>  <index>  (41) 
69

>  <Smiles>  (41) 
C(C(C(=O)N1C(C(C(c2c(c(c(N(C(c3c(c(c(c(Cl)c3[H])[H])[H])[H])([H])[H])C(=O)C(c3c(nc(c4c(F)c(c(c(c34)[H])[H])[H])[H])[H])([H])[H])c(c12)[H])[H])[H])([H])[H])([H])[H])([H])[H])([H])[H])([H])([H])[H]

>  <h>  (41) 
<NA>

>  <Training>  (41) 
True

>  <Success>  (41) 
True

>  <enamine_searched>  (41) 
False

>  <enamine_id>  (41) 
nan

$$$$

     RDKit          3D

 59 64  0  0  0  0  0  0  0  0999 V2000
    9.7128   -2.0030   21.8590 C   0  0  0  0  0  0  0  0  0  0  0  0
    8.6665   -0.9887   22.3154 C   0  0  1  0  0  0  0  0  0  0  0  0
    8.2128   -0.0805   21.1457 C   0  0  0  0  0  0  0  0  0  0  0  0
    6.8625   -0.4910   20.8415 N   0  0  0  0  0  0  0  0  0  0  0  0
    6.1010    0.0607   19.7715 C   0  0  0  0  0  0  0  0  0  0  0  0
    6.4372   -0.2134   18.4700 C   0  0  0  0  0  0  0  0  0  0  0  0
    5.7677    0.2417   17.3791 N   0  0  0  0  0  0  0  0  0  0  0  0
    4.7367    1.0290   17.5806 C   0  0  0  0  0  0  0  0  0  0  0  0
    4.2896    1.4226   18.8750 C   0  0  0  0  0  0  0  0  0  0  0  0
    3.1705    2.2823   19.0518 C   0  0  0  0  0  0  0  0  0  0  0  0
    2.7794    2.6565   20.3074 C   0  0  0  0  0  0  0  0  0  0  0  0
    3.4873    2.1954   21.4385 C   0  0  0  0  0  0  0  0  0  0  0  0
    4.5701    1.3662   21.2974 C   0  0  0  0  0  0  0  0  0  0  0  0
    4.9937    0.9425   20.0085 C   0  0  0  0  0  0  0  0  0  0  0  0
    5.1149    1.0149   22.1731 H   0  0  0  0  0  0  0  0  0  0  0  0
    3.1733    2.4989   22.4321 H   0  0  0  0  0  0  0  0  0  0  0  0
    1.9283    3.3177   20.4475 H   0  0  0  0  0  0  0  0  0  0  0  0
    2.6416    2.6492   18.1728 H   0  0  0  0  0  0  0  0  0  0  0  0
    4.1993    1.3999   16.7009 H   0  0  0  0  0  0  0  0  0  0  0  0
    7.2780   -0.8732   18.2594 H   0  0  0  0  0  0  0  0  0  0  0  0
    6.3350   -1.3597   21.7715 C   0  0  0  0  0  0  0  0  0  0  0  0
    5.2218   -1.8408   21.7170 O   0  0  0  0  0  0  0  0  0  0  0  0
    7.3654   -1.6030   22.8899 C   0  0  1  0  0  0  0  0  0  0  0  0
    7.4701   -3.1242   23.1571 C   0  0  0  0  0  0  0  0  0  0  0  0
    6.2334   -3.6197   23.7267 N   0  0  0  0  0  0  0  0  0  0  0  0
    5.6349   -4.8391   23.1999 C   0  0  0  0  0  0  0  0  0  0  0  0
    6.0482   -5.9675   23.9686 C   0  0  0  0  0  0  0  0  0  0  0  0
    5.3101   -6.4406   24.8956 N   0  0  0  0  0  0  0  0  0  0  0  0
    6.1044   -7.3914   25.3847 C   0  0  0  0  0  0  0  0  0  0  0  0
    7.3723   -7.2538   24.8234 C   0  0  0  0  0  0  0  0  0  0  0  0
    7.3910   -6.4881   23.4744 N   0  0  0  0  0  0  0  0  0  0  0  0
    7.3910   -6.4881   23.4743 C   0  0  0  0  0  0  0  0  0  0  0  0
    7.3296   -6.3419   22.3109 H   0  0  0  0  0  0  0  0  0  0  0  0
    8.5185   -5.8259   23.5500 H   0  0  0  0  0  0  0  0  0  0  0  0
    8.6740   -7.5906   23.4315 H   0  0  0  0  0  0  0  0  0  0  0  0
    9.1472   -6.8140   23.5008 H   0  0  0  0  0  0  0  0  0  0  0  0
    5.8218   -8.0050   26.2630 H   0  0  0  0  0  0  0  0  0  0  0  0
    5.9521   -5.0634   22.1896 H   0  0  0  0  0  0  0  0  0  0  0  0
    4.5634   -4.8496   23.2963 H   0  0  0  0  0  0  0  0  0  0  0  0
    5.6964   -3.0606   24.8565 C   0  0  0  0  0  0  0  0  0  0  0  0
    4.9010   -3.6495   25.5756 O   0  0  0  0  0  0  0  0  0  0  0  0
    6.0891   -1.6333   25.1022 C   0  0  0  0  0  0  0  0  0  0  0  0
    5.5927   -0.9865   26.2411 C   0  0  0  0  0  0  0  0  0  0  0  0
    5.8155    0.3596   26.4590 C   0  0  0  0  0  0  0  0  0  0  0  0
    6.5279    1.0567   25.4929 C   0  0  0  0  0  0  0  0  0  0  0  0
    6.7257    2.3738   25.6717 F   0  0  0  0  0  0  0  0  0  0  0  0
    7.0325    0.4498   24.3575 C   0  0  0  0  0  0  0  0  0  0  0  0
    6.8605   -0.9274   24.1653 C   0  0  0  0  0  0  0  0  0  0  0  0
    7.5472    1.0703   23.6322 H   0  0  0  0  0  0  0  0  0  0  0  0
    5.4371    0.8781   27.3375 H   0  0  0  0  0  0  0  0  0  0  0  0
    5.0077   -1.5410   26.9657 H   0  0  0  0  0  0  0  0  0  0  0  0
    7.6746   -3.6463   22.2201 H   0  0  0  0  0  0  0  0  0  0  0  0
    8.3191   -3.3103   23.8363 H   0  0  0  0  0  0  0  0  0  0  0  0
    8.2554    0.9862   21.4064 H   0  0  0  0  0  0  0  0  0  0  0  0
    8.8508   -0.2088   20.2763 H   0  0  0  0  0  0  0  0  0  0  0  0
    9.1575   -0.3958   23.0934 H   0  0  0  0  0  0  0  0  0  0  0  0
   10.0966   -2.6391   22.6547 H   0  0  0  0  0  0  0  0  0  0  0  0
   10.6147   -1.4856   21.5835 H   0  0  0  0  0  0  0  0  0  0  0  0
    9.3800   -2.6178   21.0170 H   0  0  0  0  0  0  0  0  0  0  0  0
  1  2  1  0
  2  3  1  0
  3  4  1  0
  4  5  1  0
  5  6  2  0
  6  7  1  0
  7  8  2  0
  8  9  1  0
  9 10  2  0
 10 11  1  0
 11 12  2  0
 12 13  1  0
 13 14  2  0
 13 15  1  0
 12 16  1  0
 11 17  1  0
 10 18  1  0
  8 19  1  0
  6 20  1  0
  4 21  1  0
 21 22  2  0
 21 23  1  0
 23 24  1  1
 24 25  1  0
 25 26  1  0
 26 27  1  0
 27 28  2  0
 28 29  1  0
 29 30  2  0
 30 31  1  0
 31 32  1  0
 32 33  1  0
 32 34  1  0
 32 35  1  0
 30 36  1  0
 29 37  1  0
 26 38  1  0
 26 39  1  0
 25 40  1  0
 40 41  2  0
 40 42  1  0
 42 43  2  0
 43 44  1  0
 44 45  2  0
 45 46  1  0
 45 47  1  0
 47 48  2  0
 47 49  1  0
 44 50  1  0
 43 51  1  0
 24 52  1  0
 24 53  1  0
  3 54  1  0
  3 55  1  0
  2 56  1  1
  1 57  1  0
  1 58  1  0
  1 59  1  0
 23  2  1  0
 31 27  1  0
 48 42  1  0
 14  5  1  0
 48 23  1  0
 14  9  1  0
M  END
>  <cnnaffinities>  (42) 
[6.03649]

>  <score>  (42) 
6.03649

>  <index>  (42) 
71

>  <Smiles>  (42) 
C([C@]1(C(N(c2c(nc(c3c(c(c(c(c23)[H])[H])[H])[H])[H])[H])C(=O)[C@]21C(N(C(c1nc(c(n1C([H])([H])[H])[H])[H])([H])[H])C(=O)c1c(c(c(F)c(c21)[H])[H])[H])([H])[H])([H])[H])[H])([H])([H])[H]

>  <h>  (42) 
<NA>

>  <Training>  (42) 
True

>  <Success>  (42) 
True

>  <enamine_searched>  (42) 
False

>  <enamine_id>  (42) 
nan

$$$$

     RDKit          3D

 60 64  0  0  0  0  0  0  0  0999 V2000
    2.4214   -4.7406   22.3560 C   0  0  0  0  0  0  0  0  0  0  0  0
    3.5905   -4.0823   22.6920 N   0  0  0  0  0  0  0  0  0  0  0  0
    4.8095   -4.8416   22.2387 C   0  0  0  0  0  0  0  0  0  0  0  0
    4.8864   -5.1899   21.0964 O   0  0  0  0  0  0  0  0  0  0  0  0
    5.8793   -5.0417   23.2971 C   0  0  0  0  0  0  0  0  0  0  0  0
    6.3687   -3.7736   23.8276 N   0  0  0  0  0  0  0  0  0  0  0  0
    7.5073   -3.1313   23.1727 C   0  0  0  0  0  0  0  0  0  0  0  0
    7.2516   -1.6312   22.8740 C   0  0  2  0  0  0  0  0  0  0  0  0
    6.2157   -1.4867   21.7375 C   0  0  0  0  0  0  0  0  0  0  0  0
    5.1195   -2.0323   21.6853 O   0  0  0  0  0  0  0  0  0  0  0  0
    6.7198   -0.6256   20.8010 N   0  0  0  0  0  0  0  0  0  0  0  0
    5.9796   -0.0416   19.7454 C   0  0  0  0  0  0  0  0  0  0  0  0
    6.3851   -0.2501   18.4535 C   0  0  0  0  0  0  0  0  0  0  0  0
    5.7633    0.2567   17.3625 N   0  0  0  0  0  0  0  0  0  0  0  0
    4.7272    1.0356   17.5744 C   0  0  0  0  0  0  0  0  0  0  0  0
    4.2440    1.3867   18.8690 C   0  0  0  0  0  0  0  0  0  0  0  0
    3.1448    2.2686   19.0437 C   0  0  0  0  0  0  0  0  0  0  0  0
    2.7650    2.6582   20.2981 C   0  0  0  0  0  0  0  0  0  0  0  0
    3.4677    2.1958   21.4344 C   0  0  0  0  0  0  0  0  0  0  0  0
    4.5195    1.3247   21.2985 C   0  0  0  0  0  0  0  0  0  0  0  0
    4.9094    0.8729   20.0018 C   0  0  0  0  0  0  0  0  0  0  0  0
    5.0665    0.9862   22.1802 H   0  0  0  0  0  0  0  0  0  0  0  0
    3.1683    2.5354   22.4215 H   0  0  0  0  0  0  0  0  0  0  0  0
    1.9300    3.3406   20.4294 H   0  0  0  0  0  0  0  0  0  0  0  0
    2.6356    2.6412   18.1593 H   0  0  0  0  0  0  0  0  0  0  0  0
    4.2290    1.4455   16.6963 H   0  0  0  0  0  0  0  0  0  0  0  0
    7.2558   -0.8790   18.2655 H   0  0  0  0  0  0  0  0  0  0  0  0
    8.0055   -0.0543   21.1361 C   0  0  0  0  0  0  0  0  0  0  0  0
    8.5009   -0.8793   22.3282 C   0  0  2  0  0  0  0  0  0  0  0  0
    9.6310   -1.6882   21.9410 N   0  0  0  0  0  0  0  0  0  0  0  0
   10.7190   -1.8518   22.7548 C   0  0  0  0  0  0  0  0  0  0  0  0
   10.8738   -1.2065   23.7787 O   0  0  0  0  0  0  0  0  0  0  0  0
   11.5985   -2.9945   22.3259 C   0  0  0  0  0  0  0  0  0  0  0  0
   11.0303   -3.8966   22.5807 H   0  0  0  0  0  0  0  0  0  0  0  0
   11.7909   -2.9926   21.2471 H   0  0  0  0  0  0  0  0  0  0  0  0
   12.5386   -2.9919   22.8763 H   0  0  0  0  0  0  0  0  0  0  0  0
    9.5490   -2.2544   21.1100 H   0  0  0  0  0  0  0  0  0  0  0  0
    8.9129   -0.2579   23.1211 H   0  0  0  0  0  0  0  0  0  0  0  0
    8.6908   -0.1293   20.2911 H   0  0  0  0  0  0  0  0  0  0  0  0
    7.9091    1.0139   21.3761 H   0  0  0  0  0  0  0  0  0  0  0  0
    6.7129   -0.9728   24.1362 C   0  0  0  0  0  0  0  0  0  0  0  0
    6.8836    0.3980   24.3781 C   0  0  0  0  0  0  0  0  0  0  0  0
    6.3895    0.9643   25.5405 C   0  0  0  0  0  0  0  0  0  0  0  0
    6.6411    2.6667   25.8284 Cl  0  0  0  0  0  0  0  0  0  0  0  0
    5.7004    0.2038   26.4849 C   0  0  0  0  0  0  0  0  0  0  0  0
    5.4757   -1.1339   26.2187 C   0  0  0  0  0  0  0  0  0  0  0  0
    5.9505   -1.7157   25.0424 C   0  0  0  0  0  0  0  0  0  0  0  0
    5.5603   -3.1157   24.7042 C   0  0  0  0  0  0  0  0  0  0  0  0
    4.5211   -3.6258   25.1456 O   0  0  0  0  0  0  0  0  0  0  0  0
    4.9237   -1.7453   26.9237 H   0  0  0  0  0  0  0  0  0  0  0  0
    5.3365    0.6753   27.3932 H   0  0  0  0  0  0  0  0  0  0  0  0
    7.4122    1.0345   23.6729 H   0  0  0  0  0  0  0  0  0  0  0  0
    7.6728   -3.6549   22.2301 H   0  0  0  0  0  0  0  0  0  0  0  0
    8.4079   -3.2315   23.7891 H   0  0  0  0  0  0  0  0  0  0  0  0
    5.4517   -5.6127   24.1288 H   0  0  0  0  0  0  0  0  0  0  0  0
    6.6777   -5.6241   22.8214 H   0  0  0  0  0  0  0  0  0  0  0  0
    3.6615   -3.9836   23.7376 H   0  0  0  0  0  0  0  0  0  0  0  0
    1.4847   -4.2167   22.3028 H   0  0  0  0  0  0  0  0  0  0  0  0
    3.7024   -3.1211   22.2685 H   0  0  0  0  0  0  0  0  0  0  0  0
    2.5197   -5.8044   22.2499 H   0  0  0  0  0  0  0  0  0  0  0  0
  1  2  1  0
  2  3  1  0
  3  4  2  0
  3  5  1  0
  5  6  1  0
  6  7  1  0
  8  7  1  1
  8  9  1  0
  9 10  2  0
  9 11  1  0
 11 12  1  0
 12 13  2  0
 13 14  1  0
 14 15  2  0
 15 16  1  0
 16 17  2  0
 17 18  1  0
 18 19  2  0
 19 20  1  0
 20 21  2  0
 20 22  1  0
 19 23  1  0
 18 24  1  0
 17 25  1  0
 15 26  1  0
 13 27  1  0
 11 28  1  0
 28 29  1  0
 29 30  1  0
 30 31  1  0
 31 32  2  0
 31 33  1  0
 33 34  1  0
 33 35  1  0
 33 36  1  0
 30 37  1  0
 29 38  1  1
 28 39  1  0
 28 40  1  0
  8 41  1  0
 41 42  2  0
 42 43  1  0
 43 44  1  0
 43 45  2  0
 45 46  1  0
 46 47  2  0
 47 48  1  0
 48 49  2  0
 46 50  1  0
 45 51  1  0
 42 52  1  0
  7 53  1  0
  7 54  1  0
  5 55  1  0
  5 56  1  0
  2 57  1  0
  1 58  1  0
  1 59  1  0
  1 60  1  0
 48  6  1  0
 29  8  1  0
 47 41  1  0
 21 12  1  0
 21 16  1  0
M  END
>  <cnnaffinities>  (43) 
[6.73207]

>  <score>  (43) 
6.73207

>  <index>  (43) 
72

>  <Smiles>  (43) 
C(N(C(=O)C(N1C([C@@]2(C(=O)N(c3c(nc(c4c(c(c(c(c34)[H])[H])[H])[H])[H])[H])C([C@@]2(N(C(=O)C([H])([H])[H])[H])[H])([H])[H])c2c(c(Cl)c(c(c2C1=O)[H])[H])[H])([H])[H])([H])[H])[H])([H])([H])[H]

>  <h>  (43) 
<NA>

>  <Training>  (43) 
True

>  <Success>  (43) 
True

>  <enamine_searched>  (43) 
False

>  <enamine_id>  (43) 
nan

$$$$

     RDKit          3D

 56 61  0  0  0  0  0  0  0  0999 V2000
    9.7385   -1.9978   21.9227 C   0  0  0  0  0  0  0  0  0  0  0  0
    8.6448   -0.9942   22.3336 C   0  0  1  0  0  0  0  0  0  0  0  0
    8.2018   -0.0982   21.1436 C   0  0  0  0  0  0  0  0  0  0  0  0
    6.8503   -0.5126   20.8342 N   0  0  0  0  0  0  0  0  0  0  0  0
    6.0970    0.0496   19.7701 C   0  0  0  0  0  0  0  0  0  0  0  0
    6.4414   -0.2227   18.4710 C   0  0  0  0  0  0  0  0  0  0  0  0
    5.7818    0.2456   17.3817 N   0  0  0  0  0  0  0  0  0  0  0  0
    4.7505    1.0269   17.5970 C   0  0  0  0  0  0  0  0  0  0  0  0
    4.2952    1.4135   18.8890 C   0  0  0  0  0  0  0  0  0  0  0  0
    3.1789    2.2756   19.0599 C   0  0  0  0  0  0  0  0  0  0  0  0
    2.7824    2.6571   20.3098 C   0  0  0  0  0  0  0  0  0  0  0  0
    3.4911    2.2029   21.4464 C   0  0  0  0  0  0  0  0  0  0  0  0
    4.5723    1.3692   21.3118 C   0  0  0  0  0  0  0  0  0  0  0  0
    4.9923    0.9302   20.0216 C   0  0  0  0  0  0  0  0  0  0  0  0
    5.1056    1.0291   22.2008 H   0  0  0  0  0  0  0  0  0  0  0  0
    3.1647    2.5095   22.4352 H   0  0  0  0  0  0  0  0  0  0  0  0
    1.9292    3.3172   20.4376 H   0  0  0  0  0  0  0  0  0  0  0  0
    2.6636    2.6316   18.1700 H   0  0  0  0  0  0  0  0  0  0  0  0
    4.2178    1.3899   16.7180 H   0  0  0  0  0  0  0  0  0  0  0  0
    7.2895   -0.8728   18.2617 H   0  0  0  0  0  0  0  0  0  0  0  0
    6.2997   -1.3856   21.7441 C   0  0  0  0  0  0  0  0  0  0  0  0
    5.1854   -1.8594   21.6538 O   0  0  0  0  0  0  0  0  0  0  0  0
    7.3270   -1.6261   22.8779 C   0  0  1  0  0  0  0  0  0  0  0  0
    7.4725   -3.1361   23.1550 C   0  0  0  0  0  0  0  0  0  0  0  0
    6.2802   -3.6860   23.7530 N   0  0  0  0  0  0  0  0  0  0  0  0
    5.6521   -4.8425   23.1477 C   0  0  0  0  0  0  0  0  0  0  0  0
    4.0961   -4.8397   23.0420 C   0  0  0  0  0  0  0  0  0  0  0  0
    3.9976   -6.0529   23.9638 N   0  0  0  0  0  4  0  0  0  0  0  0
    5.5216   -6.1280   24.0192 C   0  0  0  0  0  0  0  0  0  0  0  0
    5.8939   -7.0527   23.5854 H   0  0  0  0  0  0  0  0  0  0  0  0
    5.8942   -6.0325   25.0348 H   0  0  0  0  0  0  0  0  0  0  0  0
    3.5142   -6.8847   23.5771 H   0  0  0  0  0  0  0  0  0  0  0  0
    3.6134   -5.7844   24.8917 H   0  0  0  0  0  0  0  0  0  0  0  0
    3.6069   -3.9619   23.4568 H   0  0  0  0  0  0  0  0  0  0  0  0
    3.6733   -5.0420   22.0614 H   0  0  0  0  0  0  0  0  0  0  0  0
    6.1714   -4.9636   22.1887 H   0  0  0  0  0  0  0  0  0  0  0  0
    5.7542   -3.1280   24.8844 C   0  0  0  0  0  0  0  0  0  0  0  0
    4.9864   -3.7601   25.6126 O   0  0  0  0  0  0  0  0  0  0  0  0
    6.1070   -1.6821   25.1145 C   0  0  0  0  0  0  0  0  0  0  0  0
    5.6288   -1.0415   26.2587 C   0  0  0  0  0  0  0  0  0  0  0  0
    5.8247    0.3139   26.4465 C   0  0  0  0  0  0  0  0  0  0  0  0
    6.4971    1.0428   25.4687 C   0  0  0  0  0  0  0  0  0  0  0  0
    6.7074    2.7583   25.6841 Cl  0  0  0  0  0  0  0  0  0  0  0  0
    6.9917    0.4282   24.3321 C   0  0  0  0  0  0  0  0  0  0  0  0
    6.8250   -0.9540   24.1534 C   0  0  0  0  0  0  0  0  0  0  0  0
    7.4883    1.0482   23.5900 H   0  0  0  0  0  0  0  0  0  0  0  0
    5.4520    0.8200   27.3282 H   0  0  0  0  0  0  0  0  0  0  0  0
    5.0819   -1.6379   26.9805 H   0  0  0  0  0  0  0  0  0  0  0  0
    7.6651   -3.6525   22.2131 H   0  0  0  0  0  0  0  0  0  0  0  0
    8.3321   -3.2860   23.8260 H   0  0  0  0  0  0  0  0  0  0  0  0
    8.2216    0.9798   21.3776 H   0  0  0  0  0  0  0  0  0  0  0  0
    8.8574   -0.2501   20.2844 H   0  0  0  0  0  0  0  0  0  0  0  0
    9.0894   -0.3892   23.1336 H   0  0  0  0  0  0  0  0  0  0  0  0
   10.6565   -1.4621   21.6755 H   0  0  0  0  0  0  0  0  0  0  0  0
    9.4278   -2.6038   21.0631 H   0  0  0  0  0  0  0  0  0  0  0  0
    9.9990   -2.6771   22.7393 H   0  0  0  0  0  0  0  0  0  0  0  0
  1  2  1  0
  2  3  1  0
  3  4  1  0
  4  5  1  0
  5  6  2  0
  6  7  1  0
  7  8  2  0
  8  9  1  0
  9 10  2  0
 10 11  1  0
 11 12  2  0
 12 13  1  0
 13 14  2  0
 13 15  1  0
 12 16  1  0
 11 17  1  0
 10 18  1  0
  8 19  1  0
  6 20  1  0
  4 21  1  0
 21 22  2  0
 21 23  1  0
 23 24  1  1
 24 25  1  0
 25 26  1  0
 26 27  1  0
 27 28  1  0
 28 29  1  0
 29 30  1  0
 29 31  1  0
 28 32  1  0
 28 33  1  0
 27 34  1  0
 27 35  1  0
 26 36  1  0
 25 37  1  0
 37 38  2  0
 37 39  1  0
 39 40  2  0
 40 41  1  0
 41 42  2  0
 42 43  1  0
 42 44  1  0
 44 45  2  0
 44 46  1  0
 41 47  1  0
 40 48  1  0
 24 49  1  0
 24 50  1  0
  3 51  1  0
  3 52  1  0
  2 53  1  1
  1 54  1  0
  1 55  1  0
  1 56  1  0
 23  2  1  0
 29 26  1  0
 45 39  1  0
 14  5  1  0
 45 23  1  0
 14  9  1  0
M  CHG  1  28   1
M  END
>  <cnnaffinities>  (44) 
[6.03271, 6.03328]

>  <score>  (44) 
6.03271

>  <index>  (44) 
73

>  <Smiles>  (44) 
C([C@]1(C(N(c2c(nc(c3c(c(c(c(c23)[H])[H])[H])[H])[H])[H])C(=O)[C@]21C(N(C1(C([N+](C1([H])[H])([H])[H])([H])[H])[H])C(=O)c1c(c(c(Cl)c(c21)[H])[H])[H])([H])[H])([H])[H])[H])([H])([H])[H]

>  <h>  (44) 
<NA>

>  <Training>  (44) 
True

>  <Success>  (44) 
True

>  <enamine_searched>  (44) 
False

>  <enamine_id>  (44) 
nan

$$$$

     RDKit          3D

 55 60  0  0  0  0  0  0  0  0999 V2000
    9.6245   -2.0547   21.9678 C   0  0  0  0  0  0  0  0  0  0  0  0
    8.5752   -0.9938   22.3479 C   0  0  1  0  0  0  0  0  0  0  0  0
    8.2089   -0.1019   21.1367 C   0  0  0  0  0  0  0  0  0  0  0  0
    6.8701   -0.5019   20.7798 N   0  0  0  0  0  0  0  0  0  0  0  0
    6.1271    0.0712   19.7269 C   0  0  0  0  0  0  0  0  0  0  0  0
    6.4686   -0.1989   18.4272 C   0  0  0  0  0  0  0  0  0  0  0  0
    5.7961    0.2654   17.3464 N   0  0  0  0  0  0  0  0  0  0  0  0
    4.7587    1.0346   17.5788 C   0  0  0  0  0  0  0  0  0  0  0  0
    4.3112    1.4039   18.8778 C   0  0  0  0  0  0  0  0  0  0  0  0
    3.1890    2.2516   19.0537 C   0  0  0  0  0  0  0  0  0  0  0  0
    2.7986    2.6381   20.3035 C   0  0  0  0  0  0  0  0  0  0  0  0
    3.5093    2.1846   21.4407 C   0  0  0  0  0  0  0  0  0  0  0  0
    4.5878    1.3464   21.3039 C   0  0  0  0  0  0  0  0  0  0  0  0
    5.0122    0.9251   20.0046 C   0  0  0  0  0  0  0  0  0  0  0  0
    5.1133    0.9964   22.1952 H   0  0  0  0  0  0  0  0  0  0  0  0
    3.1905    2.5054   22.4288 H   0  0  0  0  0  0  0  0  0  0  0  0
    1.9498    3.3046   20.4316 H   0  0  0  0  0  0  0  0  0  0  0  0
    2.6721    2.6017   18.1638 H   0  0  0  0  0  0  0  0  0  0  0  0
    4.2122    1.4148   16.7151 H   0  0  0  0  0  0  0  0  0  0  0  0
    7.3154   -0.8520   18.2177 H   0  0  0  0  0  0  0  0  0  0  0  0
    6.2694   -1.3400   21.6807 C   0  0  0  0  0  0  0  0  0  0  0  0
    5.1816   -1.8561   21.5039 O   0  0  0  0  0  0  0  0  0  0  0  0
    7.2141   -1.5347   22.8824 C   0  0  1  0  0  0  0  0  0  0  0  0
    7.2025   -3.0386   23.1776 C   0  0  0  0  0  0  0  0  0  0  0  0
    5.9092   -3.4138   23.7205 N   0  0  0  0  0  0  0  0  0  0  0  0
    5.1628   -4.5034   23.1047 C   0  0  0  0  0  0  0  0  0  0  0  0
    5.8130   -5.7912   23.4711 C   0  0  0  0  0  0  0  0  0  0  0  0
    7.1509   -6.1171   23.1235 C   0  0  0  0  0  0  0  0  0  0  0  0
    7.3850   -7.2219   23.8515 C   0  0  0  0  0  0  0  0  0  0  0  0
    6.3017   -7.5522   24.5729 O   0  0  0  0  0  0  0  0  0  0  0  0
    5.3039   -6.6367   24.3272 N   0  0  0  0  0  0  0  0  0  0  0  0
    8.2567   -7.8490   23.9665 H   0  0  0  0  0  0  0  0  0  0  0  0
    7.7989   -5.5559   22.4693 H   0  0  0  0  0  0  0  0  0  0  0  0
    4.1403   -4.5044   23.4789 H   0  0  0  0  0  0  0  0  0  0  0  0
    5.1327   -4.3495   22.0167 H   0  0  0  0  0  0  0  0  0  0  0  0
    5.4876   -2.8735   24.9022 C   0  0  0  0  0  0  0  0  0  0  0  0
    4.7256   -3.4488   25.6663 O   0  0  0  0  0  0  0  0  0  0  0  0
    5.9889   -1.4806   25.1279 C   0  0  0  0  0  0  0  0  0  0  0  0
    5.6206   -0.8592   26.3175 C   0  0  0  0  0  0  0  0  0  0  0  0
    5.8868    0.4785   26.5203 C   0  0  0  0  0  0  0  0  0  0  0  0
    6.5588    1.1679   25.5199 C   0  0  0  0  0  0  0  0  0  0  0  0
    6.8157    2.4751   25.7143 F   0  0  0  0  0  0  0  0  0  0  0  0
    6.9980    0.5581   24.3577 C   0  0  0  0  0  0  0  0  0  0  0  0
    6.7343   -0.8068   24.1450 C   0  0  0  0  0  0  0  0  0  0  0  0
    7.5614    1.1694   23.6591 H   0  0  0  0  0  0  0  0  0  0  0  0
    5.5633    0.9950   27.4134 H   0  0  0  0  0  0  0  0  0  0  0  0
    5.0935   -1.4479   27.0605 H   0  0  0  0  0  0  0  0  0  0  0  0
    7.3585   -3.6004   22.2551 H   0  0  0  0  0  0  0  0  0  0  0  0
    8.0093   -3.2893   23.8836 H   0  0  0  0  0  0  0  0  0  0  0  0
    8.2317    0.9714   21.3708 H   0  0  0  0  0  0  0  0  0  0  0  0
    8.9013   -0.2558   20.3083 H   0  0  0  0  0  0  0  0  0  0  0  0
    9.0436   -0.3961   23.1347 H   0  0  0  0  0  0  0  0  0  0  0  0
   10.5993   -1.5794   21.8155 H   0  0  0  0  0  0  0  0  0  0  0  0
    9.3596   -2.5934   21.0506 H   0  0  0  0  0  0  0  0  0  0  0  0
    9.7562   -2.7991   22.7579 H   0  0  0  0  0  0  0  0  0  0  0  0
  1  2  1  0
  2  3  1  0
  3  4  1  0
  4  5  1  0
  5  6  2  0
  6  7  1  0
  7  8  2  0
  8  9  1  0
  9 10  2  0
 10 11  1  0
 11 12  2  0
 12 13  1  0
 13 14  2  0
 13 15  1  0
 12 16  1  0
 11 17  1  0
 10 18  1  0
  8 19  1  0
  6 20  1  0
  4 21  1  0
 21 22  2  0
 21 23  1  0
 23 24  1  1
 24 25  1  0
 25 26  1  0
 26 27  1  0
 27 28  1  0
 28 29  2  0
 29 30  1  0
 30 31  1  0
 29 32  1  0
 28 33  1  0
 26 34  1  0
 26 35  1  0
 25 36  1  0
 36 37  2  0
 36 38  1  0
 38 39  2  0
 39 40  1  0
 40 41  2  0
 41 42  1  0
 41 43  1  0
 43 44  2  0
 43 45  1  0
 40 46  1  0
 39 47  1  0
 24 48  1  0
 24 49  1  0
  3 50  1  0
  3 51  1  0
  2 52  1  1
  1 53  1  0
  1 54  1  0
  1 55  1  0
 23  2  1  0
 31 27  2  0
 44 38  1  0
 14  5  1  0
 44 23  1  0
 14  9  1  0
M  END
>  <cnnaffinities>  (45) 
[5.87821]

>  <score>  (45) 
5.87821

>  <index>  (45) 
74

>  <Smiles>  (45) 
C([C@]1(C(N(c2c(nc(c3c(c(c(c(c23)[H])[H])[H])[H])[H])[H])C(=O)[C@]21C(N(C(c1c(c(on1)[H])[H])([H])[H])C(=O)c1c(c(c(F)c(c21)[H])[H])[H])([H])[H])([H])[H])[H])([H])([H])[H]

>  <h>  (45) 
<NA>

>  <Training>  (45) 
True

>  <Success>  (45) 
True

>  <enamine_searched>  (45) 
False

>  <enamine_id>  (45) 
nan

$$$$

     RDKit          3D

 61 65  0  0  0  0  0  0  0  0999 V2000
    9.7103   -1.9740   21.9705 C   0  0  0  0  0  0  0  0  0  0  0  0
    8.6074   -0.9699   22.3503 C   0  0  1  0  0  0  0  0  0  0  0  0
    8.1886   -0.0953   21.1479 C   0  0  0  0  0  0  0  0  0  0  0  0
    6.8584   -0.5422   20.8017 N   0  0  0  0  0  0  0  0  0  0  0  0
    6.1025    0.0431   19.7607 C   0  0  0  0  0  0  0  0  0  0  0  0
    6.4530   -0.2195   18.4633 C   0  0  0  0  0  0  0  0  0  0  0  0
    5.7958    0.2491   17.3753 N   0  0  0  0  0  0  0  0  0  0  0  0
    4.7615    1.0231   17.6024 C   0  0  0  0  0  0  0  0  0  0  0  0
    4.3065    1.3969   18.8980 C   0  0  0  0  0  0  0  0  0  0  0  0
    3.1922    2.2580   19.0625 C   0  0  0  0  0  0  0  0  0  0  0  0
    2.7930    2.6442   20.3082 C   0  0  0  0  0  0  0  0  0  0  0  0
    3.4954    2.1923   21.4509 C   0  0  0  0  0  0  0  0  0  0  0  0
    4.5743    1.3513   21.3259 C   0  0  0  0  0  0  0  0  0  0  0  0
    4.9974    0.9128   20.0330 C   0  0  0  0  0  0  0  0  0  0  0  0
    5.1037    1.0282   22.2253 H   0  0  0  0  0  0  0  0  0  0  0  0
    3.1702    2.5231   22.4322 H   0  0  0  0  0  0  0  0  0  0  0  0
    1.9454    3.3124   20.4289 H   0  0  0  0  0  0  0  0  0  0  0  0
    2.6824    2.6114   18.1686 H   0  0  0  0  0  0  0  0  0  0  0  0
    4.2245    1.4060   16.7343 H   0  0  0  0  0  0  0  0  0  0  0  0
    7.3071   -0.8686   18.2773 H   0  0  0  0  0  0  0  0  0  0  0  0
    6.3007   -1.4178   21.6977 C   0  0  0  0  0  0  0  0  0  0  0  0
    5.2161   -1.9500   21.5534 O   0  0  0  0  0  0  0  0  0  0  0  0
    7.2820   -1.5942   22.8712 C   0  0  1  0  0  0  0  0  0  0  0  0
    7.4247   -3.0880   23.1722 C   0  0  0  0  0  0  0  0  0  0  0  0
    6.1936   -3.5870   23.7341 N   0  0  0  0  0  0  0  0  0  0  0  0
    5.5695   -4.7563   23.1453 C   0  0  0  0  0  0  0  0  0  0  0  0
    6.4316   -5.9684   23.4566 C   0  0  0  0  0  0  0  0  0  0  0  0
    6.6481   -6.0579   24.9352 N   0  0  0  0  0  4  0  0  0  0  0  0
    5.6213   -6.8617   25.6231 C   0  0  0  0  0  0  0  0  0  0  0  0
    4.6710   -6.3315   25.6314 H   0  0  0  0  0  0  0  0  0  0  0  0
    5.9336   -7.0307   26.6542 H   0  0  0  0  0  0  0  0  0  0  0  0
    5.5075   -7.8225   25.1193 H   0  0  0  0  0  0  0  0  0  0  0  0
    8.0004   -6.5459   25.2006 C   0  0  0  0  0  0  0  0  0  0  0  0
    8.7602   -5.8153   24.9205 H   0  0  0  0  0  0  0  0  0  0  0  0
    8.1672   -7.4635   24.6276 H   0  0  0  0  0  0  0  0  0  0  0  0
    8.1575   -6.7898   26.2492 H   0  0  0  0  0  0  0  0  0  0  0  0
    6.5735   -5.1134   25.3054 H   0  0  0  0  0  0  0  0  0  0  0  0
    6.0246   -6.9086   23.0732 H   0  0  0  0  0  0  0  0  0  0  0  0
    7.4146   -5.8279   22.9977 H   0  0  0  0  0  0  0  0  0  0  0  0
    4.5717   -4.8426   23.5815 H   0  0  0  0  0  0  0  0  0  0  0  0
    5.4741   -4.5783   22.0701 H   0  0  0  0  0  0  0  0  0  0  0  0
    5.6753   -3.0338   24.8617 C   0  0  0  0  0  0  0  0  0  0  0  0
    4.9884   -3.6941   25.6417 O   0  0  0  0  0  0  0  0  0  0  0  0
    5.9941   -1.5953   25.0750 C   0  0  0  0  0  0  0  0  0  0  0  0
    5.5179   -0.9660   26.2245 C   0  0  0  0  0  0  0  0  0  0  0  0
    5.7405    0.3806   26.4286 C   0  0  0  0  0  0  0  0  0  0  0  0
    6.4462    1.0878   25.4568 C   0  0  0  0  0  0  0  0  0  0  0  0
    6.7161    2.7905   25.6819 Cl  0  0  0  0  0  0  0  0  0  0  0  0
    6.9460    0.4716   24.3224 C   0  0  0  0  0  0  0  0  0  0  0  0
    6.7430   -0.8980   24.1198 C   0  0  0  0  0  0  0  0  0  0  0  0
    7.5068    1.0675   23.6087 H   0  0  0  0  0  0  0  0  0  0  0  0
    5.3658    0.8829   27.3132 H   0  0  0  0  0  0  0  0  0  0  0  0
    4.9684   -1.5596   26.9456 H   0  0  0  0  0  0  0  0  0  0  0  0
    7.6674   -3.6295   22.2508 H   0  0  0  0  0  0  0  0  0  0  0  0
    8.2599   -3.2266   23.8788 H   0  0  0  0  0  0  0  0  0  0  0  0
    8.1798    0.9745   21.4053 H   0  0  0  0  0  0  0  0  0  0  0  0
    8.8671   -0.2302   20.3031 H   0  0  0  0  0  0  0  0  0  0  0  0
    9.0265   -0.3509   23.1519 H   0  0  0  0  0  0  0  0  0  0  0  0
    9.4480   -2.5373   21.0631 H   0  0  0  0  0  0  0  0  0  0  0  0
   10.6620   -1.4600   21.8084 H   0  0  0  0  0  0  0  0  0  0  0  0
    9.8935   -2.6812   22.7840 H   0  0  0  0  0  0  0  0  0  0  0  0
  1  2  1  0
  2  3  1  0
  3  4  1  0
  4  5  1  0
  5  6  2  0
  6  7  1  0
  7  8  2  0
  8  9  1  0
  9 10  2  0
 10 11  1  0
 11 12  2  0
 12 13  1  0
 13 14  2  0
 13 15  1  0
 12 16  1  0
 11 17  1  0
 10 18  1  0
  8 19  1  0
  6 20  1  0
  4 21  1  0
 21 22  2  0
 21 23  1  0
 23 24  1  1
 24 25  1  0
 25 26  1  0
 26 27  1  0
 27 28  1  0
 28 29  1  0
 29 30  1  0
 29 31  1  0
 29 32  1  0
 28 33  1  0
 33 34  1  0
 33 35  1  0
 33 36  1  0
 28 37  1  0
 27 38  1  0
 27 39  1  0
 26 40  1  0
 26 41  1  0
 25 42  1  0
 42 43  2  0
 42 44  1  0
 44 45  2  0
 45 46  1  0
 46 47  2  0
 47 48  1  0
 47 49  1  0
 49 50  2  0
 49 51  1  0
 46 52  1  0
 45 53  1  0
 24 54  1  0
 24 55  1  0
  3 56  1  0
  3 57  1  0
  2 58  1  1
  1 59  1  0
  1 60  1  0
  1 61  1  0
 23  2  1  0
 50 44  1  0
 14  5  1  0
 50 23  1  0
 14  9  1  0
M  CHG  1  28   1
M  END
>  <cnnaffinities>  (46) 
[6.03054]

>  <score>  (46) 
6.03054

>  <index>  (46) 
76

>  <Smiles>  (46) 
C([C@]1(C(N(c2c(nc(c3c(c(c(c(c23)[H])[H])[H])[H])[H])[H])C(=O)[C@]21C(N(C(C([N+](C([H])([H])[H])(C([H])([H])[H])[H])([H])[H])([H])[H])C(=O)c1c(c(c(Cl)c(c21)[H])[H])[H])([H])[H])([H])[H])[H])([H])([H])[H]

>  <h>  (46) 
<NA>

>  <Training>  (46) 
True

>  <Success>  (46) 
True

>  <enamine_searched>  (46) 
False

>  <enamine_id>  (46) 
nan

$$$$

     RDKit          3D

 57 60  0  0  0  0  0  0  0  0999 V2000
    3.6295   -7.2526   25.7047 C   0  0  0  0  0  0  0  0  0  0  0  0
    2.9168   -5.9379   25.3360 C   0  0  0  0  0  0  0  0  0  0  0  0
    2.2682   -5.3272   26.5957 C   0  0  0  0  0  0  0  0  0  0  0  0
    3.0484   -5.0453   27.3023 H   0  0  0  0  0  0  0  0  0  0  0  0
    1.6980   -4.4304   26.3473 H   0  0  0  0  0  0  0  0  0  0  0  0
    1.6052   -6.0448   27.0808 H   0  0  0  0  0  0  0  0  0  0  0  0
    1.8287   -6.2921   24.3852 C   0  0  0  0  0  0  0  0  0  0  0  0
    0.9775   -6.5861   23.6602 N   0  0  0  0  0  0  0  0  0  0  0  0
    3.8412   -4.8955   24.6779 C   0  0  0  0  0  0  0  0  0  0  0  0
    5.2269   -4.9182   24.8380 C   0  0  0  0  0  0  0  0  0  0  0  0
    6.0400   -3.9289   24.2901 C   0  0  0  0  0  0  0  0  0  0  0  0
    5.4983   -2.8850   23.5388 C   0  0  0  0  0  0  0  0  0  0  0  0
    6.3465   -1.8806   22.9621 N   0  0  0  0  0  0  0  0  0  0  0  0
    7.2134   -1.1015   23.8450 C   0  0  0  0  0  0  0  0  0  0  0  0
    6.5932    0.2048   24.3128 C   0  0  0  0  0  0  0  0  0  0  0  0
    7.2199    1.4275   24.0774 C   0  0  0  0  0  0  0  0  0  0  0  0
    6.6133    2.6164   24.4660 C   0  0  0  0  0  0  0  0  0  0  0  0
    5.3790    2.6077   25.1013 C   0  0  0  0  0  0  0  0  0  0  0  0
    4.7729    1.3830   25.3588 C   0  0  0  0  0  0  0  0  0  0  0  0
    3.2312    1.3593   26.1692 Cl  0  0  0  0  0  0  0  0  0  0  0  0
    5.3672    0.1856   24.9809 C   0  0  0  0  0  0  0  0  0  0  0  0
    4.8700   -0.7568   25.2039 H   0  0  0  0  0  0  0  0  0  0  0  0
    4.9006    3.5359   25.3917 H   0  0  0  0  0  0  0  0  0  0  0  0
    7.1086    3.5577   24.2601 H   0  0  0  0  0  0  0  0  0  0  0  0
    8.1920    1.4536   23.5864 H   0  0  0  0  0  0  0  0  0  0  0  0
    7.4552   -1.7024   24.7281 H   0  0  0  0  0  0  0  0  0  0  0  0
    8.1677   -0.9179   23.3451 H   0  0  0  0  0  0  0  0  0  0  0  0
    6.2470   -1.6750   21.5863 C   0  0  0  0  0  0  0  0  0  0  0  0
    5.6233   -2.4508   20.8852 O   0  0  0  0  0  0  0  0  0  0  0  0
    6.9343   -0.4654   20.9120 C   0  0  0  0  0  0  0  0  0  0  0  0
    6.1214    0.0940   19.7612 C   0  0  0  0  0  0  0  0  0  0  0  0
    6.4229   -0.2116   18.4590 C   0  0  0  0  0  0  0  0  0  0  0  0
    5.7569    0.2395   17.3573 N   0  0  0  0  0  0  0  0  0  0  0  0
    4.7346    1.0336   17.5742 C   0  0  0  0  0  0  0  0  0  0  0  0
    4.2828    1.4257   18.8670 C   0  0  0  0  0  0  0  0  0  0  0  0
    3.1598    2.2749   19.0454 C   0  0  0  0  0  0  0  0  0  0  0  0
    2.7449    2.6219   20.2999 C   0  0  0  0  0  0  0  0  0  0  0  0
    3.4353    2.1278   21.4294 C   0  0  0  0  0  0  0  0  0  0  0  0
    4.5245    1.3030   21.2900 C   0  0  0  0  0  0  0  0  0  0  0  0
    4.9861    0.9356   19.9963 C   0  0  0  0  0  0  0  0  0  0  0  0
    5.0287    0.9256   22.1786 H   0  0  0  0  0  0  0  0  0  0  0  0
    3.0907    2.4029   22.4208 H   0  0  0  0  0  0  0  0  0  0  0  0
    1.8874    3.2725   20.4395 H   0  0  0  0  0  0  0  0  0  0  0  0
    2.6392    2.6471   18.1660 H   0  0  0  0  0  0  0  0  0  0  0  0
    4.1955    1.4021   16.6996 H   0  0  0  0  0  0  0  0  0  0  0  0
    7.2692   -0.8643   18.2492 H   0  0  0  0  0  0  0  0  0  0  0  0
    7.8905   -0.8297   20.5144 H   0  0  0  0  0  0  0  0  0  0  0  0
    7.1706    0.3346   21.6160 H   0  0  0  0  0  0  0  0  0  0  0  0
    4.1080   -2.8354   23.4081 C   0  0  0  0  0  0  0  0  0  0  0  0
    3.2976   -3.8190   23.9693 C   0  0  0  0  0  0  0  0  0  0  0  0
    2.2194   -3.7416   23.8432 H   0  0  0  0  0  0  0  0  0  0  0  0
    3.6528   -2.0235   22.8523 H   0  0  0  0  0  0  0  0  0  0  0  0
    7.1167   -4.0006   24.4230 H   0  0  0  0  0  0  0  0  0  0  0  0
    5.7023   -5.7087   25.4126 H   0  0  0  0  0  0  0  0  0  0  0  0
    2.9050   -7.9967   26.0404 H   0  0  0  0  0  0  0  0  0  0  0  0
    4.3336   -7.0925   26.5209 H   0  0  0  0  0  0  0  0  0  0  0  0
    4.1675   -7.6614   24.8490 H   0  0  0  0  0  0  0  0  0  0  0  0
  1  2  1  0
  2  3  1  0
  3  4  1  0
  3  5  1  0
  3  6  1  0
  2  7  1  0
  7  8  3  0
  2  9  1  0
  9 10  2  0
 10 11  1  0
 11 12  2  0
 12 13  1  0
 13 14  1  0
 14 15  1  0
 15 16  2  0
 16 17  1  0
 17 18  2  0
 18 19  1  0
 19 20  1  0
 19 21  2  0
 21 22  1  0
 18 23  1  0
 17 24  1  0
 16 25  1  0
 14 26  1  0
 14 27  1  0
 13 28  1  0
 28 29  2  0
 28 30  1  0
 30 31  1  0
 31 32  2  0
 32 33  1  0
 33 34  2  0
 34 35  1  0
 35 36  2  0
 36 37  1  0
 37 38  2  0
 38 39  1  0
 39 40  2  0
 39 41  1  0
 38 42  1  0
 37 43  1  0
 36 44  1  0
 34 45  1  0
 32 46  1  0
 30 47  1  0
 30 48  1  0
 12 49  1  0
 49 50  2  0
 50 51  1  0
 49 52  1  0
 11 53  1  0
 10 54  1  0
  1 55  1  0
  1 56  1  0
  1 57  1  0
 50  9  1  0
 21 15  1  0
 40 31  1  0
 40 35  1  0
M  END
>  <cnnaffinities>  (47) 
[6.19918]

>  <score>  (47) 
6.19918

>  <index>  (47) 
77

>  <Smiles>  (47) 
C(C(C([H])([H])[H])(C#N)c1c(c(c(N(C(c2c(c(c(c(Cl)c2[H])[H])[H])[H])([H])[H])C(=O)C(c2c(nc(c3c(c(c(c(c23)[H])[H])[H])[H])[H])[H])([H])[H])c(c1[H])[H])[H])[H])([H])([H])[H]

>  <h>  (47) 
<NA>

>  <Training>  (47) 
True

>  <Success>  (47) 
True

>  <enamine_searched>  (47) 
False

>  <enamine_id>  (47) 
nan

$$$$

     RDKit          3D

 40 42  0  0  0  0  0  0  0  0999 V2000
    8.6837   -5.3951   25.0958 C   0  0  0  0  0  0  0  0  0  0  0  0
    8.3667   -4.5948   23.8358 C   0  0  0  0  0  0  0  0  0  0  0  0
    8.6749   -3.1036   23.9427 C   0  0  0  0  0  0  0  0  0  0  0  0
    8.4340   -2.4206   22.5864 C   0  0  0  0  0  0  0  0  0  0  0  0
    7.0935   -2.7076   22.0937 N   0  0  0  0  0  0  0  0  0  0  0  0
    6.2757   -1.8111   21.4505 C   0  0  0  0  0  0  0  0  0  0  0  0
    5.0863   -2.0405   21.2945 O   0  0  0  0  0  0  0  0  0  0  0  0
    6.9173   -0.5259   20.9016 C   0  0  0  0  0  0  0  0  0  0  0  0
    6.1184    0.0787   19.7715 C   0  0  0  0  0  0  0  0  0  0  0  0
    6.4321   -0.2193   18.4680 C   0  0  0  0  0  0  0  0  0  0  0  0
    5.7696    0.2373   17.3702 N   0  0  0  0  0  0  0  0  0  0  0  0
    4.7428    1.0250   17.5846 C   0  0  0  0  0  0  0  0  0  0  0  0
    4.2894    1.4107   18.8747 C   0  0  0  0  0  0  0  0  0  0  0  0
    3.1696    2.2617   19.0458 C   0  0  0  0  0  0  0  0  0  0  0  0
    2.7538    2.6172   20.3019 C   0  0  0  0  0  0  0  0  0  0  0  0
    3.4411    2.1305   21.4346 C   0  0  0  0  0  0  0  0  0  0  0  0
    4.5260    1.2989   21.2924 C   0  0  0  0  0  0  0  0  0  0  0  0
    4.9877    0.9215   20.0034 C   0  0  0  0  0  0  0  0  0  0  0  0
    5.0294    0.9088   22.1700 H   0  0  0  0  0  0  0  0  0  0  0  0
    3.1029    2.4155   22.4260 H   0  0  0  0  0  0  0  0  0  0  0  0
    1.8983    3.2724   20.4247 H   0  0  0  0  0  0  0  0  0  0  0  0
    2.6683    2.6271   18.1538 H   0  0  0  0  0  0  0  0  0  0  0  0
    4.2139    1.3961   16.7054 H   0  0  0  0  0  0  0  0  0  0  0  0
    7.2773   -0.8687   18.2385 H   0  0  0  0  0  0  0  0  0  0  0  0
    7.9215   -0.7788   20.5386 H   0  0  0  0  0  0  0  0  0  0  0  0
    7.0637    0.1909   21.7223 H   0  0  0  0  0  0  0  0  0  0  0  0
    6.7147   -4.1130   22.0112 C   0  0  0  0  0  0  0  0  0  0  0  0
    6.9446   -4.8391   23.3317 C   0  0  0  0  0  0  0  0  0  0  0  0
    6.2111   -4.5169   24.0837 H   0  0  0  0  0  0  0  0  0  0  0  0
    6.7981   -5.9155   23.1615 H   0  0  0  0  0  0  0  0  0  0  0  0
    7.3131   -4.6018   21.2211 H   0  0  0  0  0  0  0  0  0  0  0  0
    5.6640   -4.1134   21.7061 H   0  0  0  0  0  0  0  0  0  0  0  0
    9.1866   -2.7934   21.8642 H   0  0  0  0  0  0  0  0  0  0  0  0
    8.5491   -1.3336   22.6806 H   0  0  0  0  0  0  0  0  0  0  0  0
    9.7415   -2.9999   24.1877 H   0  0  0  0  0  0  0  0  0  0  0  0
    8.0837   -2.6237   24.7350 H   0  0  0  0  0  0  0  0  0  0  0  0
    9.0330   -4.8990   23.0346 H   0  0  0  0  0  0  0  0  0  0  0  0
    9.7333   -5.2974   25.3829 H   0  0  0  0  0  0  0  0  0  0  0  0
    8.4774   -6.4544   24.9320 H   0  0  0  0  0  0  0  0  0  0  0  0
    8.0822   -5.0815   25.9534 H   0  0  0  0  0  0  0  0  0  0  0  0
  1  2  1  0
  2  3  1  0
  3  4  1  0
  4  5  1  0
  5  6  1  0
  6  7  2  0
  6  8  1  0
  8  9  1  0
  9 10  2  0
 10 11  1  0
 11 12  2  0
 12 13  1  0
 13 14  2  0
 14 15  1  0
 15 16  2  0
 16 17  1  0
 17 18  2  0
 17 19  1  0
 16 20  1  0
 15 21  1  0
 14 22  1  0
 12 23  1  0
 10 24  1  0
  8 25  1  0
  8 26  1  0
  5 27  1  0
 27 28  1  0
 28 29  1  0
 28 30  1  0
 27 31  1  0
 27 32  1  0
  4 33  1  0
  4 34  1  0
  3 35  1  0
  3 36  1  0
  2 37  1  0
  1 38  1  0
  1 39  1  0
  1 40  1  0
 28  2  1  0
 18  9  1  0
 18 13  1  0
M  END
>  <cnnaffinities>  (48) 
[4.64851, 4.64962, 4.7818, 4.78145, 4.99867, 4.99862]

>  <score>  (48) 
4.64851

>  <index>  (48) 
79

>  <Smiles>  (48) 
C(C1(C(C(N(C(=O)C(c2c(nc(c3c(c(c(c(c23)[H])[H])[H])[H])[H])[H])([H])[H])C(C1([H])[H])([H])[H])([H])[H])([H])[H])[H])([H])([H])[H]

>  <h>  (48) 
<NA>

>  <Training>  (48) 
True

>  <Success>  (48) 
True

>  <enamine_searched>  (48) 
False

>  <enamine_id>  (48) 
nan

$$$$

     RDKit          3D

 59 64  0  0  0  0  0  0  0  0999 V2000
    9.6551   -1.8489   22.0391 C   0  0  0  0  0  0  0  0  0  0  0  0
    8.4976   -0.9045   22.4094 C   0  0  1  0  0  0  0  0  0  0  0  0
    8.1318    0.0319   21.2293 C   0  0  0  0  0  0  0  0  0  0  0  0
    6.8761   -0.4798   20.7412 N   0  0  0  0  0  0  0  0  0  0  0  0
    6.1333    0.0956   19.6911 C   0  0  0  0  0  0  0  0  0  0  0  0
    6.4725   -0.1753   18.3926 C   0  0  0  0  0  0  0  0  0  0  0  0
    5.7977    0.2951   17.3171 N   0  0  0  0  0  0  0  0  0  0  0  0
    4.7565    1.0589   17.5546 C   0  0  0  0  0  0  0  0  0  0  0  0
    4.3043    1.4155   18.8578 C   0  0  0  0  0  0  0  0  0  0  0  0
    3.1803    2.2593   19.0477 C   0  0  0  0  0  0  0  0  0  0  0  0
    2.7894    2.6254   20.3051 C   0  0  0  0  0  0  0  0  0  0  0  0
    3.4949    2.1491   21.4353 C   0  0  0  0  0  0  0  0  0  0  0  0
    4.5706    1.3097   21.2852 C   0  0  0  0  0  0  0  0  0  0  0  0
    5.0055    0.9252   19.9773 C   0  0  0  0  0  0  0  0  0  0  0  0
    5.0861    0.9270   22.1679 H   0  0  0  0  0  0  0  0  0  0  0  0
    3.1712    2.4484   22.4287 H   0  0  0  0  0  0  0  0  0  0  0  0
    1.9389    3.2879   20.4426 H   0  0  0  0  0  0  0  0  0  0  0  0
    2.6568    2.6139   18.1637 H   0  0  0  0  0  0  0  0  0  0  0  0
    4.2107    1.4409   16.6907 H   0  0  0  0  0  0  0  0  0  0  0  0
    7.3184   -0.8276   18.1787 H   0  0  0  0  0  0  0  0  0  0  0  0
    6.2695   -1.3915   21.5622 C   0  0  0  0  0  0  0  0  0  0  0  0
    5.2200   -1.9436   21.2921 O   0  0  0  0  0  0  0  0  0  0  0  0
    7.1570   -1.6104   22.7985 C   0  0  1  0  0  0  0  0  0  0  0  0
    7.2762   -3.1299   22.9615 C   0  0  0  0  0  0  0  0  0  0  0  0
    5.9747   -3.6557   23.3011 N   0  0  0  0  0  0  0  0  0  0  0  0
    5.3915   -4.7341   22.5325 C   0  0  0  0  0  0  0  0  0  0  0  0
    6.0187   -5.9980   22.9764 C   0  0  0  0  0  0  0  0  0  0  0  0
    7.3640   -6.1852   23.1661 C   0  0  0  0  0  0  0  0  0  0  0  0
    7.4595   -7.4603   23.7218 C   0  0  0  0  0  0  0  0  0  0  0  0
    6.2596   -8.0029   23.9180 N   0  0  0  0  0  0  0  0  0  0  0  0
    5.3836   -7.0965   23.4506 N   0  0  0  0  0  0  0  0  0  0  0  0
    3.9741   -7.2111   23.7896 C   0  0  0  0  0  0  0  0  0  0  0  0
    3.3622   -7.2937   22.8880 H   0  0  0  0  0  0  0  0  0  0  0  0
    3.8922   -8.1312   24.3642 H   0  0  0  0  0  0  0  0  0  0  0  0
    3.6353   -6.3471   24.3772 H   0  0  0  0  0  0  0  0  0  0  0  0
    8.3781   -7.9601   23.9982 H   0  0  0  0  0  0  0  0  0  0  0  0
    8.1288   -5.4268   23.0541 H   0  0  0  0  0  0  0  0  0  0  0  0
    4.3102   -4.7469   22.6792 H   0  0  0  0  0  0  0  0  0  0  0  0
    5.5667   -4.5248   21.4706 H   0  0  0  0  0  0  0  0  0  0  0  0
    5.4060   -3.3085   24.4859 C   0  0  0  0  0  0  0  0  0  0  0  0
    4.6222   -4.0365   25.0874 O   0  0  0  0  0  0  0  0  0  0  0  0
    5.7610   -1.9219   24.9279 C   0  0  0  0  0  0  0  0  0  0  0  0
    5.2640   -1.4785   26.1502 C   0  0  0  0  0  0  0  0  0  0  0  0
    5.4134   -0.1597   26.5241 C   0  0  0  0  0  0  0  0  0  0  0  0
    6.0798    0.6920   25.6548 C   0  0  0  0  0  0  0  0  0  0  0  0
    6.1986    1.9818   26.0129 F   0  0  0  0  0  0  0  0  0  0  0  0
    6.6406    0.2677   24.4635 C   0  0  0  0  0  0  0  0  0  0  0  0
    6.5124   -1.0771   24.0865 C   0  0  0  0  0  0  0  0  0  0  0  0
    7.1832    1.0037   23.8773 H   0  0  0  0  0  0  0  0  0  0  0  0
    5.0035    0.2207   27.4499 H   0  0  0  0  0  0  0  0  0  0  0  0
    4.7588   -2.2027   26.7805 H   0  0  0  0  0  0  0  0  0  0  0  0
    7.6331   -3.6118   22.0433 H   0  0  0  0  0  0  0  0  0  0  0  0
    7.9956   -3.3247   23.7729 H   0  0  0  0  0  0  0  0  0  0  0  0
    8.0301    1.0796   21.5447 H   0  0  0  0  0  0  0  0  0  0  0  0
    8.8876    0.0137   20.4419 H   0  0  0  0  0  0  0  0  0  0  0  0
    8.8519   -0.3240   23.2683 H   0  0  0  0  0  0  0  0  0  0  0  0
   10.5881   -1.2852   21.9657 H   0  0  0  0  0  0  0  0  0  0  0  0
    9.8110   -2.6206   22.7966 H   0  0  0  0  0  0  0  0  0  0  0  0
    9.4876   -2.3557   21.0824 H   0  0  0  0  0  0  0  0  0  0  0  0
  1  2  1  0
  2  3  1  0
  3  4  1  0
  4  5  1  0
  5  6  2  0
  6  7  1  0
  7  8  2  0
  8  9  1  0
  9 10  2  0
 10 11  1  0
 11 12  2  0
 12 13  1  0
 13 14  2  0
 13 15  1  0
 12 16  1  0
 11 17  1  0
 10 18  1  0
  8 19  1  0
  6 20  1  0
  4 21  1  0
 21 22  2  0
 21 23  1  0
 23 24  1  1
 24 25  1  0
 25 26  1  0
 26 27  1  0
 27 28  2  0
 28 29  1  0
 29 30  2  0
 30 31  1  0
 31 32  1  0
 32 33  1  0
 32 34  1  0
 32 35  1  0
 29 36  1  0
 28 37  1  0
 26 38  1  0
 26 39  1  0
 25 40  1  0
 40 41  2  0
 40 42  1  0
 42 43  2  0
 43 44  1  0
 44 45  2  0
 45 46  1  0
 45 47  1  0
 47 48  2  0
 47 49  1  0
 44 50  1  0
 43 51  1  0
 24 52  1  0
 24 53  1  0
  3 54  1  0
  3 55  1  0
  2 56  1  1
  1 57  1  0
  1 58  1  0
  1 59  1  0
 23  2  1  0
 31 27  1  0
 48 42  1  0
 14  5  1  0
 48 23  1  0
 14  9  1  0
M  END
>  <cnnaffinities>  (49) 
[6.39381]

>  <score>  (49) 
6.39381

>  <index>  (49) 
80

>  <Smiles>  (49) 
C([C@]1(C(N(c2c(nc(c3c(c(c(c(c23)[H])[H])[H])[H])[H])[H])C(=O)[C@]21C(N(C(c1c(c(nn1C([H])([H])[H])[H])[H])([H])[H])C(=O)c1c(c(c(F)c(c21)[H])[H])[H])([H])[H])([H])[H])[H])([H])([H])[H]

>  <h>  (49) 
<NA>

>  <Training>  (49) 
True

>  <Success>  (49) 
True

>  <enamine_searched>  (49) 
False

>  <enamine_id>  (49) 
nan

$$$$

     RDKit          3D

 58 63  0  0  0  0  0  0  0  0999 V2000
    7.7918   -6.8973   24.1073 C   0  0  0  0  0  0  0  0  0  0  0  0
    6.3684   -6.5877   23.7966 C   0  0  0  0  0  0  0  0  0  0  0  0
    5.9978   -5.8197   22.8178 N   0  0  0  0  0  0  0  0  0  0  0  0
    4.7378   -5.3684   23.1945 C   0  0  0  0  0  0  0  0  0  0  0  0
    4.3475   -3.9997   22.7412 C   0  0  0  0  0  0  0  0  0  0  0  0
    5.1958   -3.0337   23.4432 N   0  0  0  0  0  0  0  0  0  0  0  0
    6.6002   -2.8511   23.0820 C   0  0  0  0  0  0  0  0  0  0  0  0
    6.8215   -1.3629   22.7414 C   0  0  2  0  0  0  0  0  0  0  0  0
    6.0593   -1.1633   21.4220 C   0  0  0  0  0  0  0  0  0  0  0  0
    4.9547   -1.5862   21.1395 O   0  0  0  0  0  0  0  0  0  0  0  0
    6.8367   -0.4333   20.5472 N   0  0  0  0  0  0  0  0  0  0  0  0
    6.1953    0.2443   19.4844 C   0  0  0  0  0  0  0  0  0  0  0  0
    6.5785    0.0525   18.1817 C   0  0  0  0  0  0  0  0  0  0  0  0
    5.8953    0.5411   17.1174 N   0  0  0  0  0  0  0  0  0  0  0  0
    4.8144    1.2499   17.3646 C   0  0  0  0  0  0  0  0  0  0  0  0
    4.3462    1.5665   18.6721 C   0  0  0  0  0  0  0  0  0  0  0  0
    3.1627    2.3121   18.9082 C   0  0  0  0  0  0  0  0  0  0  0  0
    2.7758    2.6257   20.1839 C   0  0  0  0  0  0  0  0  0  0  0  0
    3.5560    2.2158   21.2881 C   0  0  0  0  0  0  0  0  0  0  0  0
    4.6946    1.4808   21.0915 C   0  0  0  0  0  0  0  0  0  0  0  0
    5.0863    1.1000   19.7717 C   0  0  0  0  0  0  0  0  0  0  0  0
    5.2878    1.1616   21.9486 H   0  0  0  0  0  0  0  0  0  0  0  0
    3.2439    2.4687   22.2974 H   0  0  0  0  0  0  0  0  0  0  0  0
    1.8705    3.1992   20.3571 H   0  0  0  0  0  0  0  0  0  0  0  0
    2.5825    2.6403   18.0511 H   0  0  0  0  0  0  0  0  0  0  0  0
    4.2555    1.6183   16.5041 H   0  0  0  0  0  0  0  0  0  0  0  0
    7.4527   -0.5591   17.9562 H   0  0  0  0  0  0  0  0  0  0  0  0
    8.0971   -0.0133   21.1228 C   0  0  0  0  0  0  0  0  0  0  0  0
    8.2735   -0.9324   22.3549 C   0  0  2  0  0  0  0  0  0  0  0  0
    9.2401   -2.0780   22.0491 C   0  0  0  0  0  0  0  0  0  0  0  0
    9.3112   -2.7671   22.8946 H   0  0  0  0  0  0  0  0  0  0  0  0
   10.2455   -1.6855   21.8567 H   0  0  0  0  0  0  0  0  0  0  0  0
    8.9182   -2.6453   21.1708 H   0  0  0  0  0  0  0  0  0  0  0  0
    8.7128   -0.3735   23.1852 H   0  0  0  0  0  0  0  0  0  0  0  0
    8.9180   -0.1272   20.4128 H   0  0  0  0  0  0  0  0  0  0  0  0
    8.0611    1.0514   21.3930 H   0  0  0  0  0  0  0  0  0  0  0  0
    6.3044   -0.5538   23.9439 C   0  0  0  0  0  0  0  0  0  0  0  0
    6.7369    0.7586   24.2179 C   0  0  0  0  0  0  0  0  0  0  0  0
    6.5561    1.2886   25.4880 C   0  0  0  0  0  0  0  0  0  0  0  0
    7.0537    2.5076   25.7729 F   0  0  0  0  0  0  0  0  0  0  0  0
    5.9164    0.5867   26.5049 C   0  0  0  0  0  0  0  0  0  0  0  0
    5.3543   -0.6366   26.1840 C   0  0  0  0  0  0  0  0  0  0  0  0
    5.4877   -1.1699   24.9051 C   0  0  0  0  0  0  0  0  0  0  0  0
    4.7296   -2.4136   24.5640 C   0  0  0  0  0  0  0  0  0  0  0  0
    3.7802   -2.8237   25.2223 O   0  0  0  0  0  0  0  0  0  0  0  0
    4.8062   -1.2135   26.9197 H   0  0  0  0  0  0  0  0  0  0  0  0
    5.8515    1.0194   27.4981 H   0  0  0  0  0  0  0  0  0  0  0  0
    7.2521    1.3672   23.4784 H   0  0  0  0  0  0  0  0  0  0  0  0
    6.8252   -3.5017   22.2386 H   0  0  0  0  0  0  0  0  0  0  0  0
    7.2628   -3.1405   23.9098 H   0  0  0  0  0  0  0  0  0  0  0  0
    3.3027   -3.7588   22.9594 H   0  0  0  0  0  0  0  0  0  0  0  0
    4.5277   -3.8877   21.6703 H   0  0  0  0  0  0  0  0  0  0  0  0
    4.3493   -6.0503   24.2872 C   0  0  0  0  0  0  0  0  0  0  0  0
    5.3861   -6.8429   24.6880 O   0  0  0  0  0  0  0  0  0  0  0  0
    3.4808   -6.0020   24.9151 H   0  0  0  0  0  0  0  0  0  0  0  0
    8.0253   -6.7105   25.1610 H   0  0  0  0  0  0  0  0  0  0  0  0
    8.1290   -7.8948   23.8257 H   0  0  0  0  0  0  0  0  0  0  0  0
    8.3572   -6.1874   23.5246 H   0  0  0  0  0  0  0  0  0  0  0  0
  1  2  1  0
  2  3  2  0
  3  4  1  0
  4  5  1  0
  5  6  1  0
  6  7  1  0
  8  7  1  1
  8  9  1  0
  9 10  2  0
  9 11  1  0
 11 12  1  0
 12 13  2  0
 13 14  1  0
 14 15  2  0
 15 16  1  0
 16 17  2  0
 17 18  1  0
 18 19  2  0
 19 20  1  0
 20 21  2  0
 20 22  1  0
 19 23  1  0
 18 24  1  0
 17 25  1  0
 15 26  1  0
 13 27  1  0
 11 28  1  0
 28 29  1  0
 29 30  1  0
 30 31  1  0
 30 32  1  0
 30 33  1  0
 29 34  1  1
 28 35  1  0
 28 36  1  0
  8 37  1  0
 37 38  2  0
 38 39  1  0
 39 40  1  0
 39 41  2  0
 41 42  1  0
 42 43  2  0
 43 44  1  0
 44 45  2  0
 42 46  1  0
 41 47  1  0
 38 48  1  0
  7 49  1  0
  7 50  1  0
  5 51  1  0
  5 52  1  0
  4 53  2  0
 53 54  1  0
 53 55  1  0
  1 56  1  0
  1 57  1  0
  1 58  1  0
 54  2  1  0
 44  6  1  0
 29  8  1  0
 43 37  1  0
 21 12  1  0
 21 16  1  0
M  END
>  <cnnaffinities>  (50) 
[6.12828]

>  <score>  (50) 
6.12828

>  <index>  (50) 
81

>  <Smiles>  (50) 
C(c1nc(C(N2C([C@@]3(C(=O)N(c4c(nc(c5c(c(c(c(c45)[H])[H])[H])[H])[H])[H])C([C@@]3(C([H])([H])[H])[H])([H])[H])c3c(c(F)c(c(c3C2=O)[H])[H])[H])([H])[H])([H])[H])c(o1)[H])([H])([H])[H]

>  <h>  (50) 
<NA>

>  <Training>  (50) 
True

>  <Success>  (50) 
True

>  <enamine_searched>  (50) 
False

>  <enamine_id>  (50) 
nan

$$$$

     RDKit          3D

 72 77  0  0  0  0  0  0  0  0999 V2000
    3.8521   -7.1521   25.2319 C   0  0  0  0  0  0  0  0  0  0  0  0
    5.3913   -7.2563   25.6784 C   0  0  2  0  0  0  0  0  0  0  0  0
    5.5744   -7.1384   27.0453 C   0  0  0  0  0  0  0  0  0  0  0  0
    7.8859   -6.9728   27.5456 O   0  0  0  0  0  0  0  0  0  0  0  0
    8.2246   -5.9971   26.7740 C   0  0  0  0  0  0  0  0  0  0  0  0
    7.6327   -5.7436   25.3095 C   0  0  1  0  0  0  0  0  0  0  0  0
    8.5790   -6.2837   24.2312 C   0  0  0  0  0  0  0  0  0  0  0  0
    8.5764   -5.5700   23.4026 H   0  0  0  0  0  0  0  0  0  0  0  0
    9.6056   -6.3346   24.6028 H   0  0  0  0  0  0  0  0  0  0  0  0
    8.2857   -7.2843   23.8870 H   0  0  0  0  0  0  0  0  0  0  0  0
    6.1602   -6.0240   24.9944 N   0  0  0  0  0  4  0  0  0  0  0  0
    5.8629   -5.9089   23.5306 C   0  0  0  0  0  0  0  0  0  0  0  0
    5.1335   -4.6051   23.2453 C   0  0  0  0  0  0  0  0  0  0  0  0
    5.8602   -3.4629   23.7732 N   0  0  0  0  0  0  0  0  0  0  0  0
    7.1066   -3.0639   23.1475 C   0  0  0  0  0  0  0  0  0  0  0  0
    7.0943   -1.5530   22.8835 C   0  0  2  0  0  0  0  0  0  0  0  0
    6.1822   -1.3448   21.6607 C   0  0  0  0  0  0  0  0  0  0  0  0
    5.0822   -1.8298   21.4719 O   0  0  0  0  0  0  0  0  0  0  0  0
    6.8341   -0.5489   20.7532 N   0  0  0  0  0  0  0  0  0  0  0  0
    6.1208    0.0509   19.6925 C   0  0  0  0  0  0  0  0  0  0  0  0
    6.4886   -0.1842   18.3930 C   0  0  0  0  0  0  0  0  0  0  0  0
    5.8284    0.2992   17.3135 N   0  0  0  0  0  0  0  0  0  0  0  0
    4.7819    1.0602   17.5429 C   0  0  0  0  0  0  0  0  0  0  0  0
    4.3198    1.4120   18.8436 C   0  0  0  0  0  0  0  0  0  0  0  0
    3.1971    2.2586   19.0331 C   0  0  0  0  0  0  0  0  0  0  0  0
    2.8053    2.6207   20.2929 C   0  0  0  0  0  0  0  0  0  0  0  0
    3.5176    2.1519   21.4200 C   0  0  0  0  0  0  0  0  0  0  0  0
    4.5975    1.3223   21.2688 C   0  0  0  0  0  0  0  0  0  0  0  0
    5.0137    0.9151   19.9640 C   0  0  0  0  0  0  0  0  0  0  0  0
    5.1336    0.9721   22.1501 H   0  0  0  0  0  0  0  0  0  0  0  0
    3.1983    2.4470   22.4155 H   0  0  0  0  0  0  0  0  0  0  0  0
    1.9541    3.2793   20.4349 H   0  0  0  0  0  0  0  0  0  0  0  0
    2.6729    2.6241   18.1549 H   0  0  0  0  0  0  0  0  0  0  0  0
    4.2451    1.4437   16.6754 H   0  0  0  0  0  0  0  0  0  0  0  0
    7.3471   -0.8220   18.1856 H   0  0  0  0  0  0  0  0  0  0  0  0
    8.1375   -0.0980   21.1879 C   0  0  0  0  0  0  0  0  0  0  0  0
    8.4730   -0.9881   22.4075 C   0  0  2  0  0  0  0  0  0  0  0  0
    9.5421   -2.0266   22.0305 C   0  0  0  0  0  0  0  0  0  0  0  0
   10.4973   -1.5269   21.8397 H   0  0  0  0  0  0  0  0  0  0  0  0
    9.7231   -2.7444   22.8341 H   0  0  0  0  0  0  0  0  0  0  0  0
    9.2634   -2.5850   21.1295 H   0  0  0  0  0  0  0  0  0  0  0  0
    8.9008   -0.3939   23.2230 H   0  0  0  0  0  0  0  0  0  0  0  0
    8.8696   -0.2218   20.3873 H   0  0  0  0  0  0  0  0  0  0  0  0
    8.1151    0.9715   21.4424 H   0  0  0  0  0  0  0  0  0  0  0  0
    6.5761   -0.8378   24.1365 C   0  0  0  0  0  0  0  0  0  0  0  0
    6.7829    0.5399   24.2967 C   0  0  0  0  0  0  0  0  0  0  0  0
    6.3774    1.1818   25.4567 C   0  0  0  0  0  0  0  0  0  0  0  0
    6.6636    2.8899   25.6404 Cl  0  0  0  0  0  0  0  0  0  0  0  0
    5.7571    0.4913   26.4960 C   0  0  0  0  0  0  0  0  0  0  0  0
    5.5221   -0.8601   26.3380 C   0  0  0  0  0  0  0  0  0  0  0  0
    5.8950   -1.5147   25.1629 C   0  0  0  0  0  0  0  0  0  0  0  0
    5.5159   -2.9462   24.9808 C   0  0  0  0  0  0  0  0  0  0  0  0
    4.9235   -3.6268   25.8294 O   0  0  0  0  0  0  0  0  0  0  0  0
    5.0385   -1.4411   27.1171 H   0  0  0  0  0  0  0  0  0  0  0  0
    5.4602    1.0194   27.3963 H   0  0  0  0  0  0  0  0  0  0  0  0
    7.2653    1.1311   23.5235 H   0  0  0  0  0  0  0  0  0  0  0  0
    7.2157   -3.6050   22.2038 H   0  0  0  0  0  0  0  0  0  0  0  0
    7.9662   -3.2999   23.7912 H   0  0  0  0  0  0  0  0  0  0  0  0
    4.1652   -4.6226   23.7496 H   0  0  0  0  0  0  0  0  0  0  0  0
    4.9746   -4.4388   22.1743 H   0  0  0  0  0  0  0  0  0  0  0  0
    6.7846   -5.9392   22.9578 H   0  0  0  0  0  0  0  0  0  0  0  0
    5.2781   -6.7682   23.1958 H   0  0  0  0  0  0  0  0  0  0  0  0
    5.6346   -5.2588   25.4709 H   0  0  0  0  0  0  0  0  0  0  0  0
    7.7050   -4.6520   25.2663 H   0  0  0  0  0  0  0  0  0  0  0  0
    9.3278   -6.0016   26.5434 H   0  0  0  0  0  0  0  0  0  0  0  0
    8.1175   -4.9987   27.2700 H   0  0  0  0  0  0  0  0  0  0  0  0
    5.6378   -7.9639   27.7269 H   0  0  0  0  0  0  0  0  0  0  0  0
    5.5780   -6.1354   27.4396 H   0  0  0  0  0  0  0  0  0  0  0  0
    5.8142   -8.1892   25.2365 H   0  0  0  0  0  0  0  0  0  0  0  0
    3.4760   -6.1506   25.4857 H   0  0  0  0  0  0  0  0  0  0  0  0
    3.2335   -7.8773   25.7776 H   0  0  0  0  0  0  0  0  0  0  0  0
    3.6785   -7.3230   24.1617 H   0  0  0  0  0  0  0  0  0  0  0  0
  1  2  1  0
  2  3  1  0
  3  4  1  0
  4  5  1  0
  5  6  1  0
  6  7  1  0
  7  8  1  0
  7  9  1  0
  7 10  1  0
  6 11  1  0
 11 12  1  0
 12 13  1  0
 13 14  1  0
 14 15  1  0
 16 15  1  1
 16 17  1  0
 17 18  2  0
 17 19  1  0
 19 20  1  0
 20 21  2  0
 21 22  1  0
 22 23  2  0
 23 24  1  0
 24 25  2  0
 25 26  1  0
 26 27  2  0
 27 28  1  0
 28 29  2  0
 28 30  1  0
 27 31  1  0
 26 32  1  0
 25 33  1  0
 23 34  1  0
 21 35  1  0
 19 36  1  0
 36 37  1  0
 37 38  1  0
 38 39  1  0
 38 40  1  0
 38 41  1  0
 37 42  1  1
 36 43  1  0
 36 44  1  0
 16 45  1  0
 45 46  2  0
 46 47  1  0
 47 48  1  0
 47 49  2  0
 49 50  1  0
 50 51  2  0
 51 52  1  0
 52 53  2  0
 50 54  1  0
 49 55  1  0
 46 56  1  0
 15 57  1  0
 15 58  1  0
 13 59  1  0
 13 60  1  0
 12 61  1  0
 12 62  1  0
 11 63  1  0
  6 64  1  6
  5 65  1  0
  5 66  1  0
  3 67  1  0
  3 68  1  0
  2 69  1  6
  1 70  1  0
  1 71  1  0
  1 72  1  0
 11  2  1  0
 52 14  1  0
 37 16  1  0
 51 45  1  0
 29 20  1  0
 29 24  1  0
M  CHG  1  11   1
M  END
>  <cnnaffinities>  (51) 
[6.46537]

>  <score>  (51) 
6.46537

>  <index>  (51) 
83

>  <Smiles>  (51) 
C([C@@]1(C(OC([C@@](C([H])([H])[H])([N+]1(C(C(N1C([C@@]2(C(=O)N(c3c(nc(c4c(c(c(c(c34)[H])[H])[H])[H])[H])[H])C([C@@]2(C([H])([H])[H])[H])([H])[H])c2c(c(Cl)c(c(c2C1=O)[H])[H])[H])([H])[H])([H])[H])([H])[H])[H])[H])([H])[H])([H])[H])[H])([H])([H])[H]

>  <h>  (51) 
<NA>

>  <Training>  (51) 
True

>  <Success>  (51) 
True

>  <enamine_searched>  (51) 
False

>  <enamine_id>  (51) 
nan

$$$$

     RDKit          3D

 60 65  0  0  0  0  0  0  0  0999 V2000
    2.1855   -5.6985   22.6345 C   0  0  0  0  0  0  0  0  0  0  0  0
    3.4563   -5.0600   22.3968 N   0  0  0  0  0  0  0  0  0  0  0  0
    4.4842   -5.8328   21.9821 C   0  0  0  0  0  0  0  0  0  0  0  0
    4.3715   -7.0324   21.7843 O   0  0  0  0  0  0  0  0  0  0  0  0
    5.7305   -5.0633   21.6177 C   0  0  0  0  0  0  0  0  0  0  0  0
    6.4253   -4.2905   22.6012 N   0  0  0  0  0  0  0  0  0  0  0  0
    7.5218   -3.4185   22.2307 C   0  0  0  0  0  0  0  0  0  0  0  0
    7.2399   -1.9681   22.6663 C   0  0  2  0  0  0  0  0  0  0  0  0
    6.1631   -1.4011   21.7121 C   0  0  0  0  0  0  0  0  0  0  0  0
    4.9861   -1.7146   21.6715 O   0  0  0  0  0  0  0  0  0  0  0  0
    6.7549   -0.5296   20.8225 N   0  0  0  0  0  0  0  0  0  0  0  0
    6.0627    0.0475   19.7462 C   0  0  0  0  0  0  0  0  0  0  0  0
    6.4542   -0.1939   18.4514 C   0  0  0  0  0  0  0  0  0  0  0  0
    5.8108    0.2796   17.3588 N   0  0  0  0  0  0  0  0  0  0  0  0
    4.7610    1.0388   17.5633 C   0  0  0  0  0  0  0  0  0  0  0  0
    4.2847    1.4057   18.8552 C   0  0  0  0  0  0  0  0  0  0  0  0
    3.1625    2.2588   19.0234 C   0  0  0  0  0  0  0  0  0  0  0  0
    2.7705    2.6511   20.2724 C   0  0  0  0  0  0  0  0  0  0  0  0
    3.4736    2.2063   21.4149 C   0  0  0  0  0  0  0  0  0  0  0  0
    4.5465    1.3584   21.2816 C   0  0  0  0  0  0  0  0  0  0  0  0
    4.9616    0.9228   19.9902 C   0  0  0  0  0  0  0  0  0  0  0  0
    5.0774    1.0021   22.1587 H   0  0  0  0  0  0  0  0  0  0  0  0
    3.1618    2.5336   22.4027 H   0  0  0  0  0  0  0  0  0  0  0  0
    1.9203    3.3203   20.3946 H   0  0  0  0  0  0  0  0  0  0  0  0
    2.6497    2.6065   18.1303 H   0  0  0  0  0  0  0  0  0  0  0  0
    4.2375    1.4203   16.6854 H   0  0  0  0  0  0  0  0  0  0  0  0
    7.3144   -0.8306   18.2492 H   0  0  0  0  0  0  0  0  0  0  0  0
    8.1982   -0.4969   20.9192 C   0  0  0  0  0  0  0  0  0  0  0  0
    8.4588   -1.0525   22.3311 C   0  0  2  0  0  0  0  0  0  0  0  0
    9.8158   -1.7314   22.4510 C   0  0  0  0  0  0  0  0  0  0  0  0
    9.9211   -2.2336   23.4176 H   0  0  0  0  0  0  0  0  0  0  0  0
   10.6388   -1.0243   22.3376 H   0  0  0  0  0  0  0  0  0  0  0  0
    9.9356   -2.4929   21.6724 H   0  0  0  0  0  0  0  0  0  0  0  0
    8.4193   -0.2016   23.0132 H   0  0  0  0  0  0  0  0  0  0  0  0
    8.5543    0.5292   20.7847 H   0  0  0  0  0  0  0  0  0  0  0  0
    8.6722   -1.1149   20.1431 H   0  0  0  0  0  0  0  0  0  0  0  0
    6.8154   -2.0036   24.1323 C   0  0  0  0  0  0  0  0  0  0  0  0
    6.8236   -0.8389   24.9124 C   0  0  0  0  0  0  0  0  0  0  0  0
    6.4180   -0.8863   26.2344 C   0  0  0  0  0  0  0  0  0  0  0  0
    6.3823    0.5939   27.1486 Cl  0  0  0  0  0  0  0  0  0  0  0  0
    6.0512   -2.0819   26.8517 C   0  0  0  0  0  0  0  0  0  0  0  0
    6.0478   -3.2372   26.0961 C   0  0  0  0  0  0  0  0  0  0  0  0
    6.3767   -3.1966   24.7409 C   0  0  0  0  0  0  0  0  0  0  0  0
    6.1619   -4.4413   23.9447 C   0  0  0  0  0  0  0  0  0  0  0  0
    5.7064   -5.4727   24.4031 O   0  0  0  0  0  0  0  0  0  0  0  0
    5.7792   -4.1932   26.5363 H   0  0  0  0  0  0  0  0  0  0  0  0
    5.7516   -2.0863   27.8934 H   0  0  0  0  0  0  0  0  0  0  0  0
    7.1423    0.1099   24.4924 H   0  0  0  0  0  0  0  0  0  0  0  0
    8.4519   -3.7721   22.6915 H   0  0  0  0  0  0  0  0  0  0  0  0
    7.6522   -3.4289   21.1558 H   0  0  0  0  0  0  0  0  0  0  0  0
    6.5740   -5.6410   20.5387 C   0  0  0  0  0  0  0  0  0  0  0  0
    5.6442   -4.5101   20.2157 C   0  0  0  0  0  0  0  0  0  0  0  0
    6.0401   -3.5019   20.1046 H   0  0  0  0  0  0  0  0  0  0  0  0
    4.7571   -4.7507   19.6402 H   0  0  0  0  0  0  0  0  0  0  0  0
    7.6295   -5.3763   20.5917 H   0  0  0  0  0  0  0  0  0  0  0  0
    6.3191   -6.6321   20.1693 H   0  0  0  0  0  0  0  0  0  0  0  0
    3.5958   -4.0624   22.5242 H   0  0  0  0  0  0  0  0  0  0  0  0
    2.2165   -6.2841   23.5569 H   0  0  0  0  0  0  0  0  0  0  0  0
    1.9863   -6.4031   21.8236 H   0  0  0  0  0  0  0  0  0  0  0  0
    1.3893   -4.9562   22.6771 H   0  0  0  0  0  0  0  0  0  0  0  0
  1  2  1  0
  2  3  1  0
  3  4  2  0
  3  5  1  0
  5  6  1  0
  6  7  1  0
  8  7  1  6
  8  9  1  0
  9 10  2  0
  9 11  1  0
 11 12  1  0
 12 13  2  0
 13 14  1  0
 14 15  2  0
 15 16  1  0
 16 17  2  0
 17 18  1  0
 18 19  2  0
 19 20  1  0
 20 21  2  0
 20 22  1  0
 19 23  1  0
 18 24  1  0
 17 25  1  0
 15 26  1  0
 13 27  1  0
 11 28  1  0
 28 29  1  0
 29 30  1  0
 30 31  1  0
 30 32  1  0
 30 33  1  0
 29 34  1  1
 28 35  1  0
 28 36  1  0
  8 37  1  0
 37 38  2  0
 38 39  1  0
 39 40  1  0
 39 41  2  0
 41 42  1  0
 42 43  2  0
 43 44  1  0
 44 45  2  0
 42 46  1  0
 41 47  1  0
 38 48  1  0
  7 49  1  0
  7 50  1  0
  5 51  1  0
 51 52  1  0
 52 53  1  0
 52 54  1  0
 51 55  1  0
 51 56  1  0
  2 57  1  0
  1 58  1  0
  1 59  1  0
  1 60  1  0
 52  5  1  0
 44  6  1  0
 29  8  1  0
 43 37  1  0
 21 12  1  0
 21 16  1  0
M  END
>  <cnnaffinities>  (52) 
[5.79321]

>  <score>  (52) 
5.79321

>  <index>  (52) 
84

>  <Smiles>  (52) 
C(N(C(=O)C1(N2C([C@@]3(C(=O)N(c4c(nc(c5c(c(c(c(c45)[H])[H])[H])[H])[H])[H])C([C@@]3(C([H])([H])[H])[H])([H])[H])c3c(c(Cl)c(c(c3C2=O)[H])[H])[H])([H])[H])C(C1([H])[H])([H])[H])[H])([H])([H])[H]

>  <h>  (52) 
<NA>

>  <Training>  (52) 
True

>  <Success>  (52) 
True

>  <enamine_searched>  (52) 
False

>  <enamine_id>  (52) 
nan

$$$$

     RDKit          3D

 55 60  0  0  0  0  0  0  0  0999 V2000
    9.7015   -1.9104   22.0058 C   0  0  0  0  0  0  0  0  0  0  0  0
    8.5913   -0.9108   22.3688 C   0  0  1  0  0  0  0  0  0  0  0  0
    8.1805   -0.0277   21.1681 C   0  0  0  0  0  0  0  0  0  0  0  0
    6.8753   -0.5038   20.7819 N   0  0  0  0  0  0  0  0  0  0  0  0
    6.1143    0.0691   19.7428 C   0  0  0  0  0  0  0  0  0  0  0  0
    6.4570   -0.2077   18.4471 C   0  0  0  0  0  0  0  0  0  0  0  0
    5.7909    0.2520   17.3628 N   0  0  0  0  0  0  0  0  0  0  0  0
    4.7557    1.0259   17.5921 C   0  0  0  0  0  0  0  0  0  0  0  0
    4.3039    1.4001   18.8902 C   0  0  0  0  0  0  0  0  0  0  0  0
    3.1865    2.2564   19.0595 C   0  0  0  0  0  0  0  0  0  0  0  0
    2.7892    2.6400   20.3080 C   0  0  0  0  0  0  0  0  0  0  0  0
    3.4916    2.1843   21.4476 C   0  0  0  0  0  0  0  0  0  0  0  0
    4.5706    1.3452   21.3191 C   0  0  0  0  0  0  0  0  0  0  0  0
    4.9999    0.9224   20.0210 C   0  0  0  0  0  0  0  0  0  0  0  0
    5.0929    1.0027   22.2148 H   0  0  0  0  0  0  0  0  0  0  0  0
    3.1681    2.5113   22.4318 H   0  0  0  0  0  0  0  0  0  0  0  0
    1.9415    3.3084   20.4306 H   0  0  0  0  0  0  0  0  0  0  0  0
    2.6751    2.6112   18.1686 H   0  0  0  0  0  0  0  0  0  0  0  0
    4.2174    1.4084   16.7246 H   0  0  0  0  0  0  0  0  0  0  0  0
    7.3064   -0.8637   18.2606 H   0  0  0  0  0  0  0  0  0  0  0  0
    6.3000   -1.3678   21.6737 C   0  0  0  0  0  0  0  0  0  0  0  0
    5.2203   -1.9022   21.4986 O   0  0  0  0  0  0  0  0  0  0  0  0
    7.2605   -1.5418   22.8688 C   0  0  1  0  0  0  0  0  0  0  0  0
    7.3484   -3.0401   23.1527 C   0  0  0  0  0  0  0  0  0  0  0  0
    6.0451   -3.4785   23.5826 N   0  0  0  0  0  0  0  0  0  0  0  0
    5.4378   -4.6145   22.9218 C   0  0  0  0  0  0  0  0  0  0  0  0
    6.1031   -5.8566   23.4122 C   0  0  0  0  0  0  0  0  0  0  0  0
    5.9808   -6.4152   24.6364 C   0  0  0  0  0  0  0  0  0  0  0  0
    7.0567   -7.2092   24.8292 O   0  0  0  0  0  0  0  0  0  0  0  0
    7.7678   -7.1255   23.6954 C   0  0  0  0  0  0  0  0  0  0  0  0
    7.2528   -6.3510   22.8001 N   0  0  0  0  0  0  0  0  0  0  0  0
    8.6891   -7.6922   23.6682 H   0  0  0  0  0  0  0  0  0  0  0  0
    5.3153   -6.2667   25.4713 H   0  0  0  0  0  0  0  0  0  0  0  0
    4.3693   -4.5725   23.1422 H   0  0  0  0  0  0  0  0  0  0  0  0
    5.5752   -4.4834   21.8412 H   0  0  0  0  0  0  0  0  0  0  0  0
    5.5571   -3.0254   24.7719 C   0  0  0  0  0  0  0  0  0  0  0  0
    4.8155   -3.6818   25.4970 O   0  0  0  0  0  0  0  0  0  0  0  0
    5.9505   -1.6144   25.0607 C   0  0  0  0  0  0  0  0  0  0  0  0
    5.4532   -1.0237   26.2183 C   0  0  0  0  0  0  0  0  0  0  0  0
    5.6427    0.3189   26.4623 C   0  0  0  0  0  0  0  0  0  0  0  0
    6.3518    1.0467   25.5156 C   0  0  0  0  0  0  0  0  0  0  0  0
    6.5162    2.3618   25.7334 F   0  0  0  0  0  0  0  0  0  0  0  0
    6.8827    0.4835   24.3691 C   0  0  0  0  0  0  0  0  0  0  0  0
    6.7006   -0.8829   24.1280 C   0  0  0  0  0  0  0  0  0  0  0  0
    7.4369    1.1201   23.6876 H   0  0  0  0  0  0  0  0  0  0  0  0
    5.2304    0.8068   27.3382 H   0  0  0  0  0  0  0  0  0  0  0  0
    4.9040   -1.6573   26.9023 H   0  0  0  0  0  0  0  0  0  0  0  0
    8.1029   -3.2403   23.9307 H   0  0  0  0  0  0  0  0  0  0  0  0
    7.6310   -3.5907   22.2551 H   0  0  0  0  0  0  0  0  0  0  0  0
    8.8820   -0.1248   20.3403 H   0  0  0  0  0  0  0  0  0  0  0  0
    8.1371    1.0363   21.4409 H   0  0  0  0  0  0  0  0  0  0  0  0
    8.9990   -0.2952   23.1778 H   0  0  0  0  0  0  0  0  0  0  0  0
    9.8739   -2.6183   22.8198 H   0  0  0  0  0  0  0  0  0  0  0  0
    9.4674   -2.4727   21.0935 H   0  0  0  0  0  0  0  0  0  0  0  0
   10.6554   -1.4002   21.8668 H   0  0  0  0  0  0  0  0  0  0  0  0
  1  2  1  0
  2  3  1  0
  3  4  1  0
  4  5  1  0
  5  6  2  0
  6  7  1  0
  7  8  2  0
  8  9  1  0
  9 10  2  0
 10 11  1  0
 11 12  2  0
 12 13  1  0
 13 14  2  0
 13 15  1  0
 12 16  1  0
 11 17  1  0
 10 18  1  0
  8 19  1  0
  6 20  1  0
  4 21  1  0
 21 22  2  0
 21 23  1  0
 23 24  1  1
 24 25  1  0
 25 26  1  0
 26 27  1  0
 27 28  2  0
 28 29  1  0
 29 30  1  0
 30 31  2  0
 30 32  1  0
 28 33  1  0
 26 34  1  0
 26 35  1  0
 25 36  1  0
 36 37  2  0
 36 38  1  0
 38 39  2  0
 39 40  1  0
 40 41  2  0
 41 42  1  0
 41 43  1  0
 43 44  2  0
 43 45  1  0
 40 46  1  0
 39 47  1  0
 24 48  1  0
 24 49  1  0
  3 50  1  0
  3 51  1  0
  2 52  1  1
  1 53  1  0
  1 54  1  0
  1 55  1  0
 23  2  1  0
 31 27  1  0
 44 38  1  0
 14  5  1  0
 44 23  1  0
 14  9  1  0
M  END
>  <cnnaffinities>  (53) 
[6.05433]

>  <score>  (53) 
6.05433

>  <index>  (53) 
85

>  <Smiles>  (53) 
C([C@]1(C(N(c2c(nc(c3c(c(c(c(c23)[H])[H])[H])[H])[H])[H])C(=O)[C@]21C(N(C(c1c(oc(n1)[H])[H])([H])[H])C(=O)c1c(c(c(F)c(c21)[H])[H])[H])([H])[H])([H])[H])[H])([H])([H])[H]

>  <h>  (53) 
<NA>

>  <Training>  (53) 
True

>  <Success>  (53) 
True

>  <enamine_searched>  (53) 
False

>  <enamine_id>  (53) 
nan

$$$$

     RDKit          3D

 64 68  0  0  0  0  0  0  0  0999 V2000
    1.1494   -3.8394   27.2824 C   0  0  0  0  0  0  0  0  0  0  0  0
    1.6939   -3.7116   25.8496 C   0  0  0  0  0  0  0  0  0  0  0  0
    3.1994   -4.0048   25.7228 C   0  0  0  0  0  0  0  0  0  0  0  0
    3.9989   -3.1519   26.0889 O   0  0  0  0  0  0  0  0  0  0  0  0
    3.6335   -5.0863   24.9717 N   0  0  0  0  0  0  0  0  0  0  0  0
    2.9512   -6.3710   25.1212 C   0  0  0  0  0  0  0  0  0  0  0  0
    3.9864   -7.4806   25.3558 C   0  0  0  0  0  0  0  0  0  0  0  0
    4.9510   -7.5438   24.1725 C   0  0  0  0  0  0  0  0  0  0  0  0
    5.5015   -6.1803   23.8351 C   0  0  0  0  0  0  0  0  0  0  0  0
    6.6638   -6.0853   23.0650 C   0  0  0  0  0  0  0  0  0  0  0  0
    7.1473   -4.8403   22.6601 C   0  0  0  0  0  0  0  0  0  0  0  0
    6.4733   -3.6787   23.0231 C   0  0  0  0  0  0  0  0  0  0  0  0
    6.9564   -2.4437   22.5929 N   0  0  0  0  0  0  0  0  0  0  0  0
    8.0406   -1.8569   23.3663 C   0  0  0  0  0  0  0  0  0  0  0  0
    7.4817   -1.4006   24.6957 C   0  0  0  0  0  0  0  0  0  0  0  0
    7.5720   -2.2357   25.8218 C   0  0  0  0  0  0  0  0  0  0  0  0
    7.0038   -1.8469   27.0386 C   0  0  0  0  0  0  0  0  0  0  0  0
    6.3388   -0.6210   27.1378 C   0  0  0  0  0  0  0  0  0  0  0  0
    6.2502    0.2248   26.0298 C   0  0  0  0  0  0  0  0  0  0  0  0
    5.3190    1.8871   26.1629 Br  0  0  0  0  0  0  0  0  0  0  0  0
    6.8231   -0.1649   24.8148 C   0  0  0  0  0  0  0  0  0  0  0  0
    6.7503    0.4976   23.9585 H   0  0  0  0  0  0  0  0  0  0  0  0
    5.8752   -0.3263   28.0725 H   0  0  0  0  0  0  0  0  0  0  0  0
    7.0745   -2.4996   27.9022 H   0  0  0  0  0  0  0  0  0  0  0  0
    8.0890   -3.1881   25.7478 H   0  0  0  0  0  0  0  0  0  0  0  0
    8.8326   -2.6020   23.5209 H   0  0  0  0  0  0  0  0  0  0  0  0
    8.4813   -1.0129   22.8255 H   0  0  0  0  0  0  0  0  0  0  0  0
    6.2782   -1.7304   21.6061 C   0  0  0  0  0  0  0  0  0  0  0  0
    5.2312   -2.1930   21.1596 O   0  0  0  0  0  0  0  0  0  0  0  0
    6.9127   -0.4846   20.9359 C   0  0  0  0  0  0  0  0  0  0  0  0
    6.1057    0.1046   19.7630 C   0  0  0  0  0  0  0  0  0  0  0  0
    6.4493   -0.2018   18.4262 C   0  0  0  0  0  0  0  0  0  0  0  0
    5.7781    0.2553   17.3510 N   0  0  0  0  0  0  0  0  0  0  0  0
    4.7173    1.0543   17.5712 C   0  0  0  0  0  0  0  0  0  0  0  0
    4.2914    1.4217   18.8517 C   0  0  0  0  0  0  0  0  0  0  0  0
    3.1792    2.2592   19.0283 C   0  0  0  0  0  0  0  0  0  0  0  0
    2.7572    2.6154   20.3107 C   0  0  0  0  0  0  0  0  0  0  0  0
    3.4417    2.1287   21.4278 C   0  0  0  0  0  0  0  0  0  0  0  0
    4.5545    1.2929   21.2545 C   0  0  0  0  0  0  0  0  0  0  0  0
    4.9932    0.9375   19.9715 C   0  0  0  0  0  0  0  0  0  0  0  0
    5.0817    0.9079   22.1210 H   0  0  0  0  0  0  0  0  0  0  0  0
    3.1033    2.4043   22.4226 H   0  0  0  0  0  0  0  0  0  0  0  0
    1.9026    3.2741   20.4357 H   0  0  0  0  0  0  0  0  0  0  0  0
    2.6438    2.6462   18.1654 H   0  0  0  0  0  0  0  0  0  0  0  0
    4.1568    1.4377   16.7212 H   0  0  0  0  0  0  0  0  0  0  0  0
    7.2930   -0.8644   18.2549 H   0  0  0  0  0  0  0  0  0  0  0  0
    7.8982   -0.7825   20.5621 H   0  0  0  0  0  0  0  0  0  0  0  0
    7.0786    0.2860   21.7000 H   0  0  0  0  0  0  0  0  0  0  0  0
    5.3105   -3.7648   23.7890 C   0  0  0  0  0  0  0  0  0  0  0  0
    4.8189   -5.0093   24.2148 C   0  0  0  0  0  0  0  0  0  0  0  0
    4.7737   -2.8573   24.0437 H   0  0  0  0  0  0  0  0  0  0  0  0
    8.0407   -4.7492   22.0557 H   0  0  0  0  0  0  0  0  0  0  0  0
    7.1794   -6.9968   22.7782 H   0  0  0  0  0  0  0  0  0  0  0  0
    5.7722   -8.2324   24.3951 H   0  0  0  0  0  0  0  0  0  0  0  0
    4.4064   -7.9235   23.3035 H   0  0  0  0  0  0  0  0  0  0  0  0
    4.5460   -7.2875   26.2805 H   0  0  0  0  0  0  0  0  0  0  0  0
    3.4723   -8.4431   25.4600 H   0  0  0  0  0  0  0  0  0  0  0  0
    2.2757   -6.3364   25.9848 H   0  0  0  0  0  0  0  0  0  0  0  0
    2.3550   -6.5830   24.2244 H   0  0  0  0  0  0  0  0  0  0  0  0
    1.1379   -4.3791   25.1782 H   0  0  0  0  0  0  0  0  0  0  0  0
    1.5377   -2.6863   25.4984 H   0  0  0  0  0  0  0  0  0  0  0  0
    1.3080   -4.8574   27.6585 H   0  0  0  0  0  0  0  0  0  0  0  0
    1.6540   -3.1253   27.9462 H   0  0  0  0  0  0  0  0  0  0  0  0
    0.0714   -3.6222   27.3036 H   0  0  0  0  0  0  0  0  0  0  0  0
  1  2  1  0
  2  3  1  0
  3  4  2  0
  3  5  1  0
  5  6  1  0
  6  7  1  0
  7  8  1  0
  8  9  1  0
  9 10  2  0
 10 11  1  0
 11 12  2  0
 12 13  1  0
 13 14  1  0
 14 15  1  0
 15 16  2  0
 16 17  1  0
 17 18  2  0
 18 19  1  0
 19 20  1  0
 19 21  2  0
 21 22  1  0
 18 23  1  0
 17 24  1  0
 16 25  1  0
 14 26  1  0
 14 27  1  0
 13 28  1  0
 28 29  2  0
 28 30  1  0
 30 31  1  0
 31 32  2  0
 32 33  1  0
 33 34  2  0
 34 35  1  0
 35 36  2  0
 36 37  1  0
 37 38  2  0
 38 39  1  0
 39 40  2  0
 39 41  1  0
 38 42  1  0
 37 43  1  0
 36 44  1  0
 34 45  1  0
 32 46  1  0
 30 47  1  0
 30 48  1  0
 12 49  1  0
 49 50  2  0
 49 51  1  0
 11 52  1  0
 10 53  1  0
  8 54  1  0
  8 55  1  0
  7 56  1  0
  7 57  1  0
  6 58  1  0
  6 59  1  0
  2 60  1  0
  2 61  1  0
  1 62  1  0
  1 63  1  0
  1 64  1  0
 50  5  1  0
 50  9  1  0
 21 15  1  0
 40 31  1  0
 40 35  1  0
M  END
>  <cnnaffinities>  (54) 
[6.67106]

>  <score>  (54) 
6.67106

>  <index>  (54) 
88

>  <Smiles>  (54) 
C(C(C(=O)N1C(C(C(c2c(c(c(N(C(c3c(c(c(c(Br)c3[H])[H])[H])[H])([H])[H])C(=O)C(c3c(nc(c4c(c(c(c(c34)[H])[H])[H])[H])[H])[H])([H])[H])c(c12)[H])[H])[H])([H])[H])([H])[H])([H])[H])([H])[H])([H])([H])[H]

>  <h>  (54) 
<NA>

>  <Training>  (54) 
True

>  <Success>  (54) 
True

>  <enamine_searched>  (54) 
False

>  <enamine_id>  (54) 
nan

$$$$

     RDKit          3D

 38 40  0  0  0  0  0  0  0  0999 V2000
    5.0979   -1.9796   21.3855 O   0  0  0  0  0  0  0  0  0  0  0  0
    6.2964   -1.7853   21.4739 C   0  0  0  0  0  0  0  0  0  0  0  0
    6.9403   -0.5054   20.8930 C   0  0  0  0  0  0  0  0  0  0  0  0
    6.1185    0.0902   19.7701 C   0  0  0  0  0  0  0  0  0  0  0  0
    6.4234   -0.2103   18.4684 C   0  0  0  0  0  0  0  0  0  0  0  0
    5.7589    0.2380   17.3699 N   0  0  0  0  0  0  0  0  0  0  0  0
    4.7362    1.0317   17.5786 C   0  0  0  0  0  0  0  0  0  0  0  0
    4.2868    1.4193   18.8684 C   0  0  0  0  0  0  0  0  0  0  0  0
    3.1641    2.2693   19.0436 C   0  0  0  0  0  0  0  0  0  0  0  0
    2.7458    2.6239   20.2975 C   0  0  0  0  0  0  0  0  0  0  0  0
    3.4359    2.1371   21.4303 C   0  0  0  0  0  0  0  0  0  0  0  0
    4.5255    1.3119   21.2869 C   0  0  0  0  0  0  0  0  0  0  0  0
    4.9887    0.9341   20.0001 C   0  0  0  0  0  0  0  0  0  0  0  0
    5.0267    0.9230   22.1672 H   0  0  0  0  0  0  0  0  0  0  0  0
    3.0932    2.4128   22.4232 H   0  0  0  0  0  0  0  0  0  0  0  0
    1.8870    3.2783   20.4317 H   0  0  0  0  0  0  0  0  0  0  0  0
    2.6489    2.6416   18.1605 H   0  0  0  0  0  0  0  0  0  0  0  0
    4.2024    1.3991   16.6992 H   0  0  0  0  0  0  0  0  0  0  0  0
    7.2633   -0.8654   18.2439 H   0  0  0  0  0  0  0  0  0  0  0  0
    7.0803    0.2298   21.6977 H   0  0  0  0  0  0  0  0  0  0  0  0
    7.9443   -0.7508   20.5153 H   0  0  0  0  0  0  0  0  0  0  0  0
    7.1303   -2.7329   22.0352 N   0  0  0  0  0  0  0  0  0  0  0  0
    6.5958   -4.0783   22.2146 C   0  0  0  0  0  0  0  0  0  0  0  0
    5.8793   -4.3500   23.5178 C   0  0  0  0  0  0  0  0  0  0  0  0
    6.2182   -3.8307   24.6951 C   0  0  0  0  0  0  0  0  0  0  0  0
    7.3498   -2.8627   24.9404 C   0  0  0  0  0  0  0  0  0  0  0  0
    8.5722   -3.0624   24.0415 C   0  0  0  0  0  0  0  0  0  0  0  0
    8.4260   -2.4580   22.6397 C   0  0  0  0  0  0  0  0  0  0  0  0
    9.2361   -2.8301   21.9967 H   0  0  0  0  0  0  0  0  0  0  0  0
    8.5440   -1.3747   22.7189 H   0  0  0  0  0  0  0  0  0  0  0  0
    9.4477   -2.6037   24.5140 H   0  0  0  0  0  0  0  0  0  0  0  0
    8.8150   -4.1265   23.9822 H   0  0  0  0  0  0  0  0  0  0  0  0
    7.6438   -2.9235   25.9948 H   0  0  0  0  0  0  0  0  0  0  0  0
    6.9844   -1.8396   24.7996 H   0  0  0  0  0  0  0  0  0  0  0  0
    5.6462   -4.1338   25.5700 H   0  0  0  0  0  0  0  0  0  0  0  0
    5.0148   -5.0136   23.4652 H   0  0  0  0  0  0  0  0  0  0  0  0
    7.4368   -4.7731   22.1225 H   0  0  0  0  0  0  0  0  0  0  0  0
    5.9323   -4.2999   21.3782 H   0  0  0  0  0  0  0  0  0  0  0  0
  1  2  2  0
  2  3  1  0
  3  4  1  0
  4  5  2  0
  5  6  1  0
  6  7  2  0
  7  8  1  0
  8  9  2  0
  9 10  1  0
 10 11  2  0
 11 12  1  0
 12 13  2  0
 12 14  1  0
 11 15  1  0
 10 16  1  0
  9 17  1  0
  7 18  1  0
  5 19  1  0
  3 20  1  0
  3 21  1  0
  2 22  1  0
 22 23  1  0
 23 24  1  0
 24 25  2  0
 25 26  1  0
 26 27  1  0
 27 28  1  0
 28 29  1  0
 28 30  1  0
 27 31  1  0
 27 32  1  0
 26 33  1  0
 26 34  1  0
 25 35  1  0
 24 36  1  0
 23 37  1  0
 23 38  1  0
 13  4  1  0
 28 22  1  0
 13  8  1  0
M  END
>  <cnnaffinities>  (55) 
[5.10356, 5.15554, 4.76988]

>  <score>  (55) 
5.10356

>  <index>  (55) 
89

>  <Smiles>  (55) 
O=C(C(c1c(nc(c2c(c(c(c(c12)[H])[H])[H])[H])[H])[H])([H])[H])N1C(C(=C(C(C(C1([H])[H])([H])[H])([H])[H])[H])[H])([H])[H]

>  <h>  (55) 
<NA>

>  <Training>  (55) 
True

>  <Success>  (55) 
True

>  <enamine_searched>  (55) 
False

>  <enamine_id>  (55) 
nan

$$$$

     RDKit          3D

 62 67  0  0  0  0  0  0  0  0999 V2000
    9.7289   -1.9759   21.9460 C   0  0  0  0  0  0  0  0  0  0  0  0
    8.6286   -0.9764   22.3531 C   0  0  1  0  0  0  0  0  0  0  0  0
    8.1887   -0.0799   21.1634 C   0  0  0  0  0  0  0  0  0  0  0  0
    6.8494   -0.5196   20.8333 N   0  0  0  0  0  0  0  0  0  0  0  0
    6.0963    0.0454   19.7721 C   0  0  0  0  0  0  0  0  0  0  0  0
    6.4433   -0.2242   18.4705 C   0  0  0  0  0  0  0  0  0  0  0  0
    5.7856    0.2461   17.3839 N   0  0  0  0  0  0  0  0  0  0  0  0
    4.7523    1.0264   17.5989 C   0  0  0  0  0  0  0  0  0  0  0  0
    4.2971    1.4100   18.8937 C   0  0  0  0  0  0  0  0  0  0  0  0
    3.1807    2.2732   19.0600 C   0  0  0  0  0  0  0  0  0  0  0  0
    2.7839    2.6560   20.3121 C   0  0  0  0  0  0  0  0  0  0  0  0
    3.4917    2.2017   21.4480 C   0  0  0  0  0  0  0  0  0  0  0  0
    4.5725    1.3645   21.3161 C   0  0  0  0  0  0  0  0  0  0  0  0
    4.9909    0.9257   20.0226 C   0  0  0  0  0  0  0  0  0  0  0  0
    5.1037    1.0233   22.2041 H   0  0  0  0  0  0  0  0  0  0  0  0
    3.1640    2.5100   22.4363 H   0  0  0  0  0  0  0  0  0  0  0  0
    1.9302    3.3164   20.4372 H   0  0  0  0  0  0  0  0  0  0  0  0
    2.6676    2.6284   18.1709 H   0  0  0  0  0  0  0  0  0  0  0  0
    4.2209    1.3885   16.7211 H   0  0  0  0  0  0  0  0  0  0  0  0
    7.2930   -0.8718   18.2623 H   0  0  0  0  0  0  0  0  0  0  0  0
    6.2968   -1.3881   21.7426 C   0  0  0  0  0  0  0  0  0  0  0  0
    5.1834   -1.8668   21.6471 O   0  0  0  0  0  0  0  0  0  0  0  0
    7.3123   -1.6123   22.8892 C   0  0  1  0  0  0  0  0  0  0  0  0
    7.4790   -3.1150   23.1858 C   0  0  0  0  0  0  0  0  0  0  0  0
    6.3080   -3.6819   23.8053 N   0  0  0  0  0  0  0  0  0  0  0  0
    5.8169   -4.9714   23.3669 C   0  0  0  0  0  0  0  0  0  0  0  0
    4.5360   -4.8131   22.5395 C   0  0  0  0  0  0  0  0  0  0  0  0
    3.7139   -6.0521   22.4823 N   0  0  0  0  0  4  0  0  0  0  0  0
    4.4133   -7.3869   22.2453 C   0  0  0  0  0  0  0  0  0  0  0  0
    3.9253   -7.9356   23.6202 C   0  0  0  0  0  0  0  0  0  0  0  0
    3.1794   -6.5921   23.8333 C   0  0  0  0  0  0  0  0  0  0  0  0
    3.4449   -5.9480   24.6694 H   0  0  0  0  0  0  0  0  0  0  0  0
    2.1006   -6.6918   23.7804 H   0  0  0  0  0  0  0  0  0  0  0  0
    3.2075   -8.7321   23.4856 H   0  0  0  0  0  0  0  0  0  0  0  0
    4.6934   -8.2394   24.3398 H   0  0  0  0  0  0  0  0  0  0  0  0
    3.9822   -7.8908   21.3823 H   0  0  0  0  0  0  0  0  0  0  0  0
    5.4805   -7.2802   22.0638 H   0  0  0  0  0  0  0  0  0  0  0  0
    2.9617   -5.8881   21.8003 H   0  0  0  0  0  0  0  0  0  0  0  0
    3.8794   -4.0679   22.9806 H   0  0  0  0  0  0  0  0  0  0  0  0
    4.7682   -4.5349   21.5136 H   0  0  0  0  0  0  0  0  0  0  0  0
    6.6160   -5.4463   22.7832 H   0  0  0  0  0  0  0  0  0  0  0  0
    5.6490   -5.5753   24.2643 H   0  0  0  0  0  0  0  0  0  0  0  0
    5.6858   -3.0882   24.8588 C   0  0  0  0  0  0  0  0  0  0  0  0
    4.8571   -3.6869   25.5375 O   0  0  0  0  0  0  0  0  0  0  0  0
    6.0323   -1.6400   25.0826 C   0  0  0  0  0  0  0  0  0  0  0  0
    5.5150   -0.9988   26.2057 C   0  0  0  0  0  0  0  0  0  0  0  0
    5.7223    0.3533   26.4000 C   0  0  0  0  0  0  0  0  0  0  0  0
    6.4449    1.0715   25.4513 C   0  0  0  0  0  0  0  0  0  0  0  0
    6.6702    2.7846   25.6766 Cl  0  0  0  0  0  0  0  0  0  0  0  0
    6.9757    0.4515   24.3340 C   0  0  0  0  0  0  0  0  0  0  0  0
    6.7917   -0.9271   24.1469 C   0  0  0  0  0  0  0  0  0  0  0  0
    7.5137    1.0653   23.6167 H   0  0  0  0  0  0  0  0  0  0  0  0
    5.3201    0.8645   27.2643 H   0  0  0  0  0  0  0  0  0  0  0  0
    4.9341   -1.5979   26.8968 H   0  0  0  0  0  0  0  0  0  0  0  0
    7.6454   -3.6425   22.2440 H   0  0  0  0  0  0  0  0  0  0  0  0
    8.3585   -3.2449   23.8386 H   0  0  0  0  0  0  0  0  0  0  0  0
    8.1852    0.9965   21.4058 H   0  0  0  0  0  0  0  0  0  0  0  0
    8.8582   -0.2096   20.3107 H   0  0  0  0  0  0  0  0  0  0  0  0
    9.0668   -0.3733   23.1572 H   0  0  0  0  0  0  0  0  0  0  0  0
    9.4266   -2.5754   21.0778 H   0  0  0  0  0  0  0  0  0  0  0  0
    9.9795   -2.6646   22.7592 H   0  0  0  0  0  0  0  0  0  0  0  0
   10.6458   -1.4306   21.7106 H   0  0  0  0  0  0  0  0  0  0  0  0
  1  2  1  0
  2  3  1  0
  3  4  1  0
  4  5  1  0
  5  6  2  0
  6  7  1  0
  7  8  2  0
  8  9  1  0
  9 10  2  0
 10 11  1  0
 11 12  2  0
 12 13  1  0
 13 14  2  0
 13 15  1  0
 12 16  1  0
 11 17  1  0
 10 18  1  0
  8 19  1  0
  6 20  1  0
  4 21  1  0
 21 22  2  0
 21 23  1  0
 23 24  1  1
 24 25  1  0
 25 26  1  0
 26 27  1  0
 27 28  1  0
 28 29  1  0
 29 30  1  0
 30 31  1  0
 31 32  1  0
 31 33  1  0
 30 34  1  0
 30 35  1  0
 29 36  1  0
 29 37  1  0
 28 38  1  0
 27 39  1  0
 27 40  1  0
 26 41  1  0
 26 42  1  0
 25 43  1  0
 43 44  2  0
 43 45  1  0
 45 46  2  0
 46 47  1  0
 47 48  2  0
 48 49  1  0
 48 50  1  0
 50 51  2  0
 50 52  1  0
 47 53  1  0
 46 54  1  0
 24 55  1  0
 24 56  1  0
  3 57  1  0
  3 58  1  0
  2 59  1  1
  1 60  1  0
  1 61  1  0
  1 62  1  0
 23  2  1  0
 31 28  1  0
 51 45  1  0
 14  5  1  0
 51 23  1  0
 14  9  1  0
M  CHG  1  28   1
M  END
>  <cnnaffinities>  (56) 
[6.02832, 6.03315]

>  <score>  (56) 
6.02832

>  <index>  (56) 
90

>  <Smiles>  (56) 
C([C@]1(C(N(c2c(nc(c3c(c(c(c(c23)[H])[H])[H])[H])[H])[H])C(=O)[C@]21C(N(C(C([N+]1(C(C(C1([H])[H])([H])[H])([H])[H])[H])([H])[H])([H])[H])C(=O)c1c(c(c(Cl)c(c21)[H])[H])[H])([H])[H])([H])[H])[H])([H])([H])[H]

>  <h>  (56) 
<NA>

>  <Training>  (56) 
True

>  <Success>  (56) 
True

>  <enamine_searched>  (56) 
False

>  <enamine_id>  (56) 
nan

$$$$

     RDKit          3D

 47 50  0  0  0  0  0  0  0  0999 V2000
    5.3696   -2.3407   20.9425 O   0  0  0  0  0  0  0  0  0  0  0  0
    6.0540   -1.5690   21.5879 C   0  0  0  0  0  0  0  0  0  0  0  0
    6.9191   -0.5082   20.9057 C   0  0  0  0  0  0  0  0  0  0  0  0
    6.1474    0.0866   19.7606 C   0  0  0  0  0  0  0  0  0  0  0  0
    6.4569   -0.2201   18.4633 C   0  0  0  0  0  0  0  0  0  0  0  0
    5.7952    0.2323   17.3638 N   0  0  0  0  0  0  0  0  0  0  0  0
    4.7679    1.0207   17.5791 C   0  0  0  0  0  0  0  0  0  0  0  0
    4.3168    1.4078   18.8707 C   0  0  0  0  0  0  0  0  0  0  0  0
    3.1884    2.2493   19.0413 C   0  0  0  0  0  0  0  0  0  0  0  0
    2.7699    2.6123   20.2931 C   0  0  0  0  0  0  0  0  0  0  0  0
    3.4661    2.1366   21.4267 C   0  0  0  0  0  0  0  0  0  0  0  0
    4.5568    1.3140   21.2914 C   0  0  0  0  0  0  0  0  0  0  0  0
    5.0186    0.9290   19.9987 C   0  0  0  0  0  0  0  0  0  0  0  0
    5.0650    0.9540   22.1836 H   0  0  0  0  0  0  0  0  0  0  0  0
    3.1284    2.4290   22.4163 H   0  0  0  0  0  0  0  0  0  0  0  0
    1.9095    3.2636   20.4217 H   0  0  0  0  0  0  0  0  0  0  0  0
    2.6713    2.6092   18.1579 H   0  0  0  0  0  0  0  0  0  0  0  0
    4.2237    1.3920   16.7105 H   0  0  0  0  0  0  0  0  0  0  0  0
    7.2987   -0.8815   18.2584 H   0  0  0  0  0  0  0  0  0  0  0  0
    7.2085    0.2585   21.6293 H   0  0  0  0  0  0  0  0  0  0  0  0
    7.8395   -1.0028   20.5589 H   0  0  0  0  0  0  0  0  0  0  0  0
    6.0314   -1.6309   22.9842 N   0  0  0  0  0  0  0  0  0  0  0  0
    4.8981   -2.2971   23.5014 C   0  0  0  0  0  0  0  0  0  0  0  0
    4.9066   -3.5267   24.0241 C   0  0  0  0  0  0  0  0  0  0  0  0
    6.0454   -4.2656   24.5153 C   0  0  0  0  0  0  0  0  0  0  0  0
    6.9982   -3.7765   25.3392 C   0  0  0  0  0  0  0  0  0  0  0  0
    7.0082   -2.4502   25.9273 C   0  0  0  0  0  0  0  0  0  0  0  0
    6.7627   -1.2732   25.3270 C   0  0  0  0  0  0  0  0  0  0  0  0
    7.0302   -1.0041   23.8737 C   0  0  1  0  0  0  0  0  0  0  0  0
    8.4689   -1.3891   23.5522 C   0  0  0  0  0  0  0  0  0  0  0  0
    8.8246   -2.5626   22.9002 C   0  0  0  0  0  0  0  0  0  0  0  0
   10.1649   -2.8249   22.6383 C   0  0  0  0  0  0  0  0  0  0  0  0
   11.1676   -1.9947   23.1243 C   0  0  0  0  0  0  0  0  0  0  0  0
   10.8117   -0.8733   23.8685 C   0  0  0  0  0  0  0  0  0  0  0  0
    9.4706   -0.5681   24.0633 C   0  0  0  0  0  0  0  0  0  0  0  0
    9.2147    0.3350   24.6180 H   0  0  0  0  0  0  0  0  0  0  0  0
   11.5683   -0.2365   24.3151 H   0  0  0  0  0  0  0  0  0  0  0  0
   12.2100   -2.2370   22.9178 H   0  0  0  0  0  0  0  0  0  0  0  0
   10.4262   -3.6955   22.0488 H   0  0  0  0  0  0  0  0  0  0  0  0
    8.0629   -3.2731   22.5866 H   0  0  0  0  0  0  0  0  0  0  0  0
    6.9979    0.0866   23.7461 H   0  0  0  0  0  0  0  0  0  0  0  0
    6.5324   -0.4256   25.9663 H   0  0  0  0  0  0  0  0  0  0  0  0
    7.2625   -2.4297   26.9860 H   0  0  0  0  0  0  0  0  0  0  0  0
    7.7227   -4.4731   25.7518 H   0  0  0  0  0  0  0  0  0  0  0  0
    6.0294   -5.3362   24.3245 H   0  0  0  0  0  0  0  0  0  0  0  0
    3.9412   -4.0269   24.0622 H   0  0  0  0  0  0  0  0  0  0  0  0
    3.9451   -1.7983   23.3292 H   0  0  0  0  0  0  0  0  0  0  0  0
  1  2  2  0
  2  3  1  0
  3  4  1  0
  4  5  2  0
  5  6  1  0
  6  7  2  0
  7  8  1  0
  8  9  2  0
  9 10  1  0
 10 11  2  0
 11 12  1  0
 12 13  2  0
 12 14  1  0
 11 15  1  0
 10 16  1  0
  9 17  1  0
  7 18  1  0
  5 19  1  0
  3 20  1  0
  3 21  1  0
  2 22  1  0
 22 23  1  0
 23 24  2  3
 24 25  1  0
 25 26  2  3
 26 27  1  0
 27 28  2  3
 28 29  1  0
 29 30  1  0
 30 31  2  0
 31 32  1  0
 32 33  2  0
 33 34  1  0
 34 35  2  0
 35 36  1  0
 34 37  1  0
 33 38  1  0
 32 39  1  0
 31 40  1  0
 29 41  1  1
 28 42  1  0
 27 43  1  0
 26 44  1  0
 25 45  1  0
 24 46  1  0
 23 47  1  0
 13  4  1  0
 29 22  1  0
 35 30  1  0
 13  8  1  0
M  END
>  <cnnaffinities>  (57) 
[5.84332, 5.84313]

>  <score>  (57) 
5.84332

>  <index>  (57) 
92

>  <Smiles>  (57) 
O=C(C(c1c(nc(c2c(c(c(c(c12)[H])[H])[H])[H])[H])[H])([H])[H])N1C(=C(C(=C(C(=C([C@]1(c1c(c(c(c(c1[H])[H])[H])[H])[H])[H])[H])[H])[H])[H])[H])[H]

>  <h>  (57) 
<NA>

>  <Training>  (57) 
True

>  <Success>  (57) 
True

>  <enamine_searched>  (57) 
False

>  <enamine_id>  (57) 
nan

$$$$

     RDKit          3D

 58 62  0  0  0  0  0  0  0  0999 V2000
    5.5946   -7.0401   25.6259 C   0  0  0  0  0  0  0  0  0  0  0  0
    6.7819   -6.4122   24.9972 N   0  0  0  0  0  4  0  0  0  0  0  0
    6.6127   -6.1523   23.5330 C   0  0  0  0  0  0  0  0  0  0  0  0
    5.7392   -4.9162   23.2605 C   0  0  0  0  0  0  0  0  0  0  0  0
    6.2902   -3.6932   23.8183 N   0  0  0  0  0  0  0  0  0  0  0  0
    7.4600   -3.1318   23.1891 C   0  0  0  0  0  0  0  0  0  0  0  0
    7.3127   -1.6270   22.8846 C   0  0  2  0  0  0  0  0  0  0  0  0
    6.2920   -1.3956   21.7417 C   0  0  0  0  0  0  0  0  0  0  0  0
    5.1805   -1.8714   21.6376 O   0  0  0  0  0  0  0  0  0  0  0  0
    6.8469   -0.5229   20.8359 N   0  0  0  0  0  0  0  0  0  0  0  0
    6.0946    0.0422   19.7729 C   0  0  0  0  0  0  0  0  0  0  0  0
    6.4428   -0.2256   18.4746 C   0  0  0  0  0  0  0  0  0  0  0  0
    5.7854    0.2473   17.3860 N   0  0  0  0  0  0  0  0  0  0  0  0
    4.7529    1.0255   17.6009 C   0  0  0  0  0  0  0  0  0  0  0  0
    4.2967    1.4115   18.8914 C   0  0  0  0  0  0  0  0  0  0  0  0
    3.1803    2.2732   19.0621 C   0  0  0  0  0  0  0  0  0  0  0  0
    2.7820    2.6567   20.3101 C   0  0  0  0  0  0  0  0  0  0  0  0
    3.4922    2.2031   21.4483 C   0  0  0  0  0  0  0  0  0  0  0  0
    4.5726    1.3680   21.3132 C   0  0  0  0  0  0  0  0  0  0  0  0
    4.9924    0.9262   20.0246 C   0  0  0  0  0  0  0  0  0  0  0  0
    5.1034    1.0212   22.2012 H   0  0  0  0  0  0  0  0  0  0  0  0
    3.1653    2.5098   22.4373 H   0  0  0  0  0  0  0  0  0  0  0  0
    1.9279    3.3176   20.4364 H   0  0  0  0  0  0  0  0  0  0  0  0
    2.6679    2.6286   18.1700 H   0  0  0  0  0  0  0  0  0  0  0  0
    4.2220    1.3869   16.7199 H   0  0  0  0  0  0  0  0  0  0  0  0
    7.2921   -0.8725   18.2597 H   0  0  0  0  0  0  0  0  0  0  0  0
    8.1933   -0.1005   21.1551 C   0  0  0  0  0  0  0  0  0  0  0  0
    8.6341   -1.0109   22.3340 C   0  0  2  0  0  0  0  0  0  0  0  0
    9.7136   -2.0302   21.9123 C   0  0  0  0  0  0  0  0  0  0  0  0
    9.9614   -2.7260   22.7229 H   0  0  0  0  0  0  0  0  0  0  0  0
   10.6433   -1.5059   21.6746 H   0  0  0  0  0  0  0  0  0  0  0  0
    9.3904   -2.6217   21.0451 H   0  0  0  0  0  0  0  0  0  0  0  0
    9.0962   -0.4151   23.1298 H   0  0  0  0  0  0  0  0  0  0  0  0
    8.2061    0.9775   21.3953 H   0  0  0  0  0  0  0  0  0  0  0  0
    8.8532   -0.2367   20.2969 H   0  0  0  0  0  0  0  0  0  0  0  0
    6.8210   -0.9301   24.1450 C   0  0  0  0  0  0  0  0  0  0  0  0
    7.0323    0.4443   24.3346 C   0  0  0  0  0  0  0  0  0  0  0  0
    6.5314    1.0514   25.4675 C   0  0  0  0  0  0  0  0  0  0  0  0
    6.7366    2.3675   25.6524 F   0  0  0  0  0  0  0  0  0  0  0  0
    5.8144    0.3547   26.4305 C   0  0  0  0  0  0  0  0  0  0  0  0
    5.5816   -0.9909   26.2266 C   0  0  0  0  0  0  0  0  0  0  0  0
    6.0638   -1.6359   25.0901 C   0  0  0  0  0  0  0  0  0  0  0  0
    5.6956   -3.0811   24.8780 C   0  0  0  0  0  0  0  0  0  0  0  0
    4.9033   -3.6762   25.6017 O   0  0  0  0  0  0  0  0  0  0  0  0
    5.0059   -1.5842   26.9253 H   0  0  0  0  0  0  0  0  0  0  0  0
    5.4471    0.8885   27.2975 H   0  0  0  0  0  0  0  0  0  0  0  0
    7.5665    1.0703   23.6245 H   0  0  0  0  0  0  0  0  0  0  0  0
    8.3367   -3.2838   23.8386 H   0  0  0  0  0  0  0  0  0  0  0  0
    7.6099   -3.6648   22.2488 H   0  0  0  0  0  0  0  0  0  0  0  0
    5.6232   -4.7754   22.1778 H   0  0  0  0  0  0  0  0  0  0  0  0
    4.7503   -5.0308   23.7059 H   0  0  0  0  0  0  0  0  0  0  0  0
    6.1548   -7.0262   23.0673 H   0  0  0  0  0  0  0  0  0  0  0  0
    7.6091   -6.0191   23.1158 H   0  0  0  0  0  0  0  0  0  0  0  0
    7.6169   -7.0183   25.1568 H   0  0  0  0  0  0  0  0  0  0  0  0
    6.9443   -5.4801   25.4458 H   0  0  0  0  0  0  0  0  0  0  0  0
    5.3162   -7.9590   25.1029 H   0  0  0  0  0  0  0  0  0  0  0  0
    4.7482   -6.3567   25.5877 H   0  0  0  0  0  0  0  0  0  0  0  0
    5.8100   -7.2797   26.6654 H   0  0  0  0  0  0  0  0  0  0  0  0
  1  2  1  0
  2  3  1  0
  3  4  1  0
  4  5  1  0
  5  6  1  0
  7  6  1  1
  7  8  1  0
  8  9  2  0
  8 10  1  0
 10 11  1  0
 11 12  2  0
 12 13  1  0
 13 14  2  0
 14 15  1  0
 15 16  2  0
 16 17  1  0
 17 18  2  0
 18 19  1  0
 19 20  2  0
 19 21  1  0
 18 22  1  0
 17 23  1  0
 16 24  1  0
 14 25  1  0
 12 26  1  0
 10 27  1  0
 27 28  1  0
 28 29  1  0
 29 30  1  0
 29 31  1  0
 29 32  1  0
 28 33  1  1
 27 34  1  0
 27 35  1  0
  7 36  1  0
 36 37  2  0
 37 38  1  0
 38 39  1  0
 38 40  2  0
 40 41  1  0
 41 42  2  0
 42 43  1  0
 43 44  2  0
 41 45  1  0
 40 46  1  0
 37 47  1  0
  6 48  1  0
  6 49  1  0
  4 50  1  0
  4 51  1  0
  3 52  1  0
  3 53  1  0
  2 54  1  0
  2 55  1  0
  1 56  1  0
  1 57  1  0
  1 58  1  0
 43  5  1  0
 28  7  1  0
 42 36  1  0
 20 11  1  0
 20 15  1  0
M  CHG  1   2   1
M  END
>  <cnnaffinities>  (58) 
[6.00682]

>  <score>  (58) 
6.00682

>  <index>  (58) 
93

>  <Smiles>  (58) 
C([N+](C(C(N1C([C@@]2(C(=O)N(c3c(nc(c4c(c(c(c(c34)[H])[H])[H])[H])[H])[H])C([C@@]2(C([H])([H])[H])[H])([H])[H])c2c(c(F)c(c(c2C1=O)[H])[H])[H])([H])[H])([H])[H])([H])[H])([H])[H])([H])([H])[H]

>  <h>  (58) 
<NA>

>  <Training>  (58) 
True

>  <Success>  (58) 
True

>  <enamine_searched>  (58) 
False

>  <enamine_id>  (58) 
nan

$$$$

     RDKit          3D

 65 69  0  0  0  0  0  0  0  0999 V2000
    8.6452   -5.8283   27.6163 C   0  0  0  0  0  0  0  0  0  0  0  0
    9.9022   -5.4209   26.8413 C   0  0  0  0  0  0  0  0  0  0  0  0
    9.7856   -3.9143   26.6669 C   0  0  0  0  0  0  0  0  0  0  0  0
    9.6918   -3.1981   27.6257 O   0  0  0  0  0  0  0  0  0  0  0  0
    9.7716   -3.3458   25.2653 N   0  0  2  0  0  4  0  0  0  0  0  0
   11.1812   -2.9170   24.7403 C   0  0  0  0  0  0  0  0  0  0  0  0
   11.0339   -2.4139   23.3253 C   0  0  0  0  0  0  0  0  0  0  0  0
   10.1699   -1.1637   23.2830 C   0  0  0  0  0  0  0  0  0  0  0  0
    8.8399   -1.3027   23.9903 C   0  0  0  0  0  0  0  0  0  0  0  0
    7.7843   -0.3915   23.7515 C   0  0  0  0  0  0  0  0  0  0  0  0
    7.9587    0.7303   22.8678 N   0  0  0  0  0  0  0  0  0  0  0  0
    8.2897    2.0377   23.4478 C   0  0  0  0  0  0  0  0  0  0  0  0
    7.1300    3.0093   23.4356 C   0  0  0  0  0  0  0  0  0  0  0  0
    6.9440    3.8536   22.3384 C   0  0  0  0  0  0  0  0  0  0  0  0
    5.8496    4.7078   22.2958 C   0  0  0  0  0  0  0  0  0  0  0  0
    4.9341    4.7282   23.3483 C   0  0  0  0  0  0  0  0  0  0  0  0
    5.1338    3.8884   24.4379 C   0  0  0  0  0  0  0  0  0  0  0  0
    3.9770    3.8783   25.7439 Cl  0  0  0  0  0  0  0  0  0  0  0  0
    6.2267    3.0345   24.4950 C   0  0  0  0  0  0  0  0  0  0  0  0
    6.3720    2.3939   25.3625 H   0  0  0  0  0  0  0  0  0  0  0  0
    4.0562    5.3640   23.3153 H   0  0  0  0  0  0  0  0  0  0  0  0
    5.7005    5.3546   21.4323 H   0  0  0  0  0  0  0  0  0  0  0  0
    7.6570    3.8275   21.5166 H   0  0  0  0  0  0  0  0  0  0  0  0
    9.0877    2.4866   22.8529 H   0  0  0  0  0  0  0  0  0  0  0  0
    8.6426    1.8548   24.4682 H   0  0  0  0  0  0  0  0  0  0  0  0
    7.7967    0.6892   21.4940 C   0  0  0  0  0  0  0  0  0  0  0  0
    8.3151    1.5153   20.7598 O   0  0  0  0  0  0  0  0  0  0  0  0
    6.9463   -0.4306   20.8999 C   0  0  0  0  0  0  0  0  0  0  0  0
    6.1096    0.0818   19.7615 C   0  0  0  0  0  0  0  0  0  0  0  0
    6.4342   -0.2060   18.4623 C   0  0  0  0  0  0  0  0  0  0  0  0
    5.7719    0.2461   17.3635 N   0  0  0  0  0  0  0  0  0  0  0  0
    4.7461    1.0335   17.5795 C   0  0  0  0  0  0  0  0  0  0  0  0
    4.2969    1.4271   18.8701 C   0  0  0  0  0  0  0  0  0  0  0  0
    3.1805    2.2776   19.0463 C   0  0  0  0  0  0  0  0  0  0  0  0
    2.7685    2.6404   20.2975 C   0  0  0  0  0  0  0  0  0  0  0  0
    3.4635    2.1624   21.4374 C   0  0  0  0  0  0  0  0  0  0  0  0
    4.5552    1.3466   21.2888 C   0  0  0  0  0  0  0  0  0  0  0  0
    5.0021    0.9489   20.0017 C   0  0  0  0  0  0  0  0  0  0  0  0
    5.0841    0.9969   22.1737 H   0  0  0  0  0  0  0  0  0  0  0  0
    3.1128    2.4332   22.4296 H   0  0  0  0  0  0  0  0  0  0  0  0
    1.9100    3.2910   20.4208 H   0  0  0  0  0  0  0  0  0  0  0  0
    2.6615    2.6376   18.1588 H   0  0  0  0  0  0  0  0  0  0  0  0
    4.2079    1.3996   16.7047 H   0  0  0  0  0  0  0  0  0  0  0  0
    7.2843   -0.8536   18.2519 H   0  0  0  0  0  0  0  0  0  0  0  0
    7.6403   -1.2035   20.5441 H   0  0  0  0  0  0  0  0  0  0  0  0
    6.3360   -0.8747   21.6893 H   0  0  0  0  0  0  0  0  0  0  0  0
    6.5750   -0.5248   24.4209 C   0  0  0  0  0  0  0  0  0  0  0  0
    6.3613   -1.5995   25.2819 C   0  0  0  0  0  0  0  0  0  0  0  0
    7.3911   -2.5018   25.5265 C   0  0  0  0  0  0  0  0  0  0  0  0
    8.6344   -2.3197   24.9238 C   0  0  0  0  0  0  0  0  0  0  0  0
    7.2284   -3.3491   26.1843 H   0  0  0  0  0  0  0  0  0  0  0  0
    5.3996   -1.7220   25.7708 H   0  0  0  0  0  0  0  0  0  0  0  0
    5.7922    0.2091   24.2422 H   0  0  0  0  0  0  0  0  0  0  0  0
   10.0258   -0.8824   22.2399 H   0  0  0  0  0  0  0  0  0  0  0  0
   10.7275   -0.3611   23.7782 H   0  0  0  0  0  0  0  0  0  0  0  0
   10.6235   -3.1927   22.6689 H   0  0  0  0  0  0  0  0  0  0  0  0
   12.0247   -2.1612   22.9350 H   0  0  0  0  0  0  0  0  0  0  0  0
   11.8521   -3.7778   24.7959 H   0  0  0  0  0  0  0  0  0  0  0  0
   11.5689   -2.1353   25.3983 H   0  0  0  0  0  0  0  0  0  0  0  0
    9.5343   -4.1899   24.6984 H   0  0  0  0  0  0  0  0  0  0  0  0
   10.7990   -5.5936   27.4477 H   0  0  0  0  0  0  0  0  0  0  0  0
   10.0541   -5.9363   25.8913 H   0  0  0  0  0  0  0  0  0  0  0  0
    8.6538   -6.8463   28.0014 H   0  0  0  0  0  0  0  0  0  0  0  0
    7.7487   -5.7040   27.0038 H   0  0  0  0  0  0  0  0  0  0  0  0
    8.5774   -5.1350   28.4536 H   0  0  0  0  0  0  0  0  0  0  0  0
  1  2  1  0
  2  3  1  0
  3  4  2  0
  3  5  1  0
  5  6  1  0
  6  7  1  0
  7  8  1  0
  8  9  1  0
  9 10  2  0
 10 11  1  0
 11 12  1  0
 12 13  1  0
 13 14  2  0
 14 15  1  0
 15 16  2  0
 16 17  1  0
 17 18  1  0
 17 19  2  0
 19 20  1  0
 16 21  1  0
 15 22  1  0
 14 23  1  0
 12 24  1  0
 12 25  1  0
 11 26  1  0
 26 27  2  0
 26 28  1  0
 28 29  1  0
 29 30  2  0
 30 31  1  0
 31 32  2  0
 32 33  1  0
 33 34  2  0
 34 35  1  0
 35 36  2  0
 36 37  1  0
 37 38  2  0
 37 39  1  0
 36 40  1  0
 35 41  1  0
 34 42  1  0
 32 43  1  0
 30 44  1  0
 28 45  1  0
 28 46  1  0
 10 47  1  0
 47 48  2  0
 48 49  1  0
 49 50  2  0
 49 51  1  0
 48 52  1  0
 47 53  1  0
  8 54  1  0
  8 55  1  0
  7 56  1  0
  7 57  1  0
  6 58  1  0
  6 59  1  0
  5 60  1  6
  2 61  1  0
  2 62  1  0
  1 63  1  0
  1 64  1  0
  1 65  1  0
 50  5  1  0
 50  9  1  0
 19 13  1  0
 38 29  1  0
 38 33  1  0
M  CHG  1   5   1
M  END
>  <cnnaffinities>  (59) 
[6.25153]

>  <score>  (59) 
6.25153

>  <index>  (59) 
94

>  <Smiles>  (59) 
C(C(C(=O)[N@@+]1(C(C(C(c2c(N(C(c3c(c(c(c(Cl)c3[H])[H])[H])[H])([H])[H])C(=O)C(c3c(nc(c4c(c(c(c(c34)[H])[H])[H])[H])[H])[H])([H])[H])c(c(c(c12)[H])[H])[H])([H])[H])([H])[H])([H])[H])[H])([H])[H])([H])([H])[H]

>  <h>  (59) 
<NA>

>  <Training>  (59) 
True

>  <Success>  (59) 
True

>  <enamine_searched>  (59) 
False

>  <enamine_id>  (59) 
nan

$$$$

     RDKit          3D

 37 39  0  0  0  0  0  0  0  0999 V2000
    5.8652   -2.6571   20.8461 O   0  0  0  0  0  0  0  0  0  0  0  0
    6.1823   -1.6995   21.5322 C   0  0  0  0  0  0  0  0  0  0  0  0
    6.9043   -0.4907   20.9143 C   0  0  0  0  0  0  0  0  0  0  0  0
    6.1125    0.0954   19.7646 C   0  0  0  0  0  0  0  0  0  0  0  0
    6.4222   -0.2113   18.4637 C   0  0  0  0  0  0  0  0  0  0  0  0
    5.7580    0.2404   17.3638 N   0  0  0  0  0  0  0  0  0  0  0  0
    4.7366    1.0324   17.5757 C   0  0  0  0  0  0  0  0  0  0  0  0
    4.2855    1.4245   18.8648 C   0  0  0  0  0  0  0  0  0  0  0  0
    3.1625    2.2726   19.0441 C   0  0  0  0  0  0  0  0  0  0  0  0
    2.7492    2.6279   20.2971 C   0  0  0  0  0  0  0  0  0  0  0  0
    3.4425    2.1453   21.4305 C   0  0  0  0  0  0  0  0  0  0  0  0
    4.5322    1.3222   21.2855 C   0  0  0  0  0  0  0  0  0  0  0  0
    4.9881    0.9419   19.9968 C   0  0  0  0  0  0  0  0  0  0  0  0
    5.0452    0.9554   22.1702 H   0  0  0  0  0  0  0  0  0  0  0  0
    3.1048    2.4295   22.4221 H   0  0  0  0  0  0  0  0  0  0  0  0
    1.8909    3.2823   20.4336 H   0  0  0  0  0  0  0  0  0  0  0  0
    2.6433    2.6426   18.1615 H   0  0  0  0  0  0  0  0  0  0  0  0
    4.1991    1.4007   16.6985 H   0  0  0  0  0  0  0  0  0  0  0  0
    7.2659   -0.8661   18.2452 H   0  0  0  0  0  0  0  0  0  0  0  0
    7.8593   -0.8578   20.5169 H   0  0  0  0  0  0  0  0  0  0  0  0
    7.1506    0.2719   21.6649 H   0  0  0  0  0  0  0  0  0  0  0  0
    5.8653   -1.6495   22.8579 N   0  0  0  0  0  0  0  0  0  0  0  0
    5.2087   -2.7729   23.5146 C   0  0  0  0  0  0  0  0  0  0  0  0
    6.1014   -3.9742   23.6874 C   0  0  0  0  0  0  0  0  0  0  0  0
    5.9173   -5.1117   22.9138 C   0  0  0  0  0  0  0  0  0  0  0  0
    6.7890   -6.1792   23.0531 C   0  0  0  0  0  0  0  0  0  0  0  0
    7.8493   -6.1522   23.9433 C   0  0  0  0  0  0  0  0  0  0  0  0
    8.0210   -5.0109   24.7089 C   0  0  0  0  0  0  0  0  0  0  0  0
    9.3389   -4.9512   25.8343 Cl  0  0  0  0  0  0  0  0  0  0  0  0
    7.1612   -3.9285   24.5900 C   0  0  0  0  0  0  0  0  0  0  0  0
    7.3290   -3.0471   25.2001 H   0  0  0  0  0  0  0  0  0  0  0  0
    8.5224   -6.9988   24.0359 H   0  0  0  0  0  0  0  0  0  0  0  0
    6.6199   -7.0648   22.4772 H   0  0  0  0  0  0  0  0  0  0  0  0
    5.1130   -5.1537   22.1817 H   0  0  0  0  0  0  0  0  0  0  0  0
    4.8665   -2.4292   24.4911 H   0  0  0  0  0  0  0  0  0  0  0  0
    4.3185   -3.0395   22.9468 H   0  0  0  0  0  0  0  0  0  0  0  0
    6.1666   -0.8767   23.4200 H   0  0  0  0  0  0  0  0  0  0  0  0
  1  2  2  0
  2  3  1  0
  3  4  1  0
  4  5  2  0
  5  6  1  0
  6  7  2  0
  7  8  1  0
  8  9  2  0
  9 10  1  0
 10 11  2  0
 11 12  1  0
 12 13  2  0
 12 14  1  0
 11 15  1  0
 10 16  1  0
  9 17  1  0
  7 18  1  0
  5 19  1  0
  3 20  1  0
  3 21  1  0
  2 22  1  0
 22 23  1  0
 23 24  1  0
 24 25  2  0
 25 26  1  0
 26 27  2  0
 27 28  1  0
 28 29  1  0
 28 30  2  0
 30 31  1  0
 27 32  1  0
 26 33  1  0
 25 34  1  0
 23 35  1  0
 23 36  1  0
 22 37  1  0
 13  4  1  0
 30 24  1  0
 13  8  1  0
M  END
>  <cnnaffinities>  (60) 
[4.80835]

>  <score>  (60) 
4.80835

>  <index>  (60) 
96

>  <Smiles>  (60) 
O=C(C(c1c(nc(c2c(c(c(c(c12)[H])[H])[H])[H])[H])[H])([H])[H])N(C(c1c(c(c(c(Cl)c1[H])[H])[H])[H])([H])[H])[H]

>  <h>  (60) 
<NA>

>  <Training>  (60) 
True

>  <Success>  (60) 
True

>  <enamine_searched>  (60) 
False

>  <enamine_id>  (60) 
nan

$$$$
