
     RDKit          3D

 63 69  0  0  0  0  0  0  0  0999 V2000
    9.3527   -0.6960   25.7077 O   0  0  0  0  0  0  0  0  0  0  0  0
    9.3529   -0.6961   25.7079 C   0  0  0  0  0  0  0  0  0  0  0  0
   10.1588   -0.2735   24.4438 C   0  0  0  0  0  0  0  0  0  0  0  0
   11.4961    0.0573   24.6504 C   0  0  0  0  0  0  0  0  0  0  0  0
   12.3801    0.1984   23.6160 C   0  0  0  0  0  0  0  0  0  0  0  0
   11.8532    0.2209   22.3362 C   0  0  0  0  0  0  0  0  0  0  0  0
   13.1605    0.4106   21.2475 Cl  0  0  0  0  0  0  0  0  0  0  0  0
   10.5226    0.0429   22.0382 C   0  0  0  0  0  0  0  0  0  0  0  0
    9.6328   -0.1983   23.0973 C   0  0  0  0  0  0  0  0  0  0  0  0
    8.1829   -0.4803   22.8244 C   0  0  1  0  0  0  0  0  0  0  0  0
    7.2916   -0.0679   24.0014 C   0  0  0  0  0  0  0  0  0  0  0  0
    7.9372   -0.8296   25.2608 N   0  0  0  0  0  0  0  0  0  0  0  0
    7.1323   -1.1580   26.4140 C   0  0  0  0  0  0  0  0  0  0  0  0
    6.6446   -0.0361   27.3032 C   0  0  0  0  0  0  0  0  0  0  0  0
    5.6716    0.7845   27.0680 N   0  0  0  0  0  0  0  0  0  0  0  0
    5.6929    1.7254   28.1015 N   0  0  0  0  0  0  0  0  0  0  0  0
    6.6720    1.3810   28.8606 C   0  0  0  0  0  0  0  0  0  0  0  0
    7.3249    0.2805   28.4295 O   0  0  0  0  0  0  0  0  0  0  0  0
    7.0028    1.8487   29.7766 H   0  0  0  0  0  0  0  0  0  0  0  0
    7.5983   -1.9586   27.0121 H   0  0  0  0  0  0  0  0  0  0  0  0
    6.1789   -1.5842   26.0240 H   0  0  0  0  0  0  0  0  0  0  0  0
    6.2929   -0.4898   23.9668 H   0  0  0  0  0  0  0  0  0  0  0  0
    7.2842    1.0074   24.1994 H   0  0  0  0  0  0  0  0  0  0  0  0
    7.6510    0.3887   21.6865 C   0  0  0  0  0  0  0  0  0  0  0  0
    7.7681    1.5918   21.5909 O   0  0  0  0  0  0  0  0  0  0  0  0
    6.9284   -0.4138   20.8398 N   0  0  0  0  0  0  0  0  0  0  0  0
    6.1445    0.1078   19.7764 C   0  0  0  0  0  0  0  0  0  0  0  0
    6.4316   -0.2242   18.4764 C   0  0  0  0  0  0  0  0  0  0  0  0
    5.7614    0.2309   17.3825 N   0  0  0  0  0  0  0  0  0  0  0  0
    4.7391    1.0307   17.5795 C   0  0  0  0  0  0  0  0  0  0  0  0
    4.2900    1.4205   18.8765 C   0  0  0  0  0  0  0  0  0  0  0  0
    3.1627    2.2723   19.0514 C   0  0  0  0  0  0  0  0  0  0  0  0
    2.7440    2.6120   20.3091 C   0  0  0  0  0  0  0  0  0  0  0  0
    3.4224    2.1149   21.4422 C   0  0  0  0  0  0  0  0  0  0  0  0
    4.5096    1.2932   21.2977 C   0  0  0  0  0  0  0  0  0  0  0  0
    4.9925    0.9371   20.0095 C   0  0  0  0  0  0  0  0  0  0  0  0
    5.0275    0.9077   22.1686 H   0  0  0  0  0  0  0  0  0  0  0  0
    3.0850    2.3824   22.4362 H   0  0  0  0  0  0  0  0  0  0  0  0
    1.8876    3.2619   20.4493 H   0  0  0  0  0  0  0  0  0  0  0  0
    2.6412    2.6485   18.1721 H   0  0  0  0  0  0  0  0  0  0  0  0
    4.1999    1.3991   16.6992 H   0  0  0  0  0  0  0  0  0  0  0  0
    7.2814   -0.8677   18.2570 H   0  0  0  0  0  0  0  0  0  0  0  0
    6.8745   -1.8024   21.2590 C   0  0  0  0  0  0  0  0  0  0  0  0
    7.9845   -1.9464   22.2892 C   0  0  2  0  0  0  0  0  0  0  0  0
    7.7274   -3.0708   23.3148 C   0  0  0  0  0  0  0  0  0  0  0  0
    7.6415   -4.3888   22.7181 N   0  0  0  0  0  0  0  0  0  0  0  0
    6.5417   -5.0459   22.3395 C   0  0  0  0  0  0  0  0  0  0  0  0
    5.3595   -4.5174   22.7025 N   0  0  0  0  0  0  0  0  0  0  0  0
    4.3228   -5.2544   22.3403 C   0  0  0  0  0  0  0  0  0  0  0  0
    4.3317   -6.4110   21.6950 N   0  0  0  0  0  0  0  0  0  0  0  0
    5.5634   -6.7895   21.3611 C   0  0  0  0  0  0  0  0  0  0  0  0
    6.7077   -6.1981   21.6502 N   0  0  0  0  0  0  0  0  0  0  0  0
    5.6090   -7.6962   20.7958 H   0  0  0  0  0  0  0  0  0  0  0  0
    3.3477   -4.8891   22.5863 H   0  0  0  0  0  0  0  0  0  0  0  0
    8.5191   -4.7414   22.4100 H   0  0  0  0  0  0  0  0  0  0  0  0
    6.8050   -2.8879   23.8455 H   0  0  0  0  0  0  0  0  0  0  0  0
    8.5187   -3.0278   24.0783 H   0  0  0  0  0  0  0  0  0  0  0  0
    8.9218   -2.1933   21.7716 H   0  0  0  0  0  0  0  0  0  0  0  0
    7.0362   -2.4510   20.4122 H   0  0  0  0  0  0  0  0  0  0  0  0
    5.8997   -2.0749   21.6737 H   0  0  0  0  0  0  0  0  0  0  0  0
   10.1877    0.0778   21.0259 H   0  0  0  0  0  0  0  0  0  0  0  0
   13.4645    0.3940   23.7253 H   0  0  0  0  0  0  0  0  0  0  0  0
   11.8580    0.2506   25.6382 H   0  0  0  0  0  0  0  0  0  0  0  0
  1  2  2  0
  2  3  1  0
  3  4  2  0
  4  5  1  0
  5  6  2  0
  6  7  1  0
  6  8  1  0
  8  9  2  0
  9 10  1  0
 10 11  1  1
 11 12  1  0
 12 13  1  0
 13 14  1  0
 14 15  2  0
 15 16  1  0
 16 17  2  0
 17 18  1  0
 17 19  1  0
 13 20  1  0
 13 21  1  0
 11 22  1  0
 11 23  1  0
 10 24  1  0
 24 25  2  0
 24 26  1  0
 26 27  1  0
 27 28  2  0
 28 29  1  0
 29 30  2  0
 30 31  1  0
 31 32  2  0
 32 33  1  0
 33 34  2  0
 34 35  1  0
 35 36  2  0
 35 37  1  0
 34 38  1  0
 33 39  1  0
 32 40  1  0
 30 41  1  0
 28 42  1  0
 26 43  1  0
 43 44  1  0
 44 45  1  0
 45 46  1  0
 46 47  1  0
 47 48  2  0
 48 49  1  0
 49 50  2  0
 50 51  1  0
 51 52  2  0
 51 53  1  0
 49 54  1  0
 46 55  1  0
 45 56  1  0
 45 57  1  0
 44 58  1  6
 43 59  1  0
 43 60  1  0
  8 61  1  0
  5 62  1  0
  4 63  1  0
 12  2  1  0
 18 14  1  0
 36 27  1  0
 52 47  1  0
  9  3  1  0
 44 10  1  0
 36 31  1  0
M  END
>  <cnnaffinities>  (1) 
[6.39252]

>  <score>  (1) 
6.39252

>  <index>  (1) 
0

>  <Smiles>  (1) 
O=C1c2c(c(c(Cl)c(c2[C@@]2(C(N1C(c1nnc(o1)[H])([H])[H])([H])[H])C(=O)N(c1c(nc(c3c(c(c(c(c13)[H])[H])[H])[H])[H])[H])C([C@@]2(C(N(c1nc(nc(n1)[H])[H])[H])([H])[H])[H])([H])[H])[H])[H])[H]

>  <h>  (1) 
<NA>

>  <Training>  (1) 
True

>  <Success>  (1) 
True

>  <enamine_searched>  (1) 
False

>  <enamine_id>  (1) 
nan

$$$$

     RDKit          3D

 51 54  0  0  0  0  0  0  0  0999 V2000
   13.2448   -2.3855   23.8092 C   0  0  0  0  0  0  0  0  0  0  0  0
   12.0946   -1.7519   24.3229 O   0  0  0  0  0  0  0  0  0  0  0  0
   10.9325   -1.9727   23.6481 C   0  0  0  0  0  0  0  0  0  0  0  0
   10.8046   -2.8748   22.5978 C   0  0  0  0  0  0  0  0  0  0  0  0
    9.5547   -3.1102   22.0247 C   0  0  0  0  0  0  0  0  0  0  0  0
    8.4455   -2.4003   22.4651 C   0  0  0  0  0  0  0  0  0  0  0  0
    7.1508   -2.7170   21.9610 N   0  0  0  0  0  0  0  0  0  0  0  0
    6.5787   -3.9964   22.3623 C   0  0  0  0  0  0  0  0  0  0  0  0
    6.0431   -3.9692   23.7795 C   0  0  0  0  0  0  0  0  0  0  0  0
    4.6808   -3.8024   24.0241 C   0  0  0  0  0  0  0  0  0  0  0  0
    4.2025   -3.8058   25.3292 C   0  0  0  0  0  0  0  0  0  0  0  0
    5.0659   -4.0060   26.3983 C   0  0  0  0  0  0  0  0  0  0  0  0
    6.4244   -4.1625   26.1441 C   0  0  0  0  0  0  0  0  0  0  0  0
    7.5068   -4.4725   27.4719 Cl  0  0  0  0  0  0  0  0  0  0  0  0
    6.9256   -4.0992   24.8516 C   0  0  0  0  0  0  0  0  0  0  0  0
    7.9960   -4.1883   24.6705 H   0  0  0  0  0  0  0  0  0  0  0  0
    4.6958   -4.0405   27.4190 H   0  0  0  0  0  0  0  0  0  0  0  0
    3.1377   -3.7033   25.5125 H   0  0  0  0  0  0  0  0  0  0  0  0
    3.9926   -3.6628   23.1934 H   0  0  0  0  0  0  0  0  0  0  0  0
    5.7864   -4.2149   21.6476 H   0  0  0  0  0  0  0  0  0  0  0  0
    7.3491   -4.7707   22.2670 H   0  0  0  0  0  0  0  0  0  0  0  0
    6.2921   -1.7886   21.4185 C   0  0  0  0  0  0  0  0  0  0  0  0
    5.0932   -1.9955   21.3327 O   0  0  0  0  0  0  0  0  0  0  0  0
    6.9310   -0.5088   20.8713 C   0  0  0  0  0  0  0  0  0  0  0  0
    6.1244    0.0812   19.7538 C   0  0  0  0  0  0  0  0  0  0  0  0
    6.4341   -0.2242   18.4536 C   0  0  0  0  0  0  0  0  0  0  0  0
    5.7687    0.2223   17.3571 N   0  0  0  0  0  0  0  0  0  0  0  0
    4.7490    1.0164   17.5717 C   0  0  0  0  0  0  0  0  0  0  0  0
    4.2972    1.4025   18.8637 C   0  0  0  0  0  0  0  0  0  0  0  0
    3.1827    2.2622   19.0378 C   0  0  0  0  0  0  0  0  0  0  0  0
    2.7643    2.6111   20.2919 C   0  0  0  0  0  0  0  0  0  0  0  0
    3.4436    2.1145   21.4277 C   0  0  0  0  0  0  0  0  0  0  0  0
    4.5260    1.2827   21.2859 C   0  0  0  0  0  0  0  0  0  0  0  0
    4.9903    0.9122   19.9938 C   0  0  0  0  0  0  0  0  0  0  0  0
    5.0266    0.8969   22.1698 H   0  0  0  0  0  0  0  0  0  0  0  0
    3.1078    2.4058   22.4198 H   0  0  0  0  0  0  0  0  0  0  0  0
    1.9110    3.2715   20.4257 H   0  0  0  0  0  0  0  0  0  0  0  0
    2.6771    2.6436   18.1536 H   0  0  0  0  0  0  0  0  0  0  0  0
    4.2111    1.3952   16.7009 H   0  0  0  0  0  0  0  0  0  0  0  0
    7.2801   -0.8778   18.2425 H   0  0  0  0  0  0  0  0  0  0  0  0
    7.9433   -0.7623   20.5318 H   0  0  0  0  0  0  0  0  0  0  0  0
    7.0426    0.2052   21.6986 H   0  0  0  0  0  0  0  0  0  0  0  0
    8.5905   -1.4389   23.4654 C   0  0  0  0  0  0  0  0  0  0  0  0
    9.8276   -1.2254   24.0539 C   0  0  0  0  0  0  0  0  0  0  0  0
   10.0004   -0.4556   24.7936 H   0  0  0  0  0  0  0  0  0  0  0  0
    7.7264   -0.8726   23.8085 H   0  0  0  0  0  0  0  0  0  0  0  0
    9.4465   -3.8345   21.2198 H   0  0  0  0  0  0  0  0  0  0  0  0
   11.6624   -3.3831   22.1851 H   0  0  0  0  0  0  0  0  0  0  0  0
   14.0885   -1.8063   24.1662 H   0  0  0  0  0  0  0  0  0  0  0  0
   13.3276   -3.4352   24.1112 H   0  0  0  0  0  0  0  0  0  0  0  0
   13.2376   -2.3644   22.7267 H   0  0  0  0  0  0  0  0  0  0  0  0
  1  2  1  0
  2  3  1  0
  3  4  2  0
  4  5  1  0
  5  6  2  0
  6  7  1  0
  7  8  1  0
  8  9  1  0
  9 10  2  0
 10 11  1  0
 11 12  2  0
 12 13  1  0
 13 14  1  0
 13 15  2  0
 15 16  1  0
 12 17  1  0
 11 18  1  0
 10 19  1  0
  8 20  1  0
  8 21  1  0
  7 22  1  0
 22 23  2  0
 22 24  1  0
 24 25  1  0
 25 26  2  0
 26 27  1  0
 27 28  2  0
 28 29  1  0
 29 30  2  0
 30 31  1  0
 31 32  2  0
 32 33  1  0
 33 34  2  0
 33 35  1  0
 32 36  1  0
 31 37  1  0
 30 38  1  0
 28 39  1  0
 26 40  1  0
 24 41  1  0
 24 42  1  0
  6 43  1  0
 43 44  2  0
 44 45  1  0
 43 46  1  0
  5 47  1  0
  4 48  1  0
  1 49  1  0
  1 50  1  0
  1 51  1  0
 44  3  1  0
 15  9  1  0
 34 25  1  0
 34 29  1  0
M  END
>  <cnnaffinities>  (2) 
[6.25251]

>  <score>  (2) 
6.25251

>  <index>  (2) 
1

>  <Smiles>  (2) 
C(Oc1c(c(c(N(C(c2c(c(c(c(Cl)c2[H])[H])[H])[H])([H])[H])C(=O)C(c2c(nc(c3c(c(c(c(c23)[H])[H])[H])[H])[H])[H])([H])[H])c(c1[H])[H])[H])[H])([H])([H])[H]

>  <h>  (2) 
<NA>

>  <Training>  (2) 
True

>  <Success>  (2) 
True

>  <enamine_searched>  (2) 
False

>  <enamine_id>  (2) 
nan

$$$$

     RDKit          3D

 56 60  0  0  0  0  0  0  0  0999 V2000
   13.8671   -0.1984   23.9480 C   0  0  0  0  0  0  0  0  0  0  0  0
   12.9801   -1.3036   23.6465 N   0  0  0  0  0  0  0  0  0  0  0  0
   12.3823   -1.2796   22.4258 C   0  0  0  0  0  0  0  0  0  0  0  0
   12.1626   -0.2123   21.8616 O   0  0  0  0  0  0  0  0  0  0  0  0
   11.8754   -2.5933   21.8552 C   0  0  0  0  0  0  0  0  0  0  0  0
   10.5054   -2.8040   22.2971 N   0  0  0  0  0  0  0  0  0  0  0  0
    9.3797   -2.5077   21.4289 C   0  0  0  0  0  0  0  0  0  0  0  0
    8.1901   -1.8791   22.1848 C   0  0  2  0  0  0  0  0  0  0  0  0
    7.0265   -1.7495   21.1884 C   0  0  0  0  0  0  0  0  0  0  0  0
    6.3369   -2.6412   20.7387 O   0  0  0  0  0  0  0  0  0  0  0  0
    6.8648   -0.4163   20.8656 N   0  0  0  0  0  0  0  0  0  0  0  0
    6.0890    0.0173   19.7689 C   0  0  0  0  0  0  0  0  0  0  0  0
    6.4243   -0.3153   18.4798 C   0  0  0  0  0  0  0  0  0  0  0  0
    5.7921    0.1777   17.3848 N   0  0  0  0  0  0  0  0  0  0  0  0
    4.7971    1.0099   17.5842 C   0  0  0  0  0  0  0  0  0  0  0  0
    4.3299    1.4090   18.8707 C   0  0  0  0  0  0  0  0  0  0  0  0
    3.2230    2.2791   19.0423 C   0  0  0  0  0  0  0  0  0  0  0  0
    2.8000    2.6174   20.2995 C   0  0  0  0  0  0  0  0  0  0  0  0
    3.4655    2.1158   21.4399 C   0  0  0  0  0  0  0  0  0  0  0  0
    4.5442    1.2778   21.2993 C   0  0  0  0  0  0  0  0  0  0  0  0
    4.9955    0.9057   20.0036 C   0  0  0  0  0  0  0  0  0  0  0  0
    5.0533    0.8819   22.1714 H   0  0  0  0  0  0  0  0  0  0  0  0
    3.1227    2.3945   22.4316 H   0  0  0  0  0  0  0  0  0  0  0  0
    1.9460    3.2752   20.4278 H   0  0  0  0  0  0  0  0  0  0  0  0
    2.7281    2.6616   18.1557 H   0  0  0  0  0  0  0  0  0  0  0  0
    4.2961    1.4040   16.7016 H   0  0  0  0  0  0  0  0  0  0  0  0
    7.2501   -0.9962   18.2830 H   0  0  0  0  0  0  0  0  0  0  0  0
    7.8414    0.4679   21.4662 C   0  0  0  0  0  0  0  0  0  0  0  0
    8.3701   -0.3846   22.6209 C   0  0  2  0  0  0  0  0  0  0  0  0
    9.7482   -0.0060   23.0215 N   0  0  0  0  0  4  0  0  0  0  0  0
   10.1092   -0.7208   23.6820 H   0  0  0  0  0  0  0  0  0  0  0  0
   10.3928    0.0317   22.1924 H   0  0  0  0  0  0  0  0  0  0  0  0
    9.7786    0.9171   23.5004 H   0  0  0  0  0  0  0  0  0  0  0  0
    7.7047   -0.2409   23.4730 H   0  0  0  0  0  0  0  0  0  0  0  0
    8.6468    0.7252   20.7596 H   0  0  0  0  0  0  0  0  0  0  0  0
    7.3748    1.4087   21.7876 H   0  0  0  0  0  0  0  0  0  0  0  0
    7.8967   -2.7984   23.3525 C   0  0  0  0  0  0  0  0  0  0  0  0
    6.6031   -2.8962   23.8742 C   0  0  0  0  0  0  0  0  0  0  0  0
    6.3736   -3.6698   24.9993 C   0  0  0  0  0  0  0  0  0  0  0  0
    4.7521   -3.7858   25.6302 Cl  0  0  0  0  0  0  0  0  0  0  0  0
    7.3995   -4.3826   25.6178 C   0  0  0  0  0  0  0  0  0  0  0  0
    8.6793   -4.2884   25.1026 C   0  0  0  0  0  0  0  0  0  0  0  0
    8.9302   -3.5067   23.9811 C   0  0  0  0  0  0  0  0  0  0  0  0
   10.3392   -3.4142   23.5033 C   0  0  0  0  0  0  0  0  0  0  0  0
   11.2944   -3.7864   24.1861 O   0  0  0  0  0  0  0  0  0  0  0  0
    9.5098   -4.8110   25.5611 H   0  0  0  0  0  0  0  0  0  0  0  0
    7.1788   -5.0246   26.4633 H   0  0  0  0  0  0  0  0  0  0  0  0
    5.7721   -2.4036   23.3808 H   0  0  0  0  0  0  0  0  0  0  0  0
    9.7115   -1.8486   20.6239 H   0  0  0  0  0  0  0  0  0  0  0  0
    9.0038   -3.4400   21.0011 H   0  0  0  0  0  0  0  0  0  0  0  0
   12.5066   -3.4112   22.2098 H   0  0  0  0  0  0  0  0  0  0  0  0
   11.9290   -2.5284   20.7638 H   0  0  0  0  0  0  0  0  0  0  0  0
   13.1870   -2.1999   24.0539 H   0  0  0  0  0  0  0  0  0  0  0  0
   13.3416    0.7564   23.9407 H   0  0  0  0  0  0  0  0  0  0  0  0
   14.6024   -0.1131   23.1477 H   0  0  0  0  0  0  0  0  0  0  0  0
   14.3367   -0.3554   24.9203 H   0  0  0  0  0  0  0  0  0  0  0  0
  1  2  1  0
  2  3  1  0
  3  4  2  0
  3  5  1  0
  5  6  1  0
  6  7  1  0
  8  7  1  6
  8  9  1  0
  9 10  2  0
  9 11  1  0
 11 12  1  0
 12 13  2  0
 13 14  1  0
 14 15  2  0
 15 16  1  0
 16 17  2  0
 17 18  1  0
 18 19  2  0
 19 20  1  0
 20 21  2  0
 20 22  1  0
 19 23  1  0
 18 24  1  0
 17 25  1  0
 15 26  1  0
 13 27  1  0
 11 28  1  0
 28 29  1  0
 29 30  1  0
 30 31  1  0
 30 32  1  0
 30 33  1  0
 29 34  1  1
 28 35  1  0
 28 36  1  0
  8 37  1  0
 37 38  2  0
 38 39  1  0
 39 40  1  0
 39 41  2  0
 41 42  1  0
 42 43  2  0
 43 44  1  0
 44 45  2  0
 42 46  1  0
 41 47  1  0
 38 48  1  0
  7 49  1  0
  7 50  1  0
  5 51  1  0
  5 52  1  0
  2 53  1  0
  1 54  1  0
  1 55  1  0
  1 56  1  0
 44  6  1  0
 29  8  1  0
 43 37  1  0
 21 12  1  0
 21 16  1  0
M  CHG  1  30   1
M  END
>  <cnnaffinities>  (3) 
[6.49775]

>  <score>  (3) 
6.49775

>  <index>  (3) 
2

>  <Smiles>  (3) 
C(N(C(=O)C(N1C([C@@]2(C(=O)N(c3c(nc(c4c(c(c(c(c34)[H])[H])[H])[H])[H])[H])C([C@@]2([N+]([H])([H])[H])[H])([H])[H])c2c(c(Cl)c(c(c2C1=O)[H])[H])[H])([H])[H])([H])[H])[H])([H])([H])[H]

>  <h>  (3) 
<NA>

>  <Training>  (3) 
True

>  <Success>  (3) 
True

>  <enamine_searched>  (3) 
False

>  <enamine_id>  (3) 
nan

$$$$

     RDKit          3D

 67 73  0  0  0  0  0  0  0  0999 V2000
    9.0614   -1.4091   26.4815 O   0  0  0  0  0  0  0  0  0  0  0  0
    8.7429   -0.8776   25.4205 C   0  0  0  0  0  0  0  0  0  0  0  0
    9.7504   -0.3689   24.4396 C   0  0  0  0  0  0  0  0  0  0  0  0
   11.0092   -0.0420   24.9087 C   0  0  0  0  0  0  0  0  0  0  0  0
   12.0340    0.2783   24.0448 C   0  0  0  0  0  0  0  0  0  0  0  0
   11.7744    0.2117   22.6769 C   0  0  0  0  0  0  0  0  0  0  0  0
   13.0979    0.4655   21.5957 Cl  0  0  0  0  0  0  0  0  0  0  0  0
   10.5076   -0.0589   22.1800 C   0  0  0  0  0  0  0  0  0  0  0  0
    9.4545   -0.2620   23.0792 C   0  0  0  0  0  0  0  0  0  0  0  0
    8.0357   -0.4761   22.6265 C   0  0  1  0  0  0  0  0  0  0  0  0
    7.0771   -0.0865   23.7907 C   0  0  0  0  0  0  0  0  0  0  0  0
    7.4442   -0.7052   25.0545 N   0  0  0  0  0  0  0  0  0  0  0  0
    6.4237   -0.9789   26.0596 C   0  0  0  0  0  0  0  0  0  0  0  0
    6.1846    0.1617   27.0295 C   0  0  0  0  0  0  0  0  0  0  0  0
    6.9408    0.3262   28.1702 C   0  0  0  0  0  0  0  0  0  0  0  0
    6.6712    1.4335   28.9711 C   0  0  0  0  0  0  0  0  0  0  0  0
    5.7192    2.3200   28.7057 N   0  0  0  0  0  0  0  0  0  0  0  0
    4.9777    2.1633   27.6178 N   0  0  0  0  0  0  0  0  0  0  0  0
    5.1928    1.1279   26.8161 C   0  0  0  0  0  0  0  0  0  0  0  0
    4.5230    1.0762   25.9578 H   0  0  0  0  0  0  0  0  0  0  0  0
    7.2348    1.6182   29.8829 H   0  0  0  0  0  0  0  0  0  0  0  0
    7.7229   -0.3774   28.4436 H   0  0  0  0  0  0  0  0  0  0  0  0
    6.7654   -1.8599   26.6079 H   0  0  0  0  0  0  0  0  0  0  0  0
    5.4965   -1.2292   25.5356 H   0  0  0  0  0  0  0  0  0  0  0  0
    7.0550    1.0094   23.8889 H   0  0  0  0  0  0  0  0  0  0  0  0
    6.0606   -0.4143   23.5378 H   0  0  0  0  0  0  0  0  0  0  0  0
    7.6135    0.3236   21.3801 C   0  0  0  0  0  0  0  0  0  0  0  0
    7.8853    1.4688   21.0874 O   0  0  0  0  0  0  0  0  0  0  0  0
    6.7838   -0.4851   20.6196 N   0  0  0  0  0  0  0  0  0  0  0  0
    5.9984    0.0529   19.5625 C   0  0  0  0  0  0  0  0  0  0  0  0
    6.2810   -0.2565   18.2556 C   0  0  0  0  0  0  0  0  0  0  0  0
    5.6211    0.2513   17.1808 N   0  0  0  0  0  0  0  0  0  0  0  0
    4.6352    1.0881   17.4062 C   0  0  0  0  0  0  0  0  0  0  0  0
    4.1996    1.4613   18.7123 C   0  0  0  0  0  0  0  0  0  0  0  0
    3.0996    2.3410   18.9222 C   0  0  0  0  0  0  0  0  0  0  0  0
    2.7032    2.6642   20.1922 C   0  0  0  0  0  0  0  0  0  0  0  0
    3.3824    2.1252   21.3085 C   0  0  0  0  0  0  0  0  0  0  0  0
    4.4474    1.2784   21.1337 C   0  0  0  0  0  0  0  0  0  0  0  0
    4.8921    0.9289   19.8265 C   0  0  0  0  0  0  0  0  0  0  0  0
    4.9643    0.8693   21.9968 H   0  0  0  0  0  0  0  0  0  0  0  0
    3.0672    2.3914   22.3120 H   0  0  0  0  0  0  0  0  0  0  0  0
    1.8614    3.3340   20.3537 H   0  0  0  0  0  0  0  0  0  0  0  0
    2.5870    2.7561   18.0562 H   0  0  0  0  0  0  0  0  0  0  0  0
    4.1219    1.5107   16.5374 H   0  0  0  0  0  0  0  0  0  0  0  0
    7.0990   -0.9372   18.0202 H   0  0  0  0  0  0  0  0  0  0  0  0
    6.6192   -1.8266   21.1677 C   0  0  0  0  0  0  0  0  0  0  0  0
    7.8345   -1.9276   22.0979 C   0  0  2  0  0  0  0  0  0  0  0  0
    7.8429   -3.0223   23.1789 C   0  0  0  0  0  0  0  0  0  0  0  0
    7.9479   -4.3736   22.6713 N   0  0  0  0  0  0  0  0  0  0  0  0
    6.8818   -5.0407   22.1604 C   0  0  0  0  0  0  0  0  0  0  0  0
    5.5581   -4.7849   22.5736 C   0  0  0  0  0  0  0  0  0  0  0  0
    4.5949   -5.5940   22.0096 C   0  0  0  0  0  0  0  0  0  0  0  0
    4.8734   -6.5444   21.1077 N   0  0  0  0  0  0  0  0  0  0  0  0
    6.1451   -6.6767   20.7796 C   0  0  0  0  0  0  0  0  0  0  0  0
    7.1752   -6.0046   21.2718 N   0  0  0  0  0  0  0  0  0  0  0  0
    6.3681   -7.4046   19.9947 H   0  0  0  0  0  0  0  0  0  0  0  0
    3.5410   -5.4783   22.2675 H   0  0  0  0  0  0  0  0  0  0  0  0
    5.2900   -4.0151   23.2966 H   0  0  0  0  0  0  0  0  0  0  0  0
    8.8078   -4.6105   22.1910 H   0  0  0  0  0  0  0  0  0  0  0  0
    6.9515   -2.9590   23.8048 H   0  0  0  0  0  0  0  0  0  0  0  0
    8.7023   -2.8810   23.8438 H   0  0  0  0  0  0  0  0  0  0  0  0
    8.7033   -2.1091   21.4530 H   0  0  0  0  0  0  0  0  0  0  0  0
    5.6778   -1.9310   21.7314 H   0  0  0  0  0  0  0  0  0  0  0  0
    6.5962   -2.5639   20.3647 H   0  0  0  0  0  0  0  0  0  0  0  0
   10.3160   -0.1090   21.1121 H   0  0  0  0  0  0  0  0  0  0  0  0
   13.0139    0.5750   24.4062 H   0  0  0  0  0  0  0  0  0  0  0  0
   11.1327   -0.0400   25.9758 H   0  0  0  0  0  0  0  0  0  0  0  0
  1  2  2  0
  2  3  1  0
  3  4  2  0
  4  5  1  0
  5  6  2  0
  6  7  1  0
  6  8  1  0
  8  9  2  0
  9 10  1  0
 10 11  1  1
 11 12  1  0
 12 13  1  0
 13 14  1  0
 14 15  2  0
 15 16  1  0
 16 17  2  0
 17 18  1  0
 18 19  2  0
 19 20  1  0
 16 21  1  0
 15 22  1  0
 13 23  1  0
 13 24  1  0
 11 25  1  0
 11 26  1  0
 10 27  1  0
 27 28  2  0
 27 29  1  0
 29 30  1  0
 30 31  2  0
 31 32  1  0
 32 33  2  0
 33 34  1  0
 34 35  2  0
 35 36  1  0
 36 37  2  0
 37 38  1  0
 38 39  2  0
 38 40  1  0
 37 41  1  0
 36 42  1  0
 35 43  1  0
 33 44  1  0
 31 45  1  0
 29 46  1  0
 46 47  1  0
 47 48  1  0
 48 49  1  0
 49 50  1  0
 50 51  2  0
 51 52  1  0
 52 53  2  0
 53 54  1  0
 54 55  2  0
 54 56  1  0
 52 57  1  0
 51 58  1  0
 49 59  1  0
 48 60  1  0
 48 61  1  0
 47 62  1  6
 46 63  1  0
 46 64  1  0
  8 65  1  0
  5 66  1  0
  4 67  1  0
 12  2  1  0
 19 14  1  0
 39 30  1  0
 55 50  1  0
  9  3  1  0
 47 10  1  0
 39 34  1  0
M  END
>  <cnnaffinities>  (4) 
[6.28233]

>  <score>  (4) 
6.28233

>  <index>  (4) 
3

>  <Smiles>  (4) 
O=C1c2c(c(c(Cl)c(c2[C@@]2(C(N1C(c1c(c(nnc1[H])[H])[H])([H])[H])([H])[H])C(=O)N(c1c(nc(c3c(c(c(c(c13)[H])[H])[H])[H])[H])[H])C([C@@]2(C(N(c1c(c(nc(n1)[H])[H])[H])[H])([H])[H])[H])([H])[H])[H])[H])[H]

>  <h>  (4) 
<NA>

>  <Training>  (4) 
True

>  <Success>  (4) 
True

>  <enamine_searched>  (4) 
False

>  <enamine_id>  (4) 
nan

$$$$

     RDKit          3D

 41 44  0  0  0  0  0  0  0  0999 V2000
    7.1639   -0.0210   24.5755 C   0  0  0  0  0  0  0  0  0  0  0  0
    7.3846   -1.3201   23.8056 C   0  0  1  0  0  0  0  0  0  0  0  0
    7.7772   -2.4384   24.7412 C   0  0  0  0  0  0  0  0  0  0  0  0
    9.0145   -2.5093   25.4529 C   0  0  0  0  0  0  0  0  0  0  0  0
    9.0741   -3.6212   26.2362 C   0  0  0  0  0  0  0  0  0  0  0  0
    7.6506   -4.5759   26.1545 S   0  0  0  0  0  0  0  0  0  0  0  0
    6.9522   -3.4861   25.0127 C   0  0  0  0  0  0  0  0  0  0  0  0
    5.6280   -3.6978   24.3522 C   0  0  0  0  0  0  0  0  0  0  0  0
    5.1452   -2.3885   23.7352 C   0  0  0  0  0  0  0  0  0  0  0  0
    6.2158   -1.7017   23.0083 N   0  0  0  0  0  0  0  0  0  0  0  0
    6.1552   -1.6293   21.6275 C   0  0  0  0  0  0  0  0  0  0  0  0
    5.4817   -2.4040   20.9742 O   0  0  0  0  0  0  0  0  0  0  0  0
    6.9171   -0.4879   20.9136 C   0  0  0  0  0  0  0  0  0  0  0  0
    6.1180    0.0907   19.7654 C   0  0  0  0  0  0  0  0  0  0  0  0
    6.4219   -0.2147   18.4624 C   0  0  0  0  0  0  0  0  0  0  0  0
    5.7565    0.2355   17.3631 N   0  0  0  0  0  0  0  0  0  0  0  0
    4.7359    1.0312   17.5745 C   0  0  0  0  0  0  0  0  0  0  0  0
    4.2875    1.4231   18.8680 C   0  0  0  0  0  0  0  0  0  0  0  0
    3.1648    2.2751   19.0433 C   0  0  0  0  0  0  0  0  0  0  0  0
    2.7501    2.6278   20.3001 C   0  0  0  0  0  0  0  0  0  0  0  0
    3.4413    2.1403   21.4315 C   0  0  0  0  0  0  0  0  0  0  0  0
    4.5315    1.3160   21.2874 C   0  0  0  0  0  0  0  0  0  0  0  0
    4.9902    0.9378   19.9964 C   0  0  0  0  0  0  0  0  0  0  0  0
    5.0451    0.9501   22.1707 H   0  0  0  0  0  0  0  0  0  0  0  0
    3.1062    2.4266   22.4233 H   0  0  0  0  0  0  0  0  0  0  0  0
    1.8934    3.2826   20.4365 H   0  0  0  0  0  0  0  0  0  0  0  0
    2.6444    2.6461   18.1632 H   0  0  0  0  0  0  0  0  0  0  0  0
    4.1993    1.4000   16.6989 H   0  0  0  0  0  0  0  0  0  0  0  0
    7.2659   -0.8678   18.2456 H   0  0  0  0  0  0  0  0  0  0  0  0
    7.8461   -0.9136   20.5148 H   0  0  0  0  0  0  0  0  0  0  0  0
    7.2072    0.3112   21.6089 H   0  0  0  0  0  0  0  0  0  0  0  0
    4.3132   -2.5665   23.0520 H   0  0  0  0  0  0  0  0  0  0  0  0
    4.7706   -1.7369   24.5353 H   0  0  0  0  0  0  0  0  0  0  0  0
    5.7356   -4.4446   23.5577 H   0  0  0  0  0  0  0  0  0  0  0  0
    4.8872   -4.0990   25.0537 H   0  0  0  0  0  0  0  0  0  0  0  0
    9.8787   -3.9922   26.8382 H   0  0  0  0  0  0  0  0  0  0  0  0
    9.8152   -1.7753   25.3721 H   0  0  0  0  0  0  0  0  0  0  0  0
    8.2269   -1.1763   23.1175 H   0  0  0  0  0  0  0  0  0  0  0  0
    8.0857    0.2854   25.0739 H   0  0  0  0  0  0  0  0  0  0  0  0
    6.4002   -0.1655   25.3434 H   0  0  0  0  0  0  0  0  0  0  0  0
    6.8448    0.7843   23.9104 H   0  0  0  0  0  0  0  0  0  0  0  0
  1  2  1  0
  2  3  1  0
  3  4  1  0
  4  5  2  0
  5  6  1  0
  6  7  1  0
  7  8  1  0
  8  9  1  0
  9 10  1  0
 10 11  1  0
 11 12  2  0
 11 13  1  0
 13 14  1  0
 14 15  2  0
 15 16  1  0
 16 17  2  0
 17 18  1  0
 18 19  2  0
 19 20  1  0
 20 21  2  0
 21 22  1  0
 22 23  2  0
 22 24  1  0
 21 25  1  0
 20 26  1  0
 19 27  1  0
 17 28  1  0
 15 29  1  0
 13 30  1  0
 13 31  1  0
  9 32  1  0
  9 33  1  0
  8 34  1  0
  8 35  1  0
  5 36  1  0
  4 37  1  0
  2 38  1  6
  1 39  1  0
  1 40  1  0
  1 41  1  0
 10  2  1  0
 23 14  1  0
  7  3  2  0
 23 18  1  0
M  END
>  <cnnaffinities>  (5) 
[5.41727, 5.44657, 5.8713]

>  <score>  (5) 
5.41727

>  <index>  (5) 
4

>  <Smiles>  (5) 
C([C@]1(c2c(c(sc2C(C(N1C(=O)C(c1c(nc(c2c(c(c(c(c12)[H])[H])[H])[H])[H])[H])([H])[H])([H])[H])([H])[H])[H])[H])[H])([H])([H])[H]

>  <h>  (5) 
<NA>

>  <Training>  (5) 
True

>  <Success>  (5) 
True

>  <enamine_searched>  (5) 
False

>  <enamine_id>  (5) 
nan

$$$$

     RDKit          3D

 50 54  0  0  0  0  0  0  0  0999 V2000
    9.8174    0.1295   23.0375 C   0  0  0  0  0  0  0  0  0  0  0  0
    8.4293   -0.3298   22.6157 C   0  0  1  0  0  0  0  0  0  0  0  0
    7.8709    0.4906   21.4439 C   0  0  0  0  0  0  0  0  0  0  0  0
    6.9017   -0.4058   20.8463 N   0  0  0  0  0  0  0  0  0  0  0  0
    6.0977    0.0206   19.7561 C   0  0  0  0  0  0  0  0  0  0  0  0
    6.4145   -0.3065   18.4605 C   0  0  0  0  0  0  0  0  0  0  0  0
    5.7674    0.1804   17.3685 N   0  0  0  0  0  0  0  0  0  0  0  0
    4.7727    1.0114   17.5710 C   0  0  0  0  0  0  0  0  0  0  0  0
    4.3157    1.4139   18.8598 C   0  0  0  0  0  0  0  0  0  0  0  0
    3.2085    2.2885   19.0350 C   0  0  0  0  0  0  0  0  0  0  0  0
    2.7883    2.6287   20.2928 C   0  0  0  0  0  0  0  0  0  0  0  0
    3.4597    2.1223   21.4285 C   0  0  0  0  0  0  0  0  0  0  0  0
    4.5399    1.2852   21.2815 C   0  0  0  0  0  0  0  0  0  0  0  0
    4.9960    0.9092   19.9901 C   0  0  0  0  0  0  0  0  0  0  0  0
    5.0504    0.8897   22.1521 H   0  0  0  0  0  0  0  0  0  0  0  0
    3.1154    2.3964   22.4221 H   0  0  0  0  0  0  0  0  0  0  0  0
    1.9303    3.2830   20.4256 H   0  0  0  0  0  0  0  0  0  0  0  0
    2.7016    2.6702   18.1515 H   0  0  0  0  0  0  0  0  0  0  0  0
    4.2672    1.4009   16.6867 H   0  0  0  0  0  0  0  0  0  0  0  0
    7.2389   -0.9850   18.2551 H   0  0  0  0  0  0  0  0  0  0  0  0
    7.1166   -1.7372   21.1580 C   0  0  0  0  0  0  0  0  0  0  0  0
    6.4525   -2.6450   20.7069 O   0  0  0  0  0  0  0  0  0  0  0  0
    8.2854   -1.8331   22.1749 C   0  0  1  0  0  0  0  0  0  0  0  0
    9.5304   -2.3928   21.4399 C   0  0  0  0  0  0  0  0  0  0  0  0
   10.6498   -2.6549   22.3364 N   0  0  0  0  0  0  0  0  0  0  0  0
   12.0247   -2.2871   22.0378 C   0  0  0  0  0  0  0  0  0  0  0  0
   12.6079   -1.3333   23.0125 C   0  0  0  0  0  0  0  0  0  0  0  0
   13.0341   -0.6084   23.8118 N   0  0  0  0  0  0  0  0  0  0  0  0
   12.0830   -1.8584   21.0373 H   0  0  0  0  0  0  0  0  0  0  0  0
   12.6585   -3.1777   22.0670 H   0  0  0  0  0  0  0  0  0  0  0  0
   10.4496   -3.4194   23.4558 C   0  0  0  0  0  0  0  0  0  0  0  0
   11.3708   -3.9300   24.0733 O   0  0  0  0  0  0  0  0  0  0  0  0
    9.0300   -3.5133   23.9319 C   0  0  0  0  0  0  0  0  0  0  0  0
    8.7794   -4.3172   25.0450 C   0  0  0  0  0  0  0  0  0  0  0  0
    7.5004   -4.4430   25.5554 C   0  0  0  0  0  0  0  0  0  0  0  0
    6.4785   -3.7303   24.9414 C   0  0  0  0  0  0  0  0  0  0  0  0
    5.2356   -3.8310   25.4418 F   0  0  0  0  0  0  0  0  0  0  0  0
    6.6930   -2.9263   23.8383 C   0  0  0  0  0  0  0  0  0  0  0  0
    7.9908   -2.7881   23.3251 C   0  0  0  0  0  0  0  0  0  0  0  0
    5.8382   -2.4375   23.3832 H   0  0  0  0  0  0  0  0  0  0  0  0
    7.2754   -5.0959   26.3931 H   0  0  0  0  0  0  0  0  0  0  0  0
    9.6179   -4.8246   25.5116 H   0  0  0  0  0  0  0  0  0  0  0  0
    9.2309   -3.3294   20.9588 H   0  0  0  0  0  0  0  0  0  0  0  0
    9.8323   -1.7001   20.6548 H   0  0  0  0  0  0  0  0  0  0  0  0
    8.6514    0.7757   20.7170 H   0  0  0  0  0  0  0  0  0  0  0  0
    7.3865    1.4202   21.7642 H   0  0  0  0  0  0  0  0  0  0  0  0
    7.7328   -0.2135   23.4573 H   0  0  0  0  0  0  0  0  0  0  0  0
    9.8149    1.1681   23.3807 H   0  0  0  0  0  0  0  0  0  0  0  0
   10.5192    0.0753   22.1973 H   0  0  0  0  0  0  0  0  0  0  0  0
   10.2061   -0.4931   23.8474 H   0  0  0  0  0  0  0  0  0  0  0  0
  1  2  1  0
  2  3  1  0
  3  4  1  0
  4  5  1  0
  5  6  2  0
  6  7  1  0
  7  8  2  0
  8  9  1  0
  9 10  2  0
 10 11  1  0
 11 12  2  0
 12 13  1  0
 13 14  2  0
 13 15  1  0
 12 16  1  0
 11 17  1  0
 10 18  1  0
  8 19  1  0
  6 20  1  0
  4 21  1  0
 21 22  2  0
 21 23  1  0
 23 24  1  6
 24 25  1  0
 25 26  1  0
 26 27  1  0
 27 28  3  0
 26 29  1  0
 26 30  1  0
 25 31  1  0
 31 32  2  0
 31 33  1  0
 33 34  2  0
 34 35  1  0
 35 36  2  0
 36 37  1  0
 36 38  1  0
 38 39  2  0
 38 40  1  0
 35 41  1  0
 34 42  1  0
 24 43  1  0
 24 44  1  0
  3 45  1  0
  3 46  1  0
  2 47  1  1
  1 48  1  0
  1 49  1  0
  1 50  1  0
 23  2  1  0
 39 33  1  0
 14  5  1  0
 39 23  1  0
 14  9  1  0
M  END
>  <cnnaffinities>  (6) 
[6.60673]

>  <score>  (6) 
6.60673

>  <index>  (6) 
5

>  <Smiles>  (6) 
C([C@]1(C(N(c2c(nc(c3c(c(c(c(c23)[H])[H])[H])[H])[H])[H])C(=O)[C@]21C(N(C(C#N)([H])[H])C(=O)c1c(c(c(F)c(c21)[H])[H])[H])([H])[H])([H])[H])[H])([H])([H])[H]

>  <h>  (6) 
<NA>

>  <Training>  (6) 
True

>  <Success>  (6) 
True

>  <enamine_searched>  (6) 
False

>  <enamine_id>  (6) 
nan

$$$$

     RDKit          3D

 65 69  0  0  0  0  0  0  0  0999 V2000
    6.6180   -3.4133   29.7398 C   0  0  0  0  0  0  0  0  0  0  0  0
    7.7429   -3.4340   28.6951 C   0  0  0  0  0  0  0  0  0  0  0  0
    7.4533   -2.3124   27.7274 C   0  0  0  0  0  0  0  0  0  0  0  0
    7.5681   -1.1481   28.0065 O   0  0  0  0  0  0  0  0  0  0  0  0
    6.9206   -2.7072   26.3480 N   0  0  1  0  0  4  0  0  0  0  0  0
    5.3951   -2.4261   26.1667 C   0  0  0  0  0  0  0  0  0  0  0  0
    5.1853   -0.9514   25.8643 C   0  0  0  0  0  0  0  0  0  0  0  0
    5.8794   -0.5761   24.5508 C   0  0  0  0  0  0  0  0  0  0  0  0
    7.3309   -1.0243   24.4755 C   0  0  0  0  0  0  0  0  0  0  0  0
    8.2702   -0.4257   23.6079 C   0  0  0  0  0  0  0  0  0  0  0  0
    7.9179    0.7694   22.8800 N   0  0  0  0  0  0  0  0  0  0  0  0
    8.2530    2.0678   23.4868 C   0  0  0  0  0  0  0  0  0  0  0  0
    7.0850    3.0476   23.4727 C   0  0  0  0  0  0  0  0  0  0  0  0
    6.8414    3.8385   22.3475 C   0  0  0  0  0  0  0  0  0  0  0  0
    5.7467    4.6975   22.3090 C   0  0  0  0  0  0  0  0  0  0  0  0
    4.8769    4.7878   23.3933 C   0  0  0  0  0  0  0  0  0  0  0  0
    5.1363    4.0182   24.5178 C   0  0  0  0  0  0  0  0  0  0  0  0
    4.0411    4.0839   25.8733 Cl  0  0  0  0  0  0  0  0  0  0  0  0
    6.2352    3.1656   24.5752 C   0  0  0  0  0  0  0  0  0  0  0  0
    6.3954    2.5843   25.4776 H   0  0  0  0  0  0  0  0  0  0  0  0
    3.9944    5.4218   23.3700 H   0  0  0  0  0  0  0  0  0  0  0  0
    5.5554    5.2943   21.4171 H   0  0  0  0  0  0  0  0  0  0  0  0
    7.5095    3.7611   21.4937 H   0  0  0  0  0  0  0  0  0  0  0  0
    8.5423    1.8472   24.5217 H   0  0  0  0  0  0  0  0  0  0  0  0
    9.1005    2.5118   22.9435 H   0  0  0  0  0  0  0  0  0  0  0  0
    7.8134    0.7555   21.4926 C   0  0  0  0  0  0  0  0  0  0  0  0
    8.3098    1.6120   20.7863 O   0  0  0  0  0  0  0  0  0  0  0  0
    6.9914   -0.3928   20.8955 C   0  0  0  0  0  0  0  0  0  0  0  0
    6.1253    0.0972   19.7649 C   0  0  0  0  0  0  0  0  0  0  0  0
    6.4388   -0.2043   18.4682 C   0  0  0  0  0  0  0  0  0  0  0  0
    5.7638    0.2353   17.3689 N   0  0  0  0  0  0  0  0  0  0  0  0
    4.7428    1.0278   17.5828 C   0  0  0  0  0  0  0  0  0  0  0  0
    4.3007    1.4254   18.8704 C   0  0  0  0  0  0  0  0  0  0  0  0
    3.1889    2.2868   19.0465 C   0  0  0  0  0  0  0  0  0  0  0  0
    2.7775    2.6467   20.2975 C   0  0  0  0  0  0  0  0  0  0  0  0
    3.4624    2.1587   21.4358 C   0  0  0  0  0  0  0  0  0  0  0  0
    4.5528    1.3353   21.2932 C   0  0  0  0  0  0  0  0  0  0  0  0
    5.0062    0.9496   20.0030 C   0  0  0  0  0  0  0  0  0  0  0  0
    5.0787    0.9854   22.1766 H   0  0  0  0  0  0  0  0  0  0  0  0
    3.1182    2.4393   22.4275 H   0  0  0  0  0  0  0  0  0  0  0  0
    1.9255    3.3102   20.4176 H   0  0  0  0  0  0  0  0  0  0  0  0
    2.6806    2.6543   18.1578 H   0  0  0  0  0  0  0  0  0  0  0  0
    4.2076    1.3910   16.7028 H   0  0  0  0  0  0  0  0  0  0  0  0
    7.2840   -0.8521   18.2397 H   0  0  0  0  0  0  0  0  0  0  0  0
    7.6890   -1.1542   20.5228 H   0  0  0  0  0  0  0  0  0  0  0  0
    6.4172   -0.8609   21.7024 H   0  0  0  0  0  0  0  0  0  0  0  0
    9.5626   -0.9364   23.4666 C   0  0  0  0  0  0  0  0  0  0  0  0
    9.9512   -2.0698   24.1767 C   0  0  0  0  0  0  0  0  0  0  0  0
    9.0474   -2.6573   25.0554 C   0  0  0  0  0  0  0  0  0  0  0  0
    7.7698   -2.1183   25.2193 C   0  0  0  0  0  0  0  0  0  0  0  0
    9.3233   -3.5187   25.6562 H   0  0  0  0  0  0  0  0  0  0  0  0
   10.9561   -2.4738   24.0580 H   0  0  0  0  0  0  0  0  0  0  0  0
   10.2666   -0.4464   22.7915 H   0  0  0  0  0  0  0  0  0  0  0  0
    5.3208   -1.0575   23.7310 H   0  0  0  0  0  0  0  0  0  0  0  0
    5.8227    0.5013   24.3781 H   0  0  0  0  0  0  0  0  0  0  0  0
    4.1125   -0.7464   25.7996 H   0  0  0  0  0  0  0  0  0  0  0  0
    5.5900   -0.3697   26.7000 H   0  0  0  0  0  0  0  0  0  0  0  0
    4.8587   -2.7322   27.0700 H   0  0  0  0  0  0  0  0  0  0  0  0
    5.0417   -3.0478   25.3409 H   0  0  0  0  0  0  0  0  0  0  0  0
    7.0567   -3.7288   26.2783 H   0  0  0  0  0  0  0  0  0  0  0  0
    7.8173   -4.3747   28.1392 H   0  0  0  0  0  0  0  0  0  0  0  0
    8.7244   -3.2264   29.1341 H   0  0  0  0  0  0  0  0  0  0  0  0
    6.7535   -4.1188   30.5597 H   0  0  0  0  0  0  0  0  0  0  0  0
    5.6546   -3.6363   29.2727 H   0  0  0  0  0  0  0  0  0  0  0  0
    6.5660   -2.4095   30.1672 H   0  0  0  0  0  0  0  0  0  0  0  0
  1  2  1  0
  2  3  1  0
  3  4  2  0
  3  5  1  0
  5  6  1  0
  6  7  1  0
  7  8  1  0
  8  9  1  0
  9 10  2  0
 10 11  1  0
 11 12  1  0
 12 13  1  0
 13 14  2  0
 14 15  1  0
 15 16  2  0
 16 17  1  0
 17 18  1  0
 17 19  2  0
 19 20  1  0
 16 21  1  0
 15 22  1  0
 14 23  1  0
 12 24  1  0
 12 25  1  0
 11 26  1  0
 26 27  2  0
 26 28  1  0
 28 29  1  0
 29 30  2  0
 30 31  1  0
 31 32  2  0
 32 33  1  0
 33 34  2  0
 34 35  1  0
 35 36  2  0
 36 37  1  0
 37 38  2  0
 37 39  1  0
 36 40  1  0
 35 41  1  0
 34 42  1  0
 32 43  1  0
 30 44  1  0
 28 45  1  0
 28 46  1  0
 10 47  1  0
 47 48  2  0
 48 49  1  0
 49 50  2  0
 49 51  1  0
 48 52  1  0
 47 53  1  0
  8 54  1  0
  8 55  1  0
  7 56  1  0
  7 57  1  0
  6 58  1  0
  6 59  1  0
  5 60  1  1
  2 61  1  0
  2 62  1  0
  1 63  1  0
  1 64  1  0
  1 65  1  0
 50  5  1  0
 50  9  1  0
 19 13  1  0
 38 29  1  0
 38 33  1  0
M  CHG  1   5   1
M  END
>  <cnnaffinities>  (7) 
[6.40979]

>  <score>  (7) 
6.40979

>  <index>  (7) 
6

>  <Smiles>  (7) 
C(C(C(=O)[N@+]1(C(C(C(c2c(N(C(c3c(c(c(c(Cl)c3[H])[H])[H])[H])([H])[H])C(=O)C(c3c(nc(c4c(c(c(c(c34)[H])[H])[H])[H])[H])[H])([H])[H])c(c(c(c12)[H])[H])[H])([H])[H])([H])[H])([H])[H])[H])([H])[H])([H])([H])[H]

>  <h>  (7) 
<NA>

>  <Training>  (7) 
True

>  <Success>  (7) 
True

>  <enamine_searched>  (7) 
False

>  <enamine_id>  (7) 
nan

$$$$

     RDKit          3D

 37 39  0  0  0  0  0  0  0  0999 V2000
    5.6393   -2.5314   20.8814 O   0  0  0  0  0  0  0  0  0  0  0  0
    6.1306   -1.6643   21.5761 C   0  0  0  0  0  0  0  0  0  0  0  0
    6.9053   -0.4974   20.9174 C   0  0  0  0  0  0  0  0  0  0  0  0
    6.1172    0.0937   19.7653 C   0  0  0  0  0  0  0  0  0  0  0  0
    6.4230   -0.2143   18.4648 C   0  0  0  0  0  0  0  0  0  0  0  0
    5.7563    0.2351   17.3653 N   0  0  0  0  0  0  0  0  0  0  0  0
    4.7360    1.0307   17.5760 C   0  0  0  0  0  0  0  0  0  0  0  0
    4.2879    1.4234   18.8662 C   0  0  0  0  0  0  0  0  0  0  0  0
    3.1653    2.2718   19.0439 C   0  0  0  0  0  0  0  0  0  0  0  0
    2.7477    2.6247   20.2988 C   0  0  0  0  0  0  0  0  0  0  0  0
    3.4400    2.1391   21.4318 C   0  0  0  0  0  0  0  0  0  0  0  0
    4.5323    1.3193   21.2875 C   0  0  0  0  0  0  0  0  0  0  0  0
    4.9915    0.9414   19.9969 C   0  0  0  0  0  0  0  0  0  0  0  0
    5.0518    0.9599   22.1728 H   0  0  0  0  0  0  0  0  0  0  0  0
    3.1068    2.4275   22.4245 H   0  0  0  0  0  0  0  0  0  0  0  0
    1.8901    3.2807   20.4335 H   0  0  0  0  0  0  0  0  0  0  0  0
    2.6494    2.6418   18.1611 H   0  0  0  0  0  0  0  0  0  0  0  0
    4.2024    1.3985   16.6972 H   0  0  0  0  0  0  0  0  0  0  0  0
    7.2657   -0.8672   18.2400 H   0  0  0  0  0  0  0  0  0  0  0  0
    7.8415   -0.9102   20.5207 H   0  0  0  0  0  0  0  0  0  0  0  0
    7.1734    0.2818   21.6444 H   0  0  0  0  0  0  0  0  0  0  0  0
    5.9720   -1.6697   22.9559 N   0  0  0  0  0  0  0  0  0  0  0  0
    4.6545   -2.0072   23.4884 C   0  0  0  0  0  0  0  0  0  0  0  0
    4.7524   -2.8259   24.7654 C   0  0  0  0  0  0  0  0  0  0  0  0
    5.6500   -2.1400   25.7874 C   0  0  0  0  0  0  0  0  0  0  0  0
    7.0158   -1.8678   25.1730 C   0  0  0  0  0  0  0  0  0  0  0  0
    6.9000   -1.0504   23.8869 C   0  0  0  0  0  0  0  0  0  0  0  0
    7.8746   -0.9920   23.4042 H   0  0  0  0  0  0  0  0  0  0  0  0
    6.5994   -0.0208   24.1431 H   0  0  0  0  0  0  0  0  0  0  0  0
    7.5159   -2.8163   24.9561 H   0  0  0  0  0  0  0  0  0  0  0  0
    7.6593   -1.3395   25.8815 H   0  0  0  0  0  0  0  0  0  0  0  0
    5.7462   -2.7552   26.6889 H   0  0  0  0  0  0  0  0  0  0  0  0
    5.1934   -1.1946   26.1081 H   0  0  0  0  0  0  0  0  0  0  0  0
    3.7514   -2.9874   25.1790 H   0  0  0  0  0  0  0  0  0  0  0  0
    5.1498   -3.8170   24.5285 H   0  0  0  0  0  0  0  0  0  0  0  0
    4.0755   -1.0893   23.6914 H   0  0  0  0  0  0  0  0  0  0  0  0
    4.1256   -2.5532   22.7087 H   0  0  0  0  0  0  0  0  0  0  0  0
  1  2  2  0
  2  3  1  0
  3  4  1  0
  4  5  2  0
  5  6  1  0
  6  7  2  0
  7  8  1  0
  8  9  2  0
  9 10  1  0
 10 11  2  0
 11 12  1  0
 12 13  2  0
 12 14  1  0
 11 15  1  0
 10 16  1  0
  9 17  1  0
  7 18  1  0
  5 19  1  0
  3 20  1  0
  3 21  1  0
  2 22  1  0
 22 23  1  0
 23 24  1  0
 24 25  1  0
 25 26  1  0
 26 27  1  0
 27 28  1  0
 27 29  1  0
 26 30  1  0
 26 31  1  0
 25 32  1  0
 25 33  1  0
 24 34  1  0
 24 35  1  0
 23 36  1  0
 23 37  1  0
 13  4  1  0
 27 22  1  0
 13  8  1  0
M  END
>  <cnnaffinities>  (8) 
[5.01149, 5.31624, 5.31625, 4.68831, 4.68837, 4.42373, 4.98266]

>  <score>  (8) 
5.01149

>  <index>  (8) 
7

>  <Smiles>  (8) 
O=C(C(c1c(nc(c2c(c(c(c(c12)[H])[H])[H])[H])[H])[H])([H])[H])N1C(C(C(C(C1([H])[H])([H])[H])([H])[H])([H])[H])([H])[H]

>  <h>  (8) 
<NA>

>  <Training>  (8) 
True

>  <Success>  (8) 
True

>  <enamine_searched>  (8) 
False

>  <enamine_id>  (8) 
nan

$$$$

     RDKit          3D

 66 71  0  0  0  0  0  0  0  0999 V2000
    8.3504   -2.9237   23.0384 C   0  0  0  0  0  0  0  0  0  0  0  0
    8.3331   -1.7721   22.0377 C   0  0  1  0  0  0  0  0  0  0  0  0
    7.0874   -1.7458   21.1426 C   0  0  0  0  0  0  0  0  0  0  0  0
    6.9234   -0.3492   20.8144 N   0  0  0  0  0  0  0  0  0  0  0  0
    6.1282    0.1197   19.7549 C   0  0  0  0  0  0  0  0  0  0  0  0
    6.4380   -0.2254   18.4650 C   0  0  0  0  0  0  0  0  0  0  0  0
    5.7703    0.2187   17.3744 N   0  0  0  0  0  0  0  0  0  0  0  0
    4.7539    1.0215   17.5850 C   0  0  0  0  0  0  0  0  0  0  0  0
    4.3098    1.4225   18.8765 C   0  0  0  0  0  0  0  0  0  0  0  0
    3.1878    2.2737   19.0442 C   0  0  0  0  0  0  0  0  0  0  0  0
    2.7546    2.6164   20.2945 C   0  0  0  0  0  0  0  0  0  0  0  0
    3.4192    2.1241   21.4411 C   0  0  0  0  0  0  0  0  0  0  0  0
    4.5122    1.3083   21.3057 C   0  0  0  0  0  0  0  0  0  0  0  0
    4.9993    0.9518   20.0135 C   0  0  0  0  0  0  0  0  0  0  0  0
    5.0124    0.9399   22.1962 H   0  0  0  0  0  0  0  0  0  0  0  0
    3.0617    2.3954   22.4309 H   0  0  0  0  0  0  0  0  0  0  0  0
    1.8952    3.2682   20.4174 H   0  0  0  0  0  0  0  0  0  0  0  0
    2.6867    2.6428   18.1529 H   0  0  0  0  0  0  0  0  0  0  0  0
    4.2047    1.3819   16.7126 H   0  0  0  0  0  0  0  0  0  0  0  0
    7.2959   -0.8687   18.2717 H   0  0  0  0  0  0  0  0  0  0  0  0
    7.6432    0.5055   21.6043 C   0  0  0  0  0  0  0  0  0  0  0  0
    7.6319    1.7151   21.5083 O   0  0  0  0  0  0  0  0  0  0  0  0
    8.4158   -0.3185   22.6303 C   0  0  1  0  0  0  0  0  0  0  0  0
    7.6820   -0.0966   23.9849 C   0  0  0  0  0  0  0  0  0  0  0  0
    8.4614   -0.5251   25.1337 N   0  0  0  0  0  0  0  0  0  0  0  0
    7.8439   -1.1951   26.2772 C   0  0  0  0  0  0  0  0  0  0  0  0
    7.1213   -0.2638   27.2678 C   0  0  0  0  0  0  0  0  0  0  0  0
    7.7062    0.2211   28.2245 O   0  0  0  0  0  0  0  0  0  0  0  0
    5.8035    0.0011   27.0145 N   0  0  0  0  0  0  0  0  0  0  0  0
    5.1538    1.1109   27.7133 C   0  0  0  0  0  0  0  0  0  0  0  0
    3.6573    1.0594   27.6463 C   0  0  0  0  0  0  0  0  0  0  0  0
    2.7465    1.7113   26.8371 C   0  0  0  0  0  0  0  0  0  0  0  0
    1.4916    1.2065   27.2255 C   0  0  0  0  0  0  0  0  0  0  0  0
    1.6050    0.3294   28.2115 N   0  0  0  0  0  0  0  0  0  0  0  0
    2.9222    0.2510   28.4570 N   0  0  0  0  0  0  0  0  0  0  0  0
    3.3722   -0.5936   29.5401 C   0  0  0  0  0  0  0  0  0  0  0  0
    4.2506   -1.1646   29.2304 H   0  0  0  0  0  0  0  0  0  0  0  0
    3.6119   -0.0103   30.4350 H   0  0  0  0  0  0  0  0  0  0  0  0
    2.5550   -1.2756   29.7709 H   0  0  0  0  0  0  0  0  0  0  0  0
    0.5067    1.4334   26.8371 H   0  0  0  0  0  0  0  0  0  0  0  0
    2.9736    2.4303   26.0619 H   0  0  0  0  0  0  0  0  0  0  0  0
    5.5035    2.0600   27.2875 H   0  0  0  0  0  0  0  0  0  0  0  0
    5.5018    1.0857   28.7541 H   0  0  0  0  0  0  0  0  0  0  0  0
    5.2917   -0.5072   26.3061 H   0  0  0  0  0  0  0  0  0  0  0  0
    8.6507   -1.6672   26.8493 H   0  0  0  0  0  0  0  0  0  0  0  0
    7.1297   -1.9502   25.9119 H   0  0  0  0  0  0  0  0  0  0  0  0
    9.8019   -0.2812   25.1486 C   0  0  0  0  0  0  0  0  0  0  0  0
   10.5150   -0.4262   26.1112 O   0  0  0  0  0  0  0  0  0  0  0  0
   10.4862    0.1833   23.9496 C   0  0  0  0  0  0  0  0  0  0  0  0
   11.8223    0.5358   24.1098 C   0  0  0  0  0  0  0  0  0  0  0  0
   12.5522    0.9206   23.0173 C   0  0  0  0  0  0  0  0  0  0  0  0
   11.9119    0.9210   21.7855 C   0  0  0  0  0  0  0  0  0  0  0  0
   10.5885    0.5320   21.6334 C   0  0  0  0  0  0  0  0  0  0  0  0
    9.8387    0.1645   22.7392 C   0  0  0  0  0  0  0  0  0  0  0  0
   10.0915    0.4921   20.6700 H   0  0  0  0  0  0  0  0  0  0  0  0
   12.4939    1.2153   20.9398 H   0  0  0  0  0  0  0  0  0  0  0  0
   13.5968    1.2035   23.1010 H   0  0  0  0  0  0  0  0  0  0  0  0
   12.2457    0.4985   25.1013 H   0  0  0  0  0  0  0  0  0  0  0  0
    7.4661    0.9810   24.0617 H   0  0  0  0  0  0  0  0  0  0  0  0
    6.7310   -0.6399   23.9804 H   0  0  0  0  0  0  0  0  0  0  0  0
    7.1991   -2.3014   20.2182 H   0  0  0  0  0  0  0  0  0  0  0  0
    6.1992   -2.1302   21.6585 H   0  0  0  0  0  0  0  0  0  0  0  0
    9.2103   -1.8786   21.3803 H   0  0  0  0  0  0  0  0  0  0  0  0
    7.4645   -2.9049   23.6838 H   0  0  0  0  0  0  0  0  0  0  0  0
    9.2356   -2.8763   23.6798 H   0  0  0  0  0  0  0  0  0  0  0  0
    8.3580   -3.8867   22.5186 H   0  0  0  0  0  0  0  0  0  0  0  0
  1  2  1  0
  2  3  1  0
  3  4  1  0
  4  5  1  0
  5  6  2  0
  6  7  1  0
  7  8  2  0
  8  9  1  0
  9 10  2  0
 10 11  1  0
 11 12  2  0
 12 13  1  0
 13 14  2  0
 13 15  1  0
 12 16  1  0
 11 17  1  0
 10 18  1  0
  8 19  1  0
  6 20  1  0
  4 21  1  0
 21 22  2  0
 21 23  1  0
 23 24  1  1
 24 25  1  0
 25 26  1  0
 26 27  1  0
 27 28  2  0
 27 29  1  0
 29 30  1  0
 30 31  1  0
 31 32  2  0
 32 33  1  0
 33 34  2  0
 34 35  1  0
 35 36  1  0
 36 37  1  0
 36 38  1  0
 36 39  1  0
 33 40  1  0
 32 41  1  0
 30 42  1  0
 30 43  1  0
 29 44  1  0
 26 45  1  0
 26 46  1  0
 25 47  1  0
 47 48  2  0
 47 49  1  0
 49 50  2  0
 50 51  1  0
 51 52  2  0
 52 53  1  0
 53 54  2  0
 53 55  1  0
 52 56  1  0
 51 57  1  0
 50 58  1  0
 24 59  1  0
 24 60  1  0
  3 61  1  0
  3 62  1  0
  2 63  1  6
  1 64  1  0
  1 65  1  0
  1 66  1  0
 23  2  1  0
 35 31  1  0
 54 49  1  0
 14  5  1  0
 54 23  1  0
 14  9  1  0
M  END
>  <cnnaffinities>  (9) 
[6.42164]

>  <score>  (9) 
6.42164

>  <index>  (9) 
8

>  <Smiles>  (9) 
C([C@]1(C(N(c2c(nc(c3c(c(c(c(c23)[H])[H])[H])[H])[H])[H])C(=O)[C@]21C(N(C(C(=O)N(C(c1c(c(nn1C([H])([H])[H])[H])[H])([H])[H])[H])([H])[H])C(=O)c1c(c(c(c(c21)[H])[H])[H])[H])([H])[H])([H])[H])[H])([H])([H])[H]

>  <h>  (9) 
<NA>

>  <Training>  (9) 
True

>  <Success>  (9) 
True

>  <enamine_searched>  (9) 
False

>  <enamine_id>  (9) 
nan

$$$$

     RDKit          3D

 58 63  0  0  0  0  0  0  0  0999 V2000
    4.9590    2.9750   28.4375 C   0  0  0  0  0  0  0  0  0  0  0  0
    5.8111    1.7907   28.1804 C   0  0  0  0  0  0  0  0  0  0  0  0
    5.7096    0.9243   27.0541 C   0  0  0  0  0  0  0  0  0  0  0  0
    6.6489   -0.0176   27.2953 C   0  0  0  0  0  0  0  0  0  0  0  0
    7.1723   -1.1486   26.4092 C   0  0  0  0  0  0  0  0  0  0  0  0
    7.9651   -0.8498   25.2523 N   0  0  0  0  0  0  0  0  0  0  0  0
    7.3245   -0.0680   24.0132 C   0  0  0  0  0  0  0  0  0  0  0  0
    8.1837   -0.4623   22.8032 C   0  0  2  0  0  0  0  0  0  0  0  0
    7.6477    0.3965   21.6799 C   0  0  0  0  0  0  0  0  0  0  0  0
    7.7532    1.6004   21.5863 O   0  0  0  0  0  0  0  0  0  0  0  0
    6.9317   -0.4082   20.8358 N   0  0  0  0  0  0  0  0  0  0  0  0
    6.1456    0.1123   19.7746 C   0  0  0  0  0  0  0  0  0  0  0  0
    6.4325   -0.2236   18.4764 C   0  0  0  0  0  0  0  0  0  0  0  0
    5.7612    0.2294   17.3848 N   0  0  0  0  0  0  0  0  0  0  0  0
    4.7405    1.0296   17.5817 C   0  0  0  0  0  0  0  0  0  0  0  0
    4.2908    1.4198   18.8773 C   0  0  0  0  0  0  0  0  0  0  0  0
    3.1640    2.2716   19.0520 C   0  0  0  0  0  0  0  0  0  0  0  0
    2.7439    2.6124   20.3082 C   0  0  0  0  0  0  0  0  0  0  0  0
    3.4213    2.1148   21.4421 C   0  0  0  0  0  0  0  0  0  0  0  0
    4.5081    1.2930   21.2983 C   0  0  0  0  0  0  0  0  0  0  0  0
    4.9931    0.9382   20.0109 C   0  0  0  0  0  0  0  0  0  0  0  0
    5.0257    0.9097   22.1707 H   0  0  0  0  0  0  0  0  0  0  0  0
    3.0838    2.3842   22.4370 H   0  0  0  0  0  0  0  0  0  0  0  0
    1.8871    3.2644   20.4478 H   0  0  0  0  0  0  0  0  0  0  0  0
    2.6445    2.6481   18.1715 H   0  0  0  0  0  0  0  0  0  0  0  0
    4.2026    1.3976   16.7000 H   0  0  0  0  0  0  0  0  0  0  0  0
    7.2816   -0.8689   18.2562 H   0  0  0  0  0  0  0  0  0  0  0  0
    6.8954   -1.7995   21.2470 C   0  0  0  0  0  0  0  0  0  0  0  0
    7.9899   -1.9338   22.3001 C   0  0  2  0  0  0  0  0  0  0  0  0
    7.7159   -3.0141   23.3393 C   0  0  0  0  0  0  0  0  0  0  0  0
    7.6513   -3.9924   22.8626 H   0  0  0  0  0  0  0  0  0  0  0  0
    8.4922   -3.0468   24.1016 H   0  0  0  0  0  0  0  0  0  0  0  0
    6.7776   -2.8323   23.8615 H   0  0  0  0  0  0  0  0  0  0  0  0
    8.9301   -2.1919   21.7927 H   0  0  0  0  0  0  0  0  0  0  0  0
    7.0815   -2.4337   20.3947 H   0  0  0  0  0  0  0  0  0  0  0  0
    5.9173   -2.0957   21.6391 H   0  0  0  0  0  0  0  0  0  0  0  0
    9.6621   -0.1825   23.0870 C   0  0  0  0  0  0  0  0  0  0  0  0
   10.5516    0.0653   22.0099 C   0  0  0  0  0  0  0  0  0  0  0  0
   11.9068    0.2601   22.2472 C   0  0  0  0  0  0  0  0  0  0  0  0
   12.7979    0.5397   21.2792 F   0  0  0  0  0  0  0  0  0  0  0  0
   12.4028    0.2237   23.5485 C   0  0  0  0  0  0  0  0  0  0  0  0
   11.5183    0.0820   24.5730 C   0  0  0  0  0  0  0  0  0  0  0  0
   10.1747   -0.2643   24.4306 C   0  0  0  0  0  0  0  0  0  0  0  0
    9.3749   -0.7138   25.6847 C   0  0  0  0  0  0  0  0  0  0  0  0
    9.3748   -0.7138   25.6846 O   0  0  0  0  0  0  0  0  0  0  0  0
   11.8334    0.2783   25.5948 H   0  0  0  0  0  0  0  0  0  0  0  0
   13.4767    0.4107   23.6973 H   0  0  0  0  0  0  0  0  0  0  0  0
   10.1780    0.0994   21.0071 H   0  0  0  0  0  0  0  0  0  0  0  0
    6.2880   -0.4820   23.9592 H   0  0  0  0  0  0  0  0  0  0  0  0
    7.2948    1.0253   24.2062 H   0  0  0  0  0  0  0  0  0  0  0  0
    7.6330   -1.9415   27.0227 H   0  0  0  0  0  0  0  0  0  0  0  0
    6.1982   -1.5796   26.0380 H   0  0  0  0  0  0  0  0  0  0  0  0
    7.2753    0.2487   28.4478 O   0  0  0  0  0  0  0  0  0  0  0  0
    6.7486    1.4052   29.0087 N   0  0  0  0  0  0  0  0  0  0  0  0
    5.0492    1.0010   26.1990 H   0  0  0  0  0  0  0  0  0  0  0  0
    4.6983    3.4603   27.5002 H   0  0  0  0  0  0  0  0  0  0  0  0
    4.0254    2.6582   28.8987 H   0  0  0  0  0  0  0  0  0  0  0  0
    5.4531    3.6896   29.0885 H   0  0  0  0  0  0  0  0  0  0  0  0
  1  2  1  0
  2  3  1  0
  3  4  2  0
  4  5  1  0
  5  6  1  0
  6  7  1  0
  8  7  1  1
  8  9  1  0
  9 10  2  0
  9 11  1  0
 11 12  1  0
 12 13  2  0
 13 14  1  0
 14 15  2  0
 15 16  1  0
 16 17  2  0
 17 18  1  0
 18 19  2  0
 19 20  1  0
 20 21  2  0
 20 22  1  0
 19 23  1  0
 18 24  1  0
 17 25  1  0
 15 26  1  0
 13 27  1  0
 11 28  1  0
 28 29  1  0
 29 30  1  0
 30 31  1  0
 30 32  1  0
 30 33  1  0
 29 34  1  6
 28 35  1  0
 28 36  1  0
  8 37  1  0
 37 38  2  0
 38 39  1  0
 39 40  1  0
 39 41  2  0
 41 42  1  0
 42 43  2  0
 43 44  1  0
 44 45  2  0
 42 46  1  0
 41 47  1  0
 38 48  1  0
  7 49  1  0
  7 50  1  0
  5 51  1  0
  5 52  1  0
  4 53  1  0
 53 54  1  0
  3 55  1  0
  1 56  1  0
  1 57  1  0
  1 58  1  0
 54  2  2  0
 44  6  1  0
 29  8  1  0
 43 37  1  0
 21 12  1  0
 21 16  1  0
M  END
>  <cnnaffinities>  (10) 
[6.26746]

>  <score>  (10) 
6.26746

>  <index>  (10) 
9

>  <Smiles>  (10) 
C(c1c(c(C(N2C([C@@]3(C(=O)N(c4c(nc(c5c(c(c(c(c45)[H])[H])[H])[H])[H])[H])C([C@@]3(C([H])([H])[H])[H])([H])[H])c3c(c(F)c(c(c3C2=O)[H])[H])[H])([H])[H])([H])[H])on1)[H])([H])([H])[H]

>  <h>  (10) 
<NA>

>  <Training>  (10) 
True

>  <Success>  (10) 
True

>  <enamine_searched>  (10) 
False

>  <enamine_id>  (10) 
nan

$$$$

     RDKit          3D

 72 77  0  0  0  0  0  0  0  0999 V2000
    8.7614    0.8944   31.2030 C   0  0  0  0  0  0  0  0  0  0  0  0
    8.0515    1.4241   29.9732 C   0  0  1  0  0  0  0  0  0  0  0  0
    7.7147    0.3178   28.9717 C   0  0  0  0  0  0  0  0  0  0  0  0
    6.9847    0.8606   27.7601 N   0  0  0  0  0  4  0  0  0  0  0  0
    6.0041   -0.1130   27.1833 C   0  0  0  0  0  0  0  0  0  0  0  0
    6.7438   -1.2233   26.4551 C   0  0  0  0  0  0  0  0  0  0  0  0
    7.6967   -0.6077   25.4306 N   0  0  0  0  0  0  0  0  0  0  0  0
    7.2194   -0.1181   24.0674 C   0  0  0  0  0  0  0  0  0  0  0  0
    8.2459   -0.4578   22.9197 C   0  0  2  0  0  0  0  0  0  0  0  0
    7.7969    0.4202   21.7181 C   0  0  0  0  0  0  0  0  0  0  0  0
    8.0165    1.5982   21.5270 O   0  0  0  0  0  0  0  0  0  0  0  0
    7.0210   -0.3577   20.8790 N   0  0  0  0  0  0  0  0  0  0  0  0
    6.2232    0.1584   19.8233 C   0  0  0  0  0  0  0  0  0  0  0  0
    6.5031   -0.2243   18.5356 C   0  0  0  0  0  0  0  0  0  0  0  0
    5.8290    0.1908   17.4357 N   0  0  0  0  0  0  0  0  0  0  0  0
    4.8148    1.0003   17.6221 C   0  0  0  0  0  0  0  0  0  0  0  0
    4.3654    1.4244   18.9051 C   0  0  0  0  0  0  0  0  0  0  0  0
    3.2256    2.2611   19.0462 C   0  0  0  0  0  0  0  0  0  0  0  0
    2.7639    2.6017   20.2874 C   0  0  0  0  0  0  0  0  0  0  0  0
    3.4225    2.1220   21.4417 C   0  0  0  0  0  0  0  0  0  0  0  0
    4.5417    1.3327   21.3312 C   0  0  0  0  0  0  0  0  0  0  0  0
    5.0615    0.9752   20.0531 C   0  0  0  0  0  0  0  0  0  0  0  0
    5.0315    0.9730   22.2314 H   0  0  0  0  0  0  0  0  0  0  0  0
    3.0399    2.3856   22.4235 H   0  0  0  0  0  0  0  0  0  0  0  0
    1.8925    3.2424   20.3940 H   0  0  0  0  0  0  0  0  0  0  0  0
    2.7349    2.6221   18.1451 H   0  0  0  0  0  0  0  0  0  0  0  0
    4.2759    1.3410   16.7357 H   0  0  0  0  0  0  0  0  0  0  0  0
    7.3370   -0.8988   18.3496 H   0  0  0  0  0  0  0  0  0  0  0  0
    6.8914   -1.7328   21.3167 C   0  0  0  0  0  0  0  0  0  0  0  0
    8.0219   -1.8985   22.3371 C   0  0  2  0  0  0  0  0  0  0  0  0
    7.7409   -2.9966   23.3579 C   0  0  0  0  0  0  0  0  0  0  0  0
    8.4394   -2.9525   24.2032 H   0  0  0  0  0  0  0  0  0  0  0  0
    6.7320   -2.8861   23.7746 H   0  0  0  0  0  0  0  0  0  0  0  0
    7.7945   -3.9854   22.8899 H   0  0  0  0  0  0  0  0  0  0  0  0
    8.9447   -2.1391   21.7910 H   0  0  0  0  0  0  0  0  0  0  0  0
    6.9677   -2.4057   20.4630 H   0  0  0  0  0  0  0  0  0  0  0  0
    5.9130   -1.9118   21.7876 H   0  0  0  0  0  0  0  0  0  0  0  0
    9.7362   -0.2472   23.3066 C   0  0  0  0  0  0  0  0  0  0  0  0
   10.6655   -0.1481   22.2541 C   0  0  0  0  0  0  0  0  0  0  0  0
   11.9822    0.1999   22.5009 C   0  0  0  0  0  0  0  0  0  0  0  0
   13.2596    0.2070   21.3496 Cl  0  0  0  0  0  0  0  0  0  0  0  0
   12.3851    0.5326   23.7831 C   0  0  0  0  0  0  0  0  0  0  0  0
   11.5216    0.3430   24.8196 C   0  0  0  0  0  0  0  0  0  0  0  0
   10.2206   -0.2282   24.6309 C   0  0  0  0  0  0  0  0  0  0  0  0
    9.1799   -0.7024   25.5608 C   0  0  0  0  0  0  0  0  0  0  0  0
    9.3061   -0.6962   25.5494 O   0  0  0  0  0  0  0  0  0  0  0  0
   12.0040    0.6190   25.7485 H   0  0  0  0  0  0  0  0  0  0  0  0
   13.4015    0.8488   23.9875 H   0  0  0  0  0  0  0  0  0  0  0  0
   10.3430   -0.3427   21.2341 H   0  0  0  0  0  0  0  0  0  0  0  0
    7.1091    0.9684   24.1342 H   0  0  0  0  0  0  0  0  0  0  0  0
    6.2437   -0.5602   23.8514 H   0  0  0  0  0  0  0  0  0  0  0  0
    6.0617   -1.9215   25.9635 H   0  0  0  0  0  0  0  0  0  0  0  0
    7.3909   -1.8056   27.1199 H   0  0  0  0  0  0  0  0  0  0  0  0
    5.3643   -0.5171   27.9756 H   0  0  0  0  0  0  0  0  0  0  0  0
    5.3596    0.4423   26.4886 H   0  0  0  0  0  0  0  0  0  0  0  0
    6.3798    2.1988   28.0692 C   0  0  0  0  0  0  0  0  0  0  0  0
    5.8312    2.2290   29.4908 C   0  0  2  0  0  0  0  0  0  0  0  0
    5.0906    3.5127   29.8129 C   0  0  0  0  0  0  0  0  0  0  0  0
    4.2383    3.6460   29.1374 H   0  0  0  0  0  0  0  0  0  0  0  0
    5.7602    4.3745   29.7134 H   0  0  0  0  0  0  0  0  0  0  0  0
    4.7192    3.4789   30.8408 H   0  0  0  0  0  0  0  0  0  0  0  0
    6.8836    2.0910   30.4363 O   0  0  0  0  0  0  0  0  0  0  0  0
    5.1410    1.3770   29.6083 H   0  0  0  0  0  0  0  0  0  0  0  0
    5.5892    2.4052   27.3435 H   0  0  0  0  0  0  0  0  0  0  0  0
    7.1427    2.9771   27.9551 H   0  0  0  0  0  0  0  0  0  0  0  0
    7.6884    0.9915   27.0203 H   0  0  0  0  0  0  0  0  0  0  0  0
    8.6368   -0.1627   28.6264 H   0  0  0  0  0  0  0  0  0  0  0  0
    7.0924   -0.4395   29.4631 H   0  0  0  0  0  0  0  0  0  0  0  0
    8.7004    2.1589   29.4716 H   0  0  0  0  0  0  0  0  0  0  0  0
    8.9717    1.7135   31.8961 H   0  0  0  0  0  0  0  0  0  0  0  0
    9.7082    0.4145   30.9373 H   0  0  0  0  0  0  0  0  0  0  0  0
    8.1288    0.1642   31.7189 H   0  0  0  0  0  0  0  0  0  0  0  0
  1  2  1  0
  2  3  1  0
  3  4  1  0
  4  5  1  0
  5  6  1  0
  6  7  1  0
  7  8  1  0
  9  8  1  1
  9 10  1  0
 10 11  2  0
 10 12  1  0
 12 13  1  0
 13 14  2  0
 14 15  1  0
 15 16  2  0
 16 17  1  0
 17 18  2  0
 18 19  1  0
 19 20  2  0
 20 21  1  0
 21 22  2  0
 21 23  1  0
 20 24  1  0
 19 25  1  0
 18 26  1  0
 16 27  1  0
 14 28  1  0
 12 29  1  0
 29 30  1  0
 30 31  1  0
 31 32  1  0
 31 33  1  0
 31 34  1  0
 30 35  1  6
 29 36  1  0
 29 37  1  0
  9 38  1  0
 38 39  2  0
 39 40  1  0
 40 41  1  0
 40 42  2  0
 42 43  1  0
 43 44  2  0
 44 45  1  0
 45 46  2  0
 43 47  1  0
 42 48  1  0
 39 49  1  0
  8 50  1  0
  8 51  1  0
  6 52  1  0
  6 53  1  0
  5 54  1  0
  5 55  1  0
  4 56  1  0
 56 57  1  0
 57 58  1  0
 58 59  1  0
 58 60  1  0
 58 61  1  0
 57 62  1  0
 57 63  1  6
 56 64  1  0
 56 65  1  0
  4 66  1  0
  3 67  1  0
  3 68  1  0
  2 69  1  6
  1 70  1  0
  1 71  1  0
  1 72  1  0
 62  2  1  0
 45  7  1  0
 30  9  1  0
 44 38  1  0
 22 13  1  0
 22 17  1  0
M  CHG  1   4   1
M  END
>  <cnnaffinities>  (11) 
[6.11819]

>  <score>  (11) 
6.11819

>  <index>  (11) 
10

>  <Smiles>  (11) 
C([C@]1(C([N+](C(C(N2C([C@@]3(C(=O)N(c4c(nc(c5c(c(c(c(c45)[H])[H])[H])[H])[H])[H])C([C@@]3(C([H])([H])[H])[H])([H])[H])c3c(c(Cl)c(c(c3C2=O)[H])[H])[H])([H])[H])([H])[H])([H])[H])(C([C@](C([H])([H])[H])(O1)[H])([H])[H])[H])([H])[H])[H])([H])([H])[H]

>  <h>  (11) 
<NA>

>  <Training>  (11) 
True

>  <Success>  (11) 
True

>  <enamine_searched>  (11) 
False

>  <enamine_id>  (11) 
nan

$$$$

     RDKit          3D

 54 57  0  0  0  0  0  0  0  0999 V2000
    4.8802    1.9201   25.3049 C   0  0  0  0  0  0  0  0  0  0  0  0
    6.1347    1.9634   24.6604 O   0  0  0  0  0  0  0  0  0  0  0  0
    6.4404    2.9879   23.8107 C   0  0  0  0  0  0  0  0  0  0  0  0
    5.5512    4.0265   23.5130 C   0  0  0  0  0  0  0  0  0  0  0  0
    5.9377    5.0308   22.6250 C   0  0  0  0  0  0  0  0  0  0  0  0
    7.1964    5.0146   22.0447 C   0  0  0  0  0  0  0  0  0  0  0  0
    8.0715    3.9819   22.3657 C   0  0  0  0  0  0  0  0  0  0  0  0
    7.7269    2.9602   23.2366 C   0  0  0  0  0  0  0  0  0  0  0  0
    8.6567    1.7845   23.5077 C   0  0  2  0  0  0  0  0  0  0  0  0
   10.1647    2.0530   23.3438 C   0  0  0  0  0  0  0  0  0  0  0  0
   10.9928    0.8544   23.8293 C   0  0  2  0  0  0  0  0  0  0  0  0
   12.4889    1.0787   23.6102 C   0  0  0  0  0  0  0  0  0  0  0  0
   12.8385    1.9806   24.1223 H   0  0  0  0  0  0  0  0  0  0  0  0
   13.0860    0.2309   23.9681 H   0  0  0  0  0  0  0  0  0  0  0  0
   12.7097    1.2054   22.5437 H   0  0  0  0  0  0  0  0  0  0  0  0
   10.5197   -0.4272   23.1388 C   0  0  0  0  0  0  0  0  0  0  0  0
    8.9991   -0.6098   23.2631 C   0  0  0  0  0  0  0  0  0  0  0  0
    8.2609    0.5604   22.7863 N   0  0  0  0  0  0  0  0  0  0  0  0
    7.9300    0.6537   21.4232 C   0  0  0  0  0  0  0  0  0  0  0  0
    8.3434    1.5289   20.6936 O   0  0  0  0  0  0  0  0  0  0  0  0
    6.9757   -0.4305   20.8952 C   0  0  0  0  0  0  0  0  0  0  0  0
    6.1116    0.0831   19.7657 C   0  0  0  0  0  0  0  0  0  0  0  0
    6.4260   -0.2101   18.4646 C   0  0  0  0  0  0  0  0  0  0  0  0
    5.7594    0.2379   17.3655 N   0  0  0  0  0  0  0  0  0  0  0  0
    4.7354    1.0289   17.5761 C   0  0  0  0  0  0  0  0  0  0  0  0
    4.2891    1.4229   18.8657 C   0  0  0  0  0  0  0  0  0  0  0  0
    3.1740    2.2807   19.0431 C   0  0  0  0  0  0  0  0  0  0  0  0
    2.7658    2.6459   20.2972 C   0  0  0  0  0  0  0  0  0  0  0  0
    3.4645    2.1645   21.4308 C   0  0  0  0  0  0  0  0  0  0  0  0
    4.5480    1.3318   21.2895 C   0  0  0  0  0  0  0  0  0  0  0  0
    4.9931    0.9379   19.9995 C   0  0  0  0  0  0  0  0  0  0  0  0
    5.0730    0.9787   22.1736 H   0  0  0  0  0  0  0  0  0  0  0  0
    3.1369    2.4672   22.4233 H   0  0  0  0  0  0  0  0  0  0  0  0
    1.9125    3.3086   20.4264 H   0  0  0  0  0  0  0  0  0  0  0  0
    2.6572    2.6508   18.1601 H   0  0  0  0  0  0  0  0  0  0  0  0
    4.2023    1.3972   16.6966 H   0  0  0  0  0  0  0  0  0  0  0  0
    7.2746   -0.8537   18.2395 H   0  0  0  0  0  0  0  0  0  0  0  0
    6.3700   -0.8302   21.7205 H   0  0  0  0  0  0  0  0  0  0  0  0
    7.5891   -1.2640   20.5238 H   0  0  0  0  0  0  0  0  0  0  0  0
    8.6694   -1.4845   22.6983 H   0  0  0  0  0  0  0  0  0  0  0  0
    8.7407   -0.7784   24.3178 H   0  0  0  0  0  0  0  0  0  0  0  0
   10.7971   -0.3852   22.0783 H   0  0  0  0  0  0  0  0  0  0  0  0
   11.0500   -1.2956   23.5532 H   0  0  0  0  0  0  0  0  0  0  0  0
   10.8237    0.7378   24.9101 H   0  0  0  0  0  0  0  0  0  0  0  0
   10.4530    2.9452   23.9155 H   0  0  0  0  0  0  0  0  0  0  0  0
   10.3992    2.2600   22.2928 H   0  0  0  0  0  0  0  0  0  0  0  0
    8.5159    1.5222   24.5607 H   0  0  0  0  0  0  0  0  0  0  0  0
    9.0407    3.9594   21.8796 H   0  0  0  0  0  0  0  0  0  0  0  0
    7.5024    5.7840   21.3398 H   0  0  0  0  0  0  0  0  0  0  0  0
    5.2506    5.8353   22.3817 H   0  0  0  0  0  0  0  0  0  0  0  0
    4.5625    4.0698   23.9636 H   0  0  0  0  0  0  0  0  0  0  0  0
    4.6979    2.7764   25.9654 H   0  0  0  0  0  0  0  0  0  0  0  0
    4.9060    1.0235   25.9191 H   0  0  0  0  0  0  0  0  0  0  0  0
    4.0302    1.8270   24.6161 H   0  0  0  0  0  0  0  0  0  0  0  0
  1  2  1  0
  2  3  1  0
  3  4  2  0
  4  5  1  0
  5  6  2  0
  6  7  1  0
  7  8  2  0
  8  9  1  0
  9 10  1  0
 10 11  1  0
 11 12  1  0
 12 13  1  0
 12 14  1  0
 12 15  1  0
 11 16  1  0
 16 17  1  0
 17 18  1  0
 18 19  1  0
 19 20  2  0
 19 21  1  0
 21 22  1  0
 22 23  2  0
 23 24  1  0
 24 25  2  0
 25 26  1  0
 26 27  2  0
 27 28  1  0
 28 29  2  0
 29 30  1  0
 30 31  2  0
 30 32  1  0
 29 33  1  0
 28 34  1  0
 27 35  1  0
 25 36  1  0
 23 37  1  0
 21 38  1  0
 21 39  1  0
 17 40  1  0
 17 41  1  0
 16 42  1  0
 16 43  1  0
 11 44  1  1
 10 45  1  0
 10 46  1  0
  9 47  1  1
  7 48  1  0
  6 49  1  0
  5 50  1  0
  4 51  1  0
  1 52  1  0
  1 53  1  0
  1 54  1  0
  8  3  1  0
 18  9  1  0
 31 22  1  0
 31 26  1  0
M  END
>  <cnnaffinities>  (12) 
[5.92252, 5.80443, 5.86853]

>  <score>  (12) 
5.92252

>  <index>  (12) 
11

>  <Smiles>  (12) 
C(Oc1c(c(c(c(c1[C@@]1(C([C@](C([H])([H])[H])(C(C(N1C(=O)C(c1c(nc(c2c(c(c(c(c12)[H])[H])[H])[H])[H])[H])([H])[H])([H])[H])([H])[H])[H])([H])[H])[H])[H])[H])[H])[H])([H])([H])[H]

>  <h>  (12) 
<NA>

>  <Training>  (12) 
True

>  <Success>  (12) 
True

>  <enamine_searched>  (12) 
False

>  <enamine_id>  (12) 
nan

$$$$

     RDKit          3D

 47 50  0  0  0  0  0  0  0  0999 V2000
    5.5816   -2.4847   20.9644 O   0  0  0  0  0  0  0  0  0  0  0  0
    6.1373   -1.6236   21.6271 C   0  0  0  0  0  0  0  0  0  0  0  0
    6.9077   -0.4870   20.9188 C   0  0  0  0  0  0  0  0  0  0  0  0
    6.1152    0.0908   19.7664 C   0  0  0  0  0  0  0  0  0  0  0  0
    6.4213   -0.2152   18.4634 C   0  0  0  0  0  0  0  0  0  0  0  0
    5.7571    0.2359   17.3635 N   0  0  0  0  0  0  0  0  0  0  0  0
    4.7357    1.0313   17.5741 C   0  0  0  0  0  0  0  0  0  0  0  0
    4.2868    1.4239   18.8676 C   0  0  0  0  0  0  0  0  0  0  0  0
    3.1628    2.2740   19.0429 C   0  0  0  0  0  0  0  0  0  0  0  0
    2.7474    2.6255   20.2997 C   0  0  0  0  0  0  0  0  0  0  0  0
    3.4391    2.1407   21.4317 C   0  0  0  0  0  0  0  0  0  0  0  0
    4.5317    1.3196   21.2877 C   0  0  0  0  0  0  0  0  0  0  0  0
    4.9895    0.9409   19.9956 C   0  0  0  0  0  0  0  0  0  0  0  0
    5.0493    0.9588   22.1722 H   0  0  0  0  0  0  0  0  0  0  0  0
    3.1038    2.4271   22.4231 H   0  0  0  0  0  0  0  0  0  0  0  0
    1.8897    3.2781   20.4358 H   0  0  0  0  0  0  0  0  0  0  0  0
    2.6418    2.6441   18.1632 H   0  0  0  0  0  0  0  0  0  0  0  0
    4.1988    1.4000   16.6988 H   0  0  0  0  0  0  0  0  0  0  0  0
    7.2662   -0.8680   18.2475 H   0  0  0  0  0  0  0  0  0  0  0  0
    7.2146    0.3093   21.6072 H   0  0  0  0  0  0  0  0  0  0  0  0
    7.8304   -0.9243   20.5172 H   0  0  0  0  0  0  0  0  0  0  0  0
    6.0653   -1.6146   22.9913 N   0  0  0  0  0  0  0  0  0  0  0  0
    6.9011   -0.8566   23.9160 C   0  0  0  0  0  0  0  0  0  0  0  0
    6.6184   -1.4538   25.3068 C   0  0  2  0  0  0  0  0  0  0  0  0
    7.6577   -2.4964   25.7095 C   0  0  0  0  0  0  0  0  0  0  0  0
    8.9152   -1.9105   25.7579 F   0  0  0  0  0  0  0  0  0  0  0  0
    7.6951   -3.3149   24.9837 H   0  0  0  0  0  0  0  0  0  0  0  0
    7.4633   -2.9228   26.6999 H   0  0  0  0  0  0  0  0  0  0  0  0
    5.1948   -2.0375   25.1774 C   0  0  0  0  0  0  0  0  0  0  0  0
    4.0999   -0.9799   25.4624 C   0  0  0  0  0  0  0  0  0  0  0  0
    2.8228   -1.7523   25.8425 C   0  0  0  0  0  0  0  0  0  0  0  0
    3.2770   -3.1714   26.2309 C   0  0  0  0  0  0  0  0  0  0  0  0
    4.8109   -3.1499   26.1710 C   0  0  0  0  0  0  0  0  0  0  0  0
    5.2220   -4.1234   25.8857 H   0  0  0  0  0  0  0  0  0  0  0  0
    5.2102   -2.9197   27.1667 H   0  0  0  0  0  0  0  0  0  0  0  0
    2.8769   -3.9063   25.5258 H   0  0  0  0  0  0  0  0  0  0  0  0
    2.9230   -3.4584   27.2258 H   0  0  0  0  0  0  0  0  0  0  0  0
    2.1251   -1.7873   25.0028 H   0  0  0  0  0  0  0  0  0  0  0  0
    2.3028   -1.2531   26.6646 H   0  0  0  0  0  0  0  0  0  0  0  0
    3.9448   -0.3160   24.6064 H   0  0  0  0  0  0  0  0  0  0  0  0
    4.4121   -0.3452   26.2994 H   0  0  0  0  0  0  0  0  0  0  0  0
    5.1438   -2.4993   23.6997 C   0  0  0  0  0  0  0  0  0  0  0  0
    5.4370   -3.5512   23.5949 H   0  0  0  0  0  0  0  0  0  0  0  0
    4.1349   -2.4182   23.2873 H   0  0  0  0  0  0  0  0  0  0  0  0
    6.6545   -0.6761   26.0741 H   0  0  0  0  0  0  0  0  0  0  0  0
    6.6313    0.2060   23.9011 H   0  0  0  0  0  0  0  0  0  0  0  0
    7.9611   -0.9491   23.6687 H   0  0  0  0  0  0  0  0  0  0  0  0
  1  2  2  0
  2  3  1  0
  3  4  1  0
  4  5  2  0
  5  6  1  0
  6  7  2  0
  7  8  1  0
  8  9  2  0
  9 10  1  0
 10 11  2  0
 11 12  1  0
 12 13  2  0
 12 14  1  0
 11 15  1  0
 10 16  1  0
  9 17  1  0
  7 18  1  0
  5 19  1  0
  3 20  1  0
  3 21  1  0
  2 22  1  0
 22 23  1  0
 23 24  1  0
 24 25  1  0
 25 26  1  0
 25 27  1  0
 25 28  1  0
 24 29  1  0
 29 30  1  0
 30 31  1  0
 31 32  1  0
 32 33  1  0
 33 34  1  0
 33 35  1  0
 32 36  1  0
 32 37  1  0
 31 38  1  0
 31 39  1  0
 30 40  1  0
 30 41  1  0
 29 42  1  0
 42 43  1  0
 42 44  1  0
 24 45  1  1
 23 46  1  0
 23 47  1  0
 13  4  1  0
 42 22  1  0
 13  8  1  0
 33 29  1  0
M  END
>  <cnnaffinities>  (13) 
[5.61179, 5.59219, 5.58434, 5.58417, 5.59946, 5.57465, 5.53381, 5.57421, 5.59842, 5.47973]

>  <score>  (13) 
5.61179

>  <index>  (13) 
12

>  <Smiles>  (13) 
O=C(C(c1c(nc(c2c(c(c(c(c12)[H])[H])[H])[H])[H])[H])([H])[H])N1C([C@](C(F)([H])[H])(C2(C(C(C(C2([H])[H])([H])[H])([H])[H])([H])[H])C1([H])[H])[H])([H])[H]

>  <h>  (13) 
<NA>

>  <Training>  (13) 
True

>  <Success>  (13) 
True

>  <enamine_searched>  (13) 
False

>  <enamine_id>  (13) 
nan

$$$$

     RDKit          3D

 67 72  0  0  0  0  0  0  0  0999 V2000
    6.3907    4.3544   21.2554 C   0  0  0  0  0  0  0  0  0  0  0  0
    7.3684    3.9021   22.2186 N   0  0  0  0  0  0  0  0  0  0  0  0
    6.9365    3.2733   23.3413 C   0  0  0  0  0  0  0  0  0  0  0  0
    5.7565    3.0604   23.5835 O   0  0  0  0  0  0  0  0  0  0  0  0
    8.0300    2.8810   24.3263 C   0  0  0  0  0  0  0  0  0  0  0  0
    8.6891    1.6458   23.9627 N   0  0  0  0  0  0  0  0  0  0  0  0
    7.8714    0.4522   23.8186 C   0  0  0  0  0  0  0  0  0  0  0  0
    8.2683   -0.3666   22.5718 C   0  0  2  0  0  0  0  0  0  0  0  0
    7.8748    0.3579   21.2607 C   0  0  0  0  0  0  0  0  0  0  0  0
    8.3780    1.3594   20.7977 O   0  0  0  0  0  0  0  0  0  0  0  0
    6.8710   -0.3590   20.6483 N   0  0  0  0  0  0  0  0  0  0  0  0
    6.1047    0.1815   19.5934 C   0  0  0  0  0  0  0  0  0  0  0  0
    6.4179   -0.1272   18.2975 C   0  0  0  0  0  0  0  0  0  0  0  0
    5.7094    0.3061   17.2291 N   0  0  0  0  0  0  0  0  0  0  0  0
    4.6728    1.0766   17.4661 C   0  0  0  0  0  0  0  0  0  0  0  0
    4.2378    1.4642   18.7685 C   0  0  0  0  0  0  0  0  0  0  0  0
    3.1186    2.3125   18.9875 C   0  0  0  0  0  0  0  0  0  0  0  0
    2.7377    2.6540   20.2578 C   0  0  0  0  0  0  0  0  0  0  0  0
    3.4497    2.1635   21.3745 C   0  0  0  0  0  0  0  0  0  0  0  0
    4.5381    1.3446   21.1890 C   0  0  0  0  0  0  0  0  0  0  0  0
    4.9627    0.9828   19.8781 C   0  0  0  0  0  0  0  0  0  0  0  0
    5.1133    1.0273   22.0534 H   0  0  0  0  0  0  0  0  0  0  0  0
    3.1719    2.4600   22.3819 H   0  0  0  0  0  0  0  0  0  0  0  0
    1.8907    3.3166   20.4155 H   0  0  0  0  0  0  0  0  0  0  0  0
    2.5840    2.6950   18.1237 H   0  0  0  0  0  0  0  0  0  0  0  0
    4.1157    1.4338   16.6006 H   0  0  0  0  0  0  0  0  0  0  0  0
    7.2793   -0.7605   18.0940 H   0  0  0  0  0  0  0  0  0  0  0  0
    6.3641   -1.4567   21.4331 C   0  0  0  0  0  0  0  0  0  0  0  0
    7.4778   -1.7069   22.4433 C   0  0  2  0  0  0  0  0  0  0  0  0
    6.8839   -2.3598   23.6910 C   0  0  0  0  0  0  0  0  0  0  0  0
    7.8182   -2.5706   24.7096 O   0  0  0  0  0  0  0  0  0  0  0  0
    8.8038   -3.5204   24.3752 C   0  0  0  0  0  0  0  0  0  0  0  0
    9.9768   -3.2782   25.2808 C   0  0  0  0  0  0  0  0  0  0  0  0
   11.2966   -2.8093   24.6906 C   0  0  0  0  0  0  0  0  0  0  0  0
   11.1177   -4.2326   25.1544 C   0  0  0  0  0  0  0  0  0  0  0  0
   11.6325   -4.6168   26.0263 H   0  0  0  0  0  0  0  0  0  0  0  0
   11.0212   -4.9995   24.4286 H   0  0  0  0  0  0  0  0  0  0  0  0
   11.9458   -2.1686   25.2832 H   0  0  0  0  0  0  0  0  0  0  0  0
   11.3006   -2.6142   23.6223 H   0  0  0  0  0  0  0  0  0  0  0  0
    9.6912   -2.8778   26.2550 H   0  0  0  0  0  0  0  0  0  0  0  0
    8.3847   -4.5386   24.4854 H   0  0  0  0  0  0  0  0  0  0  0  0
    9.1302   -3.4289   23.3235 H   0  0  0  0  0  0  0  0  0  0  0  0
    6.4069   -3.3139   23.4112 H   0  0  0  0  0  0  0  0  0  0  0  0
    6.0952   -1.7236   24.1098 H   0  0  0  0  0  0  0  0  0  0  0  0
    8.1717   -2.4158   21.9861 H   0  0  0  0  0  0  0  0  0  0  0  0
    5.4125   -1.2027   21.9258 H   0  0  0  0  0  0  0  0  0  0  0  0
    6.1736   -2.3306   20.8024 H   0  0  0  0  0  0  0  0  0  0  0  0
    9.7825   -0.4721   22.5483 C   0  0  0  0  0  0  0  0  0  0  0  0
   10.3748   -1.3686   21.6608 C   0  0  0  0  0  0  0  0  0  0  0  0
   11.7490   -1.4771   21.5741 C   0  0  0  0  0  0  0  0  0  0  0  0
   12.2998   -2.8076   20.5998 Cl  0  0  0  0  0  0  0  0  0  0  0  0
   12.5865   -0.6101   22.2935 C   0  0  0  0  0  0  0  0  0  0  0  0
   12.0049    0.3469   23.0989 C   0  0  0  0  0  0  0  0  0  0  0  0
   10.6201    0.4246   23.2209 C   0  0  0  0  0  0  0  0  0  0  0  0
   10.0579    1.5810   23.9785 C   0  0  0  0  0  0  0  0  0  0  0  0
   10.7703    2.4193   24.5193 O   0  0  0  0  0  0  0  0  0  0  0  0
   12.6252    1.0497   23.6434 H   0  0  0  0  0  0  0  0  0  0  0  0
   13.6671   -0.6248   22.2750 H   0  0  0  0  0  0  0  0  0  0  0  0
    9.7790   -1.9949   21.0043 H   0  0  0  0  0  0  0  0  0  0  0  0
    7.9690   -0.1828   24.7075 H   0  0  0  0  0  0  0  0  0  0  0  0
    6.8334    0.7813   23.7363 H   0  0  0  0  0  0  0  0  0  0  0  0
    8.8099    3.6486   24.3590 H   0  0  0  0  0  0  0  0  0  0  0  0
    7.5513    2.8002   25.3116 H   0  0  0  0  0  0  0  0  0  0  0  0
    8.3168    3.7379   21.9113 H   0  0  0  0  0  0  0  0  0  0  0  0
    5.9355    3.5061   20.7290 H   0  0  0  0  0  0  0  0  0  0  0  0
    6.8548    5.0425   20.5488 H   0  0  0  0  0  0  0  0  0  0  0  0
    5.6061    4.8882   21.7917 H   0  0  0  0  0  0  0  0  0  0  0  0
  1  2  1  0
  2  3  1  0
  3  4  2  0
  3  5  1  0
  5  6  1  0
  6  7  1  0
  8  7  1  1
  8  9  1  0
  9 10  2  0
  9 11  1  0
 11 12  1  0
 12 13  2  0
 13 14  1  0
 14 15  2  0
 15 16  1  0
 16 17  2  0
 17 18  1  0
 18 19  2  0
 19 20  1  0
 20 21  2  0
 20 22  1  0
 19 23  1  0
 18 24  1  0
 17 25  1  0
 15 26  1  0
 13 27  1  0
 11 28  1  0
 28 29  1  0
 29 30  1  0
 30 31  1  0
 31 32  1  0
 32 33  1  0
 33 34  1  0
 34 35  1  0
 35 36  1  0
 35 37  1  0
 34 38  1  0
 34 39  1  0
 33 40  1  0
 32 41  1  0
 32 42  1  0
 30 43  1  0
 30 44  1  0
 29 45  1  6
 28 46  1  0
 28 47  1  0
  8 48  1  0
 48 49  2  0
 49 50  1  0
 50 51  1  0
 50 52  2  0
 52 53  1  0
 53 54  2  0
 54 55  1  0
 55 56  2  0
 53 57  1  0
 52 58  1  0
 49 59  1  0
  7 60  1  0
  7 61  1  0
  5 62  1  0
  5 63  1  0
  2 64  1  0
  1 65  1  0
  1 66  1  0
  1 67  1  0
 55  6  1  0
 29  8  1  0
 35 33  1  0
 54 48  1  0
 21 12  1  0
 21 16  1  0
M  END
>  <cnnaffinities>  (14) 
[6.32983]

>  <score>  (14) 
6.32983

>  <index>  (14) 
13

>  <Smiles>  (14) 
C(N(C(=O)C(N1C([C@@]2(C(=O)N(c3c(nc(c4c(c(c(c(c34)[H])[H])[H])[H])[H])[H])C([C@@]2(C(OC(C2(C(C2([H])[H])([H])[H])[H])([H])[H])([H])[H])[H])([H])[H])c2c(c(Cl)c(c(c2C1=O)[H])[H])[H])([H])[H])([H])[H])[H])([H])([H])[H]

>  <h>  (14) 
<NA>

>  <Training>  (14) 
True

>  <Success>  (14) 
True

>  <enamine_searched>  (14) 
False

>  <enamine_id>  (14) 
nan

$$$$

     RDKit          3D

 67 73  0  0  0  0  0  0  0  0999 V2000
    7.1612   -2.2863   23.9845 C   0  0  0  0  0  0  0  0  0  0  0  0
    7.6069   -1.7532   22.6269 C   0  0  1  0  0  0  0  0  0  0  0  0
    6.4376   -1.5425   21.6547 C   0  0  0  0  0  0  0  0  0  0  0  0
    6.8859   -0.4574   20.8111 N   0  0  0  0  0  0  0  0  0  0  0  0
    6.1173    0.0751   19.7506 C   0  0  0  0  0  0  0  0  0  0  0  0
    6.4513   -0.2252   18.4572 C   0  0  0  0  0  0  0  0  0  0  0  0
    5.7766    0.2239   17.3687 N   0  0  0  0  0  0  0  0  0  0  0  0
    4.7520    1.0147   17.5826 C   0  0  0  0  0  0  0  0  0  0  0  0
    4.3096    1.4158   18.8782 C   0  0  0  0  0  0  0  0  0  0  0  0
    3.2051    2.2914   19.0538 C   0  0  0  0  0  0  0  0  0  0  0  0
    2.8109    2.6732   20.3067 C   0  0  0  0  0  0  0  0  0  0  0  0
    3.4980    2.1986   21.4473 C   0  0  0  0  0  0  0  0  0  0  0  0
    4.5606    1.3369   21.3054 C   0  0  0  0  0  0  0  0  0  0  0  0
    4.9998    0.9292   20.0092 C   0  0  0  0  0  0  0  0  0  0  0  0
    5.0788    0.9900   22.1960 H   0  0  0  0  0  0  0  0  0  0  0  0
    3.1832    2.5167   22.4392 H   0  0  0  0  0  0  0  0  0  0  0  0
    1.9669    3.3447   20.4330 H   0  0  0  0  0  0  0  0  0  0  0  0
    2.6925    2.6557   18.1682 H   0  0  0  0  0  0  0  0  0  0  0  0
    4.2058    1.3794   16.7112 H   0  0  0  0  0  0  0  0  0  0  0  0
    7.3148   -0.8598   18.2665 H   0  0  0  0  0  0  0  0  0  0  0  0
    7.9972    0.2074   21.2704 C   0  0  0  0  0  0  0  0  0  0  0  0
    8.5212    1.1389   20.6937 O   0  0  0  0  0  0  0  0  0  0  0  0
    8.4040   -0.4132   22.6191 C   0  0  1  0  0  0  0  0  0  0  0  0
    8.0372    0.5131   23.7916 C   0  0  0  0  0  0  0  0  0  0  0  0
    8.8706    1.6964   23.8269 N   0  0  0  0  0  0  0  0  0  0  0  0
    8.4179    3.0559   23.6570 C   0  0  0  0  0  0  0  0  0  0  0  0
    6.9342    3.1887   23.4090 C   0  0  0  0  0  0  0  0  0  0  0  0
    6.4749    4.6001   23.3316 N   0  0  2  0  0  4  0  0  0  0  0  0
    7.0086    5.4003   22.1451 C   0  0  0  0  0  0  0  0  0  0  0  0
    7.4150    6.7224   22.8056 C   0  0  2  0  0  0  0  0  0  0  0  0
    8.0355    6.2596   24.1259 C   0  0  0  0  0  0  0  0  0  0  0  0
    6.7523    5.5269   24.5291 C   0  0  1  0  0  0  0  0  0  0  0  0
    5.7520    6.6693   24.3896 C   0  0  0  0  0  0  0  0  0  0  0  0
    6.2158    7.3888   23.2308 O   0  0  0  0  0  0  0  0  0  0  0  0
    4.7315    6.3031   24.2110 H   0  0  0  0  0  0  0  0  0  0  0  0
    5.7633    7.3323   25.2641 H   0  0  0  0  0  0  0  0  0  0  0  0
    6.7440    4.9763   25.4671 H   0  0  0  0  0  0  0  0  0  0  0  0
    8.2669    7.0969   24.7882 H   0  0  0  0  0  0  0  0  0  0  0  0
    8.9184    5.6229   24.0226 H   0  0  0  0  0  0  0  0  0  0  0  0
    7.9790    7.3987   22.1635 H   0  0  0  0  0  0  0  0  0  0  0  0
    7.8656    4.8909   21.7013 H   0  0  0  0  0  0  0  0  0  0  0  0
    6.2229    5.5127   21.3986 H   0  0  0  0  0  0  0  0  0  0  0  0
    5.4525    4.5115   23.2293 H   0  0  0  0  0  0  0  0  0  0  0  0
    6.3818    2.6817   24.2101 H   0  0  0  0  0  0  0  0  0  0  0  0
    6.6939    2.7083   22.4578 H   0  0  0  0  0  0  0  0  0  0  0  0
    8.9905    3.5279   22.8504 H   0  0  0  0  0  0  0  0  0  0  0  0
    8.6783    3.6123   24.5439 H   0  0  0  0  0  0  0  0  0  0  0  0
   10.2276    1.5584   23.9328 C   0  0  0  0  0  0  0  0  0  0  0  0
   10.9506    2.4413   24.3735 O   0  0  0  0  0  0  0  0  0  0  0  0
   10.7494    0.2895   23.3452 C   0  0  0  0  0  0  0  0  0  0  0  0
   12.1166    0.0618   23.3814 C   0  0  0  0  0  0  0  0  0  0  0  0
   12.6698   -0.9878   22.6763 C   0  0  0  0  0  0  0  0  0  0  0  0
   11.8297   -1.7339   21.8369 C   0  0  0  0  0  0  0  0  0  0  0  0
   12.3638   -2.8782   20.6441 Cl  0  0  0  0  0  0  0  0  0  0  0  0
   10.4641   -1.5596   21.8544 C   0  0  0  0  0  0  0  0  0  0  0  0
    9.8985   -0.5809   22.6580 C   0  0  0  0  0  0  0  0  0  0  0  0
    9.8474   -2.1890   21.2217 H   0  0  0  0  0  0  0  0  0  0  0  0
   13.7236   -1.1975   22.8054 H   0  0  0  0  0  0  0  0  0  0  0  0
   12.7179    0.7627   23.9492 H   0  0  0  0  0  0  0  0  0  0  0  0
    6.9767    0.7682   23.7858 H   0  0  0  0  0  0  0  0  0  0  0  0
    8.2320   -0.0405   24.7121 H   0  0  0  0  0  0  0  0  0  0  0  0
    5.5146   -1.2838   22.1915 H   0  0  0  0  0  0  0  0  0  0  0  0
    6.2230   -2.4299   21.0484 H   0  0  0  0  0  0  0  0  0  0  0  0
    8.2607   -2.5059   22.1855 H   0  0  0  0  0  0  0  0  0  0  0  0
    6.4646   -1.5912   24.4633 H   0  0  0  0  0  0  0  0  0  0  0  0
    6.6430   -3.2456   23.8812 H   0  0  0  0  0  0  0  0  0  0  0  0
    8.0039   -2.4442   24.6660 H   0  0  0  0  0  0  0  0  0  0  0  0
  1  2  1  0
  2  3  1  0
  3  4  1  0
  4  5  1  0
  5  6  2  0
  6  7  1  0
  7  8  2  0
  8  9  1  0
  9 10  2  0
 10 11  1  0
 11 12  2  0
 12 13  1  0
 13 14  2  0
 13 15  1  0
 12 16  1  0
 11 17  1  0
 10 18  1  0
  8 19  1  0
  6 20  1  0
  4 21  1  0
 21 22  2  0
 21 23  1  0
 23 24  1  1
 24 25  1  0
 25 26  1  0
 26 27  1  0
 27 28  1  0
 28 29  1  0
 29 30  1  0
 30 31  1  0
 31 32  1  0
 32 33  1  0
 33 34  1  0
 33 35  1  0
 33 36  1  0
 32 37  1  1
 31 38  1  0
 31 39  1  0
 30 40  1  6
 29 41  1  0
 29 42  1  0
 28 43  1  6
 27 44  1  0
 27 45  1  0
 26 46  1  0
 26 47  1  0
 25 48  1  0
 48 49  2  0
 48 50  1  0
 50 51  2  0
 51 52  1  0
 52 53  2  0
 53 54  1  0
 53 55  1  0
 55 56  2  0
 55 57  1  0
 52 58  1  0
 51 59  1  0
 24 60  1  0
 24 61  1  0
  3 62  1  0
  3 63  1  0
  2 64  1  6
  1 65  1  0
  1 66  1  0
  1 67  1  0
 23  2  1  0
 32 28  1  0
 56 50  1  0
 14  5  1  0
 56 23  1  0
 14  9  1  0
 34 30  1  0
M  CHG  1  28   1
M  END
>  <cnnaffinities>  (15) 
[6.60167]

>  <score>  (15) 
6.60167

>  <index>  (15) 
14

>  <Smiles>  (15) 
C([C@]1(C(N(c2c(nc(c3c(c(c(c(c23)[H])[H])[H])[H])[H])[H])C(=O)[C@]21C(N(C(C([N@@+]1(C([C@@]3(C([C@]1(C(O3)([H])[H])[H])([H])[H])[H])([H])[H])[H])([H])[H])([H])[H])C(=O)c1c(c(c(Cl)c(c21)[H])[H])[H])([H])[H])([H])[H])[H])([H])([H])[H]

>  <h>  (15) 
<NA>

>  <Training>  (15) 
True

>  <Success>  (15) 
True

>  <enamine_searched>  (15) 
False

>  <enamine_id>  (15) 
nan

$$$$

     RDKit          3D

 72 77  0  0  0  0  0  0  0  0999 V2000
    6.9588    7.7591   21.5492 C   0  0  0  0  0  0  0  0  0  0  0  0
    5.9770    6.6087   21.4663 C   0  0  1  0  0  0  0  0  0  0  0  0
    6.7083    5.2659   21.3846 C   0  0  0  0  0  0  0  0  0  0  0  0
    6.9326    4.6790   22.7309 N   0  0  2  0  0  4  0  0  0  0  0  0
    7.6367    3.3872   22.6078 C   0  0  0  0  0  0  0  0  0  0  0  0
    8.1136    2.9060   23.9677 C   0  0  0  0  0  0  0  0  0  0  0  0
    8.8068    1.6515   23.8372 N   0  0  0  0  0  0  0  0  0  0  0  0
    8.0862    0.3942   23.7744 C   0  0  0  0  0  0  0  0  0  0  0  0
    8.4664   -0.4326   22.5203 C   0  0  2  0  0  0  0  0  0  0  0  0
    8.0257    0.2000   21.1826 C   0  0  0  0  0  0  0  0  0  0  0  0
    8.5875    1.0726   20.5512 O   0  0  0  0  0  0  0  0  0  0  0  0
    6.8792   -0.4435   20.7798 N   0  0  0  0  0  0  0  0  0  0  0  0
    6.1119    0.0849   19.7228 C   0  0  0  0  0  0  0  0  0  0  0  0
    6.4543   -0.2086   18.4295 C   0  0  0  0  0  0  0  0  0  0  0  0
    5.7686    0.2313   17.3477 N   0  0  0  0  0  0  0  0  0  0  0  0
    4.7450    1.0189   17.5761 C   0  0  0  0  0  0  0  0  0  0  0  0
    4.3121    1.4263   18.8720 C   0  0  0  0  0  0  0  0  0  0  0  0
    3.2129    2.3007   19.0552 C   0  0  0  0  0  0  0  0  0  0  0  0
    2.8185    2.6641   20.3117 C   0  0  0  0  0  0  0  0  0  0  0  0
    3.5021    2.1768   21.4460 C   0  0  0  0  0  0  0  0  0  0  0  0
    4.5799    1.3371   21.3017 C   0  0  0  0  0  0  0  0  0  0  0  0
    5.0070    0.9401   19.9989 C   0  0  0  0  0  0  0  0  0  0  0  0
    5.1103    1.0007   22.1878 H   0  0  0  0  0  0  0  0  0  0  0  0
    3.1699    2.4732   22.4359 H   0  0  0  0  0  0  0  0  0  0  0  0
    1.9726    3.3309   20.4431 H   0  0  0  0  0  0  0  0  0  0  0  0
    2.7055    2.6687   18.1702 H   0  0  0  0  0  0  0  0  0  0  0  0
    4.1922    1.3775   16.7085 H   0  0  0  0  0  0  0  0  0  0  0  0
    7.3190   -0.8406   18.2386 H   0  0  0  0  0  0  0  0  0  0  0  0
    6.4543   -1.5148   21.6619 C   0  0  0  0  0  0  0  0  0  0  0  0
    7.7353   -1.8019   22.4447 C   0  0  2  0  0  0  0  0  0  0  0  0
    7.5601   -2.5549   23.7516 C   0  0  0  0  0  0  0  0  0  0  0  0
    7.0975   -3.5295   23.5671 H   0  0  0  0  0  0  0  0  0  0  0  0
    8.5298   -2.7205   24.2367 H   0  0  0  0  0  0  0  0  0  0  0  0
    6.9209   -1.9960   24.4446 H   0  0  0  0  0  0  0  0  0  0  0  0
    8.3244   -2.4267   21.7700 H   0  0  0  0  0  0  0  0  0  0  0  0
    5.6281   -1.2230   22.3289 H   0  0  0  0  0  0  0  0  0  0  0  0
    6.1313   -2.3804   21.0764 H   0  0  0  0  0  0  0  0  0  0  0  0
    9.9598   -0.5044   22.5176 C   0  0  0  0  0  0  0  0  0  0  0  0
   10.5699   -1.5135   21.8027 C   0  0  0  0  0  0  0  0  0  0  0  0
   11.9301   -1.5530   21.6586 C   0  0  0  0  0  0  0  0  0  0  0  0
   12.4093   -2.8761   20.6439 Cl  0  0  0  0  0  0  0  0  0  0  0  0
   12.7445   -0.5995   22.2823 C   0  0  0  0  0  0  0  0  0  0  0  0
   12.1405    0.4382   22.9557 C   0  0  0  0  0  0  0  0  0  0  0  0
   10.7594    0.5074   23.0447 C   0  0  0  0  0  0  0  0  0  0  0  0
   10.1489    1.7261   23.6283 C   0  0  0  0  0  0  0  0  0  0  0  0
   10.8127    2.7265   23.8770 O   0  0  0  0  0  0  0  0  0  0  0  0
   12.7353    1.2210   23.4130 H   0  0  0  0  0  0  0  0  0  0  0  0
   13.8231   -0.5998   22.2918 H   0  0  0  0  0  0  0  0  0  0  0  0
   10.0061   -2.3041   21.3376 H   0  0  0  0  0  0  0  0  0  0  0  0
    8.3625   -0.2088   24.6530 H   0  0  0  0  0  0  0  0  0  0  0  0
    7.0100    0.5963   23.8166 H   0  0  0  0  0  0  0  0  0  0  0  0
    8.8349    3.6280   24.3573 H   0  0  0  0  0  0  0  0  0  0  0  0
    7.2938    2.7932   24.6846 H   0  0  0  0  0  0  0  0  0  0  0  0
    8.5024    3.5068   21.9426 H   0  0  0  0  0  0  0  0  0  0  0  0
    6.9726    2.6478   22.1417 H   0  0  0  0  0  0  0  0  0  0  0  0
    5.6805    4.5950   23.6114 C   0  0  1  0  0  0  0  0  0  0  0  0
    6.0042    5.1252   25.0099 C   0  0  0  0  0  0  0  0  0  0  0  0
    5.1493    5.0022   25.6785 H   0  0  0  0  0  0  0  0  0  0  0  0
    6.2546    6.1871   24.9364 H   0  0  0  0  0  0  0  0  0  0  0  0
    6.8598    4.6115   25.4558 H   0  0  0  0  0  0  0  0  0  0  0  0
    4.5882    5.4114   22.9348 C   0  0  0  0  0  0  0  0  0  0  0  0
    5.1086    6.6752   22.5889 O   0  0  0  0  0  0  0  0  0  0  0  0
    3.7522    5.5707   23.6223 H   0  0  0  0  0  0  0  0  0  0  0  0
    4.1967    4.8866   22.0503 H   0  0  0  0  0  0  0  0  0  0  0  0
    5.3718    3.5436   23.6499 H   0  0  0  0  0  0  0  0  0  0  0  0
    7.5907    5.3076   23.2356 H   0  0  0  0  0  0  0  0  0  0  0  0
    7.6834    5.4212   20.9197 H   0  0  0  0  0  0  0  0  0  0  0  0
    6.1648    4.5392   20.7639 H   0  0  0  0  0  0  0  0  0  0  0  0
    5.3771    6.7006   20.5485 H   0  0  0  0  0  0  0  0  0  0  0  0
    6.4550    8.7264   21.5475 H   0  0  0  0  0  0  0  0  0  0  0  0
    7.5769    7.6732   22.4493 H   0  0  0  0  0  0  0  0  0  0  0  0
    7.6137    7.6971   20.6809 H   0  0  0  0  0  0  0  0  0  0  0  0
  1  2  1  0
  2  3  1  0
  3  4  1  0
  4  5  1  0
  5  6  1  0
  6  7  1  0
  7  8  1  0
  9  8  1  1
  9 10  1  0
 10 11  2  0
 10 12  1  0
 12 13  1  0
 13 14  2  0
 14 15  1  0
 15 16  2  0
 16 17  1  0
 17 18  2  0
 18 19  1  0
 19 20  2  0
 20 21  1  0
 21 22  2  0
 21 23  1  0
 20 24  1  0
 19 25  1  0
 18 26  1  0
 16 27  1  0
 14 28  1  0
 12 29  1  0
 29 30  1  0
 30 31  1  0
 31 32  1  0
 31 33  1  0
 31 34  1  0
 30 35  1  6
 29 36  1  0
 29 37  1  0
  9 38  1  0
 38 39  2  0
 39 40  1  0
 40 41  1  0
 40 42  2  0
 42 43  1  0
 43 44  2  0
 44 45  1  0
 45 46  2  0
 43 47  1  0
 42 48  1  0
 39 49  1  0
  8 50  1  0
  8 51  1  0
  6 52  1  0
  6 53  1  0
  5 54  1  0
  5 55  1  0
  4 56  1  0
 56 57  1  0
 57 58  1  0
 57 59  1  0
 57 60  1  0
 56 61  1  0
 61 62  1  0
 61 63  1  0
 61 64  1  0
 56 65  1  1
  4 66  1  1
  3 67  1  0
  3 68  1  0
  2 69  1  6
  1 70  1  0
  1 71  1  0
  1 72  1  0
 62  2  1  0
 45  7  1  0
 30  9  1  0
 44 38  1  0
 22 13  1  0
 22 17  1  0
M  CHG  1   4   1
M  END
>  <cnnaffinities>  (16) 
[6.57564]

>  <score>  (16) 
6.57564

>  <index>  (16) 
15

>  <Smiles>  (16) 
C([C@]1(C([N@+](C(C(N2C([C@@]3(C(=O)N(c4c(nc(c5c(c(c(c(c45)[H])[H])[H])[H])[H])[H])C([C@@]3(C([H])([H])[H])[H])([H])[H])c3c(c(Cl)c(c(c3C2=O)[H])[H])[H])([H])[H])([H])[H])([H])[H])([C@@](C([H])([H])[H])(C(O1)([H])[H])[H])[H])([H])[H])[H])([H])([H])[H]

>  <h>  (16) 
<NA>

>  <Training>  (16) 
True

>  <Success>  (16) 
True

>  <enamine_searched>  (16) 
False

>  <enamine_id>  (16) 
nan

$$$$

     RDKit          3D

 47 50  0  0  0  0  0  0  0  0999 V2000
    8.6668   -4.4499   23.9662 C   0  0  0  0  0  0  0  0  0  0  0  0
    7.3789   -3.7546   24.4084 C   0  0  1  0  0  0  0  0  0  0  0  0
    7.6841   -2.3507   24.9412 C   0  0  0  0  0  0  0  0  0  0  0  0
    7.4161   -1.3734   23.7821 C   0  0  2  0  0  0  0  0  0  0  0  0
    6.6545   -0.1513   24.2638 C   0  0  0  0  0  0  0  0  0  0  0  0
    5.3234   -0.2560   24.6720 C   0  0  0  0  0  0  0  0  0  0  0  0
    4.6288    0.8581   25.1246 C   0  0  0  0  0  0  0  0  0  0  0  0
    5.2631    2.0963   25.1906 C   0  0  0  0  0  0  0  0  0  0  0  0
    6.5999    2.2048   24.8165 C   0  0  0  0  0  0  0  0  0  0  0  0
    7.2905    1.0845   24.3628 C   0  0  0  0  0  0  0  0  0  0  0  0
    8.3357    1.1750   24.0702 H   0  0  0  0  0  0  0  0  0  0  0  0
    7.1039    3.1655   24.8591 H   0  0  0  0  0  0  0  0  0  0  0  0
    4.7178    2.9706   25.5305 H   0  0  0  0  0  0  0  0  0  0  0  0
    3.5898    0.7601   25.4281 H   0  0  0  0  0  0  0  0  0  0  0  0
    4.8200   -1.2187   24.6466 H   0  0  0  0  0  0  0  0  0  0  0  0
    6.6961   -2.1639   22.7888 N   0  0  0  0  0  0  0  0  0  0  0  0
    6.2496   -1.7386   21.5619 C   0  0  0  0  0  0  0  0  0  0  0  0
    5.3915   -2.3617   20.9574 O   0  0  0  0  0  0  0  0  0  0  0  0
    6.9139   -0.4915   20.9198 C   0  0  0  0  0  0  0  0  0  0  0  0
    6.1122    0.0833   19.7728 C   0  0  0  0  0  0  0  0  0  0  0  0
    6.4198   -0.2161   18.4703 C   0  0  0  0  0  0  0  0  0  0  0  0
    5.7565    0.2355   17.3680 N   0  0  0  0  0  0  0  0  0  0  0  0
    4.7367    1.0306   17.5773 C   0  0  0  0  0  0  0  0  0  0  0  0
    4.2863    1.4222   18.8687 C   0  0  0  0  0  0  0  0  0  0  0  0
    3.1668    2.2746   19.0452 C   0  0  0  0  0  0  0  0  0  0  0  0
    2.7523    2.6274   20.2976 C   0  0  0  0  0  0  0  0  0  0  0  0
    3.4458    2.1355   21.4301 C   0  0  0  0  0  0  0  0  0  0  0  0
    4.5330    1.3100   21.2967 C   0  0  0  0  0  0  0  0  0  0  0  0
    4.9880    0.9343   20.0034 C   0  0  0  0  0  0  0  0  0  0  0  0
    5.0486    0.9471   22.1889 H   0  0  0  0  0  0  0  0  0  0  0  0
    3.1088    2.4265   22.4194 H   0  0  0  0  0  0  0  0  0  0  0  0
    1.8961    3.2853   20.4373 H   0  0  0  0  0  0  0  0  0  0  0  0
    2.6487    2.6467   18.1617 H   0  0  0  0  0  0  0  0  0  0  0  0
    4.2018    1.3993   16.6975 H   0  0  0  0  0  0  0  0  0  0  0  0
    7.2648   -0.8673   18.2449 H   0  0  0  0  0  0  0  0  0  0  0  0
    7.1492    0.2842   21.6595 H   0  0  0  0  0  0  0  0  0  0  0  0
    7.8820   -0.8255   20.5202 H   0  0  0  0  0  0  0  0  0  0  0  0
    6.4159   -3.5229   23.2381 C   0  0  0  0  0  0  0  0  0  0  0  0
    5.3651   -3.6581   23.5273 H   0  0  0  0  0  0  0  0  0  0  0  0
    6.5959   -4.2144   22.4123 H   0  0  0  0  0  0  0  0  0  0  0  0
    8.3624   -1.0438   23.3426 H   0  0  0  0  0  0  0  0  0  0  0  0
    7.0617   -2.1204   25.8083 H   0  0  0  0  0  0  0  0  0  0  0  0
    8.7153   -2.2757   25.2911 H   0  0  0  0  0  0  0  0  0  0  0  0
    6.8968   -4.3530   25.1853 H   0  0  0  0  0  0  0  0  0  0  0  0
    9.2163   -3.8634   23.2258 H   0  0  0  0  0  0  0  0  0  0  0  0
    8.4708   -5.3654   23.4114 H   0  0  0  0  0  0  0  0  0  0  0  0
    9.3269   -4.6499   24.8229 H   0  0  0  0  0  0  0  0  0  0  0  0
  1  2  1  0
  2  3  1  0
  3  4  1  0
  4  5  1  0
  5  6  2  0
  6  7  1  0
  7  8  2  0
  8  9  1  0
  9 10  2  0
 10 11  1  0
  9 12  1  0
  8 13  1  0
  7 14  1  0
  6 15  1  0
  4 16  1  0
 16 17  1  0
 17 18  2  0
 17 19  1  0
 19 20  1  0
 20 21  2  0
 21 22  1  0
 22 23  2  0
 23 24  1  0
 24 25  2  0
 25 26  1  0
 26 27  2  0
 27 28  1  0
 28 29  2  0
 28 30  1  0
 27 31  1  0
 26 32  1  0
 25 33  1  0
 23 34  1  0
 21 35  1  0
 19 36  1  0
 19 37  1  0
 16 38  1  0
 38 39  1  0
 38 40  1  0
  4 41  1  6
  3 42  1  0
  3 43  1  0
  2 44  1  1
  1 45  1  0
  1 46  1  0
  1 47  1  0
 38  2  1  0
 10  5  1  0
 29 20  1  0
 29 24  1  0
M  END
>  <cnnaffinities>  (17) 
[5.27471, 5.46363]

>  <score>  (17) 
5.27471

>  <index>  (17) 
16

>  <Smiles>  (17) 
C([C@]1(C([C@](c2c(c(c(c(c2[H])[H])[H])[H])[H])(N(C(=O)C(c2c(nc(c3c(c(c(c(c23)[H])[H])[H])[H])[H])[H])([H])[H])C1([H])[H])[H])([H])[H])[H])([H])([H])[H]

>  <h>  (17) 
<NA>

>  <Training>  (17) 
True

>  <Success>  (17) 
True

>  <enamine_searched>  (17) 
False

>  <enamine_id>  (17) 
nan

$$$$

     RDKit          3D

 58 63  0  0  0  0  0  0  0  0999 V2000
    7.5565   -2.9817   23.3435 C   0  0  0  0  0  0  0  0  0  0  0  0
    7.8429   -1.9321   22.2695 C   0  0  1  0  0  0  0  0  0  0  0  0
    6.7462   -1.8218   21.2044 C   0  0  0  0  0  0  0  0  0  0  0  0
    6.8712   -0.4563   20.7395 N   0  0  0  0  0  0  0  0  0  0  0  0
    6.0928    0.0830   19.7079 C   0  0  0  0  0  0  0  0  0  0  0  0
    6.4159   -0.2365   18.4180 C   0  0  0  0  0  0  0  0  0  0  0  0
    5.7524    0.2279   17.3378 N   0  0  0  0  0  0  0  0  0  0  0  0
    4.7403    1.0319   17.5680 C   0  0  0  0  0  0  0  0  0  0  0  0
    4.2985    1.4212   18.8653 C   0  0  0  0  0  0  0  0  0  0  0  0
    3.1794    2.2723   19.0459 C   0  0  0  0  0  0  0  0  0  0  0  0
    2.7494    2.6105   20.2987 C   0  0  0  0  0  0  0  0  0  0  0  0
    3.4219    2.1143   21.4386 C   0  0  0  0  0  0  0  0  0  0  0  0
    4.5140    1.2972   21.2947 C   0  0  0  0  0  0  0  0  0  0  0  0
    4.9871    0.9376   19.9934 C   0  0  0  0  0  0  0  0  0  0  0  0
    5.0166    0.9356   22.1880 H   0  0  0  0  0  0  0  0  0  0  0  0
    3.0728    2.3825   22.4330 H   0  0  0  0  0  0  0  0  0  0  0  0
    1.8881    3.2596   20.4249 H   0  0  0  0  0  0  0  0  0  0  0  0
    2.6773    2.6455   18.1597 H   0  0  0  0  0  0  0  0  0  0  0  0
    4.1976    1.4046   16.7007 H   0  0  0  0  0  0  0  0  0  0  0  0
    7.2706   -0.8889   18.2381 H   0  0  0  0  0  0  0  0  0  0  0  0
    7.5901    0.3665   21.5610 C   0  0  0  0  0  0  0  0  0  0  0  0
    7.7623    1.5541   21.3599 O   0  0  0  0  0  0  0  0  0  0  0  0
    8.0498   -0.4518   22.7529 C   0  0  1  0  0  0  0  0  0  0  0  0
    7.1418   -0.0129   23.9405 C   0  0  0  0  0  0  0  0  0  0  0  0
    7.6037   -0.5752   25.1966 N   0  0  0  0  0  0  0  0  0  0  0  0
    6.7115   -0.9571   26.2869 C   0  0  0  0  0  0  0  0  0  0  0  0
    6.4221    0.2072   27.1829 C   0  0  0  0  0  0  0  0  0  0  0  0
    7.1045    0.5454   28.2422 N   0  0  0  0  0  0  0  0  0  0  0  0
    6.5418    1.6903   28.7562 N   0  0  0  0  0  0  0  0  0  0  0  0
    5.5332    1.9945   27.9873 C   0  0  0  0  0  0  0  0  0  0  0  0
    5.4067    1.0969   26.9683 N   0  0  0  0  0  0  0  0  0  0  0  0
    4.4062    1.0501   25.9216 C   0  0  0  0  0  0  0  0  0  0  0  0
    4.1139    0.0099   25.7548 H   0  0  0  0  0  0  0  0  0  0  0  0
    3.5263    1.6079   26.2476 H   0  0  0  0  0  0  0  0  0  0  0  0
    4.7785    1.4768   24.9808 H   0  0  0  0  0  0  0  0  0  0  0  0
    4.8461    2.8193   28.1295 H   0  0  0  0  0  0  0  0  0  0  0  0
    7.2417   -1.7083   26.8790 H   0  0  0  0  0  0  0  0  0  0  0  0
    5.7837   -1.4077   25.9113 H   0  0  0  0  0  0  0  0  0  0  0  0
    8.9333   -0.7965   25.4124 C   0  0  0  0  0  0  0  0  0  0  0  0
    9.3208   -1.4462   26.3681 O   0  0  0  0  0  0  0  0  0  0  0  0
    9.8679   -0.2124   24.4042 C   0  0  0  0  0  0  0  0  0  0  0  0
   11.1714    0.1040   24.7498 C   0  0  0  0  0  0  0  0  0  0  0  0
   12.1511    0.2730   23.7958 C   0  0  0  0  0  0  0  0  0  0  0  0
   11.7664    0.1738   22.4640 C   0  0  0  0  0  0  0  0  0  0  0  0
   12.7227    0.2668   21.5315 F   0  0  0  0  0  0  0  0  0  0  0  0
   10.4513   -0.0015   22.0789 C   0  0  0  0  0  0  0  0  0  0  0  0
    9.4869   -0.1782   23.0744 C   0  0  0  0  0  0  0  0  0  0  0  0
   10.1680   -0.0412   21.0288 H   0  0  0  0  0  0  0  0  0  0  0  0
   13.1933    0.4313   24.0536 H   0  0  0  0  0  0  0  0  0  0  0  0
   11.3859    0.2069   25.7891 H   0  0  0  0  0  0  0  0  0  0  0  0
    6.1038   -0.3227   23.7301 H   0  0  0  0  0  0  0  0  0  0  0  0
    7.1754    1.0908   23.9726 H   0  0  0  0  0  0  0  0  0  0  0  0
    6.8767   -2.5041   20.3650 H   0  0  0  0  0  0  0  0  0  0  0  0
    5.7543   -2.0063   21.6436 H   0  0  0  0  0  0  0  0  0  0  0  0
    8.7833   -2.2129   21.7695 H   0  0  0  0  0  0  0  0  0  0  0  0
    6.6089   -2.7673   23.8513 H   0  0  0  0  0  0  0  0  0  0  0  0
    7.4774   -3.9822   22.9021 H   0  0  0  0  0  0  0  0  0  0  0  0
    8.3521   -3.0002   24.0978 H   0  0  0  0  0  0  0  0  0  0  0  0
  1  2  1  0
  2  3  1  0
  3  4  1  0
  4  5  1  0
  5  6  2  0
  6  7  1  0
  7  8  2  0
  8  9  1  0
  9 10  2  0
 10 11  1  0
 11 12  2  0
 12 13  1  0
 13 14  2  0
 13 15  1  0
 12 16  1  0
 11 17  1  0
 10 18  1  0
  8 19  1  0
  6 20  1  0
  4 21  1  0
 21 22  2  0
 21 23  1  0
 23 24  1  1
 24 25  1  0
 25 26  1  0
 26 27  1  0
 27 28  2  0
 28 29  1  0
 29 30  2  0
 30 31  1  0
 31 32  1  0
 32 33  1  0
 32 34  1  0
 32 35  1  0
 30 36  1  0
 26 37  1  0
 26 38  1  0
 25 39  1  0
 39 40  2  0
 39 41  1  0
 41 42  2  0
 42 43  1  0
 43 44  2  0
 44 45  1  0
 44 46  1  0
 46 47  2  0
 46 48  1  0
 43 49  1  0
 42 50  1  0
 24 51  1  0
 24 52  1  0
  3 53  1  0
  3 54  1  0
  2 55  1  6
  1 56  1  0
  1 57  1  0
  1 58  1  0
 23  2  1  0
 31 27  1  0
 47 41  1  0
 14  5  1  0
 47 23  1  0
 14  9  1  0
M  END
>  <cnnaffinities>  (18) 
[6.26889]

>  <score>  (18) 
6.26889

>  <index>  (18) 
17

>  <Smiles>  (18) 
C([C@]1(C(N(c2c(nc(c3c(c(c(c(c23)[H])[H])[H])[H])[H])[H])C(=O)[C@]21C(N(C(c1nnc(n1C([H])([H])[H])[H])([H])[H])C(=O)c1c(c(c(F)c(c21)[H])[H])[H])([H])[H])([H])[H])[H])([H])([H])[H]

>  <h>  (18) 
<NA>

>  <Training>  (18) 
True

>  <Success>  (18) 
True

>  <enamine_searched>  (18) 
False

>  <enamine_id>  (18) 
nan

$$$$

     RDKit          3D

 50 53  0  0  0  0  0  0  0  0999 V2000
    6.0167   -1.0392   29.7333 C   0  0  0  0  0  0  0  0  0  0  0  0
    6.3583   -0.7189   28.2854 C   0  0  1  0  0  0  0  0  0  0  0  0
    7.4404   -1.6526   27.7430 C   0  0  0  0  0  0  0  0  0  0  0  0
    7.7839   -1.3354   26.2897 C   0  0  0  0  0  0  0  0  0  0  0  0
    6.5725   -1.3717   25.3443 C   0  0  2  0  0  0  0  0  0  0  0  0
    6.0790   -2.8119   25.1046 C   0  0  0  0  0  0  0  0  0  0  0  0
    5.5578   -2.8604   23.6671 C   0  0  0  0  0  0  0  0  0  0  0  0
    6.2191   -1.7443   22.9888 N   0  0  0  0  0  0  0  0  0  0  0  0
    6.1680   -1.6425   21.6258 C   0  0  0  0  0  0  0  0  0  0  0  0
    5.5421   -2.4515   20.9591 O   0  0  0  0  0  0  0  0  0  0  0  0
    6.9124   -0.4841   20.9192 C   0  0  0  0  0  0  0  0  0  0  0  0
    6.1146    0.0895   19.7680 C   0  0  0  0  0  0  0  0  0  0  0  0
    6.4211   -0.2149   18.4643 C   0  0  0  0  0  0  0  0  0  0  0  0
    5.7571    0.2357   17.3644 N   0  0  0  0  0  0  0  0  0  0  0  0
    4.7356    1.0313   17.5744 C   0  0  0  0  0  0  0  0  0  0  0  0
    4.2868    1.4240   18.8676 C   0  0  0  0  0  0  0  0  0  0  0  0
    3.1644    2.2755   19.0427 C   0  0  0  0  0  0  0  0  0  0  0  0
    2.7502    2.6277   20.2999 C   0  0  0  0  0  0  0  0  0  0  0  0
    3.4411    2.1403   21.4317 C   0  0  0  0  0  0  0  0  0  0  0  0
    4.5314    1.3164   21.2892 C   0  0  0  0  0  0  0  0  0  0  0  0
    4.9888    0.9395   19.9965 C   0  0  0  0  0  0  0  0  0  0  0  0
    5.0475    0.9542   22.1738 H   0  0  0  0  0  0  0  0  0  0  0  0
    3.1062    2.4275   22.4231 H   0  0  0  0  0  0  0  0  0  0  0  0
    1.8935    3.2821   20.4362 H   0  0  0  0  0  0  0  0  0  0  0  0
    2.6432    2.6463   18.1632 H   0  0  0  0  0  0  0  0  0  0  0  0
    4.1989    1.4002   16.6989 H   0  0  0  0  0  0  0  0  0  0  0  0
    7.2664   -0.8672   18.2480 H   0  0  0  0  0  0  0  0  0  0  0  0
    7.2130    0.3137   21.6084 H   0  0  0  0  0  0  0  0  0  0  0  0
    7.8429   -0.9046   20.5145 H   0  0  0  0  0  0  0  0  0  0  0  0
    6.9605   -0.9054   23.9187 C   0  0  0  0  0  0  0  0  0  0  0  0
    8.0402   -1.0080   23.7520 H   0  0  0  0  0  0  0  0  0  0  0  0
    6.7117    0.1514   23.7759 H   0  0  0  0  0  0  0  0  0  0  0  0
    4.4693   -2.7504   23.6304 H   0  0  0  0  0  0  0  0  0  0  0  0
    5.8062   -3.8075   23.1858 H   0  0  0  0  0  0  0  0  0  0  0  0
    5.3121   -3.1147   25.8229 H   0  0  0  0  0  0  0  0  0  0  0  0
    6.9076   -3.5160   25.2374 H   0  0  0  0  0  0  0  0  0  0  0  0
    5.4490   -0.4785   25.9218 C   0  0  0  0  0  0  0  0  0  0  0  0
    5.1189   -0.7580   27.3904 C   0  0  0  0  0  0  0  0  0  0  0  0
    4.3807   -0.0282   27.7489 H   0  0  0  0  0  0  0  0  0  0  0  0
    4.6339   -1.7374   27.4880 H   0  0  0  0  0  0  0  0  0  0  0  0
    4.5478   -0.5798   25.3057 H   0  0  0  0  0  0  0  0  0  0  0  0
    5.7566    0.5726   25.8418 H   0  0  0  0  0  0  0  0  0  0  0  0
    8.5678   -2.0124   25.9294 H   0  0  0  0  0  0  0  0  0  0  0  0
    8.2201   -0.3381   26.2414 H   0  0  0  0  0  0  0  0  0  0  0  0
    8.3390   -1.5886   28.3707 H   0  0  0  0  0  0  0  0  0  0  0  0
    7.0960   -2.6912   27.8147 H   0  0  0  0  0  0  0  0  0  0  0  0
    6.7574    0.3029   28.2471 H   0  0  0  0  0  0  0  0  0  0  0  0
    5.2605   -0.3536   30.1270 H   0  0  0  0  0  0  0  0  0  0  0  0
    5.6194   -2.0556   29.8166 H   0  0  0  0  0  0  0  0  0  0  0  0
    6.9012   -0.9773   30.3745 H   0  0  0  0  0  0  0  0  0  0  0  0
  1  2  1  0
  2  3  1  0
  3  4  1  0
  5  4  1  1
  5  6  1  0
  6  7  1  0
  7  8  1  0
  8  9  1  0
  9 10  2  0
  9 11  1  0
 11 12  1  0
 12 13  2  0
 13 14  1  0
 14 15  2  0
 15 16  1  0
 16 17  2  0
 17 18  1  0
 18 19  2  0
 19 20  1  0
 20 21  2  0
 20 22  1  0
 19 23  1  0
 18 24  1  0
 17 25  1  0
 15 26  1  0
 13 27  1  0
 11 28  1  0
 11 29  1  0
  8 30  1  0
 30 31  1  0
 30 32  1  0
  7 33  1  0
  7 34  1  0
  6 35  1  0
  6 36  1  0
  5 37  1  0
 37 38  1  0
 38 39  1  0
 38 40  1  0
 37 41  1  0
 37 42  1  0
  4 43  1  0
  4 44  1  0
  3 45  1  0
  3 46  1  0
  2 47  1  1
  1 48  1  0
  1 49  1  0
  1 50  1  0
 38  2  1  0
 30  5  1  0
 21 12  1  0
 21 16  1  0
M  END
>  <cnnaffinities>  (19) 
[5.59293, 5.48588]

>  <score>  (19) 
5.59293

>  <index>  (19) 
18

>  <Smiles>  (19) 
C([C@]1(C(C([C@@]2(C(C(N(C(=O)C(c3c(nc(c4c(c(c(c(c34)[H])[H])[H])[H])[H])[H])([H])[H])C2([H])[H])([H])[H])([H])[H])C(C1([H])[H])([H])[H])([H])[H])([H])[H])[H])([H])([H])[H]

>  <h>  (19) 
<NA>

>  <Training>  (19) 
True

>  <Success>  (19) 
True

>  <enamine_searched>  (19) 
False

>  <enamine_id>  (19) 
nan

$$$$

     RDKit          3D

 67 71  0  0  0  0  0  0  0  0999 V2000
    3.3226   -5.2166   21.8371 O   0  0  0  0  0  0  0  0  0  0  0  0
    4.0285   -5.7816   22.6549 C   0  0  0  0  0  0  0  0  0  0  0  0
    5.5145   -5.5517   22.4793 C   0  0  0  0  0  0  0  0  0  0  0  0
    5.7988   -4.1105   22.6382 N   0  0  1  0  0  4  0  0  0  0  0  0
    5.1577   -3.5971   23.8865 C   0  0  0  0  0  0  0  0  0  0  0  0
    5.5038   -2.1685   24.2213 C   0  0  0  0  0  0  0  0  0  0  0  0
    4.7184   -1.4634   25.1350 C   0  0  0  0  0  0  0  0  0  0  0  0
    5.0718   -0.1854   25.5487 C   0  0  0  0  0  0  0  0  0  0  0  0
    6.2426    0.3804   25.0481 C   0  0  0  0  0  0  0  0  0  0  0  0
    6.7109    1.9789   25.5656 Cl  0  0  0  0  0  0  0  0  0  0  0  0
    7.0227   -0.2958   24.1210 C   0  0  0  0  0  0  0  0  0  0  0  0
    6.6334   -1.5633   23.6775 C   0  0  0  0  0  0  0  0  0  0  0  0
    7.3393   -2.2408   22.5215 C   0  0  2  0  0  0  0  0  0  0  0  0
    6.6436   -1.8060   21.2179 C   0  0  0  0  0  0  0  0  0  0  0  0
    5.9087   -2.5469   20.5772 O   0  0  0  0  0  0  0  0  0  0  0  0
    6.8375   -0.5047   20.8321 N   0  0  0  0  0  0  0  0  0  0  0  0
    6.1041    0.0535   19.7553 C   0  0  0  0  0  0  0  0  0  0  0  0
    6.4338   -0.2574   18.4641 C   0  0  0  0  0  0  0  0  0  0  0  0
    5.7867    0.2243   17.3726 N   0  0  0  0  0  0  0  0  0  0  0  0
    4.7706    1.0255   17.5822 C   0  0  0  0  0  0  0  0  0  0  0  0
    4.3147    1.4219   18.8728 C   0  0  0  0  0  0  0  0  0  0  0  0
    3.1951    2.2743   19.0482 C   0  0  0  0  0  0  0  0  0  0  0  0
    2.7760    2.6151   20.3052 C   0  0  0  0  0  0  0  0  0  0  0  0
    3.4579    2.1232   21.4415 C   0  0  0  0  0  0  0  0  0  0  0  0
    4.5442    1.2981   21.3004 C   0  0  0  0  0  0  0  0  0  0  0  0
    4.9996    0.9292   20.0041 C   0  0  0  0  0  0  0  0  0  0  0  0
    5.0449    0.9094   22.1839 H   0  0  0  0  0  0  0  0  0  0  0  0
    3.1127    2.4062   22.4325 H   0  0  0  0  0  0  0  0  0  0  0  0
    1.9184    3.2675   20.4389 H   0  0  0  0  0  0  0  0  0  0  0  0
    2.6842    2.6444   18.1641 H   0  0  0  0  0  0  0  0  0  0  0  0
    4.2389    1.3969   16.7051 H   0  0  0  0  0  0  0  0  0  0  0  0
    7.2778   -0.9170   18.2784 H   0  0  0  0  0  0  0  0  0  0  0  0
    7.2342    0.1446   21.4969 H   0  0  0  0  0  0  0  0  0  0  0  0
    7.2464   -3.7616   22.6345 C   0  0  0  0  0  0  0  0  0  0  0  0
    7.7499   -4.2398   21.7906 H   0  0  0  0  0  0  0  0  0  0  0  0
    7.7109   -4.1270   23.5591 H   0  0  0  0  0  0  0  0  0  0  0  0
    8.3835   -1.9127   22.4883 H   0  0  0  0  0  0  0  0  0  0  0  0
    7.9266    0.1736   23.7400 H   0  0  0  0  0  0  0  0  0  0  0  0
    4.4581    0.3644   26.2561 H   0  0  0  0  0  0  0  0  0  0  0  0
    3.8163   -1.9213   25.5385 H   0  0  0  0  0  0  0  0  0  0  0  0
    5.4631   -4.2585   24.7099 H   0  0  0  0  0  0  0  0  0  0  0  0
    4.0749   -3.6862   23.7789 H   0  0  0  0  0  0  0  0  0  0  0  0
    5.3983   -3.6359   21.7971 H   0  0  0  0  0  0  0  0  0  0  0  0
    6.1134   -6.1384   23.1518 H   0  0  0  0  0  0  0  0  0  0  0  0
    5.7246   -5.8703   21.4549 H   0  0  0  0  0  0  0  0  0  0  0  0
    3.5462   -6.5474   23.6684 N   0  0  0  0  0  0  0  0  0  0  0  0
    2.1262   -6.9102   23.7264 C   0  0  0  0  0  0  0  0  0  0  0  0
    1.2691   -5.6428   23.5957 C   0  0  0  0  0  0  0  0  0  0  0  0
   -0.2234   -5.7446   23.6022 C   0  0  0  0  0  0  0  0  0  0  0  0
   -0.9543   -5.6878   24.7859 C   0  0  0  0  0  0  0  0  0  0  0  0
   -2.3361   -5.8419   24.7654 C   0  0  0  0  0  0  0  0  0  0  0  0
   -3.0056   -6.0202   23.5588 C   0  0  0  0  0  0  0  0  0  0  0  0
   -4.4836   -6.2449   23.5396 C   0  0  0  0  0  0  0  0  0  0  0  0
   -5.0989   -5.3283   22.7371 F   0  0  0  0  0  0  0  0  0  0  0  0
   -4.7587   -7.4744   23.0120 F   0  0  0  0  0  0  0  0  0  0  0  0
   -4.9331   -6.1875   24.5380 H   0  0  0  0  0  0  0  0  0  0  0  0
   -2.2906   -5.9916   22.3622 C   0  0  0  0  0  0  0  0  0  0  0  0
   -0.9116   -5.8368   22.3883 C   0  0  0  0  0  0  0  0  0  0  0  0
   -0.3608   -5.7662   21.4495 H   0  0  0  0  0  0  0  0  0  0  0  0
   -2.8166   -6.0842   21.4150 H   0  0  0  0  0  0  0  0  0  0  0  0
   -2.8916   -5.8116   25.7021 H   0  0  0  0  0  0  0  0  0  0  0  0
   -0.4349   -5.5056   25.7247 H   0  0  0  0  0  0  0  0  0  0  0  0
    1.6103   -4.9363   24.3669 H   0  0  0  0  0  0  0  0  0  0  0  0
    1.5347   -5.2493   22.6211 H   0  0  0  0  0  0  0  0  0  0  0  0
    1.9533   -7.4315   24.6679 H   0  0  0  0  0  0  0  0  0  0  0  0
    1.8886   -7.6167   22.9200 H   0  0  0  0  0  0  0  0  0  0  0  0
    4.1413   -6.7342   24.4573 H   0  0  0  0  0  0  0  0  0  0  0  0
  1  2  2  0
  2  3  1  0
  3  4  1  0
  4  5  1  0
  5  6  1  0
  6  7  2  0
  7  8  1  0
  8  9  2  0
  9 10  1  0
  9 11  1  0
 11 12  2  0
 12 13  1  0
 13 14  1  0
 14 15  2  0
 14 16  1  0
 16 17  1  0
 17 18  2  0
 18 19  1  0
 19 20  2  0
 20 21  1  0
 21 22  2  0
 22 23  1  0
 23 24  2  0
 24 25  1  0
 25 26  2  0
 25 27  1  0
 24 28  1  0
 23 29  1  0
 22 30  1  0
 20 31  1  0
 18 32  1  0
 16 33  1  0
 13 34  1  0
 34 35  1  0
 34 36  1  0
 13 37  1  6
 11 38  1  0
  8 39  1  0
  7 40  1  0
  5 41  1  0
  5 42  1  0
  4 43  1  6
  3 44  1  0
  3 45  1  0
  2 46  1  0
 46 47  1  0
 47 48  1  0
 48 49  1  0
 49 50  2  0
 50 51  1  0
 51 52  2  0
 52 53  1  0
 53 54  1  0
 53 55  1  0
 53 56  1  0
 52 57  1  0
 57 58  2  0
 58 59  1  0
 57 60  1  0
 51 61  1  0
 50 62  1  0
 48 63  1  0
 48 64  1  0
 47 65  1  0
 47 66  1  0
 46 67  1  0
 34  4  1  0
 58 49  1  0
 12  6  1  0
 26 17  1  0
 26 21  1  0
M  CHG  1   4   1
M  END
>  <cnnaffinities>  (20) 
[5.96572, 5.8276]

>  <score>  (20) 
5.96572

>  <index>  (20) 
19

>  <Smiles>  (20) 
O=C(C([N@+]1(C(c2c(c(c(Cl)c(c2[C@](C(=O)N(c2c(nc(c3c(c(c(c(c23)[H])[H])[H])[H])[H])[H])[H])(C1([H])[H])[H])[H])[H])[H])([H])[H])[H])([H])[H])N(C(C(c1c(c(c(C(F)(F)[H])c(c1[H])[H])[H])[H])([H])[H])([H])[H])[H]

>  <h>  (20) 
<NA>

>  <Training>  (20) 
True

>  <Success>  (20) 
True

>  <enamine_searched>  (20) 
False

>  <enamine_id>  (20) 
nan

$$$$

     RDKit          3D

 66 70  0  0  0  0  0  0  0  0999 V2000
    4.1627    7.1891   21.3972 C   0  0  0  0  0  0  0  0  0  0  0  0
    5.3554    6.2816   21.1089 C   0  0  0  0  0  0  0  0  0  0  0  0
    5.7877    5.4318   22.2881 C   0  0  0  0  0  0  0  0  0  0  0  0
    5.0609    4.5596   22.7124 O   0  0  0  0  0  0  0  0  0  0  0  0
    7.0639    5.6758   22.8062 N   0  0  0  0  0  0  0  0  0  0  0  0
    7.5683    7.0360   22.9886 C   0  0  0  0  0  0  0  0  0  0  0  0
    8.1316    7.1921   24.3941 C   0  0  0  0  0  0  0  0  0  0  0  0
    9.2985    6.2207   24.5646 C   0  0  0  0  0  0  0  0  0  0  0  0
    9.0126    4.8473   23.9864 C   0  0  0  0  0  0  0  0  0  0  0  0
    9.8588    3.7757   24.2783 C   0  0  0  0  0  0  0  0  0  0  0  0
    9.5052    2.4598   23.9881 C   0  0  0  0  0  0  0  0  0  0  0  0
    8.3912    2.2361   23.1780 C   0  0  0  0  0  0  0  0  0  0  0  0
    8.0092    0.9137   22.7874 N   0  0  0  0  0  0  0  0  0  0  0  0
    7.8911    0.7115   21.3971 C   0  0  0  0  0  0  0  0  0  0  0  0
    8.4722    1.4377   20.6246 O   0  0  0  0  0  0  0  0  0  0  0  0
    6.9792   -0.4098   20.9131 C   0  0  0  0  0  0  0  0  0  0  0  0
    6.1141    0.0719   19.7739 C   0  0  0  0  0  0  0  0  0  0  0  0
    6.4322   -0.2207   18.4715 C   0  0  0  0  0  0  0  0  0  0  0  0
    5.7659    0.2248   17.3729 N   0  0  0  0  0  0  0  0  0  0  0  0
    4.7454    1.0191   17.5828 C   0  0  0  0  0  0  0  0  0  0  0  0
    4.2978    1.4175   18.8725 C   0  0  0  0  0  0  0  0  0  0  0  0
    3.1887    2.2847   19.0481 C   0  0  0  0  0  0  0  0  0  0  0  0
    2.7849    2.6540   20.3032 C   0  0  0  0  0  0  0  0  0  0  0  0
    3.4749    2.1709   21.4386 C   0  0  0  0  0  0  0  0  0  0  0  0
    4.5593    1.3403   21.2906 C   0  0  0  0  0  0  0  0  0  0  0  0
    5.0021    0.9335   20.0031 C   0  0  0  0  0  0  0  0  0  0  0  0
    5.0845    1.0018   22.1814 H   0  0  0  0  0  0  0  0  0  0  0  0
    3.1772    2.4864   22.4348 H   0  0  0  0  0  0  0  0  0  0  0  0
    1.9402    3.3261   20.4304 H   0  0  0  0  0  0  0  0  0  0  0  0
    2.6814    2.6567   18.1605 H   0  0  0  0  0  0  0  0  0  0  0  0
    4.2132    1.3863   16.7036 H   0  0  0  0  0  0  0  0  0  0  0  0
    7.2801   -0.8661   18.2467 H   0  0  0  0  0  0  0  0  0  0  0  0
    6.4179   -0.7825   21.7726 H   0  0  0  0  0  0  0  0  0  0  0  0
    7.6243   -1.2210   20.5545 H   0  0  0  0  0  0  0  0  0  0  0  0
    8.1720   -0.1477   23.6691 N   0  0  0  0  0  0  0  0  0  0  0  0
    9.0813   -1.2346   23.3603 C   0  0  0  0  0  0  0  0  0  0  0  0
    8.5811   -2.1929   23.5473 H   0  0  0  0  0  0  0  0  0  0  0  0
    9.9882   -1.2053   23.9807 H   0  0  0  0  0  0  0  0  0  0  0  0
    9.3824   -1.1957   22.3129 H   0  0  0  0  0  0  0  0  0  0  0  0
    7.4746   -0.1399   24.8716 C   0  0  0  0  0  0  0  0  0  0  0  0
    7.8858   -0.9354   25.9509 C   0  0  0  0  0  0  0  0  0  0  0  0
    7.2072   -0.8665   27.1627 C   0  0  0  0  0  0  0  0  0  0  0  0
    6.1010   -0.0364   27.3129 C   0  0  0  0  0  0  0  0  0  0  0  0
    5.6890    0.7259   26.2247 C   0  0  0  0  0  0  0  0  0  0  0  0
    4.2986    1.7711   26.3737 Cl  0  0  0  0  0  0  0  0  0  0  0  0
    6.3572    0.6931   25.0151 C   0  0  0  0  0  0  0  0  0  0  0  0
    6.0322    1.3201   24.1889 H   0  0  0  0  0  0  0  0  0  0  0  0
    5.5615    0.0261   28.2514 H   0  0  0  0  0  0  0  0  0  0  0  0
    7.5532   -1.4748   27.9988 H   0  0  0  0  0  0  0  0  0  0  0  0
    8.7489   -1.5892   25.8577 H   0  0  0  0  0  0  0  0  0  0  0  0
    7.6200    3.2993   22.7295 C   0  0  0  0  0  0  0  0  0  0  0  0
    7.8844    4.5972   23.1897 C   0  0  0  0  0  0  0  0  0  0  0  0
    6.7858    3.1106   22.0516 H   0  0  0  0  0  0  0  0  0  0  0  0
   10.0714    1.6261   24.3927 H   0  0  0  0  0  0  0  0  0  0  0  0
   10.7552    3.9666   24.8692 H   0  0  0  0  0  0  0  0  0  0  0  0
   10.1987    6.6403   24.0920 H   0  0  0  0  0  0  0  0  0  0  0  0
    9.5478    6.0991   25.6257 H   0  0  0  0  0  0  0  0  0  0  0  0
    7.3427    6.9940   25.1272 H   0  0  0  0  0  0  0  0  0  0  0  0
    8.4683    8.2215   24.5562 H   0  0  0  0  0  0  0  0  0  0  0  0
    8.3585    7.2524   22.2556 H   0  0  0  0  0  0  0  0  0  0  0  0
    6.7350    7.7196   22.8105 H   0  0  0  0  0  0  0  0  0  0  0  0
    6.2094    6.8275   20.7000 H   0  0  0  0  0  0  0  0  0  0  0  0
    5.0643    5.5405   20.3575 H   0  0  0  0  0  0  0  0  0  0  0  0
    3.8536    7.7052   20.4828 H   0  0  0  0  0  0  0  0  0  0  0  0
    4.3741    7.9487   22.1564 H   0  0  0  0  0  0  0  0  0  0  0  0
    3.3190    6.5897   21.7446 H   0  0  0  0  0  0  0  0  0  0  0  0
  1  2  1  0
  2  3  1  0
  3  4  2  0
  3  5  1  0
  5  6  1  0
  6  7  1  0
  7  8  1  0
  8  9  1  0
  9 10  2  0
 10 11  1  0
 11 12  2  0
 12 13  1  0
 13 14  1  0
 14 15  2  0
 14 16  1  0
 16 17  1  0
 17 18  2  0
 18 19  1  0
 19 20  2  0
 20 21  1  0
 21 22  2  0
 22 23  1  0
 23 24  2  0
 24 25  1  0
 25 26  2  0
 25 27  1  0
 24 28  1  0
 23 29  1  0
 22 30  1  0
 20 31  1  0
 18 32  1  0
 16 33  1  0
 16 34  1  0
 13 35  1  0
 35 36  1  0
 36 37  1  0
 36 38  1  0
 36 39  1  0
 35 40  1  0
 40 41  2  0
 41 42  1  0
 42 43  2  0
 43 44  1  0
 44 45  1  0
 44 46  2  0
 46 47  1  0
 43 48  1  0
 42 49  1  0
 41 50  1  0
 12 51  1  0
 51 52  2  0
 51 53  1  0
 11 54  1  0
 10 55  1  0
  8 56  1  0
  8 57  1  0
  7 58  1  0
  7 59  1  0
  6 60  1  0
  6 61  1  0
  2 62  1  0
  2 63  1  0
  1 64  1  0
  1 65  1  0
  1 66  1  0
 52  5  1  0
 52  9  1  0
 26 17  1  0
 46 40  1  0
 26 21  1  0
M  END
>  <cnnaffinities>  (21) 
[6.4487, 6.62234]

>  <score>  (21) 
6.4487

>  <index>  (21) 
20

>  <Smiles>  (21) 
C(C(C(=O)N1C(C(C(c2c(c(c(N(C(=O)C(c3c(nc(c4c(c(c(c(c34)[H])[H])[H])[H])[H])[H])([H])[H])N(C([H])([H])[H])c3c(c(c(c(Cl)c3[H])[H])[H])[H])c(c12)[H])[H])[H])([H])[H])([H])[H])([H])[H])([H])[H])([H])([H])[H]

>  <h>  (21) 
<NA>

>  <Training>  (21) 
True

>  <Success>  (21) 
True

>  <enamine_searched>  (21) 
False

>  <enamine_id>  (21) 
nan

$$$$

     RDKit          3D

 59 64  0  0  0  0  0  0  0  0999 V2000
    7.6784   -2.9963   23.3729 C   0  0  0  0  0  0  0  0  0  0  0  0
    7.9768   -1.9293   22.3238 C   0  0  1  0  0  0  0  0  0  0  0  0
    6.8841   -1.8030   21.2559 C   0  0  0  0  0  0  0  0  0  0  0  0
    6.9219   -0.4103   20.8416 N   0  0  0  0  0  0  0  0  0  0  0  0
    6.1336    0.1028   19.7701 C   0  0  0  0  0  0  0  0  0  0  0  0
    6.4288   -0.2206   18.4693 C   0  0  0  0  0  0  0  0  0  0  0  0
    5.7589    0.2349   17.3750 N   0  0  0  0  0  0  0  0  0  0  0  0
    4.7360    1.0321   17.5762 C   0  0  0  0  0  0  0  0  0  0  0  0
    4.2876    1.4238   18.8711 C   0  0  0  0  0  0  0  0  0  0  0  0
    3.1609    2.2757   19.0498 C   0  0  0  0  0  0  0  0  0  0  0  0
    2.7476    2.6132   20.3086 C   0  0  0  0  0  0  0  0  0  0  0  0
    3.4288    2.1156   21.4415 C   0  0  0  0  0  0  0  0  0  0  0  0
    4.5144    1.2948   21.2947 C   0  0  0  0  0  0  0  0  0  0  0  0
    4.9882    0.9393   20.0018 C   0  0  0  0  0  0  0  0  0  0  0  0
    5.0283    0.9069   22.1676 H   0  0  0  0  0  0  0  0  0  0  0  0
    3.0878    2.3842   22.4345 H   0  0  0  0  0  0  0  0  0  0  0  0
    1.8902    3.2624   20.4511 H   0  0  0  0  0  0  0  0  0  0  0  0
    2.6356    2.6509   18.1734 H   0  0  0  0  0  0  0  0  0  0  0  0
    4.1951    1.4017   16.7009 H   0  0  0  0  0  0  0  0  0  0  0  0
    7.2813   -0.8653   18.2629 H   0  0  0  0  0  0  0  0  0  0  0  0
    7.6473    0.3882   21.6973 C   0  0  0  0  0  0  0  0  0  0  0  0
    7.7849    1.5892   21.5974 O   0  0  0  0  0  0  0  0  0  0  0  0
    8.1951   -0.4636   22.8360 C   0  0  1  0  0  0  0  0  0  0  0  0
    7.2827   -0.0452   24.0198 C   0  0  0  0  0  0  0  0  0  0  0  0
    7.9454   -0.7588   25.2817 N   0  0  0  0  0  0  0  0  0  0  0  0
    7.0724   -1.0803   26.4453 C   0  0  0  0  0  0  0  0  0  0  0  0
    6.5940    0.0869   27.2653 C   0  0  0  0  0  0  0  0  0  0  0  0
    7.1834    0.6171   28.4239 C   0  0  0  0  0  0  0  0  0  0  0  0
    6.5959    1.7439   28.8091 N   0  0  0  0  0  0  0  0  0  0  0  0
    5.6353    1.9529   27.8918 N   0  0  0  0  0  0  0  0  0  0  0  0
    4.6992    3.0579   27.9950 C   0  0  0  0  0  0  0  0  0  0  0  0
    5.1314    3.8516   28.6041 H   0  0  0  0  0  0  0  0  0  0  0  0
    4.4876    3.4547   26.9986 H   0  0  0  0  0  0  0  0  0  0  0  0
    3.7568    2.7319   28.4465 H   0  0  0  0  0  0  0  0  0  0  0  0
    5.6006    0.9766   26.9459 C   0  0  0  0  0  0  0  0  0  0  0  0
    4.9004    0.9725   26.1096 H   0  0  0  0  0  0  0  0  0  0  0  0
    8.0398    0.1822   28.9317 H   0  0  0  0  0  0  0  0  0  0  0  0
    7.5546   -1.8376   27.0857 H   0  0  0  0  0  0  0  0  0  0  0  0
    6.1681   -1.5734   26.0324 H   0  0  0  0  0  0  0  0  0  0  0  0
    9.3590   -0.6315   25.6997 C   0  0  0  0  0  0  0  0  0  0  0  0
    9.3589   -0.6315   25.6995 O   0  0  0  0  0  0  0  0  0  0  0  0
   10.1337   -0.2710   24.4565 C   0  0  0  0  0  0  0  0  0  0  0  0
   11.5425    0.0031   24.5830 C   0  0  0  0  0  0  0  0  0  0  0  0
   12.4372    0.1963   23.5138 C   0  0  0  0  0  0  0  0  0  0  0  0
   11.9224    0.2380   22.2399 C   0  0  0  0  0  0  0  0  0  0  0  0
   12.7845    0.4853   21.2577 F   0  0  0  0  0  0  0  0  0  0  0  0
   10.5675    0.0467   22.0234 C   0  0  0  0  0  0  0  0  0  0  0  0
    9.6756   -0.1877   23.0936 C   0  0  0  0  0  0  0  0  0  0  0  0
   10.1918    0.0676   21.0146 H   0  0  0  0  0  0  0  0  0  0  0  0
   13.5031    0.3701   23.7097 H   0  0  0  0  0  0  0  0  0  0  0  0
   11.8779    0.2249   25.5490 H   0  0  0  0  0  0  0  0  0  0  0  0
    6.3010   -0.4424   23.9769 H   0  0  0  0  0  0  0  0  0  0  0  0
    7.3008    1.0315   24.2106 H   0  0  0  0  0  0  0  0  0  0  0  0
    7.0851   -2.4564   20.4117 H   0  0  0  0  0  0  0  0  0  0  0  0
    5.8981   -2.0701   21.6586 H   0  0  0  0  0  0  0  0  0  0  0  0
    8.9092   -2.2162   21.8170 H   0  0  0  0  0  0  0  0  0  0  0  0
    7.6115   -3.9744   22.8942 H   0  0  0  0  0  0  0  0  0  0  0  0
    8.4668   -3.0351   24.1312 H   0  0  0  0  0  0  0  0  0  0  0  0
    6.7303   -2.8021   23.8821 H   0  0  0  0  0  0  0  0  0  0  0  0
  1  2  1  0
  2  3  1  0
  3  4  1  0
  4  5  1  0
  5  6  2  0
  6  7  1  0
  7  8  2  0
  8  9  1  0
  9 10  2  0
 10 11  1  0
 11 12  2  0
 12 13  1  0
 13 14  2  0
 13 15  1  0
 12 16  1  0
 11 17  1  0
 10 18  1  0
  8 19  1  0
  6 20  1  0
  4 21  1  0
 21 22  2  0
 21 23  1  0
 23 24  1  1
 24 25  1  0
 25 26  1  0
 26 27  1  0
 27 28  1  0
 28 29  2  0
 29 30  1  0
 30 31  1  0
 31 32  1  0
 31 33  1  0
 31 34  1  0
 30 35  1  0
 35 36  1  0
 28 37  1  0
 26 38  1  0
 26 39  1  0
 25 40  1  0
 40 41  2  0
 40 42  1  0
 42 43  2  0
 43 44  1  0
 44 45  2  0
 45 46  1  0
 45 47  1  0
 47 48  2  0
 47 49  1  0
 44 50  1  0
 43 51  1  0
 24 52  1  0
 24 53  1  0
  3 54  1  0
  3 55  1  0
  2 56  1  6
  1 57  1  0
  1 58  1  0
  1 59  1  0
 23  2  1  0
 35 27  2  0
 48 42  1  0
 14  5  1  0
 48 23  1  0
 14  9  1  0
M  END
>  <cnnaffinities>  (22) 
[6.22362]

>  <score>  (22) 
6.22362

>  <index>  (22) 
21

>  <Smiles>  (22) 
C([C@]1(C(N(c2c(nc(c3c(c(c(c(c23)[H])[H])[H])[H])[H])[H])C(=O)[C@]21C(N(C(c1c(nn(C([H])([H])[H])c1[H])[H])([H])[H])C(=O)c1c(c(c(F)c(c21)[H])[H])[H])([H])[H])([H])[H])[H])([H])([H])[H]

>  <h>  (22) 
<NA>

>  <Training>  (22) 
True

>  <Success>  (22) 
True

>  <enamine_searched>  (22) 
False

>  <enamine_id>  (22) 
nan

$$$$

     RDKit          3D

 41 44  0  0  0  0  0  0  0  0999 V2000
    7.9691    1.7329   21.0587 O   0  0  0  0  0  0  0  0  0  0  0  0
    8.0396    0.5533   21.3713 C   0  0  0  0  0  0  0  0  0  0  0  0
    6.9866   -0.4473   20.9030 C   0  0  0  0  0  0  0  0  0  0  0  0
    6.1483    0.0898   19.7756 C   0  0  0  0  0  0  0  0  0  0  0  0
    6.4583   -0.2181   18.4756 C   0  0  0  0  0  0  0  0  0  0  0  0
    5.7880    0.2207   17.3758 N   0  0  0  0  0  0  0  0  0  0  0  0
    4.7635    1.0149   17.5875 C   0  0  0  0  0  0  0  0  0  0  0  0
    4.3214    1.4153   18.8756 C   0  0  0  0  0  0  0  0  0  0  0  0
    3.2014    2.2664   19.0433 C   0  0  0  0  0  0  0  0  0  0  0  0
    2.7893    2.6341   20.2957 C   0  0  0  0  0  0  0  0  0  0  0  0
    3.4880    2.1686   21.4355 C   0  0  0  0  0  0  0  0  0  0  0  0
    4.5852    1.3510   21.2954 C   0  0  0  0  0  0  0  0  0  0  0  0
    5.0319    0.9486   20.0085 C   0  0  0  0  0  0  0  0  0  0  0  0
    5.1267    1.0238   22.1777 H   0  0  0  0  0  0  0  0  0  0  0  0
    3.1524    2.4675   22.4232 H   0  0  0  0  0  0  0  0  0  0  0  0
    1.9349    3.2913   20.4222 H   0  0  0  0  0  0  0  0  0  0  0  0
    2.6892    2.6278   18.1531 H   0  0  0  0  0  0  0  0  0  0  0  0
    4.2204    1.3852   16.7163 H   0  0  0  0  0  0  0  0  0  0  0  0
    7.2963   -0.8816   18.2536 H   0  0  0  0  0  0  0  0  0  0  0  0
    6.3761   -0.7550   21.7645 H   0  0  0  0  0  0  0  0  0  0  0  0
    7.5192   -1.3435   20.5637 H   0  0  0  0  0  0  0  0  0  0  0  0
    9.0699    0.0627   22.1180 N   0  0  0  0  0  0  0  0  0  0  0  0
    9.1843   -1.3279   22.5868 C   0  0  0  0  0  0  0  0  0  0  0  0
   10.0939   -1.4097   23.8107 C   0  0  0  0  0  0  0  0  0  0  0  0
   11.4294   -0.8003   23.4868 C   0  0  0  0  0  0  0  0  0  0  0  0
   12.6378   -1.3257   23.9316 C   0  0  0  0  0  0  0  0  0  0  0  0
   12.6614   -2.7718   24.9119 Cl  0  0  0  0  0  0  0  0  0  0  0  0
   13.8458   -0.7232   23.6165 C   0  0  0  0  0  0  0  0  0  0  0  0
   13.8571    0.4030   22.8011 C   0  0  0  0  0  0  0  0  0  0  0  0
   12.6630    0.9565   22.3594 C   0  0  0  0  0  0  0  0  0  0  0  0
   11.4511    0.3729   22.7179 C   0  0  0  0  0  0  0  0  0  0  0  0
   10.1398    1.0243   22.3739 C   0  0  0  0  0  0  0  0  0  0  0  0
    9.8244    1.6926   23.1870 H   0  0  0  0  0  0  0  0  0  0  0  0
   10.2126    1.6651   21.4846 H   0  0  0  0  0  0  0  0  0  0  0  0
   12.6738    1.8518   21.7393 H   0  0  0  0  0  0  0  0  0  0  0  0
   14.7886    0.8648   22.4907 H   0  0  0  0  0  0  0  0  0  0  0  0
   14.7442   -1.1498   24.0335 H   0  0  0  0  0  0  0  0  0  0  0  0
   10.2163   -2.4443   24.1511 H   0  0  0  0  0  0  0  0  0  0  0  0
    9.6330   -0.8461   24.6316 H   0  0  0  0  0  0  0  0  0  0  0  0
    9.5911   -1.9557   21.7848 H   0  0  0  0  0  0  0  0  0  0  0  0
    8.2001   -1.7443   22.8380 H   0  0  0  0  0  0  0  0  0  0  0  0
  1  2  2  0
  2  3  1  0
  3  4  1  0
  4  5  2  0
  5  6  1  0
  6  7  2  0
  7  8  1  0
  8  9  2  0
  9 10  1  0
 10 11  2  0
 11 12  1  0
 12 13  2  0
 12 14  1  0
 11 15  1  0
 10 16  1  0
  9 17  1  0
  7 18  1  0
  5 19  1  0
  3 20  1  0
  3 21  1  0
  2 22  1  0
 22 23  1  0
 23 24  1  0
 24 25  1  0
 25 26  2  0
 26 27  1  0
 26 28  1  0
 28 29  2  0
 29 30  1  0
 30 31  2  0
 31 32  1  0
 32 33  1  0
 32 34  1  0
 30 35  1  0
 29 36  1  0
 28 37  1  0
 24 38  1  0
 24 39  1  0
 23 40  1  0
 23 41  1  0
 13  4  1  0
 32 22  1  0
 13  8  1  0
 31 25  1  0
M  END
>  <cnnaffinities>  (23) 
[5.8428]

>  <score>  (23) 
5.8428

>  <index>  (23) 
22

>  <Smiles>  (23) 
O=C(C(c1c(nc(c2c(c(c(c(c12)[H])[H])[H])[H])[H])[H])([H])[H])N1C(C(c2c(Cl)c(c(c(c2C1([H])[H])[H])[H])[H])([H])[H])([H])[H]

>  <h>  (23) 
<NA>

>  <Training>  (23) 
True

>  <Success>  (23) 
True

>  <enamine_searched>  (23) 
False

>  <enamine_id>  (23) 
nan

$$$$

     RDKit          3D

 69 74  0  0  0  0  0  0  0  0999 V2000
    4.2866    6.7081   20.9242 C   0  0  0  0  0  0  0  0  0  0  0  0
    5.1249    6.2009   22.0718 C   0  0  1  0  0  0  0  0  0  0  0  0
    6.0866    5.0932   21.6600 C   0  0  0  0  0  0  0  0  0  0  0  0
    6.8121    4.6440   22.8801 N   0  0  1  0  0  4  0  0  0  0  0  0
    7.6741    3.4697   22.6719 C   0  0  0  0  0  0  0  0  0  0  0  0
    8.0878    2.9191   24.0340 C   0  0  0  0  0  0  0  0  0  0  0  0
    8.7827    1.6615   23.9188 N   0  0  0  0  0  0  0  0  0  0  0  0
    8.0027    0.4460   23.7972 C   0  0  0  0  0  0  0  0  0  0  0  0
    8.4047   -0.3959   22.5636 C   0  0  2  0  0  0  0  0  0  0  0  0
    7.9497    0.2533   21.2338 C   0  0  0  0  0  0  0  0  0  0  0  0
    8.4790    1.1815   20.6579 O   0  0  0  0  0  0  0  0  0  0  0  0
    6.8344   -0.4225   20.7784 N   0  0  0  0  0  0  0  0  0  0  0  0
    6.0828    0.0954   19.6924 C   0  0  0  0  0  0  0  0  0  0  0  0
    6.4294   -0.1945   18.3982 C   0  0  0  0  0  0  0  0  0  0  0  0
    5.7407    0.2465   17.3152 N   0  0  0  0  0  0  0  0  0  0  0  0
    4.7109    1.0285   17.5327 C   0  0  0  0  0  0  0  0  0  0  0  0
    4.2673    1.4409   18.8231 C   0  0  0  0  0  0  0  0  0  0  0  0
    3.1705    2.3200   19.0244 C   0  0  0  0  0  0  0  0  0  0  0  0
    2.7941    2.6852   20.2888 C   0  0  0  0  0  0  0  0  0  0  0  0
    3.4920    2.1976   21.4152 C   0  0  0  0  0  0  0  0  0  0  0  0
    4.5712    1.3720   21.2441 C   0  0  0  0  0  0  0  0  0  0  0  0
    4.9749    0.9564   19.9449 C   0  0  0  0  0  0  0  0  0  0  0  0
    5.1319    1.0426   22.1122 H   0  0  0  0  0  0  0  0  0  0  0  0
    3.1969    2.4933   22.4180 H   0  0  0  0  0  0  0  0  0  0  0  0
    1.9666    3.3703   20.4390 H   0  0  0  0  0  0  0  0  0  0  0  0
    2.6562    2.7109   18.1531 H   0  0  0  0  0  0  0  0  0  0  0  0
    4.1737    1.3803   16.6532 H   0  0  0  0  0  0  0  0  0  0  0  0
    7.2972   -0.8205   18.1996 H   0  0  0  0  0  0  0  0  0  0  0  0
    6.3618   -1.4432   21.7061 C   0  0  0  0  0  0  0  0  0  0  0  0
    7.6555   -1.7485   22.4740 C   0  0  2  0  0  0  0  0  0  0  0  0
    7.5568   -2.5759   23.7506 C   0  0  0  0  0  0  0  0  0  0  0  0
    7.1339   -3.5674   23.5484 H   0  0  0  0  0  0  0  0  0  0  0  0
    6.9357   -2.0941   24.5153 H   0  0  0  0  0  0  0  0  0  0  0  0
    8.5588   -2.7266   24.1754 H   0  0  0  0  0  0  0  0  0  0  0  0
    8.2351   -2.3245   21.7541 H   0  0  0  0  0  0  0  0  0  0  0  0
    5.9884   -2.3103   21.1491 H   0  0  0  0  0  0  0  0  0  0  0  0
    5.5518   -1.0914   22.3690 H   0  0  0  0  0  0  0  0  0  0  0  0
    9.9058   -0.4969   22.5498 C   0  0  0  0  0  0  0  0  0  0  0  0
   10.5147   -1.5284   21.8477 C   0  0  0  0  0  0  0  0  0  0  0  0
   11.8601   -1.4947   21.5757 C   0  0  0  0  0  0  0  0  0  0  0  0
   12.3714   -2.8505   20.6084 Cl  0  0  0  0  0  0  0  0  0  0  0  0
   12.6610   -0.4316   22.0136 C   0  0  0  0  0  0  0  0  0  0  0  0
   12.0776    0.5620   22.7663 C   0  0  0  0  0  0  0  0  0  0  0  0
   10.7117    0.5431   23.0066 C   0  0  0  0  0  0  0  0  0  0  0  0
   10.1138    1.7481   23.6346 C   0  0  0  0  0  0  0  0  0  0  0  0
   10.7677    2.7610   23.8367 O   0  0  0  0  0  0  0  0  0  0  0  0
   12.6550    1.3929   23.1563 H   0  0  0  0  0  0  0  0  0  0  0  0
   13.6994   -0.3119   21.7411 H   0  0  0  0  0  0  0  0  0  0  0  0
    9.9540   -2.3446   21.4199 H   0  0  0  0  0  0  0  0  0  0  0  0
    8.1455   -0.1707   24.6973 H   0  0  0  0  0  0  0  0  0  0  0  0
    6.9497    0.7460   23.7341 H   0  0  0  0  0  0  0  0  0  0  0  0
    7.2034    2.7962   24.6749 H   0  0  0  0  0  0  0  0  0  0  0  0
    8.7778    3.6141   24.5049 H   0  0  0  0  0  0  0  0  0  0  0  0
    8.5649    3.7521   22.0940 H   0  0  0  0  0  0  0  0  0  0  0  0
    7.1283    2.7145   22.0964 H   0  0  0  0  0  0  0  0  0  0  0  0
    7.5711    5.8088   23.4599 C   0  0  0  0  0  0  0  0  0  0  0  0
    6.6007    6.9423   23.7448 C   0  0  0  0  0  0  0  0  0  0  0  0
    5.8401    7.3041   22.6125 O   0  0  0  0  0  0  0  0  0  0  0  0
    5.9427    6.6186   24.5719 H   0  0  0  0  0  0  0  0  0  0  0  0
    7.1396    7.8357   24.0688 H   0  0  0  0  0  0  0  0  0  0  0  0
    8.0349    5.5018   24.3966 H   0  0  0  0  0  0  0  0  0  0  0  0
    8.3652    6.0992   22.7596 H   0  0  0  0  0  0  0  0  0  0  0  0
    6.0824    4.3472   23.5628 H   0  0  0  0  0  0  0  0  0  0  0  0
    5.5520    4.2408   21.2248 H   0  0  0  0  0  0  0  0  0  0  0  0
    6.8095    5.4638   20.9236 H   0  0  0  0  0  0  0  0  0  0  0  0
    4.4831    5.7753   22.8627 H   0  0  0  0  0  0  0  0  0  0  0  0
    3.6526    5.9035   20.5316 H   0  0  0  0  0  0  0  0  0  0  0  0
    3.6432    7.5245   21.2544 H   0  0  0  0  0  0  0  0  0  0  0  0
    4.9374    7.0984   20.1340 H   0  0  0  0  0  0  0  0  0  0  0  0
  1  2  1  0
  2  3  1  0
  3  4  1  0
  4  5  1  0
  5  6  1  0
  6  7  1  0
  7  8  1  0
  9  8  1  1
  9 10  1  0
 10 11  2  0
 10 12  1  0
 12 13  1  0
 13 14  2  0
 14 15  1  0
 15 16  2  0
 16 17  1  0
 17 18  2  0
 18 19  1  0
 19 20  2  0
 20 21  1  0
 21 22  2  0
 21 23  1  0
 20 24  1  0
 19 25  1  0
 18 26  1  0
 16 27  1  0
 14 28  1  0
 12 29  1  0
 29 30  1  0
 30 31  1  0
 31 32  1  0
 31 33  1  0
 31 34  1  0
 30 35  1  6
 29 36  1  0
 29 37  1  0
  9 38  1  0
 38 39  2  0
 39 40  1  0
 40 41  1  0
 40 42  2  0
 42 43  1  0
 43 44  2  0
 44 45  1  0
 45 46  2  0
 43 47  1  0
 42 48  1  0
 39 49  1  0
  8 50  1  0
  8 51  1  0
  6 52  1  0
  6 53  1  0
  5 54  1  0
  5 55  1  0
  4 56  1  0
 56 57  1  0
 57 58  1  0
 57 59  1  0
 57 60  1  0
 56 61  1  0
 56 62  1  0
  4 63  1  1
  3 64  1  0
  3 65  1  0
  2 66  1  1
  1 67  1  0
  1 68  1  0
  1 69  1  0
 58  2  1  0
 45  7  1  0
 30  9  1  0
 44 38  1  0
 22 13  1  0
 22 17  1  0
M  CHG  1   4   1
M  END
>  <cnnaffinities>  (24) 
[6.49459, 6.25098]

>  <score>  (24) 
6.49459

>  <index>  (24) 
23

>  <Smiles>  (24) 
C([C@]1(C([N@@+](C(C(N2C([C@@]3(C(=O)N(c4c(nc(c5c(c(c(c(c45)[H])[H])[H])[H])[H])[H])C([C@@]3(C([H])([H])[H])[H])([H])[H])c3c(c(Cl)c(c(c3C2=O)[H])[H])[H])([H])[H])([H])[H])([H])[H])(C(C(O1)([H])[H])([H])[H])[H])([H])[H])[H])([H])([H])[H]

>  <h>  (24) 
<NA>

>  <Training>  (24) 
True

>  <Success>  (24) 
True

>  <enamine_searched>  (24) 
False

>  <enamine_id>  (24) 
nan

$$$$

     RDKit          3D

 70 75  0  0  0  0  0  0  0  0999 V2000
    6.3802    1.5616   28.4137 C   0  0  0  0  0  0  0  0  0  0  0  0
    6.5931    0.7306   27.2317 N   0  0  0  0  0  4  0  0  0  0  0  0
    5.3612    0.1708   26.6207 C   0  0  0  0  0  0  0  0  0  0  0  0
    5.7361   -0.9364   25.6183 C   0  0  0  0  0  0  0  0  0  0  0  0
    6.8737   -0.6156   24.7574 N   0  0  0  0  0  0  0  0  0  0  0  0
    6.6450   -0.0481   23.4424 C   0  0  0  0  0  0  0  0  0  0  0  0
    7.7274   -0.4691   22.4053 C   0  0  2  0  0  0  0  0  0  0  0  0
    7.4785    0.3441   21.1169 C   0  0  0  0  0  0  0  0  0  0  0  0
    7.8160    1.4832   20.8701 O   0  0  0  0  0  0  0  0  0  0  0  0
    6.7243   -0.4353   20.2546 N   0  0  0  0  0  0  0  0  0  0  0  0
    5.9443    0.1593   19.2367 C   0  0  0  0  0  0  0  0  0  0  0  0
    6.1833   -0.1530   17.9255 C   0  0  0  0  0  0  0  0  0  0  0  0
    5.4944    0.3717   16.8845 N   0  0  0  0  0  0  0  0  0  0  0  0
    4.5287    1.2155   17.1621 C   0  0  0  0  0  0  0  0  0  0  0  0
    4.1411    1.5773   18.4844 C   0  0  0  0  0  0  0  0  0  0  0  0
    3.0445    2.4425   18.7424 C   0  0  0  0  0  0  0  0  0  0  0  0
    2.6725    2.7348   20.0251 C   0  0  0  0  0  0  0  0  0  0  0  0
    3.3937    2.1943   21.1127 C   0  0  0  0  0  0  0  0  0  0  0  0
    4.4753    1.3830   20.8897 C   0  0  0  0  0  0  0  0  0  0  0  0
    4.8691    1.0428   19.5635 C   0  0  0  0  0  0  0  0  0  0  0  0
    5.0495    1.0101   21.7285 H   0  0  0  0  0  0  0  0  0  0  0  0
    3.0961    2.4277   22.1293 H   0  0  0  0  0  0  0  0  0  0  0  0
    1.8270    3.3891   20.2176 H   0  0  0  0  0  0  0  0  0  0  0  0
    2.5131    2.8633   17.8949 H   0  0  0  0  0  0  0  0  0  0  0  0
    3.9925    1.6523   16.3198 H   0  0  0  0  0  0  0  0  0  0  0  0
    6.9844   -0.8447   17.6705 H   0  0  0  0  0  0  0  0  0  0  0  0
    6.4040   -1.7405   20.8135 C   0  0  0  0  0  0  0  0  0  0  0  0
    7.5308   -1.9199   21.8313 C   0  0  2  0  0  0  0  0  0  0  0  0
    7.2945   -3.0957   22.7741 C   0  0  0  0  0  0  0  0  0  0  0  0
    8.2407   -3.2252   23.7996 O   0  0  0  0  0  0  0  0  0  0  0  0
    9.5767   -3.5060   23.3975 C   0  0  0  0  0  0  0  0  0  0  0  0
   10.3481   -4.0462   24.5236 C   0  0  0  0  0  0  0  0  0  0  0  0
   10.5597   -3.7732   24.7044 C   0  0  0  0  0  0  0  0  0  0  0  0
    9.8886   -4.7542   26.8238 O   0  0  0  0  0  0  0  0  0  0  0  0
    9.5655   -4.8294   25.6117 C   0  0  0  0  0  0  0  0  0  0  0  0
    8.4551   -4.6226   25.4053 H   0  0  0  0  0  0  0  0  0  0  0  0
    9.6732   -5.9057   25.1662 H   0  0  0  0  0  0  0  0  0  0  0  0
   10.4770   -2.7249   25.2476 H   0  0  0  0  0  0  0  0  0  0  0  0
   11.8649   -3.5948   25.2654 H   0  0  0  0  0  0  0  0  0  0  0  0
   11.1233   -4.7646   24.1778 H   0  0  0  0  0  0  0  0  0  0  0  0
    9.5263   -4.2457   22.5653 H   0  0  0  0  0  0  0  0  0  0  0  0
   10.0035   -2.6095   22.9038 H   0  0  0  0  0  0  0  0  0  0  0  0
    6.3214   -2.9905   23.2735 H   0  0  0  0  0  0  0  0  0  0  0  0
    7.2611   -4.0232   22.1711 H   0  0  0  0  0  0  0  0  0  0  0  0
    8.4545   -2.1084   21.2628 H   0  0  0  0  0  0  0  0  0  0  0  0
    6.3790   -2.5050   20.0336 H   0  0  0  0  0  0  0  0  0  0  0  0
    5.4140   -1.7364   21.3061 H   0  0  0  0  0  0  0  0  0  0  0  0
    9.0950   -0.2164   23.0116 C   0  0  0  0  0  0  0  0  0  0  0  0
   10.2280    0.0264   22.2136 C   0  0  0  0  0  0  0  0  0  0  0  0
   11.4721    0.1704   22.8084 C   0  0  0  0  0  0  0  0  0  0  0  0
   12.8923    0.4224   21.8394 Cl  0  0  0  0  0  0  0  0  0  0  0  0
   11.6318    0.1217   24.1939 C   0  0  0  0  0  0  0  0  0  0  0  0
   10.5187   -0.1186   24.9784 C   0  0  0  0  0  0  0  0  0  0  0  0
    9.2607   -0.3023   24.4013 C   0  0  0  0  0  0  0  0  0  0  0  0
    8.1242   -0.7090   25.2841 C   0  0  0  0  0  0  0  0  0  0  0  0
    8.3318   -1.0483   26.4561 O   0  0  0  0  0  0  0  0  0  0  0  0
   10.6180   -0.2134   26.0530 H   0  0  0  0  0  0  0  0  0  0  0  0
   12.6118    0.2914   24.6309 H   0  0  0  0  0  0  0  0  0  0  0  0
   10.1337    0.1111   21.1340 H   0  0  0  0  0  0  0  0  0  0  0  0
    6.6405    1.0506   23.4966 H   0  0  0  0  0  0  0  0  0  0  0  0
    5.6501   -0.3737   23.1117 H   0  0  0  0  0  0  0  0  0  0  0  0
    4.8781   -1.1677   24.9767 H   0  0  0  0  0  0  0  0  0  0  0  0
    6.0033   -1.8485   26.1651 H   0  0  0  0  0  0  0  0  0  0  0  0
    4.7252   -0.2569   27.4047 H   0  0  0  0  0  0  0  0  0  0  0  0
    4.7809    0.9643   26.1326 H   0  0  0  0  0  0  0  0  0  0  0  0
    7.2349   -0.0650   27.4406 H   0  0  0  0  0  0  0  0  0  0  0  0
    7.0494    1.3226   26.5176 H   0  0  0  0  0  0  0  0  0  0  0  0
    5.8805    0.9909   29.2012 H   0  0  0  0  0  0  0  0  0  0  0  0
    7.3345    1.9214   28.7962 H   0  0  0  0  0  0  0  0  0  0  0  0
    5.7515    2.4252   28.1722 H   0  0  0  0  0  0  0  0  0  0  0  0
  1  2  1  0
  2  3  1  0
  3  4  1  0
  4  5  1  0
  5  6  1  0
  7  6  1  1
  7  8  1  0
  8  9  2  0
  8 10  1  0
 10 11  1  0
 11 12  2  0
 12 13  1  0
 13 14  2  0
 14 15  1  0
 15 16  2  0
 16 17  1  0
 17 18  2  0
 18 19  1  0
 19 20  2  0
 19 21  1  0
 18 22  1  0
 17 23  1  0
 16 24  1  0
 14 25  1  0
 12 26  1  0
 10 27  1  0
 27 28  1  0
 28 29  1  0
 29 30  1  0
 30 31  1  0
 31 32  1  0
 32 33  1  0
 33 34  1  0
 34 35  1  0
 35 36  1  0
 35 37  1  0
 33 38  1  0
 33 39  1  0
 32 40  1  0
 31 41  1  0
 31 42  1  0
 29 43  1  0
 29 44  1  0
 28 45  1  6
 27 46  1  0
 27 47  1  0
  7 48  1  0
 48 49  2  0
 49 50  1  0
 50 51  1  0
 50 52  2  0
 52 53  1  0
 53 54  2  0
 54 55  1  0
 55 56  2  0
 53 57  1  0
 52 58  1  0
 49 59  1  0
  6 60  1  0
  6 61  1  0
  4 62  1  0
  4 63  1  0
  3 64  1  0
  3 65  1  0
  2 66  1  0
  2 67  1  0
  1 68  1  0
  1 69  1  0
  1 70  1  0
 55  5  1  0
 28  7  1  0
 35 32  1  0
 54 48  1  0
 20 11  1  0
 20 15  1  0
M  CHG  1   2   1
M  END
>  <cnnaffinities>  (25) 
[6.11856]

>  <score>  (25) 
6.11856

>  <index>  (25) 
24

>  <Smiles>  (25) 
C([N+](C(C(N1C([C@@]2(C(=O)N(c3c(nc(c4c(c(c(c(c34)[H])[H])[H])[H])[H])[H])C([C@@]2(C(OC(C2(C(OC2([H])[H])([H])[H])[H])([H])[H])([H])[H])[H])([H])[H])c2c(c(Cl)c(c(c2C1=O)[H])[H])[H])([H])[H])([H])[H])([H])[H])([H])[H])([H])([H])[H]

>  <h>  (25) 
<NA>

>  <Training>  (25) 
True

>  <Success>  (25) 
True

>  <enamine_searched>  (25) 
False

>  <enamine_id>  (25) 
nan

$$$$

     RDKit          3D

 68 73  0  0  0  0  0  0  0  0999 V2000
    6.4061    4.3874   21.2488 C   0  0  0  0  0  0  0  0  0  0  0  0
    7.3774    3.9211   22.2179 N   0  0  0  0  0  0  0  0  0  0  0  0
    6.9469    3.2712   23.3287 C   0  0  0  0  0  0  0  0  0  0  0  0
    5.7664    3.0441   23.5612 O   0  0  0  0  0  0  0  0  0  0  0  0
    8.0407    2.8766   24.3135 C   0  0  0  0  0  0  0  0  0  0  0  0
    8.7041    1.6309   23.9863 N   0  0  0  0  0  0  0  0  0  0  0  0
    7.8897    0.4337   23.8757 C   0  0  0  0  0  0  0  0  0  0  0  0
    8.3146   -0.4376   22.6744 C   0  0  2  0  0  0  0  0  0  0  0  0
    7.8974    0.2340   21.3469 C   0  0  0  0  0  0  0  0  0  0  0  0
    8.3861    1.2258   20.8461 O   0  0  0  0  0  0  0  0  0  0  0  0
    6.8475   -0.4731   20.8027 N   0  0  0  0  0  0  0  0  0  0  0  0
    6.1053    0.0682   19.7216 C   0  0  0  0  0  0  0  0  0  0  0  0
    6.4615   -0.2083   18.4273 C   0  0  0  0  0  0  0  0  0  0  0  0
    5.7893    0.2421   17.3385 N   0  0  0  0  0  0  0  0  0  0  0  0
    4.7521    1.0199   17.5481 C   0  0  0  0  0  0  0  0  0  0  0  0
    4.2905    1.4106   18.8389 C   0  0  0  0  0  0  0  0  0  0  0  0
    3.1771    2.2740   19.0264 C   0  0  0  0  0  0  0  0  0  0  0  0
    2.7806    2.6377   20.2868 C   0  0  0  0  0  0  0  0  0  0  0  0
    3.4773    2.1606   21.4189 C   0  0  0  0  0  0  0  0  0  0  0  0
    4.5550    1.3239   21.2614 C   0  0  0  0  0  0  0  0  0  0  0  0
    4.9860    0.9198   19.9678 C   0  0  0  0  0  0  0  0  0  0  0  0
    5.1228    1.0199   22.1344 H   0  0  0  0  0  0  0  0  0  0  0  0
    3.1962    2.4842   22.4177 H   0  0  0  0  0  0  0  0  0  0  0  0
    1.9374    3.3090   20.4214 H   0  0  0  0  0  0  0  0  0  0  0  0
    2.6644    2.6538   18.1466 H   0  0  0  0  0  0  0  0  0  0  0  0
    4.2183    1.3862   16.6701 H   0  0  0  0  0  0  0  0  0  0  0  0
    7.3305   -0.8338   18.2321 H   0  0  0  0  0  0  0  0  0  0  0  0
    6.3654   -1.5497   21.6446 C   0  0  0  0  0  0  0  0  0  0  0  0
    7.5551   -1.8013   22.5762 C   0  0  2  0  0  0  0  0  0  0  0  0
    7.1756   -2.5417   23.8578 C   0  0  0  0  0  0  0  0  0  0  0  0
    8.3561   -3.1515   24.4456 N   0  0  0  0  0  0  0  0  0  0  0  0
    8.2574   -3.6907   25.7368 C   0  0  0  0  0  0  0  0  0  0  0  0
    7.1645   -3.6825   26.6476 C   0  0  0  0  0  0  0  0  0  0  0  0
    7.4617   -4.3100   27.7799 N   0  0  0  0  0  0  0  0  0  0  0  0
    8.7263   -4.7167   27.6279 N   0  0  0  0  0  0  0  0  0  0  0  0
    9.4198   -5.3129   28.7466 C   0  0  0  0  0  0  0  0  0  0  0  0
    9.3701   -4.6337   29.6055 H   0  0  0  0  0  0  0  0  0  0  0  0
    8.9817   -6.2836   28.9960 H   0  0  0  0  0  0  0  0  0  0  0  0
   10.4728   -5.4681   28.4957 H   0  0  0  0  0  0  0  0  0  0  0  0
    9.2522   -4.3567   26.4293 C   0  0  0  0  0  0  0  0  0  0  0  0
   10.2773   -4.5945   26.1639 H   0  0  0  0  0  0  0  0  0  0  0  0
    6.1976   -3.1977   26.5530 H   0  0  0  0  0  0  0  0  0  0  0  0
    9.1976   -2.5860   24.3352 H   0  0  0  0  0  0  0  0  0  0  0  0
    6.4583   -3.3424   23.6270 H   0  0  0  0  0  0  0  0  0  0  0  0
    6.6689   -1.8735   24.5772 H   0  0  0  0  0  0  0  0  0  0  0  0
    8.2309   -2.4716   22.0382 H   0  0  0  0  0  0  0  0  0  0  0  0
    5.4496   -1.2701   22.1925 H   0  0  0  0  0  0  0  0  0  0  0  0
    6.1273   -2.4300   21.0375 H   0  0  0  0  0  0  0  0  0  0  0  0
    9.8214   -0.5457   22.6712 C   0  0  0  0  0  0  0  0  0  0  0  0
   10.4120   -1.4826   21.8258 C   0  0  0  0  0  0  0  0  0  0  0  0
   11.7841   -1.5984   21.7684 C   0  0  0  0  0  0  0  0  0  0  0  0
   12.3415   -2.8489   20.6937 Cl  0  0  0  0  0  0  0  0  0  0  0  0
   12.6152   -0.7489   22.5141 C   0  0  0  0  0  0  0  0  0  0  0  0
   12.0349    0.2481   23.2720 C   0  0  0  0  0  0  0  0  0  0  0  0
   10.6487    0.3708   23.3298 C   0  0  0  0  0  0  0  0  0  0  0  0
   10.0751    1.5709   24.0134 C   0  0  0  0  0  0  0  0  0  0  0  0
   10.7825    2.4341   24.5088 O   0  0  0  0  0  0  0  0  0  0  0  0
   12.6444    0.9687   23.8107 H   0  0  0  0  0  0  0  0  0  0  0  0
   13.6958   -0.8053   22.5127 H   0  0  0  0  0  0  0  0  0  0  0  0
    9.8186   -2.1063   21.1632 H   0  0  0  0  0  0  0  0  0  0  0  0
    7.9611   -0.1517   24.8031 H   0  0  0  0  0  0  0  0  0  0  0  0
    6.8580    0.7727   23.7708 H   0  0  0  0  0  0  0  0  0  0  0  0
    8.8218    3.6407   24.3348 H   0  0  0  0  0  0  0  0  0  0  0  0
    7.5467    2.8308   25.2914 H   0  0  0  0  0  0  0  0  0  0  0  0
    8.3263    3.7436   21.9108 H   0  0  0  0  0  0  0  0  0  0  0  0
    5.9551    3.5529   20.6923 H   0  0  0  0  0  0  0  0  0  0  0  0
    6.8810    5.0890   20.5604 H   0  0  0  0  0  0  0  0  0  0  0  0
    5.6079    4.9119   21.7791 H   0  0  0  0  0  0  0  0  0  0  0  0
  1  2  1  0
  2  3  1  0
  3  4  2  0
  3  5  1  0
  5  6  1  0
  6  7  1  0
  8  7  1  1
  8  9  1  0
  9 10  2  0
  9 11  1  0
 11 12  1  0
 12 13  2  0
 13 14  1  0
 14 15  2  0
 15 16  1  0
 16 17  2  0
 17 18  1  0
 18 19  2  0
 19 20  1  0
 20 21  2  0
 20 22  1  0
 19 23  1  0
 18 24  1  0
 17 25  1  0
 15 26  1  0
 13 27  1  0
 11 28  1  0
 28 29  1  0
 29 30  1  0
 30 31  1  0
 31 32  1  0
 32 33  1  0
 33 34  2  0
 34 35  1  0
 35 36  1  0
 36 37  1  0
 36 38  1  0
 36 39  1  0
 35 40  1  0
 40 41  1  0
 33 42  1  0
 31 43  1  0
 30 44  1  0
 30 45  1  0
 29 46  1  6
 28 47  1  0
 28 48  1  0
  8 49  1  0
 49 50  2  0
 50 51  1  0
 51 52  1  0
 51 53  2  0
 53 54  1  0
 54 55  2  0
 55 56  1  0
 56 57  2  0
 54 58  1  0
 53 59  1  0
 50 60  1  0
  7 61  1  0
  7 62  1  0
  5 63  1  0
  5 64  1  0
  2 65  1  0
  1 66  1  0
  1 67  1  0
  1 68  1  0
 56  6  1  0
 29  8  1  0
 40 32  2  0
 55 49  1  0
 21 12  1  0
 21 16  1  0
M  END
>  <cnnaffinities>  (26) 
[6.36516]

>  <score>  (26) 
6.36516

>  <index>  (26) 
25

>  <Smiles>  (26) 
C(N(C(=O)C(N1C([C@@]2(C(=O)N(c3c(nc(c4c(c(c(c(c34)[H])[H])[H])[H])[H])[H])C([C@@]2(C(N(c2c(nn(C([H])([H])[H])c2[H])[H])[H])([H])[H])[H])([H])[H])c2c(c(Cl)c(c(c2C1=O)[H])[H])[H])([H])[H])([H])[H])[H])([H])([H])[H]

>  <h>  (26) 
<NA>

>  <Training>  (26) 
True

>  <Success>  (26) 
True

>  <enamine_searched>  (26) 
False

>  <enamine_id>  (26) 
nan

$$$$

     RDKit          3D

 43 47  0  0  0  0  0  0  0  0999 V2000
    8.8390    0.6066   20.6654 O   0  0  0  0  0  0  0  0  0  0  0  0
    8.2010   -0.3451   21.0539 C   0  0  0  0  0  0  0  0  0  0  0  0
    8.6316   -1.4612   21.7377 N   0  0  0  0  0  0  0  0  0  0  0  0
    7.5329   -2.0963   22.4612 C   0  0  1  0  0  0  0  0  0  0  0  0
    7.5573   -3.6281   22.6556 C   0  0  0  0  0  0  0  0  0  0  0  0
    7.6954   -3.4501   24.2053 C   0  0  2  0  0  0  0  0  0  0  0  0
    6.6254   -4.0649   25.0552 C   0  0  0  0  0  0  0  0  0  0  0  0
    5.2881   -3.9473   24.6606 C   0  0  0  0  0  0  0  0  0  0  0  0
    4.2785   -4.6818   25.2659 C   0  0  0  0  0  0  0  0  0  0  0  0
    4.5670   -5.4487   26.3884 C   0  0  0  0  0  0  0  0  0  0  0  0
    5.8644   -5.4815   26.8788 C   0  0  0  0  0  0  0  0  0  0  0  0
    6.8871   -4.8249   26.2010 C   0  0  0  0  0  0  0  0  0  0  0  0
    8.5205   -5.1077   26.7613 Cl  0  0  0  0  0  0  0  0  0  0  0  0
    6.1235   -6.0553   27.7610 H   0  0  0  0  0  0  0  0  0  0  0  0
    3.7755   -6.0196   26.8632 H   0  0  0  0  0  0  0  0  0  0  0  0
    3.2648   -4.6190   24.8809 H   0  0  0  0  0  0  0  0  0  0  0  0
    5.0308   -3.2915   23.8311 H   0  0  0  0  0  0  0  0  0  0  0  0
    7.5320   -1.9159   24.0020 C   0  0  0  0  0  0  0  0  0  0  0  0
    8.3233   -1.2690   24.3882 H   0  0  0  0  0  0  0  0  0  0  0  0
    6.5697   -1.5533   24.3704 H   0  0  0  0  0  0  0  0  0  0  0  0
    8.6886   -3.7491   24.5436 H   0  0  0  0  0  0  0  0  0  0  0  0
    8.3894   -4.1178   22.1439 H   0  0  0  0  0  0  0  0  0  0  0  0
    6.6227   -4.1093   22.3524 H   0  0  0  0  0  0  0  0  0  0  0  0
    6.3283   -1.5227   21.7322 C   0  0  0  0  0  0  0  0  0  0  0  0
    5.1628   -1.8304   21.8549 O   0  0  0  0  0  0  0  0  0  0  0  0
    6.8201   -0.5187   20.8937 N   0  0  0  0  0  0  0  0  0  0  0  0
    6.1151    0.0540   19.8077 C   0  0  0  0  0  0  0  0  0  0  0  0
    6.4805   -0.2336   18.5146 C   0  0  0  0  0  0  0  0  0  0  0  0
    5.8208    0.2168   17.4185 N   0  0  0  0  0  0  0  0  0  0  0  0
    4.7895    0.9987   17.6195 C   0  0  0  0  0  0  0  0  0  0  0  0
    4.3347    1.3920   18.9077 C   0  0  0  0  0  0  0  0  0  0  0  0
    3.2234    2.2537   19.0602 C   0  0  0  0  0  0  0  0  0  0  0  0
    2.8139    2.6360   20.3058 C   0  0  0  0  0  0  0  0  0  0  0  0
    3.4979    2.1851   21.4565 C   0  0  0  0  0  0  0  0  0  0  0  0
    4.5783    1.3484   21.3367 C   0  0  0  0  0  0  0  0  0  0  0  0
    5.0120    0.9210   20.0493 C   0  0  0  0  0  0  0  0  0  0  0  0
    5.1060    1.0119   22.2248 H   0  0  0  0  0  0  0  0  0  0  0  0
    3.1680    2.5110   22.4395 H   0  0  0  0  0  0  0  0  0  0  0  0
    1.9601    3.2957   20.4187 H   0  0  0  0  0  0  0  0  0  0  0  0
    2.7263    2.6028   18.1606 H   0  0  0  0  0  0  0  0  0  0  0  0
    4.2512    1.3693   16.7442 H   0  0  0  0  0  0  0  0  0  0  0  0
    7.3304   -0.8812   18.3088 H   0  0  0  0  0  0  0  0  0  0  0  0
    9.5632   -1.4247   22.1210 H   0  0  0  0  0  0  0  0  0  0  0  0
  1  2  2  0
  2  3  1  0
  4  3  1  6
  4  5  1  0
  5  6  1  0
  6  7  1  0
  7  8  2  0
  8  9  1  0
  9 10  2  0
 10 11  1  0
 11 12  2  0
 12 13  1  0
 11 14  1  0
 10 15  1  0
  9 16  1  0
  8 17  1  0
  6 18  1  0
 18 19  1  0
 18 20  1  0
  6 21  1  1
  5 22  1  0
  5 23  1  0
  4 24  1  0
 24 25  2  0
 24 26  1  0
 26 27  1  0
 27 28  2  0
 28 29  1  0
 29 30  2  0
 30 31  1  0
 31 32  2  0
 32 33  1  0
 33 34  2  0
 34 35  1  0
 35 36  2  0
 35 37  1  0
 34 38  1  0
 33 39  1  0
 32 40  1  0
 30 41  1  0
 28 42  1  0
  3 43  1  0
 26  2  1  0
 36 27  1  0
 18  4  1  0
 36 31  1  0
 12  7  1  0
M  END
>  <cnnaffinities>  (27) 
[5.86223]

>  <score>  (27) 
5.86223

>  <index>  (27) 
26

>  <Smiles>  (27) 
O=C1N([C@]2(C([C@](c3c(c(c(c(c3Cl)[H])[H])[H])[H])(C2([H])[H])[H])([H])[H])C(=O)N1c1c(nc(c2c(c(c(c(c12)[H])[H])[H])[H])[H])[H])[H]

>  <h>  (27) 
<NA>

>  <Training>  (27) 
True

>  <Success>  (27) 
True

>  <enamine_searched>  (27) 
False

>  <enamine_id>  (27) 
nan

$$$$

     RDKit          3D

 46 48  0  0  0  0  0  0  0  0999 V2000
    5.0753   -4.5804   23.2289 C   0  0  0  0  0  0  0  0  0  0  0  0
    4.9701   -3.4981   24.2921 C   0  0  0  0  0  0  0  0  0  0  0  0
    4.8843   -2.0868   23.6972 C   0  0  1  0  0  0  0  0  0  0  0  0
    4.4647   -1.0057   24.7113 C   0  0  0  0  0  0  0  0  0  0  0  0
    5.5786   -0.3583   25.5446 C   0  0  1  0  0  0  0  0  0  0  0  0
    5.8700   -1.0642   26.8645 C   0  0  0  0  0  0  0  0  0  0  0  0
    6.6136   -0.2801   27.6756 F   0  0  0  0  0  0  0  0  0  0  0  0
    4.7515   -1.3630   27.5511 F   0  0  0  0  0  0  0  0  0  0  0  0
    6.5581   -2.2156   26.7221 F   0  0  0  0  0  0  0  0  0  0  0  0
    6.8494   -0.1120   24.7327 C   0  0  0  0  0  0  0  0  0  0  0  0
    7.2253   -1.2863   23.8421 C   0  0  0  0  0  0  0  0  0  0  0  0
    6.1058   -1.6622   22.9950 N   0  0  0  0  0  0  0  0  0  0  0  0
    6.1267   -1.6276   21.6091 C   0  0  0  0  0  0  0  0  0  0  0  0
    5.4997   -2.4223   20.9329 O   0  0  0  0  0  0  0  0  0  0  0  0
    6.9104   -0.4954   20.9106 C   0  0  0  0  0  0  0  0  0  0  0  0
    6.1182    0.0915   19.7622 C   0  0  0  0  0  0  0  0  0  0  0  0
    6.4223   -0.2152   18.4590 C   0  0  0  0  0  0  0  0  0  0  0  0
    5.7569    0.2360   17.3618 N   0  0  0  0  0  0  0  0  0  0  0  0
    4.7352    1.0317   17.5745 C   0  0  0  0  0  0  0  0  0  0  0  0
    4.2869    1.4224   18.8674 C   0  0  0  0  0  0  0  0  0  0  0  0
    3.1641    2.2717   19.0445 C   0  0  0  0  0  0  0  0  0  0  0  0
    2.7473    2.6241   20.3022 C   0  0  0  0  0  0  0  0  0  0  0  0
    3.4406    2.1384   21.4330 C   0  0  0  0  0  0  0  0  0  0  0  0
    4.5335    1.3173   21.2852 C   0  0  0  0  0  0  0  0  0  0  0  0
    4.9916    0.9377   19.9954 C   0  0  0  0  0  0  0  0  0  0  0  0
    5.0553    0.9627   22.1682 H   0  0  0  0  0  0  0  0  0  0  0  0
    3.1065    2.4238   22.4257 H   0  0  0  0  0  0  0  0  0  0  0  0
    1.8892    3.2770   20.4372 H   0  0  0  0  0  0  0  0  0  0  0  0
    2.6429    2.6429   18.1650 H   0  0  0  0  0  0  0  0  0  0  0  0
    4.1992    1.3999   16.6986 H   0  0  0  0  0  0  0  0  0  0  0  0
    7.2659   -0.8685   18.2436 H   0  0  0  0  0  0  0  0  0  0  0  0
    7.8431   -0.9204   20.5187 H   0  0  0  0  0  0  0  0  0  0  0  0
    7.1881    0.2957   21.6208 H   0  0  0  0  0  0  0  0  0  0  0  0
    7.5309   -2.1343   24.4643 H   0  0  0  0  0  0  0  0  0  0  0  0
    8.0887   -1.0437   23.2180 H   0  0  0  0  0  0  0  0  0  0  0  0
    6.6685    0.7496   24.0847 H   0  0  0  0  0  0  0  0  0  0  0  0
    7.6811    0.1587   25.3865 H   0  0  0  0  0  0  0  0  0  0  0  0
    5.2068    0.6116   25.8979 H   0  0  0  0  0  0  0  0  0  0  0  0
    3.6795   -1.3898   25.3688 H   0  0  0  0  0  0  0  0  0  0  0  0
    3.9980   -0.1942   24.1397 H   0  0  0  0  0  0  0  0  0  0  0  0
    4.0974   -2.1251   22.9379 H   0  0  0  0  0  0  0  0  0  0  0  0
    5.8037   -3.5600   24.9943 H   0  0  0  0  0  0  0  0  0  0  0  0
    4.0642   -3.6795   24.8885 H   0  0  0  0  0  0  0  0  0  0  0  0
    5.0267   -5.5769   23.6689 H   0  0  0  0  0  0  0  0  0  0  0  0
    4.2488   -4.5281   22.5153 H   0  0  0  0  0  0  0  0  0  0  0  0
    6.0042   -4.4814   22.6626 H   0  0  0  0  0  0  0  0  0  0  0  0
  1  2  1  0
  2  3  1  0
  3  4  1  0
  4  5  1  0
  5  6  1  0
  6  7  1  0
  6  8  1  0
  6  9  1  0
  5 10  1  0
 10 11  1  0
 11 12  1  0
 12 13  1  0
 13 14  2  0
 13 15  1  0
 15 16  1  0
 16 17  2  0
 17 18  1  0
 18 19  2  0
 19 20  1  0
 20 21  2  0
 21 22  1  0
 22 23  2  0
 23 24  1  0
 24 25  2  0
 24 26  1  0
 23 27  1  0
 22 28  1  0
 21 29  1  0
 19 30  1  0
 17 31  1  0
 15 32  1  0
 15 33  1  0
 11 34  1  0
 11 35  1  0
 10 36  1  0
 10 37  1  0
  5 38  1  1
  4 39  1  0
  4 40  1  0
  3 41  1  6
  2 42  1  0
  2 43  1  0
  1 44  1  0
  1 45  1  0
  1 46  1  0
 12  3  1  0
 25 16  1  0
 25 20  1  0
M  END
>  <cnnaffinities>  (28) 
[5.63217, 5.63195, 5.63196, 5.63218, 5.63218, 5.15736, 5.15697, 5.386, 5.38553, 5.38537, 5.38532, 5.38505]

>  <score>  (28) 
5.63217

>  <index>  (28) 
27

>  <Smiles>  (28) 
C(C([C@]1(C([C@@](C(F)(F)F)(C(C(N1C(=O)C(c1c(nc(c2c(c(c(c(c12)[H])[H])[H])[H])[H])[H])([H])[H])([H])[H])([H])[H])[H])([H])[H])[H])([H])[H])([H])([H])[H]

>  <h>  (28) 
<NA>

>  <Training>  (28) 
True

>  <Success>  (28) 
True

>  <enamine_searched>  (28) 
False

>  <enamine_id>  (28) 
nan

$$$$

     RDKit          3D

 70 75  0  0  0  0  0  0  0  0999 V2000
   12.0715    4.8787   24.5602 C   0  0  0  0  0  0  0  0  0  0  0  0
   11.0146    4.0618   25.1892 N   0  0  0  0  0  4  0  0  0  0  0  0
   10.9093    2.6785   24.6359 C   0  0  0  0  0  0  0  0  0  0  0  0
    9.9447    2.5051   23.4561 C   0  0  0  0  0  0  0  0  0  0  0  0
    9.9115    1.1044   23.0775 N   0  0  0  0  0  0  0  0  0  0  0  0
    8.8382    0.2256   23.4986 C   0  0  0  0  0  0  0  0  0  0  0  0
    8.4580   -0.7841   22.3804 C   0  0  2  0  0  0  0  0  0  0  0  0
    7.9113   -0.0339   21.1479 C   0  0  0  0  0  0  0  0  0  0  0  0
    8.4439    0.8740   20.5443 O   0  0  0  0  0  0  0  0  0  0  0  0
    6.6807   -0.5568   20.8258 N   0  0  0  0  0  0  0  0  0  0  0  0
    5.9613   -0.0048   19.7341 C   0  0  0  0  0  0  0  0  0  0  0  0
    6.3610   -0.2535   18.4448 C   0  0  0  0  0  0  0  0  0  0  0  0
    5.7281    0.2220   17.3417 N   0  0  0  0  0  0  0  0  0  0  0  0
    4.6954    1.0076   17.5308 C   0  0  0  0  0  0  0  0  0  0  0  0
    4.2018    1.3820   18.8136 C   0  0  0  0  0  0  0  0  0  0  0  0
    3.1073    2.2716   18.9670 C   0  0  0  0  0  0  0  0  0  0  0  0
    2.6971    2.6532   20.2147 C   0  0  0  0  0  0  0  0  0  0  0  0
    3.3606    2.1692   21.3635 C   0  0  0  0  0  0  0  0  0  0  0  0
    4.4160    1.2989   21.2429 C   0  0  0  0  0  0  0  0  0  0  0  0
    4.8553    0.8758   19.9580 C   0  0  0  0  0  0  0  0  0  0  0  0
    4.9371    0.9460   22.1279 H   0  0  0  0  0  0  0  0  0  0  0  0
    3.0398    2.4977   22.3472 H   0  0  0  0  0  0  0  0  0  0  0  0
    1.8666    3.3441   20.3310 H   0  0  0  0  0  0  0  0  0  0  0  0
    2.6240    2.6539   18.0729 H   0  0  0  0  0  0  0  0  0  0  0  0
    4.1925    1.3990   16.6457 H   0  0  0  0  0  0  0  0  0  0  0  0
    7.2411   -0.8640   18.2526 H   0  0  0  0  0  0  0  0  0  0  0  0
    6.3028   -1.7238   21.6011 C   0  0  0  0  0  0  0  0  0  0  0  0
    7.3257   -1.7666   22.7644 C   0  0  2  0  0  0  0  0  0  0  0  0
    6.6420   -1.4801   24.1113 C   0  0  0  0  0  0  0  0  0  0  0  0
    5.6170   -2.4112   24.3764 O   0  0  0  0  0  0  0  0  0  0  0  0
    6.0567   -3.5729   25.0409 C   0  0  0  0  0  0  0  0  0  0  0  0
    4.8621   -4.4892   25.1549 C   0  0  0  0  0  0  0  0  0  0  0  0
    4.5430   -4.9967   23.9135 F   0  0  0  0  0  0  0  0  0  0  0  0
    3.7082   -3.8821   25.9515 C   0  0  0  0  0  0  0  0  0  0  0  0
    3.9956   -4.7436   27.0647 O   0  0  0  0  0  0  0  0  0  0  0  0
    4.9121   -5.5187   26.2802 C   0  0  0  0  0  0  0  0  0  0  0  0
    5.8743   -5.6501   26.7879 H   0  0  0  0  0  0  0  0  0  0  0  0
    4.4903   -6.4883   25.9865 H   0  0  0  0  0  0  0  0  0  0  0  0
    3.8221   -2.8237   26.2063 H   0  0  0  0  0  0  0  0  0  0  0  0
    2.7291   -4.0794   25.4989 H   0  0  0  0  0  0  0  0  0  0  0  0
    6.4287   -3.3221   26.0488 H   0  0  0  0  0  0  0  0  0  0  0  0
    6.8710   -4.0805   24.4982 H   0  0  0  0  0  0  0  0  0  0  0  0
    6.1658   -0.4937   24.0865 H   0  0  0  0  0  0  0  0  0  0  0  0
    7.3668   -1.4889   24.9391 H   0  0  0  0  0  0  0  0  0  0  0  0
    7.7655   -2.7672   22.8704 H   0  0  0  0  0  0  0  0  0  0  0  0
    5.2775   -1.6313   21.9750 H   0  0  0  0  0  0  0  0  0  0  0  0
    6.3426   -2.6338   20.9882 H   0  0  0  0  0  0  0  0  0  0  0  0
    9.7223   -1.4959   21.9460 C   0  0  0  0  0  0  0  0  0  0  0  0
    9.6721   -2.7254   21.2718 C   0  0  0  0  0  0  0  0  0  0  0  0
   10.8077   -3.1868   20.6332 C   0  0  0  0  0  0  0  0  0  0  0  0
   10.6805   -4.2538   19.2067 Cl  0  0  0  0  0  0  0  0  0  0  0  0
   12.0379   -2.5654   20.8277 C   0  0  0  0  0  0  0  0  0  0  0  0
   12.0827   -1.3515   21.4775 C   0  0  0  0  0  0  0  0  0  0  0  0
   10.9224   -0.7897   21.9781 C   0  0  0  0  0  0  0  0  0  0  0  0
   11.0073    0.6245   22.4416 C   0  0  0  0  0  0  0  0  0  0  0  0
   11.9983    1.3159   22.2160 O   0  0  0  0  0  0  0  0  0  0  0  0
   12.9722   -0.7342   21.5286 H   0  0  0  0  0  0  0  0  0  0  0  0
   12.9130   -3.0216   20.3867 H   0  0  0  0  0  0  0  0  0  0  0  0
    8.7562   -3.2967   21.1861 H   0  0  0  0  0  0  0  0  0  0  0  0
    7.9828    0.8515   23.7600 H   0  0  0  0  0  0  0  0  0  0  0  0
    9.1389   -0.3463   24.3917 H   0  0  0  0  0  0  0  0  0  0  0  0
    8.9146    2.8068   23.6865 H   0  0  0  0  0  0  0  0  0  0  0  0
   10.2817    3.0716   22.5788 H   0  0  0  0  0  0  0  0  0  0  0  0
   10.5984    2.0172   25.4382 H   0  0  0  0  0  0  0  0  0  0  0  0
   11.8979    2.3632   24.3153 H   0  0  0  0  0  0  0  0  0  0  0  0
   10.0805    4.5155   25.0440 H   0  0  0  0  0  0  0  0  0  0  0  0
   11.1950    4.0122   26.2111 H   0  0  0  0  0  0  0  0  0  0  0  0
   11.7894    5.1793   23.5508 H   0  0  0  0  0  0  0  0  0  0  0  0
   12.2539    5.7680   25.1568 H   0  0  0  0  0  0  0  0  0  0  0  0
   13.0000    4.3069   24.4874 H   0  0  0  0  0  0  0  0  0  0  0  0
  1  2  1  0
  2  3  1  0
  3  4  1  0
  4  5  1  0
  5  6  1  0
  7  6  1  1
  7  8  1  0
  8  9  2  0
  8 10  1  0
 10 11  1  0
 11 12  2  0
 12 13  1  0
 13 14  2  0
 14 15  1  0
 15 16  2  0
 16 17  1  0
 17 18  2  0
 18 19  1  0
 19 20  2  0
 19 21  1  0
 18 22  1  0
 17 23  1  0
 16 24  1  0
 14 25  1  0
 12 26  1  0
 10 27  1  0
 27 28  1  0
 28 29  1  0
 29 30  1  0
 30 31  1  0
 31 32  1  0
 32 33  1  0
 32 34  1  0
 34 35  1  0
 35 36  1  0
 36 37  1  0
 36 38  1  0
 34 39  1  0
 34 40  1  0
 31 41  1  0
 31 42  1  0
 29 43  1  0
 29 44  1  0
 28 45  1  1
 27 46  1  0
 27 47  1  0
  7 48  1  0
 48 49  2  0
 49 50  1  0
 50 51  1  0
 50 52  2  0
 52 53  1  0
 53 54  2  0
 54 55  1  0
 55 56  2  0
 53 57  1  0
 52 58  1  0
 49 59  1  0
  6 60  1  0
  6 61  1  0
  4 62  1  0
  4 63  1  0
  3 64  1  0
  3 65  1  0
  2 66  1  0
  2 67  1  0
  1 68  1  0
  1 69  1  0
  1 70  1  0
 55  5  1  0
 28  7  1  0
 36 32  1  0
 54 48  1  0
 20 11  1  0
 20 15  1  0
M  CHG  1   2   1
M  END
>  <cnnaffinities>  (29) 
[6.08454]

>  <score>  (29) 
6.08454

>  <index>  (29) 
28

>  <Smiles>  (29) 
C([N+](C(C(N1C([C@@]2(C(=O)N(c3c(nc(c4c(c(c(c(c34)[H])[H])[H])[H])[H])[H])C([C@@]2(C(OC(C2(F)C(OC2([H])[H])([H])[H])([H])[H])([H])[H])[H])([H])[H])c2c(c(Cl)c(c(c2C1=O)[H])[H])[H])([H])[H])([H])[H])([H])[H])([H])[H])([H])([H])[H]

>  <h>  (29) 
<NA>

>  <Training>  (29) 
True

>  <Success>  (29) 
True

>  <enamine_searched>  (29) 
False

>  <enamine_id>  (29) 
nan

$$$$

     RDKit          3D

 67 72  0  0  0  0  0  0  0  0999 V2000
    6.4000    4.3911   21.1333 C   0  0  0  0  0  0  0  0  0  0  0  0
    6.8358    3.4166   22.1259 N   0  0  0  0  0  4  0  0  0  0  0  0
    7.9137    3.9471   22.9625 C   0  0  0  0  0  0  0  0  0  0  0  0
    8.2694    3.0737   24.1525 C   0  0  0  0  0  0  0  0  0  0  0  0
    8.8039    1.7587   23.8362 N   0  0  0  0  0  0  0  0  0  0  0  0
    8.0151    0.5277   23.7956 C   0  0  0  0  0  0  0  0  0  0  0  0
    8.3552   -0.3516   22.5561 C   0  0  2  0  0  0  0  0  0  0  0  0
    7.7947    0.3253   21.2985 C   0  0  0  0  0  0  0  0  0  0  0  0
    8.0710    1.4473   20.8859 O   0  0  0  0  0  0  0  0  0  0  0  0
    6.8158   -0.4571   20.7554 N   0  0  0  0  0  0  0  0  0  0  0  0
    6.0605    0.0690   19.6803 C   0  0  0  0  0  0  0  0  0  0  0  0
    6.4216   -0.2039   18.3866 C   0  0  0  0  0  0  0  0  0  0  0  0
    5.7478    0.2578   17.3081 N   0  0  0  0  0  0  0  0  0  0  0  0
    4.7264    1.0521   17.5364 C   0  0  0  0  0  0  0  0  0  0  0  0
    4.2894    1.4521   18.8341 C   0  0  0  0  0  0  0  0  0  0  0  0
    3.1963    2.3377   19.0353 C   0  0  0  0  0  0  0  0  0  0  0  0
    2.8126    2.7072   20.2973 C   0  0  0  0  0  0  0  0  0  0  0  0
    3.5109    2.2229   21.4226 C   0  0  0  0  0  0  0  0  0  0  0  0
    4.5729    1.3641   21.2524 C   0  0  0  0  0  0  0  0  0  0  0  0
    4.9831    0.9527   19.9513 C   0  0  0  0  0  0  0  0  0  0  0  0
    5.1023    0.9971   22.1265 H   0  0  0  0  0  0  0  0  0  0  0  0
    3.2254    2.5471   22.4201 H   0  0  0  0  0  0  0  0  0  0  0  0
    1.9831    3.3936   20.4363 H   0  0  0  0  0  0  0  0  0  0  0  0
    2.6869    2.7244   18.1590 H   0  0  0  0  0  0  0  0  0  0  0  0
    4.1871    1.4277   16.6672 H   0  0  0  0  0  0  0  0  0  0  0  0
    7.2908   -0.8293   18.1895 H   0  0  0  0  0  0  0  0  0  0  0  0
    6.3595   -1.5001   21.6577 C   0  0  0  0  0  0  0  0  0  0  0  0
    7.6311   -1.7222   22.4707 C   0  0  2  0  0  0  0  0  0  0  0  0
    7.4864   -2.5394   23.7457 C   0  0  0  0  0  0  0  0  0  0  0  0
    6.9338   -3.8551   23.4733 N   0  0  0  0  0  0  0  0  0  0  0  0
    5.6230   -4.1212   23.5731 C   0  0  0  0  0  0  0  0  0  0  0  0
    4.8360   -3.1794   24.1315 N   0  0  0  0  0  0  0  0  0  0  0  0
    3.6078   -3.5975   24.3977 C   0  0  0  0  0  0  0  0  0  0  0  0
    3.0895   -4.7876   24.0915 N   0  0  0  0  0  0  0  0  0  0  0  0
    3.9336   -5.5841   23.4275 C   0  0  0  0  0  0  0  0  0  0  0  0
    5.1914   -5.3200   23.1175 N   0  0  0  0  0  0  0  0  0  0  0  0
    3.5510   -6.5589   23.1199 H   0  0  0  0  0  0  0  0  0  0  0  0
    2.9733   -2.8884   24.9286 H   0  0  0  0  0  0  0  0  0  0  0  0
    7.5093   -4.5741   23.0618 H   0  0  0  0  0  0  0  0  0  0  0  0
    6.8154   -2.0378   24.4470 H   0  0  0  0  0  0  0  0  0  0  0  0
    8.4693   -2.6632   24.2123 H   0  0  0  0  0  0  0  0  0  0  0  0
    8.2562   -2.3081   21.7996 H   0  0  0  0  0  0  0  0  0  0  0  0
    5.5076   -1.1857   22.2801 H   0  0  0  0  0  0  0  0  0  0  0  0
    6.0561   -2.3832   21.0927 H   0  0  0  0  0  0  0  0  0  0  0  0
    9.8561   -0.4913   22.4880 C   0  0  0  0  0  0  0  0  0  0  0  0
   10.4617   -1.5319   21.7847 C   0  0  0  0  0  0  0  0  0  0  0  0
   11.8314   -1.6246   21.7102 C   0  0  0  0  0  0  0  0  0  0  0  0
   12.3722   -2.8970   20.6569 Cl  0  0  0  0  0  0  0  0  0  0  0  0
   12.6614   -0.7196   22.3827 C   0  0  0  0  0  0  0  0  0  0  0  0
   12.0684    0.3271   23.0506 C   0  0  0  0  0  0  0  0  0  0  0  0
   10.6896    0.4697   23.0599 C   0  0  0  0  0  0  0  0  0  0  0  0
   10.1560    1.7255   23.6488 C   0  0  0  0  0  0  0  0  0  0  0  0
   10.8970    2.6634   23.9314 O   0  0  0  0  0  0  0  0  0  0  0  0
   12.6630    1.0793   23.5560 H   0  0  0  0  0  0  0  0  0  0  0  0
   13.7377   -0.7551   22.4008 H   0  0  0  0  0  0  0  0  0  0  0  0
    9.9044   -2.2947   21.2561 H   0  0  0  0  0  0  0  0  0  0  0  0
    6.9522    0.7819   23.7820 H   0  0  0  0  0  0  0  0  0  0  0  0
    8.2134   -0.0694   24.6972 H   0  0  0  0  0  0  0  0  0  0  0  0
    9.1252    3.5973   24.5714 H   0  0  0  0  0  0  0  0  0  0  0  0
    7.4531    2.9873   24.8832 H   0  0  0  0  0  0  0  0  0  0  0  0
    8.8135    4.1008   22.3518 H   0  0  0  0  0  0  0  0  0  0  0  0
    7.6179    4.9237   23.3595 H   0  0  0  0  0  0  0  0  0  0  0  0
    7.1945    2.5825   21.6268 H   0  0  0  0  0  0  0  0  0  0  0  0
    6.0337    3.1258   22.7061 H   0  0  0  0  0  0  0  0  0  0  0  0
    7.1851    4.5014   20.3838 H   0  0  0  0  0  0  0  0  0  0  0  0
    6.2343    5.3706   21.5883 H   0  0  0  0  0  0  0  0  0  0  0  0
    5.4803    4.0582   20.6540 H   0  0  0  0  0  0  0  0  0  0  0  0
  1  2  1  0
  2  3  1  0
  3  4  1  0
  4  5  1  0
  5  6  1  0
  7  6  1  1
  7  8  1  0
  8  9  2  0
  8 10  1  0
 10 11  1  0
 11 12  2  0
 12 13  1  0
 13 14  2  0
 14 15  1  0
 15 16  2  0
 16 17  1  0
 17 18  2  0
 18 19  1  0
 19 20  2  0
 19 21  1  0
 18 22  1  0
 17 23  1  0
 16 24  1  0
 14 25  1  0
 12 26  1  0
 10 27  1  0
 27 28  1  0
 28 29  1  0
 29 30  1  0
 30 31  1  0
 31 32  2  0
 32 33  1  0
 33 34  2  0
 34 35  1  0
 35 36  2  0
 35 37  1  0
 33 38  1  0
 30 39  1  0
 29 40  1  0
 29 41  1  0
 28 42  1  6
 27 43  1  0
 27 44  1  0
  7 45  1  0
 45 46  2  0
 46 47  1  0
 47 48  1  0
 47 49  2  0
 49 50  1  0
 50 51  2  0
 51 52  1  0
 52 53  2  0
 50 54  1  0
 49 55  1  0
 46 56  1  0
  6 57  1  0
  6 58  1  0
  4 59  1  0
  4 60  1  0
  3 61  1  0
  3 62  1  0
  2 63  1  0
  2 64  1  0
  1 65  1  0
  1 66  1  0
  1 67  1  0
 52  5  1  0
 28  7  1  0
 36 31  1  0
 51 45  1  0
 20 11  1  0
 20 15  1  0
M  CHG  1   2   1
M  END
>  <cnnaffinities>  (30) 
[6.32171]

>  <score>  (30) 
6.32171

>  <index>  (30) 
29

>  <Smiles>  (30) 
C([N+](C(C(N1C([C@@]2(C(=O)N(c3c(nc(c4c(c(c(c(c34)[H])[H])[H])[H])[H])[H])C([C@@]2(C(N(c2nc(nc(n2)[H])[H])[H])([H])[H])[H])([H])[H])c2c(c(Cl)c(c(c2C1=O)[H])[H])[H])([H])[H])([H])[H])([H])[H])([H])[H])([H])([H])[H]

>  <h>  (30) 
<NA>

>  <Training>  (30) 
True

>  <Success>  (30) 
True

>  <enamine_searched>  (30) 
False

>  <enamine_id>  (30) 
nan

$$$$

     RDKit          3D

 66 71  0  0  0  0  0  0  0  0999 V2000
    6.5499    4.3909   21.2283 C   0  0  0  0  0  0  0  0  0  0  0  0
    7.5266    3.9624   22.2098 N   0  0  0  0  0  0  0  0  0  0  0  0
    7.0820    3.3174   23.3178 C   0  0  0  0  0  0  0  0  0  0  0  0
    5.8984    3.0788   23.5186 O   0  0  0  0  0  0  0  0  0  0  0  0
    8.1516    2.9224   24.3201 C   0  0  0  0  0  0  0  0  0  0  0  0
    8.8153    1.6952   23.9444 N   0  0  0  0  0  0  0  0  0  0  0  0
    8.0339    0.4735   23.8436 C   0  0  0  0  0  0  0  0  0  0  0  0
    8.4168   -0.3490   22.5949 C   0  0  2  0  0  0  0  0  0  0  0  0
    7.9465    0.3111   21.2760 C   0  0  0  0  0  0  0  0  0  0  0  0
    8.4360    1.2718   20.7162 O   0  0  0  0  0  0  0  0  0  0  0  0
    6.8715   -0.4017   20.7946 N   0  0  0  0  0  0  0  0  0  0  0  0
    6.1040    0.1007   19.7220 C   0  0  0  0  0  0  0  0  0  0  0  0
    6.4492   -0.2053   18.4318 C   0  0  0  0  0  0  0  0  0  0  0  0
    5.7698    0.2305   17.3456 N   0  0  0  0  0  0  0  0  0  0  0  0
    4.7383    1.0152   17.5572 C   0  0  0  0  0  0  0  0  0  0  0  0
    4.2819    1.4151   18.8477 C   0  0  0  0  0  0  0  0  0  0  0  0
    3.1713    2.2796   19.0341 C   0  0  0  0  0  0  0  0  0  0  0  0
    2.7743    2.6440   20.2935 C   0  0  0  0  0  0  0  0  0  0  0  0
    3.4702    2.1704   21.4287 C   0  0  0  0  0  0  0  0  0  0  0  0
    4.5501    1.3354   21.2750 C   0  0  0  0  0  0  0  0  0  0  0  0
    4.9798    0.9372   19.9771 C   0  0  0  0  0  0  0  0  0  0  0  0
    5.1111    1.0206   22.1501 H   0  0  0  0  0  0  0  0  0  0  0  0
    3.1804    2.4929   22.4246 H   0  0  0  0  0  0  0  0  0  0  0  0
    1.9278    3.3114   20.4264 H   0  0  0  0  0  0  0  0  0  0  0  0
    2.6630    2.6576   18.1525 H   0  0  0  0  0  0  0  0  0  0  0  0
    4.2055    1.3791   16.6791 H   0  0  0  0  0  0  0  0  0  0  0  0
    7.3146   -0.8383   18.2457 H   0  0  0  0  0  0  0  0  0  0  0  0
    6.4544   -1.4971   21.6408 C   0  0  0  0  0  0  0  0  0  0  0  0
    7.6938   -1.7232   22.5124 C   0  0  2  0  0  0  0  0  0  0  0  0
    7.4329   -2.5316   23.7983 C   0  0  0  0  0  0  0  0  0  0  0  0
    6.7582   -3.8317   23.4147 C   0  0  0  0  0  0  0  0  0  0  0  0
    7.4685   -4.7986   22.6893 C   0  0  0  0  0  0  0  0  0  0  0  0
    6.8149   -5.9016   22.1367 C   0  0  0  0  0  0  0  0  0  0  0  0
    5.4383   -6.0454   22.2850 C   0  0  0  0  0  0  0  0  0  0  0  0
    4.7215   -5.0752   22.9794 C   0  0  0  0  0  0  0  0  0  0  0  0
    5.3818   -4.0057   23.5872 C   0  0  0  0  0  0  0  0  0  0  0  0
    4.8050   -3.3063   24.2057 H   0  0  0  0  0  0  0  0  0  0  0  0
    3.6406   -5.1424   22.9968 H   0  0  0  0  0  0  0  0  0  0  0  0
    4.9273   -6.9269   21.9101 H   0  0  0  0  0  0  0  0  0  0  0  0
    7.3906   -6.6194   21.5611 H   0  0  0  0  0  0  0  0  0  0  0  0
    8.5397   -4.6701   22.5233 H   0  0  0  0  0  0  0  0  0  0  0  0
    8.3918   -2.7138   24.3084 H   0  0  0  0  0  0  0  0  0  0  0  0
    6.7786   -1.9607   24.4752 H   0  0  0  0  0  0  0  0  0  0  0  0
    8.3410   -2.3416   21.8883 H   0  0  0  0  0  0  0  0  0  0  0  0
    6.2011   -2.3825   21.0449 H   0  0  0  0  0  0  0  0  0  0  0  0
    5.5709   -1.2453   22.2460 H   0  0  0  0  0  0  0  0  0  0  0  0
    9.9174   -0.4375   22.5583 C   0  0  0  0  0  0  0  0  0  0  0  0
   10.5009   -1.4022   21.7472 C   0  0  0  0  0  0  0  0  0  0  0  0
   11.8660   -1.5076   21.6583 C   0  0  0  0  0  0  0  0  0  0  0  0
   12.3570   -2.8327   20.6405 Cl  0  0  0  0  0  0  0  0  0  0  0  0
   12.7035   -0.6128   22.3378 C   0  0  0  0  0  0  0  0  0  0  0  0
   12.1276    0.3906   23.0846 C   0  0  0  0  0  0  0  0  0  0  0  0
   10.7473    0.4934   23.1846 C   0  0  0  0  0  0  0  0  0  0  0  0
   10.1812    1.6712   23.9000 C   0  0  0  0  0  0  0  0  0  0  0  0
   10.8889    2.5507   24.3716 O   0  0  0  0  0  0  0  0  0  0  0  0
   12.7416    1.1257   23.5913 H   0  0  0  0  0  0  0  0  0  0  0  0
   13.7823   -0.6177   22.3125 H   0  0  0  0  0  0  0  0  0  0  0  0
    9.9211   -2.0817   21.1353 H   0  0  0  0  0  0  0  0  0  0  0  0
    6.9802    0.7582   23.8174 H   0  0  0  0  0  0  0  0  0  0  0  0
    8.2069   -0.1513   24.7330 H   0  0  0  0  0  0  0  0  0  0  0  0
    7.6477    2.8155   25.2869 H   0  0  0  0  0  0  0  0  0  0  0  0
    8.9334    3.6865   24.3913 H   0  0  0  0  0  0  0  0  0  0  0  0
    8.4701    3.7710   21.8951 H   0  0  0  0  0  0  0  0  0  0  0  0
    7.0420    5.0246   20.4877 H   0  0  0  0  0  0  0  0  0  0  0  0
    5.7752    4.9776   21.7310 H   0  0  0  0  0  0  0  0  0  0  0  0
    6.0659    3.5282   20.7444 H   0  0  0  0  0  0  0  0  0  0  0  0
  1  2  1  0
  2  3  1  0
  3  4  2  0
  3  5  1  0
  5  6  1  0
  6  7  1  0
  8  7  1  1
  8  9  1  0
  9 10  2  0
  9 11  1  0
 11 12  1  0
 12 13  2  0
 13 14  1  0
 14 15  2  0
 15 16  1  0
 16 17  2  0
 17 18  1  0
 18 19  2  0
 19 20  1  0
 20 21  2  0
 20 22  1  0
 19 23  1  0
 18 24  1  0
 17 25  1  0
 15 26  1  0
 13 27  1  0
 11 28  1  0
 28 29  1  0
 29 30  1  0
 30 31  1  0
 31 32  2  0
 32 33  1  0
 33 34  2  0
 34 35  1  0
 35 36  2  0
 36 37  1  0
 35 38  1  0
 34 39  1  0
 33 40  1  0
 32 41  1  0
 30 42  1  0
 30 43  1  0
 29 44  1  6
 28 45  1  0
 28 46  1  0
  8 47  1  0
 47 48  2  0
 48 49  1  0
 49 50  1  0
 49 51  2  0
 51 52  1  0
 52 53  2  0
 53 54  1  0
 54 55  2  0
 52 56  1  0
 51 57  1  0
 48 58  1  0
  7 59  1  0
  7 60  1  0
  5 61  1  0
  5 62  1  0
  2 63  1  0
  1 64  1  0
  1 65  1  0
  1 66  1  0
 54  6  1  0
 29  8  1  0
 36 31  1  0
 53 47  1  0
 21 12  1  0
 21 16  1  0
M  END
>  <cnnaffinities>  (31) 
[6.59725]

>  <score>  (31) 
6.59725

>  <index>  (31) 
30

>  <Smiles>  (31) 
C(N(C(=O)C(N1C([C@@]2(C(=O)N(c3c(nc(c4c(c(c(c(c34)[H])[H])[H])[H])[H])[H])C([C@@]2(C(c2c(c(c(c(c2[H])[H])[H])[H])[H])([H])[H])[H])([H])[H])c2c(c(Cl)c(c(c2C1=O)[H])[H])[H])([H])[H])([H])[H])[H])([H])([H])[H]

>  <h>  (31) 
<NA>

>  <Training>  (31) 
True

>  <Success>  (31) 
True

>  <enamine_searched>  (31) 
False

>  <enamine_id>  (31) 
nan

$$$$

     RDKit          3D

 64 70  0  0  0  0  0  0  0  0999 V2000
    9.3256   -0.7866   25.5168 O   0  0  0  0  0  0  0  0  0  0  0  0
    9.1997   -0.7983   25.5231 C   0  0  0  0  0  0  0  0  0  0  0  0
   10.2286   -0.3275   24.5845 C   0  0  0  0  0  0  0  0  0  0  0  0
   11.5246    0.2286   24.7947 C   0  0  0  0  0  0  0  0  0  0  0  0
   12.4123    0.3887   23.7703 C   0  0  0  0  0  0  0  0  0  0  0  0
   12.0061    0.1091   22.4759 C   0  0  0  0  0  0  0  0  0  0  0  0
   13.2628    0.1810   21.3119 Cl  0  0  0  0  0  0  0  0  0  0  0  0
   10.6794   -0.2019   22.2104 C   0  0  0  0  0  0  0  0  0  0  0  0
    9.7437   -0.3412   23.2601 C   0  0  0  0  0  0  0  0  0  0  0  0
    8.2330   -0.5135   22.8698 C   0  0  1  0  0  0  0  0  0  0  0  0
    7.2690   -0.1233   24.0444 C   0  0  0  0  0  0  0  0  0  0  0  0
    7.7120   -0.8258   25.3537 N   0  0  0  0  0  0  0  0  0  0  0  0
    6.8231   -0.7672   26.6342 C   0  0  0  0  0  0  0  0  0  0  0  0
    6.8376   -2.1512   27.1535 C   0  0  0  0  0  0  0  0  0  0  0  0
    5.8992   -2.9113   27.5966 N   0  0  0  0  0  0  0  0  0  0  0  0
    6.5037   -4.1403   27.8709 N   0  0  0  0  0  0  0  0  0  0  0  0
    7.7483   -3.9983   27.5813 C   0  0  0  0  0  0  0  0  0  0  0  0
    8.0486   -2.7575   27.1199 O   0  0  0  0  0  0  0  0  0  0  0  0
    8.5416   -4.7334   27.6284 H   0  0  0  0  0  0  0  0  0  0  0  0
    5.8230   -0.4195   26.3912 H   0  0  0  0  0  0  0  0  0  0  0  0
    7.3072   -0.0821   27.3312 H   0  0  0  0  0  0  0  0  0  0  0  0
    6.2365   -0.4166   23.8362 H   0  0  0  0  0  0  0  0  0  0  0  0
    7.3328    0.9606   24.1882 H   0  0  0  0  0  0  0  0  0  0  0  0
    7.8020    0.3671   21.6691 C   0  0  0  0  0  0  0  0  0  0  0  0
    8.0569    1.5404   21.4814 O   0  0  0  0  0  0  0  0  0  0  0  0
    7.0043   -0.3855   20.8265 N   0  0  0  0  0  0  0  0  0  0  0  0
    6.2087    0.1493   19.7769 C   0  0  0  0  0  0  0  0  0  0  0  0
    6.4760   -0.2194   18.4816 C   0  0  0  0  0  0  0  0  0  0  0  0
    5.7920    0.2058   17.3911 N   0  0  0  0  0  0  0  0  0  0  0  0
    4.7795    1.0123   17.5954 C   0  0  0  0  0  0  0  0  0  0  0  0
    4.3415    1.4213   18.8856 C   0  0  0  0  0  0  0  0  0  0  0  0
    3.2073    2.2636   19.0393 C   0  0  0  0  0  0  0  0  0  0  0  0
    2.7618    2.6022   20.2871 C   0  0  0  0  0  0  0  0  0  0  0  0
    3.4320    2.1149   21.4330 C   0  0  0  0  0  0  0  0  0  0  0  0
    4.5456    1.3186   21.3078 C   0  0  0  0  0  0  0  0  0  0  0  0
    5.0485    0.9634   20.0229 C   0  0  0  0  0  0  0  0  0  0  0  0
    5.0457    0.9525   22.1995 H   0  0  0  0  0  0  0  0  0  0  0  0
    3.0631    2.3828   22.4199 H   0  0  0  0  0  0  0  0  0  0  0  0
    1.8942    3.2485   20.4055 H   0  0  0  0  0  0  0  0  0  0  0  0
    2.7098    2.6307   18.1431 H   0  0  0  0  0  0  0  0  0  0  0  0
    4.2353    1.3688   16.7192 H   0  0  0  0  0  0  0  0  0  0  0  0
    7.3079   -0.8923   18.2812 H   0  0  0  0  0  0  0  0  0  0  0  0
    6.8259   -1.7563   21.2598 C   0  0  0  0  0  0  0  0  0  0  0  0
    7.9401   -1.9466   22.2872 C   0  0  2  0  0  0  0  0  0  0  0  0
    7.6772   -3.0620   23.3063 C   0  0  0  0  0  0  0  0  0  0  0  0
    6.3031   -3.2037   23.7437 N   0  0  0  0  0  0  0  0  0  0  0  0
    5.4488   -4.1560   23.2861 C   0  0  0  0  0  0  0  0  0  0  0  0
    5.7208   -4.9096   22.1277 C   0  0  0  0  0  0  0  0  0  0  0  0
    4.7770   -5.8478   21.7730 C   0  0  0  0  0  0  0  0  0  0  0  0
    3.6384   -6.0416   22.4497 N   0  0  0  0  0  0  0  0  0  0  0  0
    3.4846   -5.2630   23.5106 C   0  0  0  0  0  0  0  0  0  0  0  0
    4.3137   -4.3316   23.9752 N   0  0  0  0  0  0  0  0  0  0  0  0
    2.5653   -5.4038   24.0781 H   0  0  0  0  0  0  0  0  0  0  0  0
    4.9301   -6.4839   20.9016 H   0  0  0  0  0  0  0  0  0  0  0  0
    6.6242   -4.7558   21.5443 H   0  0  0  0  0  0  0  0  0  0  0  0
    6.0512   -2.8440   24.6537 H   0  0  0  0  0  0  0  0  0  0  0  0
    8.2824   -2.8677   24.1912 H   0  0  0  0  0  0  0  0  0  0  0  0
    8.0136   -4.0175   22.8974 H   0  0  0  0  0  0  0  0  0  0  0  0
    8.8568   -2.2151   21.7425 H   0  0  0  0  0  0  0  0  0  0  0  0
    5.8309   -1.8954   21.6929 H   0  0  0  0  0  0  0  0  0  0  0  0
    6.9010   -2.4369   20.4091 H   0  0  0  0  0  0  0  0  0  0  0  0
   10.3695   -0.3023   21.1745 H   0  0  0  0  0  0  0  0  0  0  0  0
   13.4266    0.7006   23.9970 H   0  0  0  0  0  0  0  0  0  0  0  0
   11.9284    0.5652   25.7383 H   0  0  0  0  0  0  0  0  0  0  0  0
  1  2  2  0
  2  3  1  0
  3  4  2  0
  4  5  1  0
  5  6  2  0
  6  7  1  0
  6  8  1  0
  8  9  2  0
  9 10  1  0
 10 11  1  1
 11 12  1  0
 12 13  1  0
 13 14  1  0
 14 15  2  0
 15 16  1  0
 16 17  2  0
 17 18  1  0
 17 19  1  0
 13 20  1  0
 13 21  1  0
 11 22  1  0
 11 23  1  0
 10 24  1  0
 24 25  2  0
 24 26  1  0
 26 27  1  0
 27 28  2  0
 28 29  1  0
 29 30  2  0
 30 31  1  0
 31 32  2  0
 32 33  1  0
 33 34  2  0
 34 35  1  0
 35 36  2  0
 35 37  1  0
 34 38  1  0
 33 39  1  0
 32 40  1  0
 30 41  1  0
 28 42  1  0
 26 43  1  0
 43 44  1  0
 44 45  1  0
 45 46  1  0
 46 47  1  0
 47 48  2  0
 48 49  1  0
 49 50  2  0
 50 51  1  0
 51 52  2  0
 51 53  1  0
 49 54  1  0
 48 55  1  0
 46 56  1  0
 45 57  1  0
 45 58  1  0
 44 59  1  6
 43 60  1  0
 43 61  1  0
  8 62  1  0
  5 63  1  0
  4 64  1  0
 12  2  1  0
 18 14  1  0
 36 27  1  0
 52 47  1  0
  9  3  1  0
 44 10  1  0
 36 31  1  0
M  END
>  <cnnaffinities>  (32) 
[6.38131]

>  <score>  (32) 
6.38131

>  <index>  (32) 
31

>  <Smiles>  (32) 
O=C1c2c(c(c(Cl)c(c2[C@@]2(C(N1C(c1nnc(o1)[H])([H])[H])([H])[H])C(=O)N(c1c(nc(c3c(c(c(c(c13)[H])[H])[H])[H])[H])[H])C([C@@]2(C(N(c1c(c(nc(n1)[H])[H])[H])[H])([H])[H])[H])([H])[H])[H])[H])[H]

>  <h>  (32) 
<NA>

>  <Training>  (32) 
True

>  <Success>  (32) 
True

>  <enamine_searched>  (32) 
False

>  <enamine_id>  (32) 
nan

$$$$

     RDKit          3D

 72 77  0  0  0  0  0  0  0  0999 V2000
    7.8801   -3.0424   23.2254 C   0  0  0  0  0  0  0  0  0  0  0  0
    8.1110   -1.9064   22.2324 C   0  0  1  0  0  0  0  0  0  0  0  0
    6.9369   -1.7402   21.2619 C   0  0  0  0  0  0  0  0  0  0  0  0
    7.0162   -0.3494   20.8673 N   0  0  0  0  0  0  0  0  0  0  0  0
    6.2154    0.1603   19.8079 C   0  0  0  0  0  0  0  0  0  0  0  0
    6.4890   -0.2186   18.5159 C   0  0  0  0  0  0  0  0  0  0  0  0
    5.8119    0.2001   17.4177 N   0  0  0  0  0  0  0  0  0  0  0  0
    4.7973    1.0056   17.6164 C   0  0  0  0  0  0  0  0  0  0  0  0
    4.3512    1.4259   18.9014 C   0  0  0  0  0  0  0  0  0  0  0  0
    3.2142    2.2653   19.0475 C   0  0  0  0  0  0  0  0  0  0  0  0
    2.7622    2.6048   20.2922 C   0  0  0  0  0  0  0  0  0  0  0  0
    3.4241    2.1197   21.4421 C   0  0  0  0  0  0  0  0  0  0  0  0
    4.5391    1.3254   21.3246 C   0  0  0  0  0  0  0  0  0  0  0  0
    5.0504    0.9713   20.0445 C   0  0  0  0  0  0  0  0  0  0  0  0
    5.0330    0.9603   22.2193 H   0  0  0  0  0  0  0  0  0  0  0  0
    3.0488    2.3857   22.4246 H   0  0  0  0  0  0  0  0  0  0  0  0
    1.8957    3.2484   20.4027 H   0  0  0  0  0  0  0  0  0  0  0  0
    2.7216    2.6294   18.1490 H   0  0  0  0  0  0  0  0  0  0  0  0
    4.2610    1.3506   16.7339 H   0  0  0  0  0  0  0  0  0  0  0  0
    7.3245   -0.8900   18.3279 H   0  0  0  0  0  0  0  0  0  0  0  0
    7.8121    0.4236   21.6964 C   0  0  0  0  0  0  0  0  0  0  0  0
    8.0047    1.6088   21.5300 O   0  0  0  0  0  0  0  0  0  0  0  0
    8.3125   -0.4720   22.8616 C   0  0  1  0  0  0  0  0  0  0  0  0
    7.3219   -0.2347   24.0491 C   0  0  0  0  0  0  0  0  0  0  0  0
    7.8497   -1.0187   25.2535 N   0  0  0  0  0  0  0  0  0  0  0  0
    6.9501   -1.3726   26.4154 C   0  0  0  0  0  0  0  0  0  0  0  0
    6.7797   -0.1692   27.3241 C   0  0  0  0  0  0  0  0  0  0  0  0
    6.1601   -0.5666   28.6132 N   0  0  1  0  0  4  0  0  0  0  0  0
    6.0814    0.5590   29.5986 C   0  0  0  0  0  0  0  0  0  0  0  0
    5.3851    0.0878   30.8627 C   0  0  0  0  0  0  0  0  0  0  0  0
    4.0916   -0.4130   30.5894 O   0  0  0  0  0  0  0  0  0  0  0  0
    4.0781   -1.5185   29.6809 C   0  0  0  0  0  0  0  0  0  0  0  0
    4.7275   -2.7548   30.3058 C   0  0  0  0  0  0  0  0  0  0  0  0
    4.2765   -2.9711   31.2784 H   0  0  0  0  0  0  0  0  0  0  0  0
    5.8085   -2.6341   30.4398 H   0  0  0  0  0  0  0  0  0  0  0  0
    4.5798   -3.6181   29.6478 H   0  0  0  0  0  0  0  0  0  0  0  0
    2.6119   -1.7716   29.3638 C   0  0  0  0  0  0  0  0  0  0  0  0
    2.1610   -0.8659   28.9454 H   0  0  0  0  0  0  0  0  0  0  0  0
    2.0690   -2.0436   30.2722 H   0  0  0  0  0  0  0  0  0  0  0  0
    2.5111   -2.5821   28.6317 H   0  0  0  0  0  0  0  0  0  0  0  0
    4.7891   -1.1460   28.3798 C   0  0  0  0  0  0  0  0  0  0  0  0
    4.2048   -0.4013   27.8286 H   0  0  0  0  0  0  0  0  0  0  0  0
    4.8796   -2.0404   27.7598 H   0  0  0  0  0  0  0  0  0  0  0  0
    5.2500    0.9198   31.5587 H   0  0  0  0  0  0  0  0  0  0  0  0
    6.0080   -0.6707   31.3573 H   0  0  0  0  0  0  0  0  0  0  0  0
    7.0911    0.9171   29.8158 H   0  0  0  0  0  0  0  0  0  0  0  0
    5.5166    1.3752   29.1389 H   0  0  0  0  0  0  0  0  0  0  0  0
    6.7859   -1.2907   29.0232 H   0  0  0  0  0  0  0  0  0  0  0  0
    6.1536    0.5950   26.8431 H   0  0  0  0  0  0  0  0  0  0  0  0
    7.7677    0.2591   27.4985 H   0  0  0  0  0  0  0  0  0  0  0  0
    6.0170   -1.7435   25.9939 H   0  0  0  0  0  0  0  0  0  0  0  0
    7.4699   -2.1821   26.9347 H   0  0  0  0  0  0  0  0  0  0  0  0
    9.3094   -0.7720   25.4939 C   0  0  0  0  0  0  0  0  0  0  0  0
    9.4321   -0.7412   25.4871 O   0  0  0  0  0  0  0  0  0  0  0  0
   10.3025   -0.1896   24.5790 C   0  0  0  0  0  0  0  0  0  0  0  0
   11.5989    0.3970   24.7826 C   0  0  0  0  0  0  0  0  0  0  0  0
   12.4643    0.5812   23.7430 C   0  0  0  0  0  0  0  0  0  0  0  0
   12.0506    0.2464   22.4621 C   0  0  0  0  0  0  0  0  0  0  0  0
   13.3234    0.1946   21.3091 Cl  0  0  0  0  0  0  0  0  0  0  0  0
   10.7260   -0.0764   22.2063 C   0  0  0  0  0  0  0  0  0  0  0  0
    9.8023   -0.2174   23.2628 C   0  0  0  0  0  0  0  0  0  0  0  0
   10.3982   -0.2212   21.1848 H   0  0  0  0  0  0  0  0  0  0  0  0
   13.4809    0.8925   23.9491 H   0  0  0  0  0  0  0  0  0  0  0  0
   12.0530    0.6654   25.7296 H   0  0  0  0  0  0  0  0  0  0  0  0
    7.2854    0.8335   24.3043 H   0  0  0  0  0  0  0  0  0  0  0  0
    6.3203   -0.6046   23.8068 H   0  0  0  0  0  0  0  0  0  0  0  0
    6.9925   -2.3844   20.3837 H   0  0  0  0  0  0  0  0  0  0  0  0
    5.9817   -1.9516   21.7673 H   0  0  0  0  0  0  0  0  0  0  0  0
    9.0187   -2.1133   21.6485 H   0  0  0  0  0  0  0  0  0  0  0  0
    8.5966   -3.0006   24.0532 H   0  0  0  0  0  0  0  0  0  0  0  0
    6.8879   -2.9463   23.6769 H   0  0  0  0  0  0  0  0  0  0  0  0
    7.9240   -4.0187   22.7351 H   0  0  0  0  0  0  0  0  0  0  0  0
  1  2  1  0
  2  3  1  0
  3  4  1  0
  4  5  1  0
  5  6  2  0
  6  7  1  0
  7  8  2  0
  8  9  1  0
  9 10  2  0
 10 11  1  0
 11 12  2  0
 12 13  1  0
 13 14  2  0
 13 15  1  0
 12 16  1  0
 11 17  1  0
 10 18  1  0
  8 19  1  0
  6 20  1  0
  4 21  1  0
 21 22  2  0
 21 23  1  0
 23 24  1  1
 24 25  1  0
 25 26  1  0
 26 27  1  0
 27 28  1  0
 28 29  1  0
 29 30  1  0
 30 31  1  0
 31 32  1  0
 32 33  1  0
 33 34  1  0
 33 35  1  0
 33 36  1  0
 32 37  1  0
 37 38  1  0
 37 39  1  0
 37 40  1  0
 32 41  1  0
 41 42  1  0
 41 43  1  0
 30 44  1  0
 30 45  1  0
 29 46  1  0
 29 47  1  0
 28 48  1  1
 27 49  1  0
 27 50  1  0
 26 51  1  0
 26 52  1  0
 25 53  1  0
 53 54  2  0
 53 55  1  0
 55 56  2  0
 56 57  1  0
 57 58  2  0
 58 59  1  0
 58 60  1  0
 60 61  2  0
 60 62  1  0
 57 63  1  0
 56 64  1  0
 24 65  1  0
 24 66  1  0
  3 67  1  0
  3 68  1  0
  2 69  1  6
  1 70  1  0
  1 71  1  0
  1 72  1  0
 23  2  1  0
 41 28  1  0
 61 55  1  0
 14  5  1  0
 61 23  1  0
 14  9  1  0
M  CHG  1  28   1
M  END
>  <cnnaffinities>  (33) 
[6.04983]

>  <score>  (33) 
6.04983

>  <index>  (33) 
32

>  <Smiles>  (33) 
C([C@]1(C(N(c2c(nc(c3c(c(c(c(c23)[H])[H])[H])[H])[H])[H])C(=O)[C@]21C(N(C(C([N@+]1(C(C(OC(C([H])([H])[H])(C([H])([H])[H])C1([H])[H])([H])[H])([H])[H])[H])([H])[H])([H])[H])C(=O)c1c(c(c(Cl)c(c21)[H])[H])[H])([H])[H])([H])[H])[H])([H])([H])[H]

>  <h>  (33) 
<NA>

>  <Training>  (33) 
True

>  <Success>  (33) 
True

>  <enamine_searched>  (33) 
False

>  <enamine_id>  (33) 
nan

$$$$

     RDKit          3D

 44 47  0  0  0  0  0  0  0  0999 V2000
    5.4434   -2.3967   20.9439 O   0  0  0  0  0  0  0  0  0  0  0  0
    6.2327   -1.7173   21.5852 C   0  0  0  0  0  0  0  0  0  0  0  0
    6.9131   -0.4906   20.9241 C   0  0  0  0  0  0  0  0  0  0  0  0
    6.1133    0.0836   19.7722 C   0  0  0  0  0  0  0  0  0  0  0  0
    6.4205   -0.2161   18.4683 C   0  0  0  0  0  0  0  0  0  0  0  0
    5.7565    0.2358   17.3666 N   0  0  0  0  0  0  0  0  0  0  0  0
    4.7364    1.0310   17.5759 C   0  0  0  0  0  0  0  0  0  0  0  0
    4.2862    1.4232   18.8683 C   0  0  0  0  0  0  0  0  0  0  0  0
    3.1664    2.2757   19.0445 C   0  0  0  0  0  0  0  0  0  0  0  0
    2.7517    2.6293   20.2977 C   0  0  0  0  0  0  0  0  0  0  0  0
    3.4459    2.1372   21.4288 C   0  0  0  0  0  0  0  0  0  0  0  0
    4.5330    1.3113   21.2930 C   0  0  0  0  0  0  0  0  0  0  0  0
    4.9885    0.9357   20.0008 C   0  0  0  0  0  0  0  0  0  0  0  0
    5.0500    0.9474   22.1809 H   0  0  0  0  0  0  0  0  0  0  0  0
    3.1101    2.4302   22.4170 H   0  0  0  0  0  0  0  0  0  0  0  0
    1.8962    3.2867   20.4371 H   0  0  0  0  0  0  0  0  0  0  0  0
    2.6474    2.6475   18.1625 H   0  0  0  0  0  0  0  0  0  0  0  0
    4.2007    1.3998   16.6975 H   0  0  0  0  0  0  0  0  0  0  0  0
    7.2653   -0.8667   18.2447 H   0  0  0  0  0  0  0  0  0  0  0  0
    7.8738   -0.8395   20.5197 H   0  0  0  0  0  0  0  0  0  0  0  0
    7.1577    0.2945   21.6509 H   0  0  0  0  0  0  0  0  0  0  0  0
    6.5550   -2.0573   22.8730 N   0  0  0  0  0  0  0  0  0  0  0  0
    6.0864   -3.3292   23.4231 C   0  0  0  0  0  0  0  0  0  0  0  0
    6.6000   -3.3619   24.8648 C   0  0  0  0  0  0  0  0  0  0  0  0
    7.6638   -2.2657   24.9542 C   0  0  0  0  0  0  0  0  0  0  0  0
    7.3552   -1.2850   23.8123 C   0  0  2  0  0  0  0  0  0  0  0  0
    6.6489   -0.0322   24.2992 C   0  0  0  0  0  0  0  0  0  0  0  0
    7.3319    1.1826   24.3552 C   0  0  0  0  0  0  0  0  0  0  0  0
    6.6939    2.3319   24.8073 C   0  0  0  0  0  0  0  0  0  0  0  0
    5.3707    2.2928   25.2263 C   0  0  0  0  0  0  0  0  0  0  0  0
    4.7244    1.0677   25.1925 C   0  0  0  0  0  0  0  0  0  0  0  0
    3.4441    1.0105   25.5950 F   0  0  0  0  0  0  0  0  0  0  0  0
    5.3327   -0.0928   24.7466 C   0  0  0  0  0  0  0  0  0  0  0  0
    4.7629   -1.0179   24.7460 H   0  0  0  0  0  0  0  0  0  0  0  0
    4.8457    3.1794   25.5660 H   0  0  0  0  0  0  0  0  0  0  0  0
    7.2287    3.2728   24.8186 H   0  0  0  0  0  0  0  0  0  0  0  0
    8.3682    1.2329   24.0276 H   0  0  0  0  0  0  0  0  0  0  0  0
    8.2877   -0.9861   23.3312 H   0  0  0  0  0  0  0  0  0  0  0  0
    7.6548   -1.7675   25.9251 H   0  0  0  0  0  0  0  0  0  0  0  0
    8.6667   -2.6862   24.8393 H   0  0  0  0  0  0  0  0  0  0  0  0
    7.0197   -4.3336   25.1263 H   0  0  0  0  0  0  0  0  0  0  0  0
    5.7935   -3.1835   25.5806 H   0  0  0  0  0  0  0  0  0  0  0  0
    6.4901   -4.1492   22.8251 H   0  0  0  0  0  0  0  0  0  0  0  0
    4.9961   -3.4130   23.3738 H   0  0  0  0  0  0  0  0  0  0  0  0
  1  2  2  0
  2  3  1  0
  3  4  1  0
  4  5  2  0
  5  6  1  0
  6  7  2  0
  7  8  1  0
  8  9  2  0
  9 10  1  0
 10 11  2  0
 11 12  1  0
 12 13  2  0
 12 14  1  0
 11 15  1  0
 10 16  1  0
  9 17  1  0
  7 18  1  0
  5 19  1  0
  3 20  1  0
  3 21  1  0
  2 22  1  0
 22 23  1  0
 23 24  1  0
 24 25  1  0
 25 26  1  0
 26 27  1  0
 27 28  2  0
 28 29  1  0
 29 30  2  0
 30 31  1  0
 31 32  1  0
 31 33  2  0
 33 34  1  0
 30 35  1  0
 29 36  1  0
 28 37  1  0
 26 38  1  6
 25 39  1  0
 25 40  1  0
 24 41  1  0
 24 42  1  0
 23 43  1  0
 23 44  1  0
 13  4  1  0
 26 22  1  0
 33 27  1  0
 13  8  1  0
M  END
>  <cnnaffinities>  (34) 
[5.62824, 5.52526]

>  <score>  (34) 
5.62824

>  <index>  (34) 
33

>  <Smiles>  (34) 
O=C(C(c1c(nc(c2c(c(c(c(c12)[H])[H])[H])[H])[H])[H])([H])[H])N1C(C(C([C@@]1(c1c(c(c(c(F)c1[H])[H])[H])[H])[H])([H])[H])([H])[H])([H])[H]

>  <h>  (34) 
<NA>

>  <Training>  (34) 
True

>  <Success>  (34) 
True

>  <enamine_searched>  (34) 
False

>  <enamine_id>  (34) 
nan

$$$$

     RDKit          3D

 58 63  0  0  0  0  0  0  0  0999 V2000
    7.7186   -3.0067   23.3425 C   0  0  0  0  0  0  0  0  0  0  0  0
    7.9988   -1.9335   22.2981 C   0  0  1  0  0  0  0  0  0  0  0  0
    6.8989   -1.8035   21.2429 C   0  0  0  0  0  0  0  0  0  0  0  0
    6.9244   -0.4097   20.8385 N   0  0  0  0  0  0  0  0  0  0  0  0
    6.1378    0.1081   19.7718 C   0  0  0  0  0  0  0  0  0  0  0  0
    6.4308   -0.2218   18.4719 C   0  0  0  0  0  0  0  0  0  0  0  0
    5.7605    0.2319   17.3803 N   0  0  0  0  0  0  0  0  0  0  0  0
    4.7379    1.0311   17.5793 C   0  0  0  0  0  0  0  0  0  0  0  0
    4.2890    1.4220   18.8740 C   0  0  0  0  0  0  0  0  0  0  0  0
    3.1628    2.2729   19.0501 C   0  0  0  0  0  0  0  0  0  0  0  0
    2.7450    2.6119   20.3090 C   0  0  0  0  0  0  0  0  0  0  0  0
    3.4237    2.1141   21.4418 C   0  0  0  0  0  0  0  0  0  0  0  0
    4.5114    1.2925   21.2957 C   0  0  0  0  0  0  0  0  0  0  0  0
    4.9906    0.9388   20.0062 C   0  0  0  0  0  0  0  0  0  0  0  0
    5.0261    0.9067   22.1688 H   0  0  0  0  0  0  0  0  0  0  0  0
    3.0841    2.3822   22.4361 H   0  0  0  0  0  0  0  0  0  0  0  0
    1.8875    3.2623   20.4494 H   0  0  0  0  0  0  0  0  0  0  0  0
    2.6399    2.6492   18.1724 H   0  0  0  0  0  0  0  0  0  0  0  0
    4.1990    1.3995   16.7008 H   0  0  0  0  0  0  0  0  0  0  0  0
    7.2815   -0.8669   18.2597 H   0  0  0  0  0  0  0  0  0  0  0  0
    7.6486    0.3896   21.6932 C   0  0  0  0  0  0  0  0  0  0  0  0
    7.7613    1.5957   21.5995 O   0  0  0  0  0  0  0  0  0  0  0  0
    8.2130   -0.4752   22.8151 C   0  0  1  0  0  0  0  0  0  0  0  0
    7.3480   -0.0643   24.0266 C   0  0  0  0  0  0  0  0  0  0  0  0
    7.9864   -0.5855   25.3472 N   0  0  0  0  0  0  0  0  0  0  0  0
    7.1355   -0.9892   26.5353 C   0  0  0  0  0  0  0  0  0  0  0  0
    7.0540   -2.4734   26.7635 C   0  0  0  0  0  0  0  0  0  0  0  0
    5.9675   -3.3267   26.5754 C   0  0  0  0  0  0  0  0  0  0  0  0
    6.3513   -4.5769   26.8328 N   0  0  0  0  0  0  0  0  0  0  0  0
    7.6298   -4.4438   27.1448 N   0  0  0  0  0  0  0  0  0  0  0  0
    8.4320   -5.5639   27.5925 C   0  0  0  0  0  0  0  0  0  0  0  0
    8.0808   -6.4713   27.1154 H   0  0  0  0  0  0  0  0  0  0  0  0
    9.4713   -5.4047   27.3185 H   0  0  0  0  0  0  0  0  0  0  0  0
    8.3681   -5.6993   28.6709 H   0  0  0  0  0  0  0  0  0  0  0  0
    8.1094   -3.2058   27.1113 N   0  0  0  0  0  0  0  0  0  0  0  0
    4.9778   -3.0512   26.2420 H   0  0  0  0  0  0  0  0  0  0  0  0
    7.4750   -0.4715   27.4453 H   0  0  0  0  0  0  0  0  0  0  0  0
    6.1041   -0.6166   26.3355 H   0  0  0  0  0  0  0  0  0  0  0  0
    9.4692   -0.7156   25.5944 C   0  0  0  0  0  0  0  0  0  0  0  0
    9.4691   -0.7155   25.5943 O   0  0  0  0  0  0  0  0  0  0  0  0
   10.1885   -0.2360   24.3705 C   0  0  0  0  0  0  0  0  0  0  0  0
   11.5792    0.0077   24.4930 C   0  0  0  0  0  0  0  0  0  0  0  0
   12.4435    0.1795   23.4594 C   0  0  0  0  0  0  0  0  0  0  0  0
   11.9185    0.2441   22.1784 C   0  0  0  0  0  0  0  0  0  0  0  0
   12.8101    0.5207   21.2182 F   0  0  0  0  0  0  0  0  0  0  0  0
   10.5630    0.0604   21.9752 C   0  0  0  0  0  0  0  0  0  0  0  0
    9.6948   -0.2053   23.0635 C   0  0  0  0  0  0  0  0  0  0  0  0
   10.1652    0.1025   20.9719 H   0  0  0  0  0  0  0  0  0  0  0  0
   13.5093    0.3465   23.6135 H   0  0  0  0  0  0  0  0  0  0  0  0
   11.9456    0.2080   25.4666 H   0  0  0  0  0  0  0  0  0  0  0  0
    6.3559   -0.5021   23.9984 H   0  0  0  0  0  0  0  0  0  0  0  0
    7.2938    1.0189   24.1685 H   0  0  0  0  0  0  0  0  0  0  0  0
    7.0944   -2.4407   20.3892 H   0  0  0  0  0  0  0  0  0  0  0  0
    5.9200   -2.0930   21.6432 H   0  0  0  0  0  0  0  0  0  0  0  0
    8.9328   -2.2050   21.7851 H   0  0  0  0  0  0  0  0  0  0  0  0
    7.6648   -3.9874   22.8614 H   0  0  0  0  0  0  0  0  0  0  0  0
    6.7682   -2.8262   23.8507 H   0  0  0  0  0  0  0  0  0  0  0  0
    8.5010   -3.0264   24.1126 H   0  0  0  0  0  0  0  0  0  0  0  0
  1  2  1  0
  2  3  1  0
  3  4  1  0
  4  5  1  0
  5  6  2  0
  6  7  1  0
  7  8  2  0
  8  9  1  0
  9 10  2  0
 10 11  1  0
 11 12  2  0
 12 13  1  0
 13 14  2  0
 13 15  1  0
 12 16  1  0
 11 17  1  0
 10 18  1  0
  8 19  1  0
  6 20  1  0
  4 21  1  0
 21 22  2  0
 21 23  1  0
 23 24  1  1
 24 25  1  0
 25 26  1  0
 26 27  1  0
 27 28  1  0
 28 29  2  0
 29 30  1  0
 30 31  1  0
 31 32  1  0
 31 33  1  0
 31 34  1  0
 30 35  1  0
 28 36  1  0
 26 37  1  0
 26 38  1  0
 25 39  1  0
 39 40  2  0
 39 41  1  0
 41 42  2  0
 42 43  1  0
 43 44  2  0
 44 45  1  0
 44 46  1  0
 46 47  2  0
 46 48  1  0
 43 49  1  0
 42 50  1  0
 24 51  1  0
 24 52  1  0
  3 53  1  0
  3 54  1  0
  2 55  1  6
  1 56  1  0
  1 57  1  0
  1 58  1  0
 23  2  1  0
 35 27  2  0
 47 41  1  0
 14  5  1  0
 47 23  1  0
 14  9  1  0
M  END
>  <cnnaffinities>  (35) 
[6.42459]

>  <score>  (35) 
6.42459

>  <index>  (35) 
34

>  <Smiles>  (35) 
C([C@]1(C(N(c2c(nc(c3c(c(c(c(c23)[H])[H])[H])[H])[H])[H])C(=O)[C@]21C(N(C(c1c(nn(C([H])([H])[H])n1)[H])([H])[H])C(=O)c1c(c(c(F)c(c21)[H])[H])[H])([H])[H])([H])[H])[H])([H])([H])[H]

>  <h>  (35) 
<NA>

>  <Training>  (35) 
True

>  <Success>  (35) 
True

>  <enamine_searched>  (35) 
False

>  <enamine_id>  (35) 
nan

$$$$

     RDKit          3D

 51 54  0  0  0  0  0  0  0  0999 V2000
   13.5086   -3.1639   25.8444 N   0  0  0  0  0  0  0  0  0  0  0  0
   12.9705   -2.5084   25.0576 C   0  0  0  0  0  0  0  0  0  0  0  0
   12.4233   -1.6200   24.0118 C   0  0  0  0  0  0  0  0  0  0  0  0
   11.0001   -1.8877   23.5363 C   0  0  0  0  0  0  0  0  0  0  0  0
    9.8990   -1.1539   23.9852 C   0  0  0  0  0  0  0  0  0  0  0  0
    8.6144   -1.4165   23.5076 C   0  0  0  0  0  0  0  0  0  0  0  0
    8.4224   -2.4045   22.5377 C   0  0  0  0  0  0  0  0  0  0  0  0
    7.1225   -2.7089   22.0299 N   0  0  0  0  0  0  0  0  0  0  0  0
    6.5371   -3.9850   22.4426 C   0  0  0  0  0  0  0  0  0  0  0  0
    5.9911   -3.9452   23.8618 C   0  0  0  0  0  0  0  0  0  0  0  0
    6.8430   -4.1200   24.9554 C   0  0  0  0  0  0  0  0  0  0  0  0
    6.3378   -4.1040   26.2530 C   0  0  0  0  0  0  0  0  0  0  0  0
    4.9849   -3.8656   26.4761 C   0  0  0  0  0  0  0  0  0  0  0  0
    4.1470   -3.6749   25.3857 C   0  0  0  0  0  0  0  0  0  0  0  0
    2.4590   -3.3361   25.6525 Cl  0  0  0  0  0  0  0  0  0  0  0  0
    4.6318   -3.7162   24.0838 C   0  0  0  0  0  0  0  0  0  0  0  0
    3.9506   -3.5686   23.2497 H   0  0  0  0  0  0  0  0  0  0  0  0
    4.5777   -3.8283   27.4822 H   0  0  0  0  0  0  0  0  0  0  0  0
    7.0013   -4.2921   27.0951 H   0  0  0  0  0  0  0  0  0  0  0  0
    7.8964   -4.3353   24.7835 H   0  0  0  0  0  0  0  0  0  0  0  0
    5.7414   -4.2174   21.7303 H   0  0  0  0  0  0  0  0  0  0  0  0
    7.3233   -4.7472   22.3643 H   0  0  0  0  0  0  0  0  0  0  0  0
    6.2727   -1.7820   21.4593 C   0  0  0  0  0  0  0  0  0  0  0  0
    5.0715   -1.9868   21.3813 O   0  0  0  0  0  0  0  0  0  0  0  0
    6.9207   -0.5178   20.8821 C   0  0  0  0  0  0  0  0  0  0  0  0
    6.1162    0.0830   19.7593 C   0  0  0  0  0  0  0  0  0  0  0  0
    6.4256   -0.2204   18.4598 C   0  0  0  0  0  0  0  0  0  0  0  0
    5.7590    0.2318   17.3646 N   0  0  0  0  0  0  0  0  0  0  0  0
    4.7376    1.0252   17.5799 C   0  0  0  0  0  0  0  0  0  0  0  0
    4.2887    1.4147   18.8704 C   0  0  0  0  0  0  0  0  0  0  0  0
    3.1700    2.2690   19.0427 C   0  0  0  0  0  0  0  0  0  0  0  0
    2.7509    2.6180   20.2998 C   0  0  0  0  0  0  0  0  0  0  0  0
    3.4368    2.1250   21.4321 C   0  0  0  0  0  0  0  0  0  0  0  0
    4.5228    1.2990   21.2898 C   0  0  0  0  0  0  0  0  0  0  0  0
    4.9858    0.9237   19.9981 C   0  0  0  0  0  0  0  0  0  0  0  0
    5.0305    0.9139   22.1676 H   0  0  0  0  0  0  0  0  0  0  0  0
    3.0987    2.4142   22.4244 H   0  0  0  0  0  0  0  0  0  0  0  0
    1.8960    3.2745   20.4260 H   0  0  0  0  0  0  0  0  0  0  0  0
    2.6669    2.6410   18.1536 H   0  0  0  0  0  0  0  0  0  0  0  0
    4.2081    1.3969   16.7005 H   0  0  0  0  0  0  0  0  0  0  0  0
    7.2739   -0.8678   18.2353 H   0  0  0  0  0  0  0  0  0  0  0  0
    7.9283   -0.7890   20.5429 H   0  0  0  0  0  0  0  0  0  0  0  0
    7.0700    0.2065   21.6956 H   0  0  0  0  0  0  0  0  0  0  0  0
    9.5126   -3.1434   22.0850 C   0  0  0  0  0  0  0  0  0  0  0  0
   10.7878   -2.8629   22.5654 C   0  0  0  0  0  0  0  0  0  0  0  0
   11.6492   -3.4118   22.1981 H   0  0  0  0  0  0  0  0  0  0  0  0
    9.3401   -3.9314   21.3526 H   0  0  0  0  0  0  0  0  0  0  0  0
    7.7468   -0.8843   23.9039 H   0  0  0  0  0  0  0  0  0  0  0  0
   10.0304   -0.3697   24.7265 H   0  0  0  0  0  0  0  0  0  0  0  0
   12.5059   -0.5884   24.3705 H   0  0  0  0  0  0  0  0  0  0  0  0
   13.1203   -1.7175   23.1665 H   0  0  0  0  0  0  0  0  0  0  0  0
  1  2  3  0
  2  3  1  0
  3  4  1  0
  4  5  2  0
  5  6  1  0
  6  7  2  0
  7  8  1  0
  8  9  1  0
  9 10  1  0
 10 11  2  0
 11 12  1  0
 12 13  2  0
 13 14  1  0
 14 15  1  0
 14 16  2  0
 16 17  1  0
 13 18  1  0
 12 19  1  0
 11 20  1  0
  9 21  1  0
  9 22  1  0
  8 23  1  0
 23 24  2  0
 23 25  1  0
 25 26  1  0
 26 27  2  0
 27 28  1  0
 28 29  2  0
 29 30  1  0
 30 31  2  0
 31 32  1  0
 32 33  2  0
 33 34  1  0
 34 35  2  0
 34 36  1  0
 33 37  1  0
 32 38  1  0
 31 39  1  0
 29 40  1  0
 27 41  1  0
 25 42  1  0
 25 43  1  0
  7 44  1  0
 44 45  2  0
 45 46  1  0
 44 47  1  0
  6 48  1  0
  5 49  1  0
  3 50  1  0
  3 51  1  0
 45  4  1  0
 16 10  1  0
 35 26  1  0
 35 30  1  0
M  END
>  <cnnaffinities>  (36) 
[6.20457]

>  <score>  (36) 
6.20457

>  <index>  (36) 
35

>  <Smiles>  (36) 
N#CC(c1c(c(c(N(C(c2c(c(c(c(Cl)c2[H])[H])[H])[H])([H])[H])C(=O)C(c2c(nc(c3c(c(c(c(c23)[H])[H])[H])[H])[H])[H])([H])[H])c(c1[H])[H])[H])[H])([H])[H]

>  <h>  (36) 
<NA>

>  <Training>  (36) 
True

>  <Success>  (36) 
True

>  <enamine_searched>  (36) 
False

>  <enamine_id>  (36) 
nan

$$$$

     RDKit          3D

 59 64  0  0  0  0  0  0  0  0999 V2000
    7.7237   -3.0087   23.3478 C   0  0  0  0  0  0  0  0  0  0  0  0
    8.0101   -1.9233   22.3086 C   0  0  1  0  0  0  0  0  0  0  0  0
    6.9083   -1.8119   21.2388 C   0  0  0  0  0  0  0  0  0  0  0  0
    6.9144   -0.4123   20.8436 N   0  0  0  0  0  0  0  0  0  0  0  0
    6.1220    0.0979   19.7652 C   0  0  0  0  0  0  0  0  0  0  0  0
    6.4271   -0.2175   18.4620 C   0  0  0  0  0  0  0  0  0  0  0  0
    5.7580    0.2376   17.3704 N   0  0  0  0  0  0  0  0  0  0  0  0
    4.7328    1.0338   17.5750 C   0  0  0  0  0  0  0  0  0  0  0  0
    4.2851    1.4269   18.8660 C   0  0  0  0  0  0  0  0  0  0  0  0
    3.1607    2.2761   19.0469 C   0  0  0  0  0  0  0  0  0  0  0  0
    2.7488    2.6119   20.3098 C   0  0  0  0  0  0  0  0  0  0  0  0
    3.4305    2.1134   21.4407 C   0  0  0  0  0  0  0  0  0  0  0  0
    4.5188    1.2920   21.2906 C   0  0  0  0  0  0  0  0  0  0  0  0
    4.9856    0.9402   19.9968 C   0  0  0  0  0  0  0  0  0  0  0  0
    5.0266    0.9020   22.1672 H   0  0  0  0  0  0  0  0  0  0  0  0
    3.0859    2.3807   22.4340 H   0  0  0  0  0  0  0  0  0  0  0  0
    1.8893    3.2599   20.4524 H   0  0  0  0  0  0  0  0  0  0  0  0
    2.6308    2.6519   18.1743 H   0  0  0  0  0  0  0  0  0  0  0  0
    4.1915    1.4036   16.7028 H   0  0  0  0  0  0  0  0  0  0  0  0
    7.2815   -0.8631   18.2673 H   0  0  0  0  0  0  0  0  0  0  0  0
    7.6431    0.3842   21.7194 C   0  0  0  0  0  0  0  0  0  0  0  0
    7.7779    1.5862   21.6266 O   0  0  0  0  0  0  0  0  0  0  0  0
    8.2219   -0.4680   22.8584 C   0  0  1  0  0  0  0  0  0  0  0  0
    7.3536   -0.1080   24.1134 C   0  0  0  0  0  0  0  0  0  0  0  0
    7.9065   -0.7520   25.3155 N   0  0  0  0  0  0  0  0  0  0  0  0
    7.0235   -1.1434   26.4567 C   0  0  0  0  0  0  0  0  0  0  0  0
    6.5989    0.0401   27.2443 C   0  0  0  0  0  0  0  0  0  0  0  0
    7.2403    0.5420   28.3814 C   0  0  0  0  0  0  0  0  0  0  0  0
    6.5180    1.6549   28.7138 C   0  0  0  0  0  0  0  0  0  0  0  0
    5.5315    1.7995   27.7999 N   0  0  0  0  0  0  0  0  0  0  0  0
    4.4894    2.8231   27.8097 C   0  0  0  0  0  0  0  0  0  0  0  0
    4.0599    2.9352   26.8071 H   0  0  0  0  0  0  0  0  0  0  0  0
    4.9250    3.7843   28.1188 H   0  0  0  0  0  0  0  0  0  0  0  0
    3.6959    2.5453   28.5178 H   0  0  0  0  0  0  0  0  0  0  0  0
    5.5644    0.8110   26.8875 N   0  0  0  0  0  0  0  0  0  0  0  0
    6.6682    2.3242   29.5463 H   0  0  0  0  0  0  0  0  0  0  0  0
    8.1118    0.1393   28.8770 H   0  0  0  0  0  0  0  0  0  0  0  0
    7.5839   -1.8685   27.0732 H   0  0  0  0  0  0  0  0  0  0  0  0
    6.1718   -1.6578   26.0206 H   0  0  0  0  0  0  0  0  0  0  0  0
    9.4071   -0.5730   25.6338 C   0  0  0  0  0  0  0  0  0  0  0  0
    9.4071   -0.5729   25.6335 O   0  0  0  0  0  0  0  0  0  0  0  0
   10.1625   -0.2532   24.4314 C   0  0  0  0  0  0  0  0  0  0  0  0
   11.5450   -0.0257   24.5941 C   0  0  0  0  0  0  0  0  0  0  0  0
   12.4491    0.2515   23.5013 C   0  0  0  0  0  0  0  0  0  0  0  0
   11.9270    0.2997   22.2365 C   0  0  0  0  0  0  0  0  0  0  0  0
   12.7593    0.5547   21.2267 F   0  0  0  0  0  0  0  0  0  0  0  0
   10.5704    0.0857   22.0239 C   0  0  0  0  0  0  0  0  0  0  0  0
    9.7010   -0.1605   23.0710 C   0  0  0  0  0  0  0  0  0  0  0  0
   10.1918    0.1069   21.0094 H   0  0  0  0  0  0  0  0  0  0  0  0
   13.5113    0.4230   23.6931 H   0  0  0  0  0  0  0  0  0  0  0  0
   11.9370    0.1894   25.4867 H   0  0  0  0  0  0  0  0  0  0  0  0
    6.3362   -0.4674   23.9850 H   0  0  0  0  0  0  0  0  0  0  0  0
    7.3121    0.9854   24.2479 H   0  0  0  0  0  0  0  0  0  0  0  0
    5.9226   -2.0861   21.6493 H   0  0  0  0  0  0  0  0  0  0  0  0
    7.1278   -2.4575   20.3839 H   0  0  0  0  0  0  0  0  0  0  0  0
    8.9405   -2.2074   21.7905 H   0  0  0  0  0  0  0  0  0  0  0  0
    8.5242   -3.0425   24.1025 H   0  0  0  0  0  0  0  0  0  0  0  0
    7.6700   -3.9853   22.8513 H   0  0  0  0  0  0  0  0  0  0  0  0
    6.7659   -2.8298   23.8603 H   0  0  0  0  0  0  0  0  0  0  0  0
  1  2  1  0
  2  3  1  0
  3  4  1  0
  4  5  1  0
  5  6  2  0
  6  7  1  0
  7  8  2  0
  8  9  1  0
  9 10  2  0
 10 11  1  0
 11 12  2  0
 12 13  1  0
 13 14  2  0
 13 15  1  0
 12 16  1  0
 11 17  1  0
 10 18  1  0
  8 19  1  0
  6 20  1  0
  4 21  1  0
 21 22  2  0
 21 23  1  0
 23 24  1  1
 24 25  1  0
 25 26  1  0
 26 27  1  0
 27 28  1  0
 28 29  2  0
 29 30  1  0
 30 31  1  0
 31 32  1  0
 31 33  1  0
 31 34  1  0
 30 35  1  0
 29 36  1  0
 28 37  1  0
 26 38  1  0
 26 39  1  0
 25 40  1  0
 40 41  2  0
 40 42  1  0
 42 43  2  0
 43 44  1  0
 44 45  2  0
 45 46  1  0
 45 47  1  0
 47 48  2  0
 47 49  1  0
 44 50  1  0
 43 51  1  0
 24 52  1  0
 24 53  1  0
  3 54  1  0
  3 55  1  0
  2 56  1  6
  1 57  1  0
  1 58  1  0
  1 59  1  0
 23  2  1  0
 35 27  2  0
 48 42  1  0
 14  5  1  0
 48 23  1  0
 14  9  1  0
M  END
>  <cnnaffinities>  (37) 
[6.2163]

>  <score>  (37) 
6.2163

>  <index>  (37) 
36

>  <Smiles>  (37) 
C([C@]1(C(N(c2c(nc(c3c(c(c(c(c23)[H])[H])[H])[H])[H])[H])C(=O)[C@]21C(N(C(c1c(c(n(C([H])([H])[H])n1)[H])[H])([H])[H])C(=O)c1c(c(c(F)c(c21)[H])[H])[H])([H])[H])([H])[H])[H])([H])([H])[H]

>  <h>  (37) 
<NA>

>  <Training>  (37) 
True

>  <Success>  (37) 
True

>  <enamine_searched>  (37) 
False

>  <enamine_id>  (37) 
nan

$$$$

     RDKit          3D

 48 51  0  0  0  0  0  0  0  0999 V2000
   13.4260   -1.3709   24.3282 N   0  0  0  0  0  0  0  0  0  0  0  0
   12.3618   -1.6082   23.9383 C   0  0  0  0  0  0  0  0  0  0  0  0
   11.0236   -1.8934   23.4698 C   0  0  0  0  0  0  0  0  0  0  0  0
    9.9265   -1.1787   23.9585 C   0  0  0  0  0  0  0  0  0  0  0  0
    8.6467   -1.4548   23.4947 C   0  0  0  0  0  0  0  0  0  0  0  0
    8.4334   -2.4444   22.5305 C   0  0  0  0  0  0  0  0  0  0  0  0
    7.1254   -2.7416   22.0356 N   0  0  0  0  0  0  0  0  0  0  0  0
    6.5280   -4.0314   22.4248 C   0  0  0  0  0  0  0  0  0  0  0  0
    5.9725   -4.0190   23.8378 C   0  0  0  0  0  0  0  0  0  0  0  0
    6.8289   -4.1652   24.9325 C   0  0  0  0  0  0  0  0  0  0  0  0
    6.3181   -4.1444   26.2237 C   0  0  0  0  0  0  0  0  0  0  0  0
    4.9692   -3.8994   26.4465 C   0  0  0  0  0  0  0  0  0  0  0  0
    4.1362   -3.7075   25.3544 C   0  0  0  0  0  0  0  0  0  0  0  0
    2.4526   -3.3748   25.6183 Cl  0  0  0  0  0  0  0  0  0  0  0  0
    4.6169   -3.7772   24.0542 C   0  0  0  0  0  0  0  0  0  0  0  0
    3.9477   -3.6082   23.2148 H   0  0  0  0  0  0  0  0  0  0  0  0
    4.5753   -3.8459   27.4555 H   0  0  0  0  0  0  0  0  0  0  0  0
    6.9802   -4.3073   27.0669 H   0  0  0  0  0  0  0  0  0  0  0  0
    7.8790   -4.4078   24.7684 H   0  0  0  0  0  0  0  0  0  0  0  0
    7.3037   -4.8005   22.3446 H   0  0  0  0  0  0  0  0  0  0  0  0
    5.7507   -4.2949   21.7034 H   0  0  0  0  0  0  0  0  0  0  0  0
    6.2922   -1.7739   21.4874 C   0  0  0  0  0  0  0  0  0  0  0  0
    5.0898   -1.9391   21.4140 O   0  0  0  0  0  0  0  0  0  0  0  0
    6.9391   -0.5080   20.8859 C   0  0  0  0  0  0  0  0  0  0  0  0
    6.1186    0.0923   19.7666 C   0  0  0  0  0  0  0  0  0  0  0  0
    6.4204   -0.2108   18.4649 C   0  0  0  0  0  0  0  0  0  0  0  0
    5.7564    0.2347   17.3640 N   0  0  0  0  0  0  0  0  0  0  0  0
    4.7359    1.0317   17.5757 C   0  0  0  0  0  0  0  0  0  0  0  0
    4.2853    1.4232   18.8673 C   0  0  0  0  0  0  0  0  0  0  0  0
    3.1623    2.2756   19.0425 C   0  0  0  0  0  0  0  0  0  0  0  0
    2.7452    2.6237   20.2982 C   0  0  0  0  0  0  0  0  0  0  0  0
    3.4315    2.1334   21.4297 C   0  0  0  0  0  0  0  0  0  0  0  0
    4.5227    1.3122   21.2878 C   0  0  0  0  0  0  0  0  0  0  0  0
    4.9862    0.9347   19.9997 C   0  0  0  0  0  0  0  0  0  0  0  0
    5.0271    0.9274   22.1684 H   0  0  0  0  0  0  0  0  0  0  0  0
    3.0916    2.4123   22.4220 H   0  0  0  0  0  0  0  0  0  0  0  0
    1.8874    3.2768   20.4332 H   0  0  0  0  0  0  0  0  0  0  0  0
    2.6430    2.6472   18.1607 H   0  0  0  0  0  0  0  0  0  0  0  0
    4.1983    1.4004   16.6991 H   0  0  0  0  0  0  0  0  0  0  0  0
    7.2633   -0.8652   18.2473 H   0  0  0  0  0  0  0  0  0  0  0  0
    7.9427   -0.7525   20.5196 H   0  0  0  0  0  0  0  0  0  0  0  0
    7.0819    0.2317   21.6821 H   0  0  0  0  0  0  0  0  0  0  0  0
    9.5250   -3.1752   22.0693 C   0  0  0  0  0  0  0  0  0  0  0  0
   10.8077   -2.8936   22.5190 C   0  0  0  0  0  0  0  0  0  0  0  0
   11.6635   -3.4394   22.1434 H   0  0  0  0  0  0  0  0  0  0  0  0
    9.3729   -3.9478   21.3234 H   0  0  0  0  0  0  0  0  0  0  0  0
    7.8041   -0.9017   23.8959 H   0  0  0  0  0  0  0  0  0  0  0  0
   10.0852   -0.3989   24.6957 H   0  0  0  0  0  0  0  0  0  0  0  0
  1  2  3  0
  2  3  1  0
  3  4  2  0
  4  5  1  0
  5  6  2  0
  6  7  1  0
  7  8  1  0
  8  9  1  0
  9 10  2  0
 10 11  1  0
 11 12  2  0
 12 13  1  0
 13 14  1  0
 13 15  2  0
 15 16  1  0
 12 17  1  0
 11 18  1  0
 10 19  1  0
  8 20  1  0
  8 21  1  0
  7 22  1  0
 22 23  2  0
 22 24  1  0
 24 25  1  0
 25 26  2  0
 26 27  1  0
 27 28  2  0
 28 29  1  0
 29 30  2  0
 30 31  1  0
 31 32  2  0
 32 33  1  0
 33 34  2  0
 33 35  1  0
 32 36  1  0
 31 37  1  0
 30 38  1  0
 28 39  1  0
 26 40  1  0
 24 41  1  0
 24 42  1  0
  6 43  1  0
 43 44  2  0
 44 45  1  0
 43 46  1  0
  5 47  1  0
  4 48  1  0
 44  3  1  0
 15  9  1  0
 34 25  1  0
 34 29  1  0
M  END
>  <cnnaffinities>  (38) 
[6.24033]

>  <score>  (38) 
6.24033

>  <index>  (38) 
37

>  <Smiles>  (38) 
N#Cc1c(c(c(N(C(c2c(c(c(c(Cl)c2[H])[H])[H])[H])([H])[H])C(=O)C(c2c(nc(c3c(c(c(c(c23)[H])[H])[H])[H])[H])[H])([H])[H])c(c1[H])[H])[H])[H]

>  <h>  (38) 
<NA>

>  <Training>  (38) 
True

>  <Success>  (38) 
True

>  <enamine_searched>  (38) 
False

>  <enamine_id>  (38) 
nan

$$$$

     RDKit          3D

 72 77  0  0  0  0  0  0  0  0999 V2000
    6.3002    5.0576   26.5100 C   0  0  0  0  0  0  0  0  0  0  0  0
    5.6954    3.7179   26.3410 N   0  0  0  0  0  4  0  0  0  0  0  0
    6.7027    2.6418   26.0400 C   0  0  0  0  0  0  0  0  0  0  0  0
    7.3660    2.7709   24.6522 C   0  0  0  0  0  0  0  0  0  0  0  0
    8.2326    1.6364   24.3534 N   0  0  0  0  0  0  0  0  0  0  0  0
    7.5740    0.3573   24.1229 C   0  0  0  0  0  0  0  0  0  0  0  0
    8.0192   -0.3434   22.8148 C   0  0  2  0  0  0  0  0  0  0  0  0
    7.5010    0.3929   21.5698 C   0  0  0  0  0  0  0  0  0  0  0  0
    7.7242    1.5439   21.2591 O   0  0  0  0  0  0  0  0  0  0  0  0
    6.7331   -0.4806   20.8292 N   0  0  0  0  0  0  0  0  0  0  0  0
    6.0109    0.0466   19.7313 C   0  0  0  0  0  0  0  0  0  0  0  0
    6.3829   -0.2513   18.4461 C   0  0  0  0  0  0  0  0  0  0  0  0
    5.7490    0.2229   17.3443 N   0  0  0  0  0  0  0  0  0  0  0  0
    4.7323    1.0301   17.5378 C   0  0  0  0  0  0  0  0  0  0  0  0
    4.2583    1.4339   18.8206 C   0  0  0  0  0  0  0  0  0  0  0  0
    3.1546    2.3136   18.9838 C   0  0  0  0  0  0  0  0  0  0  0  0
    2.7305    2.6754   20.2329 C   0  0  0  0  0  0  0  0  0  0  0  0
    3.3905    2.1847   21.3815 C   0  0  0  0  0  0  0  0  0  0  0  0
    4.4583    1.3372   21.2513 C   0  0  0  0  0  0  0  0  0  0  0  0
    4.9182    0.9363   19.9603 C   0  0  0  0  0  0  0  0  0  0  0  0
    4.9732    0.9915   22.1428 H   0  0  0  0  0  0  0  0  0  0  0  0
    3.0545    2.4849   22.3691 H   0  0  0  0  0  0  0  0  0  0  0  0
    1.8832    3.3434   20.3515 H   0  0  0  0  0  0  0  0  0  0  0  0
    2.6625    2.6960   18.0941 H   0  0  0  0  0  0  0  0  0  0  0  0
    4.2300    1.4049   16.6469 H   0  0  0  0  0  0  0  0  0  0  0  0
    7.2403   -0.8989   18.2665 H   0  0  0  0  0  0  0  0  0  0  0  0
    6.3283   -1.6578   21.5894 C   0  0  0  0  0  0  0  0  0  0  0  0
    7.4508   -1.7729   22.6281 C   0  0  2  0  0  0  0  0  0  0  0  0
    7.1136   -2.5590   23.8911 C   0  0  0  0  0  0  0  0  0  0  0  0
    6.7594   -3.8766   23.5566 O   0  0  0  0  0  0  0  0  0  0  0  0
    7.8327   -4.7905   23.4790 C   0  0  0  0  0  0  0  0  0  0  0  0
    7.2447   -5.8873   22.4826 C   0  0  0  0  0  0  0  0  0  0  0  0
    7.5812   -5.2536   21.1195 C   0  0  0  0  0  0  0  0  0  0  0  0
    8.8387   -6.8769   20.2178 S   0  0  0  0  0  0  0  0  0  0  0  0
   10.1058   -6.7122   19.4769 O   0  0  0  0  0  0  0  0  0  0  0  0
    8.4008   -7.4355   20.1709 O   0  0  0  0  0  0  0  0  0  0  0  0
    7.6004   -7.2924   22.4001 C   0  0  0  0  0  0  0  0  0  0  0  0
    8.5619   -7.7342   22.6462 H   0  0  0  0  0  0  0  0  0  0  0  0
    6.8695   -8.0218   22.0533 H   0  0  0  0  0  0  0  0  0  0  0  0
    8.1449   -4.3281   21.1772 H   0  0  0  0  0  0  0  0  0  0  0  0
    6.7570   -5.2648   20.4029 H   0  0  0  0  0  0  0  0  0  0  0  0
    6.1480   -5.7841   22.6304 H   0  0  0  0  0  0  0  0  0  0  0  0
    8.7362   -4.3431   23.0353 H   0  0  0  0  0  0  0  0  0  0  0  0
    8.1354   -5.0623   24.5018 H   0  0  0  0  0  0  0  0  0  0  0  0
    6.2446   -2.1152   24.3971 H   0  0  0  0  0  0  0  0  0  0  0  0
    7.9733   -2.5533   24.5898 H   0  0  0  0  0  0  0  0  0  0  0  0
    8.2373   -2.3467   22.1381 H   0  0  0  0  0  0  0  0  0  0  0  0
    6.2545   -2.5342   20.9364 H   0  0  0  0  0  0  0  0  0  0  0  0
    5.3541   -1.5111   22.0798 H   0  0  0  0  0  0  0  0  0  0  0  0
    9.5181   -0.3106   22.7527 C   0  0  0  0  0  0  0  0  0  0  0  0
   10.1801   -1.2071   21.9233 C   0  0  0  0  0  0  0  0  0  0  0  0
   11.5486   -1.2865   21.9475 C   0  0  0  0  0  0  0  0  0  0  0  0
   12.1935   -2.6339   21.0549 Cl  0  0  0  0  0  0  0  0  0  0  0  0
   12.3081   -0.3559   22.6593 C   0  0  0  0  0  0  0  0  0  0  0  0
   11.6448    0.6480   23.3501 C   0  0  0  0  0  0  0  0  0  0  0  0
   10.2531    0.6758   23.4024 C   0  0  0  0  0  0  0  0  0  0  0  0
    9.5604    1.8324   24.0727 C   0  0  0  0  0  0  0  0  0  0  0  0
   10.1648    2.8659   24.3189 O   0  0  0  0  0  0  0  0  0  0  0  0
   12.1753    1.4481   23.8538 H   0  0  0  0  0  0  0  0  0  0  0  0
   13.3887   -0.4116   22.6453 H   0  0  0  0  0  0  0  0  0  0  0  0
    9.6495   -1.8243   21.2103 H   0  0  0  0  0  0  0  0  0  0  0  0
    6.4982    0.5497   24.0812 H   0  0  0  0  0  0  0  0  0  0  0  0
    7.7712   -0.3167   24.9676 H   0  0  0  0  0  0  0  0  0  0  0  0
    7.9840    3.6704   24.5735 H   0  0  0  0  0  0  0  0  0  0  0  0
    6.5985    2.8127   23.8611 H   0  0  0  0  0  0  0  0  0  0  0  0
    6.1801    1.6938   26.1384 H   0  0  0  0  0  0  0  0  0  0  0  0
    7.4677    2.6768   26.8153 H   0  0  0  0  0  0  0  0  0  0  0  0
    5.1733    3.4971   27.2157 H   0  0  0  0  0  0  0  0  0  0  0  0
    5.0300    3.7446   25.5317 H   0  0  0  0  0  0  0  0  0  0  0  0
    5.5694    5.7514   26.9214 H   0  0  0  0  0  0  0  0  0  0  0  0
    6.6598    5.4504   25.5592 H   0  0  0  0  0  0  0  0  0  0  0  0
    7.1549    4.9991   27.1878 H   0  0  0  0  0  0  0  0  0  0  0  0
  1  2  1  0
  2  3  1  0
  3  4  1  0
  4  5  1  0
  5  6  1  0
  7  6  1  1
  7  8  1  0
  8  9  2  0
  8 10  1  0
 10 11  1  0
 11 12  2  0
 12 13  1  0
 13 14  2  0
 14 15  1  0
 15 16  2  0
 16 17  1  0
 17 18  2  0
 18 19  1  0
 19 20  2  0
 19 21  1  0
 18 22  1  0
 17 23  1  0
 16 24  1  0
 14 25  1  0
 12 26  1  0
 10 27  1  0
 27 28  1  0
 28 29  1  0
 29 30  1  0
 30 31  1  0
 31 32  1  0
 32 33  1  0
 33 34  1  0
 34 35  2  0
 34 36  2  0
 34 37  1  0
 37 38  1  0
 37 39  1  0
 33 40  1  0
 33 41  1  0
 32 42  1  0
 31 43  1  0
 31 44  1  0
 29 45  1  0
 29 46  1  0
 28 47  1  6
 27 48  1  0
 27 49  1  0
  7 50  1  0
 50 51  2  0
 51 52  1  0
 52 53  1  0
 52 54  2  0
 54 55  1  0
 55 56  2  0
 56 57  1  0
 57 58  2  0
 55 59  1  0
 54 60  1  0
 51 61  1  0
  6 62  1  0
  6 63  1  0
  4 64  1  0
  4 65  1  0
  3 66  1  0
  3 67  1  0
  2 68  1  0
  2 69  1  0
  1 70  1  0
  1 71  1  0
  1 72  1  0
 57  5  1  0
 28  7  1  0
 37 32  1  0
 56 50  1  0
 20 11  1  0
 20 15  1  0
M  CHG  1   2   1
M  END
>  <cnnaffinities>  (39) 
[6.59283]

>  <score>  (39) 
6.59283

>  <index>  (39) 
38

>  <Smiles>  (39) 
C([N+](C(C(N1C([C@@]2(C(=O)N(c3c(nc(c4c(c(c(c(c34)[H])[H])[H])[H])[H])[H])C([C@@]2(C(OC(C2(C(S(=O)(=O)C2([H])[H])([H])[H])[H])([H])[H])([H])[H])[H])([H])[H])c2c(c(Cl)c(c(c2C1=O)[H])[H])[H])([H])[H])([H])[H])([H])[H])([H])[H])([H])([H])[H]

>  <h>  (39) 
<NA>

>  <Training>  (39) 
True

>  <Success>  (39) 
True

>  <enamine_searched>  (39) 
False

>  <enamine_id>  (39) 
nan

$$$$

     RDKit          3D

 60 64  0  0  0  0  0  0  0  0999 V2000
   10.4205   -0.3110   25.0157 C   0  0  0  0  0  0  0  0  0  0  0  0
   10.1467    0.6435   23.8644 C   0  0  0  0  0  0  0  0  0  0  0  0
    9.7909   -0.0350   22.6750 O   0  0  0  0  0  0  0  0  0  0  0  0
    8.4335   -0.3917   22.5526 C   0  0  1  0  0  0  0  0  0  0  0  0
    7.8173    0.4385   21.4282 C   0  0  0  0  0  0  0  0  0  0  0  0
    6.8322   -0.4452   20.8522 N   0  0  0  0  0  0  0  0  0  0  0  0
    6.0557   -0.0071   19.7511 C   0  0  0  0  0  0  0  0  0  0  0  0
    6.3953   -0.3198   18.4580 C   0  0  0  0  0  0  0  0  0  0  0  0
    5.7636    0.1812   17.3644 N   0  0  0  0  0  0  0  0  0  0  0  0
    4.7690    1.0119   17.5670 C   0  0  0  0  0  0  0  0  0  0  0  0
    4.3021    1.4035   18.8552 C   0  0  0  0  0  0  0  0  0  0  0  0
    3.1995    2.2828   19.0304 C   0  0  0  0  0  0  0  0  0  0  0  0
    2.7835    2.6242   20.2892 C   0  0  0  0  0  0  0  0  0  0  0  0
    3.4500    2.1170   21.4260 C   0  0  0  0  0  0  0  0  0  0  0  0
    4.5222    1.2695   21.2820 C   0  0  0  0  0  0  0  0  0  0  0  0
    4.9683    0.8909   19.9864 C   0  0  0  0  0  0  0  0  0  0  0  0
    5.0332    0.8736   22.1525 H   0  0  0  0  0  0  0  0  0  0  0  0
    3.1139    2.4011   22.4201 H   0  0  0  0  0  0  0  0  0  0  0  0
    1.9340    3.2901   20.4221 H   0  0  0  0  0  0  0  0  0  0  0  0
    2.7024    2.6747   18.1474 H   0  0  0  0  0  0  0  0  0  0  0  0
    4.2720    1.4132   16.6833 H   0  0  0  0  0  0  0  0  0  0  0  0
    7.2229   -0.9959   18.2558 H   0  0  0  0  0  0  0  0  0  0  0  0
    7.0426   -1.7772   21.1473 C   0  0  0  0  0  0  0  0  0  0  0  0
    6.3639   -2.6750   20.6919 O   0  0  0  0  0  0  0  0  0  0  0  0
    8.2082   -1.8929   22.1535 C   0  0  1  0  0  0  0  0  0  0  0  0
    9.4668   -2.4844   21.4613 C   0  0  0  0  0  0  0  0  0  0  0  0
   10.5562   -2.7577   22.3999 N   0  0  0  0  0  0  0  0  0  0  0  0
   11.9553   -2.5399   22.0577 C   0  0  0  0  0  0  0  0  0  0  0  0
   12.6252   -1.3618   22.7836 C   0  0  0  0  0  0  0  0  0  0  0  0
   13.0262   -1.4783   23.9385 O   0  0  0  0  0  0  0  0  0  0  0  0
   12.7906   -0.2019   22.0878 N   0  0  0  0  0  0  0  0  0  0  0  0
   13.6160    0.8583   22.6488 C   0  0  0  0  0  0  0  0  0  0  0  0
   13.5172    1.7960   22.0941 H   0  0  0  0  0  0  0  0  0  0  0  0
   14.6676    0.5659   22.6582 H   0  0  0  0  0  0  0  0  0  0  0  0
   13.3270    1.0387   23.6895 H   0  0  0  0  0  0  0  0  0  0  0  0
   12.4799   -0.1961   21.1321 H   0  0  0  0  0  0  0  0  0  0  0  0
   12.0320   -2.4366   20.9710 H   0  0  0  0  0  0  0  0  0  0  0  0
   12.5069   -3.4235   22.3965 H   0  0  0  0  0  0  0  0  0  0  0  0
   10.3047   -3.4637   23.5443 C   0  0  0  0  0  0  0  0  0  0  0  0
   11.1798   -3.9819   24.2240 O   0  0  0  0  0  0  0  0  0  0  0  0
    8.8709   -3.5393   23.9682 C   0  0  0  0  0  0  0  0  0  0  0  0
    8.5946   -4.3204   25.0890 C   0  0  0  0  0  0  0  0  0  0  0  0
    7.3138   -4.3881   25.6026 C   0  0  0  0  0  0  0  0  0  0  0  0
    6.3053   -3.6747   24.9551 C   0  0  0  0  0  0  0  0  0  0  0  0
    4.6808   -3.7744   25.5748 Cl  0  0  0  0  0  0  0  0  0  0  0  0
    6.5582   -2.9026   23.8308 C   0  0  0  0  0  0  0  0  0  0  0  0
    7.8655   -2.8016   23.3281 C   0  0  0  0  0  0  0  0  0  0  0  0
    5.7307   -2.4066   23.3327 H   0  0  0  0  0  0  0  0  0  0  0  0
    7.0774   -5.0020   26.4697 H   0  0  0  0  0  0  0  0  0  0  0  0
    9.4102   -4.8742   25.5478 H   0  0  0  0  0  0  0  0  0  0  0  0
    9.8034   -1.7707   20.7115 H   0  0  0  0  0  0  0  0  0  0  0  0
    9.1639   -3.4103   20.9622 H   0  0  0  0  0  0  0  0  0  0  0  0
    7.3540    1.3598   21.7949 H   0  0  0  0  0  0  0  0  0  0  0  0
    8.5947    0.7165   20.7005 H   0  0  0  0  0  0  0  0  0  0  0  0
    7.9004   -0.2126   23.4989 H   0  0  0  0  0  0  0  0  0  0  0  0
    9.3588    1.3638   24.1348 H   0  0  0  0  0  0  0  0  0  0  0  0
   11.0354    1.2317   23.6168 H   0  0  0  0  0  0  0  0  0  0  0  0
   11.2532   -0.9777   24.7972 H   0  0  0  0  0  0  0  0  0  0  0  0
    9.5423   -0.9227   25.2510 H   0  0  0  0  0  0  0  0  0  0  0  0
   10.7096    0.2559   25.8980 H   0  0  0  0  0  0  0  0  0  0  0  0
  1  2  1  0
  2  3  1  0
  3  4  1  0
  4  5  1  0
  5  6  1  0
  6  7  1  0
  7  8  2  0
  8  9  1  0
  9 10  2  0
 10 11  1  0
 11 12  2  0
 12 13  1  0
 13 14  2  0
 14 15  1  0
 15 16  2  0
 15 17  1  0
 14 18  1  0
 13 19  1  0
 12 20  1  0
 10 21  1  0
  8 22  1  0
  6 23  1  0
 23 24  2  0
 23 25  1  0
 25 26  1  6
 26 27  1  0
 27 28  1  0
 28 29  1  0
 29 30  2  0
 29 31  1  0
 31 32  1  0
 32 33  1  0
 32 34  1  0
 32 35  1  0
 31 36  1  0
 28 37  1  0
 28 38  1  0
 27 39  1  0
 39 40  2  0
 39 41  1  0
 41 42  2  0
 42 43  1  0
 43 44  2  0
 44 45  1  0
 44 46  1  0
 46 47  2  0
 46 48  1  0
 43 49  1  0
 42 50  1  0
 26 51  1  0
 26 52  1  0
  5 53  1  0
  5 54  1  0
  4 55  1  1
  2 56  1  0
  2 57  1  0
  1 58  1  0
  1 59  1  0
  1 60  1  0
 25  4  1  0
 47 41  1  0
 16  7  1  0
 47 25  1  0
 16 11  1  0
M  END
>  <cnnaffinities>  (40) 
[6.54993]

>  <score>  (40) 
6.54993

>  <index>  (40) 
39

>  <Smiles>  (40) 
C(C(O[C@]1(C(N(c2c(nc(c3c(c(c(c(c23)[H])[H])[H])[H])[H])[H])C(=O)[C@]21C(N(C(C(=O)N(C([H])([H])[H])[H])([H])[H])C(=O)c1c(c(c(Cl)c(c21)[H])[H])[H])([H])[H])([H])[H])[H])([H])[H])([H])([H])[H]

>  <h>  (40) 
<NA>

>  <Training>  (40) 
True

>  <Success>  (40) 
True

>  <enamine_searched>  (40) 
False

>  <enamine_id>  (40) 
nan

$$$$

     RDKit          3D

 57 61  0  0  0  0  0  0  0  0999 V2000
    7.3346   -4.5168   27.2808 C   0  0  0  0  0  0  0  0  0  0  0  0
    7.1526   -3.0812   27.1517 N   0  0  0  0  0  0  0  0  0  0  0  0
    6.3258   -2.6151   26.1780 C   0  0  0  0  0  0  0  0  0  0  0  0
    5.5674   -3.3413   25.5444 O   0  0  0  0  0  0  0  0  0  0  0  0
    6.4048   -1.1047   25.8937 C   0  0  0  0  0  0  0  0  0  0  0  0
    7.4336   -0.8127   24.8914 N   0  0  0  0  0  0  0  0  0  0  0  0
    7.0954   -0.2308   23.6000 C   0  0  0  0  0  0  0  0  0  0  0  0
    8.0636   -0.6470   22.4471 C   0  0  2  0  0  0  0  0  0  0  0  0
    7.6826    0.2187   21.2298 C   0  0  0  0  0  0  0  0  0  0  0  0
    8.0312    1.3478   20.9643 O   0  0  0  0  0  0  0  0  0  0  0  0
    6.7806   -0.5080   20.4757 N   0  0  0  0  0  0  0  0  0  0  0  0
    6.0047    0.0675   19.4508 C   0  0  0  0  0  0  0  0  0  0  0  0
    6.2600   -0.2772   18.1498 C   0  0  0  0  0  0  0  0  0  0  0  0
    5.5873    0.2155   17.0836 N   0  0  0  0  0  0  0  0  0  0  0  0
    4.6193    1.0643   17.3325 C   0  0  0  0  0  0  0  0  0  0  0  0
    4.2228    1.4654   18.6387 C   0  0  0  0  0  0  0  0  0  0  0  0
    3.1396    2.3586   18.8359 C   0  0  0  0  0  0  0  0  0  0  0  0
    2.7259    2.6766   20.0987 C   0  0  0  0  0  0  0  0  0  0  0  0
    3.3827    2.1248   21.2239 C   0  0  0  0  0  0  0  0  0  0  0  0
    4.4563    1.2828   21.0623 C   0  0  0  0  0  0  0  0  0  0  0  0
    4.9113    0.9384   19.7520 C   0  0  0  0  0  0  0  0  0  0  0  0
    4.9493    0.8819   21.9456 H   0  0  0  0  0  0  0  0  0  0  0  0
    3.0253    2.3687   22.2214 H   0  0  0  0  0  0  0  0  0  0  0  0
    1.8858    3.3510   20.2431 H   0  0  0  0  0  0  0  0  0  0  0  0
    2.6561    2.7732   17.9553 H   0  0  0  0  0  0  0  0  0  0  0  0
    4.0797    1.4686   16.4772 H   0  0  0  0  0  0  0  0  0  0  0  0
    7.0660   -0.9796   17.9374 H   0  0  0  0  0  0  0  0  0  0  0  0
    6.5272   -1.8328   20.9933 C   0  0  0  0  0  0  0  0  0  0  0  0
    7.7710   -2.0701   21.8460 C   0  0  2  0  0  0  0  0  0  0  0  0
    7.5458   -3.2472   22.7989 C   0  0  0  0  0  0  0  0  0  0  0  0
    8.7434   -3.7051   23.4992 C   0  0  0  0  0  0  0  0  0  0  0  0
    9.6833   -4.1216   24.0301 N   0  0  0  0  0  0  0  0  0  0  0  0
    7.1553   -4.0969   22.2248 H   0  0  0  0  0  0  0  0  0  0  0  0
    6.7857   -2.9734   23.5330 H   0  0  0  0  0  0  0  0  0  0  0  0
    8.6009   -2.2929   21.1633 H   0  0  0  0  0  0  0  0  0  0  0  0
    5.6179   -1.8668   21.6211 H   0  0  0  0  0  0  0  0  0  0  0  0
    6.3747   -2.5456   20.1779 H   0  0  0  0  0  0  0  0  0  0  0  0
    9.4676   -0.3885   22.9553 C   0  0  0  0  0  0  0  0  0  0  0  0
   10.5446   -0.1876   22.0824 C   0  0  0  0  0  0  0  0  0  0  0  0
   11.7958    0.1222   22.5933 C   0  0  0  0  0  0  0  0  0  0  0  0
   13.1710    0.3210   21.5550 Cl  0  0  0  0  0  0  0  0  0  0  0  0
   12.0134    0.3012   23.9566 C   0  0  0  0  0  0  0  0  0  0  0  0
   10.9704    0.0523   24.8197 C   0  0  0  0  0  0  0  0  0  0  0  0
    9.7310   -0.3351   24.3302 C   0  0  0  0  0  0  0  0  0  0  0  0
    8.7115   -0.7372   25.3385 C   0  0  0  0  0  0  0  0  0  0  0  0
    8.9897   -0.9698   26.5179 O   0  0  0  0  0  0  0  0  0  0  0  0
   11.0818    0.0880   25.8919 H   0  0  0  0  0  0  0  0  0  0  0  0
   13.0017    0.5742   24.3074 H   0  0  0  0  0  0  0  0  0  0  0  0
   10.3913   -0.2680   21.0135 H   0  0  0  0  0  0  0  0  0  0  0  0
    7.1504    0.8662   23.6648 H   0  0  0  0  0  0  0  0  0  0  0  0
    6.0643   -0.5177   23.3767 H   0  0  0  0  0  0  0  0  0  0  0  0
    6.6421   -0.5509   26.8098 H   0  0  0  0  0  0  0  0  0  0  0  0
    5.4297   -0.7812   25.5165 H   0  0  0  0  0  0  0  0  0  0  0  0
    7.9195   -2.4761   27.4236 H   0  0  0  0  0  0  0  0  0  0  0  0
    7.4043   -4.9686   26.2860 H   0  0  0  0  0  0  0  0  0  0  0  0
    8.2532   -4.7135   27.8372 H   0  0  0  0  0  0  0  0  0  0  0  0
    6.5006   -4.9901   27.8081 H   0  0  0  0  0  0  0  0  0  0  0  0
  1  2  1  0
  2  3  1  0
  3  4  2  0
  3  5  1  0
  5  6  1  0
  6  7  1  0
  8  7  1  1
  8  9  1  0
  9 10  2  0
  9 11  1  0
 11 12  1  0
 12 13  2  0
 13 14  1  0
 14 15  2  0
 15 16  1  0
 16 17  2  0
 17 18  1  0
 18 19  2  0
 19 20  1  0
 20 21  2  0
 20 22  1  0
 19 23  1  0
 18 24  1  0
 17 25  1  0
 15 26  1  0
 13 27  1  0
 11 28  1  0
 28 29  1  0
 29 30  1  0
 30 31  1  0
 31 32  3  0
 30 33  1  0
 30 34  1  0
 29 35  1  6
 28 36  1  0
 28 37  1  0
  8 38  1  0
 38 39  2  0
 39 40  1  0
 40 41  1  0
 40 42  2  0
 42 43  1  0
 43 44  2  0
 44 45  1  0
 45 46  2  0
 43 47  1  0
 42 48  1  0
 39 49  1  0
  7 50  1  0
  7 51  1  0
  5 52  1  0
  5 53  1  0
  2 54  1  0
  1 55  1  0
  1 56  1  0
  1 57  1  0
 45  6  1  0
 29  8  1  0
 44 38  1  0
 21 12  1  0
 21 16  1  0
M  END
>  <cnnaffinities>  (41) 
[5.88726]

>  <score>  (41) 
5.88726

>  <index>  (41) 
40

>  <Smiles>  (41) 
C(N(C(=O)C(N1C([C@@]2(C(=O)N(c3c(nc(c4c(c(c(c(c34)[H])[H])[H])[H])[H])[H])C([C@@]2(C(C#N)([H])[H])[H])([H])[H])c2c(c(Cl)c(c(c2C1=O)[H])[H])[H])([H])[H])([H])[H])[H])([H])([H])[H]

>  <h>  (41) 
<NA>

>  <Training>  (41) 
True

>  <Success>  (41) 
True

>  <enamine_searched>  (41) 
False

>  <enamine_id>  (41) 
nan

$$$$

     RDKit          3D

 68 73  0  0  0  0  0  0  0  0999 V2000
    7.3812   -2.5692   23.8218 C   0  0  0  0  0  0  0  0  0  0  0  0
    7.7061   -1.8625   22.5074 C   0  0  1  0  0  0  0  0  0  0  0  0
    6.4770   -1.5766   21.6327 C   0  0  0  0  0  0  0  0  0  0  0  0
    6.8893   -0.4427   20.8267 N   0  0  0  0  0  0  0  0  0  0  0  0
    6.1276    0.0944   19.7582 C   0  0  0  0  0  0  0  0  0  0  0  0
    6.4516   -0.2164   18.4623 C   0  0  0  0  0  0  0  0  0  0  0  0
    5.7715    0.2276   17.3747 N   0  0  0  0  0  0  0  0  0  0  0  0
    4.7472    1.0184   17.5882 C   0  0  0  0  0  0  0  0  0  0  0  0
    4.2983    1.4194   18.8804 C   0  0  0  0  0  0  0  0  0  0  0  0
    3.1757    2.2728   19.0573 C   0  0  0  0  0  0  0  0  0  0  0  0
    2.7679    2.6327   20.3122 C   0  0  0  0  0  0  0  0  0  0  0  0
    3.4664    2.1633   21.4466 C   0  0  0  0  0  0  0  0  0  0  0  0
    4.5633    1.3478   21.3040 C   0  0  0  0  0  0  0  0  0  0  0  0
    5.0046    0.9467   20.0101 C   0  0  0  0  0  0  0  0  0  0  0  0
    5.0979    1.0081   22.1846 H   0  0  0  0  0  0  0  0  0  0  0  0
    3.1498    2.4729   22.4392 H   0  0  0  0  0  0  0  0  0  0  0  0
    1.9149    3.2922   20.4446 H   0  0  0  0  0  0  0  0  0  0  0  0
    2.6618    2.6366   18.1722 H   0  0  0  0  0  0  0  0  0  0  0  0
    4.2112    1.3821   16.7112 H   0  0  0  0  0  0  0  0  0  0  0  0
    7.3027   -0.8641   18.2610 H   0  0  0  0  0  0  0  0  0  0  0  0
    8.0182    0.1925   21.2862 C   0  0  0  0  0  0  0  0  0  0  0  0
    8.5533    1.1298   20.7285 O   0  0  0  0  0  0  0  0  0  0  0  0
    8.4408   -0.4922   22.6057 C   0  0  1  0  0  0  0  0  0  0  0  0
    8.0018    0.3195   23.8306 C   0  0  0  0  0  0  0  0  0  0  0  0
    8.6867    1.5875   23.9093 N   0  0  0  0  0  0  0  0  0  0  0  0
    7.9170    2.8014   24.0502 C   0  0  0  0  0  0  0  0  0  0  0  0
    7.8189    3.6470   22.7886 C   0  0  0  0  0  0  0  0  0  0  0  0
    7.0556    4.9292   23.0332 N   0  0  0  0  0  4  0  0  0  0  0  0
    5.5659    4.6844   23.1444 C   0  0  0  0  0  0  0  0  0  0  0  0
    4.8120    5.9728   23.4256 C   0  0  0  0  0  0  0  0  0  0  0  0
    5.1948    6.6094   25.0601 S   0  0  0  0  0  0  0  0  0  0  0  0
    5.3363    8.0607   24.9557 O   0  0  0  0  0  0  0  0  0  0  0  0
    4.2556    6.0180   26.0105 O   0  0  0  0  0  0  0  0  0  0  0  0
    6.8203    5.9185   25.3794 C   0  0  0  0  0  0  0  0  0  0  0  0
    7.6435    5.8585   24.0967 C   0  0  0  0  0  0  0  0  0  0  0  0
    8.6597    5.5294   24.3287 H   0  0  0  0  0  0  0  0  0  0  0  0
    7.7128    6.8557   23.6592 H   0  0  0  0  0  0  0  0  0  0  0  0
    7.2595    6.5864   26.1241 H   0  0  0  0  0  0  0  0  0  0  0  0
    6.6711    4.9310   25.8248 H   0  0  0  0  0  0  0  0  0  0  0  0
    5.0730    6.7619   22.7139 H   0  0  0  0  0  0  0  0  0  0  0  0
    3.7306    5.8276   23.4273 H   0  0  0  0  0  0  0  0  0  0  0  0
    5.3645    3.9561   23.9338 H   0  0  0  0  0  0  0  0  0  0  0  0
    5.2315    4.2563   22.1952 H   0  0  0  0  0  0  0  0  0  0  0  0
    7.1698    5.4507   22.1486 H   0  0  0  0  0  0  0  0  0  0  0  0
    7.3400    3.1110   21.9645 H   0  0  0  0  0  0  0  0  0  0  0  0
    8.8328    3.9067   22.4715 H   0  0  0  0  0  0  0  0  0  0  0  0
    8.4163    3.4435   24.7486 H   0  0  0  0  0  0  0  0  0  0  0  0
    6.9372    2.5107   24.4378 H   0  0  0  0  0  0  0  0  0  0  0  0
   10.0513    1.6629   23.8536 C   0  0  0  0  0  0  0  0  0  0  0  0
   10.6793    2.6447   24.2177 O   0  0  0  0  0  0  0  0  0  0  0  0
   10.7172    0.4513   23.2611 C   0  0  0  0  0  0  0  0  0  0  0  0
   12.1130    0.3763   23.2200 C   0  0  0  0  0  0  0  0  0  0  0  0
   12.7218   -0.6647   22.5286 C   0  0  0  0  0  0  0  0  0  0  0  0
   11.9170   -1.5959   21.8504 C   0  0  0  0  0  0  0  0  0  0  0  0
   12.4226   -2.8894   20.7829 Cl  0  0  0  0  0  0  0  0  0  0  0  0
   10.5531   -1.5480   21.9322 C   0  0  0  0  0  0  0  0  0  0  0  0
    9.9349   -0.5502   22.6671 C   0  0  0  0  0  0  0  0  0  0  0  0
   10.0325   -2.3051   21.3609 H   0  0  0  0  0  0  0  0  0  0  0  0
   13.8009   -0.7165   22.5347 H   0  0  0  0  0  0  0  0  0  0  0  0
   12.7155    1.1564   23.6913 H   0  0  0  0  0  0  0  0  0  0  0  0
    6.9298    0.5135   23.7788 H   0  0  0  0  0  0  0  0  0  0  0  0
    8.2097   -0.2776   24.7289 H   0  0  0  0  0  0  0  0  0  0  0  0
    5.6056   -1.3360   22.2585 H   0  0  0  0  0  0  0  0  0  0  0  0
    6.2110   -2.4243   20.9924 H   0  0  0  0  0  0  0  0  0  0  0  0
    8.3524   -2.5242   21.9285 H   0  0  0  0  0  0  0  0  0  0  0  0
    6.6620   -1.9885   24.4101 H   0  0  0  0  0  0  0  0  0  0  0  0
    8.2746   -2.7229   24.4387 H   0  0  0  0  0  0  0  0  0  0  0  0
    6.9357   -3.5527   23.6379 H   0  0  0  0  0  0  0  0  0  0  0  0
  1  2  1  0
  2  3  1  0
  3  4  1  0
  4  5  1  0
  5  6  2  0
  6  7  1  0
  7  8  2  0
  8  9  1  0
  9 10  2  0
 10 11  1  0
 11 12  2  0
 12 13  1  0
 13 14  2  0
 13 15  1  0
 12 16  1  0
 11 17  1  0
 10 18  1  0
  8 19  1  0
  6 20  1  0
  4 21  1  0
 21 22  2  0
 21 23  1  0
 23 24  1  1
 24 25  1  0
 25 26  1  0
 26 27  1  0
 27 28  1  0
 28 29  1  0
 29 30  1  0
 30 31  1  0
 31 32  2  0
 31 33  2  0
 31 34  1  0
 34 35  1  0
 35 36  1  0
 35 37  1  0
 34 38  1  0
 34 39  1  0
 30 40  1  0
 30 41  1  0
 29 42  1  0
 29 43  1  0
 28 44  1  0
 27 45  1  0
 27 46  1  0
 26 47  1  0
 26 48  1  0
 25 49  1  0
 49 50  2  0
 49 51  1  0
 51 52  2  0
 52 53  1  0
 53 54  2  0
 54 55  1  0
 54 56  1  0
 56 57  2  0
 56 58  1  0
 53 59  1  0
 52 60  1  0
 24 61  1  0
 24 62  1  0
  3 63  1  0
  3 64  1  0
  2 65  1  6
  1 66  1  0
  1 67  1  0
  1 68  1  0
 23  2  1  0
 35 28  1  0
 57 51  1  0
 14  5  1  0
 57 23  1  0
 14  9  1  0
M  CHG  1  28   1
M  END
>  <cnnaffinities>  (42) 
[6.65901]

>  <score>  (42) 
6.65901

>  <index>  (42) 
41

>  <Smiles>  (42) 
C([C@]1(C(N(c2c(nc(c3c(c(c(c(c23)[H])[H])[H])[H])[H])[H])C(=O)[C@]21C(N(C(C([N+]1(C(C(S(=O)(=O)C(C1([H])[H])([H])[H])([H])[H])([H])[H])[H])([H])[H])([H])[H])C(=O)c1c(c(c(Cl)c(c21)[H])[H])[H])([H])[H])([H])[H])[H])([H])([H])[H]

>  <h>  (42) 
<NA>

>  <Training>  (42) 
True

>  <Success>  (42) 
True

>  <enamine_searched>  (42) 
False

>  <enamine_id>  (42) 
nan

$$$$

     RDKit          3D

 60 65  0  0  0  0  0  0  0  0999 V2000
   13.7871   -0.2129   23.9058 C   0  0  0  0  0  0  0  0  0  0  0  0
   12.9564   -1.3441   23.5535 N   0  0  0  0  0  0  0  0  0  0  0  0
   12.4779   -1.3342   22.2860 C   0  0  0  0  0  0  0  0  0  0  0  0
   12.5280   -0.3121   21.6071 O   0  0  0  0  0  0  0  0  0  0  0  0
   11.8976   -2.6404   21.7627 C   0  0  0  0  0  0  0  0  0  0  0  0
   10.5307   -2.8518   22.2068 N   0  0  0  0  0  0  0  0  0  0  0  0
    9.3907   -2.5353   21.3560 C   0  0  0  0  0  0  0  0  0  0  0  0
    8.1767   -1.9288   22.1217 C   0  0  2  0  0  0  0  0  0  0  0  0
    6.9950   -1.8072   21.1338 C   0  0  0  0  0  0  0  0  0  0  0  0
    6.3152   -2.7063   20.6835 O   0  0  0  0  0  0  0  0  0  0  0  0
    6.8082   -0.4699   20.8346 N   0  0  0  0  0  0  0  0  0  0  0  0
    6.0453   -0.0076   19.7393 C   0  0  0  0  0  0  0  0  0  0  0  0
    6.3978   -0.3027   18.4470 C   0  0  0  0  0  0  0  0  0  0  0  0
    5.7645    0.2028   17.3579 N   0  0  0  0  0  0  0  0  0  0  0  0
    4.7602    1.0216   17.5604 C   0  0  0  0  0  0  0  0  0  0  0  0
    4.2969    1.4104   18.8508 C   0  0  0  0  0  0  0  0  0  0  0  0
    3.1899    2.2796   19.0337 C   0  0  0  0  0  0  0  0  0  0  0  0
    2.7769    2.6178   20.2938 C   0  0  0  0  0  0  0  0  0  0  0  0
    3.4543    2.1159   21.4284 C   0  0  0  0  0  0  0  0  0  0  0  0
    4.5292    1.2767   21.2767 C   0  0  0  0  0  0  0  0  0  0  0  0
    4.9666    0.8968   19.9796 C   0  0  0  0  0  0  0  0  0  0  0  0
    5.0494    0.8840   22.1444 H   0  0  0  0  0  0  0  0  0  0  0  0
    3.1258    2.3933   22.4258 H   0  0  0  0  0  0  0  0  0  0  0  0
    1.9222    3.2737   20.4350 H   0  0  0  0  0  0  0  0  0  0  0  0
    2.6822    2.6663   18.1544 H   0  0  0  0  0  0  0  0  0  0  0  0
    4.2513    1.4175   16.6795 H   0  0  0  0  0  0  0  0  0  0  0  0
    7.2388   -0.9616   18.2397 H   0  0  0  0  0  0  0  0  0  0  0  0
    7.7453    0.4212   21.4807 C   0  0  0  0  0  0  0  0  0  0  0  0
    8.3470   -0.4309   22.5980 C   0  0  2  0  0  0  0  0  0  0  0  0
    9.8046   -0.0625   22.8778 C   0  0  0  0  0  0  0  0  0  0  0  0
   10.2009    1.3065   23.3210 C   0  0  0  0  0  0  0  0  0  0  0  0
   10.1261    2.3680   22.5266 N   0  0  0  0  0  0  0  0  0  0  0  0
   10.7043    3.3545   23.2026 N   0  0  0  0  0  0  0  0  0  0  0  0
   11.1093    2.9133   24.3583 N   0  0  0  0  0  2  0  0  0  0  0  0
   10.8167    1.6163   24.4589 N   0  0  0  0  0  0  0  0  0  0  0  0
   10.3242   -0.1736   21.9214 H   0  0  0  0  0  0  0  0  0  0  0  0
   10.2200   -0.7758   23.5801 H   0  0  0  0  0  0  0  0  0  0  0  0
    7.7264   -0.3242   23.4966 H   0  0  0  0  0  0  0  0  0  0  0  0
    8.5346    0.7573   20.7939 H   0  0  0  0  0  0  0  0  0  0  0  0
    7.2580    1.3320   21.8450 H   0  0  0  0  0  0  0  0  0  0  0  0
    7.8984   -2.8734   23.2746 C   0  0  0  0  0  0  0  0  0  0  0  0
    6.6140   -2.9641   23.8219 C   0  0  0  0  0  0  0  0  0  0  0  0
    6.3976   -3.7375   24.9499 C   0  0  0  0  0  0  0  0  0  0  0  0
    4.7959   -3.8383   25.6250 Cl  0  0  0  0  0  0  0  0  0  0  0  0
    7.4351   -4.4530   25.5495 C   0  0  0  0  0  0  0  0  0  0  0  0
    8.7054   -4.3706   25.0067 C   0  0  0  0  0  0  0  0  0  0  0  0
    8.9453   -3.5796   23.8858 C   0  0  0  0  0  0  0  0  0  0  0  0
   10.3600   -3.4410   23.4200 C   0  0  0  0  0  0  0  0  0  0  0  0
   11.3117   -3.7856   24.1203 O   0  0  0  0  0  0  0  0  0  0  0  0
    9.5441   -4.9029   25.4460 H   0  0  0  0  0  0  0  0  0  0  0  0
    7.2368   -5.0924   26.4045 H   0  0  0  0  0  0  0  0  0  0  0  0
    5.7790   -2.4472   23.3608 H   0  0  0  0  0  0  0  0  0  0  0  0
    9.6990   -1.8491   20.5637 H   0  0  0  0  0  0  0  0  0  0  0  0
    9.0524   -3.4685   20.9036 H   0  0  0  0  0  0  0  0  0  0  0  0
   11.9398   -2.6312   20.6724 H   0  0  0  0  0  0  0  0  0  0  0  0
   12.5047   -3.4718   22.1323 H   0  0  0  0  0  0  0  0  0  0  0  0
   13.0300   -2.2177   24.0597 H   0  0  0  0  0  0  0  0  0  0  0  0
   13.2183    0.7138   23.8803 H   0  0  0  0  0  0  0  0  0  0  0  0
   14.2277   -0.3557   24.8882 H   0  0  0  0  0  0  0  0  0  0  0  0
   14.5629   -0.0826   23.1535 H   0  0  0  0  0  0  0  0  0  0  0  0
  1  2  1  0
  2  3  1  0
  3  4  2  0
  3  5  1  0
  5  6  1  0
  6  7  1  0
  8  7  1  6
  8  9  1  0
  9 10  2  0
  9 11  1  0
 11 12  1  0
 12 13  2  0
 13 14  1  0
 14 15  2  0
 15 16  1  0
 16 17  2  0
 17 18  1  0
 18 19  2  0
 19 20  1  0
 20 21  2  0
 20 22  1  0
 19 23  1  0
 18 24  1  0
 17 25  1  0
 15 26  1  0
 13 27  1  0
 11 28  1  0
 28 29  1  0
 29 30  1  0
 30 31  1  0
 31 32  1  0
 32 33  2  0
 33 34  1  0
 34 35  1  0
 30 36  1  0
 30 37  1  0
 29 38  1  1
 28 39  1  0
 28 40  1  0
  8 41  1  0
 41 42  2  0
 42 43  1  0
 43 44  1  0
 43 45  2  0
 45 46  1  0
 46 47  2  0
 47 48  1  0
 48 49  2  0
 46 50  1  0
 45 51  1  0
 42 52  1  0
  7 53  1  0
  7 54  1  0
  5 55  1  0
  5 56  1  0
  2 57  1  0
  1 58  1  0
  1 59  1  0
  1 60  1  0
 48  6  1  0
 29  8  1  0
 35 31  2  0
 47 41  1  0
 21 12  1  0
 21 16  1  0
M  CHG  1  34  -1
M  END
>  <cnnaffinities>  (43) 
[6.73355]

>  <score>  (43) 
6.73355

>  <index>  (43) 
42

>  <Smiles>  (43) 
C(N(C(=O)C(N1C([C@@]2(C(=O)N(c3c(nc(c4c(c(c(c(c34)[H])[H])[H])[H])[H])[H])C([C@@]2(C(c2nn[n-]n2)([H])[H])[H])([H])[H])c2c(c(Cl)c(c(c2C1=O)[H])[H])[H])([H])[H])([H])[H])[H])([H])([H])[H]

>  <h>  (43) 
<NA>

>  <Training>  (43) 
True

>  <Success>  (43) 
True

>  <enamine_searched>  (43) 
False

>  <enamine_id>  (43) 
nan

$$$$

     RDKit          3D

 62 67  0  0  0  0  0  0  0  0999 V2000
    3.8080   -2.4079   25.2403 C   0  0  0  0  0  0  0  0  0  0  0  0
    4.2751   -2.4816   26.6857 C   0  0  0  0  0  0  0  0  0  0  0  0
    5.6258   -2.9962   26.8089 N   0  0  0  0  0  0  0  0  0  0  0  0
    5.7693   -4.3084   27.0538 N   0  0  0  0  0  0  0  0  0  0  0  0
    7.0786   -4.5056   27.0917 C   0  0  0  0  0  0  0  0  0  0  0  0
    7.7840   -3.3162   26.8619 C   0  0  0  0  0  0  0  0  0  0  0  0
    6.8139   -2.3516   26.6322 C   0  0  0  0  0  0  0  0  0  0  0  0
    6.9150   -0.8631   26.3103 C   0  0  0  0  0  0  0  0  0  0  0  0
    7.7395   -0.4989   25.1532 N   0  0  0  0  0  0  0  0  0  0  0  0
    7.2286   -0.0092   23.8918 C   0  0  0  0  0  0  0  0  0  0  0  0
    8.1217   -0.4445   22.6876 C   0  0  2  0  0  0  0  0  0  0  0  0
    7.6164    0.3666   21.5092 C   0  0  0  0  0  0  0  0  0  0  0  0
    7.7697    1.5540   21.2986 O   0  0  0  0  0  0  0  0  0  0  0  0
    6.8643   -0.4610   20.7275 N   0  0  0  0  0  0  0  0  0  0  0  0
    6.0819    0.0757   19.6992 C   0  0  0  0  0  0  0  0  0  0  0  0
    6.4068   -0.2355   18.4086 C   0  0  0  0  0  0  0  0  0  0  0  0
    5.7458    0.2343   17.3278 N   0  0  0  0  0  0  0  0  0  0  0  0
    4.7329    1.0372   17.5588 C   0  0  0  0  0  0  0  0  0  0  0  0
    4.2923    1.4213   18.8592 C   0  0  0  0  0  0  0  0  0  0  0  0
    3.1748    2.2746   19.0400 C   0  0  0  0  0  0  0  0  0  0  0  0
    2.7470    2.6119   20.2935 C   0  0  0  0  0  0  0  0  0  0  0  0
    3.4193    2.1153   21.4338 C   0  0  0  0  0  0  0  0  0  0  0  0
    4.5087    1.2950   21.2902 C   0  0  0  0  0  0  0  0  0  0  0  0
    4.9787    0.9328   19.9869 C   0  0  0  0  0  0  0  0  0  0  0  0
    5.0098    0.9335   22.1839 H   0  0  0  0  0  0  0  0  0  0  0  0
    3.0659    2.3852   22.4253 H   0  0  0  0  0  0  0  0  0  0  0  0
    1.8863    3.2600   20.4244 H   0  0  0  0  0  0  0  0  0  0  0  0
    2.6704    2.6487   18.1554 H   0  0  0  0  0  0  0  0  0  0  0  0
    4.1872    1.4131   16.6935 H   0  0  0  0  0  0  0  0  0  0  0  0
    7.2655   -0.8816   18.2272 H   0  0  0  0  0  0  0  0  0  0  0  0
    6.7543   -1.8229   21.2056 C   0  0  0  0  0  0  0  0  0  0  0  0
    7.8945   -1.9291   22.2239 C   0  0  2  0  0  0  0  0  0  0  0  0
    7.6447   -2.9671   23.3175 C   0  0  0  0  0  0  0  0  0  0  0  0
    8.4673   -2.9721   24.0426 H   0  0  0  0  0  0  0  0  0  0  0  0
    7.5552   -3.9694   22.8840 H   0  0  0  0  0  0  0  0  0  0  0  0
    6.7129   -2.7535   23.8517 H   0  0  0  0  0  0  0  0  0  0  0  0
    8.8108   -2.2172   21.6866 H   0  0  0  0  0  0  0  0  0  0  0  0
    5.7794   -2.0017   21.6815 H   0  0  0  0  0  0  0  0  0  0  0  0
    6.8487   -2.5104   20.3674 H   0  0  0  0  0  0  0  0  0  0  0  0
    9.5653   -0.1485   22.9654 C   0  0  0  0  0  0  0  0  0  0  0  0
   10.5177   -0.0081   21.9556 C   0  0  0  0  0  0  0  0  0  0  0  0
   11.8414    0.1687   22.3198 C   0  0  0  0  0  0  0  0  0  0  0  0
   12.7906    0.2056   21.3800 F   0  0  0  0  0  0  0  0  0  0  0  0
   12.2573    0.2853   23.6402 C   0  0  0  0  0  0  0  0  0  0  0  0
   11.2992    0.1507   24.6173 C   0  0  0  0  0  0  0  0  0  0  0  0
    9.9827   -0.1417   24.2812 C   0  0  0  0  0  0  0  0  0  0  0  0
    9.0721   -0.6835   25.3118 C   0  0  0  0  0  0  0  0  0  0  0  0
    9.5057   -1.2864   26.2754 O   0  0  0  0  0  0  0  0  0  0  0  0
   11.5511    0.2430   25.6573 H   0  0  0  0  0  0  0  0  0  0  0  0
   13.3136    0.4093   23.8670 H   0  0  0  0  0  0  0  0  0  0  0  0
   10.2160   -0.0721   20.9166 H   0  0  0  0  0  0  0  0  0  0  0  0
    6.2084   -0.3814   23.7247 H   0  0  0  0  0  0  0  0  0  0  0  0
    7.1979    1.0919   23.8888 H   0  0  0  0  0  0  0  0  0  0  0  0
    5.9245   -0.4202   26.1726 H   0  0  0  0  0  0  0  0  0  0  0  0
    7.3740   -0.3609   27.1690 H   0  0  0  0  0  0  0  0  0  0  0  0
    8.8515   -3.1770   26.8814 H   0  0  0  0  0  0  0  0  0  0  0  0
    7.4733   -5.5005   27.2637 H   0  0  0  0  0  0  0  0  0  0  0  0
    3.6526   -3.1685   27.2606 H   0  0  0  0  0  0  0  0  0  0  0  0
    4.2118   -1.5047   27.1735 H   0  0  0  0  0  0  0  0  0  0  0  0
    3.8620   -3.3980   24.7820 H   0  0  0  0  0  0  0  0  0  0  0  0
    4.4359   -1.7258   24.6554 H   0  0  0  0  0  0  0  0  0  0  0  0
    2.7747   -2.0538   25.2052 H   0  0  0  0  0  0  0  0  0  0  0  0
  1  2  1  0
  2  3  1  0
  3  4  1  0
  4  5  2  0
  5  6  1  0
  6  7  2  0
  7  8  1  0
  8  9  1  0
  9 10  1  0
 11 10  1  1
 11 12  1  0
 12 13  2  0
 12 14  1  0
 14 15  1  0
 15 16  2  0
 16 17  1  0
 17 18  2  0
 18 19  1  0
 19 20  2  0
 20 21  1  0
 21 22  2  0
 22 23  1  0
 23 24  2  0
 23 25  1  0
 22 26  1  0
 21 27  1  0
 20 28  1  0
 18 29  1  0
 16 30  1  0
 14 31  1  0
 31 32  1  0
 32 33  1  0
 33 34  1  0
 33 35  1  0
 33 36  1  0
 32 37  1  6
 31 38  1  0
 31 39  1  0
 11 40  1  0
 40 41  2  0
 41 42  1  0
 42 43  1  0
 42 44  2  0
 44 45  1  0
 45 46  2  0
 46 47  1  0
 47 48  2  0
 45 49  1  0
 44 50  1  0
 41 51  1  0
 10 52  1  0
 10 53  1  0
  8 54  1  0
  8 55  1  0
  6 56  1  0
  5 57  1  0
  2 58  1  0
  2 59  1  0
  1 60  1  0
  1 61  1  0
  1 62  1  0
  7  3  1  0
 47  9  1  0
 32 11  1  0
 46 40  1  0
 24 15  1  0
 24 19  1  0
M  END
>  <cnnaffinities>  (44) 
[6.43646]

>  <score>  (44) 
6.43646

>  <index>  (44) 
43

>  <Smiles>  (44) 
C(C(n1nc(c(c1C(N1C([C@@]2(C(=O)N(c3c(nc(c4c(c(c(c(c34)[H])[H])[H])[H])[H])[H])C([C@@]2(C([H])([H])[H])[H])([H])[H])c2c(c(F)c(c(c2C1=O)[H])[H])[H])([H])[H])([H])[H])[H])[H])([H])[H])([H])([H])[H]

>  <h>  (44) 
<NA>

>  <Training>  (44) 
True

>  <Success>  (44) 
True

>  <enamine_searched>  (44) 
False

>  <enamine_id>  (44) 
nan

$$$$

     RDKit          3D

 56 60  0  0  0  0  0  0  0  0999 V2000
    6.5830    4.4666   21.2869 C   0  0  0  0  0  0  0  0  0  0  0  0
    7.5019    4.0641   22.3332 N   0  0  0  0  0  0  0  0  0  0  0  0
    7.0025    3.3475   23.3747 C   0  0  0  0  0  0  0  0  0  0  0  0
    5.8156    3.0704   23.4839 O   0  0  0  0  0  0  0  0  0  0  0  0
    8.0238    2.9178   24.4120 C   0  0  0  0  0  0  0  0  0  0  0  0
    8.7020    1.7027   24.0263 N   0  0  0  0  0  0  0  0  0  0  0  0
    7.9339    0.4719   23.9163 C   0  0  0  0  0  0  0  0  0  0  0  0
    8.3494   -0.3239   22.6666 C   0  0  2  0  0  0  0  0  0  0  0  0
    7.8778    0.3511   21.3700 C   0  0  0  0  0  0  0  0  0  0  0  0
    8.2997    1.3709   20.8677 O   0  0  0  0  0  0  0  0  0  0  0  0
    6.8885   -0.4229   20.8125 N   0  0  0  0  0  0  0  0  0  0  0  0
    6.1171    0.0911   19.7456 C   0  0  0  0  0  0  0  0  0  0  0  0
    6.4587   -0.2146   18.4551 C   0  0  0  0  0  0  0  0  0  0  0  0
    5.7867    0.2280   17.3648 N   0  0  0  0  0  0  0  0  0  0  0  0
    4.7589    1.0161   17.5797 C   0  0  0  0  0  0  0  0  0  0  0  0
    4.3088    1.4193   18.8709 C   0  0  0  0  0  0  0  0  0  0  0  0
    3.1906    2.2749   19.0514 C   0  0  0  0  0  0  0  0  0  0  0  0
    2.7818    2.6323   20.3080 C   0  0  0  0  0  0  0  0  0  0  0  0
    3.4741    2.1644   21.4473 C   0  0  0  0  0  0  0  0  0  0  0  0
    4.5621    1.3372   21.3013 C   0  0  0  0  0  0  0  0  0  0  0  0
    5.0046    0.9436   20.0039 C   0  0  0  0  0  0  0  0  0  0  0  0
    5.0989    1.0079   22.1874 H   0  0  0  0  0  0  0  0  0  0  0  0
    3.1655    2.4755   22.4419 H   0  0  0  0  0  0  0  0  0  0  0  0
    1.9211    3.2827   20.4351 H   0  0  0  0  0  0  0  0  0  0  0  0
    2.6781    2.6399   18.1666 H   0  0  0  0  0  0  0  0  0  0  0  0
    4.2117    1.3720   16.7072 H   0  0  0  0  0  0  0  0  0  0  0  0
    7.3260   -0.8478   18.2746 H   0  0  0  0  0  0  0  0  0  0  0  0
    6.5281   -1.5995   21.5741 C   0  0  0  0  0  0  0  0  0  0  0  0
    7.6838   -1.7320   22.5743 C   0  0  2  0  0  0  0  0  0  0  0  0
    7.3637   -2.5071   23.8509 C   0  0  0  0  0  0  0  0  0  0  0  0
    5.8968   -1.9669   24.7311 Cl  0  0  0  0  0  0  0  0  0  0  0  0
    8.1988   -2.4575   24.5549 H   0  0  0  0  0  0  0  0  0  0  0  0
    7.1964   -3.5588   23.6047 H   0  0  0  0  0  0  0  0  0  0  0  0
    8.4309   -2.3757   22.1086 H   0  0  0  0  0  0  0  0  0  0  0  0
    6.4586   -2.4742   20.9154 H   0  0  0  0  0  0  0  0  0  0  0  0
    5.5647   -1.4701   22.0847 H   0  0  0  0  0  0  0  0  0  0  0  0
    9.8520   -0.3604   22.6132 C   0  0  0  0  0  0  0  0  0  0  0  0
   10.4305   -1.2623   21.7330 C   0  0  0  0  0  0  0  0  0  0  0  0
   11.7920   -1.4231   21.7006 C   0  0  0  0  0  0  0  0  0  0  0  0
   12.2897   -2.7945   20.7540 Cl  0  0  0  0  0  0  0  0  0  0  0  0
   12.6354   -0.5661   22.4186 C   0  0  0  0  0  0  0  0  0  0  0  0
   12.0597    0.4189   23.2003 C   0  0  0  0  0  0  0  0  0  0  0  0
   10.6753    0.5345   23.2940 C   0  0  0  0  0  0  0  0  0  0  0  0
   10.0765    1.6858   24.0395 C   0  0  0  0  0  0  0  0  0  0  0  0
   10.7505    2.5571   24.5713 O   0  0  0  0  0  0  0  0  0  0  0  0
   12.6816    1.1230   23.7405 H   0  0  0  0  0  0  0  0  0  0  0  0
   13.7144   -0.6112   22.3449 H   0  0  0  0  0  0  0  0  0  0  0  0
    9.8102   -1.8366   21.0558 H   0  0  0  0  0  0  0  0  0  0  0  0
    8.1223   -0.1611   24.7948 H   0  0  0  0  0  0  0  0  0  0  0  0
    6.8638    0.7157   23.8960 H   0  0  0  0  0  0  0  0  0  0  0  0
    7.5020    2.7966   25.3715 H   0  0  0  0  0  0  0  0  0  0  0  0
    8.8081    3.6731   24.5060 H   0  0  0  0  0  0  0  0  0  0  0  0
    8.4815    3.9590   22.1000 H   0  0  0  0  0  0  0  0  0  0  0  0
    5.8229    5.1264   21.7101 H   0  0  0  0  0  0  0  0  0  0  0  0
    6.0696    3.5962   20.8596 H   0  0  0  0  0  0  0  0  0  0  0  0
    7.1141    5.0035   20.5013 H   0  0  0  0  0  0  0  0  0  0  0  0
  1  2  1  0
  2  3  1  0
  3  4  2  0
  3  5  1  0
  5  6  1  0
  6  7  1  0
  8  7  1  1
  8  9  1  0
  9 10  2  0
  9 11  1  0
 11 12  1  0
 12 13  2  0
 13 14  1  0
 14 15  2  0
 15 16  1  0
 16 17  2  0
 17 18  1  0
 18 19  2  0
 19 20  1  0
 20 21  2  0
 20 22  1  0
 19 23  1  0
 18 24  1  0
 17 25  1  0
 15 26  1  0
 13 27  1  0
 11 28  1  0
 28 29  1  0
 29 30  1  0
 30 31  1  0
 30 32  1  0
 30 33  1  0
 29 34  1  6
 28 35  1  0
 28 36  1  0
  8 37  1  0
 37 38  2  0
 38 39  1  0
 39 40  1  0
 39 41  2  0
 41 42  1  0
 42 43  2  0
 43 44  1  0
 44 45  2  0
 42 46  1  0
 41 47  1  0
 38 48  1  0
  7 49  1  0
  7 50  1  0
  5 51  1  0
  5 52  1  0
  2 53  1  0
  1 54  1  0
  1 55  1  0
  1 56  1  0
 44  6  1  0
 29  8  1  0
 43 37  1  0
 21 12  1  0
 21 16  1  0
M  END
>  <cnnaffinities>  (45) 
[6.26703, 6.36315]

>  <score>  (45) 
6.26703

>  <index>  (45) 
44

>  <Smiles>  (45) 
C(N(C(=O)C(N1C([C@@]2(C(=O)N(c3c(nc(c4c(c(c(c(c34)[H])[H])[H])[H])[H])[H])C([C@@]2(C(Cl)([H])[H])[H])([H])[H])c2c(c(Cl)c(c(c2C1=O)[H])[H])[H])([H])[H])([H])[H])[H])([H])([H])[H]

>  <h>  (45) 
<NA>

>  <Training>  (45) 
True

>  <Success>  (45) 
True

>  <enamine_searched>  (45) 
False

>  <enamine_id>  (45) 
nan

$$$$

     RDKit          3D

 60 64  0  0  0  0  0  0  0  0999 V2000
    6.5742    4.4770   21.2904 C   0  0  0  0  0  0  0  0  0  0  0  0
    7.4903    4.0753   22.3414 N   0  0  0  0  0  0  0  0  0  0  0  0
    6.9908    3.3528   23.3803 C   0  0  0  0  0  0  0  0  0  0  0  0
    5.8045    3.0731   23.4874 O   0  0  0  0  0  0  0  0  0  0  0  0
    8.0118    2.9220   24.4190 C   0  0  0  0  0  0  0  0  0  0  0  0
    8.6895    1.7035   24.0383 N   0  0  0  0  0  0  0  0  0  0  0  0
    7.9281    0.4682   23.9324 C   0  0  0  0  0  0  0  0  0  0  0  0
    8.3384   -0.3296   22.6790 C   0  0  2  0  0  0  0  0  0  0  0  0
    7.8623    0.3516   21.3835 C   0  0  0  0  0  0  0  0  0  0  0  0
    8.2739    1.3831   20.8946 O   0  0  0  0  0  0  0  0  0  0  0  0
    6.8797   -0.4251   20.8212 N   0  0  0  0  0  0  0  0  0  0  0  0
    6.1132    0.0878   19.7504 C   0  0  0  0  0  0  0  0  0  0  0  0
    6.4565   -0.2164   18.4595 C   0  0  0  0  0  0  0  0  0  0  0  0
    5.7860    0.2276   17.3684 N   0  0  0  0  0  0  0  0  0  0  0  0
    4.7582    1.0160   17.5797 C   0  0  0  0  0  0  0  0  0  0  0  0
    4.3066    1.4195   18.8702 C   0  0  0  0  0  0  0  0  0  0  0  0
    3.1890    2.2760   19.0494 C   0  0  0  0  0  0  0  0  0  0  0  0
    2.7794    2.6346   20.3057 C   0  0  0  0  0  0  0  0  0  0  0  0
    3.4710    2.1663   21.4454 C   0  0  0  0  0  0  0  0  0  0  0  0
    4.5578    1.3381   21.2998 C   0  0  0  0  0  0  0  0  0  0  0  0
    5.0014    0.9426   20.0038 C   0  0  0  0  0  0  0  0  0  0  0  0
    5.0939    1.0063   22.1855 H   0  0  0  0  0  0  0  0  0  0  0  0
    3.1630    2.4780   22.4399 H   0  0  0  0  0  0  0  0  0  0  0  0
    1.9182    3.2840   20.4325 H   0  0  0  0  0  0  0  0  0  0  0  0
    2.6773    2.6418   18.1642 H   0  0  0  0  0  0  0  0  0  0  0  0
    4.2136    1.3737   16.7058 H   0  0  0  0  0  0  0  0  0  0  0  0
    7.3227   -0.8491   18.2753 H   0  0  0  0  0  0  0  0  0  0  0  0
    6.5299   -1.6083   21.5788 C   0  0  0  0  0  0  0  0  0  0  0  0
    7.6857   -1.7455   22.5743 C   0  0  2  0  0  0  0  0  0  0  0  0
    7.3104   -2.4751   23.8554 C   0  0  0  0  0  0  0  0  0  0  0  0
    6.1960   -1.8595   24.4574 O   0  0  0  0  0  0  0  0  0  0  0  0
    5.8690   -2.4313   25.6976 C   0  0  0  0  0  0  0  0  0  0  0  0
    4.9949   -1.8977   26.0758 H   0  0  0  0  0  0  0  0  0  0  0  0
    6.6924   -2.3249   26.4218 H   0  0  0  0  0  0  0  0  0  0  0  0
    5.6203   -3.4999   25.6002 H   0  0  0  0  0  0  0  0  0  0  0  0
    7.0780   -3.5287   23.6191 H   0  0  0  0  0  0  0  0  0  0  0  0
    8.1728   -2.4846   24.5462 H   0  0  0  0  0  0  0  0  0  0  0  0
    8.4368   -2.3940   22.1218 H   0  0  0  0  0  0  0  0  0  0  0  0
    5.5751   -1.4852   22.1042 H   0  0  0  0  0  0  0  0  0  0  0  0
    6.4549   -2.4753   20.9127 H   0  0  0  0  0  0  0  0  0  0  0  0
    9.8400   -0.3581   22.6205 C   0  0  0  0  0  0  0  0  0  0  0  0
   10.4182   -1.2595   21.7388 C   0  0  0  0  0  0  0  0  0  0  0  0
   11.7812   -1.4140   21.6965 C   0  0  0  0  0  0  0  0  0  0  0  0
   12.2892   -2.7837   20.7502 Cl  0  0  0  0  0  0  0  0  0  0  0  0
   12.6274   -0.5528   22.4059 C   0  0  0  0  0  0  0  0  0  0  0  0
   12.0503    0.4328   23.1865 C   0  0  0  0  0  0  0  0  0  0  0  0
   10.6641    0.5449   23.2885 C   0  0  0  0  0  0  0  0  0  0  0  0
   10.0638    1.6949   24.0344 C   0  0  0  0  0  0  0  0  0  0  0  0
   10.7391    2.5705   24.5551 O   0  0  0  0  0  0  0  0  0  0  0  0
   12.6723    1.1425   23.7195 H   0  0  0  0  0  0  0  0  0  0  0  0
   13.7085   -0.5949   22.3299 H   0  0  0  0  0  0  0  0  0  0  0  0
    9.8054   -1.8434   21.0630 H   0  0  0  0  0  0  0  0  0  0  0  0
    8.1203   -0.1558   24.8124 H   0  0  0  0  0  0  0  0  0  0  0  0
    6.8625    0.7049   23.9158 H   0  0  0  0  0  0  0  0  0  0  0  0
    8.7944    3.6807   24.5109 H   0  0  0  0  0  0  0  0  0  0  0  0
    7.4896    2.8076   25.3797 H   0  0  0  0  0  0  0  0  0  0  0  0
    8.4700    3.9709   22.1088 H   0  0  0  0  0  0  0  0  0  0  0  0
    7.1098    5.0210   20.5130 H   0  0  0  0  0  0  0  0  0  0  0  0
    5.8128    5.1396   21.7077 H   0  0  0  0  0  0  0  0  0  0  0  0
    6.0663    3.6076   20.8512 H   0  0  0  0  0  0  0  0  0  0  0  0
  1  2  1  0
  2  3  1  0
  3  4  2  0
  3  5  1  0
  5  6  1  0
  6  7  1  0
  8  7  1  1
  8  9  1  0
  9 10  2  0
  9 11  1  0
 11 12  1  0
 12 13  2  0
 13 14  1  0
 14 15  2  0
 15 16  1  0
 16 17  2  0
 17 18  1  0
 18 19  2  0
 19 20  1  0
 20 21  2  0
 20 22  1  0
 19 23  1  0
 18 24  1  0
 17 25  1  0
 15 26  1  0
 13 27  1  0
 11 28  1  0
 28 29  1  0
 29 30  1  0
 30 31  1  0
 31 32  1  0
 32 33  1  0
 32 34  1  0
 32 35  1  0
 30 36  1  0
 30 37  1  0
 29 38  1  6
 28 39  1  0
 28 40  1  0
  8 41  1  0
 41 42  2  0
 42 43  1  0
 43 44  1  0
 43 45  2  0
 45 46  1  0
 46 47  2  0
 47 48  1  0
 48 49  2  0
 46 50  1  0
 45 51  1  0
 42 52  1  0
  7 53  1  0
  7 54  1  0
  5 55  1  0
  5 56  1  0
  2 57  1  0
  1 58  1  0
  1 59  1  0
  1 60  1  0
 48  6  1  0
 29  8  1  0
 47 41  1  0
 21 12  1  0
 21 16  1  0
M  END
>  <cnnaffinities>  (46) 
[6.18963]

>  <score>  (46) 
6.18963

>  <index>  (46) 
45

>  <Smiles>  (46) 
C(N(C(=O)C(N1C([C@@]2(C(=O)N(c3c(nc(c4c(c(c(c(c34)[H])[H])[H])[H])[H])[H])C([C@@]2(C(OC([H])([H])[H])([H])[H])[H])([H])[H])c2c(c(Cl)c(c(c2C1=O)[H])[H])[H])([H])[H])([H])[H])[H])([H])([H])[H]

>  <h>  (46) 
<NA>

>  <Training>  (46) 
True

>  <Success>  (46) 
True

>  <enamine_searched>  (46) 
False

>  <enamine_id>  (46) 
nan

$$$$

     RDKit          3D

 64 68  0  0  0  0  0  0  0  0999 V2000
   10.7826    3.8443   23.4832 C   0  0  0  0  0  0  0  0  0  0  0  0
   10.3837    2.5770   22.7369 C   0  0  0  0  0  0  0  0  0  0  0  0
    9.8732    1.3740   23.9550 S   0  0  0  0  0  0  0  0  0  0  0  0
    8.5730    1.7739   24.4664 O   0  0  0  0  0  0  0  0  0  0  0  0
   10.9950    1.1624   24.8550 O   0  0  0  0  0  0  0  0  0  0  0  0
    9.6398   -0.0160   23.0762 N   0  0  0  0  0  0  0  0  0  0  0  0
    8.3137   -0.3771   22.6115 C   0  0  1  0  0  0  0  0  0  0  0  0
    7.7825    0.4543   21.4392 C   0  0  0  0  0  0  0  0  0  0  0  0
    6.8270   -0.4503   20.8401 N   0  0  0  0  0  0  0  0  0  0  0  0
    6.0419   -0.0168   19.7458 C   0  0  0  0  0  0  0  0  0  0  0  0
    6.3807   -0.3342   18.4546 C   0  0  0  0  0  0  0  0  0  0  0  0
    5.7549    0.1728   17.3605 N   0  0  0  0  0  0  0  0  0  0  0  0
    4.7654    1.0115   17.5589 C   0  0  0  0  0  0  0  0  0  0  0  0
    4.2936    1.4035   18.8464 C   0  0  0  0  0  0  0  0  0  0  0  0
    3.1968    2.2894   19.0241 C   0  0  0  0  0  0  0  0  0  0  0  0
    2.7790    2.6324   20.2820 C   0  0  0  0  0  0  0  0  0  0  0  0
    3.4417    2.1193   21.4202 C   0  0  0  0  0  0  0  0  0  0  0  0
    4.5063    1.2654   21.2722 C   0  0  0  0  0  0  0  0  0  0  0  0
    4.9549    0.8842   19.9791 C   0  0  0  0  0  0  0  0  0  0  0  0
    5.0145    0.8686   22.1447 H   0  0  0  0  0  0  0  0  0  0  0  0
    3.1103    2.4063   22.4145 H   0  0  0  0  0  0  0  0  0  0  0  0
    1.9318    3.3000   20.4160 H   0  0  0  0  0  0  0  0  0  0  0  0
    2.7003    2.6864   18.1423 H   0  0  0  0  0  0  0  0  0  0  0  0
    4.2803    1.4235   16.6731 H   0  0  0  0  0  0  0  0  0  0  0  0
    7.2049   -1.0168   18.2572 H   0  0  0  0  0  0  0  0  0  0  0  0
    7.0247   -1.7813   21.1663 C   0  0  0  0  0  0  0  0  0  0  0  0
    6.3612   -2.6927   20.7192 O   0  0  0  0  0  0  0  0  0  0  0  0
    8.1733   -1.8710   22.1899 C   0  0  1  0  0  0  0  0  0  0  0  0
    9.4533   -2.4333   21.4958 C   0  0  0  0  0  0  0  0  0  0  0  0
   10.5508   -2.7060   22.4330 N   0  0  0  0  0  0  0  0  0  0  0  0
   11.9672   -2.5038   22.1263 C   0  0  0  0  0  0  0  0  0  0  0  0
   12.5588   -1.3083   22.8869 C   0  0  0  0  0  0  0  0  0  0  0  0
   12.6760   -1.3353   24.0976 O   0  0  0  0  0  0  0  0  0  0  0  0
   12.8492   -0.1868   22.1383 N   0  0  0  0  0  0  0  0  0  0  0  0
   13.5836    0.9106   22.7729 C   0  0  0  0  0  0  0  0  0  0  0  0
   13.2106    0.9870   23.7975 H   0  0  0  0  0  0  0  0  0  0  0  0
   13.4023    1.8525   22.2414 H   0  0  0  0  0  0  0  0  0  0  0  0
   14.6638    0.7371   22.7821 H   0  0  0  0  0  0  0  0  0  0  0  0
   13.0632   -0.3895   21.1707 H   0  0  0  0  0  0  0  0  0  0  0  0
   12.1328   -2.4254   21.0516 H   0  0  0  0  0  0  0  0  0  0  0  0
   12.5011   -3.3795   22.5022 H   0  0  0  0  0  0  0  0  0  0  0  0
   10.3067   -3.4597   23.5541 C   0  0  0  0  0  0  0  0  0  0  0  0
   11.1813   -4.0320   24.1778 O   0  0  0  0  0  0  0  0  0  0  0  0
    8.8814   -3.5148   23.9991 C   0  0  0  0  0  0  0  0  0  0  0  0
    8.6204   -4.2996   25.1194 C   0  0  0  0  0  0  0  0  0  0  0  0
    7.3417   -4.3934   25.6294 C   0  0  0  0  0  0  0  0  0  0  0  0
    6.3175   -3.7056   24.9773 C   0  0  0  0  0  0  0  0  0  0  0  0
    4.6949   -3.8698   25.5875 Cl  0  0  0  0  0  0  0  0  0  0  0  0
    6.5576   -2.9241   23.8581 C   0  0  0  0  0  0  0  0  0  0  0  0
    7.8632   -2.7936   23.3601 C   0  0  0  0  0  0  0  0  0  0  0  0
    5.7152   -2.4575   23.3552 H   0  0  0  0  0  0  0  0  0  0  0  0
    7.1277   -5.0190   26.4910 H   0  0  0  0  0  0  0  0  0  0  0  0
    9.4529   -4.8303   25.5691 H   0  0  0  0  0  0  0  0  0  0  0  0
    9.7927   -1.7403   20.7209 H   0  0  0  0  0  0  0  0  0  0  0  0
    9.1502   -3.3672   21.0089 H   0  0  0  0  0  0  0  0  0  0  0  0
    7.2899    1.3769   21.7695 H   0  0  0  0  0  0  0  0  0  0  0  0
    8.5698    0.7351   20.7194 H   0  0  0  0  0  0  0  0  0  0  0  0
    7.6327   -0.2256   23.4503 H   0  0  0  0  0  0  0  0  0  0  0  0
   10.3974   -0.2109   22.4283 H   0  0  0  0  0  0  0  0  0  0  0  0
   11.2258    2.1390   22.1894 H   0  0  0  0  0  0  0  0  0  0  0  0
    9.5460    2.7192   22.0476 H   0  0  0  0  0  0  0  0  0  0  0  0
   11.6798    3.6574   24.0824 H   0  0  0  0  0  0  0  0  0  0  0  0
   10.9794    4.6636   22.7870 H   0  0  0  0  0  0  0  0  0  0  0  0
    9.9776    4.1365   24.1633 H   0  0  0  0  0  0  0  0  0  0  0  0
  1  2  1  0
  2  3  1  0
  3  4  2  0
  3  5  2  0
  3  6  1  0
  6  7  1  0
  7  8  1  0
  8  9  1  0
  9 10  1  0
 10 11  2  0
 11 12  1  0
 12 13  2  0
 13 14  1  0
 14 15  2  0
 15 16  1  0
 16 17  2  0
 17 18  1  0
 18 19  2  0
 18 20  1  0
 17 21  1  0
 16 22  1  0
 15 23  1  0
 13 24  1  0
 11 25  1  0
  9 26  1  0
 26 27  2  0
 26 28  1  0
 28 29  1  6
 29 30  1  0
 30 31  1  0
 31 32  1  0
 32 33  2  0
 32 34  1  0
 34 35  1  0
 35 36  1  0
 35 37  1  0
 35 38  1  0
 34 39  1  0
 31 40  1  0
 31 41  1  0
 30 42  1  0
 42 43  2  0
 42 44  1  0
 44 45  2  0
 45 46  1  0
 46 47  2  0
 47 48  1  0
 47 49  1  0
 49 50  2  0
 49 51  1  0
 46 52  1  0
 45 53  1  0
 29 54  1  0
 29 55  1  0
  8 56  1  0
  8 57  1  0
  7 58  1  1
  6 59  1  0
  2 60  1  0
  2 61  1  0
  1 62  1  0
  1 63  1  0
  1 64  1  0
 28  7  1  0
 50 44  1  0
 19 10  1  0
 50 28  1  0
 19 14  1  0
M  END
>  <cnnaffinities>  (47) 
[6.88285]

>  <score>  (47) 
6.88285

>  <index>  (47) 
46

>  <Smiles>  (47) 
C(C(S(=O)(=O)N([C@]1(C(N(c2c(nc(c3c(c(c(c(c23)[H])[H])[H])[H])[H])[H])C(=O)[C@]21C(N(C(C(=O)N(C([H])([H])[H])[H])([H])[H])C(=O)c1c(c(c(Cl)c(c21)[H])[H])[H])([H])[H])([H])[H])[H])[H])([H])[H])([H])([H])[H]

>  <h>  (47) 
<NA>

>  <Training>  (47) 
True

>  <Success>  (47) 
True

>  <enamine_searched>  (47) 
False

>  <enamine_id>  (47) 
nan

$$$$

     RDKit          3D

 56 60  0  0  0  0  0  0  0  0999 V2000
    6.5604    4.4493   21.2895 C   0  0  0  0  0  0  0  0  0  0  0  0
    7.4936    4.0406   22.3265 N   0  0  0  0  0  0  0  0  0  0  0  0
    7.0012    3.3073   23.3640 C   0  0  0  0  0  0  0  0  0  0  0  0
    5.8156    3.0288   23.4800 O   0  0  0  0  0  0  0  0  0  0  0  0
    8.0226    2.8699   24.4024 C   0  0  0  0  0  0  0  0  0  0  0  0
    8.7041    1.6603   24.0015 N   0  0  0  0  0  0  0  0  0  0  0  0
    7.9620    0.4164   23.8980 C   0  0  0  0  0  0  0  0  0  0  0  0
    8.3769   -0.3589   22.6352 C   0  0  2  0  0  0  0  0  0  0  0  0
    7.8889    0.3412   21.3492 C   0  0  0  0  0  0  0  0  0  0  0  0
    8.3047    1.3704   20.8578 O   0  0  0  0  0  0  0  0  0  0  0  0
    6.8867   -0.4215   20.8072 N   0  0  0  0  0  0  0  0  0  0  0  0
    6.1151    0.0929   19.7432 C   0  0  0  0  0  0  0  0  0  0  0  0
    6.4600   -0.2110   18.4548 C   0  0  0  0  0  0  0  0  0  0  0  0
    5.7859    0.2277   17.3665 N   0  0  0  0  0  0  0  0  0  0  0  0
    4.7578    1.0146   17.5802 C   0  0  0  0  0  0  0  0  0  0  0  0
    4.3062    1.4179   18.8698 C   0  0  0  0  0  0  0  0  0  0  0  0
    3.1892    2.2738   19.0504 C   0  0  0  0  0  0  0  0  0  0  0  0
    2.7827    2.6333   20.3061 C   0  0  0  0  0  0  0  0  0  0  0  0
    3.4750    2.1649   21.4449 C   0  0  0  0  0  0  0  0  0  0  0  0
    4.5591    1.3351   21.2991 C   0  0  0  0  0  0  0  0  0  0  0  0
    5.0012    0.9407   20.0031 C   0  0  0  0  0  0  0  0  0  0  0  0
    5.0995    1.0114   22.1844 H   0  0  0  0  0  0  0  0  0  0  0  0
    3.1691    2.4811   22.4393 H   0  0  0  0  0  0  0  0  0  0  0  0
    1.9220    3.2842   20.4324 H   0  0  0  0  0  0  0  0  0  0  0  0
    2.6788    2.6397   18.1642 H   0  0  0  0  0  0  0  0  0  0  0  0
    4.2131    1.3708   16.7057 H   0  0  0  0  0  0  0  0  0  0  0  0
    7.3264   -0.8444   18.2710 H   0  0  0  0  0  0  0  0  0  0  0  0
    6.5291   -1.5951   21.5743 C   0  0  0  0  0  0  0  0  0  0  0  0
    7.7117   -1.7674   22.5376 C   0  0  2  0  0  0  0  0  0  0  0  0
    7.3351   -2.4554   23.8456 C   0  0  0  0  0  0  0  0  0  0  0  0
    6.9356   -3.4553   23.6443 H   0  0  0  0  0  0  0  0  0  0  0  0
    6.5701   -1.8874   24.3863 H   0  0  0  0  0  0  0  0  0  0  0  0
    8.2056   -2.5706   24.5015 H   0  0  0  0  0  0  0  0  0  0  0  0
    8.4287   -2.4266   22.0440 H   0  0  0  0  0  0  0  0  0  0  0  0
    5.5831   -1.4567   22.1204 H   0  0  0  0  0  0  0  0  0  0  0  0
    6.4097   -2.4559   20.9097 H   0  0  0  0  0  0  0  0  0  0  0  0
    9.8789   -0.3931   22.5909 C   0  0  0  0  0  0  0  0  0  0  0  0
   10.4741   -1.2948   21.7217 C   0  0  0  0  0  0  0  0  0  0  0  0
   11.8382   -1.3487   21.6307 C   0  0  0  0  0  0  0  0  0  0  0  0
   12.3060   -2.2997   20.8109 F   0  0  0  0  0  0  0  0  0  0  0  0
   12.6733   -0.4821   22.3366 C   0  0  0  0  0  0  0  0  0  0  0  0
   12.0783    0.4607   23.1486 C   0  0  0  0  0  0  0  0  0  0  0  0
   10.6943    0.5278   23.2514 C   0  0  0  0  0  0  0  0  0  0  0  0
   10.0763    1.6683   23.9877 C   0  0  0  0  0  0  0  0  0  0  0  0
   10.7368    2.5602   24.4993 O   0  0  0  0  0  0  0  0  0  0  0  0
   12.6619    1.1849   23.7044 H   0  0  0  0  0  0  0  0  0  0  0  0
   13.7475   -0.4886   22.2411 H   0  0  0  0  0  0  0  0  0  0  0  0
    9.9113   -1.9654   21.0845 H   0  0  0  0  0  0  0  0  0  0  0  0
    6.8885    0.6343   23.8893 H   0  0  0  0  0  0  0  0  0  0  0  0
    8.1856   -0.2147   24.7694 H   0  0  0  0  0  0  0  0  0  0  0  0
    7.4989    2.7483   25.3645 H   0  0  0  0  0  0  0  0  0  0  0  0
    8.8048    3.6283   24.4992 H   0  0  0  0  0  0  0  0  0  0  0  0
    8.4748    3.9287   22.0761 H   0  0  0  0  0  0  0  0  0  0  0  0
    7.0943    5.0008   20.5140 H   0  0  0  0  0  0  0  0  0  0  0  0
    6.0501    3.5746   20.8515 H   0  0  0  0  0  0  0  0  0  0  0  0
    5.8047    5.1104   21.7307 H   0  0  0  0  0  0  0  0  0  0  0  0
  1  2  1  0
  2  3  1  0
  3  4  2  0
  3  5  1  0
  5  6  1  0
  6  7  1  0
  8  7  1  1
  8  9  1  0
  9 10  2  0
  9 11  1  0
 11 12  1  0
 12 13  2  0
 13 14  1  0
 14 15  2  0
 15 16  1  0
 16 17  2  0
 17 18  1  0
 18 19  2  0
 19 20  1  0
 20 21  2  0
 20 22  1  0
 19 23  1  0
 18 24  1  0
 17 25  1  0
 15 26  1  0
 13 27  1  0
 11 28  1  0
 28 29  1  0
 29 30  1  0
 30 31  1  0
 30 32  1  0
 30 33  1  0
 29 34  1  6
 28 35  1  0
 28 36  1  0
  8 37  1  0
 37 38  2  0
 38 39  1  0
 39 40  1  0
 39 41  2  0
 41 42  1  0
 42 43  2  0
 43 44  1  0
 44 45  2  0
 42 46  1  0
 41 47  1  0
 38 48  1  0
  7 49  1  0
  7 50  1  0
  5 51  1  0
  5 52  1  0
  2 53  1  0
  1 54  1  0
  1 55  1  0
  1 56  1  0
 44  6  1  0
 29  8  1  0
 43 37  1  0
 21 12  1  0
 21 16  1  0
M  END
>  <cnnaffinities>  (48) 
[6.22385]

>  <score>  (48) 
6.22385

>  <index>  (48) 
47

>  <Smiles>  (48) 
C(N(C(=O)C(N1C([C@@]2(C(=O)N(c3c(nc(c4c(c(c(c(c34)[H])[H])[H])[H])[H])[H])C([C@@]2(C([H])([H])[H])[H])([H])[H])c2c(c(F)c(c(c2C1=O)[H])[H])[H])([H])[H])([H])[H])[H])([H])([H])[H]

>  <h>  (48) 
<NA>

>  <Training>  (48) 
True

>  <Success>  (48) 
True

>  <enamine_searched>  (48) 
False

>  <enamine_id>  (48) 
nan

$$$$

     RDKit          3D

 41 43  0  0  0  0  0  0  0  0999 V2000
   10.9104   -2.4509   23.7817 C   0  0  0  0  0  0  0  0  0  0  0  0
   10.0169   -1.2723   23.4539 C   0  0  1  0  0  0  0  0  0  0  0  0
    8.5428   -1.5712   23.7522 C   0  0  0  0  0  0  0  0  0  0  0  0
    7.6635   -0.3153   23.8322 C   0  0  0  0  0  0  0  0  0  0  0  0
    8.0159    0.7493   22.8950 N   0  0  0  0  0  0  0  0  0  0  0  0
    7.8627    0.6365   21.5251 C   0  0  0  0  0  0  0  0  0  0  0  0
    8.4369    1.3983   20.7660 O   0  0  0  0  0  0  0  0  0  0  0  0
    6.9378   -0.4475   20.9201 C   0  0  0  0  0  0  0  0  0  0  0  0
    6.1114    0.0853   19.7676 C   0  0  0  0  0  0  0  0  0  0  0  0
    6.4264   -0.2076   18.4631 C   0  0  0  0  0  0  0  0  0  0  0  0
    5.7597    0.2399   17.3634 N   0  0  0  0  0  0  0  0  0  0  0  0
    4.7346    1.0302   17.5744 C   0  0  0  0  0  0  0  0  0  0  0  0
    4.2868    1.4240   18.8671 C   0  0  0  0  0  0  0  0  0  0  0  0
    3.1691    2.2810   19.0429 C   0  0  0  0  0  0  0  0  0  0  0  0
    2.7639    2.6455   20.2994 C   0  0  0  0  0  0  0  0  0  0  0  0
    3.4626    2.1677   21.4304 C   0  0  0  0  0  0  0  0  0  0  0  0
    4.5479    1.3381   21.2864 C   0  0  0  0  0  0  0  0  0  0  0  0
    4.9917    0.9422   19.9959 C   0  0  0  0  0  0  0  0  0  0  0  0
    5.0729    0.9906   22.1706 H   0  0  0  0  0  0  0  0  0  0  0  0
    3.1371    2.4644   22.4223 H   0  0  0  0  0  0  0  0  0  0  0  0
    1.9111    3.3052   20.4361 H   0  0  0  0  0  0  0  0  0  0  0  0
    2.6460    2.6494   18.1634 H   0  0  0  0  0  0  0  0  0  0  0  0
    4.1987    1.3999   16.6989 H   0  0  0  0  0  0  0  0  0  0  0  0
    7.2734   -0.8569   18.2450 H   0  0  0  0  0  0  0  0  0  0  0  0
    7.5902   -1.2395   20.5270 H   0  0  0  0  0  0  0  0  0  0  0  0
    6.2860   -0.9123   21.6670 H   0  0  0  0  0  0  0  0  0  0  0  0
    9.0465    1.6766   23.3767 C   0  0  0  0  0  0  0  0  0  0  0  0
   10.4538    1.0769   23.4669 C   0  0  0  0  0  0  0  0  0  0  0  0
   10.4942   -0.1436   24.1786 O   0  0  0  0  0  0  0  0  0  0  0  0
   10.8640    0.9352   22.4566 H   0  0  0  0  0  0  0  0  0  0  0  0
   11.1268    1.7683   23.9981 H   0  0  0  0  0  0  0  0  0  0  0  0
    8.7545    1.9998   24.3794 H   0  0  0  0  0  0  0  0  0  0  0  0
    9.0633    2.5594   22.7337 H   0  0  0  0  0  0  0  0  0  0  0  0
    6.6073   -0.5753   23.7194 H   0  0  0  0  0  0  0  0  0  0  0  0
    7.7550    0.1105   24.8317 H   0  0  0  0  0  0  0  0  0  0  0  0
    8.4668   -2.1275   24.6966 H   0  0  0  0  0  0  0  0  0  0  0  0
    8.1656   -2.2443   22.9721 H   0  0  0  0  0  0  0  0  0  0  0  0
   10.1181   -1.0532   22.3863 H   0  0  0  0  0  0  0  0  0  0  0  0
   10.5947   -3.3350   23.2193 H   0  0  0  0  0  0  0  0  0  0  0  0
   11.9464   -2.2260   23.5142 H   0  0  0  0  0  0  0  0  0  0  0  0
   10.8690   -2.6761   24.8496 H   0  0  0  0  0  0  0  0  0  0  0  0
  1  2  1  0
  2  3  1  0
  3  4  1  0
  4  5  1  0
  5  6  1  0
  6  7  2  0
  6  8  1  0
  8  9  1  0
  9 10  2  0
 10 11  1  0
 11 12  2  0
 12 13  1  0
 13 14  2  0
 14 15  1  0
 15 16  2  0
 16 17  1  0
 17 18  2  0
 17 19  1  0
 16 20  1  0
 15 21  1  0
 14 22  1  0
 12 23  1  0
 10 24  1  0
  8 25  1  0
  8 26  1  0
  5 27  1  0
 27 28  1  0
 28 29  1  0
 28 30  1  0
 28 31  1  0
 27 32  1  0
 27 33  1  0
  4 34  1  0
  4 35  1  0
  3 36  1  0
  3 37  1  0
  2 38  1  6
  1 39  1  0
  1 40  1  0
  1 41  1  0
 29  2  1  0
 18  9  1  0
 18 13  1  0
M  END
>  <cnnaffinities>  (49) 
[5.44983, 5.03742]

>  <score>  (49) 
5.44983

>  <index>  (49) 
48

>  <Smiles>  (49) 
C([C@]1(C(C(N(C(=O)C(c2c(nc(c3c(c(c(c(c23)[H])[H])[H])[H])[H])[H])([H])[H])C(C(O1)([H])[H])([H])[H])([H])[H])([H])[H])[H])([H])([H])[H]

>  <h>  (49) 
<NA>

>  <Training>  (49) 
True

>  <Success>  (49) 
True

>  <enamine_searched>  (49) 
False

>  <enamine_id>  (49) 
nan

$$$$

     RDKit          3D

 42 45  0  0  0  0  0  0  0  0999 V2000
   10.4624   -3.7111   23.5821 C   0  0  0  0  0  0  0  0  0  0  0  0
    9.5157   -2.6180   23.5221 N   0  0  0  0  0  0  0  0  0  0  0  0
    8.8667   -2.2015   22.2943 C   0  0  0  0  0  0  0  0  0  0  0  0
    8.8399   -0.6610   22.2648 C   0  0  1  0  0  0  0  0  0  0  0  0
    8.1302   -0.0832   21.0543 C   0  0  0  0  0  0  0  0  0  0  0  0
    8.6193    0.8054   20.3796 O   0  0  0  0  0  0  0  0  0  0  0  0
    6.8652   -0.5637   20.7992 N   0  0  0  0  0  0  0  0  0  0  0  0
    6.0945    0.0009   19.7515 C   0  0  0  0  0  0  0  0  0  0  0  0
    6.4538   -0.2412   18.4540 C   0  0  0  0  0  0  0  0  0  0  0  0
    5.7891    0.2268   17.3695 N   0  0  0  0  0  0  0  0  0  0  0  0
    4.7538    0.9984   17.5926 C   0  0  0  0  0  0  0  0  0  0  0  0
    4.2989    1.3703   18.8889 C   0  0  0  0  0  0  0  0  0  0  0  0
    3.2011    2.2475   19.0706 C   0  0  0  0  0  0  0  0  0  0  0  0
    2.8200    2.6238   20.3259 C   0  0  0  0  0  0  0  0  0  0  0  0
    3.5304    2.1635   21.4570 C   0  0  0  0  0  0  0  0  0  0  0  0
    4.6027    1.3165   21.3135 C   0  0  0  0  0  0  0  0  0  0  0  0
    4.9927    0.8767   20.0179 C   0  0  0  0  0  0  0  0  0  0  0  0
    5.1641    1.0052   22.1927 H   0  0  0  0  0  0  0  0  0  0  0  0
    3.2270    2.4958   22.4443 H   0  0  0  0  0  0  0  0  0  0  0  0
    1.9830    3.3011   20.4621 H   0  0  0  0  0  0  0  0  0  0  0  0
    2.6964    2.6285   18.1879 H   0  0  0  0  0  0  0  0  0  0  0  0
    4.2279    1.3807   16.7180 H   0  0  0  0  0  0  0  0  0  0  0  0
    7.3367   -0.8431   18.2530 H   0  0  0  0  0  0  0  0  0  0  0  0
    6.3915   -1.1182   21.4968 H   0  0  0  0  0  0  0  0  0  0  0  0
    8.2129   -0.1231   23.5416 C   0  0  0  0  0  0  0  0  0  0  0  0
    7.6118    1.1410   23.6103 C   0  0  0  0  0  0  0  0  0  0  0  0
    6.9195    1.5107   24.7570 C   0  0  0  0  0  0  0  0  0  0  0  0
    6.1336    3.0702   24.8085 Cl  0  0  0  0  0  0  0  0  0  0  0  0
    6.8072    0.6500   25.8505 C   0  0  0  0  0  0  0  0  0  0  0  0
    7.4772   -0.5622   25.8064 C   0  0  0  0  0  0  0  0  0  0  0  0
    8.2125   -0.9270   24.6783 C   0  0  0  0  0  0  0  0  0  0  0  0
    9.0405   -2.1720   24.7230 C   0  0  0  0  0  0  0  0  0  0  0  0
    9.2978   -2.7518   25.7680 O   0  0  0  0  0  0  0  0  0  0  0  0
    7.4445   -1.2432   26.6519 H   0  0  0  0  0  0  0  0  0  0  0  0
    6.2036    0.9221   26.7119 H   0  0  0  0  0  0  0  0  0  0  0  0
    7.6352    1.8213   22.7632 H   0  0  0  0  0  0  0  0  0  0  0  0
    9.8641   -0.2820   22.1792 H   0  0  0  0  0  0  0  0  0  0  0  0
    7.8407   -2.5964   22.2227 H   0  0  0  0  0  0  0  0  0  0  0  0
    9.4002   -2.5976   21.4252 H   0  0  0  0  0  0  0  0  0  0  0  0
   11.3475   -3.4223   24.1525 H   0  0  0  0  0  0  0  0  0  0  0  0
   10.0263   -4.5676   24.1009 H   0  0  0  0  0  0  0  0  0  0  0  0
   10.7656   -3.9852   22.5736 H   0  0  0  0  0  0  0  0  0  0  0  0
  1  2  1  0
  2  3  1  0
  3  4  1  0
  4  5  1  0
  5  6  2  0
  5  7  1  0
  7  8  1  0
  8  9  2  0
  9 10  1  0
 10 11  2  0
 11 12  1  0
 12 13  2  0
 13 14  1  0
 14 15  2  0
 15 16  1  0
 16 17  2  0
 16 18  1  0
 15 19  1  0
 14 20  1  0
 13 21  1  0
 11 22  1  0
  9 23  1  0
  7 24  1  0
  4 25  1  0
 25 26  2  0
 26 27  1  0
 27 28  1  0
 27 29  2  0
 29 30  1  0
 30 31  2  0
 31 32  1  0
 32 33  2  0
 30 34  1  0
 29 35  1  0
 26 36  1  0
  4 37  1  6
  3 38  1  0
  3 39  1  0
  1 40  1  0
  1 41  1  0
  1 42  1  0
 32  2  1  0
 17  8  1  0
 31 25  1  0
 17 12  1  0
M  END
>  <cnnaffinities>  (50) 
[5.40531, 5.89382]

>  <score>  (50) 
5.40531

>  <index>  (50) 
49

>  <Smiles>  (50) 
C(N1C([C@@](C(=O)N(c2c(nc(c3c(c(c(c(c23)[H])[H])[H])[H])[H])[H])[H])(c2c(c(Cl)c(c(c2C1=O)[H])[H])[H])[H])([H])[H])([H])([H])[H]

>  <h>  (50) 
<NA>

>  <Training>  (50) 
True

>  <Success>  (50) 
True

>  <enamine_searched>  (50) 
False

>  <enamine_id>  (50) 
nan

$$$$

     RDKit          3D

 38 41  0  0  0  0  0  0  0  0999 V2000
    5.6399   -2.5173   20.9016 O   0  0  0  0  0  0  0  0  0  0  0  0
    6.1437   -1.6528   21.5940 C   0  0  0  0  0  0  0  0  0  0  0  0
    6.9113   -0.4912   20.9168 C   0  0  0  0  0  0  0  0  0  0  0  0
    6.1177    0.0930   19.7644 C   0  0  0  0  0  0  0  0  0  0  0  0
    6.4219   -0.2142   18.4622 C   0  0  0  0  0  0  0  0  0  0  0  0
    5.7561    0.2363   17.3626 N   0  0  0  0  0  0  0  0  0  0  0  0
    4.7356    1.0316   17.5745 C   0  0  0  0  0  0  0  0  0  0  0  0
    4.2867    1.4246   18.8670 C   0  0  0  0  0  0  0  0  0  0  0  0
    3.1636    2.2748   19.0434 C   0  0  0  0  0  0  0  0  0  0  0  0
    2.7487    2.6269   20.2996 C   0  0  0  0  0  0  0  0  0  0  0  0
    3.4405    2.1406   21.4316 C   0  0  0  0  0  0  0  0  0  0  0  0
    4.5320    1.3194   21.2868 C   0  0  0  0  0  0  0  0  0  0  0  0
    4.9905    0.9412   19.9957 C   0  0  0  0  0  0  0  0  0  0  0  0
    5.0504    0.9598   22.1709 H   0  0  0  0  0  0  0  0  0  0  0  0
    3.1065    2.4280   22.4234 H   0  0  0  0  0  0  0  0  0  0  0  0
    1.8916    3.2808   20.4360 H   0  0  0  0  0  0  0  0  0  0  0  0
    2.6426    2.6451   18.1632 H   0  0  0  0  0  0  0  0  0  0  0  0
    4.1986    1.4002   16.6989 H   0  0  0  0  0  0  0  0  0  0  0  0
    7.2664   -0.8675   18.2460 H   0  0  0  0  0  0  0  0  0  0  0  0
    7.8445   -0.9081   20.5181 H   0  0  0  0  0  0  0  0  0  0  0  0
    7.1887    0.3029   21.6211 H   0  0  0  0  0  0  0  0  0  0  0  0
    6.0051   -1.6581   22.9712 N   0  0  0  0  0  0  0  0  0  0  0  0
    4.7760   -2.1821   23.5721 C   0  0  0  0  0  0  0  0  0  0  0  0
    5.0735   -3.1829   24.6834 C   0  0  0  0  0  0  0  0  0  0  0  0
    6.1265   -2.6302   25.5931 C   0  0  0  0  0  0  0  0  0  0  0  0
    6.4272   -3.1790   27.2086 S   0  0  0  0  0  0  0  0  0  0  0  0
    7.7553   -2.0881   27.3739 C   0  0  0  0  0  0  0  0  0  0  0  0
    7.9446   -1.3462   26.2461 C   0  0  0  0  0  0  0  0  0  0  0  0
    6.9998   -1.6577   25.2225 C   0  0  0  0  0  0  0  0  0  0  0  0
    6.9450   -1.0040   23.8655 C   0  0  0  0  0  0  0  0  0  0  0  0
    6.7224    0.0675   23.9991 H   0  0  0  0  0  0  0  0  0  0  0  0
    7.9489   -1.0428   23.4324 H   0  0  0  0  0  0  0  0  0  0  0  0
    8.7365   -0.6136   26.1397 H   0  0  0  0  0  0  0  0  0  0  0  0
    8.3259   -2.0614   28.2943 H   0  0  0  0  0  0  0  0  0  0  0  0
    4.1595   -3.4306   25.2331 H   0  0  0  0  0  0  0  0  0  0  0  0
    5.4311   -4.1210   24.2433 H   0  0  0  0  0  0  0  0  0  0  0  0
    4.1803   -1.3544   23.9845 H   0  0  0  0  0  0  0  0  0  0  0  0
    4.1809   -2.6469   22.7849 H   0  0  0  0  0  0  0  0  0  0  0  0
  1  2  2  0
  2  3  1  0
  3  4  1  0
  4  5  2  0
  5  6  1  0
  6  7  2  0
  7  8  1  0
  8  9  2  0
  9 10  1  0
 10 11  2  0
 11 12  1  0
 12 13  2  0
 12 14  1  0
 11 15  1  0
 10 16  1  0
  9 17  1  0
  7 18  1  0
  5 19  1  0
  3 20  1  0
  3 21  1  0
  2 22  1  0
 22 23  1  0
 23 24  1  0
 24 25  1  0
 25 26  1  0
 26 27  1  0
 27 28  2  0
 28 29  1  0
 29 30  1  0
 30 31  1  0
 30 32  1  0
 28 33  1  0
 27 34  1  0
 24 35  1  0
 24 36  1  0
 23 37  1  0
 23 38  1  0
 13  4  1  0
 30 22  1  0
 13  8  1  0
 29 25  2  0
M  END
>  <cnnaffinities>  (51) 
[5.27213, 5.22891, 5.21876]

>  <score>  (51) 
5.27213

>  <index>  (51) 
50

>  <Smiles>  (51) 
O=C(C(c1c(nc(c2c(c(c(c(c12)[H])[H])[H])[H])[H])[H])([H])[H])N1C(C(c2sc(c(c2C1([H])[H])[H])[H])([H])[H])([H])[H]

>  <h>  (51) 
<NA>

>  <Training>  (51) 
True

>  <Success>  (51) 
True

>  <enamine_searched>  (51) 
False

>  <enamine_id>  (51) 
nan

$$$$

     RDKit          3D

 67 73  0  0  0  0  0  0  0  0999 V2000
    7.1632    1.9394   30.0549 C   0  0  0  0  0  0  0  0  0  0  0  0
    6.6219    1.4029   28.7756 C   0  0  0  0  0  0  0  0  0  0  0  0
    5.6445    1.8399   28.0546 N   0  0  0  0  0  0  0  0  0  0  0  0
    5.5295    0.9696   26.9742 N   0  0  0  0  0  0  0  0  0  0  0  0
    6.4441    0.0757   27.1210 C   0  0  0  0  0  0  0  0  0  0  0  0
    6.7111   -1.2221   26.3694 C   0  0  0  0  0  0  0  0  0  0  0  0
    6.8723   -1.3403   24.9861 N   0  0  0  0  0  0  0  0  0  0  0  0
    7.1871   -0.2380   24.1731 C   0  0  0  0  0  0  0  0  0  0  0  0
    8.2349   -0.5299   22.9805 C   0  0  2  0  0  0  0  0  0  0  0  0
    7.7596    0.3923   21.8069 C   0  0  0  0  0  0  0  0  0  0  0  0
    7.9524    1.5818   21.6733 O   0  0  0  0  0  0  0  0  0  0  0  0
    6.9876   -0.3694   20.9461 N   0  0  0  0  0  0  0  0  0  0  0  0
    6.2241    0.1530   19.8717 C   0  0  0  0  0  0  0  0  0  0  0  0
    6.5300   -0.2236   18.5875 C   0  0  0  0  0  0  0  0  0  0  0  0
    5.8697    0.1867   17.4774 N   0  0  0  0  0  0  0  0  0  0  0  0
    4.8443    0.9851   17.6494 C   0  0  0  0  0  0  0  0  0  0  0  0
    4.3805    1.4161   18.9246 C   0  0  0  0  0  0  0  0  0  0  0  0
    3.2362    2.2499   19.0508 C   0  0  0  0  0  0  0  0  0  0  0  0
    2.7643    2.5989   20.2855 C   0  0  0  0  0  0  0  0  0  0  0  0
    3.4182    2.1337   21.4476 C   0  0  0  0  0  0  0  0  0  0  0  0
    4.5406    1.3488   21.3509 C   0  0  0  0  0  0  0  0  0  0  0  0
    5.0662    0.9766   20.0814 C   0  0  0  0  0  0  0  0  0  0  0  0
    5.0253    1.0121   22.2592 H   0  0  0  0  0  0  0  0  0  0  0  0
    3.0300    2.4004   22.4257 H   0  0  0  0  0  0  0  0  0  0  0  0
    1.8857    3.2318   20.3804 H   0  0  0  0  0  0  0  0  0  0  0  0
    2.7464    2.5982   18.1439 H   0  0  0  0  0  0  0  0  0  0  0  0
    4.3107    1.3162   16.7563 H   0  0  0  0  0  0  0  0  0  0  0  0
    7.3721   -0.8915   18.4147 H   0  0  0  0  0  0  0  0  0  0  0  0
    6.8999   -1.7653   21.3243 C   0  0  0  0  0  0  0  0  0  0  0  0
    8.0719   -1.9264   22.2921 C   0  0  2  0  0  0  0  0  0  0  0  0
    7.9534   -3.1249   23.2327 C   0  0  0  0  0  0  0  0  0  0  0  0
    8.0340   -4.4106   22.5791 N   0  0  0  0  0  0  0  0  0  0  0  0
    6.9634   -5.0582   22.0539 C   0  0  0  0  0  0  0  0  0  0  0  0
    5.6350   -4.7825   22.4368 C   0  0  0  0  0  0  0  0  0  0  0  0
    4.6582   -5.5535   21.8473 C   0  0  0  0  0  0  0  0  0  0  0  0
    4.9277   -6.5029   20.9447 N   0  0  0  0  0  0  0  0  0  0  0  0
    6.2049   -6.6559   20.6429 C   0  0  0  0  0  0  0  0  0  0  0  0
    7.2433   -6.0159   21.1580 N   0  0  0  0  0  0  0  0  0  0  0  0
    6.4295   -7.3874   19.8673 H   0  0  0  0  0  0  0  0  0  0  0  0
    3.6027   -5.4011   22.0861 H   0  0  0  0  0  0  0  0  0  0  0  0
    5.3836   -4.0088   23.1537 H   0  0  0  0  0  0  0  0  0  0  0  0
    8.9066   -4.6319   22.1185 H   0  0  0  0  0  0  0  0  0  0  0  0
    8.7492   -3.0736   23.9846 H   0  0  0  0  0  0  0  0  0  0  0  0
    7.0119   -3.0487   23.7571 H   0  0  0  0  0  0  0  0  0  0  0  0
    8.9882   -2.0493   21.6962 H   0  0  0  0  0  0  0  0  0  0  0  0
    6.9657   -2.3988   20.4393 H   0  0  0  0  0  0  0  0  0  0  0  0
    5.9390   -1.9852   21.8146 H   0  0  0  0  0  0  0  0  0  0  0  0
    9.7207   -0.2775   23.2980 C   0  0  0  0  0  0  0  0  0  0  0  0
   10.6180   -0.1218   22.2204 C   0  0  0  0  0  0  0  0  0  0  0  0
   11.9361    0.2370   22.4679 C   0  0  0  0  0  0  0  0  0  0  0  0
   13.1973    0.2277   21.3071 Cl  0  0  0  0  0  0  0  0  0  0  0  0
   12.3418    0.5951   23.7385 C   0  0  0  0  0  0  0  0  0  0  0  0
   11.4923    0.3492   24.7820 C   0  0  0  0  0  0  0  0  0  0  0  0
   10.2443   -0.2613   24.6085 C   0  0  0  0  0  0  0  0  0  0  0  0
    9.3079   -0.9115   25.5795 C   0  0  0  0  0  0  0  0  0  0  0  0
    9.5495   -0.8243   25.6485 O   0  0  0  0  0  0  0  0  0  0  0  0
   11.9291    0.5775   25.7379 H   0  0  0  0  0  0  0  0  0  0  0  0
   13.3485    0.9628   23.9203 H   0  0  0  0  0  0  0  0  0  0  0  0
   10.2875   -0.2655   21.1905 H   0  0  0  0  0  0  0  0  0  0  0  0
    6.2744    0.1463   23.6859 H   0  0  0  0  0  0  0  0  0  0  0  0
    7.6023    0.6314   24.7175 H   0  0  0  0  0  0  0  0  0  0  0  0
    7.5285   -1.7008   26.9467 H   0  0  0  0  0  0  0  0  0  0  0  0
    5.8530   -1.8668   26.6674 H   0  0  0  0  0  0  0  0  0  0  0  0
    7.1815    0.2856   28.2480 O   0  0  0  0  0  0  0  0  0  0  0  0
    6.3546    2.3944   30.6284 H   0  0  0  0  0  0  0  0  0  0  0  0
    7.9191    2.7114   29.8763 H   0  0  0  0  0  0  0  0  0  0  0  0
    7.6231    1.1427   30.6426 H   0  0  0  0  0  0  0  0  0  0  0  0
  1  2  1  0
  2  3  2  0
  3  4  1  0
  4  5  2  0
  5  6  1  0
  6  7  1  0
  7  8  1  0
  9  8  1  1
  9 10  1  0
 10 11  2  0
 10 12  1  0
 12 13  1  0
 13 14  2  0
 14 15  1  0
 15 16  2  0
 16 17  1  0
 17 18  2  0
 18 19  1  0
 19 20  2  0
 20 21  1  0
 21 22  2  0
 21 23  1  0
 20 24  1  0
 19 25  1  0
 18 26  1  0
 16 27  1  0
 14 28  1  0
 12 29  1  0
 29 30  1  0
 30 31  1  0
 31 32  1  0
 32 33  1  0
 33 34  2  0
 34 35  1  0
 35 36  2  0
 36 37  1  0
 37 38  2  0
 37 39  1  0
 35 40  1  0
 34 41  1  0
 32 42  1  0
 31 43  1  0
 31 44  1  0
 30 45  1  6
 29 46  1  0
 29 47  1  0
  9 48  1  0
 48 49  2  0
 49 50  1  0
 50 51  1  0
 50 52  2  0
 52 53  1  0
 53 54  2  0
 54 55  1  0
 55 56  2  0
 53 57  1  0
 52 58  1  0
 49 59  1  0
  8 60  1  0
  8 61  1  0
  6 62  1  0
  6 63  1  0
  5 64  1  0
  1 65  1  0
  1 66  1  0
  1 67  1  0
 64  2  1  0
 55  7  1  0
 30  9  1  0
 38 33  1  0
 54 48  1  0
 22 13  1  0
 22 17  1  0
M  END
>  <cnnaffinities>  (52) 
[6.43268]

>  <score>  (52) 
6.43268

>  <index>  (52) 
51

>  <Smiles>  (52) 
C(c1nnc(C(N2C([C@@]3(C(=O)N(c4c(nc(c5c(c(c(c(c45)[H])[H])[H])[H])[H])[H])C([C@@]3(C(N(c3c(c(nc(n3)[H])[H])[H])[H])([H])[H])[H])([H])[H])c3c(c(Cl)c(c(c3C2=O)[H])[H])[H])([H])[H])([H])[H])o1)([H])([H])[H]

>  <h>  (52) 
<NA>

>  <Training>  (52) 
True

>  <Success>  (52) 
True

>  <enamine_searched>  (52) 
False

>  <enamine_id>  (52) 
nan

$$$$

     RDKit          3D

 66 71  0  0  0  0  0  0  0  0999 V2000
    6.5211    4.3757   21.2439 C   0  0  0  0  0  0  0  0  0  0  0  0
    7.4859    3.9421   22.2335 N   0  0  0  0  0  0  0  0  0  0  0  0
    7.0389    3.2785   23.3318 C   0  0  0  0  0  0  0  0  0  0  0  0
    5.8572    3.0124   23.5066 O   0  0  0  0  0  0  0  0  0  0  0  0
    8.0957    2.8736   24.3520 C   0  0  0  0  0  0  0  0  0  0  0  0
    8.7534    1.6325   23.9943 N   0  0  0  0  0  0  0  0  0  0  0  0
    7.9852    0.3990   23.8789 C   0  0  0  0  0  0  0  0  0  0  0  0
    8.3779   -0.4004   22.6127 C   0  0  2  0  0  0  0  0  0  0  0  0
    7.9013    0.2830   21.3120 C   0  0  0  0  0  0  0  0  0  0  0  0
    8.3670    1.2664   20.7713 O   0  0  0  0  0  0  0  0  0  0  0  0
    6.8376   -0.4384   20.8174 N   0  0  0  0  0  0  0  0  0  0  0  0
    6.0892    0.0771   19.7388 C   0  0  0  0  0  0  0  0  0  0  0  0
    6.4518   -0.2106   18.4493 C   0  0  0  0  0  0  0  0  0  0  0  0
    5.7842    0.2360   17.3604 N   0  0  0  0  0  0  0  0  0  0  0  0
    4.7491    1.0158   17.5702 C   0  0  0  0  0  0  0  0  0  0  0  0
    4.2853    1.4101   18.8585 C   0  0  0  0  0  0  0  0  0  0  0  0
    3.1771    2.2773   19.0393 C   0  0  0  0  0  0  0  0  0  0  0  0
    2.7766    2.6399   20.2971 C   0  0  0  0  0  0  0  0  0  0  0  0
    3.4682    2.1645   21.4332 C   0  0  0  0  0  0  0  0  0  0  0  0
    4.5463    1.3260   21.2852 C   0  0  0  0  0  0  0  0  0  0  0  0
    4.9744    0.9244   19.9898 C   0  0  0  0  0  0  0  0  0  0  0  0
    5.1110    1.0145   22.1593 H   0  0  0  0  0  0  0  0  0  0  0  0
    3.1724    2.4870   22.4264 H   0  0  0  0  0  0  0  0  0  0  0  0
    1.9243    3.3001   20.4279 H   0  0  0  0  0  0  0  0  0  0  0  0
    2.6698    2.6521   18.1558 H   0  0  0  0  0  0  0  0  0  0  0  0
    4.2220    1.3804   16.6896 H   0  0  0  0  0  0  0  0  0  0  0  0
    7.3217   -0.8372   18.2652 H   0  0  0  0  0  0  0  0  0  0  0  0
    6.4415   -1.5733   21.6250 C   0  0  0  0  0  0  0  0  0  0  0  0
    7.6791   -1.7820   22.4953 C   0  0  2  0  0  0  0  0  0  0  0  0
    7.4320   -2.5640   23.7823 C   0  0  0  0  0  0  0  0  0  0  0  0
    6.9821   -3.9081   23.4825 N   0  0  0  0  0  0  0  0  0  0  0  0
    5.6710   -4.2374   23.4734 C   0  0  0  0  0  0  0  0  0  0  0  0
    5.2077   -5.4467   22.9098 C   0  0  0  0  0  0  0  0  0  0  0  0
    3.8834   -5.7389   23.1346 C   0  0  0  0  0  0  0  0  0  0  0  0
    3.0488   -4.9108   23.7779 N   0  0  0  0  0  0  0  0  0  0  0  0
    3.5777   -3.7620   24.1711 C   0  0  0  0  0  0  0  0  0  0  0  0
    4.8347   -3.3586   24.0395 N   0  0  0  0  0  0  0  0  0  0  0  0
    2.9093   -3.0563   24.6611 H   0  0  0  0  0  0  0  0  0  0  0  0
    3.4641   -6.6882   22.8000 H   0  0  0  0  0  0  0  0  0  0  0  0
    5.8689   -6.1141   22.3617 H   0  0  0  0  0  0  0  0  0  0  0  0
    7.6539   -4.5773   23.1517 H   0  0  0  0  0  0  0  0  0  0  0  0
    6.6492   -2.0836   24.3761 H   0  0  0  0  0  0  0  0  0  0  0  0
    8.3552   -2.6117   24.3724 H   0  0  0  0  0  0  0  0  0  0  0  0
    8.3435   -2.4012   21.8911 H   0  0  0  0  0  0  0  0  0  0  0  0
    5.5443   -1.3767   22.2288 H   0  0  0  0  0  0  0  0  0  0  0  0
    6.2227   -2.4496   21.0062 H   0  0  0  0  0  0  0  0  0  0  0  0
    9.8757   -0.4739   22.5731 C   0  0  0  0  0  0  0  0  0  0  0  0
   10.4795   -1.4051   21.7361 C   0  0  0  0  0  0  0  0  0  0  0  0
   11.8452   -1.5276   21.6784 C   0  0  0  0  0  0  0  0  0  0  0  0
   12.3734   -2.8357   20.6601 Cl  0  0  0  0  0  0  0  0  0  0  0  0
   12.6709   -0.6533   22.3927 C   0  0  0  0  0  0  0  0  0  0  0  0
   12.0731    0.3328   23.1418 C   0  0  0  0  0  0  0  0  0  0  0  0
   10.6940    0.4430   23.2294 C   0  0  0  0  0  0  0  0  0  0  0  0
   10.1210    1.6109   23.9592 C   0  0  0  0  0  0  0  0  0  0  0  0
   10.8220    2.4822   24.4490 O   0  0  0  0  0  0  0  0  0  0  0  0
   12.6848    1.0552   23.6604 H   0  0  0  0  0  0  0  0  0  0  0  0
   13.7504   -0.6567   22.3897 H   0  0  0  0  0  0  0  0  0  0  0  0
    9.9205   -2.0450   21.0677 H   0  0  0  0  0  0  0  0  0  0  0  0
    8.1566   -0.2222   24.7732 H   0  0  0  0  0  0  0  0  0  0  0  0
    6.9270    0.6566   23.8381 H   0  0  0  0  0  0  0  0  0  0  0  0
    7.6044    2.7749   25.3262 H   0  0  0  0  0  0  0  0  0  0  0  0
    8.8779    3.6353   24.4446 H   0  0  0  0  0  0  0  0  0  0  0  0
    8.4399    3.8113   21.9318 H   0  0  0  0  0  0  0  0  0  0  0  0
    7.0335    4.9576   20.4750 H   0  0  0  0  0  0  0  0  0  0  0  0
    5.7761    5.0158   21.7220 H   0  0  0  0  0  0  0  0  0  0  0  0
    6.0069    3.5073   20.8100 H   0  0  0  0  0  0  0  0  0  0  0  0
  1  2  1  0
  2  3  1  0
  3  4  2  0
  3  5  1  0
  5  6  1  0
  6  7  1  0
  8  7  1  1
  8  9  1  0
  9 10  2  0
  9 11  1  0
 11 12  1  0
 12 13  2  0
 13 14  1  0
 14 15  2  0
 15 16  1  0
 16 17  2  0
 17 18  1  0
 18 19  2  0
 19 20  1  0
 20 21  2  0
 20 22  1  0
 19 23  1  0
 18 24  1  0
 17 25  1  0
 15 26  1  0
 13 27  1  0
 11 28  1  0
 28 29  1  0
 29 30  1  0
 30 31  1  0
 31 32  1  0
 32 33  2  0
 33 34  1  0
 34 35  2  0
 35 36  1  0
 36 37  2  0
 36 38  1  0
 34 39  1  0
 33 40  1  0
 31 41  1  0
 30 42  1  0
 30 43  1  0
 29 44  1  6
 28 45  1  0
 28 46  1  0
  8 47  1  0
 47 48  2  0
 48 49  1  0
 49 50  1  0
 49 51  2  0
 51 52  1  0
 52 53  2  0
 53 54  1  0
 54 55  2  0
 52 56  1  0
 51 57  1  0
 48 58  1  0
  7 59  1  0
  7 60  1  0
  5 61  1  0
  5 62  1  0
  2 63  1  0
  1 64  1  0
  1 65  1  0
  1 66  1  0
 54  6  1  0
 29  8  1  0
 37 32  1  0
 53 47  1  0
 21 12  1  0
 21 16  1  0
M  END
>  <cnnaffinities>  (53) 
[6.34446]

>  <score>  (53) 
6.34446

>  <index>  (53) 
52

>  <Smiles>  (53) 
C(N(C(=O)C(N1C([C@@]2(C(=O)N(c3c(nc(c4c(c(c(c(c34)[H])[H])[H])[H])[H])[H])C([C@@]2(C(N(c2c(c(nc(n2)[H])[H])[H])[H])([H])[H])[H])([H])[H])c2c(c(Cl)c(c(c2C1=O)[H])[H])[H])([H])[H])([H])[H])[H])([H])([H])[H]

>  <h>  (53) 
<NA>

>  <Training>  (53) 
True

>  <Success>  (53) 
True

>  <enamine_searched>  (53) 
False

>  <enamine_id>  (53) 
nan

$$$$

     RDKit          3D

 77 84  0  0  0  0  0  0  0  0999 V2000
    9.3649   -1.6739   26.2182 O   0  0  0  0  0  0  0  0  0  0  0  0
    9.0665   -0.8868   25.3322 C   0  0  0  0  0  0  0  0  0  0  0  0
   10.0334   -0.3785   24.3201 C   0  0  0  0  0  0  0  0  0  0  0  0
   11.2799    0.0469   24.7313 C   0  0  0  0  0  0  0  0  0  0  0  0
   12.2820    0.2923   23.8226 C   0  0  0  0  0  0  0  0  0  0  0  0
   11.9770    0.1037   22.4774 C   0  0  0  0  0  0  0  0  0  0  0  0
   13.3145    0.2166   21.3873 Cl  0  0  0  0  0  0  0  0  0  0  0  0
   10.6803   -0.1579   22.0427 C   0  0  0  0  0  0  0  0  0  0  0  0
    9.6542   -0.3216   22.9821 C   0  0  0  0  0  0  0  0  0  0  0  0
    8.1793   -0.4615   22.6461 C   0  0  1  0  0  0  0  0  0  0  0  0
    7.3768    0.1251   23.8647 C   0  0  0  0  0  0  0  0  0  0  0  0
    7.8125   -0.3894   25.1577 N   0  0  0  0  0  0  0  0  0  0  0  0
    6.8565   -0.6432   26.2152 C   0  0  0  0  0  0  0  0  0  0  0  0
    6.7199    0.5570   27.1643 C   0  0  0  0  0  0  0  0  0  0  0  0
    5.4262    0.5237   27.9320 N   0  0  0  0  0  4  0  0  0  0  0  0
    4.9739   -0.8029   28.5839 C   0  0  0  0  0  0  0  0  0  0  0  0
    3.7399   -0.8628   27.6641 C   0  0  0  0  0  0  0  0  0  0  0  0
    3.4959   -2.0684   26.7726 C   0  0  0  0  0  0  0  0  0  0  0  0
    2.1609   -2.2156   27.2654 O   0  0  0  0  0  0  0  0  0  0  0  0
    2.3246   -1.1120   28.1651 C   0  0  0  0  0  0  0  0  0  0  0  0
    2.2472   -1.4094   29.2191 H   0  0  0  0  0  0  0  0  0  0  0  0
    1.6180   -0.2978   27.9568 H   0  0  0  0  0  0  0  0  0  0  0  0
    3.5263   -1.8678   25.6926 H   0  0  0  0  0  0  0  0  0  0  0  0
    4.1253   -2.9401   27.0099 H   0  0  0  0  0  0  0  0  0  0  0  0
    4.1450    0.5080   27.0922 C   0  0  0  0  0  0  0  0  0  0  0  0
    3.5097    1.3391   27.3796 H   0  0  0  0  0  0  0  0  0  0  0  0
    4.3679    0.5549   26.0299 H   0  0  0  0  0  0  0  0  0  0  0  0
    4.7732   -0.6423   29.6378 H   0  0  0  0  0  0  0  0  0  0  0  0
    5.7180   -1.5842   28.4575 H   0  0  0  0  0  0  0  0  0  0  0  0
    5.4492    1.2935   28.6111 H   0  0  0  0  0  0  0  0  0  0  0  0
    7.5287    0.5697   27.8969 H   0  0  0  0  0  0  0  0  0  0  0  0
    6.7378    1.4964   26.6050 H   0  0  0  0  0  0  0  0  0  0  0  0
    5.8998   -0.9194   25.7478 H   0  0  0  0  0  0  0  0  0  0  0  0
    7.2259   -1.5197   26.7540 H   0  0  0  0  0  0  0  0  0  0  0  0
    6.3066   -0.1087   23.7578 H   0  0  0  0  0  0  0  0  0  0  0  0
    7.4999    1.2175   23.8420 H   0  0  0  0  0  0  0  0  0  0  0  0
    7.7364    0.3014   21.3798 C   0  0  0  0  0  0  0  0  0  0  0  0
    8.0496    1.4217   21.0280 O   0  0  0  0  0  0  0  0  0  0  0  0
    6.8240   -0.4796   20.6920 N   0  0  0  0  0  0  0  0  0  0  0  0
    6.0443    0.0560   19.6302 C   0  0  0  0  0  0  0  0  0  0  0  0
    6.3408   -0.2482   18.3262 C   0  0  0  0  0  0  0  0  0  0  0  0
    5.6724    0.2416   17.2489 N   0  0  0  0  0  0  0  0  0  0  0  0
    4.6748    1.0594   17.4830 C   0  0  0  0  0  0  0  0  0  0  0  0
    4.2386    1.4351   18.7850 C   0  0  0  0  0  0  0  0  0  0  0  0
    3.1375    2.3087   18.9839 C   0  0  0  0  0  0  0  0  0  0  0  0
    2.7382    2.6431   20.2476 C   0  0  0  0  0  0  0  0  0  0  0  0
    3.4212    2.1275   21.3702 C   0  0  0  0  0  0  0  0  0  0  0  0
    4.4921    1.2870   21.2034 C   0  0  0  0  0  0  0  0  0  0  0  0
    4.9337    0.9202   19.9004 C   0  0  0  0  0  0  0  0  0  0  0  0
    5.0127    0.8973   22.0720 H   0  0  0  0  0  0  0  0  0  0  0  0
    3.1029    2.4110   22.3682 H   0  0  0  0  0  0  0  0  0  0  0  0
    1.8995    3.3167   20.3963 H   0  0  0  0  0  0  0  0  0  0  0  0
    2.6397    2.7164   18.1085 H   0  0  0  0  0  0  0  0  0  0  0  0
    4.1568    1.4727   16.6175 H   0  0  0  0  0  0  0  0  0  0  0  0
    7.1762   -0.9101   18.1003 H   0  0  0  0  0  0  0  0  0  0  0  0
    6.5966   -1.7846   21.2793 C   0  0  0  0  0  0  0  0  0  0  0  0
    7.7828   -1.9205   22.2414 C   0  0  2  0  0  0  0  0  0  0  0  0
    7.4946   -2.8805   23.3977 C   0  0  0  0  0  0  0  0  0  0  0  0
    7.2116   -4.2301   22.9584 N   0  0  0  0  0  0  0  0  0  0  0  0
    5.9537   -4.7365   22.8600 C   0  0  0  0  0  0  0  0  0  0  0  0
    5.8491   -5.9234   22.2159 N   0  0  0  0  0  0  0  0  0  0  0  0
    4.6399   -6.4593   22.1840 C   0  0  0  0  0  0  0  0  0  0  0  0
    3.5232   -5.8721   22.7794 C   0  0  0  0  0  0  0  0  0  0  0  0
    3.7490   -4.6553   23.3951 C   0  0  0  0  0  0  0  0  0  0  0  0
    4.9401   -4.0498   23.4120 N   0  0  0  0  0  0  0  0  0  0  0  0
    2.9514   -4.1246   23.9210 H   0  0  0  0  0  0  0  0  0  0  0  0
    2.5424   -6.3393   22.7673 H   0  0  0  0  0  0  0  0  0  0  0  0
    4.5563   -7.4133   21.6574 H   0  0  0  0  0  0  0  0  0  0  0  0
    7.9291   -4.7528   22.4802 H   0  0  0  0  0  0  0  0  0  0  0  0
    8.3569   -2.9012   24.0728 H   0  0  0  0  0  0  0  0  0  0  0  0
    6.6186   -2.5400   23.9529 H   0  0  0  0  0  0  0  0  0  0  0  0
    8.6481   -2.3008   21.6735 H   0  0  0  0  0  0  0  0  0  0  0  0
    6.5840   -2.5628   20.5084 H   0  0  0  0  0  0  0  0  0  0  0  0
    5.6349   -1.8313   21.8217 H   0  0  0  0  0  0  0  0  0  0  0  0
   10.4550   -0.2082   20.9864 H   0  0  0  0  0  0  0  0  0  0  0  0
   13.2815    0.5998   24.1212 H   0  0  0  0  0  0  0  0  0  0  0  0
   11.3891    0.1722   25.7898 H   0  0  0  0  0  0  0  0  0  0  0  0
  1  2  2  0
  2  3  1  0
  3  4  2  0
  4  5  1  0
  5  6  2  0
  6  7  1  0
  6  8  1  0
  8  9  2  0
  9 10  1  0
 10 11  1  1
 11 12  1  0
 12 13  1  0
 13 14  1  0
 14 15  1  0
 15 16  1  0
 16 17  1  0
 17 18  1  0
 18 19  1  0
 19 20  1  0
 20 21  1  0
 20 22  1  0
 18 23  1  0
 18 24  1  0
 17 25  1  0
 25 26  1  0
 25 27  1  0
 16 28  1  0
 16 29  1  0
 15 30  1  0
 14 31  1  0
 14 32  1  0
 13 33  1  0
 13 34  1  0
 11 35  1  0
 11 36  1  0
 10 37  1  0
 37 38  2  0
 37 39  1  0
 39 40  1  0
 40 41  2  0
 41 42  1  0
 42 43  2  0
 43 44  1  0
 44 45  2  0
 45 46  1  0
 46 47  2  0
 47 48  1  0
 48 49  2  0
 48 50  1  0
 47 51  1  0
 46 52  1  0
 45 53  1  0
 43 54  1  0
 41 55  1  0
 39 56  1  0
 56 57  1  0
 57 58  1  0
 58 59  1  0
 59 60  1  0
 60 61  2  0
 61 62  1  0
 62 63  2  0
 63 64  1  0
 64 65  2  0
 64 66  1  0
 63 67  1  0
 62 68  1  0
 59 69  1  0
 58 70  1  0
 58 71  1  0
 57 72  1  6
 56 73  1  0
 56 74  1  0
  8 75  1  0
  5 76  1  0
  4 77  1  0
 12  2  1  0
 25 15  1  0
 49 40  1  0
 65 60  1  0
  9  3  1  0
 57 10  1  0
 20 17  1  0
 49 44  1  0
M  CHG  1  15   1
M  END
>  <cnnaffinities>  (54) 
[6.37063]

>  <score>  (54) 
6.37063

>  <index>  (54) 
53

>  <Smiles>  (54) 
O=C1c2c(c(c(Cl)c(c2[C@@]2(C(N1C(C([N+]1(C(C3(C(OC3([H])[H])([H])[H])C1([H])[H])([H])[H])[H])([H])[H])([H])[H])([H])[H])C(=O)N(c1c(nc(c3c(c(c(c(c13)[H])[H])[H])[H])[H])[H])C([C@@]2(C(N(c1nc(c(c(n1)[H])[H])[H])[H])([H])[H])[H])([H])[H])[H])[H])[H]

>  <h>  (54) 
<NA>

>  <Training>  (54) 
True

>  <Success>  (54) 
True

>  <enamine_searched>  (54) 
False

>  <enamine_id>  (54) 
nan

$$$$

     RDKit          3D

 66 71  0  0  0  0  0  0  0  0999 V2000
    6.9685    1.9939   28.6220 C   0  0  0  0  0  0  0  0  0  0  0  0
    7.0266    0.7847   27.8294 N   0  0  0  0  0  0  0  0  0  0  0  0
    6.1591    0.6357   26.7972 C   0  0  0  0  0  0  0  0  0  0  0  0
    5.3234    1.4772   26.5050 O   0  0  0  0  0  0  0  0  0  0  0  0
    6.2745   -0.6822   26.0227 C   0  0  0  0  0  0  0  0  0  0  0  0
    7.3129   -0.6500   25.0072 N   0  0  0  0  0  0  0  0  0  0  0  0
    7.0549   -0.0221   23.7203 C   0  0  0  0  0  0  0  0  0  0  0  0
    7.9697   -0.5820   22.5900 C   0  0  2  0  0  0  0  0  0  0  0  0
    7.6770    0.2498   21.3219 C   0  0  0  0  0  0  0  0  0  0  0  0
    8.0517    1.3785   21.0758 O   0  0  0  0  0  0  0  0  0  0  0  0
    6.8551   -0.4890   20.4893 N   0  0  0  0  0  0  0  0  0  0  0  0
    6.0698    0.1034   19.4639 C   0  0  0  0  0  0  0  0  0  0  0  0
    6.2987   -0.2453   18.1593 C   0  0  0  0  0  0  0  0  0  0  0  0
    5.6072    0.2394   17.0985 N   0  0  0  0  0  0  0  0  0  0  0  0
    4.6386    1.0871   17.3487 C   0  0  0  0  0  0  0  0  0  0  0  0
    4.2498    1.4882   18.6591 C   0  0  0  0  0  0  0  0  0  0  0  0
    3.1480    2.3586   18.8776 C   0  0  0  0  0  0  0  0  0  0  0  0
    2.7509    2.6726   20.1474 C   0  0  0  0  0  0  0  0  0  0  0  0
    3.4339    2.1240   21.2565 C   0  0  0  0  0  0  0  0  0  0  0  0
    4.5155    1.2993   21.0712 C   0  0  0  0  0  0  0  0  0  0  0  0
    4.9650    0.9690   19.7605 C   0  0  0  0  0  0  0  0  0  0  0  0
    5.0227    0.8824   21.9353 H   0  0  0  0  0  0  0  0  0  0  0  0
    3.1041    2.3606   22.2632 H   0  0  0  0  0  0  0  0  0  0  0  0
    1.9087    3.3395   20.3129 H   0  0  0  0  0  0  0  0  0  0  0  0
    2.6315    2.7653   18.0120 H   0  0  0  0  0  0  0  0  0  0  0  0
    4.0935    1.4832   16.4922 H   0  0  0  0  0  0  0  0  0  0  0  0
    7.0912   -0.9554   17.9312 H   0  0  0  0  0  0  0  0  0  0  0  0
    6.4648   -1.7551   21.0796 C   0  0  0  0  0  0  0  0  0  0  0  0
    7.5651   -2.0185   22.1074 C   0  0  2  0  0  0  0  0  0  0  0  0
    7.1001   -3.0142   23.1646 C   0  0  0  0  0  0  0  0  0  0  0  0
    8.2086   -3.4751   23.9733 N   0  0  0  0  0  0  0  0  0  0  0  0
    8.0423   -4.1256   25.1582 C   0  0  0  0  0  0  0  0  0  0  0  0
    9.1551   -4.6813   25.8461 C   0  0  0  0  0  0  0  0  0  0  0  0
    9.0238   -5.3430   26.9787 N   0  0  0  0  0  0  0  0  0  0  0  0
    7.7814   -5.4855   27.4627 C   0  0  0  0  0  0  0  0  0  0  0  0
    6.6947   -4.9631   26.7942 C   0  0  0  0  0  0  0  0  0  0  0  0
    6.8138   -4.2721   25.6510 N   0  0  0  0  0  0  0  0  0  0  0  0
    5.6867   -5.1092   27.1740 H   0  0  0  0  0  0  0  0  0  0  0  0
    7.6633   -6.0336   28.3931 H   0  0  0  0  0  0  0  0  0  0  0  0
   10.1625   -4.5903   25.4396 H   0  0  0  0  0  0  0  0  0  0  0  0
    9.1300   -3.1096   23.7833 H   0  0  0  0  0  0  0  0  0  0  0  0
    6.6061   -3.8699   22.6862 H   0  0  0  0  0  0  0  0  0  0  0  0
    6.3501   -2.5578   23.8162 H   0  0  0  0  0  0  0  0  0  0  0  0
    8.4376   -2.4449   21.5905 H   0  0  0  0  0  0  0  0  0  0  0  0
    6.3805   -2.5273   20.3110 H   0  0  0  0  0  0  0  0  0  0  0  0
    5.4890   -1.6688   21.5893 H   0  0  0  0  0  0  0  0  0  0  0  0
    9.3917   -0.4098   23.0816 C   0  0  0  0  0  0  0  0  0  0  0  0
   10.4668   -0.1677   22.2174 C   0  0  0  0  0  0  0  0  0  0  0  0
   11.6873    0.2199   22.7506 C   0  0  0  0  0  0  0  0  0  0  0  0
   13.0340    0.5114   21.6968 Cl  0  0  0  0  0  0  0  0  0  0  0  0
   11.8927    0.3542   24.1220 C   0  0  0  0  0  0  0  0  0  0  0  0
   10.8646   -0.0086   24.9679 C   0  0  0  0  0  0  0  0  0  0  0  0
    9.6418   -0.4093   24.4595 C   0  0  0  0  0  0  0  0  0  0  0  0
    8.5895   -0.7847   25.4409 C   0  0  0  0  0  0  0  0  0  0  0  0
    8.8471   -1.1313   26.5951 O   0  0  0  0  0  0  0  0  0  0  0  0
   10.9513   -0.0187   26.0406 H   0  0  0  0  0  0  0  0  0  0  0  0
   12.8460    0.7209   24.4846 H   0  0  0  0  0  0  0  0  0  0  0  0
   10.3247   -0.2431   21.1422 H   0  0  0  0  0  0  0  0  0  0  0  0
    5.9950   -0.1613   23.4788 H   0  0  0  0  0  0  0  0  0  0  0  0
    7.2628    1.0546   23.7858 H   0  0  0  0  0  0  0  0  0  0  0  0
    6.5086   -1.5111   26.6952 H   0  0  0  0  0  0  0  0  0  0  0  0
    5.3145   -0.8765   25.5409 H   0  0  0  0  0  0  0  0  0  0  0  0
    7.7997    0.1388   27.9244 H   0  0  0  0  0  0  0  0  0  0  0  0
    5.9554    2.1222   29.0111 H   0  0  0  0  0  0  0  0  0  0  0  0
    7.6590    1.9059   29.4614 H   0  0  0  0  0  0  0  0  0  0  0  0
    7.2239    2.8860   28.0374 H   0  0  0  0  0  0  0  0  0  0  0  0
  1  2  1  0
  2  3  1  0
  3  4  2  0
  3  5  1  0
  5  6  1  0
  6  7  1  0
  8  7  1  1
  8  9  1  0
  9 10  2  0
  9 11  1  0
 11 12  1  0
 12 13  2  0
 13 14  1  0
 14 15  2  0
 15 16  1  0
 16 17  2  0
 17 18  1  0
 18 19  2  0
 19 20  1  0
 20 21  2  0
 20 22  1  0
 19 23  1  0
 18 24  1  0
 17 25  1  0
 15 26  1  0
 13 27  1  0
 11 28  1  0
 28 29  1  0
 29 30  1  0
 30 31  1  0
 31 32  1  0
 32 33  2  0
 33 34  1  0
 34 35  2  0
 35 36  1  0
 36 37  2  0
 36 38  1  0
 35 39  1  0
 33 40  1  0
 31 41  1  0
 30 42  1  0
 30 43  1  0
 29 44  1  6
 28 45  1  0
 28 46  1  0
  8 47  1  0
 47 48  2  0
 48 49  1  0
 49 50  1  0
 49 51  2  0
 51 52  1  0
 52 53  2  0
 53 54  1  0
 54 55  2  0
 52 56  1  0
 51 57  1  0
 48 58  1  0
  7 59  1  0
  7 60  1  0
  5 61  1  0
  5 62  1  0
  2 63  1  0
  1 64  1  0
  1 65  1  0
  1 66  1  0
 54  6  1  0
 29  8  1  0
 37 32  1  0
 53 47  1  0
 21 12  1  0
 21 16  1  0
M  END
>  <cnnaffinities>  (55) 
[5.92906]

>  <score>  (55) 
5.92906

>  <index>  (55) 
54

>  <Smiles>  (55) 
C(N(C(=O)C(N1C([C@@]2(C(=O)N(c3c(nc(c4c(c(c(c(c34)[H])[H])[H])[H])[H])[H])C([C@@]2(C(N(c2c(nc(c(n2)[H])[H])[H])[H])([H])[H])[H])([H])[H])c2c(c(Cl)c(c(c2C1=O)[H])[H])[H])([H])[H])([H])[H])[H])([H])([H])[H]

>  <h>  (55) 
<NA>

>  <Training>  (55) 
True

>  <Success>  (55) 
True

>  <enamine_searched>  (55) 
False

>  <enamine_id>  (55) 
nan

$$$$

     RDKit          3D

 56 61  0  0  0  0  0  0  0  0999 V2000
   12.6312    2.2671   22.2894 C   0  0  0  0  0  0  0  0  0  0  0  0
   12.6476    0.8771   22.6856 N   0  0  0  0  0  0  0  0  0  0  0  0
   13.0180    0.3750   23.8813 C   0  0  0  0  0  0  0  0  0  0  0  0
   12.8266   -0.9844   23.8266 C   0  0  0  0  0  0  0  0  0  0  0  0
   12.3178   -1.2088   22.5295 C   0  0  0  0  0  0  0  0  0  0  0  0
   11.8876   -2.5039   21.9156 C   0  0  0  0  0  0  0  0  0  0  0  0
   10.5167   -2.8351   22.2720 N   0  0  0  0  0  0  0  0  0  0  0  0
    9.4251   -2.5669   21.3552 C   0  0  0  0  0  0  0  0  0  0  0  0
    8.2205   -1.9310   22.0884 C   0  0  1  0  0  0  0  0  0  0  0  0
    8.5350   -0.4777   22.5320 C   0  0  0  0  0  0  0  0  0  0  0  0
    7.9066    0.4389   21.4809 C   0  0  0  0  0  0  0  0  0  0  0  0
    6.9112   -0.4113   20.8472 N   0  0  0  0  0  0  0  0  0  0  0  0
    6.1154    0.0438   19.7712 C   0  0  0  0  0  0  0  0  0  0  0  0
    6.4393   -0.2816   18.4793 C   0  0  0  0  0  0  0  0  0  0  0  0
    5.7892    0.1941   17.3851 N   0  0  0  0  0  0  0  0  0  0  0  0
    4.7811    1.0052   17.5933 C   0  0  0  0  0  0  0  0  0  0  0  0
    4.3236    1.3989   18.8847 C   0  0  0  0  0  0  0  0  0  0  0  0
    3.2083    2.2558   19.0581 C   0  0  0  0  0  0  0  0  0  0  0  0
    2.7875    2.5952   20.3120 C   0  0  0  0  0  0  0  0  0  0  0  0
    3.4634    2.1066   21.4529 C   0  0  0  0  0  0  0  0  0  0  0  0
    4.5543    1.2842   21.3150 C   0  0  0  0  0  0  0  0  0  0  0  0
    5.0093    0.9123   20.0203 C   0  0  0  0  0  0  0  0  0  0  0  0
    5.0670    0.9070   22.1958 H   0  0  0  0  0  0  0  0  0  0  0  0
    3.1204    2.3952   22.4414 H   0  0  0  0  0  0  0  0  0  0  0  0
    1.9349    3.2553   20.4391 H   0  0  0  0  0  0  0  0  0  0  0  0
    2.7124    2.6351   18.1681 H   0  0  0  0  0  0  0  0  0  0  0  0
    4.2606    1.3967   16.7168 H   0  0  0  0  0  0  0  0  0  0  0  0
    7.2740   -0.9504   18.2817 H   0  0  0  0  0  0  0  0  0  0  0  0
    7.0448   -1.7535   21.1206 C   0  0  0  0  0  0  0  0  0  0  0  0
    6.3168   -2.6194   20.6779 O   0  0  0  0  0  0  0  0  0  0  0  0
    8.6443    0.7900   20.7450 H   0  0  0  0  0  0  0  0  0  0  0  0
    7.4358    1.3235   21.9234 H   0  0  0  0  0  0  0  0  0  0  0  0
    9.6120   -0.3257   22.6001 H   0  0  0  0  0  0  0  0  0  0  0  0
    8.0942   -0.3092   23.5174 H   0  0  0  0  0  0  0  0  0  0  0  0
    7.8876   -2.8349   23.2496 C   0  0  0  0  0  0  0  0  0  0  0  0
    6.5928   -2.9104   23.7520 C   0  0  0  0  0  0  0  0  0  0  0  0
    6.3438   -3.6696   24.8808 C   0  0  0  0  0  0  0  0  0  0  0  0
    4.7391   -3.6933   25.5308 Cl  0  0  0  0  0  0  0  0  0  0  0  0
    7.3461   -4.3933   25.5253 C   0  0  0  0  0  0  0  0  0  0  0  0
    8.6222   -4.3350   25.0078 C   0  0  0  0  0  0  0  0  0  0  0  0
    8.9004   -3.5368   23.9062 C   0  0  0  0  0  0  0  0  0  0  0  0
   10.3226   -3.3939   23.5008 C   0  0  0  0  0  0  0  0  0  0  0  0
   11.2449   -3.7219   24.2394 O   0  0  0  0  0  0  0  0  0  0  0  0
    9.4426   -4.9001   25.4311 H   0  0  0  0  0  0  0  0  0  0  0  0
    7.1239   -4.9897   26.4045 H   0  0  0  0  0  0  0  0  0  0  0  0
    5.7889   -2.3747   23.2613 H   0  0  0  0  0  0  0  0  0  0  0  0
    9.7869   -1.8836   20.5854 H   0  0  0  0  0  0  0  0  0  0  0  0
    9.1210   -3.5094   20.8990 H   0  0  0  0  0  0  0  0  0  0  0  0
   11.9659   -2.4385   20.8247 H   0  0  0  0  0  0  0  0  0  0  0  0
   12.5225   -3.3098   22.2937 H   0  0  0  0  0  0  0  0  0  0  0  0
   12.1963   -0.0722   21.8558 N   0  0  0  0  0  0  0  0  0  0  0  0
   12.9806   -1.7274   24.5967 H   0  0  0  0  0  0  0  0  0  0  0  0
   13.3398    1.0270   24.6765 H   0  0  0  0  0  0  0  0  0  0  0  0
   13.6461    2.6769   22.3419 H   0  0  0  0  0  0  0  0  0  0  0  0
   12.2294    2.2967   21.2735 H   0  0  0  0  0  0  0  0  0  0  0  0
   11.9886    2.8330   22.9685 H   0  0  0  0  0  0  0  0  0  0  0  0
  1  2  1  0
  2  3  1  0
  3  4  2  0
  4  5  1  0
  5  6  1  0
  6  7  1  0
  7  8  1  0
  9  8  1  6
  9 10  1  0
 10 11  1  0
 11 12  1  0
 12 13  1  0
 13 14  2  0
 14 15  1  0
 15 16  2  0
 16 17  1  0
 17 18  2  0
 18 19  1  0
 19 20  2  0
 20 21  1  0
 21 22  2  0
 21 23  1  0
 20 24  1  0
 19 25  1  0
 18 26  1  0
 16 27  1  0
 14 28  1  0
 12 29  1  0
 29 30  2  0
 11 31  1  0
 11 32  1  0
 10 33  1  0
 10 34  1  0
  9 35  1  0
 35 36  2  0
 36 37  1  0
 37 38  1  0
 37 39  2  0
 39 40  1  0
 40 41  2  0
 41 42  1  0
 42 43  2  0
 40 44  1  0
 39 45  1  0
 36 46  1  0
  8 47  1  0
  8 48  1  0
  6 49  1  0
  6 50  1  0
  5 51  2  0
  4 52  1  0
  3 53  1  0
  1 54  1  0
  1 55  1  0
  1 56  1  0
 51  2  1  0
 42  7  1  0
 29  9  1  0
 41 35  1  0
 22 13  1  0
 22 17  1  0
M  END
>  <cnnaffinities>  (56) 
[6.81664]

>  <score>  (56) 
6.81664

>  <index>  (56) 
55

>  <Smiles>  (56) 
C(n1c(c(c(C(N2C([C@]3(C(C(N(c4c(nc(c5c(c(c(c(c45)[H])[H])[H])[H])[H])[H])C3=O)([H])[H])([H])[H])c3c(c(Cl)c(c(c3C2=O)[H])[H])[H])([H])[H])([H])[H])n1)[H])[H])([H])([H])[H]

>  <h>  (56) 
<NA>

>  <Training>  (56) 
True

>  <Success>  (56) 
True

>  <enamine_searched>  (56) 
False

>  <enamine_id>  (56) 
nan

$$$$

     RDKit          3D

 41 43  0  0  0  0  0  0  0  0999 V2000
    8.0633    1.6453   20.9626 O   0  0  0  0  0  0  0  0  0  0  0  0
    7.8809    0.5924   21.5441 C   0  0  0  0  0  0  0  0  0  0  0  0
    6.9436   -0.4657   20.9161 C   0  0  0  0  0  0  0  0  0  0  0  0
    6.1159    0.0851   19.7735 C   0  0  0  0  0  0  0  0  0  0  0  0
    6.4275   -0.2077   18.4677 C   0  0  0  0  0  0  0  0  0  0  0  0
    5.7621    0.2389   17.3684 N   0  0  0  0  0  0  0  0  0  0  0  0
    4.7352    1.0300   17.5758 C   0  0  0  0  0  0  0  0  0  0  0  0
    4.2904    1.4243   18.8690 C   0  0  0  0  0  0  0  0  0  0  0  0
    3.1711    2.2806   19.0424 C   0  0  0  0  0  0  0  0  0  0  0  0
    2.7667    2.6474   20.3004 C   0  0  0  0  0  0  0  0  0  0  0  0
    3.4665    2.1723   21.4306 C   0  0  0  0  0  0  0  0  0  0  0  0
    4.5545    1.3413   21.2889 C   0  0  0  0  0  0  0  0  0  0  0  0
    4.9978    0.9453   19.9983 C   0  0  0  0  0  0  0  0  0  0  0  0
    5.0821    0.9911   22.1723 H   0  0  0  0  0  0  0  0  0  0  0  0
    3.1430    2.4720   22.4219 H   0  0  0  0  0  0  0  0  0  0  0  0
    1.9133    3.3076   20.4349 H   0  0  0  0  0  0  0  0  0  0  0  0
    2.6463    2.6482   18.1636 H   0  0  0  0  0  0  0  0  0  0  0  0
    4.1991    1.3993   16.6997 H   0  0  0  0  0  0  0  0  0  0  0  0
    7.2735   -0.8560   18.2482 H   0  0  0  0  0  0  0  0  0  0  0  0
    6.2886   -0.8985   21.6805 H   0  0  0  0  0  0  0  0  0  0  0  0
    7.5728   -1.2819   20.5319 H   0  0  0  0  0  0  0  0  0  0  0  0
    8.5067    0.3439   22.7627 N   0  0  0  0  0  0  0  0  0  0  0  0
    9.4038    1.3978   23.2699 C   0  0  0  0  0  0  0  0  0  0  0  0
   10.7750    1.4394   22.6001 C   0  0  0  0  0  0  0  0  0  0  0  0
   11.7195    0.3329   23.0419 C   0  0  0  0  0  0  0  0  0  0  0  0
   11.1397   -1.3487   22.7006 S   0  0  0  0  0  0  0  0  0  0  0  0
    9.8346   -1.4435   23.9478 C   0  0  0  0  0  0  0  0  0  0  0  0
    8.4744   -0.9395   23.4431 C   0  0  1  0  0  0  0  0  0  0  0  0
    7.4596   -0.8863   24.5833 C   0  0  0  0  0  0  0  0  0  0  0  0
    6.2698   -0.4390   24.1459 F   0  0  0  0  0  0  0  0  0  0  0  0
    7.2751   -2.0971   25.1417 F   0  0  0  0  0  0  0  0  0  0  0  0
    7.8544   -0.0687   25.5724 F   0  0  0  0  0  0  0  0  0  0  0  0
    8.0982   -1.7027   22.7577 H   0  0  0  0  0  0  0  0  0  0  0  0
   10.1705   -0.9048   24.8363 H   0  0  0  0  0  0  0  0  0  0  0  0
    9.7523   -2.4948   24.2404 H   0  0  0  0  0  0  0  0  0  0  0  0
   11.9054    0.3985   24.1181 H   0  0  0  0  0  0  0  0  0  0  0  0
   12.6900    0.4340   22.5439 H   0  0  0  0  0  0  0  0  0  0  0  0
   11.2589    2.4085   22.7968 H   0  0  0  0  0  0  0  0  0  0  0  0
   10.6187    1.3692   21.5288 H   0  0  0  0  0  0  0  0  0  0  0  0
    9.5266    1.2725   24.3441 H   0  0  0  0  0  0  0  0  0  0  0  0
    8.8999    2.3539   23.1241 H   0  0  0  0  0  0  0  0  0  0  0  0
  1  2  2  0
  2  3  1  0
  3  4  1  0
  4  5  2  0
  5  6  1  0
  6  7  2  0
  7  8  1  0
  8  9  2  0
  9 10  1  0
 10 11  2  0
 11 12  1  0
 12 13  2  0
 12 14  1  0
 11 15  1  0
 10 16  1  0
  9 17  1  0
  7 18  1  0
  5 19  1  0
  3 20  1  0
  3 21  1  0
  2 22  1  0
 22 23  1  0
 23 24  1  0
 24 25  1  0
 25 26  1  0
 26 27  1  0
 27 28  1  0
 28 29  1  0
 29 30  1  0
 29 31  1  0
 29 32  1  0
 28 33  1  6
 27 34  1  0
 27 35  1  0
 25 36  1  0
 25 37  1  0
 24 38  1  0
 24 39  1  0
 23 40  1  0
 23 41  1  0
 13  4  1  0
 28 22  1  0
 13  8  1  0
M  END
>  <cnnaffinities>  (57) 
[5.98079, 5.98073, 5.98072, 5.57396, 5.57326]

>  <score>  (57) 
5.98079

>  <index>  (57) 
56

>  <Smiles>  (57) 
O=C(C(c1c(nc(c2c(c(c(c(c12)[H])[H])[H])[H])[H])[H])([H])[H])N1C(C(C(SC([C@]1(C(F)(F)F)[H])([H])[H])([H])[H])([H])[H])([H])[H]

>  <h>  (57) 
<NA>

>  <Training>  (57) 
True

>  <Success>  (57) 
True

>  <enamine_searched>  (57) 
False

>  <enamine_id>  (57) 
nan

$$$$

     RDKit          3D

 67 72  0  0  0  0  0  0  0  0999 V2000
   13.8169   -0.1436   24.0530 C   0  0  0  0  0  0  0  0  0  0  0  0
   13.0317   -1.2825   23.6572 N   0  0  0  0  0  0  0  0  0  0  0  0
   12.4736   -1.2964   22.4298 C   0  0  0  0  0  0  0  0  0  0  0  0
   12.4501   -0.2947   21.7228 O   0  0  0  0  0  0  0  0  0  0  0  0
   11.8396   -2.6206   22.0144 C   0  0  0  0  0  0  0  0  0  0  0  0
   10.4658   -2.7555   22.4798 N   0  0  0  0  0  0  0  0  0  0  0  0
    9.3780   -2.3970   21.5842 C   0  0  0  0  0  0  0  0  0  0  0  0
    8.1502   -1.7934   22.3145 C   0  0  2  0  0  0  0  0  0  0  0  0
    7.0255   -1.6918   21.2671 C   0  0  0  0  0  0  0  0  0  0  0  0
    6.3509   -2.5997   20.8224 O   0  0  0  0  0  0  0  0  0  0  0  0
    6.8816   -0.3698   20.8966 N   0  0  0  0  0  0  0  0  0  0  0  0
    6.0961    0.0345   19.7872 C   0  0  0  0  0  0  0  0  0  0  0  0
    6.4114   -0.3420   18.5052 C   0  0  0  0  0  0  0  0  0  0  0  0
    5.7790    0.1304   17.3975 N   0  0  0  0  0  0  0  0  0  0  0  0
    4.7956    0.9816   17.5727 C   0  0  0  0  0  0  0  0  0  0  0  0
    4.3263    1.4092   18.8507 C   0  0  0  0  0  0  0  0  0  0  0  0
    3.2257    2.2933   19.0131 C   0  0  0  0  0  0  0  0  0  0  0  0
    2.8019    2.6476   20.2654 C   0  0  0  0  0  0  0  0  0  0  0  0
    3.4538    2.1448   21.4127 C   0  0  0  0  0  0  0  0  0  0  0  0
    4.5240    1.2962   21.2831 C   0  0  0  0  0  0  0  0  0  0  0  0
    4.9899    0.9182   19.9960 C   0  0  0  0  0  0  0  0  0  0  0  0
    5.0178    0.8964   22.1621 H   0  0  0  0  0  0  0  0  0  0  0  0
    3.1111    2.4364   22.4005 H   0  0  0  0  0  0  0  0  0  0  0  0
    1.9606    3.3236   20.3881 H   0  0  0  0  0  0  0  0  0  0  0  0
    2.7343    2.6859   18.1270 H   0  0  0  0  0  0  0  0  0  0  0  0
    4.3067    1.3696   16.6773 H   0  0  0  0  0  0  0  0  0  0  0  0
    7.2200   -1.0466   18.3197 H   0  0  0  0  0  0  0  0  0  0  0  0
    7.8425    0.5178   21.5261 C   0  0  0  0  0  0  0  0  0  0  0  0
    8.3212   -0.2944   22.7390 C   0  0  2  0  0  0  0  0  0  0  0  0
    9.7193    0.0974   23.2197 C   0  0  0  0  0  0  0  0  0  0  0  0
    9.7731    1.4088   23.8237 N   0  0  0  0  0  0  0  0  0  0  0  0
   10.4108    2.5071   23.2915 C   0  0  0  0  0  0  0  0  0  0  0  0
   10.2223    3.8296   23.5862 C   0  0  0  0  0  0  0  0  0  0  0  0
   10.8540    4.7316   22.7577 N   0  0  0  0  0  0  0  0  0  0  0  0
   11.5278    4.1112   21.8392 C   0  0  0  0  0  0  0  0  0  0  0  0
   12.1740    4.7766   20.6704 C   0  0  0  0  0  0  0  0  0  0  0  0
   12.4968    5.7771   20.9584 H   0  0  0  0  0  0  0  0  0  0  0  0
   13.0241    4.2070   20.2874 H   0  0  0  0  0  0  0  0  0  0  0  0
   11.4350    4.8851   19.8655 H   0  0  0  0  0  0  0  0  0  0  0  0
   11.5714    2.3724   21.9835 S   0  0  0  0  0  0  0  0  0  0  0  0
    9.6025    4.2089   24.3913 H   0  0  0  0  0  0  0  0  0  0  0  0
    9.3733    1.5135   24.7426 H   0  0  0  0  0  0  0  0  0  0  0  0
   10.0509   -0.6365   23.9603 H   0  0  0  0  0  0  0  0  0  0  0  0
   10.3953    0.0662   22.3622 H   0  0  0  0  0  0  0  0  0  0  0  0
    7.6298   -0.1153   23.5724 H   0  0  0  0  0  0  0  0  0  0  0  0
    7.3780    1.4681   21.8115 H   0  0  0  0  0  0  0  0  0  0  0  0
    8.6689    0.7510   20.8340 H   0  0  0  0  0  0  0  0  0  0  0  0
    7.8125   -2.7069   23.4779 C   0  0  0  0  0  0  0  0  0  0  0  0
    6.5004   -2.8153   23.9608 C   0  0  0  0  0  0  0  0  0  0  0  0
    6.2350   -3.6178   25.0594 C   0  0  0  0  0  0  0  0  0  0  0  0
    4.5974   -3.7756   25.6363 Cl  0  0  0  0  0  0  0  0  0  0  0  0
    7.2474   -4.3094   25.7233 C   0  0  0  0  0  0  0  0  0  0  0  0
    8.5451   -4.1859   25.2638 C   0  0  0  0  0  0  0  0  0  0  0  0
    8.8284   -3.4103   24.1412 C   0  0  0  0  0  0  0  0  0  0  0  0
   10.2558   -3.3601   23.6845 C   0  0  0  0  0  0  0  0  0  0  0  0
   11.1711   -3.8173   24.3556 O   0  0  0  0  0  0  0  0  0  0  0  0
    9.3666   -4.6883   25.7638 H   0  0  0  0  0  0  0  0  0  0  0  0
    7.0024   -4.9200   26.5877 H   0  0  0  0  0  0  0  0  0  0  0  0
    5.6869   -2.2779   23.4809 H   0  0  0  0  0  0  0  0  0  0  0  0
    9.7847   -1.6764   20.8671 H   0  0  0  0  0  0  0  0  0  0  0  0
    9.0291   -3.2779   21.0323 H   0  0  0  0  0  0  0  0  0  0  0  0
   12.4216   -3.4418   22.4354 H   0  0  0  0  0  0  0  0  0  0  0  0
   11.8619   -2.6704   20.9246 H   0  0  0  0  0  0  0  0  0  0  0  0
   13.0388   -2.1296   24.1977 H   0  0  0  0  0  0  0  0  0  0  0  0
   14.5478    0.0589   23.2735 H   0  0  0  0  0  0  0  0  0  0  0  0
   13.1853    0.7398   24.1548 H   0  0  0  0  0  0  0  0  0  0  0  0
   14.3243   -0.3561   24.9920 H   0  0  0  0  0  0  0  0  0  0  0  0
  1  2  1  0
  2  3  1  0
  3  4  2  0
  3  5  1  0
  5  6  1  0
  6  7  1  0
  8  7  1  6
  8  9  1  0
  9 10  2  0
  9 11  1  0
 11 12  1  0
 12 13  2  0
 13 14  1  0
 14 15  2  0
 15 16  1  0
 16 17  2  0
 17 18  1  0
 18 19  2  0
 19 20  1  0
 20 21  2  0
 20 22  1  0
 19 23  1  0
 18 24  1  0
 17 25  1  0
 15 26  1  0
 13 27  1  0
 11 28  1  0
 28 29  1  0
 29 30  1  0
 30 31  1  0
 31 32  1  0
 32 33  2  0
 33 34  1  0
 34 35  2  0
 35 36  1  0
 36 37  1  0
 36 38  1  0
 36 39  1  0
 35 40  1  0
 33 41  1  0
 31 42  1  0
 30 43  1  0
 30 44  1  0
 29 45  1  1
 28 46  1  0
 28 47  1  0
  8 48  1  0
 48 49  2  0
 49 50  1  0
 50 51  1  0
 50 52  2  0
 52 53  1  0
 53 54  2  0
 54 55  1  0
 55 56  2  0
 53 57  1  0
 52 58  1  0
 49 59  1  0
  7 60  1  0
  7 61  1  0
  5 62  1  0
  5 63  1  0
  2 64  1  0
  1 65  1  0
  1 66  1  0
  1 67  1  0
 55  6  1  0
 29  8  1  0
 40 32  1  0
 54 48  1  0
 21 12  1  0
 21 16  1  0
M  END
>  <cnnaffinities>  (58) 
[7.36066]

>  <score>  (58) 
7.36066

>  <index>  (58) 
57

>  <Smiles>  (58) 
C(N(C(=O)C(N1C([C@@]2(C(=O)N(c3c(nc(c4c(c(c(c(c34)[H])[H])[H])[H])[H])[H])C([C@@]2(C(N(c2c(nc(C([H])([H])[H])s2)[H])[H])([H])[H])[H])([H])[H])c2c(c(Cl)c(c(c2C1=O)[H])[H])[H])([H])[H])([H])[H])[H])([H])([H])[H]

>  <h>  (58) 
<NA>

>  <Training>  (58) 
True

>  <Success>  (58) 
True

>  <enamine_searched>  (58) 
False

>  <enamine_id>  (58) 
nan

$$$$

     RDKit          3D

 57 62  0  0  0  0  0  0  0  0999 V2000
    7.7115   -3.0063   23.3523 C   0  0  0  0  0  0  0  0  0  0  0  0
    7.9962   -1.9287   22.3081 C   0  0  1  0  0  0  0  0  0  0  0  0
    6.8979   -1.8054   21.2458 C   0  0  0  0  0  0  0  0  0  0  0  0
    6.9222   -0.4100   20.8408 N   0  0  0  0  0  0  0  0  0  0  0  0
    6.1333    0.1038   19.7697 C   0  0  0  0  0  0  0  0  0  0  0  0
    6.4292   -0.2205   18.4690 C   0  0  0  0  0  0  0  0  0  0  0  0
    5.7592    0.2344   17.3761 N   0  0  0  0  0  0  0  0  0  0  0  0
    4.7361    1.0321   17.5773 C   0  0  0  0  0  0  0  0  0  0  0  0
    4.2876    1.4237   18.8711 C   0  0  0  0  0  0  0  0  0  0  0  0
    3.1616    2.2747   19.0495 C   0  0  0  0  0  0  0  0  0  0  0  0
    2.7468    2.6122   20.3089 C   0  0  0  0  0  0  0  0  0  0  0  0
    3.4271    2.1143   21.4414 C   0  0  0  0  0  0  0  0  0  0  0  0
    4.5139    1.2931   21.2945 C   0  0  0  0  0  0  0  0  0  0  0  0
    4.9886    0.9391   20.0029 C   0  0  0  0  0  0  0  0  0  0  0  0
    5.0270    0.9056   22.1684 H   0  0  0  0  0  0  0  0  0  0  0  0
    3.0858    2.3824   22.4351 H   0  0  0  0  0  0  0  0  0  0  0  0
    1.8889    3.2617   20.4508 H   0  0  0  0  0  0  0  0  0  0  0  0
    2.6362    2.6505   18.1731 H   0  0  0  0  0  0  0  0  0  0  0  0
    4.1957    1.4014   16.7011 H   0  0  0  0  0  0  0  0  0  0  0  0
    7.2816   -0.8654   18.2625 H   0  0  0  0  0  0  0  0  0  0  0  0
    7.6493    0.3892   21.6975 C   0  0  0  0  0  0  0  0  0  0  0  0
    7.7723    1.5923   21.6049 O   0  0  0  0  0  0  0  0  0  0  0  0
    8.1997   -0.4651   22.8309 C   0  0  1  0  0  0  0  0  0  0  0  0
    7.3156   -0.0610   24.0268 C   0  0  0  0  0  0  0  0  0  0  0  0
    7.9436   -0.7420   25.2856 N   0  0  0  0  0  0  0  0  0  0  0  0
    7.1111   -1.1229   26.4348 C   0  0  0  0  0  0  0  0  0  0  0  0
    6.6970    0.0169   27.3550 C   0  0  0  0  0  0  0  0  0  0  0  0
    5.6585    0.8704   26.9939 C   0  0  0  0  0  0  0  0  0  0  0  0
    5.4124    1.9366   27.8438 C   0  0  0  0  0  0  0  0  0  0  0  0
    6.1220    2.1576   28.9506 N   0  0  0  0  0  0  0  0  0  0  0  0
    7.1048    1.2857   29.1895 C   0  0  0  0  0  0  0  0  0  0  0  0
    7.4325    0.2284   28.4524 N   0  0  0  0  0  0  0  0  0  0  0  0
    7.6981    1.4507   30.0837 H   0  0  0  0  0  0  0  0  0  0  0  0
    4.6053    2.6286   27.6149 H   0  0  0  0  0  0  0  0  0  0  0  0
    5.0753    0.7123   26.0854 H   0  0  0  0  0  0  0  0  0  0  0  0
    6.1705   -1.5789   26.0241 H   0  0  0  0  0  0  0  0  0  0  0  0
    7.5857   -1.9288   27.0195 H   0  0  0  0  0  0  0  0  0  0  0  0
    9.3722   -0.6683   25.6924 C   0  0  0  0  0  0  0  0  0  0  0  0
    9.3720   -0.6682   25.6923 O   0  0  0  0  0  0  0  0  0  0  0  0
   10.1779   -0.2475   24.4182 C   0  0  0  0  0  0  0  0  0  0  0  0
   11.5398    0.0199   24.5510 C   0  0  0  0  0  0  0  0  0  0  0  0
   12.4333    0.2253   23.5171 C   0  0  0  0  0  0  0  0  0  0  0  0
   11.9155    0.2722   22.2303 C   0  0  0  0  0  0  0  0  0  0  0  0
   12.7805    0.5359   21.2482 F   0  0  0  0  0  0  0  0  0  0  0  0
   10.5641    0.0697   22.0241 C   0  0  0  0  0  0  0  0  0  0  0  0
    9.6777   -0.1850   23.1139 C   0  0  0  0  0  0  0  0  0  0  0  0
   10.1875    0.0985   21.0118 H   0  0  0  0  0  0  0  0  0  0  0  0
   13.5012    0.4020   23.6922 H   0  0  0  0  0  0  0  0  0  0  0  0
   11.8851    0.2295   25.5110 H   0  0  0  0  0  0  0  0  0  0  0  0
    7.2918    1.0226   24.2110 H   0  0  0  0  0  0  0  0  0  0  0  0
    6.2965   -0.4728   23.9746 H   0  0  0  0  0  0  0  0  0  0  0  0
    5.9157   -2.0849   21.6493 H   0  0  0  0  0  0  0  0  0  0  0  0
    7.1011   -2.4492   20.3953 H   0  0  0  0  0  0  0  0  0  0  0  0
    8.9293   -2.2056   21.7956 H   0  0  0  0  0  0  0  0  0  0  0  0
    8.5031   -3.0397   24.1094 H   0  0  0  0  0  0  0  0  0  0  0  0
    6.7631   -2.8227   23.8675 H   0  0  0  0  0  0  0  0  0  0  0  0
    7.6484   -3.9836   22.8659 H   0  0  0  0  0  0  0  0  0  0  0  0
  1  2  1  0
  2  3  1  0
  3  4  1  0
  4  5  1  0
  5  6  2  0
  6  7  1  0
  7  8  2  0
  8  9  1  0
  9 10  2  0
 10 11  1  0
 11 12  2  0
 12 13  1  0
 13 14  2  0
 13 15  1  0
 12 16  1  0
 11 17  1  0
 10 18  1  0
  8 19  1  0
  6 20  1  0
  4 21  1  0
 21 22  2  0
 21 23  1  0
 23 24  1  1
 24 25  1  0
 25 26  1  0
 26 27  1  0
 27 28  2  0
 28 29  1  0
 29 30  2  0
 30 31  1  0
 31 32  2  0
 31 33  1  0
 29 34  1  0
 28 35  1  0
 26 36  1  0
 26 37  1  0
 25 38  1  0
 38 39  2  0
 38 40  1  0
 40 41  2  0
 41 42  1  0
 42 43  2  0
 43 44  1  0
 43 45  1  0
 45 46  2  0
 45 47  1  0
 42 48  1  0
 41 49  1  0
 24 50  1  0
 24 51  1  0
  3 52  1  0
  3 53  1  0
  2 54  1  6
  1 55  1  0
  1 56  1  0
  1 57  1  0
 23  2  1  0
 32 27  1  0
 46 40  1  0
 14  5  1  0
 46 23  1  0
 14  9  1  0
M  END
>  <cnnaffinities>  (59) 
[6.31959, 6.21802]

>  <score>  (59) 
6.31959

>  <index>  (59) 
58

>  <Smiles>  (59) 
C([C@]1(C(N(c2c(nc(c3c(c(c(c(c23)[H])[H])[H])[H])[H])[H])C(=O)[C@]21C(N(C(c1c(c(nc(n1)[H])[H])[H])([H])[H])C(=O)c1c(c(c(F)c(c21)[H])[H])[H])([H])[H])([H])[H])[H])([H])([H])[H]

>  <h>  (59) 
<NA>

>  <Training>  (59) 
True

>  <Success>  (59) 
True

>  <enamine_searched>  (59) 
False

>  <enamine_id>  (59) 
nan

$$$$

     RDKit          3D

 60 65  0  0  0  0  0  0  0  0999 V2000
    9.7107   -3.9587   23.7625 C   0  0  0  0  0  0  0  0  0  0  0  0
    8.6919   -3.0301   23.9783 O   0  0  0  0  0  0  0  0  0  0  0  0
    7.6413   -3.0552   23.0404 C   0  0  0  0  0  0  0  0  0  0  0  0
    7.8084   -1.9721   21.9878 C   0  0  1  0  0  0  0  0  0  0  0  0
    6.6073   -1.8446   21.0521 C   0  0  0  0  0  0  0  0  0  0  0  0
    6.7840   -0.5098   20.5182 N   0  0  0  0  0  0  0  0  0  0  0  0
    5.9932    0.0557   19.4924 C   0  0  0  0  0  0  0  0  0  0  0  0
    6.2621   -0.2370   18.1814 C   0  0  0  0  0  0  0  0  0  0  0  0
    5.5934    0.2809   17.1221 N   0  0  0  0  0  0  0  0  0  0  0  0
    4.6100    1.1085   17.3858 C   0  0  0  0  0  0  0  0  0  0  0  0
    4.1946    1.4632   18.7019 C   0  0  0  0  0  0  0  0  0  0  0  0
    3.0994    2.3398   18.9285 C   0  0  0  0  0  0  0  0  0  0  0  0
    2.7053    2.6463   20.2019 C   0  0  0  0  0  0  0  0  0  0  0  0
    3.4051    2.1120   21.3086 C   0  0  0  0  0  0  0  0  0  0  0  0
    4.4815    1.2812   21.1176 C   0  0  0  0  0  0  0  0  0  0  0  0
    4.9019    0.9272   19.8007 C   0  0  0  0  0  0  0  0  0  0  0  0
    5.0183    0.8940   21.9793 H   0  0  0  0  0  0  0  0  0  0  0  0
    3.0914    2.3683   22.3174 H   0  0  0  0  0  0  0  0  0  0  0  0
    1.8618    3.3129   20.3736 H   0  0  0  0  0  0  0  0  0  0  0  0
    2.5881    2.7614   18.0656 H   0  0  0  0  0  0  0  0  0  0  0  0
    4.0803    1.5367   16.5358 H   0  0  0  0  0  0  0  0  0  0  0  0
    7.0904   -0.9021   17.9482 H   0  0  0  0  0  0  0  0  0  0  0  0
    7.6591    0.2705   21.2507 C   0  0  0  0  0  0  0  0  0  0  0  0
    7.9754    1.3944   20.9186 O   0  0  0  0  0  0  0  0  0  0  0  0
    8.0372   -0.5162   22.5157 C   0  0  1  0  0  0  0  0  0  0  0  0
    7.0268   -0.0996   23.6275 C   0  0  0  0  0  0  0  0  0  0  0  0
    7.3604   -0.6420   24.9293 N   0  0  0  0  0  0  0  0  0  0  0  0
    6.3269   -1.0211   25.8854 C   0  0  0  0  0  0  0  0  0  0  0  0
    6.0844    0.0543   26.9101 C   0  0  0  0  0  0  0  0  0  0  0  0
    5.0925    0.9147   26.9070 N   0  0  0  0  0  0  0  0  0  0  0  0
    5.3552    1.7647   27.9591 C   0  0  0  0  0  0  0  0  0  0  0  0
    6.5073    1.3984   28.5972 C   0  0  0  0  0  0  0  0  0  0  0  0
    6.9649    0.2991   27.9201 N   0  0  0  0  0  0  0  0  0  0  0  0
    7.8753   -0.1466   27.9690 H   0  0  0  0  0  0  0  0  0  0  0  0
    7.0461    1.8047   29.4428 H   0  0  0  0  0  0  0  0  0  0  0  0
    4.7161    2.6109   28.1769 H   0  0  0  0  0  0  0  0  0  0  0  0
    5.3962   -1.2220   25.3428 H   0  0  0  0  0  0  0  0  0  0  0  0
    6.6636   -1.9394   26.3853 H   0  0  0  0  0  0  0  0  0  0  0  0
    8.6345   -0.6860   25.3763 C   0  0  0  0  0  0  0  0  0  0  0  0
    8.9039   -1.0090   26.5356 O   0  0  0  0  0  0  0  0  0  0  0  0
    9.6873   -0.2977   24.4068 C   0  0  0  0  0  0  0  0  0  0  0  0
   10.9336    0.0102   24.9189 C   0  0  0  0  0  0  0  0  0  0  0  0
   11.9775    0.3287   24.0819 C   0  0  0  0  0  0  0  0  0  0  0  0
   11.7698    0.2022   22.7095 C   0  0  0  0  0  0  0  0  0  0  0  0
   13.1551    0.4290   21.6884 Cl  0  0  0  0  0  0  0  0  0  0  0  0
   10.5311   -0.1169   22.1739 C   0  0  0  0  0  0  0  0  0  0  0  0
    9.4338   -0.2761   23.0335 C   0  0  0  0  0  0  0  0  0  0  0  0
   10.4121   -0.2338   21.1045 H   0  0  0  0  0  0  0  0  0  0  0  0
   12.9504    0.6217   24.4617 H   0  0  0  0  0  0  0  0  0  0  0  0
   11.0385   -0.0274   25.9930 H   0  0  0  0  0  0  0  0  0  0  0  0
    6.9902    0.9963   23.6833 H   0  0  0  0  0  0  0  0  0  0  0  0
    6.0213   -0.4565   23.3788 H   0  0  0  0  0  0  0  0  0  0  0  0
    6.5692   -2.5830   20.2489 H   0  0  0  0  0  0  0  0  0  0  0  0
    5.6704   -1.9373   21.6224 H   0  0  0  0  0  0  0  0  0  0  0  0
    8.6961   -2.1915   21.3819 H   0  0  0  0  0  0  0  0  0  0  0  0
    6.7166   -2.8627   23.5951 H   0  0  0  0  0  0  0  0  0  0  0  0
    7.5519   -4.0479   22.5716 H   0  0  0  0  0  0  0  0  0  0  0  0
    9.3209   -4.9833   23.8419 H   0  0  0  0  0  0  0  0  0  0  0  0
   10.4528   -3.8023   24.5514 H   0  0  0  0  0  0  0  0  0  0  0  0
   10.2034   -3.8251   22.7866 H   0  0  0  0  0  0  0  0  0  0  0  0
  1  2  1  0
  2  3  1  0
  3  4  1  0
  4  5  1  0
  5  6  1  0
  6  7  1  0
  7  8  2  0
  8  9  1  0
  9 10  2  0
 10 11  1  0
 11 12  2  0
 12 13  1  0
 13 14  2  0
 14 15  1  0
 15 16  2  0
 15 17  1  0
 14 18  1  0
 13 19  1  0
 12 20  1  0
 10 21  1  0
  8 22  1  0
  6 23  1  0
 23 24  2  0
 23 25  1  0
 25 26  1  1
 26 27  1  0
 27 28  1  0
 28 29  1  0
 29 30  2  0
 30 31  1  0
 31 32  2  0
 32 33  1  0
 33 34  1  0
 32 35  1  0
 31 36  1  0
 28 37  1  0
 28 38  1  0
 27 39  1  0
 39 40  2  0
 39 41  1  0
 41 42  2  0
 42 43  1  0
 43 44  2  0
 44 45  1  0
 44 46  1  0
 46 47  2  0
 46 48  1  0
 43 49  1  0
 42 50  1  0
 26 51  1  0
 26 52  1  0
  5 53  1  0
  5 54  1  0
  4 55  1  6
  3 56  1  0
  3 57  1  0
  1 58  1  0
  1 59  1  0
  1 60  1  0
 25  4  1  0
 33 29  1  0
 47 41  1  0
 16  7  1  0
 47 25  1  0
 16 11  1  0
M  END
>  <cnnaffinities>  (60) 
[5.88494]

>  <score>  (60) 
5.88494

>  <index>  (60) 
59

>  <Smiles>  (60) 
C(OC([C@]1(C(N(c2c(nc(c3c(c(c(c(c23)[H])[H])[H])[H])[H])[H])C(=O)[C@]21C(N(C(c1nc(c(n1[H])[H])[H])([H])[H])C(=O)c1c(c(c(Cl)c(c21)[H])[H])[H])([H])[H])([H])[H])[H])([H])[H])([H])([H])[H]

>  <h>  (60) 
<NA>

>  <Training>  (60) 
True

>  <Success>  (60) 
True

>  <enamine_searched>  (60) 
False

>  <enamine_id>  (60) 
nan

$$$$

     RDKit          3D

 38 41  0  0  0  0  0  0  0  0999 V2000
    5.6399   -2.5173   20.9016 O   0  0  0  0  0  0  0  0  0  0  0  0
    6.1437   -1.6528   21.5940 C   0  0  0  0  0  0  0  0  0  0  0  0
    6.9113   -0.4912   20.9168 C   0  0  0  0  0  0  0  0  0  0  0  0
    6.1177    0.0930   19.7644 C   0  0  0  0  0  0  0  0  0  0  0  0
    6.4219   -0.2142   18.4622 C   0  0  0  0  0  0  0  0  0  0  0  0
    5.7561    0.2363   17.3626 N   0  0  0  0  0  0  0  0  0  0  0  0
    4.7356    1.0316   17.5745 C   0  0  0  0  0  0  0  0  0  0  0  0
    4.2867    1.4246   18.8670 C   0  0  0  0  0  0  0  0  0  0  0  0
    3.1636    2.2748   19.0434 C   0  0  0  0  0  0  0  0  0  0  0  0
    2.7487    2.6269   20.2996 C   0  0  0  0  0  0  0  0  0  0  0  0
    3.4405    2.1406   21.4316 C   0  0  0  0  0  0  0  0  0  0  0  0
    4.5320    1.3194   21.2868 C   0  0  0  0  0  0  0  0  0  0  0  0
    4.9905    0.9412   19.9957 C   0  0  0  0  0  0  0  0  0  0  0  0
    5.0504    0.9598   22.1709 H   0  0  0  0  0  0  0  0  0  0  0  0
    3.1065    2.4280   22.4234 H   0  0  0  0  0  0  0  0  0  0  0  0
    1.8916    3.2808   20.4360 H   0  0  0  0  0  0  0  0  0  0  0  0
    2.6426    2.6451   18.1632 H   0  0  0  0  0  0  0  0  0  0  0  0
    4.1986    1.4002   16.6989 H   0  0  0  0  0  0  0  0  0  0  0  0
    7.2664   -0.8675   18.2460 H   0  0  0  0  0  0  0  0  0  0  0  0
    7.8445   -0.9081   20.5181 H   0  0  0  0  0  0  0  0  0  0  0  0
    7.1887    0.3029   21.6211 H   0  0  0  0  0  0  0  0  0  0  0  0
    6.0051   -1.6581   22.9712 N   0  0  0  0  0  0  0  0  0  0  0  0
    4.7760   -2.1821   23.5721 C   0  0  0  0  0  0  0  0  0  0  0  0
    5.0735   -3.1829   24.6834 C   0  0  0  0  0  0  0  0  0  0  0  0
    6.1265   -2.6302   25.5931 C   0  0  0  0  0  0  0  0  0  0  0  0
    6.4272   -3.1790   27.2086 S   0  0  0  0  0  0  0  0  0  0  0  0
    7.7553   -2.0881   27.3739 C   0  0  0  0  0  0  0  0  0  0  0  0
    7.9446   -1.3462   26.2461 C   0  0  0  0  0  0  0  0  0  0  0  0
    6.9998   -1.6577   25.2225 C   0  0  0  0  0  0  0  0  0  0  0  0
    6.9450   -1.0040   23.8655 C   0  0  0  0  0  0  0  0  0  0  0  0
    6.7224    0.0675   23.9991 H   0  0  0  0  0  0  0  0  0  0  0  0
    7.9489   -1.0428   23.4324 H   0  0  0  0  0  0  0  0  0  0  0  0
    8.7365   -0.6136   26.1397 H   0  0  0  0  0  0  0  0  0  0  0  0
    8.3259   -2.0614   28.2943 H   0  0  0  0  0  0  0  0  0  0  0  0
    4.1595   -3.4306   25.2331 H   0  0  0  0  0  0  0  0  0  0  0  0
    5.4311   -4.1210   24.2433 H   0  0  0  0  0  0  0  0  0  0  0  0
    4.1803   -1.3544   23.9845 H   0  0  0  0  0  0  0  0  0  0  0  0
    4.1809   -2.6469   22.7849 H   0  0  0  0  0  0  0  0  0  0  0  0
  1  2  2  0
  2  3  1  0
  3  4  1  0
  4  5  2  0
  5  6  1  0
  6  7  2  0
  7  8  1  0
  8  9  2  0
  9 10  1  0
 10 11  2  0
 11 12  1  0
 12 13  2  0
 12 14  1  0
 11 15  1  0
 10 16  1  0
  9 17  1  0
  7 18  1  0
  5 19  1  0
  3 20  1  0
  3 21  1  0
  2 22  1  0
 22 23  1  0
 23 24  1  0
 24 25  1  0
 25 26  1  0
 26 27  1  0
 27 28  2  0
 28 29  1  0
 29 30  1  0
 30 31  1  0
 30 32  1  0
 28 33  1  0
 27 34  1  0
 24 35  1  0
 24 36  1  0
 23 37  1  0
 23 38  1  0
 13  4  1  0
 30 22  1  0
 13  8  1  0
 29 25  2  0
M  END
>  <cnnaffinities>  (61) 
[5.27213, 5.22891, 5.21876]

>  <score>  (61) 
5.27213

>  <index>  (61) 
60

>  <Smiles>  (61) 
O=C(C(c1c(nc(c2c(c(c(c(c12)[H])[H])[H])[H])[H])[H])([H])[H])N1C(C(c2sc(c(c2C1([H])[H])[H])[H])([H])[H])([H])[H]

>  <h>  (61) 
<NA>

>  <Training>  (61) 
True

>  <Success>  (61) 
True

>  <enamine_searched>  (61) 
False

>  <enamine_id>  (61) 
nan

$$$$

     RDKit          3D

 64 70  0  0  0  0  0  0  0  0999 V2000
    8.9997   -1.2707   26.5808 O   0  0  0  0  0  0  0  0  0  0  0  0
    8.7105   -0.8695   25.4592 C   0  0  0  0  0  0  0  0  0  0  0  0
    9.7371   -0.4611   24.4636 C   0  0  0  0  0  0  0  0  0  0  0  0
   10.9761   -0.0807   24.9473 C   0  0  0  0  0  0  0  0  0  0  0  0
   11.9896    0.2955   24.0931 C   0  0  0  0  0  0  0  0  0  0  0  0
   11.7573    0.1772   22.7271 C   0  0  0  0  0  0  0  0  0  0  0  0
   13.0960    0.4906   21.6732 Cl  0  0  0  0  0  0  0  0  0  0  0  0
   10.5178   -0.1850   22.2134 C   0  0  0  0  0  0  0  0  0  0  0  0
    9.4465   -0.4193   23.0927 C   0  0  0  0  0  0  0  0  0  0  0  0
    8.0115   -0.6156   22.6332 C   0  0  1  0  0  0  0  0  0  0  0  0
    7.0709   -0.1592   23.7834 C   0  0  0  0  0  0  0  0  0  0  0  0
    7.4234   -0.7557   25.0555 N   0  0  0  0  0  0  0  0  0  0  0  0
    6.4136   -0.9651   26.0786 C   0  0  0  0  0  0  0  0  0  0  0  0
    6.1857    0.2392   26.9741 C   0  0  0  0  0  0  0  0  0  0  0  0
    5.2739    1.2407   26.7168 C   0  0  0  0  0  0  0  0  0  0  0  0
    5.1802    2.2808   27.6411 C   0  0  0  0  0  0  0  0  0  0  0  0
    5.9064    2.3542   28.7492 N   0  0  0  0  0  0  0  0  0  0  0  0
    6.8027    1.4072   28.9948 N   0  0  0  0  0  0  0  0  0  0  0  0
    6.9354    0.3943   28.1460 C   0  0  0  0  0  0  0  0  0  0  0  0
    7.6922   -0.3403   28.4138 H   0  0  0  0  0  0  0  0  0  0  0  0
    4.4548    3.0821   27.5124 H   0  0  0  0  0  0  0  0  0  0  0  0
    4.6393    1.2311   25.8296 H   0  0  0  0  0  0  0  0  0  0  0  0
    5.4890   -1.2796   25.5886 H   0  0  0  0  0  0  0  0  0  0  0  0
    6.7753   -1.7868   26.6965 H   0  0  0  0  0  0  0  0  0  0  0  0
    6.0423   -0.4555   23.5573 H   0  0  0  0  0  0  0  0  0  0  0  0
    7.0792    0.9346   23.8633 H   0  0  0  0  0  0  0  0  0  0  0  0
    7.6381    0.1907   21.3660 C   0  0  0  0  0  0  0  0  0  0  0  0
    7.9775    1.3127   21.0619 O   0  0  0  0  0  0  0  0  0  0  0  0
    6.7742   -0.5725   20.5990 N   0  0  0  0  0  0  0  0  0  0  0  0
    6.0039    0.0014   19.5533 C   0  0  0  0  0  0  0  0  0  0  0  0
    6.2834   -0.3050   18.2458 C   0  0  0  0  0  0  0  0  0  0  0  0
    5.6344    0.2187   17.1756 N   0  0  0  0  0  0  0  0  0  0  0  0
    4.6606    1.0672   17.4095 C   0  0  0  0  0  0  0  0  0  0  0  0
    4.2240    1.4268   18.7189 C   0  0  0  0  0  0  0  0  0  0  0  0
    3.1358    2.3174   18.9320 C   0  0  0  0  0  0  0  0  0  0  0  0
    2.7403    2.6383   20.2045 C   0  0  0  0  0  0  0  0  0  0  0  0
    3.4239    2.0990   21.3172 C   0  0  0  0  0  0  0  0  0  0  0  0
    4.4838    1.2449   21.1403 C   0  0  0  0  0  0  0  0  0  0  0  0
    4.9129    0.8882   19.8277 C   0  0  0  0  0  0  0  0  0  0  0  0
    5.0077    0.8382   22.0011 H   0  0  0  0  0  0  0  0  0  0  0  0
    3.1147    2.3706   22.3222 H   0  0  0  0  0  0  0  0  0  0  0  0
    1.9051    3.3163   20.3679 H   0  0  0  0  0  0  0  0  0  0  0  0
    2.6293    2.7387   18.0685 H   0  0  0  0  0  0  0  0  0  0  0  0
    4.1520    1.5023   16.5470 H   0  0  0  0  0  0  0  0  0  0  0  0
    7.0938   -0.9933   18.0140 H   0  0  0  0  0  0  0  0  0  0  0  0
    6.5223   -1.8855   21.1547 C   0  0  0  0  0  0  0  0  0  0  0  0
    7.6795   -2.0643   22.1340 C   0  0  2  0  0  0  0  0  0  0  0  0
    7.3855   -3.1403   23.1673 C   0  0  0  0  0  0  0  0  0  0  0  0
    8.5728   -3.4311   23.9358 N   0  0  0  0  0  0  0  0  0  0  0  0
    8.5366   -4.1119   25.1034 C   0  0  0  0  0  0  0  0  0  0  0  0
    9.5844   -4.5708   25.7264 N   0  0  0  0  0  0  0  0  0  0  0  0
    9.2724   -5.1637   26.9189 N   0  0  0  0  0  0  0  0  0  0  0  0
    8.0115   -5.1284   27.1882 C   0  0  0  0  0  0  0  0  0  0  0  0
    7.0291   -4.4091   25.9469 S   0  0  0  0  0  0  0  0  0  0  0  0
    7.5816   -5.4990   28.1069 H   0  0  0  0  0  0  0  0  0  0  0  0
    9.4209   -2.8989   23.7746 H   0  0  0  0  0  0  0  0  0  0  0  0
    7.0545   -4.0582   22.6644 H   0  0  0  0  0  0  0  0  0  0  0  0
    6.5646   -2.8295   23.8241 H   0  0  0  0  0  0  0  0  0  0  0  0
    8.5616   -2.3812   21.5681 H   0  0  0  0  0  0  0  0  0  0  0  0
    5.5599   -1.9364   21.6885 H   0  0  0  0  0  0  0  0  0  0  0  0
    6.4973   -2.6466   20.3719 H   0  0  0  0  0  0  0  0  0  0  0  0
   10.3710   -0.2520   21.1403 H   0  0  0  0  0  0  0  0  0  0  0  0
   12.9491    0.6623   24.4505 H   0  0  0  0  0  0  0  0  0  0  0  0
   11.0857   -0.0587   26.0174 H   0  0  0  0  0  0  0  0  0  0  0  0
  1  2  2  0
  2  3  1  0
  3  4  2  0
  4  5  1  0
  5  6  2  0
  6  7  1  0
  6  8  1  0
  8  9  2  0
  9 10  1  0
 10 11  1  1
 11 12  1  0
 12 13  1  0
 13 14  1  0
 14 15  2  0
 15 16  1  0
 16 17  2  0
 17 18  1  0
 18 19  2  0
 19 20  1  0
 16 21  1  0
 15 22  1  0
 13 23  1  0
 13 24  1  0
 11 25  1  0
 11 26  1  0
 10 27  1  0
 27 28  2  0
 27 29  1  0
 29 30  1  0
 30 31  2  0
 31 32  1  0
 32 33  2  0
 33 34  1  0
 34 35  2  0
 35 36  1  0
 36 37  2  0
 37 38  1  0
 38 39  2  0
 38 40  1  0
 37 41  1  0
 36 42  1  0
 35 43  1  0
 33 44  1  0
 31 45  1  0
 29 46  1  0
 46 47  1  0
 47 48  1  0
 48 49  1  0
 49 50  1  0
 50 51  2  0
 51 52  1  0
 52 53  2  0
 53 54  1  0
 53 55  1  0
 49 56  1  0
 48 57  1  0
 48 58  1  0
 47 59  1  6
 46 60  1  0
 46 61  1  0
  8 62  1  0
  5 63  1  0
  4 64  1  0
 12  2  1  0
 19 14  1  0
 39 30  1  0
 54 50  1  0
  9  3  1  0
 47 10  1  0
 39 34  1  0
M  END
>  <cnnaffinities>  (62) 
[6.13203]

>  <score>  (62) 
6.13203

>  <index>  (62) 
61

>  <Smiles>  (62) 
O=C1c2c(c(c(Cl)c(c2[C@@]2(C(N1C(c1c(c(nnc1[H])[H])[H])([H])[H])([H])[H])C(=O)N(c1c(nc(c3c(c(c(c(c13)[H])[H])[H])[H])[H])[H])C([C@@]2(C(N(c1nnc(s1)[H])[H])([H])[H])[H])([H])[H])[H])[H])[H]

>  <h>  (62) 
<NA>

>  <Training>  (62) 
True

>  <Success>  (62) 
True

>  <enamine_searched>  (62) 
False

>  <enamine_id>  (62) 
nan

$$$$

     RDKit          3D

 70 76  0  0  0  0  0  0  0  0999 V2000
    7.3875   -2.3873   23.8704 C   0  0  0  0  0  0  0  0  0  0  0  0
    7.6770   -1.7640   22.5077 C   0  0  1  0  0  0  0  0  0  0  0  0
    6.4276   -1.4789   21.6595 C   0  0  0  0  0  0  0  0  0  0  0  0
    6.8825   -0.4315   20.7629 N   0  0  0  0  0  0  0  0  0  0  0  0
    6.1017    0.1022   19.7062 C   0  0  0  0  0  0  0  0  0  0  0  0
    6.4284   -0.1975   18.4097 C   0  0  0  0  0  0  0  0  0  0  0  0
    5.7451    0.2439   17.3257 N   0  0  0  0  0  0  0  0  0  0  0  0
    4.7211    1.0357   17.5395 C   0  0  0  0  0  0  0  0  0  0  0  0
    4.2792    1.4385   18.8336 C   0  0  0  0  0  0  0  0  0  0  0  0
    3.1786    2.3191   19.0183 C   0  0  0  0  0  0  0  0  0  0  0  0
    2.7743    2.6849   20.2746 C   0  0  0  0  0  0  0  0  0  0  0  0
    3.4635    2.2024   21.4083 C   0  0  0  0  0  0  0  0  0  0  0  0
    4.5353    1.3544   21.2542 C   0  0  0  0  0  0  0  0  0  0  0  0
    4.9778    0.9501   19.9625 C   0  0  0  0  0  0  0  0  0  0  0  0
    5.0672    1.0139   22.1348 H   0  0  0  0  0  0  0  0  0  0  0  0
    3.1638    2.5219   22.4037 H   0  0  0  0  0  0  0  0  0  0  0  0
    1.9320    3.3594   20.4034 H   0  0  0  0  0  0  0  0  0  0  0  0
    2.6737    2.7064   18.1392 H   0  0  0  0  0  0  0  0  0  0  0  0
    4.1792    1.3978   16.6637 H   0  0  0  0  0  0  0  0  0  0  0  0
    7.2872   -0.8346   18.2141 H   0  0  0  0  0  0  0  0  0  0  0  0
    8.0300    0.2072   21.1898 C   0  0  0  0  0  0  0  0  0  0  0  0
    8.5702    1.1190   20.6008 O   0  0  0  0  0  0  0  0  0  0  0  0
    8.4335   -0.4028   22.5523 C   0  0  1  0  0  0  0  0  0  0  0  0
    7.9042    0.4960   23.6998 C   0  0  0  0  0  0  0  0  0  0  0  0
    8.5707    1.7774   23.7311 N   0  0  0  0  0  0  0  0  0  0  0  0
    7.7802    2.9742   23.8639 C   0  0  0  0  0  0  0  0  0  0  0  0
    7.3006    3.4960   22.5133 C   0  0  0  0  0  0  0  0  0  0  0  0
    6.2491    4.5563   22.7090 N   0  0  2  0  0  4  0  0  0  0  0  0
    5.5325    4.9493   21.4389 C   0  0  0  0  0  0  0  0  0  0  0  0
    6.3869    6.0595   20.8114 C   0  0  0  0  0  0  0  0  0  0  0  0
    7.2069    6.6326   21.9675 C   0  0  0  0  0  0  0  0  0  0  0  0
    7.6437    8.0705   22.0448 C   0  0  0  0  0  0  0  0  0  0  0  0
    9.5949    6.7743   22.7258 O   0  0  0  0  0  0  0  0  0  0  0  0
    8.6400    7.0093   21.7263 C   0  0  0  0  0  0  0  0  0  0  0  0
    8.9964    6.9133   20.6983 H   0  0  0  0  0  0  0  0  0  0  0  0
   10.1507    6.0545   22.4045 H   0  0  0  0  0  0  0  0  0  0  0  0
    7.2968    8.7554   21.2749 H   0  0  0  0  0  0  0  0  0  0  0  0
    7.7719    8.5037   23.0360 H   0  0  0  0  0  0  0  0  0  0  0  0
    6.8474    5.8587   23.2134 C   0  0  0  0  0  0  0  0  0  0  0  0
    7.7286    5.6624   23.8199 H   0  0  0  0  0  0  0  0  0  0  0  0
    6.1019    6.3690   23.8228 H   0  0  0  0  0  0  0  0  0  0  0  0
    5.7761    6.8137   20.3000 H   0  0  0  0  0  0  0  0  0  0  0  0
    7.0563    5.6251   20.0643 H   0  0  0  0  0  0  0  0  0  0  0  0
    4.5406    5.3088   21.7134 H   0  0  0  0  0  0  0  0  0  0  0  0
    5.4182    4.0748   20.7955 H   0  0  0  0  0  0  0  0  0  0  0  0
    5.5606    4.1758   23.3700 H   0  0  0  0  0  0  0  0  0  0  0  0
    8.1290    3.9163   21.9370 H   0  0  0  0  0  0  0  0  0  0  0  0
    6.8638    2.6870   21.9276 H   0  0  0  0  0  0  0  0  0  0  0  0
    8.4060    3.7007   24.3788 H   0  0  0  0  0  0  0  0  0  0  0  0
    6.9250    2.7504   24.5099 H   0  0  0  0  0  0  0  0  0  0  0  0
    9.9117    1.9217   23.5467 C   0  0  0  0  0  0  0  0  0  0  0  0
   10.4893    2.9983   23.6757 O   0  0  0  0  0  0  0  0  0  0  0  0
   10.6413    0.6697   23.1860 C   0  0  0  0  0  0  0  0  0  0  0  0
   12.0302    0.6525   23.3332 C   0  0  0  0  0  0  0  0  0  0  0  0
   12.7283   -0.5196   23.1069 C   0  0  0  0  0  0  0  0  0  0  0  0
   12.0102   -1.6556   22.7342 C   0  0  0  0  0  0  0  0  0  0  0  0
   12.7996   -3.1958   22.6129 Cl  0  0  0  0  0  0  0  0  0  0  0  0
   10.6478   -1.6326   22.5109 C   0  0  0  0  0  0  0  0  0  0  0  0
    9.9314   -0.4613   22.7496 C   0  0  0  0  0  0  0  0  0  0  0  0
   10.1750   -2.5344   22.1408 H   0  0  0  0  0  0  0  0  0  0  0  0
   13.8013   -0.5752   23.2648 H   0  0  0  0  0  0  0  0  0  0  0  0
   12.5332    1.5578   23.6652 H   0  0  0  0  0  0  0  0  0  0  0  0
    6.8320    0.6780   23.5791 H   0  0  0  0  0  0  0  0  0  0  0  0
    8.0558   -0.0354   24.6497 H   0  0  0  0  0  0  0  0  0  0  0  0
    6.0956   -2.3484   21.0852 H   0  0  0  0  0  0  0  0  0  0  0  0
    5.5836   -1.1570   22.2886 H   0  0  0  0  0  0  0  0  0  0  0  0
    8.2789   -2.4550   21.9063 H   0  0  0  0  0  0  0  0  0  0  0  0
    8.3029   -2.4541   24.4718 H   0  0  0  0  0  0  0  0  0  0  0  0
    6.9633   -3.3931   23.7817 H   0  0  0  0  0  0  0  0  0  0  0  0
    6.6711   -1.7704   24.4279 H   0  0  0  0  0  0  0  0  0  0  0  0
  1  2  1  0
  2  3  1  0
  3  4  1  0
  4  5  1  0
  5  6  2  0
  6  7  1  0
  7  8  2  0
  8  9  1  0
  9 10  2  0
 10 11  1  0
 11 12  2  0
 12 13  1  0
 13 14  2  0
 13 15  1  0
 12 16  1  0
 11 17  1  0
 10 18  1  0
  8 19  1  0
  6 20  1  0
  4 21  1  0
 21 22  2  0
 21 23  1  0
 23 24  1  1
 24 25  1  0
 25 26  1  0
 26 27  1  0
 27 28  1  0
 28 29  1  0
 29 30  1  0
 30 31  1  0
 31 32  1  0
 32 33  1  0
 33 34  1  0
 34 35  1  0
 34 36  1  0
 32 37  1  0
 32 38  1  0
 31 39  1  0
 39 40  1  0
 39 41  1  0
 30 42  1  0
 30 43  1  0
 29 44  1  0
 29 45  1  0
 28 46  1  1
 27 47  1  0
 27 48  1  0
 26 49  1  0
 26 50  1  0
 25 51  1  0
 51 52  2  0
 51 53  1  0
 53 54  2  0
 54 55  1  0
 55 56  2  0
 56 57  1  0
 56 58  1  0
 58 59  2  0
 58 60  1  0
 55 61  1  0
 54 62  1  0
 24 63  1  0
 24 64  1  0
  3 65  1  0
  3 66  1  0
  2 67  1  6
  1 68  1  0
  1 69  1  0
  1 70  1  0
 23  2  1  0
 39 28  1  0
 59 53  1  0
 14  5  1  0
 59 23  1  0
 14  9  1  0
 34 31  1  0
M  CHG  1  28   1
M  END
>  <cnnaffinities>  (63) 
[6.48122]

>  <score>  (63) 
6.48122

>  <index>  (63) 
62

>  <Smiles>  (63) 
C([C@]1(C(N(c2c(nc(c3c(c(c(c(c23)[H])[H])[H])[H])[H])[H])C(=O)[C@]21C(N(C(C([N@@+]1(C(C(C3(C(OC3([H])[H])([H])[H])C1([H])[H])([H])[H])([H])[H])[H])([H])[H])([H])[H])C(=O)c1c(c(c(Cl)c(c21)[H])[H])[H])([H])[H])([H])[H])[H])([H])([H])[H]

>  <h>  (63) 
<NA>

>  <Training>  (63) 
True

>  <Success>  (63) 
True

>  <enamine_searched>  (63) 
False

>  <enamine_id>  (63) 
nan

$$$$

     RDKit          3D

 56 61  0  0  0  0  0  0  0  0999 V2000
   12.6312    2.2671   22.2895 C   0  0  0  0  0  0  0  0  0  0  0  0
   12.6477    0.8772   22.6858 N   0  0  0  0  0  0  0  0  0  0  0  0
   13.0181    0.3750   23.8814 C   0  0  0  0  0  0  0  0  0  0  0  0
   12.8266   -0.9844   23.8267 C   0  0  0  0  0  0  0  0  0  0  0  0
   12.3178   -1.2088   22.5296 C   0  0  0  0  0  0  0  0  0  0  0  0
   11.8876   -2.5039   21.9156 C   0  0  0  0  0  0  0  0  0  0  0  0
   10.5168   -2.8350   22.2721 N   0  0  0  0  0  0  0  0  0  0  0  0
    9.4251   -2.5668   21.3552 C   0  0  0  0  0  0  0  0  0  0  0  0
    8.2205   -1.9310   22.0884 C   0  0  1  0  0  0  0  0  0  0  0  0
    8.5350   -0.4776   22.5320 C   0  0  0  0  0  0  0  0  0  0  0  0
    7.9066    0.4389   21.4809 C   0  0  0  0  0  0  0  0  0  0  0  0
    6.9112   -0.4113   20.8472 N   0  0  0  0  0  0  0  0  0  0  0  0
    6.1154    0.0438   19.7712 C   0  0  0  0  0  0  0  0  0  0  0  0
    6.4393   -0.2816   18.4793 C   0  0  0  0  0  0  0  0  0  0  0  0
    5.7892    0.1941   17.3851 N   0  0  0  0  0  0  0  0  0  0  0  0
    4.7811    1.0052   17.5933 C   0  0  0  0  0  0  0  0  0  0  0  0
    4.3236    1.3989   18.8847 C   0  0  0  0  0  0  0  0  0  0  0  0
    3.2083    2.2558   19.0581 C   0  0  0  0  0  0  0  0  0  0  0  0
    2.7875    2.5952   20.3120 C   0  0  0  0  0  0  0  0  0  0  0  0
    3.4634    2.1066   21.4529 C   0  0  0  0  0  0  0  0  0  0  0  0
    4.5543    1.2842   21.3150 C   0  0  0  0  0  0  0  0  0  0  0  0
    5.0093    0.9123   20.0203 C   0  0  0  0  0  0  0  0  0  0  0  0
    5.0670    0.9070   22.1958 H   0  0  0  0  0  0  0  0  0  0  0  0
    3.1204    2.3952   22.4414 H   0  0  0  0  0  0  0  0  0  0  0  0
    1.9349    3.2553   20.4391 H   0  0  0  0  0  0  0  0  0  0  0  0
    2.7124    2.6351   18.1681 H   0  0  0  0  0  0  0  0  0  0  0  0
    4.2606    1.3967   16.7168 H   0  0  0  0  0  0  0  0  0  0  0  0
    7.2740   -0.9504   18.2817 H   0  0  0  0  0  0  0  0  0  0  0  0
    7.0448   -1.7535   21.1206 C   0  0  0  0  0  0  0  0  0  0  0  0
    6.3168   -2.6194   20.6780 O   0  0  0  0  0  0  0  0  0  0  0  0
    8.6443    0.7900   20.7450 H   0  0  0  0  0  0  0  0  0  0  0  0
    7.4358    1.3235   21.9234 H   0  0  0  0  0  0  0  0  0  0  0  0
    9.6119   -0.3256   22.6001 H   0  0  0  0  0  0  0  0  0  0  0  0
    8.0942   -0.3091   23.5174 H   0  0  0  0  0  0  0  0  0  0  0  0
    7.8876   -2.8349   23.2496 C   0  0  0  0  0  0  0  0  0  0  0  0
    6.5928   -2.9104   23.7520 C   0  0  0  0  0  0  0  0  0  0  0  0
    6.3438   -3.6696   24.8808 C   0  0  0  0  0  0  0  0  0  0  0  0
    4.7391   -3.6933   25.5308 Cl  0  0  0  0  0  0  0  0  0  0  0  0
    7.3461   -4.3932   25.5253 C   0  0  0  0  0  0  0  0  0  0  0  0
    8.6222   -4.3350   25.0078 C   0  0  0  0  0  0  0  0  0  0  0  0
    8.9004   -3.5367   23.9062 C   0  0  0  0  0  0  0  0  0  0  0  0
   10.3226   -3.3939   23.5009 C   0  0  0  0  0  0  0  0  0  0  0  0
   11.2449   -3.7219   24.2394 O   0  0  0  0  0  0  0  0  0  0  0  0
    9.4426   -4.9001   25.4311 H   0  0  0  0  0  0  0  0  0  0  0  0
    7.1239   -4.9897   26.4045 H   0  0  0  0  0  0  0  0  0  0  0  0
    5.7889   -2.3748   23.2613 H   0  0  0  0  0  0  0  0  0  0  0  0
    9.7868   -1.8836   20.5854 H   0  0  0  0  0  0  0  0  0  0  0  0
    9.1210   -3.5094   20.8990 H   0  0  0  0  0  0  0  0  0  0  0  0
   11.9659   -2.4385   20.8247 H   0  0  0  0  0  0  0  0  0  0  0  0
   12.5225   -3.3098   22.2937 H   0  0  0  0  0  0  0  0  0  0  0  0
   12.1963   -0.0721   21.8559 N   0  0  0  0  0  0  0  0  0  0  0  0
   12.9807   -1.7274   24.5968 H   0  0  0  0  0  0  0  0  0  0  0  0
   13.3399    1.0269   24.6766 H   0  0  0  0  0  0  0  0  0  0  0  0
   13.6460    2.6770   22.3421 H   0  0  0  0  0  0  0  0  0  0  0  0
   12.2294    2.2967   21.2736 H   0  0  0  0  0  0  0  0  0  0  0  0
   11.9886    2.8331   22.9686 H   0  0  0  0  0  0  0  0  0  0  0  0
  1  2  1  0
  2  3  1  0
  3  4  2  0
  4  5  1  0
  5  6  1  0
  6  7  1  0
  7  8  1  0
  9  8  1  6
  9 10  1  0
 10 11  1  0
 11 12  1  0
 12 13  1  0
 13 14  2  0
 14 15  1  0
 15 16  2  0
 16 17  1  0
 17 18  2  0
 18 19  1  0
 19 20  2  0
 20 21  1  0
 21 22  2  0
 21 23  1  0
 20 24  1  0
 19 25  1  0
 18 26  1  0
 16 27  1  0
 14 28  1  0
 12 29  1  0
 29 30  2  0
 11 31  1  0
 11 32  1  0
 10 33  1  0
 10 34  1  0
  9 35  1  0
 35 36  2  0
 36 37  1  0
 37 38  1  0
 37 39  2  0
 39 40  1  0
 40 41  2  0
 41 42  1  0
 42 43  2  0
 40 44  1  0
 39 45  1  0
 36 46  1  0
  8 47  1  0
  8 48  1  0
  6 49  1  0
  6 50  1  0
  5 51  2  0
  4 52  1  0
  3 53  1  0
  1 54  1  0
  1 55  1  0
  1 56  1  0
 51  2  1  0
 42  7  1  0
 29  9  1  0
 41 35  1  0
 22 13  1  0
 22 17  1  0
M  END
>  <cnnaffinities>  (64) 
[6.81669]

>  <score>  (64) 
6.81669

>  <index>  (64) 
63

>  <Smiles>  (64) 
C(n1c(c(c(C(N2C([C@]3(C(C(N(c4c(nc(c5c(c(c(c(c45)[H])[H])[H])[H])[H])[H])C3=O)([H])[H])([H])[H])c3c(c(Cl)c(c(c3C2=O)[H])[H])[H])([H])[H])([H])[H])n1)[H])[H])([H])([H])[H]

>  <h>  (64) 
<NA>

>  <Training>  (64) 
True

>  <Success>  (64) 
True

>  <enamine_searched>  (64) 
False

>  <enamine_id>  (64) 
nan

$$$$

     RDKit          3D

 66 71  0  0  0  0  0  0  0  0999 V2000
    7.2633   -2.2153   24.0096 C   0  0  0  0  0  0  0  0  0  0  0  0
    7.6234   -1.6454   22.6457 C   0  0  1  0  0  0  0  0  0  0  0  0
    6.4327   -1.4612   21.6980 C   0  0  0  0  0  0  0  0  0  0  0  0
    6.8888   -0.4150   20.8017 N   0  0  0  0  0  0  0  0  0  0  0  0
    6.1171    0.0942   19.7341 C   0  0  0  0  0  0  0  0  0  0  0  0
    6.4556   -0.2107   18.4429 C   0  0  0  0  0  0  0  0  0  0  0  0
    5.7713    0.2214   17.3557 N   0  0  0  0  0  0  0  0  0  0  0  0
    4.7415    1.0053   17.5727 C   0  0  0  0  0  0  0  0  0  0  0  0
    4.2954    1.4125   18.8637 C   0  0  0  0  0  0  0  0  0  0  0  0
    3.1752    2.2642   19.0403 C   0  0  0  0  0  0  0  0  0  0  0  0
    2.7781    2.6259   20.2975 C   0  0  0  0  0  0  0  0  0  0  0  0
    3.4792    2.1632   21.4326 C   0  0  0  0  0  0  0  0  0  0  0  0
    4.5722    1.3449   21.2918 C   0  0  0  0  0  0  0  0  0  0  0  0
    4.9988    0.9407   19.9931 C   0  0  0  0  0  0  0  0  0  0  0  0
    5.1132    1.0283   22.1774 H   0  0  0  0  0  0  0  0  0  0  0  0
    3.1557    2.4655   22.4244 H   0  0  0  0  0  0  0  0  0  0  0  0
    1.9260    3.2856   20.4317 H   0  0  0  0  0  0  0  0  0  0  0  0
    2.6546    2.6203   18.1574 H   0  0  0  0  0  0  0  0  0  0  0  0
    4.1966    1.3618   16.6994 H   0  0  0  0  0  0  0  0  0  0  0  0
    7.3199   -0.8455   18.2610 H   0  0  0  0  0  0  0  0  0  0  0  0
    8.0010    0.2683   21.2396 C   0  0  0  0  0  0  0  0  0  0  0  0
    8.5670    1.1402   20.6061 O   0  0  0  0  0  0  0  0  0  0  0  0
    8.3884   -0.2872   22.6264 C   0  0  1  0  0  0  0  0  0  0  0  0
    7.9553    0.6651   23.7679 C   0  0  0  0  0  0  0  0  0  0  0  0
    8.7152    1.9013   23.7391 N   0  0  0  0  0  0  0  0  0  0  0  0
    8.0464    3.1782   23.8375 C   0  0  0  0  0  0  0  0  0  0  0  0
    7.7522    3.7989   22.4738 C   0  0  0  0  0  0  0  0  0  0  0  0
    7.2198    5.1792   22.7151 N   0  0  0  0  0  4  0  0  0  0  0  0
    5.7493    5.2098   23.0762 C   0  0  0  0  0  0  0  0  0  0  0  0
    4.9001    5.4573   21.8247 C   0  0  0  0  0  0  0  0  0  0  0  0
    5.5768    5.0299   20.6634 O   0  0  0  0  0  0  0  0  0  0  0  0
    6.6356    5.9260   20.3869 C   0  0  0  0  0  0  0  0  0  0  0  0
    7.5164    6.1676   21.6315 C   0  0  0  0  0  0  0  0  0  0  0  0
    7.3022    7.1557   22.0401 H   0  0  0  0  0  0  0  0  0  0  0  0
    8.5857    6.1394   21.3807 H   0  0  0  0  0  0  0  0  0  0  0  0
    7.2096    5.4776   19.5828 H   0  0  0  0  0  0  0  0  0  0  0  0
    6.2263    6.8926   20.0383 H   0  0  0  0  0  0  0  0  0  0  0  0
    3.9691    4.8933   21.8735 H   0  0  0  0  0  0  0  0  0  0  0  0
    4.6856    6.5338   21.7372 H   0  0  0  0  0  0  0  0  0  0  0  0
    5.6004    6.0113   23.8039 H   0  0  0  0  0  0  0  0  0  0  0  0
    5.4765    4.2602   23.5420 H   0  0  0  0  0  0  0  0  0  0  0  0
    7.7308    5.5135   23.5438 H   0  0  0  0  0  0  0  0  0  0  0  0
    8.6743    3.8832   21.8897 H   0  0  0  0  0  0  0  0  0  0  0  0
    7.0247    3.2196   21.8979 H   0  0  0  0  0  0  0  0  0  0  0  0
    7.1173    3.0684   24.4127 H   0  0  0  0  0  0  0  0  0  0  0  0
    8.6935    3.8568   24.3948 H   0  0  0  0  0  0  0  0  0  0  0  0
   10.0863    1.8900   23.7087 C   0  0  0  0  0  0  0  0  0  0  0  0
   10.7694    2.8531   24.0292 O   0  0  0  0  0  0  0  0  0  0  0  0
   10.7059    0.6115   23.2140 C   0  0  0  0  0  0  0  0  0  0  0  0
   12.0965    0.4679   23.2036 C   0  0  0  0  0  0  0  0  0  0  0  0
   12.6916   -0.6445   22.6257 C   0  0  0  0  0  0  0  0  0  0  0  0
   11.8586   -1.5742   21.9966 C   0  0  0  0  0  0  0  0  0  0  0  0
   12.3579   -2.9419   21.0592 Cl  0  0  0  0  0  0  0  0  0  0  0  0
   10.4946   -1.4507   22.0279 C   0  0  0  0  0  0  0  0  0  0  0  0
    9.8885   -0.3935   22.6853 C   0  0  0  0  0  0  0  0  0  0  0  0
    9.9390   -2.1995   21.4825 H   0  0  0  0  0  0  0  0  0  0  0  0
   13.7694   -0.7550   22.6466 H   0  0  0  0  0  0  0  0  0  0  0  0
   12.7073    1.2587   23.6297 H   0  0  0  0  0  0  0  0  0  0  0  0
    8.1356    0.1543   24.7276 H   0  0  0  0  0  0  0  0  0  0  0  0
    6.8869    0.9024   23.6915 H   0  0  0  0  0  0  0  0  0  0  0  0
    5.5140   -1.1849   22.2368 H   0  0  0  0  0  0  0  0  0  0  0  0
    6.2254   -2.3825   21.1422 H   0  0  0  0  0  0  0  0  0  0  0  0
    8.2645   -2.3839   22.1580 H   0  0  0  0  0  0  0  0  0  0  0  0
    6.8164   -3.2065   23.8809 H   0  0  0  0  0  0  0  0  0  0  0  0
    8.1601   -2.3188   24.6323 H   0  0  0  0  0  0  0  0  0  0  0  0
    6.5427   -1.5791   24.5377 H   0  0  0  0  0  0  0  0  0  0  0  0
  1  2  1  0
  2  3  1  0
  3  4  1  0
  4  5  1  0
  5  6  2  0
  6  7  1  0
  7  8  2  0
  8  9  1  0
  9 10  2  0
 10 11  1  0
 11 12  2  0
 12 13  1  0
 13 14  2  0
 13 15  1  0
 12 16  1  0
 11 17  1  0
 10 18  1  0
  8 19  1  0
  6 20  1  0
  4 21  1  0
 21 22  2  0
 21 23  1  0
 23 24  1  1
 24 25  1  0
 25 26  1  0
 26 27  1  0
 27 28  1  0
 28 29  1  0
 29 30  1  0
 30 31  1  0
 31 32  1  0
 32 33  1  0
 33 34  1  0
 33 35  1  0
 32 36  1  0
 32 37  1  0
 30 38  1  0
 30 39  1  0
 29 40  1  0
 29 41  1  0
 28 42  1  0
 27 43  1  0
 27 44  1  0
 26 45  1  0
 26 46  1  0
 25 47  1  0
 47 48  2  0
 47 49  1  0
 49 50  2  0
 50 51  1  0
 51 52  2  0
 52 53  1  0
 52 54  1  0
 54 55  2  0
 54 56  1  0
 51 57  1  0
 50 58  1  0
 24 59  1  0
 24 60  1  0
  3 61  1  0
  3 62  1  0
  2 63  1  6
  1 64  1  0
  1 65  1  0
  1 66  1  0
 23  2  1  0
 33 28  1  0
 55 49  1  0
 14  5  1  0
 55 23  1  0
 14  9  1  0
M  CHG  1  28   1
M  END
>  <cnnaffinities>  (65) 
[6.23828]

>  <score>  (65) 
6.23828

>  <index>  (65) 
64

>  <Smiles>  (65) 
C([C@]1(C(N(c2c(nc(c3c(c(c(c(c23)[H])[H])[H])[H])[H])[H])C(=O)[C@]21C(N(C(C([N+]1(C(C(OC(C1([H])[H])([H])[H])([H])[H])([H])[H])[H])([H])[H])([H])[H])C(=O)c1c(c(c(Cl)c(c21)[H])[H])[H])([H])[H])([H])[H])[H])([H])([H])[H]

>  <h>  (65) 
<NA>

>  <Training>  (65) 
True

>  <Success>  (65) 
True

>  <enamine_searched>  (65) 
False

>  <enamine_id>  (65) 
nan

$$$$

     RDKit          3D

 54 59  0  0  0  0  0  0  0  0999 V2000
   12.2201   -2.9786   21.2872 C   0  0  0  0  0  0  0  0  0  0  0  0
   11.6153   -1.9642   21.9785 N   0  0  0  0  0  0  0  0  0  0  0  0
   12.0945   -1.8468   23.4019 C   0  0  0  0  0  0  0  0  0  0  0  0
   12.7932   -2.6539   23.9379 O   0  0  0  0  0  0  0  0  0  0  0  0
   11.5958   -0.5466   23.9967 C   0  0  0  0  0  0  0  0  0  0  0  0
   10.1824   -0.5343   24.2728 N   0  0  0  0  0  0  0  0  0  0  0  0
    9.5278   -1.3942   25.1361 C   0  0  0  0  0  0  0  0  0  0  0  0
    9.9783   -2.4145   25.6120 O   0  0  0  0  0  0  0  0  0  0  0  0
    8.1516   -0.8337   25.2682 C   0  0  0  0  0  0  0  0  0  0  0  0
    7.1739   -1.1908   26.1557 C   0  0  0  0  0  0  0  0  0  0  0  0
    5.9670   -0.4564   26.1444 C   0  0  0  0  0  0  0  0  0  0  0  0
    5.8348    0.6507   25.3425 C   0  0  0  0  0  0  0  0  0  0  0  0
    4.3424    1.5307   25.3563 Cl  0  0  0  0  0  0  0  0  0  0  0  0
    6.9321    1.2229   24.5191 C   0  0  0  0  0  0  0  0  0  0  0  0
    7.9528    0.1505   24.2201 C   0  0  1  0  0  0  0  0  0  0  0  0
    9.2838    0.3155   23.5642 C   0  0  2  0  0  0  0  0  0  0  0  0
    8.1926   -0.3287   22.7603 C   0  0  2  0  0  0  0  0  0  0  0  0
    7.6710    0.5050   21.6187 C   0  0  0  0  0  0  0  0  0  0  0  0
    7.8246    1.6924   21.4222 O   0  0  0  0  0  0  0  0  0  0  0  0
    6.9263   -0.3358   20.8211 N   0  0  0  0  0  0  0  0  0  0  0  0
    6.1453    0.1386   19.7493 C   0  0  0  0  0  0  0  0  0  0  0  0
    6.4506   -0.2136   18.4604 C   0  0  0  0  0  0  0  0  0  0  0  0
    5.7726    0.2208   17.3728 N   0  0  0  0  0  0  0  0  0  0  0  0
    4.7557    1.0236   17.5857 C   0  0  0  0  0  0  0  0  0  0  0  0
    4.3109    1.4298   18.8759 C   0  0  0  0  0  0  0  0  0  0  0  0
    3.1886    2.2793   19.0551 C   0  0  0  0  0  0  0  0  0  0  0  0
    2.7613    2.6101   20.3115 C   0  0  0  0  0  0  0  0  0  0  0  0
    3.4280    2.1027   21.4521 C   0  0  0  0  0  0  0  0  0  0  0  0
    4.5186    1.2841   21.3047 C   0  0  0  0  0  0  0  0  0  0  0  0
    5.0053    0.9566   20.0064 C   0  0  0  0  0  0  0  0  0  0  0  0
    5.0123    0.8813   22.1858 H   0  0  0  0  0  0  0  0  0  0  0  0
    3.0825    2.3599   22.4513 H   0  0  0  0  0  0  0  0  0  0  0  0
    1.9006    3.2593   20.4412 H   0  0  0  0  0  0  0  0  0  0  0  0
    2.6823    2.6543   18.1705 H   0  0  0  0  0  0  0  0  0  0  0  0
    4.2182    1.3817   16.7095 H   0  0  0  0  0  0  0  0  0  0  0  0
    7.3034   -0.8660   18.2750 H   0  0  0  0  0  0  0  0  0  0  0  0
    7.0653   -1.7411   21.1520 C   0  0  0  0  0  0  0  0  0  0  0  0
    8.0230   -1.7335   22.3226 C   0  0  0  0  0  0  0  0  0  0  0  0
    8.5670   -2.8819   22.7487 C   0  0  0  0  0  0  0  0  0  0  0  0
    8.3348   -4.0265   22.0702 F   0  0  0  0  0  0  0  0  0  0  0  0
    9.1921   -3.0652   23.6144 H   0  0  0  0  0  0  0  0  0  0  0  0
    7.4681   -2.2849   20.3018 H   0  0  0  0  0  0  0  0  0  0  0  0
    6.0964   -2.1875   21.4133 H   0  0  0  0  0  0  0  0  0  0  0  0
    9.6629    1.2683   23.2040 H   0  0  0  0  0  0  0  0  0  0  0  0
    6.5349    1.6933   23.6091 H   0  0  0  0  0  0  0  0  0  0  0  0
    7.4315    2.0563   25.0506 H   0  0  0  0  0  0  0  0  0  0  0  0
    5.1496   -0.7420   26.8029 H   0  0  0  0  0  0  0  0  0  0  0  0
    7.3362   -2.0231   26.8343 H   0  0  0  0  0  0  0  0  0  0  0  0
   11.7558    0.2405   23.2612 H   0  0  0  0  0  0  0  0  0  0  0  0
   12.2040   -0.2691   24.8536 H   0  0  0  0  0  0  0  0  0  0  0  0
   11.8355   -1.0396   21.5378 H   0  0  0  0  0  0  0  0  0  0  0  0
   10.5607   -2.0279   21.9832 H   0  0  0  0  0  0  0  0  0  0  0  0
   12.9885   -3.4762   21.8374 H   0  0  0  0  0  0  0  0  0  0  0  0
   11.9679   -3.1578   20.2612 H   0  0  0  0  0  0  0  0  0  0  0  0
  1  2  1  0
  2  3  1  0
  3  4  2  0
  3  5  1  0
  5  6  1  0
  6  7  1  0
  7  8  2  0
  7  9  1  0
  9 10  2  0
 10 11  1  0
 11 12  2  0
 12 13  1  0
 12 14  1  0
 15 14  1  6
 15 16  1  0
 16 17  1  0
 17 18  1  6
 18 19  2  0
 18 20  1  0
 20 21  1  0
 21 22  2  0
 22 23  1  0
 23 24  2  0
 24 25  1  0
 25 26  2  0
 26 27  1  0
 27 28  2  0
 28 29  1  0
 29 30  2  0
 29 31  1  0
 28 32  1  0
 27 33  1  0
 26 34  1  0
 24 35  1  0
 22 36  1  0
 20 37  1  0
 37 38  1  0
 38 39  2  0
 39 40  1  0
 39 41  1  0
 37 42  1  0
 37 43  1  0
 16 44  1  6
 14 45  1  0
 14 46  1  0
 11 47  1  0
 10 48  1  0
  5 49  1  0
  5 50  1  0
  2 51  1  0
  1 52  1  0
  1 53  1  0
  1 54  1  0
 16  6  1  0
 38 17  1  0
 15  9  1  0
 30 21  1  0
 17 15  1  0
 30 25  1  0
M  END
>  <cnnaffinities>  (66) 
[6.49172]

>  <score>  (66) 
6.49172

>  <index>  (66) 
65

>  <Smiles>  (66) 
C(N(C(=O)C(N1C(=O)C2=C(C(=C(Cl)C([C@]32[C@@]1([C@@]13C(=O)N(c2c(nc(c3c(c(c(c(c23)[H])[H])[H])[H])[H])[H])C(/C/1=C(\F)/[H])([H])[H])[H])([H])[H])[H])[H])([H])[H])[H])([H])([H])[H]

>  <h>  (66) 
<NA>

>  <Training>  (66) 
True

>  <Success>  (66) 
True

>  <enamine_searched>  (66) 
False

>  <enamine_id>  (66) 
nan

$$$$

     RDKit          3D

 47 50  0  0  0  0  0  0  0  0999 V2000
    8.0160    1.6738   20.8307 O   0  0  0  0  0  0  0  0  0  0  0  0
    8.0183    0.5501   21.3106 C   0  0  0  0  0  0  0  0  0  0  0  0
    6.9531   -0.4784   20.9096 C   0  0  0  0  0  0  0  0  0  0  0  0
    6.1100    0.0418   19.7830 C   0  0  0  0  0  0  0  0  0  0  0  0
    6.4469   -0.2536   18.4894 C   0  0  0  0  0  0  0  0  0  0  0  0
    5.7994    0.1998   17.3822 N   0  0  0  0  0  0  0  0  0  0  0  0
    4.7811    1.0008   17.5849 C   0  0  0  0  0  0  0  0  0  0  0  0
    4.3244    1.4033   18.8677 C   0  0  0  0  0  0  0  0  0  0  0  0
    3.2125    2.2645   19.0379 C   0  0  0  0  0  0  0  0  0  0  0  0
    2.7991    2.6330   20.2880 C   0  0  0  0  0  0  0  0  0  0  0  0
    3.4930    2.1680   21.4291 C   0  0  0  0  0  0  0  0  0  0  0  0
    4.5811    1.3433   21.2930 C   0  0  0  0  0  0  0  0  0  0  0  0
    5.0154    0.9246   20.0082 C   0  0  0  0  0  0  0  0  0  0  0  0
    5.1277    1.0187   22.1744 H   0  0  0  0  0  0  0  0  0  0  0  0
    3.1594    2.4708   22.4173 H   0  0  0  0  0  0  0  0  0  0  0  0
    1.9409    3.2864   20.4142 H   0  0  0  0  0  0  0  0  0  0  0  0
    2.7034    2.6301   18.1490 H   0  0  0  0  0  0  0  0  0  0  0  0
    4.2560    1.3726   16.7019 H   0  0  0  0  0  0  0  0  0  0  0  0
    7.2985   -0.9026   18.2829 H   0  0  0  0  0  0  0  0  0  0  0  0
    6.3548   -0.7642   21.7852 H   0  0  0  0  0  0  0  0  0  0  0  0
    7.4869   -1.3792   20.5766 H   0  0  0  0  0  0  0  0  0  0  0  0
    8.9957    0.1614   22.2107 N   0  0  0  0  0  0  0  0  0  0  0  0
    9.2200   -1.2238   22.6085 C   0  0  0  0  0  0  0  0  0  0  0  0
    9.9351   -1.2940   23.9638 C   0  0  0  0  0  0  0  0  0  0  0  0
   11.2510   -0.4887   24.0054 C   0  0  1  0  0  0  0  0  0  0  0  0
   12.4249   -1.2573   23.3787 C   0  0  0  0  0  0  0  0  0  0  0  0
   13.7312   -0.4612   23.4402 C   0  0  0  0  0  0  0  0  0  0  0  0
   13.5224    0.7860   22.6163 C   0  0  0  0  0  0  0  0  0  0  0  0
   14.6623    1.5418   22.5413 F   0  0  0  0  0  0  0  0  0  0  0  0
   13.2534    0.3654   21.3296 F   0  0  0  0  0  0  0  0  0  0  0  0
   12.3810    1.6574   23.1028 C   0  0  0  0  0  0  0  0  0  0  0  0
   11.0586    0.9056   23.3631 C   0  0  1  0  0  0  0  0  0  0  0  0
   10.2622    0.8573   22.0679 C   0  0  0  0  0  0  0  0  0  0  0  0
   10.8493    0.3609   21.2894 H   0  0  0  0  0  0  0  0  0  0  0  0
   10.0678    1.8771   21.7290 H   0  0  0  0  0  0  0  0  0  0  0  0
   10.4568    1.4969   24.0628 H   0  0  0  0  0  0  0  0  0  0  0  0
   12.2045    2.4234   22.3370 H   0  0  0  0  0  0  0  0  0  0  0  0
   12.7266    2.1669   24.0053 H   0  0  0  0  0  0  0  0  0  0  0  0
   14.5565   -1.0166   22.9970 H   0  0  0  0  0  0  0  0  0  0  0  0
   14.0207   -0.1795   24.4589 H   0  0  0  0  0  0  0  0  0  0  0  0
   12.2104   -1.4220   22.3172 H   0  0  0  0  0  0  0  0  0  0  0  0
   12.5426   -2.2447   23.8433 H   0  0  0  0  0  0  0  0  0  0  0  0
   11.4988   -0.3092   25.0588 H   0  0  0  0  0  0  0  0  0  0  0  0
    9.2504   -0.9229   24.7382 H   0  0  0  0  0  0  0  0  0  0  0  0
   10.1383   -2.3539   24.1852 H   0  0  0  0  0  0  0  0  0  0  0  0
    8.2601   -1.7449   22.6659 H   0  0  0  0  0  0  0  0  0  0  0  0
    9.8283   -1.7296   21.8351 H   0  0  0  0  0  0  0  0  0  0  0  0
  1  2  2  0
  2  3  1  0
  3  4  1  0
  4  5  2  0
  5  6  1  0
  6  7  2  0
  7  8  1  0
  8  9  2  0
  9 10  1  0
 10 11  2  0
 11 12  1  0
 12 13  2  0
 12 14  1  0
 11 15  1  0
 10 16  1  0
  9 17  1  0
  7 18  1  0
  5 19  1  0
  3 20  1  0
  3 21  1  0
  2 22  1  0
 22 23  1  0
 23 24  1  0
 24 25  1  0
 25 26  1  0
 26 27  1  0
 27 28  1  0
 28 29  1  0
 28 30  1  0
 28 31  1  0
 31 32  1  0
 32 33  1  0
 33 34  1  0
 33 35  1  0
 32 36  1  1
 31 37  1  0
 31 38  1  0
 27 39  1  0
 27 40  1  0
 26 41  1  0
 26 42  1  0
 25 43  1  1
 24 44  1  0
 24 45  1  0
 23 46  1  0
 23 47  1  0
 13  4  1  0
 33 22  1  0
 13  8  1  0
 32 25  1  0
M  END
>  <cnnaffinities>  (67) 
[5.8298]

>  <score>  (67) 
5.8298

>  <index>  (67) 
66

>  <Smiles>  (67) 
O=C(C(c1c(nc(c2c(c(c(c(c12)[H])[H])[H])[H])[H])[H])([H])[H])N1C(C([C@]2(C(C(C(F)(F)C([C@]2(C1([H])[H])[H])([H])[H])([H])[H])([H])[H])[H])([H])[H])([H])[H]

>  <h>  (67) 
<NA>

>  <Training>  (67) 
True

>  <Success>  (67) 
True

>  <enamine_searched>  (67) 
False

>  <enamine_id>  (67) 
nan

$$$$

     RDKit          3D

 69 74  0  0  0  0  0  0  0  0999 V2000
    5.6712    4.8240   22.8934 C   0  0  0  0  0  0  0  0  0  0  0  0
    7.1409    4.9678   22.7912 N   0  0  0  0  0  4  0  0  0  0  0  0
    7.8524    3.6667   22.5719 C   0  0  0  0  0  0  0  0  0  0  0  0
    8.0662    2.9227   23.8996 C   0  0  0  0  0  0  0  0  0  0  0  0
    8.8061    1.7021   23.7316 N   0  0  0  0  0  0  0  0  0  0  0  0
    8.1165    0.4249   23.7533 C   0  0  0  0  0  0  0  0  0  0  0  0
    8.5149   -0.4374   22.5454 C   0  0  2  0  0  0  0  0  0  0  0  0
    8.0605    0.1917   21.2109 C   0  0  0  0  0  0  0  0  0  0  0  0
    8.6148    1.0753   20.5832 O   0  0  0  0  0  0  0  0  0  0  0  0
    6.8936   -0.4251   20.8222 N   0  0  0  0  0  0  0  0  0  0  0  0
    6.1263    0.0974   19.7525 C   0  0  0  0  0  0  0  0  0  0  0  0
    6.4527   -0.2173   18.4575 C   0  0  0  0  0  0  0  0  0  0  0  0
    5.7682    0.2215   17.3715 N   0  0  0  0  0  0  0  0  0  0  0  0
    4.7476    1.0161   17.5888 C   0  0  0  0  0  0  0  0  0  0  0  0
    4.3063    1.4293   18.8796 C   0  0  0  0  0  0  0  0  0  0  0  0
    3.1916    2.2915   19.0580 C   0  0  0  0  0  0  0  0  0  0  0  0
    2.7979    2.6675   20.3126 C   0  0  0  0  0  0  0  0  0  0  0  0
    3.4991    2.2031   21.4475 C   0  0  0  0  0  0  0  0  0  0  0  0
    4.5859    1.3742   21.3036 C   0  0  0  0  0  0  0  0  0  0  0  0
    5.0132    0.9594   20.0089 C   0  0  0  0  0  0  0  0  0  0  0  0
    5.1158    1.0276   22.1853 H   0  0  0  0  0  0  0  0  0  0  0  0
    3.1888    2.5223   22.4389 H   0  0  0  0  0  0  0  0  0  0  0  0
    1.9509    3.3347   20.4436 H   0  0  0  0  0  0  0  0  0  0  0  0
    2.6731    2.6484   18.1729 H   0  0  0  0  0  0  0  0  0  0  0  0
    4.2083    1.3763   16.7135 H   0  0  0  0  0  0  0  0  0  0  0  0
    7.3058   -0.8636   18.2600 H   0  0  0  0  0  0  0  0  0  0  0  0
    6.4948   -1.5332   21.6744 C   0  0  0  0  0  0  0  0  0  0  0  0
    7.7658   -1.8118   22.4876 C   0  0  2  0  0  0  0  0  0  0  0  0
    7.5314   -2.5733   23.7888 C   0  0  0  0  0  0  0  0  0  0  0  0
    6.5644   -1.8999   24.5803 O   0  0  0  0  0  0  0  0  0  0  0  0
    6.1792   -2.5967   25.7450 C   0  0  0  0  0  0  0  0  0  0  0  0
    4.8247   -3.2177   25.5685 C   0  0  0  0  0  0  0  0  0  0  0  0
    4.8516   -4.1870   24.5867 F   0  0  0  0  0  0  0  0  0  0  0  0
    3.9247   -3.4365   26.7302 C   0  0  0  0  0  0  0  0  0  0  0  0
    3.6009   -2.3813   25.6849 C   0  0  0  0  0  0  0  0  0  0  0  0
    3.7287   -1.3270   25.9141 H   0  0  0  0  0  0  0  0  0  0  0  0
    2.7838   -2.5965   25.0044 H   0  0  0  0  0  0  0  0  0  0  0  0
    4.2713   -3.1459   27.7193 H   0  0  0  0  0  0  0  0  0  0  0  0
    3.3167   -4.3348   26.7224 H   0  0  0  0  0  0  0  0  0  0  0  0
    6.1403   -1.8798   26.5765 H   0  0  0  0  0  0  0  0  0  0  0  0
    6.9054   -3.3817   25.9935 H   0  0  0  0  0  0  0  0  0  0  0  0
    7.1935   -3.5999   23.5770 H   0  0  0  0  0  0  0  0  0  0  0  0
    8.4766   -2.6564   24.3511 H   0  0  0  0  0  0  0  0  0  0  0  0
    8.3818   -2.4707   21.8712 H   0  0  0  0  0  0  0  0  0  0  0  0
    6.1795   -2.3936   21.0692 H   0  0  0  0  0  0  0  0  0  0  0  0
    5.6728   -1.2527   22.3434 H   0  0  0  0  0  0  0  0  0  0  0  0
   10.0142   -0.4815   22.5905 C   0  0  0  0  0  0  0  0  0  0  0  0
   10.6504   -1.5779   22.0553 C   0  0  0  0  0  0  0  0  0  0  0  0
   12.0152   -1.6477   22.0969 C   0  0  0  0  0  0  0  0  0  0  0  0
   12.6070   -3.1581   21.5596 Cl  0  0  0  0  0  0  0  0  0  0  0  0
   12.8129   -0.6069   22.5685 C   0  0  0  0  0  0  0  0  0  0  0  0
   12.1892    0.5292   23.0347 C   0  0  0  0  0  0  0  0  0  0  0  0
   10.8022    0.5815   23.0593 C   0  0  0  0  0  0  0  0  0  0  0  0
   10.1523    1.8159   23.5614 C   0  0  0  0  0  0  0  0  0  0  0  0
   10.7713    2.8523   23.7810 O   0  0  0  0  0  0  0  0  0  0  0  0
   12.7443    1.3913   23.3846 H   0  0  0  0  0  0  0  0  0  0  0  0
   13.8894   -0.6623   22.5684 H   0  0  0  0  0  0  0  0  0  0  0  0
   10.1171   -2.3997   21.6001 H   0  0  0  0  0  0  0  0  0  0  0  0
    7.0387    0.6081   23.7447 H   0  0  0  0  0  0  0  0  0  0  0  0
    8.3873   -0.1442   24.6524 H   0  0  0  0  0  0  0  0  0  0  0  0
    7.1263    2.6359   24.3876 H   0  0  0  0  0  0  0  0  0  0  0  0
    8.6760    3.5515   24.5471 H   0  0  0  0  0  0  0  0  0  0  0  0
    8.8206    3.8858   22.1258 H   0  0  0  0  0  0  0  0  0  0  0  0
    7.2832    3.0589   21.8661 H   0  0  0  0  0  0  0  0  0  0  0  0
    7.5000    5.3635   23.6955 H   0  0  0  0  0  0  0  0  0  0  0  0
    7.3673    5.6197   22.0129 H   0  0  0  0  0  0  0  0  0  0  0  0
    5.3992    4.1707   23.7263 H   0  0  0  0  0  0  0  0  0  0  0  0
    5.2094    5.7960   23.0506 H   0  0  0  0  0  0  0  0  0  0  0  0
    5.2622    4.3788   21.9819 H   0  0  0  0  0  0  0  0  0  0  0  0
  1  2  1  0
  2  3  1  0
  3  4  1  0
  4  5  1  0
  5  6  1  0
  7  6  1  1
  7  8  1  0
  8  9  2  0
  8 10  1  0
 10 11  1  0
 11 12  2  0
 12 13  1  0
 13 14  2  0
 14 15  1  0
 15 16  2  0
 16 17  1  0
 17 18  2  0
 18 19  1  0
 19 20  2  0
 19 21  1  0
 18 22  1  0
 17 23  1  0
 16 24  1  0
 14 25  1  0
 12 26  1  0
 10 27  1  0
 27 28  1  0
 28 29  1  0
 29 30  1  0
 30 31  1  0
 31 32  1  0
 32 33  1  0
 32 34  1  0
 34 35  1  0
 35 36  1  0
 35 37  1  0
 34 38  1  0
 34 39  1  0
 31 40  1  0
 31 41  1  0
 29 42  1  0
 29 43  1  0
 28 44  1  6
 27 45  1  0
 27 46  1  0
  7 47  1  0
 47 48  2  0
 48 49  1  0
 49 50  1  0
 49 51  2  0
 51 52  1  0
 52 53  2  0
 53 54  1  0
 54 55  2  0
 52 56  1  0
 51 57  1  0
 48 58  1  0
  6 59  1  0
  6 60  1  0
  4 61  1  0
  4 62  1  0
  3 63  1  0
  3 64  1  0
  2 65  1  0
  2 66  1  0
  1 67  1  0
  1 68  1  0
  1 69  1  0
 54  5  1  0
 28  7  1  0
 35 32  1  0
 53 47  1  0
 20 11  1  0
 20 15  1  0
M  CHG  1   2   1
M  END
>  <cnnaffinities>  (68) 
[6.57169]

>  <score>  (68) 
6.57169

>  <index>  (68) 
67

>  <Smiles>  (68) 
C([N+](C(C(N1C([C@@]2(C(=O)N(c3c(nc(c4c(c(c(c(c34)[H])[H])[H])[H])[H])[H])C([C@@]2(C(OC(C2(F)C(C2([H])[H])([H])[H])([H])[H])([H])[H])[H])([H])[H])c2c(c(Cl)c(c(c2C1=O)[H])[H])[H])([H])[H])([H])[H])([H])[H])([H])[H])([H])([H])[H]

>  <h>  (68) 
<NA>

>  <Training>  (68) 
True

>  <Success>  (68) 
True

>  <enamine_searched>  (68) 
False

>  <enamine_id>  (68) 
nan

$$$$

     RDKit          3D

 57 62  0  0  0  0  0  0  0  0999 V2000
   14.2444    1.2851   22.3728 C   0  0  0  0  0  0  0  0  0  0  0  0
   13.5614    0.0564   22.7827 C   0  0  0  0  0  0  0  0  0  0  0  0
   12.7133   -0.5854   21.9932 N   0  0  0  0  0  0  0  0  0  0  0  0
   12.3664   -1.7639   22.6812 C   0  0  0  0  0  0  0  0  0  0  0  0
   11.5454   -2.6711   22.0187 C   0  0  0  0  0  0  0  0  0  0  0  0
   10.2638   -2.8955   22.5183 N   0  0  0  0  0  0  0  0  0  0  0  0
    9.1411   -2.6227   21.6349 C   0  0  0  0  0  0  0  0  0  0  0  0
    7.9708   -1.9304   22.3536 C   0  0  2  0  0  0  0  0  0  0  0  0
    6.8184   -1.8183   21.3208 C   0  0  0  0  0  0  0  0  0  0  0  0
    6.0974   -2.7063   20.9107 O   0  0  0  0  0  0  0  0  0  0  0  0
    6.7350   -0.5061   20.9010 N   0  0  0  0  0  0  0  0  0  0  0  0
    5.9713   -0.0734   19.7921 C   0  0  0  0  0  0  0  0  0  0  0  0
    6.3193   -0.4131   18.5080 C   0  0  0  0  0  0  0  0  0  0  0  0
    5.7315    0.1045   17.3974 N   0  0  0  0  0  0  0  0  0  0  0  0
    4.7629    0.9720   17.5686 C   0  0  0  0  0  0  0  0  0  0  0  0
    4.2790    1.3772   18.8453 C   0  0  0  0  0  0  0  0  0  0  0  0
    3.2114    2.3021   18.9778 C   0  0  0  0  0  0  0  0  0  0  0  0
    2.7759    2.6819   20.2189 C   0  0  0  0  0  0  0  0  0  0  0  0
    3.3878    2.1539   21.3796 C   0  0  0  0  0  0  0  0  0  0  0  0
    4.4213    1.2527   21.2763 C   0  0  0  0  0  0  0  0  0  0  0  0
    4.8935    0.8451   19.9977 C   0  0  0  0  0  0  0  0  0  0  0  0
    4.8873    0.8438   22.1675 H   0  0  0  0  0  0  0  0  0  0  0  0
    3.0434    2.4724   22.3603 H   0  0  0  0  0  0  0  0  0  0  0  0
    1.9612    3.3962   20.3188 H   0  0  0  0  0  0  0  0  0  0  0  0
    2.7676    2.7042   18.0708 H   0  0  0  0  0  0  0  0  0  0  0  0
    4.3051    1.4102   16.6784 H   0  0  0  0  0  0  0  0  0  0  0  0
    7.1241   -1.1209   18.3217 H   0  0  0  0  0  0  0  0  0  0  0  0
    7.7421    0.3474   21.4848 C   0  0  0  0  0  0  0  0  0  0  0  0
    8.1834   -0.4254   22.7261 C   0  0  2  0  0  0  0  0  0  0  0  0
    9.5698    0.0194   23.1563 C   0  0  0  0  0  0  0  0  0  0  0  0
    9.5580    1.0823   23.4245 H   0  0  0  0  0  0  0  0  0  0  0  0
   10.2640   -0.1058   22.3204 H   0  0  0  0  0  0  0  0  0  0  0  0
    9.9529   -0.5533   24.0060 H   0  0  0  0  0  0  0  0  0  0  0  0
    7.4707   -0.2389   23.5393 H   0  0  0  0  0  0  0  0  0  0  0  0
    7.3492    1.3428   21.7165 H   0  0  0  0  0  0  0  0  0  0  0  0
    8.6001    0.4964   20.8083 H   0  0  0  0  0  0  0  0  0  0  0  0
    7.6739   -2.8050   23.5576 C   0  0  0  0  0  0  0  0  0  0  0  0
    6.3735   -2.8977   24.0481 C   0  0  0  0  0  0  0  0  0  0  0  0
    6.1365   -3.6565   25.1788 C   0  0  0  0  0  0  0  0  0  0  0  0
    4.8715   -3.7899   25.6049 F   0  0  0  0  0  0  0  0  0  0  0  0
    7.1432   -4.3004   25.8914 C   0  0  0  0  0  0  0  0  0  0  0  0
    8.4312   -4.2141   25.4065 C   0  0  0  0  0  0  0  0  0  0  0  0
    8.6907   -3.5023   24.2340 C   0  0  0  0  0  0  0  0  0  0  0  0
   10.0956   -3.4823   23.7508 C   0  0  0  0  0  0  0  0  0  0  0  0
   11.0313   -3.9420   24.3803 O   0  0  0  0  0  0  0  0  0  0  0  0
    9.2630   -4.7065   25.9041 H   0  0  0  0  0  0  0  0  0  0  0  0
    6.9071   -4.8522   26.7959 H   0  0  0  0  0  0  0  0  0  0  0  0
    5.5478   -2.4067   23.5431 H   0  0  0  0  0  0  0  0  0  0  0  0
    8.7399   -3.5594   21.2380 H   0  0  0  0  0  0  0  0  0  0  0  0
    9.5307   -2.0163   20.8193 H   0  0  0  0  0  0  0  0  0  0  0  0
   12.7690   -0.5994   20.9872 H   0  0  0  0  0  0  0  0  0  0  0  0
   11.8205   -3.0465   21.0382 H   0  0  0  0  0  0  0  0  0  0  0  0
   12.8584   -1.7269   23.9002 N   0  0  0  0  0  0  0  0  0  0  0  0
   13.6366   -0.5461   23.9355 O   0  0  0  0  0  0  0  0  0  0  0  0
   14.7984    1.0526   21.4682 H   0  0  0  0  0  0  0  0  0  0  0  0
   14.9377    1.6653   23.0986 H   0  0  0  0  0  0  0  0  0  0  0  0
   13.5064    2.0507   22.1350 H   0  0  0  0  0  0  0  0  0  0  0  0
  1  2  1  0
  2  3  2  0
  3  4  1  0
  4  5  1  0
  5  6  1  0
  6  7  1  0
  8  7  1  6
  8  9  1  0
  9 10  2  0
  9 11  1  0
 11 12  1  0
 12 13  2  0
 13 14  1  0
 14 15  2  0
 15 16  1  0
 16 17  2  0
 17 18  1  0
 18 19  2  0
 19 20  1  0
 20 21  2  0
 20 22  1  0
 19 23  1  0
 18 24  1  0
 17 25  1  0
 15 26  1  0
 13 27  1  0
 11 28  1  0
 28 29  1  0
 29 30  1  0
 30 31  1  0
 30 32  1  0
 30 33  1  0
 29 34  1  1
 28 35  1  0
 28 36  1  0
  8 37  1  0
 37 38  2  0
 38 39  1  0
 39 40  1  0
 39 41  2  0
 41 42  1  0
 42 43  2  0
 43 44  1  0
 44 45  2  0
 42 46  1  0
 41 47  1  0
 38 48  1  0
  7 49  1  0
  7 50  1  0
  5 51  1  0
  5 52  1  0
  4 53  2  0
 53 54  1  0
  1 55  1  0
  1 56  1  0
  1 57  1  0
 54  2  1  0
 44  6  1  0
 29  8  1  0
 43 37  1  0
 21 12  1  0
 21 16  1  0
M  END
>  <cnnaffinities>  (69) 
[6.70683]

>  <score>  (69) 
6.70683

>  <index>  (69) 
68

>  <Smiles>  (69) 
C(c1nc(C(N2C([C@@]3(C(=O)N(c4c(nc(c5c(c(c(c(c45)[H])[H])[H])[H])[H])[H])C([C@@]3(C([H])([H])[H])[H])([H])[H])c3c(c(F)c(c(c3C2=O)[H])[H])[H])([H])[H])([H])[H])no1)([H])([H])[H]

>  <h>  (69) 
<NA>

>  <Training>  (69) 
True

>  <Success>  (69) 
True

>  <enamine_searched>  (69) 
False

>  <enamine_id>  (69) 
nan

$$$$

     RDKit          3D

 64 68  0  0  0  0  0  0  0  0999 V2000
    2.5744   -3.6845   29.0528 C   0  0  0  0  0  0  0  0  0  0  0  0
    3.9046   -3.7113   28.3053 C   0  0  0  0  0  0  0  0  0  0  0  0
    3.7040   -3.6133   26.8088 C   0  0  0  0  0  0  0  0  0  0  0  0
    3.3439   -2.5663   26.3005 O   0  0  0  0  0  0  0  0  0  0  0  0
    3.9489   -4.7613   26.0607 N   0  0  0  0  0  0  0  0  0  0  0  0
    3.8962   -6.1114   26.6284 C   0  0  0  0  0  0  0  0  0  0  0  0
    3.1414   -7.0378   25.6891 C   0  0  0  0  0  0  0  0  0  0  0  0
    3.8200   -7.0766   24.3178 C   0  0  0  0  0  0  0  0  0  0  0  0
    4.4589   -5.7622   23.9103 C   0  0  0  0  0  0  0  0  0  0  0  0
    5.1212   -5.6554   22.6849 C   0  0  0  0  0  0  0  0  0  0  0  0
    5.8206   -4.5195   22.3195 C   0  0  0  0  0  0  0  0  0  0  0  0
    5.8313   -3.4116   23.1652 C   0  0  0  0  0  0  0  0  0  0  0  0
    6.4069   -2.1768   22.7365 N   0  0  0  0  0  0  0  0  0  0  0  0
    7.3244   -1.4395   23.6004 C   0  0  0  0  0  0  0  0  0  0  0  0
    8.7754   -1.5422   23.1634 C   0  0  0  0  0  0  0  0  0  0  0  0
    9.2668   -2.8392   23.0540 C   0  0  0  0  0  0  0  0  0  0  0  0
   10.5681   -3.0790   22.6575 C   0  0  0  0  0  0  0  0  0  0  0  0
   11.4204   -2.0305   22.3427 C   0  0  0  0  0  0  0  0  0  0  0  0
   10.9320   -0.7323   22.4385 C   0  0  0  0  0  0  0  0  0  0  0  0
   12.0155    0.5869   22.0521 Cl  0  0  0  0  0  0  0  0  0  0  0  0
    9.6252   -0.4693   22.8606 C   0  0  0  0  0  0  0  0  0  0  0  0
    9.3168    0.5752   22.9410 H   0  0  0  0  0  0  0  0  0  0  0  0
   12.4398   -2.2206   22.0270 H   0  0  0  0  0  0  0  0  0  0  0  0
   10.9154   -4.0953   22.6237 H   0  0  0  0  0  0  0  0  0  0  0  0
    8.6172   -3.6735   23.3001 H   0  0  0  0  0  0  0  0  0  0  0  0
    7.2271   -1.9019   24.5838 H   0  0  0  0  0  0  0  0  0  0  0  0
    7.0035   -0.3996   23.7056 H   0  0  0  0  0  0  0  0  0  0  0  0
    6.0481   -1.7471   21.4733 C   0  0  0  0  0  0  0  0  0  0  0  0
    5.1683   -2.2969   20.8370 O   0  0  0  0  0  0  0  0  0  0  0  0
    6.8182   -0.5661   20.8927 C   0  0  0  0  0  0  0  0  0  0  0  0
    6.0835    0.0703   19.7638 C   0  0  0  0  0  0  0  0  0  0  0  0
    6.4147   -0.2264   18.4673 C   0  0  0  0  0  0  0  0  0  0  0  0
    5.7733    0.2360   17.3666 N   0  0  0  0  0  0  0  0  0  0  0  0
    4.7434    1.0244   17.5764 C   0  0  0  0  0  0  0  0  0  0  0  0
    4.2776    1.3928   18.8696 C   0  0  0  0  0  0  0  0  0  0  0  0
    3.1513    2.2211   19.0699 C   0  0  0  0  0  0  0  0  0  0  0  0
    2.4844    2.6281   17.9752 F   0  0  0  0  0  0  0  0  0  0  0  0
    2.7281    2.6046   20.3097 C   0  0  0  0  0  0  0  0  0  0  0  0
    3.4293    2.1375   21.4416 C   0  0  0  0  0  0  0  0  0  0  0  0
    4.5132    1.3074   21.3031 C   0  0  0  0  0  0  0  0  0  0  0  0
    4.9658    0.9183   20.0101 C   0  0  0  0  0  0  0  0  0  0  0  0
    5.0267    0.9459   22.1903 H   0  0  0  0  0  0  0  0  0  0  0  0
    3.1032    2.4458   22.4322 H   0  0  0  0  0  0  0  0  0  0  0  0
    1.8739    3.2636   20.4111 H   0  0  0  0  0  0  0  0  0  0  0  0
    4.2192    1.4000   16.7038 H   0  0  0  0  0  0  0  0  0  0  0  0
    7.2576   -0.8885   18.2649 H   0  0  0  0  0  0  0  0  0  0  0  0
    7.0313    0.1625   21.6753 H   0  0  0  0  0  0  0  0  0  0  0  0
    7.7867   -0.9500   20.5494 H   0  0  0  0  0  0  0  0  0  0  0  0
    5.1647   -3.4740   24.3779 C   0  0  0  0  0  0  0  0  0  0  0  0
    4.5025   -4.6475   24.7649 C   0  0  0  0  0  0  0  0  0  0  0  0
    5.1529   -2.5969   25.0128 H   0  0  0  0  0  0  0  0  0  0  0  0
    6.3544   -4.4935   21.3768 H   0  0  0  0  0  0  0  0  0  0  0  0
    5.0730   -6.4813   21.9804 H   0  0  0  0  0  0  0  0  0  0  0  0
    4.5988   -7.8552   24.3321 H   0  0  0  0  0  0  0  0  0  0  0  0
    3.1061   -7.4044   23.5491 H   0  0  0  0  0  0  0  0  0  0  0  0
    3.1151   -8.0426   26.1259 H   0  0  0  0  0  0  0  0  0  0  0  0
    2.1082   -6.6961   25.5933 H   0  0  0  0  0  0  0  0  0  0  0  0
    4.9219   -6.4762   26.7756 H   0  0  0  0  0  0  0  0  0  0  0  0
    3.4103   -6.0822   27.6057 H   0  0  0  0  0  0  0  0  0  0  0  0
    4.4901   -4.6001   28.5493 H   0  0  0  0  0  0  0  0  0  0  0  0
    4.5073   -2.8441   28.5906 H   0  0  0  0  0  0  0  0  0  0  0  0
    2.7491   -3.5501   30.1239 H   0  0  0  0  0  0  0  0  0  0  0  0
    2.0128   -4.6129   28.9016 H   0  0  0  0  0  0  0  0  0  0  0  0
    1.9614   -2.8524   28.6962 H   0  0  0  0  0  0  0  0  0  0  0  0
  1  2  1  0
  2  3  1  0
  3  4  2  0
  3  5  1  0
  5  6  1  0
  6  7  1  0
  7  8  1  0
  8  9  1  0
  9 10  2  0
 10 11  1  0
 11 12  2  0
 12 13  1  0
 13 14  1  0
 14 15  1  0
 15 16  2  0
 16 17  1  0
 17 18  2  0
 18 19  1  0
 19 20  1  0
 19 21  2  0
 21 22  1  0
 18 23  1  0
 17 24  1  0
 16 25  1  0
 14 26  1  0
 14 27  1  0
 13 28  1  0
 28 29  2  0
 28 30  1  0
 30 31  1  0
 31 32  2  0
 32 33  1  0
 33 34  2  0
 34 35  1  0
 35 36  2  0
 36 37  1  0
 36 38  1  0
 38 39  2  0
 39 40  1  0
 40 41  2  0
 40 42  1  0
 39 43  1  0
 38 44  1  0
 34 45  1  0
 32 46  1  0
 30 47  1  0
 30 48  1  0
 12 49  1  0
 49 50  2  0
 49 51  1  0
 11 52  1  0
 10 53  1  0
  8 54  1  0
  8 55  1  0
  7 56  1  0
  7 57  1  0
  6 58  1  0
  6 59  1  0
  2 60  1  0
  2 61  1  0
  1 62  1  0
  1 63  1  0
  1 64  1  0
 50  5  1  0
 50  9  1  0
 21 15  1  0
 41 31  1  0
 41 35  1  0
M  END
>  <cnnaffinities>  (70) 
[6.15191, 6.12948]

>  <score>  (70) 
6.15191

>  <index>  (70) 
69

>  <Smiles>  (70) 
C(C(C(=O)N1C(C(C(c2c(c(c(N(C(c3c(c(c(c(Cl)c3[H])[H])[H])[H])([H])[H])C(=O)C(c3c(nc(c4c(F)c(c(c(c34)[H])[H])[H])[H])[H])([H])[H])c(c12)[H])[H])[H])([H])[H])([H])[H])([H])[H])([H])[H])([H])([H])[H]

>  <h>  (70) 
<NA>

>  <Training>  (70) 
True

>  <Success>  (70) 
True

>  <enamine_searched>  (70) 
False

>  <enamine_id>  (70) 
nan

$$$$

     RDKit          3D

 57 62  0  0  0  0  0  0  0  0999 V2000
    9.6577    0.0319   23.1024 C   0  0  0  0  0  0  0  0  0  0  0  0
    8.2580   -0.3858   22.6806 C   0  0  1  0  0  0  0  0  0  0  0  0
    7.7650    0.4174   21.4711 C   0  0  0  0  0  0  0  0  0  0  0  0
    6.7814   -0.4558   20.8631 N   0  0  0  0  0  0  0  0  0  0  0  0
    6.0210   -0.0150   19.7501 C   0  0  0  0  0  0  0  0  0  0  0  0
    6.3630   -0.3371   18.4599 C   0  0  0  0  0  0  0  0  0  0  0  0
    5.7445    0.1715   17.3601 N   0  0  0  0  0  0  0  0  0  0  0  0
    4.7595    1.0176   17.5471 C   0  0  0  0  0  0  0  0  0  0  0  0
    4.2881    1.4181   18.8323 C   0  0  0  0  0  0  0  0  0  0  0  0
    3.1934    2.3072   19.0042 C   0  0  0  0  0  0  0  0  0  0  0  0
    2.7721    2.6526   20.2598 C   0  0  0  0  0  0  0  0  0  0  0  0
    3.4271    2.1371   21.4007 C   0  0  0  0  0  0  0  0  0  0  0  0
    4.4891    1.2792   21.2608 C   0  0  0  0  0  0  0  0  0  0  0  0
    4.9408    0.8963   19.9697 C   0  0  0  0  0  0  0  0  0  0  0  0
    4.9887    0.8753   22.1349 H   0  0  0  0  0  0  0  0  0  0  0  0
    3.0906    2.4230   22.3928 H   0  0  0  0  0  0  0  0  0  0  0  0
    1.9291    3.3266   20.3904 H   0  0  0  0  0  0  0  0  0  0  0  0
    2.7042    2.7089   18.1206 H   0  0  0  0  0  0  0  0  0  0  0  0
    4.2763    1.4294   16.6580 H   0  0  0  0  0  0  0  0  0  0  0  0
    7.1804   -1.0277   18.2610 H   0  0  0  0  0  0  0  0  0  0  0  0
    6.8922   -1.7767   21.2518 C   0  0  0  0  0  0  0  0  0  0  0  0
    6.2067   -2.6812   20.8159 O   0  0  0  0  0  0  0  0  0  0  0  0
    8.0418   -1.8926   22.2804 C   0  0  1  0  0  0  0  0  0  0  0  0
    9.2222   -2.5655   21.5342 C   0  0  0  0  0  0  0  0  0  0  0  0
   10.3610   -2.8363   22.4070 N   0  0  0  0  0  0  0  0  0  0  0  0
   11.6649   -2.5712   21.9637 C   0  0  0  0  0  0  0  0  0  0  0  0
   12.4893   -1.6598   22.6263 C   0  0  0  0  0  0  0  0  0  0  0  0
   13.3258   -1.7055   23.7072 N   0  0  0  0  0  0  0  0  0  0  0  0
   13.9447   -0.5685   23.8256 N   0  0  0  0  0  0  0  0  0  0  0  0
   13.5853    0.2126   22.8362 N   0  0  0  0  0  0  0  0  0  0  0  0
   13.8434    1.6186   22.6893 C   0  0  0  0  0  0  0  0  0  0  0  0
   14.9107    1.7957   22.5833 H   0  0  0  0  0  0  0  0  0  0  0  0
   13.3197    1.9232   21.7943 H   0  0  0  0  0  0  0  0  0  0  0  0
   13.4256    2.2120   23.5012 H   0  0  0  0  0  0  0  0  0  0  0  0
   12.6756   -0.4282   22.0830 N   0  0  0  0  0  0  0  0  0  0  0  0
   11.9265   -2.8109   20.9311 H   0  0  0  0  0  0  0  0  0  0  0  0
   12.1169    0.0323   21.3962 H   0  0  0  0  0  0  0  0  0  0  0  0
   10.1920   -3.4611   23.6206 C   0  0  0  0  0  0  0  0  0  0  0  0
   11.1294   -3.9075   24.2570 O   0  0  0  0  0  0  0  0  0  0  0  0
    8.7855   -3.5062   24.1046 C   0  0  0  0  0  0  0  0  0  0  0  0
    8.5568   -4.2616   25.2505 C   0  0  0  0  0  0  0  0  0  0  0  0
    7.2818   -4.3786   25.7616 C   0  0  0  0  0  0  0  0  0  0  0  0
    6.2517   -3.7130   25.1127 C   0  0  0  0  0  0  0  0  0  0  0  0
    5.0090   -3.8278   25.6092 F   0  0  0  0  0  0  0  0  0  0  0  0
    6.4560   -2.9426   23.9841 C   0  0  0  0  0  0  0  0  0  0  0  0
    7.7474   -2.8084   23.4636 C   0  0  0  0  0  0  0  0  0  0  0  0
    5.6033   -2.4701   23.5155 H   0  0  0  0  0  0  0  0  0  0  0  0
    7.0761   -4.9901   26.6283 H   0  0  0  0  0  0  0  0  0  0  0  0
    9.4128   -4.7433   25.7141 H   0  0  0  0  0  0  0  0  0  0  0  0
    9.5902   -1.9453   20.7171 H   0  0  0  0  0  0  0  0  0  0  0  0
    8.8279   -3.5055   21.1305 H   0  0  0  0  0  0  0  0  0  0  0  0
    7.3217    1.3847   21.7411 H   0  0  0  0  0  0  0  0  0  0  0  0
    8.5837    0.6329   20.7658 H   0  0  0  0  0  0  0  0  0  0  0  0
    7.5677   -0.2009   23.5124 H   0  0  0  0  0  0  0  0  0  0  0  0
   10.3227   -0.0468   22.2412 H   0  0  0  0  0  0  0  0  0  0  0  0
   10.0378   -0.6081   23.9051 H   0  0  0  0  0  0  0  0  0  0  0  0
    9.6769    1.0768   23.4347 H   0  0  0  0  0  0  0  0  0  0  0  0
  1  2  1  0
  2  3  1  0
  3  4  1  0
  4  5  1  0
  5  6  2  0
  6  7  1  0
  7  8  2  0
  8  9  1  0
  9 10  2  0
 10 11  1  0
 11 12  2  0
 12 13  1  0
 13 14  2  0
 13 15  1  0
 12 16  1  0
 11 17  1  0
 10 18  1  0
  8 19  1  0
  6 20  1  0
  4 21  1  0
 21 22  2  0
 21 23  1  0
 23 24  1  6
 24 25  1  0
 25 26  1  0
 26 27  1  0
 27 28  1  0
 28 29  2  0
 29 30  1  0
 30 31  1  0
 31 32  1  0
 31 33  1  0
 31 34  1  0
 30 35  1  0
 26 36  1  0
 26 37  1  0
 25 38  1  0
 38 39  2  0
 38 40  1  0
 40 41  2  0
 41 42  1  0
 42 43  2  0
 43 44  1  0
 43 45  1  0
 45 46  2  0
 45 47  1  0
 42 48  1  0
 41 49  1  0
 24 50  1  0
 24 51  1  0
  3 52  1  0
  3 53  1  0
  2 54  1  1
  1 55  1  0
  1 56  1  0
  1 57  1  0
 23  2  1  0
 35 27  2  0
 46 40  1  0
 14  5  1  0
 46 23  1  0
 14  9  1  0
M  END
>  <cnnaffinities>  (71) 
[6.74113]

>  <score>  (71) 
6.74113

>  <index>  (71) 
70

>  <Smiles>  (71) 
C([C@]1(C(N(c2c(nc(c3c(c(c(c(c23)[H])[H])[H])[H])[H])[H])C(=O)[C@]21C(N(C(c1nnn(C([H])([H])[H])n1)([H])[H])C(=O)c1c(c(c(F)c(c21)[H])[H])[H])([H])[H])([H])[H])[H])([H])([H])[H]

>  <h>  (71) 
<NA>

>  <Training>  (71) 
True

>  <Success>  (71) 
True

>  <enamine_searched>  (71) 
False

>  <enamine_id>  (71) 
nan

$$$$

     RDKit          3D

 59 64  0  0  0  0  0  0  0  0999 V2000
    7.5729   -2.9868   23.3239 C   0  0  0  0  0  0  0  0  0  0  0  0
    7.8437   -1.9316   22.2560 C   0  0  1  0  0  0  0  0  0  0  0  0
    6.7391   -1.8272   21.1968 C   0  0  0  0  0  0  0  0  0  0  0  0
    6.8648   -0.4604   20.7330 N   0  0  0  0  0  0  0  0  0  0  0  0
    6.0854    0.0780   19.6975 C   0  0  0  0  0  0  0  0  0  0  0  0
    6.4065   -0.2364   18.4056 C   0  0  0  0  0  0  0  0  0  0  0  0
    5.7449    0.2322   17.3240 N   0  0  0  0  0  0  0  0  0  0  0  0
    4.7334    1.0353   17.5596 C   0  0  0  0  0  0  0  0  0  0  0  0
    4.2917    1.4241   18.8570 C   0  0  0  0  0  0  0  0  0  0  0  0
    3.1748    2.2772   19.0394 C   0  0  0  0  0  0  0  0  0  0  0  0
    2.7487    2.6125   20.2934 C   0  0  0  0  0  0  0  0  0  0  0  0
    3.4215    2.1131   21.4308 C   0  0  0  0  0  0  0  0  0  0  0  0
    4.5108    1.2947   21.2848 C   0  0  0  0  0  0  0  0  0  0  0  0
    4.9794    0.9336   19.9840 C   0  0  0  0  0  0  0  0  0  0  0  0
    5.0179    0.9318   22.1752 H   0  0  0  0  0  0  0  0  0  0  0  0
    3.0719    2.3797   22.4241 H   0  0  0  0  0  0  0  0  0  0  0  0
    1.8871    3.2589   20.4209 H   0  0  0  0  0  0  0  0  0  0  0  0
    2.6731    2.6519   18.1532 H   0  0  0  0  0  0  0  0  0  0  0  0
    4.1932    1.4111   16.6934 H   0  0  0  0  0  0  0  0  0  0  0  0
    7.2619   -0.8880   18.2243 H   0  0  0  0  0  0  0  0  0  0  0  0
    7.5873    0.3641   21.5540 C   0  0  0  0  0  0  0  0  0  0  0  0
    7.7584    1.5512   21.3542 O   0  0  0  0  0  0  0  0  0  0  0  0
    8.0459   -0.4518   22.7478 C   0  0  1  0  0  0  0  0  0  0  0  0
    7.1374   -0.0179   23.9395 C   0  0  0  0  0  0  0  0  0  0  0  0
    7.6039   -0.5742   25.1938 N   0  0  0  0  0  0  0  0  0  0  0  0
    6.7148   -0.9631   26.2874 C   0  0  0  0  0  0  0  0  0  0  0  0
    6.4341    0.1849   27.2075 C   0  0  0  0  0  0  0  0  0  0  0  0
    7.1672    0.5173   28.2445 N   0  0  0  0  0  0  0  0  0  0  0  0
    6.5832    1.6531   28.7523 C   0  0  0  0  0  0  0  0  0  0  0  0
    5.4900    1.9975   28.0106 C   0  0  0  0  0  0  0  0  0  0  0  0
    5.3948    1.0485   27.0182 N   0  0  0  0  0  0  0  0  0  0  0  0
    4.3982    0.9838   25.9685 C   0  0  0  0  0  0  0  0  0  0  0  0
    4.7728    1.3885   25.0194 H   0  0  0  0  0  0  0  0  0  0  0  0
    4.0871   -0.0537   25.8192 H   0  0  0  0  0  0  0  0  0  0  0  0
    3.5216    1.5605   26.2686 H   0  0  0  0  0  0  0  0  0  0  0  0
    4.7609    2.7900   28.1082 H   0  0  0  0  0  0  0  0  0  0  0  0
    6.9745    2.1347   29.6376 H   0  0  0  0  0  0  0  0  0  0  0  0
    7.2313   -1.7362   26.8662 H   0  0  0  0  0  0  0  0  0  0  0  0
    5.7876   -1.3910   25.8939 H   0  0  0  0  0  0  0  0  0  0  0  0
    8.9318   -0.7911   25.4058 C   0  0  0  0  0  0  0  0  0  0  0  0
    9.3147   -1.4538   26.3564 O   0  0  0  0  0  0  0  0  0  0  0  0
    9.8714   -0.2099   24.3944 C   0  0  0  0  0  0  0  0  0  0  0  0
   11.1748    0.1066   24.7439 C   0  0  0  0  0  0  0  0  0  0  0  0
   12.1508    0.2942   23.7922 C   0  0  0  0  0  0  0  0  0  0  0  0
   11.7643    0.1982   22.4569 C   0  0  0  0  0  0  0  0  0  0  0  0
   12.7196    0.2996   21.5265 F   0  0  0  0  0  0  0  0  0  0  0  0
   10.4469    0.0125   22.0733 C   0  0  0  0  0  0  0  0  0  0  0  0
    9.4797   -0.1610   23.0665 C   0  0  0  0  0  0  0  0  0  0  0  0
   10.1659   -0.0266   21.0285 H   0  0  0  0  0  0  0  0  0  0  0  0
   13.1907    0.4705   24.0619 H   0  0  0  0  0  0  0  0  0  0  0  0
   11.3726    0.1708   25.7972 H   0  0  0  0  0  0  0  0  0  0  0  0
    6.1043   -0.3478   23.7496 H   0  0  0  0  0  0  0  0  0  0  0  0
    7.1544    1.0867   23.9582 H   0  0  0  0  0  0  0  0  0  0  0  0
    6.8663   -2.5117   20.3574 H   0  0  0  0  0  0  0  0  0  0  0  0
    5.7475   -2.0193   21.6377 H   0  0  0  0  0  0  0  0  0  0  0  0
    8.7796   -2.2034   21.7438 H   0  0  0  0  0  0  0  0  0  0  0  0
    6.6285   -2.7783   23.8377 H   0  0  0  0  0  0  0  0  0  0  0  0
    7.4973   -3.9833   22.8748 H   0  0  0  0  0  0  0  0  0  0  0  0
    8.3727   -2.9998   24.0732 H   0  0  0  0  0  0  0  0  0  0  0  0
  1  2  1  0
  2  3  1  0
  3  4  1  0
  4  5  1  0
  5  6  2  0
  6  7  1  0
  7  8  2  0
  8  9  1  0
  9 10  2  0
 10 11  1  0
 11 12  2  0
 12 13  1  0
 13 14  2  0
 13 15  1  0
 12 16  1  0
 11 17  1  0
 10 18  1  0
  8 19  1  0
  6 20  1  0
  4 21  1  0
 21 22  2  0
 21 23  1  0
 23 24  1  1
 24 25  1  0
 25 26  1  0
 26 27  1  0
 27 28  2  0
 28 29  1  0
 29 30  2  0
 30 31  1  0
 31 32  1  0
 32 33  1  0
 32 34  1  0
 32 35  1  0
 30 36  1  0
 29 37  1  0
 26 38  1  0
 26 39  1  0
 25 40  1  0
 40 41  2  0
 40 42  1  0
 42 43  2  0
 43 44  1  0
 44 45  2  0
 45 46  1  0
 45 47  1  0
 47 48  2  0
 47 49  1  0
 44 50  1  0
 43 51  1  0
 24 52  1  0
 24 53  1  0
  3 54  1  0
  3 55  1  0
  2 56  1  6
  1 57  1  0
  1 58  1  0
  1 59  1  0
 23  2  1  0
 31 27  1  0
 48 42  1  0
 14  5  1  0
 48 23  1  0
 14  9  1  0
M  END
>  <cnnaffinities>  (72) 
[6.31811]

>  <score>  (72) 
6.31811

>  <index>  (72) 
71

>  <Smiles>  (72) 
C([C@]1(C(N(c2c(nc(c3c(c(c(c(c23)[H])[H])[H])[H])[H])[H])C(=O)[C@]21C(N(C(c1nc(c(n1C([H])([H])[H])[H])[H])([H])[H])C(=O)c1c(c(c(F)c(c21)[H])[H])[H])([H])[H])([H])[H])[H])([H])([H])[H]

>  <h>  (72) 
<NA>

>  <Training>  (72) 
True

>  <Success>  (72) 
True

>  <enamine_searched>  (72) 
False

>  <enamine_id>  (72) 
nan

$$$$

     RDKit          3D

 60 64  0  0  0  0  0  0  0  0999 V2000
    7.0407    1.1793   29.1300 C   0  0  0  0  0  0  0  0  0  0  0  0
    7.1610    0.1763   28.0912 N   0  0  0  0  0  0  0  0  0  0  0  0
    6.2582    0.1144   27.0820 C   0  0  0  0  0  0  0  0  0  0  0  0
    5.3030    0.8685   27.0050 O   0  0  0  0  0  0  0  0  0  0  0  0
    6.4955   -0.9903   26.0293 C   0  0  0  0  0  0  0  0  0  0  0  0
    7.4964   -0.6746   25.0109 N   0  0  0  0  0  0  0  0  0  0  0  0
    7.1325   -0.0776   23.7307 C   0  0  0  0  0  0  0  0  0  0  0  0
    8.0936   -0.4914   22.5701 C   0  0  2  0  0  0  0  0  0  0  0  0
    7.6849    0.3148   21.3315 C   0  0  0  0  0  0  0  0  0  0  0  0
    7.9586    1.4637   21.0491 O   0  0  0  0  0  0  0  0  0  0  0  0
    6.8491   -0.4875   20.5770 N   0  0  0  0  0  0  0  0  0  0  0  0
    6.0365    0.0502   19.5431 C   0  0  0  0  0  0  0  0  0  0  0  0
    6.2836   -0.2867   18.2383 C   0  0  0  0  0  0  0  0  0  0  0  0
    5.6074    0.2090   17.1721 N   0  0  0  0  0  0  0  0  0  0  0  0
    4.6332    1.0533   17.4148 C   0  0  0  0  0  0  0  0  0  0  0  0
    4.2255    1.4417   18.7215 C   0  0  0  0  0  0  0  0  0  0  0  0
    3.1267    2.3204   18.9290 C   0  0  0  0  0  0  0  0  0  0  0  0
    2.7280    2.6448   20.1972 C   0  0  0  0  0  0  0  0  0  0  0  0
    3.4000    2.0992   21.3145 C   0  0  0  0  0  0  0  0  0  0  0  0
    4.4665    1.2531   21.1341 C   0  0  0  0  0  0  0  0  0  0  0  0
    4.9261    0.9133   19.8290 C   0  0  0  0  0  0  0  0  0  0  0  0
    4.9582    0.8283   22.0011 H   0  0  0  0  0  0  0  0  0  0  0  0
    3.0683    2.3571   22.3182 H   0  0  0  0  0  0  0  0  0  0  0  0
    1.8919    3.3214   20.3547 H   0  0  0  0  0  0  0  0  0  0  0  0
    2.6133    2.7263   18.0587 H   0  0  0  0  0  0  0  0  0  0  0  0
    4.1080    1.4689   16.5540 H   0  0  0  0  0  0  0  0  0  0  0  0
    7.0864   -0.9866   18.0128 H   0  0  0  0  0  0  0  0  0  0  0  0
    6.6565   -1.8131   21.1455 C   0  0  0  0  0  0  0  0  0  0  0  0
    7.8670   -1.9595   22.0664 C   0  0  2  0  0  0  0  0  0  0  0  0
    7.7116   -2.9812   23.0842 N   0  0  0  0  0  0  0  0  0  0  0  0
    8.8162   -3.3630   23.8200 C   0  0  0  0  0  0  0  0  0  0  0  0
    9.9470   -3.1590   23.4283 O   0  0  0  0  0  0  0  0  0  0  0  0
    8.5348   -4.0553   25.1393 C   0  0  0  0  0  0  0  0  0  0  0  0
    9.1368   -3.5609   25.9049 H   0  0  0  0  0  0  0  0  0  0  0  0
    7.4845   -3.9601   25.4122 H   0  0  0  0  0  0  0  0  0  0  0  0
    8.7970   -5.1188   25.1218 H   0  0  0  0  0  0  0  0  0  0  0  0
    6.8414   -2.9380   23.5903 H   0  0  0  0  0  0  0  0  0  0  0  0
    8.7568   -2.2266   21.4828 H   0  0  0  0  0  0  0  0  0  0  0  0
    6.6127   -2.5733   20.3685 H   0  0  0  0  0  0  0  0  0  0  0  0
    5.7234   -1.8675   21.7314 H   0  0  0  0  0  0  0  0  0  0  0  0
    9.5031   -0.2550   23.0282 C   0  0  0  0  0  0  0  0  0  0  0  0
   10.5463   -0.0660   22.1117 C   0  0  0  0  0  0  0  0  0  0  0  0
   11.8218    0.1960   22.5790 C   0  0  0  0  0  0  0  0  0  0  0  0
   13.1777    0.3262   21.5104 Cl  0  0  0  0  0  0  0  0  0  0  0  0
   12.0797    0.3578   23.9379 C   0  0  0  0  0  0  0  0  0  0  0  0
   11.0682    0.0686   24.8249 C   0  0  0  0  0  0  0  0  0  0  0  0
    9.8058   -0.2961   24.3877 C   0  0  0  0  0  0  0  0  0  0  0  0
    8.7933   -0.7337   25.3904 C   0  0  0  0  0  0  0  0  0  0  0  0
    9.1034   -1.1086   26.5213 O   0  0  0  0  0  0  0  0  0  0  0  0
   11.2034    0.1135   25.8878 H   0  0  0  0  0  0  0  0  0  0  0  0
   13.0466    0.7291   24.2658 H   0  0  0  0  0  0  0  0  0  0  0  0
   10.3620   -0.0985   21.0427 H   0  0  0  0  0  0  0  0  0  0  0  0
    7.1657    1.0206   23.7838 H   0  0  0  0  0  0  0  0  0  0  0  0
    6.1047   -0.3730   23.4948 H   0  0  0  0  0  0  0  0  0  0  0  0
    5.5493   -1.1624   25.5193 H   0  0  0  0  0  0  0  0  0  0  0  0
    6.7879   -1.9199   26.5337 H   0  0  0  0  0  0  0  0  0  0  0  0
    7.9878   -0.3978   28.0236 H   0  0  0  0  0  0  0  0  0  0  0  0
    6.0571    1.1200   29.6057 H   0  0  0  0  0  0  0  0  0  0  0  0
    7.1492    2.1983   28.7405 H   0  0  0  0  0  0  0  0  0  0  0  0
    7.8168    1.0039   29.8809 H   0  0  0  0  0  0  0  0  0  0  0  0
  1  2  1  0
  2  3  1  0
  3  4  2  0
  3  5  1  0
  5  6  1  0
  6  7  1  0
  8  7  1  1
  8  9  1  0
  9 10  2  0
  9 11  1  0
 11 12  1  0
 12 13  2  0
 13 14  1  0
 14 15  2  0
 15 16  1  0
 16 17  2  0
 17 18  1  0
 18 19  2  0
 19 20  1  0
 20 21  2  0
 20 22  1  0
 19 23  1  0
 18 24  1  0
 17 25  1  0
 15 26  1  0
 13 27  1  0
 11 28  1  0
 28 29  1  0
 29 30  1  0
 30 31  1  0
 31 32  2  0
 31 33  1  0
 33 34  1  0
 33 35  1  0
 33 36  1  0
 30 37  1  0
 29 38  1  6
 28 39  1  0
 28 40  1  0
  8 41  1  0
 41 42  2  0
 42 43  1  0
 43 44  1  0
 43 45  2  0
 45 46  1  0
 46 47  2  0
 47 48  1  0
 48 49  2  0
 46 50  1  0
 45 51  1  0
 42 52  1  0
  7 53  1  0
  7 54  1  0
  5 55  1  0
  5 56  1  0
  2 57  1  0
  1 58  1  0
  1 59  1  0
  1 60  1  0
 48  6  1  0
 29  8  1  0
 47 41  1  0
 21 12  1  0
 21 16  1  0
M  END
>  <cnnaffinities>  (73) 
[5.73975, 6.09181]

>  <score>  (73) 
5.73975

>  <index>  (73) 
72

>  <Smiles>  (73) 
C(N(C(=O)C(N1C([C@@]2(C(=O)N(c3c(nc(c4c(c(c(c(c34)[H])[H])[H])[H])[H])[H])C([C@@]2(N(C(=O)C([H])([H])[H])[H])[H])([H])[H])c2c(c(Cl)c(c(c2C1=O)[H])[H])[H])([H])[H])([H])[H])[H])([H])([H])[H]

>  <h>  (73) 
<NA>

>  <Training>  (73) 
True

>  <Success>  (73) 
True

>  <enamine_searched>  (73) 
False

>  <enamine_id>  (73) 
nan

$$$$

     RDKit          3D

 56 61  0  0  0  0  0  0  0  0999 V2000
    7.2416   -2.3564   23.9414 C   0  0  0  0  0  0  0  0  0  0  0  0
    7.6932   -1.7625   22.6048 C   0  0  1  0  0  0  0  0  0  0  0  0
    6.5283   -1.5764   21.6156 C   0  0  0  0  0  0  0  0  0  0  0  0
    6.9151   -0.4278   20.8227 N   0  0  0  0  0  0  0  0  0  0  0  0
    6.1326    0.0957   19.7594 C   0  0  0  0  0  0  0  0  0  0  0  0
    6.4534   -0.2150   18.4645 C   0  0  0  0  0  0  0  0  0  0  0  0
    5.7697    0.2269   17.3789 N   0  0  0  0  0  0  0  0  0  0  0  0
    4.7468    1.0171   17.5941 C   0  0  0  0  0  0  0  0  0  0  0  0
    4.2997    1.4179   18.8872 C   0  0  0  0  0  0  0  0  0  0  0  0
    3.1830    2.2784   19.0656 C   0  0  0  0  0  0  0  0  0  0  0  0
    2.7798    2.6432   20.3207 C   0  0  0  0  0  0  0  0  0  0  0  0
    3.4734    2.1652   21.4547 C   0  0  0  0  0  0  0  0  0  0  0  0
    4.5527    1.3279   21.3103 C   0  0  0  0  0  0  0  0  0  0  0  0
    5.0040    0.9379   20.0161 C   0  0  0  0  0  0  0  0  0  0  0  0
    5.0732    0.9669   22.1944 H   0  0  0  0  0  0  0  0  0  0  0  0
    3.1595    2.4719   22.4500 H   0  0  0  0  0  0  0  0  0  0  0  0
    1.9301    3.3104   20.4479 H   0  0  0  0  0  0  0  0  0  0  0  0
    2.6715    2.6466   18.1794 H   0  0  0  0  0  0  0  0  0  0  0  0
    4.2125    1.3834   16.7164 H   0  0  0  0  0  0  0  0  0  0  0  0
    7.3066   -0.8600   18.2603 H   0  0  0  0  0  0  0  0  0  0  0  0
    7.9708    0.2897   21.3364 C   0  0  0  0  0  0  0  0  0  0  0  0
    8.4318    1.2810   20.8078 O   0  0  0  0  0  0  0  0  0  0  0  0
    8.4329   -0.3824   22.6465 C   0  0  1  0  0  0  0  0  0  0  0  0
    8.0467    0.4521   23.8783 C   0  0  0  0  0  0  0  0  0  0  0  0
    8.8257    1.6722   23.9784 N   0  0  0  0  0  0  0  0  0  0  0  0
    8.1806    2.9372   24.2438 C   0  0  0  0  0  0  0  0  0  0  0  0
    7.1090    2.9605   25.3772 C   0  0  0  0  0  0  0  0  0  0  0  0
    5.9952    3.3151   24.4014 N   0  0  0  0  0  4  0  0  0  0  0  0
    7.0417    3.3688   23.2817 C   0  0  0  0  0  0  0  0  0  0  0  0
    6.8205    2.6723   22.4759 H   0  0  0  0  0  0  0  0  0  0  0  0
    7.1171    4.3699   22.8666 H   0  0  0  0  0  0  0  0  0  0  0  0
    5.2447    2.6052   24.2968 H   0  0  0  0  0  0  0  0  0  0  0  0
    5.5414    4.2220   24.6021 H   0  0  0  0  0  0  0  0  0  0  0  0
    7.2420    3.7402   26.1252 H   0  0  0  0  0  0  0  0  0  0  0  0
    6.9475    2.0190   25.9024 H   0  0  0  0  0  0  0  0  0  0  0  0
    9.0184    3.6373   24.3446 H   0  0  0  0  0  0  0  0  0  0  0  0
   10.1980    1.6126   24.0085 C   0  0  0  0  0  0  0  0  0  0  0  0
   10.9080    2.4641   24.5267 O   0  0  0  0  0  0  0  0  0  0  0  0
   10.7639    0.4275   23.3060 C   0  0  0  0  0  0  0  0  0  0  0  0
   12.1456    0.2793   23.2563 C   0  0  0  0  0  0  0  0  0  0  0  0
   12.7191   -0.7167   22.4926 C   0  0  0  0  0  0  0  0  0  0  0  0
   11.8844   -1.5516   21.7364 C   0  0  0  0  0  0  0  0  0  0  0  0
   12.3864   -2.8355   20.6764 Cl  0  0  0  0  0  0  0  0  0  0  0  0
   10.5193   -1.4070   21.7882 C   0  0  0  0  0  0  0  0  0  0  0  0
    9.9335   -0.4699   22.6270 C   0  0  0  0  0  0  0  0  0  0  0  0
    9.9188   -2.0324   21.1432 H   0  0  0  0  0  0  0  0  0  0  0  0
   13.7985   -0.7718   22.5046 H   0  0  0  0  0  0  0  0  0  0  0  0
   12.7739    0.9736   23.8087 H   0  0  0  0  0  0  0  0  0  0  0  0
    6.9891    0.7116   23.8117 H   0  0  0  0  0  0  0  0  0  0  0  0
    8.2168   -0.1609   24.7759 H   0  0  0  0  0  0  0  0  0  0  0  0
    5.5862   -1.3946   22.1519 H   0  0  0  0  0  0  0  0  0  0  0  0
    6.3791   -2.4505   20.9708 H   0  0  0  0  0  0  0  0  0  0  0  0
    8.3952   -2.4718   22.1604 H   0  0  0  0  0  0  0  0  0  0  0  0
    6.4939   -1.7153   24.4209 H   0  0  0  0  0  0  0  0  0  0  0  0
    8.0734   -2.4853   24.6446 H   0  0  0  0  0  0  0  0  0  0  0  0
    6.7820   -3.3394   23.7922 H   0  0  0  0  0  0  0  0  0  0  0  0
  1  2  1  0
  2  3  1  0
  3  4  1  0
  4  5  1  0
  5  6  2  0
  6  7  1  0
  7  8  2  0
  8  9  1  0
  9 10  2  0
 10 11  1  0
 11 12  2  0
 12 13  1  0
 13 14  2  0
 13 15  1  0
 12 16  1  0
 11 17  1  0
 10 18  1  0
  8 19  1  0
  6 20  1  0
  4 21  1  0
 21 22  2  0
 21 23  1  0
 23 24  1  1
 24 25  1  0
 25 26  1  0
 26 27  1  0
 27 28  1  0
 28 29  1  0
 29 30  1  0
 29 31  1  0
 28 32  1  0
 28 33  1  0
 27 34  1  0
 27 35  1  0
 26 36  1  0
 25 37  1  0
 37 38  2  0
 37 39  1  0
 39 40  2  0
 40 41  1  0
 41 42  2  0
 42 43  1  0
 42 44  1  0
 44 45  2  0
 44 46  1  0
 41 47  1  0
 40 48  1  0
 24 49  1  0
 24 50  1  0
  3 51  1  0
  3 52  1  0
  2 53  1  6
  1 54  1  0
  1 55  1  0
  1 56  1  0
 23  2  1  0
 29 26  1  0
 45 39  1  0
 14  5  1  0
 45 23  1  0
 14  9  1  0
M  CHG  1  28   1
M  END
>  <cnnaffinities>  (74) 
[6.03788, 6.03839]

>  <score>  (74) 
6.03788

>  <index>  (74) 
73

>  <Smiles>  (74) 
C([C@]1(C(N(c2c(nc(c3c(c(c(c(c23)[H])[H])[H])[H])[H])[H])C(=O)[C@]21C(N(C1(C([N+](C1([H])[H])([H])[H])([H])[H])[H])C(=O)c1c(c(c(Cl)c(c21)[H])[H])[H])([H])[H])([H])[H])[H])([H])([H])[H]

>  <h>  (74) 
<NA>

>  <Training>  (74) 
True

>  <Success>  (74) 
True

>  <enamine_searched>  (74) 
False

>  <enamine_id>  (74) 
nan

$$$$

     RDKit          3D

 55 60  0  0  0  0  0  0  0  0999 V2000
    7.3169   -2.5968   23.7792 C   0  0  0  0  0  0  0  0  0  0  0  0
    7.7362   -1.8258   22.5260 C   0  0  1  0  0  0  0  0  0  0  0  0
    6.5957   -1.6641   21.5060 C   0  0  0  0  0  0  0  0  0  0  0  0
    6.9018   -0.4203   20.8302 N   0  0  0  0  0  0  0  0  0  0  0  0
    6.1287    0.0921   19.7560 C   0  0  0  0  0  0  0  0  0  0  0  0
    6.4497   -0.2244   18.4601 C   0  0  0  0  0  0  0  0  0  0  0  0
    5.7712    0.2230   17.3730 N   0  0  0  0  0  0  0  0  0  0  0  0
    4.7495    1.0169   17.5872 C   0  0  0  0  0  0  0  0  0  0  0  0
    4.2993    1.4152   18.8795 C   0  0  0  0  0  0  0  0  0  0  0  0
    3.1801    2.2742   19.0580 C   0  0  0  0  0  0  0  0  0  0  0  0
    2.7580    2.6180   20.3123 C   0  0  0  0  0  0  0  0  0  0  0  0
    3.4346    2.1157   21.4468 C   0  0  0  0  0  0  0  0  0  0  0  0
    4.5203    1.2862   21.2999 C   0  0  0  0  0  0  0  0  0  0  0  0
    4.9931    0.9275   20.0063 C   0  0  0  0  0  0  0  0  0  0  0  0
    5.0491    0.9436   22.1859 H   0  0  0  0  0  0  0  0  0  0  0  0
    3.1271    2.4230   22.4420 H   0  0  0  0  0  0  0  0  0  0  0  0
    1.9177    3.2955   20.4412 H   0  0  0  0  0  0  0  0  0  0  0  0
    2.6791    2.6516   18.1708 H   0  0  0  0  0  0  0  0  0  0  0  0
    4.2164    1.3835   16.7112 H   0  0  0  0  0  0  0  0  0  0  0  0
    7.2996   -0.8729   18.2512 H   0  0  0  0  0  0  0  0  0  0  0  0
    7.8358    0.3608   21.4711 C   0  0  0  0  0  0  0  0  0  0  0  0
    8.2249    1.4322   21.0589 O   0  0  0  0  0  0  0  0  0  0  0  0
    8.3168   -0.3887   22.7383 C   0  0  1  0  0  0  0  0  0  0  0  0
    7.8122    0.2490   24.0430 C   0  0  0  0  0  0  0  0  0  0  0  0
    8.4309    1.5295   24.3483 N   0  0  0  0  0  0  0  0  0  0  0  0
    7.5022    2.6432   24.4399 C   0  0  0  0  0  0  0  0  0  0  0  0
    7.3802    3.4913   23.2129 C   0  0  0  0  0  0  0  0  0  0  0  0
    8.3104    4.4613   22.7631 C   0  0  0  0  0  0  0  0  0  0  0  0
    7.6199    5.1397   21.8175 C   0  0  0  0  0  0  0  0  0  0  0  0
    6.3914    4.6223   21.6794 O   0  0  0  0  0  0  0  0  0  0  0  0
    6.2504    3.5693   22.5614 N   0  0  0  0  0  0  0  0  0  0  0  0
    7.8619    5.9857   21.1870 H   0  0  0  0  0  0  0  0  0  0  0  0
    9.2959    4.5979   23.1734 H   0  0  0  0  0  0  0  0  0  0  0  0
    6.5266    2.2219   24.6828 H   0  0  0  0  0  0  0  0  0  0  0  0
    7.7255    3.3158   25.2523 H   0  0  0  0  0  0  0  0  0  0  0  0
    9.7969    1.7186   24.2410 C   0  0  0  0  0  0  0  0  0  0  0  0
   10.3896    2.7081   24.6479 O   0  0  0  0  0  0  0  0  0  0  0  0
   10.5337    0.6218   23.5209 C   0  0  0  0  0  0  0  0  0  0  0  0
   11.9328    0.6294   23.4729 C   0  0  0  0  0  0  0  0  0  0  0  0
   12.6140   -0.2372   22.6213 C   0  0  0  0  0  0  0  0  0  0  0  0
   11.8518   -1.0789   21.8056 C   0  0  0  0  0  0  0  0  0  0  0  0
   12.3439   -1.8980   20.8662 F   0  0  0  0  0  0  0  0  0  0  0  0
   10.4890   -1.1178   21.8675 C   0  0  0  0  0  0  0  0  0  0  0  0
    9.8149   -0.3177   22.7718 C   0  0  0  0  0  0  0  0  0  0  0  0
    9.9905   -1.7817   21.1728 H   0  0  0  0  0  0  0  0  0  0  0  0
   13.6959   -0.2543   22.5607 H   0  0  0  0  0  0  0  0  0  0  0  0
   12.4637    1.3496   24.0963 H   0  0  0  0  0  0  0  0  0  0  0  0
    8.0015   -0.4538   24.8638 H   0  0  0  0  0  0  0  0  0  0  0  0
    6.7343    0.4105   23.9413 H   0  0  0  0  0  0  0  0  0  0  0  0
    6.5480   -2.4888   20.7823 H   0  0  0  0  0  0  0  0  0  0  0  0
    5.6257   -1.6011   22.0217 H   0  0  0  0  0  0  0  0  0  0  0  0
    8.5232   -2.4043   22.0433 H   0  0  0  0  0  0  0  0  0  0  0  0
    8.1439   -2.7024   24.4937 H   0  0  0  0  0  0  0  0  0  0  0  0
    6.9744   -3.6049   23.5195 H   0  0  0  0  0  0  0  0  0  0  0  0
    6.4901   -2.0839   24.2843 H   0  0  0  0  0  0  0  0  0  0  0  0
  1  2  1  0
  2  3  1  0
  3  4  1  0
  4  5  1  0
  5  6  2  0
  6  7  1  0
  7  8  2  0
  8  9  1  0
  9 10  2  0
 10 11  1  0
 11 12  2  0
 12 13  1  0
 13 14  2  0
 13 15  1  0
 12 16  1  0
 11 17  1  0
 10 18  1  0
  8 19  1  0
  6 20  1  0
  4 21  1  0
 21 22  2  0
 21 23  1  0
 23 24  1  1
 24 25  1  0
 25 26  1  0
 26 27  1  0
 27 28  1  0
 28 29  2  0
 29 30  1  0
 30 31  1  0
 29 32  1  0
 28 33  1  0
 26 34  1  0
 26 35  1  0
 25 36  1  0
 36 37  2  0
 36 38  1  0
 38 39  2  0
 39 40  1  0
 40 41  2  0
 41 42  1  0
 41 43  1  0
 43 44  2  0
 43 45  1  0
 40 46  1  0
 39 47  1  0
 24 48  1  0
 24 49  1  0
  3 50  1  0
  3 51  1  0
  2 52  1  6
  1 53  1  0
  1 54  1  0
  1 55  1  0
 23  2  1  0
 31 27  2  0
 44 38  1  0
 14  5  1  0
 44 23  1  0
 14  9  1  0
M  END
>  <cnnaffinities>  (75) 
[6.15029]

>  <score>  (75) 
6.15029

>  <index>  (75) 
74

>  <Smiles>  (75) 
C([C@]1(C(N(c2c(nc(c3c(c(c(c(c23)[H])[H])[H])[H])[H])[H])C(=O)[C@]21C(N(C(c1c(c(on1)[H])[H])([H])[H])C(=O)c1c(c(c(F)c(c21)[H])[H])[H])([H])[H])([H])[H])[H])([H])([H])[H]

>  <h>  (75) 
<NA>

>  <Training>  (75) 
True

>  <Success>  (75) 
True

>  <enamine_searched>  (75) 
False

>  <enamine_id>  (75) 
nan

$$$$

     RDKit          3D

 70 75  0  0  0  0  0  0  0  0999 V2000
    5.0141   -3.9930   26.9162 C   0  0  0  0  0  0  0  0  0  0  0  0
    5.1153   -2.6148   27.1712 O   0  0  0  0  0  0  0  0  0  0  0  0
    4.3495   -1.7761   26.4254 C   0  0  0  0  0  0  0  0  0  0  0  0
    3.4406   -2.1799   25.4465 C   0  0  0  0  0  0  0  0  0  0  0  0
    2.7283   -1.1990   24.7620 C   0  0  0  0  0  0  0  0  0  0  0  0
    2.9236    0.1472   25.0269 C   0  0  0  0  0  0  0  0  0  0  0  0
    3.8406    0.5528   26.0020 C   0  0  0  0  0  0  0  0  0  0  0  0
    4.0845    2.0299   26.2512 C   0  0  0  0  0  0  0  0  0  0  0  0
    5.1237    2.6042   25.4019 N   0  0  0  0  0  0  0  0  0  0  0  0
    6.4466    2.4565   25.7438 C   0  0  0  0  0  0  0  0  0  0  0  0
    6.7978    2.1444   26.8680 O   0  0  0  0  0  0  0  0  0  0  0  0
    7.4329    2.6414   24.5918 C   0  0  0  0  0  0  0  0  0  0  0  0
    8.3135    1.4957   24.4879 N   0  0  0  0  0  0  0  0  0  0  0  0
    7.6482    0.2333   24.2319 C   0  0  0  0  0  0  0  0  0  0  0  0
    8.0630   -0.3936   22.8923 C   0  0  2  0  0  0  0  0  0  0  0  0
    7.5516    0.4340   21.7030 C   0  0  0  0  0  0  0  0  0  0  0  0
    7.7027    1.6281   21.5204 O   0  0  0  0  0  0  0  0  0  0  0  0
    6.8609   -0.3918   20.8590 N   0  0  0  0  0  0  0  0  0  0  0  0
    6.1172    0.1050   19.7756 C   0  0  0  0  0  0  0  0  0  0  0  0
    6.4361   -0.2427   18.4872 C   0  0  0  0  0  0  0  0  0  0  0  0
    5.7749    0.2104   17.3945 N   0  0  0  0  0  0  0  0  0  0  0  0
    4.7595    1.0167   17.5984 C   0  0  0  0  0  0  0  0  0  0  0  0
    4.3039    1.4167   18.8881 C   0  0  0  0  0  0  0  0  0  0  0  0
    3.1803    2.2680   19.0567 C   0  0  0  0  0  0  0  0  0  0  0  0
    2.7444    2.6114   20.3073 C   0  0  0  0  0  0  0  0  0  0  0  0
    3.4118    2.1202   21.4542 C   0  0  0  0  0  0  0  0  0  0  0  0
    4.5017    1.2975   21.3204 C   0  0  0  0  0  0  0  0  0  0  0  0
    4.9887    0.9437   20.0245 C   0  0  0  0  0  0  0  0  0  0  0  0
    5.0083    0.9112   22.2025 H   0  0  0  0  0  0  0  0  0  0  0  0
    3.0603    2.4100   22.4424 H   0  0  0  0  0  0  0  0  0  0  0  0
    1.8857    3.2671   20.4257 H   0  0  0  0  0  0  0  0  0  0  0  0
    2.6810    2.6409   18.1673 H   0  0  0  0  0  0  0  0  0  0  0  0
    4.2293    1.3826   16.7190 H   0  0  0  0  0  0  0  0  0  0  0  0
    7.2904   -0.8916   18.2916 H   0  0  0  0  0  0  0  0  0  0  0  0
    6.9832   -1.7923   21.1762 C   0  0  0  0  0  0  0  0  0  0  0  0
    7.4817   -1.8190   22.6381 C   0  0  2  0  0  0  0  0  0  0  0  0
    6.3940   -2.2982   23.5960 C   0  0  0  0  0  0  0  0  0  0  0  0
    6.7567   -2.3635   24.6271 H   0  0  0  0  0  0  0  0  0  0  0  0
    5.5286   -1.6311   23.5730 H   0  0  0  0  0  0  0  0  0  0  0  0
    6.0605   -3.3024   23.3099 H   0  0  0  0  0  0  0  0  0  0  0  0
    8.3000   -2.5402   22.7338 H   0  0  0  0  0  0  0  0  0  0  0  0
    6.0176   -2.2869   21.0425 H   0  0  0  0  0  0  0  0  0  0  0  0
    7.7019   -2.2697   20.5066 H   0  0  0  0  0  0  0  0  0  0  0  0
    9.5690   -0.3873   22.8424 C   0  0  0  0  0  0  0  0  0  0  0  0
   10.1952   -1.2477   21.9515 C   0  0  0  0  0  0  0  0  0  0  0  0
   11.5666   -1.2944   21.8788 C   0  0  0  0  0  0  0  0  0  0  0  0
   12.1741   -2.5097   20.7922 Cl  0  0  0  0  0  0  0  0  0  0  0  0
   12.3590   -0.4399   22.6553 C   0  0  0  0  0  0  0  0  0  0  0  0
   11.7300    0.4705   23.4996 C   0  0  0  0  0  0  0  0  0  0  0  0
   10.3343    0.5270   23.5597 C   0  0  0  0  0  0  0  0  0  0  0  0
    9.6557    1.6653   24.2604 C   0  0  0  0  0  0  0  0  0  0  0  0
   10.2686    2.6797   24.5625 O   0  0  0  0  0  0  0  0  0  0  0  0
   12.3015    1.1682   24.1093 H   0  0  0  0  0  0  0  0  0  0  0  0
   13.4391   -0.4610   22.5521 H   0  0  0  0  0  0  0  0  0  0  0  0
    9.6171   -1.8858   21.2903 H   0  0  0  0  0  0  0  0  0  0  0  0
    6.5785    0.4279   24.2397 H   0  0  0  0  0  0  0  0  0  0  0  0
    7.8767   -0.4533   25.0529 H   0  0  0  0  0  0  0  0  0  0  0  0
    6.8735    2.7344   23.6540 H   0  0  0  0  0  0  0  0  0  0  0  0
    8.0488    3.5344   24.7080 H   0  0  0  0  0  0  0  0  0  0  0  0
    4.8984    2.7535   24.4273 H   0  0  0  0  0  0  0  0  0  0  0  0
    4.4002    2.2025   27.2799 H   0  0  0  0  0  0  0  0  0  0  0  0
    3.1661    2.5996   26.0855 H   0  0  0  0  0  0  0  0  0  0  0  0
    4.5456   -0.4206   26.6976 C   0  0  0  0  0  0  0  0  0  0  0  0
    5.2694   -0.1773   27.4718 H   0  0  0  0  0  0  0  0  0  0  0  0
    2.3494    0.8872   24.4755 H   0  0  0  0  0  0  0  0  0  0  0  0
    2.0061   -1.4862   24.0059 H   0  0  0  0  0  0  0  0  0  0  0  0
    3.2993   -3.2283   25.1983 H   0  0  0  0  0  0  0  0  0  0  0  0
    5.7126   -4.4700   27.6024 H   0  0  0  0  0  0  0  0  0  0  0  0
    5.2896   -4.2401   25.8816 H   0  0  0  0  0  0  0  0  0  0  0  0
    3.9997   -4.3660   27.1060 H   0  0  0  0  0  0  0  0  0  0  0  0
  1  2  1  0
  2  3  1  0
  3  4  2  0
  4  5  1  0
  5  6  2  0
  6  7  1  0
  7  8  1  0
  8  9  1  0
  9 10  1  0
 10 11  2  0
 10 12  1  0
 12 13  1  0
 13 14  1  0
 15 14  1  1
 15 16  1  0
 16 17  2  0
 16 18  1  0
 18 19  1  0
 19 20  2  0
 20 21  1  0
 21 22  2  0
 22 23  1  0
 23 24  2  0
 24 25  1  0
 25 26  2  0
 26 27  1  0
 27 28  2  0
 27 29  1  0
 26 30  1  0
 25 31  1  0
 24 32  1  0
 22 33  1  0
 20 34  1  0
 18 35  1  0
 35 36  1  0
 36 37  1  0
 37 38  1  0
 37 39  1  0
 37 40  1  0
 36 41  1  6
 35 42  1  0
 35 43  1  0
 15 44  1  0
 44 45  2  0
 45 46  1  0
 46 47  1  0
 46 48  2  0
 48 49  1  0
 49 50  2  0
 50 51  1  0
 51 52  2  0
 49 53  1  0
 48 54  1  0
 45 55  1  0
 14 56  1  0
 14 57  1  0
 12 58  1  0
 12 59  1  0
  9 60  1  0
  8 61  1  0
  8 62  1  0
  7 63  2  0
 63 64  1  0
  6 65  1  0
  5 66  1  0
  4 67  1  0
  1 68  1  0
  1 69  1  0
  1 70  1  0
 63  3  1  0
 51 13  1  0
 36 15  1  0
 50 44  1  0
 28 19  1  0
 28 23  1  0
M  END
>  <cnnaffinities>  (76) 
[6.04061]

>  <score>  (76) 
6.04061

>  <index>  (76) 
75

>  <Smiles>  (76) 
C(Oc1c(c(c(c(C(N(C(=O)C(N2C([C@@]3(C(=O)N(c4c(nc(c5c(c(c(c(c45)[H])[H])[H])[H])[H])[H])C([C@@]3(C([H])([H])[H])[H])([H])[H])c3c(c(Cl)c(c(c3C2=O)[H])[H])[H])([H])[H])([H])[H])[H])([H])[H])c1[H])[H])[H])[H])([H])([H])[H]

>  <h>  (76) 
<NA>

>  <Training>  (76) 
True

>  <Success>  (76) 
True

>  <enamine_searched>  (76) 
False

>  <enamine_id>  (76) 
nan

$$$$

     RDKit          3D

 61 65  0  0  0  0  0  0  0  0999 V2000
    7.6876   -2.9829   23.3337 C   0  0  0  0  0  0  0  0  0  0  0  0
    8.0215   -1.9082   22.2973 C   0  0  1  0  0  0  0  0  0  0  0  0
    6.8784   -1.7295   21.2880 C   0  0  0  0  0  0  0  0  0  0  0  0
    7.0142   -0.3593   20.8486 N   0  0  0  0  0  0  0  0  0  0  0  0
    6.2076    0.1546   19.7974 C   0  0  0  0  0  0  0  0  0  0  0  0
    6.4823   -0.2256   18.5071 C   0  0  0  0  0  0  0  0  0  0  0  0
    5.8024    0.1939   17.4110 N   0  0  0  0  0  0  0  0  0  0  0  0
    4.7914    1.0051   17.6081 C   0  0  0  0  0  0  0  0  0  0  0  0
    4.3466    1.4236   18.8934 C   0  0  0  0  0  0  0  0  0  0  0  0
    3.2131    2.2654   19.0422 C   0  0  0  0  0  0  0  0  0  0  0  0
    2.7599    2.6051   20.2866 C   0  0  0  0  0  0  0  0  0  0  0  0
    3.4219    2.1180   21.4365 C   0  0  0  0  0  0  0  0  0  0  0  0
    4.5372    1.3233   21.3190 C   0  0  0  0  0  0  0  0  0  0  0  0
    5.0466    0.9699   20.0363 C   0  0  0  0  0  0  0  0  0  0  0  0
    5.0309    0.9570   22.2146 H   0  0  0  0  0  0  0  0  0  0  0  0
    3.0477    2.3856   22.4199 H   0  0  0  0  0  0  0  0  0  0  0  0
    1.8933    3.2520   20.3984 H   0  0  0  0  0  0  0  0  0  0  0  0
    2.7237    2.6314   18.1435 H   0  0  0  0  0  0  0  0  0  0  0  0
    4.2544    1.3588   16.7278 H   0  0  0  0  0  0  0  0  0  0  0  0
    7.3134   -0.9046   18.3160 H   0  0  0  0  0  0  0  0  0  0  0  0
    7.8270    0.4106   21.6616 C   0  0  0  0  0  0  0  0  0  0  0  0
    8.0523    1.5839   21.4566 O   0  0  0  0  0  0  0  0  0  0  0  0
    8.2909   -0.4604   22.8565 C   0  0  1  0  0  0  0  0  0  0  0  0
    7.2975   -0.1145   24.0188 C   0  0  0  0  0  0  0  0  0  0  0  0
    7.7499   -0.8387   25.2824 N   0  0  0  0  0  0  0  0  0  0  0  0
    6.8639   -0.9276   26.5153 C   0  0  0  0  0  0  0  0  0  0  0  0
    6.9930   -2.3680   26.9747 C   0  0  0  0  0  0  0  0  0  0  0  0
    6.5106   -2.6080   28.3755 N   0  0  0  0  0  4  0  0  0  0  0  0
    5.0615   -2.2916   28.5067 C   0  0  0  0  0  0  0  0  0  0  0  0
    4.8921   -1.2223   28.3783 H   0  0  0  0  0  0  0  0  0  0  0  0
    4.5099   -2.8408   27.7363 H   0  0  0  0  0  0  0  0  0  0  0  0
    4.7033   -2.6030   29.4891 H   0  0  0  0  0  0  0  0  0  0  0  0
    6.7878   -4.0007   28.8013 C   0  0  0  0  0  0  0  0  0  0  0  0
    6.4206   -4.1651   29.8166 H   0  0  0  0  0  0  0  0  0  0  0  0
    6.2772   -4.6897   28.1200 H   0  0  0  0  0  0  0  0  0  0  0  0
    7.8624   -4.1968   28.7598 H   0  0  0  0  0  0  0  0  0  0  0  0
    7.0600   -1.9835   28.9899 H   0  0  0  0  0  0  0  0  0  0  0  0
    6.4282   -3.0255   26.3055 H   0  0  0  0  0  0  0  0  0  0  0  0
    8.0463   -2.6447   26.9156 H   0  0  0  0  0  0  0  0  0  0  0  0
    7.2716   -0.2431   27.2702 H   0  0  0  0  0  0  0  0  0  0  0  0
    5.8504   -0.6251   26.2468 H   0  0  0  0  0  0  0  0  0  0  0  0
    9.2429   -0.7274   25.5044 C   0  0  0  0  0  0  0  0  0  0  0  0
    9.3797   -0.7027   25.4987 O   0  0  0  0  0  0  0  0  0  0  0  0
   10.2650   -0.2104   24.5790 C   0  0  0  0  0  0  0  0  0  0  0  0
   11.5754    0.3414   24.7918 C   0  0  0  0  0  0  0  0  0  0  0  0
   12.4636    0.4982   23.7700 C   0  0  0  0  0  0  0  0  0  0  0  0
   12.0591    0.1889   22.4842 C   0  0  0  0  0  0  0  0  0  0  0  0
   13.3259    0.2034   21.3248 Cl  0  0  0  0  0  0  0  0  0  0  0  0
   10.7366   -0.1288   22.2100 C   0  0  0  0  0  0  0  0  0  0  0  0
    9.7901   -0.2451   23.2505 C   0  0  0  0  0  0  0  0  0  0  0  0
   10.4559   -0.2874   21.1710 H   0  0  0  0  0  0  0  0  0  0  0  0
   13.4762    0.8025   23.9974 H   0  0  0  0  0  0  0  0  0  0  0  0
   12.0108    0.6316   25.7326 H   0  0  0  0  0  0  0  0  0  0  0  0
    6.2771   -0.4291   23.7731 H   0  0  0  0  0  0  0  0  0  0  0  0
    7.3024    0.9676   24.1901 H   0  0  0  0  0  0  0  0  0  0  0  0
    6.9428   -2.4123   20.4380 H   0  0  0  0  0  0  0  0  0  0  0  0
    5.9012   -1.9026   21.7687 H   0  0  0  0  0  0  0  0  0  0  0  0
    8.9304   -2.1973   21.7463 H   0  0  0  0  0  0  0  0  0  0  0  0
    8.3830   -2.9585   24.1805 H   0  0  0  0  0  0  0  0  0  0  0  0
    7.6983   -3.9794   22.8825 H   0  0  0  0  0  0  0  0  0  0  0  0
    6.6848   -2.8178   23.7476 H   0  0  0  0  0  0  0  0  0  0  0  0
  1  2  1  0
  2  3  1  0
  3  4  1  0
  4  5  1  0
  5  6  2  0
  6  7  1  0
  7  8  2  0
  8  9  1  0
  9 10  2  0
 10 11  1  0
 11 12  2  0
 12 13  1  0
 13 14  2  0
 13 15  1  0
 12 16  1  0
 11 17  1  0
 10 18  1  0
  8 19  1  0
  6 20  1  0
  4 21  1  0
 21 22  2  0
 21 23  1  0
 23 24  1  1
 24 25  1  0
 25 26  1  0
 26 27  1  0
 27 28  1  0
 28 29  1  0
 29 30  1  0
 29 31  1  0
 29 32  1  0
 28 33  1  0
 33 34  1  0
 33 35  1  0
 33 36  1  0
 28 37  1  0
 27 38  1  0
 27 39  1  0
 26 40  1  0
 26 41  1  0
 25 42  1  0
 42 43  2  0
 42 44  1  0
 44 45  2  0
 45 46  1  0
 46 47  2  0
 47 48  1  0
 47 49  1  0
 49 50  2  0
 49 51  1  0
 46 52  1  0
 45 53  1  0
 24 54  1  0
 24 55  1  0
  3 56  1  0
  3 57  1  0
  2 58  1  6
  1 59  1  0
  1 60  1  0
  1 61  1  0
 23  2  1  0
 50 44  1  0
 14  5  1  0
 50 23  1  0
 14  9  1  0
M  CHG  1  28   1
M  END
>  <cnnaffinities>  (77) 
[6.13698]

>  <score>  (77) 
6.13698

>  <index>  (77) 
76

>  <Smiles>  (77) 
C([C@]1(C(N(c2c(nc(c3c(c(c(c(c23)[H])[H])[H])[H])[H])[H])C(=O)[C@]21C(N(C(C([N+](C([H])([H])[H])(C([H])([H])[H])[H])([H])[H])([H])[H])C(=O)c1c(c(c(Cl)c(c21)[H])[H])[H])([H])[H])([H])[H])[H])([H])([H])[H]

>  <h>  (77) 
<NA>

>  <Training>  (77) 
True

>  <Success>  (77) 
True

>  <enamine_searched>  (77) 
False

>  <enamine_id>  (77) 
nan

$$$$

     RDKit          3D

 57 60  0  0  0  0  0  0  0  0999 V2000
    3.0181   -6.1260   26.6170 C   0  0  0  0  0  0  0  0  0  0  0  0
    3.3697   -6.3489   25.1371 C   0  0  0  0  0  0  0  0  0  0  0  0
    2.0938   -6.6369   24.3190 C   0  0  0  0  0  0  0  0  0  0  0  0
    2.3332   -6.9080   23.2895 H   0  0  0  0  0  0  0  0  0  0  0  0
    1.5707   -7.4923   24.7526 H   0  0  0  0  0  0  0  0  0  0  0  0
    1.4233   -5.7733   24.3027 H   0  0  0  0  0  0  0  0  0  0  0  0
    4.1378   -7.6219   25.0856 C   0  0  0  0  0  0  0  0  0  0  0  0
    4.6130   -8.6777   25.0974 N   0  0  0  0  0  0  0  0  0  0  0  0
    4.1610   -5.1682   24.5711 C   0  0  0  0  0  0  0  0  0  0  0  0
    4.7818   -5.2911   23.3294 C   0  0  0  0  0  0  0  0  0  0  0  0
    5.5241   -4.2552   22.7948 C   0  0  0  0  0  0  0  0  0  0  0  0
    5.6217   -3.0347   23.4679 C   0  0  0  0  0  0  0  0  0  0  0  0
    6.3492   -1.9613   22.8819 N   0  0  0  0  0  0  0  0  0  0  0  0
    7.3292   -1.2147   23.6748 C   0  0  0  0  0  0  0  0  0  0  0  0
    8.7750   -1.4257   23.2431 C   0  0  0  0  0  0  0  0  0  0  0  0
    9.2571   -2.7347   23.2044 C   0  0  0  0  0  0  0  0  0  0  0  0
   10.5689   -2.9945   22.8376 C   0  0  0  0  0  0  0  0  0  0  0  0
   11.4299   -1.9635   22.4828 C   0  0  0  0  0  0  0  0  0  0  0  0
   10.9598   -0.6589   22.5486 C   0  0  0  0  0  0  0  0  0  0  0  0
   12.0552    0.6458   22.1679 Cl  0  0  0  0  0  0  0  0  0  0  0  0
    9.6492   -0.3778   22.9331 C   0  0  0  0  0  0  0  0  0  0  0  0
    9.3447    0.6654   22.9992 H   0  0  0  0  0  0  0  0  0  0  0  0
   12.4461   -2.1658   22.1597 H   0  0  0  0  0  0  0  0  0  0  0  0
   10.9362   -4.0114   22.8496 H   0  0  0  0  0  0  0  0  0  0  0  0
    8.6032   -3.5575   23.4855 H   0  0  0  0  0  0  0  0  0  0  0  0
    7.2324   -1.5829   24.6973 H   0  0  0  0  0  0  0  0  0  0  0  0
    7.0674   -0.1488   23.6894 H   0  0  0  0  0  0  0  0  0  0  0  0
    6.0931   -1.6927   21.5513 C   0  0  0  0  0  0  0  0  0  0  0  0
    5.2836   -2.3362   20.8999 O   0  0  0  0  0  0  0  0  0  0  0  0
    6.8509   -0.5332   20.9194 C   0  0  0  0  0  0  0  0  0  0  0  0
    6.1071    0.0701   19.7743 C   0  0  0  0  0  0  0  0  0  0  0  0
    6.4382   -0.2480   18.4848 C   0  0  0  0  0  0  0  0  0  0  0  0
    5.7937    0.2015   17.3756 N   0  0  0  0  0  0  0  0  0  0  0  0
    4.7766    1.0027   17.5776 C   0  0  0  0  0  0  0  0  0  0  0  0
    4.3083    1.4044   18.8590 C   0  0  0  0  0  0  0  0  0  0  0  0
    3.1920    2.2651   19.0184 C   0  0  0  0  0  0  0  0  0  0  0  0
    2.7615    2.6241   20.2634 C   0  0  0  0  0  0  0  0  0  0  0  0
    3.4296    2.1436   21.4127 C   0  0  0  0  0  0  0  0  0  0  0  0
    4.5162    1.3128   21.2864 C   0  0  0  0  0  0  0  0  0  0  0  0
    4.9883    0.9228   20.0023 C   0  0  0  0  0  0  0  0  0  0  0  0
    5.0138    0.9562   22.1841 H   0  0  0  0  0  0  0  0  0  0  0  0
    3.0841    2.4425   22.3981 H   0  0  0  0  0  0  0  0  0  0  0  0
    1.9072    3.2860   20.3820 H   0  0  0  0  0  0  0  0  0  0  0  0
    2.6967    2.6388   18.1245 H   0  0  0  0  0  0  0  0  0  0  0  0
    4.2545    1.3690   16.6938 H   0  0  0  0  0  0  0  0  0  0  0  0
    7.2801   -0.9154   18.2969 H   0  0  0  0  0  0  0  0  0  0  0  0
    7.0653    0.2275   21.6706 H   0  0  0  0  0  0  0  0  0  0  0  0
    7.8138   -0.9262   20.5758 H   0  0  0  0  0  0  0  0  0  0  0  0
    4.9928   -2.8900   24.7057 C   0  0  0  0  0  0  0  0  0  0  0  0
    4.2785   -3.9493   25.2443 C   0  0  0  0  0  0  0  0  0  0  0  0
    3.8260   -3.8203   26.2250 H   0  0  0  0  0  0  0  0  0  0  0  0
    5.0154   -1.9355   25.2336 H   0  0  0  0  0  0  0  0  0  0  0  0
    6.0075   -4.3891   21.8348 H   0  0  0  0  0  0  0  0  0  0  0  0
    4.6869   -6.2155   22.7639 H   0  0  0  0  0  0  0  0  0  0  0  0
    2.2940   -5.3148   26.7647 H   0  0  0  0  0  0  0  0  0  0  0  0
    2.6044   -7.0373   27.0514 H   0  0  0  0  0  0  0  0  0  0  0  0
    3.9241   -5.8825   27.1771 H   0  0  0  0  0  0  0  0  0  0  0  0
  1  2  1  0
  2  3  1  0
  3  4  1  0
  3  5  1  0
  3  6  1  0
  2  7  1  0
  7  8  3  0
  2  9  1  0
  9 10  2  0
 10 11  1  0
 11 12  2  0
 12 13  1  0
 13 14  1  0
 14 15  1  0
 15 16  2  0
 16 17  1  0
 17 18  2  0
 18 19  1  0
 19 20  1  0
 19 21  2  0
 21 22  1  0
 18 23  1  0
 17 24  1  0
 16 25  1  0
 14 26  1  0
 14 27  1  0
 13 28  1  0
 28 29  2  0
 28 30  1  0
 30 31  1  0
 31 32  2  0
 32 33  1  0
 33 34  2  0
 34 35  1  0
 35 36  2  0
 36 37  1  0
 37 38  2  0
 38 39  1  0
 39 40  2  0
 39 41  1  0
 38 42  1  0
 37 43  1  0
 36 44  1  0
 34 45  1  0
 32 46  1  0
 30 47  1  0
 30 48  1  0
 12 49  1  0
 49 50  2  0
 50 51  1  0
 49 52  1  0
 11 53  1  0
 10 54  1  0
  1 55  1  0
  1 56  1  0
  1 57  1  0
 50  9  1  0
 21 15  1  0
 40 31  1  0
 40 35  1  0
M  END
>  <cnnaffinities>  (78) 
[6.46954, 6.31217]

>  <score>  (78) 
6.46954

>  <index>  (78) 
77

>  <Smiles>  (78) 
C(C(C([H])([H])[H])(C#N)c1c(c(c(N(C(c2c(c(c(c(Cl)c2[H])[H])[H])[H])([H])[H])C(=O)C(c2c(nc(c3c(c(c(c(c23)[H])[H])[H])[H])[H])[H])([H])[H])c(c1[H])[H])[H])[H])([H])([H])[H]

>  <h>  (78) 
<NA>

>  <Training>  (78) 
True

>  <Success>  (78) 
True

>  <enamine_searched>  (78) 
False

>  <enamine_id>  (78) 
nan

$$$$

     RDKit          3D

 40 42  0  0  0  0  0  0  0  0999 V2000
   12.5733   -1.9557   23.1269 C   0  0  0  0  0  0  0  0  0  0  0  0
   11.5978   -0.8261   23.4864 C   0  0  0  0  0  0  0  0  0  0  0  0
   10.1666   -1.3253   23.8048 C   0  0  0  0  0  0  0  0  0  0  0  0
    9.2219   -1.2878   22.5997 C   0  0  0  0  0  0  0  0  0  0  0  0
    9.1173    0.0691   22.0640 N   0  0  0  0  0  0  0  0  0  0  0  0
    8.0541    0.5647   21.3508 C   0  0  0  0  0  0  0  0  0  0  0  0
    7.9656    1.7457   21.0612 O   0  0  0  0  0  0  0  0  0  0  0  0
    6.9943   -0.4415   20.8936 C   0  0  0  0  0  0  0  0  0  0  0  0
    6.1390    0.0848   19.7725 C   0  0  0  0  0  0  0  0  0  0  0  0
    6.4486   -0.2207   18.4698 C   0  0  0  0  0  0  0  0  0  0  0  0
    5.7824    0.2241   17.3712 N   0  0  0  0  0  0  0  0  0  0  0  0
    4.7595    1.0163   17.5831 C   0  0  0  0  0  0  0  0  0  0  0  0
    4.3156    1.4154   18.8729 C   0  0  0  0  0  0  0  0  0  0  0  0
    3.1969    2.2684   19.0425 C   0  0  0  0  0  0  0  0  0  0  0  0
    2.7862    2.6362   20.2954 C   0  0  0  0  0  0  0  0  0  0  0  0
    3.4851    2.1693   21.4330 C   0  0  0  0  0  0  0  0  0  0  0  0
    4.5795    1.3498   21.2927 C   0  0  0  0  0  0  0  0  0  0  0  0
    5.0233    0.9444   20.0050 C   0  0  0  0  0  0  0  0  0  0  0  0
    5.1232    1.0224   22.1742 H   0  0  0  0  0  0  0  0  0  0  0  0
    3.1522    2.4693   22.4226 H   0  0  0  0  0  0  0  0  0  0  0  0
    1.9315    3.2940   20.4234 H   0  0  0  0  0  0  0  0  0  0  0  0
    2.6830    2.6303   18.1541 H   0  0  0  0  0  0  0  0  0  0  0  0
    4.2176    1.3866   16.7110 H   0  0  0  0  0  0  0  0  0  0  0  0
    7.2913   -0.8758   18.2508 H   0  0  0  0  0  0  0  0  0  0  0  0
    7.5144   -1.3477   20.5590 H   0  0  0  0  0  0  0  0  0  0  0  0
    6.3839   -0.7264   21.7612 H   0  0  0  0  0  0  0  0  0  0  0  0
   10.2387    0.9691   22.3029 C   0  0  0  0  0  0  0  0  0  0  0  0
   11.5385    0.1838   22.3261 C   0  0  0  0  0  0  0  0  0  0  0  0
   11.5819   -0.3951   21.4025 H   0  0  0  0  0  0  0  0  0  0  0  0
   12.4118    0.8498   22.3166 H   0  0  0  0  0  0  0  0  0  0  0  0
   10.2192    1.7198   21.5153 H   0  0  0  0  0  0  0  0  0  0  0  0
   10.0979    1.4933   23.2541 H   0  0  0  0  0  0  0  0  0  0  0  0
    8.2315   -1.6251   22.9166 H   0  0  0  0  0  0  0  0  0  0  0  0
    9.5793   -1.9925   21.8367 H   0  0  0  0  0  0  0  0  0  0  0  0
   10.1984   -2.3399   24.2259 H   0  0  0  0  0  0  0  0  0  0  0  0
    9.7267   -0.6952   24.5847 H   0  0  0  0  0  0  0  0  0  0  0  0
   11.9668   -0.3283   24.3918 H   0  0  0  0  0  0  0  0  0  0  0  0
   12.3527   -2.3345   22.1198 H   0  0  0  0  0  0  0  0  0  0  0  0
   12.5131   -2.7901   23.8281 H   0  0  0  0  0  0  0  0  0  0  0  0
   13.6209   -1.6185   23.1333 H   0  0  0  0  0  0  0  0  0  0  0  0
  1  2  1  0
  2  3  1  0
  3  4  1  0
  4  5  1  0
  5  6  1  0
  6  7  2  0
  6  8  1  0
  8  9  1  0
  9 10  2  0
 10 11  1  0
 11 12  2  0
 12 13  1  0
 13 14  2  0
 14 15  1  0
 15 16  2  0
 16 17  1  0
 17 18  2  0
 17 19  1  0
 16 20  1  0
 15 21  1  0
 14 22  1  0
 12 23  1  0
 10 24  1  0
  8 25  1  0
  8 26  1  0
  5 27  1  0
 27 28  1  0
 28 29  1  0
 28 30  1  0
 27 31  1  0
 27 32  1  0
  4 33  1  0
  4 34  1  0
  3 35  1  0
  3 36  1  0
  2 37  1  0
  1 38  1  0
  1 39  1  0
  1 40  1  0
 28  2  1  0
 18  9  1  0
 18 13  1  0
M  END
>  <cnnaffinities>  (79) 
[4.84841, 4.82341, 5.12174, 5.12173]

>  <score>  (79) 
4.84841

>  <index>  (79) 
79

>  <Smiles>  (79) 
C(C1(C(C(N(C(=O)C(c2c(nc(c3c(c(c(c(c23)[H])[H])[H])[H])[H])[H])([H])[H])C(C1([H])[H])([H])[H])([H])[H])([H])[H])[H])([H])([H])[H]

>  <h>  (79) 
<NA>

>  <Training>  (79) 
True

>  <Success>  (79) 
True

>  <enamine_searched>  (79) 
False

>  <enamine_id>  (79) 
nan

$$$$

     RDKit          3D

 59 64  0  0  0  0  0  0  0  0999 V2000
    7.5547   -2.9841   23.2892 C   0  0  0  0  0  0  0  0  0  0  0  0
    7.8006   -1.9321   22.2152 C   0  0  1  0  0  0  0  0  0  0  0  0
    6.6732   -1.8337   21.1844 C   0  0  0  0  0  0  0  0  0  0  0  0
    6.8238   -0.4831   20.6839 N   0  0  0  0  0  0  0  0  0  0  0  0
    6.0586    0.0659   19.6444 C   0  0  0  0  0  0  0  0  0  0  0  0
    6.3729   -0.2409   18.3499 C   0  0  0  0  0  0  0  0  0  0  0  0
    5.7073    0.2423   17.2781 N   0  0  0  0  0  0  0  0  0  0  0  0
    4.7019    1.0522   17.5189 C   0  0  0  0  0  0  0  0  0  0  0  0
    4.2668    1.4281   18.8210 C   0  0  0  0  0  0  0  0  0  0  0  0
    3.1591    2.2926   19.0147 C   0  0  0  0  0  0  0  0  0  0  0  0
    2.7391    2.6205   20.2760 C   0  0  0  0  0  0  0  0  0  0  0  0
    3.4235    2.1100   21.4060 C   0  0  0  0  0  0  0  0  0  0  0  0
    4.5088    1.2863   21.2467 C   0  0  0  0  0  0  0  0  0  0  0  0
    4.9604    0.9257   19.9389 C   0  0  0  0  0  0  0  0  0  0  0  0
    5.0356    0.9182   22.1252 H   0  0  0  0  0  0  0  0  0  0  0  0
    3.0896    2.3770   22.4066 H   0  0  0  0  0  0  0  0  0  0  0  0
    1.8817    3.2742   20.4159 H   0  0  0  0  0  0  0  0  0  0  0  0
    2.6562    2.6816   18.1334 H   0  0  0  0  0  0  0  0  0  0  0  0
    4.1678    1.4471   16.6554 H   0  0  0  0  0  0  0  0  0  0  0  0
    7.2208   -0.8942   18.1472 H   0  0  0  0  0  0  0  0  0  0  0  0
    7.5662    0.3451   21.4889 C   0  0  0  0  0  0  0  0  0  0  0  0
    7.7874    1.5146   21.2421 O   0  0  0  0  0  0  0  0  0  0  0  0
    8.0196   -0.4572   22.7016 C   0  0  1  0  0  0  0  0  0  0  0  0
    7.1280   -0.0207   23.9000 C   0  0  0  0  0  0  0  0  0  0  0  0
    7.5885   -0.5577   25.1635 N   0  0  0  0  0  0  0  0  0  0  0  0
    6.6633   -0.9064   26.2344 C   0  0  0  0  0  0  0  0  0  0  0  0
    6.4161    0.2293   27.1785 C   0  0  0  0  0  0  0  0  0  0  0  0
    7.1041    0.6868   28.2869 C   0  0  0  0  0  0  0  0  0  0  0  0
    6.4235    1.8579   28.6635 C   0  0  0  0  0  0  0  0  0  0  0  0
    5.3941    2.1070   27.8621 N   0  0  0  0  0  0  0  0  0  0  0  0
    5.3996    1.1052   26.9704 N   0  0  0  0  0  0  0  0  0  0  0  0
    4.3847    1.0495   25.9379 C   0  0  0  0  0  0  0  0  0  0  0  0
    3.5414    1.6561   26.2631 H   0  0  0  0  0  0  0  0  0  0  0  0
    4.0379    0.0243   25.7756 H   0  0  0  0  0  0  0  0  0  0  0  0
    4.7573    1.4490   24.9889 H   0  0  0  0  0  0  0  0  0  0  0  0
    6.6385    2.5318   29.4832 H   0  0  0  0  0  0  0  0  0  0  0  0
    8.0017    0.2723   28.7326 H   0  0  0  0  0  0  0  0  0  0  0  0
    5.7223   -1.2682   25.8000 H   0  0  0  0  0  0  0  0  0  0  0  0
    7.1391   -1.7254   26.7769 H   0  0  0  0  0  0  0  0  0  0  0  0
    8.9074   -0.7981   25.3940 C   0  0  0  0  0  0  0  0  0  0  0  0
    9.2832   -1.4511   26.3566 O   0  0  0  0  0  0  0  0  0  0  0  0
    9.8436   -0.2416   24.3788 C   0  0  0  0  0  0  0  0  0  0  0  0
   11.1360    0.0790   24.7453 C   0  0  0  0  0  0  0  0  0  0  0  0
   12.1141    0.3180   23.8037 C   0  0  0  0  0  0  0  0  0  0  0  0
   11.7642    0.1938   22.4608 C   0  0  0  0  0  0  0  0  0  0  0  0
   12.7384    0.2862   21.5402 F   0  0  0  0  0  0  0  0  0  0  0  0
   10.4551   -0.0276   22.0629 C   0  0  0  0  0  0  0  0  0  0  0  0
    9.4623   -0.1850   23.0415 C   0  0  0  0  0  0  0  0  0  0  0  0
   10.2016   -0.0658   21.0079 H   0  0  0  0  0  0  0  0  0  0  0  0
   13.1464    0.5206   24.0660 H   0  0  0  0  0  0  0  0  0  0  0  0
   11.3092    0.1008   25.8037 H   0  0  0  0  0  0  0  0  0  0  0  0
    7.1458    1.0767   23.9103 H   0  0  0  0  0  0  0  0  0  0  0  0
    6.0842   -0.3279   23.7578 H   0  0  0  0  0  0  0  0  0  0  0  0
    5.6881   -2.0041   21.6440 H   0  0  0  0  0  0  0  0  0  0  0  0
    6.7607   -2.5514   20.3704 H   0  0  0  0  0  0  0  0  0  0  0  0
    8.7224   -2.1907   21.6724 H   0  0  0  0  0  0  0  0  0  0  0  0
    8.3699   -3.0003   24.0202 H   0  0  0  0  0  0  0  0  0  0  0  0
    6.6217   -2.7781   23.8256 H   0  0  0  0  0  0  0  0  0  0  0  0
    7.4710   -3.9792   22.8407 H   0  0  0  0  0  0  0  0  0  0  0  0
  1  2  1  0
  2  3  1  0
  3  4  1  0
  4  5  1  0
  5  6  2  0
  6  7  1  0
  7  8  2  0
  8  9  1  0
  9 10  2  0
 10 11  1  0
 11 12  2  0
 12 13  1  0
 13 14  2  0
 13 15  1  0
 12 16  1  0
 11 17  1  0
 10 18  1  0
  8 19  1  0
  6 20  1  0
  4 21  1  0
 21 22  2  0
 21 23  1  0
 23 24  1  1
 24 25  1  0
 25 26  1  0
 26 27  1  0
 27 28  2  0
 28 29  1  0
 29 30  2  0
 30 31  1  0
 31 32  1  0
 32 33  1  0
 32 34  1  0
 32 35  1  0
 29 36  1  0
 28 37  1  0
 26 38  1  0
 26 39  1  0
 25 40  1  0
 40 41  2  0
 40 42  1  0
 42 43  2  0
 43 44  1  0
 44 45  2  0
 45 46  1  0
 45 47  1  0
 47 48  2  0
 47 49  1  0
 44 50  1  0
 43 51  1  0
 24 52  1  0
 24 53  1  0
  3 54  1  0
  3 55  1  0
  2 56  1  6
  1 57  1  0
  1 58  1  0
  1 59  1  0
 23  2  1  0
 31 27  1  0
 48 42  1  0
 14  5  1  0
 48 23  1  0
 14  9  1  0
M  END
>  <cnnaffinities>  (80) 
[6.18489, 6.12791]

>  <score>  (80) 
6.18489

>  <index>  (80) 
80

>  <Smiles>  (80) 
C([C@]1(C(N(c2c(nc(c3c(c(c(c(c23)[H])[H])[H])[H])[H])[H])C(=O)[C@]21C(N(C(c1c(c(nn1C([H])([H])[H])[H])[H])([H])[H])C(=O)c1c(c(c(F)c(c21)[H])[H])[H])([H])[H])([H])[H])[H])([H])([H])[H]

>  <h>  (80) 
<NA>

>  <Training>  (80) 
True

>  <Success>  (80) 
True

>  <enamine_searched>  (80) 
False

>  <enamine_id>  (80) 
nan

$$$$

     RDKit          3D

 58 63  0  0  0  0  0  0  0  0999 V2000
    7.0940    2.2264   30.0515 C   0  0  0  0  0  0  0  0  0  0  0  0
    6.7717    1.4381   28.8368 C   0  0  0  0  0  0  0  0  0  0  0  0
    7.3701    0.3687   28.4446 N   0  0  0  0  0  0  0  0  0  0  0  0
    6.6757   -0.0218   27.3060 C   0  0  0  0  0  0  0  0  0  0  0  0
    7.1461   -1.1397   26.4121 C   0  0  0  0  0  0  0  0  0  0  0  0
    7.9858   -0.7698   25.2684 N   0  0  0  0  0  0  0  0  0  0  0  0
    7.2877   -0.0603   23.9967 C   0  0  0  0  0  0  0  0  0  0  0  0
    8.2125   -0.4739   22.8318 C   0  0  2  0  0  0  0  0  0  0  0  0
    7.6466    0.3876   21.7007 C   0  0  0  0  0  0  0  0  0  0  0  0
    7.7701    1.5905   21.6118 O   0  0  0  0  0  0  0  0  0  0  0  0
    6.9233   -0.4086   20.8441 N   0  0  0  0  0  0  0  0  0  0  0  0
    6.1351    0.1016   19.7706 C   0  0  0  0  0  0  0  0  0  0  0  0
    6.4283   -0.2206   18.4707 C   0  0  0  0  0  0  0  0  0  0  0  0
    5.7582    0.2359   17.3740 N   0  0  0  0  0  0  0  0  0  0  0  0
    4.7365    1.0318   17.5756 C   0  0  0  0  0  0  0  0  0  0  0  0
    4.2881    1.4234   18.8714 C   0  0  0  0  0  0  0  0  0  0  0  0
    3.1595    2.2763   19.0508 C   0  0  0  0  0  0  0  0  0  0  0  0
    2.7468    2.6118   20.3074 C   0  0  0  0  0  0  0  0  0  0  0  0
    3.4283    2.1132   21.4416 C   0  0  0  0  0  0  0  0  0  0  0  0
    4.5119    1.2943   21.2955 C   0  0  0  0  0  0  0  0  0  0  0  0
    4.9877    0.9388   20.0013 C   0  0  0  0  0  0  0  0  0  0  0  0
    5.0270    0.9045   22.1669 H   0  0  0  0  0  0  0  0  0  0  0  0
    3.0859    2.3811   22.4344 H   0  0  0  0  0  0  0  0  0  0  0  0
    1.8891    3.2604   20.4511 H   0  0  0  0  0  0  0  0  0  0  0  0
    2.6350    2.6506   18.1731 H   0  0  0  0  0  0  0  0  0  0  0  0
    4.1945    1.4020   16.7005 H   0  0  0  0  0  0  0  0  0  0  0  0
    7.2816   -0.8648   18.2626 H   0  0  0  0  0  0  0  0  0  0  0  0
    6.9036   -1.8070   21.2414 C   0  0  0  0  0  0  0  0  0  0  0  0
    8.0053   -1.9336   22.2996 C   0  0  2  0  0  0  0  0  0  0  0  0
    7.7260   -3.0124   23.3437 C   0  0  0  0  0  0  0  0  0  0  0  0
    6.7790   -2.8318   23.8598 H   0  0  0  0  0  0  0  0  0  0  0  0
    7.6643   -3.9849   22.8540 H   0  0  0  0  0  0  0  0  0  0  0  0
    8.5191   -3.0422   24.0979 H   0  0  0  0  0  0  0  0  0  0  0  0
    8.9367   -2.2033   21.7858 H   0  0  0  0  0  0  0  0  0  0  0  0
    7.1081   -2.4468   20.3904 H   0  0  0  0  0  0  0  0  0  0  0  0
    5.9244   -2.0910   21.6459 H   0  0  0  0  0  0  0  0  0  0  0  0
    9.6941   -0.1843   23.1086 C   0  0  0  0  0  0  0  0  0  0  0  0
   10.5667    0.0757   22.0228 C   0  0  0  0  0  0  0  0  0  0  0  0
   11.9141    0.2836   22.2180 C   0  0  0  0  0  0  0  0  0  0  0  0
   12.7761    0.5486   21.2432 F   0  0  0  0  0  0  0  0  0  0  0  0
   12.4467    0.2367   23.4861 C   0  0  0  0  0  0  0  0  0  0  0  0
   11.5708    0.0201   24.5042 C   0  0  0  0  0  0  0  0  0  0  0  0
   10.1549   -0.2506   24.4216 C   0  0  0  0  0  0  0  0  0  0  0  0
    9.4275   -0.6792   25.7133 C   0  0  0  0  0  0  0  0  0  0  0  0
    9.4274   -0.6792   25.7132 O   0  0  0  0  0  0  0  0  0  0  0  0
   11.9214    0.2155   25.5074 H   0  0  0  0  0  0  0  0  0  0  0  0
   13.5114    0.4124   23.6745 H   0  0  0  0  0  0  0  0  0  0  0  0
   10.1863    0.1037   21.0079 H   0  0  0  0  0  0  0  0  0  0  0  0
    6.3245   -0.4806   23.9839 H   0  0  0  0  0  0  0  0  0  0  0  0
    7.2991    1.0095   24.2160 H   0  0  0  0  0  0  0  0  0  0  0  0
    6.1886   -1.6110   26.0184 H   0  0  0  0  0  0  0  0  0  0  0  0
    7.6068   -1.9358   27.0251 H   0  0  0  0  0  0  0  0  0  0  0  0
    5.7084    0.8703   27.0487 C   0  0  0  0  0  0  0  0  0  0  0  0
    5.7341    1.8202   28.0415 O   0  0  0  0  0  0  0  0  0  0  0  0
    4.9846    0.9383   26.2467 H   0  0  0  0  0  0  0  0  0  0  0  0
    6.6745    1.7251   30.9265 H   0  0  0  0  0  0  0  0  0  0  0  0
    8.1746    2.2519   30.1644 H   0  0  0  0  0  0  0  0  0  0  0  0
    6.7012    3.2365   29.9923 H   0  0  0  0  0  0  0  0  0  0  0  0
  1  2  1  0
  2  3  2  0
  3  4  1  0
  4  5  1  0
  5  6  1  0
  6  7  1  0
  8  7  1  1
  8  9  1  0
  9 10  2  0
  9 11  1  0
 11 12  1  0
 12 13  2  0
 13 14  1  0
 14 15  2  0
 15 16  1  0
 16 17  2  0
 17 18  1  0
 18 19  2  0
 19 20  1  0
 20 21  2  0
 20 22  1  0
 19 23  1  0
 18 24  1  0
 17 25  1  0
 15 26  1  0
 13 27  1  0
 11 28  1  0
 28 29  1  0
 29 30  1  0
 30 31  1  0
 30 32  1  0
 30 33  1  0
 29 34  1  6
 28 35  1  0
 28 36  1  0
  8 37  1  0
 37 38  2  0
 38 39  1  0
 39 40  1  0
 39 41  2  0
 41 42  1  0
 42 43  2  0
 43 44  1  0
 44 45  2  0
 42 46  1  0
 41 47  1  0
 38 48  1  0
  7 49  1  0
  7 50  1  0
  5 51  1  0
  5 52  1  0
  4 53  2  0
 53 54  1  0
 53 55  1  0
  1 56  1  0
  1 57  1  0
  1 58  1  0
 54  2  1  0
 44  6  1  0
 29  8  1  0
 43 37  1  0
 21 12  1  0
 21 16  1  0
M  END
>  <cnnaffinities>  (81) 
[6.3086]

>  <score>  (81) 
6.3086

>  <index>  (81) 
81

>  <Smiles>  (81) 
C(c1nc(C(N2C([C@@]3(C(=O)N(c4c(nc(c5c(c(c(c(c45)[H])[H])[H])[H])[H])[H])C([C@@]3(C([H])([H])[H])[H])([H])[H])c3c(c(F)c(c(c3C2=O)[H])[H])[H])([H])[H])([H])[H])c(o1)[H])([H])([H])[H]

>  <h>  (81) 
<NA>

>  <Training>  (81) 
True

>  <Success>  (81) 
True

>  <enamine_searched>  (81) 
False

>  <enamine_id>  (81) 
nan

$$$$

     RDKit          3D

 55 60  0  0  0  0  0  0  0  0999 V2000
    6.6730   -2.8207   23.6680 C   0  0  0  0  0  0  0  0  0  0  0  0
    6.8846   -2.2329   22.2775 C   0  0  1  0  0  0  0  0  0  0  0  0
    5.7427   -1.3214   21.7987 C   0  0  0  0  0  0  0  0  0  0  0  0
    6.3783   -0.3904   20.8746 N   0  0  0  0  0  0  0  0  0  0  0  0
    5.7763    0.2027   19.7390 C   0  0  0  0  0  0  0  0  0  0  0  0
    6.2111   -0.0791   18.4657 C   0  0  0  0  0  0  0  0  0  0  0  0
    5.5985    0.3701   17.3417 N   0  0  0  0  0  0  0  0  0  0  0  0
    4.5549    1.1502   17.4939 C   0  0  0  0  0  0  0  0  0  0  0  0
    4.0362    1.5585   18.7564 C   0  0  0  0  0  0  0  0  0  0  0  0
    2.9193    2.4232   18.8856 C   0  0  0  0  0  0  0  0  0  0  0  0
    2.4994    2.8255   20.1239 C   0  0  0  0  0  0  0  0  0  0  0  0
    3.1781    2.4013   21.2898 C   0  0  0  0  0  0  0  0  0  0  0  0
    4.2569    1.5608   21.1923 C   0  0  0  0  0  0  0  0  0  0  0  0
    4.6826    1.0978   19.9203 C   0  0  0  0  0  0  0  0  0  0  0  0
    4.8109    1.2667   22.0795 H   0  0  0  0  0  0  0  0  0  0  0  0
    2.8537    2.7479   22.2658 H   0  0  0  0  0  0  0  0  0  0  0  0
    1.6504    3.4955   20.2209 H   0  0  0  0  0  0  0  0  0  0  0  0
    2.4265    2.7670   17.9805 H   0  0  0  0  0  0  0  0  0  0  0  0
    4.0706    1.5059   16.5853 H   0  0  0  0  0  0  0  0  0  0  0  0
    7.0871   -0.7047   18.3023 H   0  0  0  0  0  0  0  0  0  0  0  0
    7.7291   -0.2814   21.0758 C   0  0  0  0  0  0  0  0  0  0  0  0
    8.4667    0.5075   20.5203 O   0  0  0  0  0  0  0  0  0  0  0  0
    8.1850   -1.3774   22.0518 C   0  0  1  0  0  0  0  0  0  0  0  0
    8.7426   -0.7102   23.3446 C   0  0  0  0  0  0  0  0  0  0  0  0
    9.5776   -1.5304   24.2449 N   0  0  0  0  0  0  0  0  0  0  0  0
    9.4913   -1.2035   25.6528 C   0  0  0  0  0  0  0  0  0  0  0  0
    8.8124   -2.2710   26.4477 C   0  0  0  0  0  0  0  0  0  0  0  0
    7.8760   -2.1029   27.3219 N   0  0  0  0  0  0  0  0  0  0  0  0
    7.5510   -3.3938   27.7173 C   0  0  0  0  0  0  0  0  0  0  0  0
    8.3284   -4.2745   27.0540 C   0  0  0  0  0  0  0  0  0  0  0  0
    9.1525   -3.5583   26.2270 O   0  0  0  0  0  0  0  0  0  0  0  0
    8.4085   -5.3502   27.0201 H   0  0  0  0  0  0  0  0  0  0  0  0
    6.7735   -3.5810   28.4432 H   0  0  0  0  0  0  0  0  0  0  0  0
   10.5163   -1.0373   25.9909 H   0  0  0  0  0  0  0  0  0  0  0  0
    8.8962   -0.3056   25.7722 H   0  0  0  0  0  0  0  0  0  0  0  0
   10.7649   -2.1898   23.8978 C   0  0  0  0  0  0  0  0  0  0  0  0
   11.7692   -2.1046   24.5893 O   0  0  0  0  0  0  0  0  0  0  0  0
   10.7323   -2.9772   22.6816 C   0  0  0  0  0  0  0  0  0  0  0  0
   11.9778   -2.8334   21.9435 C   0  0  0  0  0  0  0  0  0  0  0  0
   11.9900   -2.7819   20.5930 C   0  0  0  0  0  0  0  0  0  0  0  0
   11.9184   -3.0662   20.4576 C   0  0  0  0  0  0  0  0  0  0  0  0
   11.5286   -3.9397   19.5195 F   0  0  0  0  0  0  0  0  0  0  0  0
    9.5740   -3.1880   22.0431 C   0  0  0  0  0  0  0  0  0  0  0  0
    9.2223   -2.1563   21.3022 C   0  0  0  0  0  0  0  0  0  0  0  0
    9.4997   -1.8197   20.3036 H   0  0  0  0  0  0  0  0  0  0  0  0
   13.1190   -3.1315   20.4798 H   0  0  0  0  0  0  0  0  0  0  0  0
   12.7749   -2.3202   22.4651 H   0  0  0  0  0  0  0  0  0  0  0  0
    7.8782   -0.3846   23.9288 H   0  0  0  0  0  0  0  0  0  0  0  0
    9.2643    0.2148   23.0595 H   0  0  0  0  0  0  0  0  0  0  0  0
    4.9330   -1.8717   21.3053 H   0  0  0  0  0  0  0  0  0  0  0  0
    5.3151   -0.7877   22.6613 H   0  0  0  0  0  0  0  0  0  0  0  0
    6.9990   -3.0817   21.5912 H   0  0  0  0  0  0  0  0  0  0  0  0
    6.5298   -2.0586   24.4416 H   0  0  0  0  0  0  0  0  0  0  0  0
    7.5477   -3.4221   23.9324 H   0  0  0  0  0  0  0  0  0  0  0  0
    5.7905   -3.4714   23.6842 H   0  0  0  0  0  0  0  0  0  0  0  0
  1  2  1  0
  2  3  1  0
  3  4  1  0
  4  5  1  0
  5  6  2  0
  6  7  1  0
  7  8  2  0
  8  9  1  0
  9 10  2  0
 10 11  1  0
 11 12  2  0
 12 13  1  0
 13 14  2  0
 13 15  1  0
 12 16  1  0
 11 17  1  0
 10 18  1  0
  8 19  1  0
  6 20  1  0
  4 21  1  0
 21 22  2  0
 21 23  1  0
 23 24  1  1
 24 25  1  0
 25 26  1  0
 26 27  1  0
 27 28  2  0
 28 29  1  0
 29 30  2  0
 30 31  1  0
 30 32  1  0
 29 33  1  0
 26 34  1  0
 26 35  1  0
 25 36  1  0
 36 37  2  0
 36 38  1  0
 38 39  2  0
 39 40  1  0
 40 41  2  0
 41 42  1  0
 41 43  1  0
 43 44  2  0
 43 45  1  0
 40 46  1  0
 39 47  1  0
 24 48  1  0
 24 49  1  0
  3 50  1  0
  3 51  1  0
  2 52  1  6
  1 53  1  0
  1 54  1  0
  1 55  1  0
 23  2  1  0
 31 27  1  0
 44 38  1  0
 14  5  1  0
 44 23  1  0
 14  9  1  0
M  END
>  <cnnaffinities>  (82) 
[6.09787]

>  <score>  (82) 
6.09787

>  <index>  (82) 
82

>  <Smiles>  (82) 
C([C@]1(C(N(c2c(nc(c3c(c(c(c(c23)[H])[H])[H])[H])[H])[H])C(=O)[C@]21C(N(C(c1nc(c(o1)[H])[H])([H])[H])C(=O)c1c(c(c(F)c(c21)[H])[H])[H])([H])[H])([H])[H])[H])([H])([H])[H]

>  <h>  (82) 
<NA>

>  <Training>  (82) 
True

>  <Success>  (82) 
True

>  <enamine_searched>  (82) 
False

>  <enamine_id>  (82) 
nan

$$$$

     RDKit          3D

 72 77  0  0  0  0  0  0  0  0999 V2000
    9.2055    6.0357   23.5075 C   0  0  0  0  0  0  0  0  0  0  0  0
    7.9878    6.0558   22.5913 C   0  0  2  0  0  0  0  0  0  0  0  0
    7.2550    7.3832   22.7002 C   0  0  0  0  0  0  0  0  0  0  0  0
    6.0853    7.4251   21.9124 O   0  0  0  0  0  0  0  0  0  0  0  0
    5.1558    6.4702   22.3788 C   0  0  0  0  0  0  0  0  0  0  0  0
    5.6783    5.0475   22.2480 C   0  0  1  0  0  0  0  0  0  0  0  0
    5.7892    4.6367   20.7871 C   0  0  0  0  0  0  0  0  0  0  0  0
    6.1247    3.5987   20.7030 H   0  0  0  0  0  0  0  0  0  0  0  0
    6.5126    5.2811   20.2780 H   0  0  0  0  0  0  0  0  0  0  0  0
    4.8301    4.7032   20.2690 H   0  0  0  0  0  0  0  0  0  0  0  0
    7.0212    4.9312   22.9360 N   0  0  0  0  0  4  0  0  0  0  0  0
    7.6287    3.5860   22.7427 C   0  0  0  0  0  0  0  0  0  0  0  0
    8.1018    3.0342   24.0738 C   0  0  0  0  0  0  0  0  0  0  0  0
    8.7441    1.7495   23.9029 N   0  0  0  0  0  0  0  0  0  0  0  0
    7.9666    0.5265   23.8158 C   0  0  0  0  0  0  0  0  0  0  0  0
    8.3826   -0.3538   22.6032 C   0  0  2  0  0  0  0  0  0  0  0  0
    7.9649    0.2500   21.2478 C   0  0  0  0  0  0  0  0  0  0  0  0
    8.5065    1.1556   20.6380 O   0  0  0  0  0  0  0  0  0  0  0  0
    6.8523   -0.4233   20.8007 N   0  0  0  0  0  0  0  0  0  0  0  0
    6.1003    0.0994   19.7265 C   0  0  0  0  0  0  0  0  0  0  0  0
    6.4548   -0.1875   18.4365 C   0  0  0  0  0  0  0  0  0  0  0  0
    5.7837    0.2593   17.3489 N   0  0  0  0  0  0  0  0  0  0  0  0
    4.7544    1.0443   17.5720 C   0  0  0  0  0  0  0  0  0  0  0  0
    4.2999    1.4379   18.8619 C   0  0  0  0  0  0  0  0  0  0  0  0
    3.1875    2.2984   19.0508 C   0  0  0  0  0  0  0  0  0  0  0  0
    2.7706    2.6385   20.3076 C   0  0  0  0  0  0  0  0  0  0  0  0
    3.4716    2.1729   21.4402 C   0  0  0  0  0  0  0  0  0  0  0  0
    4.5642    1.3548   21.2913 C   0  0  0  0  0  0  0  0  0  0  0  0
    4.9914    0.9501   19.9934 C   0  0  0  0  0  0  0  0  0  0  0  0
    5.1183    1.0407   22.1709 H   0  0  0  0  0  0  0  0  0  0  0  0
    3.1446    2.4673   22.4328 H   0  0  0  0  0  0  0  0  0  0  0  0
    1.9055    3.2810   20.4380 H   0  0  0  0  0  0  0  0  0  0  0  0
    2.6881    2.6818   18.1668 H   0  0  0  0  0  0  0  0  0  0  0  0
    4.2177    1.4131   16.6977 H   0  0  0  0  0  0  0  0  0  0  0  0
    7.3190   -0.8228   18.2560 H   0  0  0  0  0  0  0  0  0  0  0  0
    6.3990   -1.4922   21.6690 C   0  0  0  0  0  0  0  0  0  0  0  0
    7.6285   -1.7169   22.5589 C   0  0  2  0  0  0  0  0  0  0  0  0
    7.3534   -2.3978   23.8889 C   0  0  0  0  0  0  0  0  0  0  0  0
    8.2942   -2.5227   24.4371 H   0  0  0  0  0  0  0  0  0  0  0  0
    6.6597   -1.8230   24.5153 H   0  0  0  0  0  0  0  0  0  0  0  0
    6.9196   -3.3879   23.7087 H   0  0  0  0  0  0  0  0  0  0  0  0
    8.2584   -2.3982   21.9802 H   0  0  0  0  0  0  0  0  0  0  0  0
    6.1626   -2.3925   21.0864 H   0  0  0  0  0  0  0  0  0  0  0  0
    5.4941   -1.2210   22.2378 H   0  0  0  0  0  0  0  0  0  0  0  0
    9.8803   -0.4560   22.5980 C   0  0  0  0  0  0  0  0  0  0  0  0
   10.4719   -1.4498   21.8262 C   0  0  0  0  0  0  0  0  0  0  0  0
   11.8380   -1.5488   21.7418 C   0  0  0  0  0  0  0  0  0  0  0  0
   12.3360   -2.8555   20.7014 Cl  0  0  0  0  0  0  0  0  0  0  0  0
   12.6664   -0.6483   22.4241 C   0  0  0  0  0  0  0  0  0  0  0  0
   12.0819    0.3858   23.1206 C   0  0  0  0  0  0  0  0  0  0  0  0
   10.6989    0.5142   23.1770 C   0  0  0  0  0  0  0  0  0  0  0  0
   10.1047    1.7440   23.7806 C   0  0  0  0  0  0  0  0  0  0  0  0
   10.8037    2.6925   24.1137 O   0  0  0  0  0  0  0  0  0  0  0  0
   12.7034    1.1255   23.6109 H   0  0  0  0  0  0  0  0  0  0  0  0
   13.7475   -0.6806   22.4450 H   0  0  0  0  0  0  0  0  0  0  0  0
    9.9113   -2.1689   21.2423 H   0  0  0  0  0  0  0  0  0  0  0  0
    6.9011    0.7786   23.7654 H   0  0  0  0  0  0  0  0  0  0  0  0
    8.1279   -0.0551   24.7365 H   0  0  0  0  0  0  0  0  0  0  0  0
    8.8315    3.7143   24.5085 H   0  0  0  0  0  0  0  0  0  0  0  0
    7.2319    2.9719   24.7435 H   0  0  0  0  0  0  0  0  0  0  0  0
    8.4495    3.6500   22.0159 H   0  0  0  0  0  0  0  0  0  0  0  0
    6.8883    2.8781   22.3546 H   0  0  0  0  0  0  0  0  0  0  0  0
    6.8544    5.0133   23.9575 H   0  0  0  0  0  0  0  0  0  0  0  0
    4.9965    4.3716   22.7818 H   0  0  0  0  0  0  0  0  0  0  0  0
    4.2571    6.5708   21.7641 H   0  0  0  0  0  0  0  0  0  0  0  0
    4.8853    6.6840   23.4247 H   0  0  0  0  0  0  0  0  0  0  0  0
    6.9977    7.5597   23.7587 H   0  0  0  0  0  0  0  0  0  0  0  0
    7.9110    8.1873   22.3562 H   0  0  0  0  0  0  0  0  0  0  0  0
    8.3130    5.9109   21.5553 H   0  0  0  0  0  0  0  0  0  0  0  0
    9.8421    5.1612   23.3412 H   0  0  0  0  0  0  0  0  0  0  0  0
    9.8166    6.9265   23.3486 H   0  0  0  0  0  0  0  0  0  0  0  0
    8.8808    6.0305   24.5566 H   0  0  0  0  0  0  0  0  0  0  0  0
  1  2  1  0
  2  3  1  0
  3  4  1  0
  4  5  1  0
  5  6  1  0
  6  7  1  0
  7  8  1  0
  7  9  1  0
  7 10  1  0
  6 11  1  0
 11 12  1  0
 12 13  1  0
 13 14  1  0
 14 15  1  0
 16 15  1  1
 16 17  1  0
 17 18  2  0
 17 19  1  0
 19 20  1  0
 20 21  2  0
 21 22  1  0
 22 23  2  0
 23 24  1  0
 24 25  2  0
 25 26  1  0
 26 27  2  0
 27 28  1  0
 28 29  2  0
 28 30  1  0
 27 31  1  0
 26 32  1  0
 25 33  1  0
 23 34  1  0
 21 35  1  0
 19 36  1  0
 36 37  1  0
 37 38  1  0
 38 39  1  0
 38 40  1  0
 38 41  1  0
 37 42  1  6
 36 43  1  0
 36 44  1  0
 16 45  1  0
 45 46  2  0
 46 47  1  0
 47 48  1  0
 47 49  2  0
 49 50  1  0
 50 51  2  0
 51 52  1  0
 52 53  2  0
 50 54  1  0
 49 55  1  0
 46 56  1  0
 15 57  1  0
 15 58  1  0
 13 59  1  0
 13 60  1  0
 12 61  1  0
 12 62  1  0
 11 63  1  0
  6 64  1  1
  5 65  1  0
  5 66  1  0
  3 67  1  0
  3 68  1  0
  2 69  1  6
  1 70  1  0
  1 71  1  0
  1 72  1  0
 11  2  1  0
 52 14  1  0
 37 16  1  0
 51 45  1  0
 29 20  1  0
 29 24  1  0
M  CHG  1  11   1
M  END
>  <cnnaffinities>  (83) 
[6.62205]

>  <score>  (83) 
6.62205

>  <index>  (83) 
83

>  <Smiles>  (83) 
C([C@@]1(C(OC([C@@](C([H])([H])[H])([N+]1(C(C(N1C([C@@]2(C(=O)N(c3c(nc(c4c(c(c(c(c34)[H])[H])[H])[H])[H])[H])C([C@@]2(C([H])([H])[H])[H])([H])[H])c2c(c(Cl)c(c(c2C1=O)[H])[H])[H])([H])[H])([H])[H])([H])[H])[H])[H])([H])[H])([H])[H])[H])([H])([H])[H]

>  <h>  (83) 
<NA>

>  <Training>  (83) 
True

>  <Success>  (83) 
True

>  <enamine_searched>  (83) 
False

>  <enamine_id>  (83) 
nan

$$$$

     RDKit          3D

 60 65  0  0  0  0  0  0  0  0999 V2000
    2.8318   -6.6088   25.0604 C   0  0  0  0  0  0  0  0  0  0  0  0
    4.0996   -6.3402   24.4060 N   0  0  0  0  0  0  0  0  0  0  0  0
    4.1871   -5.2467   23.6000 C   0  0  0  0  0  0  0  0  0  0  0  0
    3.1943   -4.6093   23.3099 O   0  0  0  0  0  0  0  0  0  0  0  0
    5.5479   -4.8862   23.0148 C   0  0  0  0  0  0  0  0  0  0  0  0
    6.2787   -3.8099   23.6447 N   0  0  0  0  0  0  0  0  0  0  0  0
    7.4639   -3.2206   23.0269 C   0  0  0  0  0  0  0  0  0  0  0  0
    7.3291   -1.6969   22.8114 C   0  0  2  0  0  0  0  0  0  0  0  0
    6.3095   -1.3835   21.6997 C   0  0  0  0  0  0  0  0  0  0  0  0
    5.1858   -1.8264   21.5760 O   0  0  0  0  0  0  0  0  0  0  0  0
    6.8637   -0.4783   20.8355 N   0  0  0  0  0  0  0  0  0  0  0  0
    6.1104    0.0665   19.7707 C   0  0  0  0  0  0  0  0  0  0  0  0
    6.4550   -0.2251   18.4742 C   0  0  0  0  0  0  0  0  0  0  0  0
    5.7885    0.2299   17.3874 N   0  0  0  0  0  0  0  0  0  0  0  0
    4.7609    1.0154   17.6056 C   0  0  0  0  0  0  0  0  0  0  0  0
    4.3059    1.4030   18.8990 C   0  0  0  0  0  0  0  0  0  0  0  0
    3.1925    2.2683   19.0606 C   0  0  0  0  0  0  0  0  0  0  0  0
    2.7867    2.6536   20.3077 C   0  0  0  0  0  0  0  0  0  0  0  0
    3.4851    2.1980   21.4516 C   0  0  0  0  0  0  0  0  0  0  0  0
    4.5669    1.3626   21.3258 C   0  0  0  0  0  0  0  0  0  0  0  0
    4.9964    0.9274   20.0330 C   0  0  0  0  0  0  0  0  0  0  0  0
    5.0970    1.0357   22.2206 H   0  0  0  0  0  0  0  0  0  0  0  0
    3.1562    2.5156   22.4369 H   0  0  0  0  0  0  0  0  0  0  0  0
    1.9316    3.3146   20.4283 H   0  0  0  0  0  0  0  0  0  0  0  0
    2.6874    2.6253   18.1672 H   0  0  0  0  0  0  0  0  0  0  0  0
    4.2287    1.3827   16.7289 H   0  0  0  0  0  0  0  0  0  0  0  0
    7.3034   -0.8795   18.2712 H   0  0  0  0  0  0  0  0  0  0  0  0
    8.2180   -0.0834   21.1433 C   0  0  0  0  0  0  0  0  0  0  0  0
    8.6483   -1.0082   22.3044 C   0  0  2  0  0  0  0  0  0  0  0  0
    9.7763   -1.9438   21.8431 C   0  0  0  0  0  0  0  0  0  0  0  0
   10.1461   -2.5752   22.6560 H   0  0  0  0  0  0  0  0  0  0  0  0
   10.6271   -1.3533   21.4832 H   0  0  0  0  0  0  0  0  0  0  0  0
    9.4545   -2.5908   21.0194 H   0  0  0  0  0  0  0  0  0  0  0  0
    9.0616   -0.4164   23.1300 H   0  0  0  0  0  0  0  0  0  0  0  0
    8.2528    0.9845   21.3976 H   0  0  0  0  0  0  0  0  0  0  0  0
    8.8656   -0.2329   20.2792 H   0  0  0  0  0  0  0  0  0  0  0  0
    6.8369   -1.0851   24.1192 C   0  0  0  0  0  0  0  0  0  0  0  0
    6.9535    0.2993   24.3288 C   0  0  0  0  0  0  0  0  0  0  0  0
    6.4827    0.8600   25.5036 C   0  0  0  0  0  0  0  0  0  0  0  0
    6.6078    2.5818   25.7513 Cl  0  0  0  0  0  0  0  0  0  0  0  0
    5.8982    0.0733   26.4955 C   0  0  0  0  0  0  0  0  0  0  0  0
    5.7626   -1.2879   26.2858 C   0  0  0  0  0  0  0  0  0  0  0  0
    6.2064   -1.8666   25.0966 C   0  0  0  0  0  0  0  0  0  0  0  0
    5.9016   -3.3210   24.8790 C   0  0  0  0  0  0  0  0  0  0  0  0
    5.3243   -3.9969   25.7168 O   0  0  0  0  0  0  0  0  0  0  0  0
    5.2900   -1.9456   27.0117 H   0  0  0  0  0  0  0  0  0  0  0  0
    5.5403    0.5431   27.4034 H   0  0  0  0  0  0  0  0  0  0  0  0
    7.3992    0.9583   23.5856 H   0  0  0  0  0  0  0  0  0  0  0  0
    7.6389   -3.7108   22.0750 H   0  0  0  0  0  0  0  0  0  0  0  0
    8.3243   -3.3911   23.6872 H   0  0  0  0  0  0  0  0  0  0  0  0
    6.2671   -5.9871   22.2896 C   0  0  0  0  0  0  0  0  0  0  0  0
    5.5525   -4.9423   21.5094 C   0  0  0  0  0  0  0  0  0  0  0  0
    4.6088   -5.2444   21.0837 H   0  0  0  0  0  0  0  0  0  0  0  0
    6.0882   -4.1773   20.9614 H   0  0  0  0  0  0  0  0  0  0  0  0
    5.7702   -6.9512   22.2650 H   0  0  0  0  0  0  0  0  0  0  0  0
    7.3433   -6.0503   22.3769 H   0  0  0  0  0  0  0  0  0  0  0  0
    4.9435   -6.6752   24.8353 H   0  0  0  0  0  0  0  0  0  0  0  0
    2.0743   -6.8760   24.3213 H   0  0  0  0  0  0  0  0  0  0  0  0
    2.4613   -5.7252   25.5856 H   0  0  0  0  0  0  0  0  0  0  0  0
    2.9578   -7.4340   25.7641 H   0  0  0  0  0  0  0  0  0  0  0  0
  1  2  1  0
  2  3  1  0
  3  4  2  0
  3  5  1  0
  5  6  1  0
  6  7  1  0
  8  7  1  1
  8  9  1  0
  9 10  2  0
  9 11  1  0
 11 12  1  0
 12 13  2  0
 13 14  1  0
 14 15  2  0
 15 16  1  0
 16 17  2  0
 17 18  1  0
 18 19  2  0
 19 20  1  0
 20 21  2  0
 20 22  1  0
 19 23  1  0
 18 24  1  0
 17 25  1  0
 15 26  1  0
 13 27  1  0
 11 28  1  0
 28 29  1  0
 29 30  1  0
 30 31  1  0
 30 32  1  0
 30 33  1  0
 29 34  1  1
 28 35  1  0
 28 36  1  0
  8 37  1  0
 37 38  2  0
 38 39  1  0
 39 40  1  0
 39 41  2  0
 41 42  1  0
 42 43  2  0
 43 44  1  0
 44 45  2  0
 42 46  1  0
 41 47  1  0
 38 48  1  0
  7 49  1  0
  7 50  1  0
  5 51  1  0
 51 52  1  0
 52 53  1  0
 52 54  1  0
 51 55  1  0
 51 56  1  0
  2 57  1  0
  1 58  1  0
  1 59  1  0
  1 60  1  0
 52  5  1  0
 44  6  1  0
 29  8  1  0
 43 37  1  0
 21 12  1  0
 21 16  1  0
M  END
>  <cnnaffinities>  (84) 
[5.91096]

>  <score>  (84) 
5.91096

>  <index>  (84) 
84

>  <Smiles>  (84) 
C(N(C(=O)C1(N2C([C@@]3(C(=O)N(c4c(nc(c5c(c(c(c(c45)[H])[H])[H])[H])[H])[H])C([C@@]3(C([H])([H])[H])[H])([H])[H])c3c(c(Cl)c(c(c3C2=O)[H])[H])[H])([H])[H])C(C1([H])[H])([H])[H])[H])([H])([H])[H]

>  <h>  (84) 
<NA>

>  <Training>  (84) 
True

>  <Success>  (84) 
True

>  <enamine_searched>  (84) 
False

>  <enamine_id>  (84) 
nan

$$$$

     RDKit          3D

 55 60  0  0  0  0  0  0  0  0999 V2000
    7.2406   -2.5229   23.8345 C   0  0  0  0  0  0  0  0  0  0  0  0
    7.5284   -1.8112   22.5199 C   0  0  1  0  0  0  0  0  0  0  0  0
    6.3221   -1.6076   21.5886 C   0  0  0  0  0  0  0  0  0  0  0  0
    6.7594   -0.4972   20.7670 N   0  0  0  0  0  0  0  0  0  0  0  0
    6.0260    0.0311   19.6819 C   0  0  0  0  0  0  0  0  0  0  0  0
    6.4328   -0.2073   18.3977 C   0  0  0  0  0  0  0  0  0  0  0  0
    5.7851    0.2613   17.3019 N   0  0  0  0  0  0  0  0  0  0  0  0
    4.7384    1.0280   17.5005 C   0  0  0  0  0  0  0  0  0  0  0  0
    4.2346    1.3840   18.7893 C   0  0  0  0  0  0  0  0  0  0  0  0
    3.1220    2.2500   18.9760 C   0  0  0  0  0  0  0  0  0  0  0  0
    2.6835    2.5600   20.2341 C   0  0  0  0  0  0  0  0  0  0  0  0
    3.3274    2.0211   21.3711 C   0  0  0  0  0  0  0  0  0  0  0  0
    4.4048    1.1855   21.2170 C   0  0  0  0  0  0  0  0  0  0  0  0
    4.8889    0.8566   19.9211 C   0  0  0  0  0  0  0  0  0  0  0  0
    4.9353    0.8425   22.1000 H   0  0  0  0  0  0  0  0  0  0  0  0
    3.0070    2.3047   22.3699 H   0  0  0  0  0  0  0  0  0  0  0  0
    1.8557    3.2491   20.3729 H   0  0  0  0  0  0  0  0  0  0  0  0
    2.6609    2.6923   18.0972 H   0  0  0  0  0  0  0  0  0  0  0  0
    4.2251    1.4034   16.6138 H   0  0  0  0  0  0  0  0  0  0  0  0
    7.3304   -0.7972   18.2180 H   0  0  0  0  0  0  0  0  0  0  0  0
    7.7408    0.2781   21.3422 C   0  0  0  0  0  0  0  0  0  0  0  0
    8.1380    1.3237   20.8839 O   0  0  0  0  0  0  0  0  0  0  0  0
    8.2243   -0.4206   22.6219 C   0  0  1  0  0  0  0  0  0  0  0  0
    7.8112    0.4065   23.8672 C   0  0  0  0  0  0  0  0  0  0  0  0
    8.5260    1.6746   23.9296 N   0  0  0  0  0  0  0  0  0  0  0  0
    7.8575    2.9575   24.1135 C   0  0  0  0  0  0  0  0  0  0  0  0
    7.4065    3.7106   22.8937 C   0  0  0  0  0  0  0  0  0  0  0  0
    7.9861    4.8033   22.3398 C   0  0  0  0  0  0  0  0  0  0  0  0
    7.1516    5.2894   21.3784 O   0  0  0  0  0  0  0  0  0  0  0  0
    6.0859    4.4663   21.4116 C   0  0  0  0  0  0  0  0  0  0  0  0
    6.1712    3.5179   22.2924 N   0  0  0  0  0  0  0  0  0  0  0  0
    5.2686    4.6672   20.7297 H   0  0  0  0  0  0  0  0  0  0  0  0
    8.9170    5.3289   22.5048 H   0  0  0  0  0  0  0  0  0  0  0  0
    8.5997    3.6013   24.5835 H   0  0  0  0  0  0  0  0  0  0  0  0
    6.9890    2.8561   24.7762 H   0  0  0  0  0  0  0  0  0  0  0  0
    9.9035    1.6668   23.8983 C   0  0  0  0  0  0  0  0  0  0  0  0
   10.5894    2.5673   24.3591 O   0  0  0  0  0  0  0  0  0  0  0  0
   10.5148    0.4839   23.2040 C   0  0  0  0  0  0  0  0  0  0  0  0
   11.9033    0.4223   23.1243 C   0  0  0  0  0  0  0  0  0  0  0  0
   12.5285   -0.5394   22.3582 C   0  0  0  0  0  0  0  0  0  0  0  0
   11.7205   -1.4275   21.6485 C   0  0  0  0  0  0  0  0  0  0  0  0
   12.2522   -2.3771   20.8659 F   0  0  0  0  0  0  0  0  0  0  0  0
   10.3477   -1.3809   21.6925 C   0  0  0  0  0  0  0  0  0  0  0  0
    9.7285   -0.4720   22.5532 C   0  0  0  0  0  0  0  0  0  0  0  0
    9.8011   -2.0275   21.0073 H   0  0  0  0  0  0  0  0  0  0  0  0
   13.6095   -0.5558   22.2854 H   0  0  0  0  0  0  0  0  0  0  0  0
   12.4836    1.1620   23.6588 H   0  0  0  0  0  0  0  0  0  0  0  0
    6.7374    0.6060   23.8473 H   0  0  0  0  0  0  0  0  0  0  0  0
    8.0261   -0.1746   24.7754 H   0  0  0  0  0  0  0  0  0  0  0  0
    5.3932   -1.3825   22.1360 H   0  0  0  0  0  0  0  0  0  0  0  0
    6.1187   -2.4729   20.9510 H   0  0  0  0  0  0  0  0  0  0  0  0
    8.2226   -2.4356   21.9574 H   0  0  0  0  0  0  0  0  0  0  0  0
    8.1547   -2.6098   24.4297 H   0  0  0  0  0  0  0  0  0  0  0  0
    6.5003   -1.9891   24.4366 H   0  0  0  0  0  0  0  0  0  0  0  0
    6.8645   -3.5371   23.6752 H   0  0  0  0  0  0  0  0  0  0  0  0
  1  2  1  0
  2  3  1  0
  3  4  1  0
  4  5  1  0
  5  6  2  0
  6  7  1  0
  7  8  2  0
  8  9  1  0
  9 10  2  0
 10 11  1  0
 11 12  2  0
 12 13  1  0
 13 14  2  0
 13 15  1  0
 12 16  1  0
 11 17  1  0
 10 18  1  0
  8 19  1  0
  6 20  1  0
  4 21  1  0
 21 22  2  0
 21 23  1  0
 23 24  1  1
 24 25  1  0
 25 26  1  0
 26 27  1  0
 27 28  2  0
 28 29  1  0
 29 30  1  0
 30 31  2  0
 30 32  1  0
 28 33  1  0
 26 34  1  0
 26 35  1  0
 25 36  1  0
 36 37  2  0
 36 38  1  0
 38 39  2  0
 39 40  1  0
 40 41  2  0
 41 42  1  0
 41 43  1  0
 43 44  2  0
 43 45  1  0
 40 46  1  0
 39 47  1  0
 24 48  1  0
 24 49  1  0
  3 50  1  0
  3 51  1  0
  2 52  1  6
  1 53  1  0
  1 54  1  0
  1 55  1  0
 23  2  1  0
 31 27  1  0
 44 38  1  0
 14  5  1  0
 44 23  1  0
 14  9  1  0
M  END
>  <cnnaffinities>  (85) 
[6.18018]

>  <score>  (85) 
6.18018

>  <index>  (85) 
85

>  <Smiles>  (85) 
C([C@]1(C(N(c2c(nc(c3c(c(c(c(c23)[H])[H])[H])[H])[H])[H])C(=O)[C@]21C(N(C(c1c(oc(n1)[H])[H])([H])[H])C(=O)c1c(c(c(F)c(c21)[H])[H])[H])([H])[H])([H])[H])[H])([H])([H])[H]

>  <h>  (85) 
<NA>

>  <Training>  (85) 
True

>  <Success>  (85) 
True

>  <enamine_searched>  (85) 
False

>  <enamine_id>  (85) 
nan

$$$$

     RDKit          3D

 65 70  0  0  0  0  0  0  0  0999 V2000
    6.3587    4.3592   21.2584 C   0  0  0  0  0  0  0  0  0  0  0  0
    7.3153    3.8704   22.2386 N   0  0  0  0  0  0  0  0  0  0  0  0
    6.8962    3.2385   23.3669 C   0  0  0  0  0  0  0  0  0  0  0  0
    5.7172    3.0089   23.6123 O   0  0  0  0  0  0  0  0  0  0  0  0
    8.0082    2.8639   24.3484 C   0  0  0  0  0  0  0  0  0  0  0  0
    8.6920    1.6378   23.9745 N   0  0  0  0  0  0  0  0  0  0  0  0
    7.9171    0.4080   23.8591 C   0  0  0  0  0  0  0  0  0  0  0  0
    8.3176   -0.4140   22.6052 C   0  0  2  0  0  0  0  0  0  0  0  0
    7.8633    0.2830   21.3095 C   0  0  0  0  0  0  0  0  0  0  0  0
    8.3176    1.2970   20.8171 O   0  0  0  0  0  0  0  0  0  0  0  0
    6.8336   -0.4525   20.7586 N   0  0  0  0  0  0  0  0  0  0  0  0
    6.0924    0.0851   19.6830 C   0  0  0  0  0  0  0  0  0  0  0  0
    6.4518   -0.1882   18.3893 C   0  0  0  0  0  0  0  0  0  0  0  0
    5.7751    0.2639   17.3067 N   0  0  0  0  0  0  0  0  0  0  0  0
    4.7355    1.0370   17.5247 C   0  0  0  0  0  0  0  0  0  0  0  0
    4.2777    1.4195   18.8196 C   0  0  0  0  0  0  0  0  0  0  0  0
    3.1640    2.2768   19.0168 C   0  0  0  0  0  0  0  0  0  0  0  0
    2.7708    2.6307   20.2815 C   0  0  0  0  0  0  0  0  0  0  0  0
    3.4720    2.1521   21.4098 C   0  0  0  0  0  0  0  0  0  0  0  0
    4.5527    1.3211   21.2431 C   0  0  0  0  0  0  0  0  0  0  0  0
    4.9762    0.9291   19.9422 C   0  0  0  0  0  0  0  0  0  0  0  0
    5.1290    1.0152   22.1105 H   0  0  0  0  0  0  0  0  0  0  0  0
    3.1932    2.4716   22.4103 H   0  0  0  0  0  0  0  0  0  0  0  0
    1.9246    3.2951   20.4231 H   0  0  0  0  0  0  0  0  0  0  0  0
    2.6500    2.6587   18.1403 H   0  0  0  0  0  0  0  0  0  0  0  0
    4.1970    1.4062   16.6514 H   0  0  0  0  0  0  0  0  0  0  0  0
    7.3236   -0.8096   18.1932 H   0  0  0  0  0  0  0  0  0  0  0  0
    6.3534   -1.5320   21.6033 C   0  0  0  0  0  0  0  0  0  0  0  0
    7.5867   -1.7783   22.4702 C   0  0  2  0  0  0  0  0  0  0  0  0
    7.3957   -2.6012   23.7370 C   0  0  0  0  0  0  0  0  0  0  0  0
    6.2501   -2.2104   24.5402 N   0  0  0  0  0  0  0  0  0  0  0  0
    5.0887   -2.8956   24.5313 C   0  0  0  0  0  0  0  0  0  0  0  0
    4.1490   -2.5375   25.4291 N   0  0  0  0  0  0  0  0  0  0  0  0
    3.0799   -3.3142   25.4199 C   0  0  0  0  0  0  0  0  0  0  0  0
    2.8607   -4.3740   24.6366 N   0  0  0  0  0  0  0  0  0  0  0  0
    3.8211   -4.5605   23.7306 C   0  0  0  0  0  0  0  0  0  0  0  0
    4.9388   -3.8632   23.6028 N   0  0  0  0  0  0  0  0  0  0  0  0
    3.6904   -5.3863   23.0318 H   0  0  0  0  0  0  0  0  0  0  0  0
    2.2963   -3.0788   26.1415 H   0  0  0  0  0  0  0  0  0  0  0  0
    6.3569   -1.5435   25.2919 H   0  0  0  0  0  0  0  0  0  0  0  0
    7.2538   -3.6479   23.4647 H   0  0  0  0  0  0  0  0  0  0  0  0
    8.3045   -2.5275   24.3438 H   0  0  0  0  0  0  0  0  0  0  0  0
    8.2392   -2.3682   21.8287 H   0  0  0  0  0  0  0  0  0  0  0  0
    5.4595   -1.2470   22.1741 H   0  0  0  0  0  0  0  0  0  0  0  0
    6.0860   -2.4072   21.0020 H   0  0  0  0  0  0  0  0  0  0  0  0
    9.8217   -0.5253   22.5922 C   0  0  0  0  0  0  0  0  0  0  0  0
   10.4338   -1.4861   21.7885 C   0  0  0  0  0  0  0  0  0  0  0  0
   11.8053   -1.5840   21.7402 C   0  0  0  0  0  0  0  0  0  0  0  0
   12.3510   -2.8483   20.6805 Cl  0  0  0  0  0  0  0  0  0  0  0  0
   12.6258   -0.7106   22.4624 C   0  0  0  0  0  0  0  0  0  0  0  0
   12.0215    0.2896   23.1950 C   0  0  0  0  0  0  0  0  0  0  0  0
   10.6357    0.4043   23.2497 C   0  0  0  0  0  0  0  0  0  0  0  0
   10.0626    1.6030   23.9506 C   0  0  0  0  0  0  0  0  0  0  0  0
   10.7715    2.4831   24.4220 O   0  0  0  0  0  0  0  0  0  0  0  0
   12.6233    1.0157   23.7263 H   0  0  0  0  0  0  0  0  0  0  0  0
   13.7084   -0.7464   22.4664 H   0  0  0  0  0  0  0  0  0  0  0  0
    9.8812   -2.1739   21.1542 H   0  0  0  0  0  0  0  0  0  0  0  0
    8.0680   -0.2081   24.7586 H   0  0  0  0  0  0  0  0  0  0  0  0
    6.8642    0.6906   23.8043 H   0  0  0  0  0  0  0  0  0  0  0  0
    8.7680    3.6523   24.3815 H   0  0  0  0  0  0  0  0  0  0  0  0
    7.5489    2.7889   25.3437 H   0  0  0  0  0  0  0  0  0  0  0  0
    8.2480    3.6567   21.9191 H   0  0  0  0  0  0  0  0  0  0  0  0
    5.6087    4.9780   21.7588 H   0  0  0  0  0  0  0  0  0  0  0  0
    5.8366    3.5399   20.7402 H   0  0  0  0  0  0  0  0  0  0  0  0
    6.8879    4.9808   20.5291 H   0  0  0  0  0  0  0  0  0  0  0  0
  1  2  1  0
  2  3  1  0
  3  4  2  0
  3  5  1  0
  5  6  1  0
  6  7  1  0
  8  7  1  1
  8  9  1  0
  9 10  2  0
  9 11  1  0
 11 12  1  0
 12 13  2  0
 13 14  1  0
 14 15  2  0
 15 16  1  0
 16 17  2  0
 17 18  1  0
 18 19  2  0
 19 20  1  0
 20 21  2  0
 20 22  1  0
 19 23  1  0
 18 24  1  0
 17 25  1  0
 15 26  1  0
 13 27  1  0
 11 28  1  0
 28 29  1  0
 29 30  1  0
 30 31  1  0
 31 32  1  0
 32 33  2  0
 33 34  1  0
 34 35  2  0
 35 36  1  0
 36 37  2  0
 36 38  1  0
 34 39  1  0
 31 40  1  0
 30 41  1  0
 30 42  1  0
 29 43  1  6
 28 44  1  0
 28 45  1  0
  8 46  1  0
 46 47  2  0
 47 48  1  0
 48 49  1  0
 48 50  2  0
 50 51  1  0
 51 52  2  0
 52 53  1  0
 53 54  2  0
 51 55  1  0
 50 56  1  0
 47 57  1  0
  7 58  1  0
  7 59  1  0
  5 60  1  0
  5 61  1  0
  2 62  1  0
  1 63  1  0
  1 64  1  0
  1 65  1  0
 53  6  1  0
 29  8  1  0
 37 32  1  0
 52 46  1  0
 21 12  1  0
 21 16  1  0
M  END
>  <cnnaffinities>  (86) 
[6.25268]

>  <score>  (86) 
6.25268

>  <index>  (86) 
86

>  <Smiles>  (86) 
C(N(C(=O)C(N1C([C@@]2(C(=O)N(c3c(nc(c4c(c(c(c(c34)[H])[H])[H])[H])[H])[H])C([C@@]2(C(N(c2nc(nc(n2)[H])[H])[H])([H])[H])[H])([H])[H])c2c(c(Cl)c(c(c2C1=O)[H])[H])[H])([H])[H])([H])[H])[H])([H])([H])[H]

>  <h>  (86) 
<NA>

>  <Training>  (86) 
True

>  <Success>  (86) 
True

>  <enamine_searched>  (86) 
False

>  <enamine_id>  (86) 
nan

$$$$

     RDKit          3D

 63 68  0  0  0  0  0  0  0  0999 V2000
    6.0435    3.0842   27.4787 C   0  0  0  0  0  0  0  0  0  0  0  0
    5.9523    1.8201   26.7763 N   0  0  0  0  0  0  0  0  0  0  0  0
    6.6198    0.7312   27.2529 C   0  0  0  0  0  0  0  0  0  0  0  0
    7.1599    0.7308   28.3476 O   0  0  0  0  0  0  0  0  0  0  0  0
    6.6547   -0.4948   26.3311 C   0  0  0  0  0  0  0  0  0  0  0  0
    7.5951   -0.4012   25.2202 N   0  0  0  0  0  0  0  0  0  0  0  0
    7.1669    0.0669   23.9033 C   0  0  0  0  0  0  0  0  0  0  0  0
    8.0472   -0.4524   22.7128 C   0  0  2  0  0  0  0  0  0  0  0  0
    7.6471    0.3308   21.4512 C   0  0  0  0  0  0  0  0  0  0  0  0
    7.9194    1.4810   21.1744 O   0  0  0  0  0  0  0  0  0  0  0  0
    6.8480   -0.4794   20.6605 N   0  0  0  0  0  0  0  0  0  0  0  0
    6.0667    0.0682   19.6092 C   0  0  0  0  0  0  0  0  0  0  0  0
    6.3476   -0.2456   18.3045 C   0  0  0  0  0  0  0  0  0  0  0  0
    5.6721    0.2421   17.2335 N   0  0  0  0  0  0  0  0  0  0  0  0
    4.6768    1.0629   17.4699 C   0  0  0  0  0  0  0  0  0  0  0  0
    4.2513    1.4406   18.7743 C   0  0  0  0  0  0  0  0  0  0  0  0
    3.1431    2.3023   18.9833 C   0  0  0  0  0  0  0  0  0  0  0  0
    2.7411    2.6230   20.2509 C   0  0  0  0  0  0  0  0  0  0  0  0
    3.4286    2.1014   21.3687 C   0  0  0  0  0  0  0  0  0  0  0  0
    4.5067    1.2735   21.1898 C   0  0  0  0  0  0  0  0  0  0  0  0
    4.9540    0.9274   19.8842 C   0  0  0  0  0  0  0  0  0  0  0  0
    5.0315    0.8765   22.0523 H   0  0  0  0  0  0  0  0  0  0  0  0
    3.1076    2.3689   22.3693 H   0  0  0  0  0  0  0  0  0  0  0  0
    1.8982    3.2870   20.4073 H   0  0  0  0  0  0  0  0  0  0  0  0
    2.6370    2.7114   18.1143 H   0  0  0  0  0  0  0  0  0  0  0  0
    4.1506    1.4689   16.6055 H   0  0  0  0  0  0  0  0  0  0  0  0
    7.1753   -0.9140   18.0743 H   0  0  0  0  0  0  0  0  0  0  0  0
    6.6022   -1.7952   21.2327 C   0  0  0  0  0  0  0  0  0  0  0  0
    7.7579   -1.9134   22.2282 C   0  0  2  0  0  0  0  0  0  0  0  0
    7.6441   -3.0386   23.2690 C   0  0  0  0  0  0  0  0  0  0  0  0
    6.2961   -3.4622   23.6033 N   0  0  0  0  0  0  0  0  0  0  0  0
    5.5813   -4.4336   22.9936 C   0  0  0  0  0  0  0  0  0  0  0  0
    4.3334   -4.4384   23.5766 C   0  0  0  0  0  0  0  0  0  0  0  0
    4.3967   -3.4039   24.5389 C   0  0  0  0  0  0  0  0  0  0  0  0
    5.5841   -2.8146   24.5389 N   0  0  0  0  0  0  0  0  0  0  0  0
    3.6219   -3.0754   25.2221 H   0  0  0  0  0  0  0  0  0  0  0  0
    3.4949   -5.0839   23.3478 H   0  0  0  0  0  0  0  0  0  0  0  0
    6.0276   -5.0237   22.2013 H   0  0  0  0  0  0  0  0  0  0  0  0
    8.1380   -2.7686   24.2000 H   0  0  0  0  0  0  0  0  0  0  0  0
    8.1549   -3.9249   22.8809 H   0  0  0  0  0  0  0  0  0  0  0  0
    8.6570   -2.1367   21.6410 H   0  0  0  0  0  0  0  0  0  0  0  0
    5.6199   -1.8434   21.7246 H   0  0  0  0  0  0  0  0  0  0  0  0
    6.6398   -2.5661   20.4565 H   0  0  0  0  0  0  0  0  0  0  0  0
    9.5048   -0.2882   23.0841 C   0  0  0  0  0  0  0  0  0  0  0  0
   10.5368   -0.1103   22.1477 C   0  0  0  0  0  0  0  0  0  0  0  0
   11.8235    0.1557   22.6081 C   0  0  0  0  0  0  0  0  0  0  0  0
   13.1649    0.3195   21.5245 Cl  0  0  0  0  0  0  0  0  0  0  0  0
   12.1207    0.2815   23.9614 C   0  0  0  0  0  0  0  0  0  0  0  0
   11.1175   -0.0132   24.8612 C   0  0  0  0  0  0  0  0  0  0  0  0
    9.8560   -0.3815   24.4246 C   0  0  0  0  0  0  0  0  0  0  0  0
    8.8686   -0.8300   25.4480 C   0  0  0  0  0  0  0  0  0  0  0  0
    9.1613   -1.5081   26.4210 O   0  0  0  0  0  0  0  0  0  0  0  0
   11.2178    0.0046   25.9272 H   0  0  0  0  0  0  0  0  0  0  0  0
   13.1211    0.5795   24.2649 H   0  0  0  0  0  0  0  0  0  0  0  0
   10.3361   -0.1559   21.0829 H   0  0  0  0  0  0  0  0  0  0  0  0
    6.1337   -0.2724   23.7606 H   0  0  0  0  0  0  0  0  0  0  0  0
    7.1892    1.1666   23.8783 H   0  0  0  0  0  0  0  0  0  0  0  0
    6.9868   -1.3415   26.9419 H   0  0  0  0  0  0  0  0  0  0  0  0
    5.6728   -0.6910   25.8965 H   0  0  0  0  0  0  0  0  0  0  0  0
    5.5852    1.8228   25.8360 H   0  0  0  0  0  0  0  0  0  0  0  0
    5.3700    3.8002   27.0073 H   0  0  0  0  0  0  0  0  0  0  0  0
    7.0629    3.4834   27.4629 H   0  0  0  0  0  0  0  0  0  0  0  0
    5.7486    2.9618   28.5218 H   0  0  0  0  0  0  0  0  0  0  0  0
  1  2  1  0
  2  3  1  0
  3  4  2  0
  3  5  1  0
  5  6  1  0
  6  7  1  0
  8  7  1  1
  8  9  1  0
  9 10  2  0
  9 11  1  0
 11 12  1  0
 12 13  2  0
 13 14  1  0
 14 15  2  0
 15 16  1  0
 16 17  2  0
 17 18  1  0
 18 19  2  0
 19 20  1  0
 20 21  2  0
 20 22  1  0
 19 23  1  0
 18 24  1  0
 17 25  1  0
 15 26  1  0
 13 27  1  0
 11 28  1  0
 28 29  1  0
 29 30  1  0
 30 31  1  0
 31 32  1  0
 32 33  2  0
 33 34  1  0
 34 35  2  0
 34 36  1  0
 33 37  1  0
 32 38  1  0
 30 39  1  0
 30 40  1  0
 29 41  1  6
 28 42  1  0
 28 43  1  0
  8 44  1  0
 44 45  2  0
 45 46  1  0
 46 47  1  0
 46 48  2  0
 48 49  1  0
 49 50  2  0
 50 51  1  0
 51 52  2  0
 49 53  1  0
 48 54  1  0
 45 55  1  0
  7 56  1  0
  7 57  1  0
  5 58  1  0
  5 59  1  0
  2 60  1  0
  1 61  1  0
  1 62  1  0
  1 63  1  0
 51  6  1  0
 29  8  1  0
 35 31  1  0
 50 44  1  0
 21 12  1  0
 21 16  1  0
M  END
>  <cnnaffinities>  (87) 
[6.37024, 6.40485]

>  <score>  (87) 
6.37024

>  <index>  (87) 
87

>  <Smiles>  (87) 
C(N(C(=O)C(N1C([C@@]2(C(=O)N(c3c(nc(c4c(c(c(c(c34)[H])[H])[H])[H])[H])[H])C([C@@]2(C(n2c(c(c(n2)[H])[H])[H])([H])[H])[H])([H])[H])c2c(c(Cl)c(c(c2C1=O)[H])[H])[H])([H])[H])([H])[H])[H])([H])([H])[H]

>  <h>  (87) 
<NA>

>  <Training>  (87) 
True

>  <Success>  (87) 
True

>  <enamine_searched>  (87) 
False

>  <enamine_id>  (87) 
nan

$$$$

     RDKit          3D

 64 68  0  0  0  0  0  0  0  0999 V2000
    2.4115   -2.9366   27.3694 C   0  0  0  0  0  0  0  0  0  0  0  0
    3.5429   -3.7559   28.0180 C   0  0  0  0  0  0  0  0  0  0  0  0
    4.5412   -4.2168   26.9509 C   0  0  0  0  0  0  0  0  0  0  0  0
    5.5947   -3.5896   26.8738 O   0  0  0  0  0  0  0  0  0  0  0  0
    4.1689   -5.1231   25.9539 N   0  0  0  0  0  0  0  0  0  0  0  0
    3.1330   -6.1337   26.1577 C   0  0  0  0  0  0  0  0  0  0  0  0
    3.5434   -7.4359   25.4531 C   0  0  0  0  0  0  0  0  0  0  0  0
    3.7071   -7.2162   23.9396 C   0  0  0  0  0  0  0  0  0  0  0  0
    4.3813   -5.9004   23.6328 C   0  0  0  0  0  0  0  0  0  0  0  0
    4.8034   -5.6579   22.3218 C   0  0  0  0  0  0  0  0  0  0  0  0
    5.4224   -4.4537   22.0077 C   0  0  0  0  0  0  0  0  0  0  0  0
    5.6291   -3.4688   22.9801 C   0  0  0  0  0  0  0  0  0  0  0  0
    6.2579   -2.2721   22.6252 N   0  0  0  0  0  0  0  0  0  0  0  0
    7.0843   -1.5427   23.5928 C   0  0  0  0  0  0  0  0  0  0  0  0
    8.5388   -1.5456   23.1821 C   0  0  0  0  0  0  0  0  0  0  0  0
    9.2544   -2.7456   23.0432 C   0  0  0  0  0  0  0  0  0  0  0  0
   10.6008   -2.7354   22.6504 C   0  0  0  0  0  0  0  0  0  0  0  0
   11.2545   -1.5190   22.4201 C   0  0  0  0  0  0  0  0  0  0  0  0
   10.5600   -0.3128   22.5747 C   0  0  0  0  0  0  0  0  0  0  0  0
   11.4358    1.3607   22.2436 Br  0  0  0  0  0  0  0  0  0  0  0  0
    9.2107   -0.3357   22.9500 C   0  0  0  0  0  0  0  0  0  0  0  0
    8.6887    0.6095   23.0468 H   0  0  0  0  0  0  0  0  0  0  0  0
   12.3017   -1.5069   22.1213 H   0  0  0  0  0  0  0  0  0  0  0  0
   11.1395   -3.6678   22.5118 H   0  0  0  0  0  0  0  0  0  0  0  0
    8.7605   -3.6926   23.2272 H   0  0  0  0  0  0  0  0  0  0  0  0
    6.7274   -0.5119   23.6884 H   0  0  0  0  0  0  0  0  0  0  0  0
    7.0000   -2.0021   24.5811 H   0  0  0  0  0  0  0  0  0  0  0  0
    6.1282   -1.7979   21.3243 C   0  0  0  0  0  0  0  0  0  0  0  0
    5.3895   -2.3707   20.5223 O   0  0  0  0  0  0  0  0  0  0  0  0
    6.8666   -0.5326   20.8690 C   0  0  0  0  0  0  0  0  0  0  0  0
    6.1487    0.1031   19.6898 C   0  0  0  0  0  0  0  0  0  0  0  0
    6.5119   -0.2039   18.3660 C   0  0  0  0  0  0  0  0  0  0  0  0
    5.8631    0.2770   17.2905 N   0  0  0  0  0  0  0  0  0  0  0  0
    4.8135    1.0911   17.5093 C   0  0  0  0  0  0  0  0  0  0  0  0
    4.3521    1.4294   18.7903 C   0  0  0  0  0  0  0  0  0  0  0  0
    3.2387    2.2664   18.9802 C   0  0  0  0  0  0  0  0  0  0  0  0
    2.8134    2.5865   20.2754 C   0  0  0  0  0  0  0  0  0  0  0  0
    3.4790    2.0617   21.3865 C   0  0  0  0  0  0  0  0  0  0  0  0
    4.5754    1.2175   21.1973 C   0  0  0  0  0  0  0  0  0  0  0  0
    5.0312    0.9153   19.9059 C   0  0  0  0  0  0  0  0  0  0  0  0
    5.0837    0.8031   22.0609 H   0  0  0  0  0  0  0  0  0  0  0  0
    3.1549    2.3181   22.3918 H   0  0  0  0  0  0  0  0  0  0  0  0
    1.9679    3.2506   20.4207 H   0  0  0  0  0  0  0  0  0  0  0  0
    2.7108    2.6839   18.1262 H   0  0  0  0  0  0  0  0  0  0  0  0
    4.3019    1.5010   16.6448 H   0  0  0  0  0  0  0  0  0  0  0  0
    7.3410   -0.8895   18.2180 H   0  0  0  0  0  0  0  0  0  0  0  0
    6.8903    0.1720   21.7052 H   0  0  0  0  0  0  0  0  0  0  0  0
    7.9040   -0.7725   20.6130 H   0  0  0  0  0  0  0  0  0  0  0  0
    5.1907   -3.7139   24.2759 C   0  0  0  0  0  0  0  0  0  0  0  0
    4.5871   -4.9194   24.6291 C   0  0  0  0  0  0  0  0  0  0  0  0
    5.3039   -2.9470   25.0272 H   0  0  0  0  0  0  0  0  0  0  0  0
    5.7792   -4.2931   20.9998 H   0  0  0  0  0  0  0  0  0  0  0  0
    4.6624   -6.4182   21.5557 H   0  0  0  0  0  0  0  0  0  0  0  0
    4.2698   -8.0480   23.5008 H   0  0  0  0  0  0  0  0  0  0  0  0
    2.7221   -7.2209   23.4725 H   0  0  0  0  0  0  0  0  0  0  0  0
    4.4874   -7.7794   25.8781 H   0  0  0  0  0  0  0  0  0  0  0  0
    2.7892   -8.2101   25.6372 H   0  0  0  0  0  0  0  0  0  0  0  0
    2.9916   -6.3346   27.2250 H   0  0  0  0  0  0  0  0  0  0  0  0
    2.1885   -5.7687   25.7464 H   0  0  0  0  0  0  0  0  0  0  0  0
    3.1444   -4.6214   28.5556 H   0  0  0  0  0  0  0  0  0  0  0  0
    4.0602   -3.1255   28.7488 H   0  0  0  0  0  0  0  0  0  0  0  0
    1.9200   -3.5251   26.5820 H   0  0  0  0  0  0  0  0  0  0  0  0
    1.6679   -2.6561   28.1285 H   0  0  0  0  0  0  0  0  0  0  0  0
    2.8161   -2.0191   26.9150 H   0  0  0  0  0  0  0  0  0  0  0  0
  1  2  1  0
  2  3  1  0
  3  4  2  0
  3  5  1  0
  5  6  1  0
  6  7  1  0
  7  8  1  0
  8  9  1  0
  9 10  2  0
 10 11  1  0
 11 12  2  0
 12 13  1  0
 13 14  1  0
 14 15  1  0
 15 16  2  0
 16 17  1  0
 17 18  2  0
 18 19  1  0
 19 20  1  0
 19 21  2  0
 21 22  1  0
 18 23  1  0
 17 24  1  0
 16 25  1  0
 14 26  1  0
 14 27  1  0
 13 28  1  0
 28 29  2  0
 28 30  1  0
 30 31  1  0
 31 32  2  0
 32 33  1  0
 33 34  2  0
 34 35  1  0
 35 36  2  0
 36 37  1  0
 37 38  2  0
 38 39  1  0
 39 40  2  0
 39 41  1  0
 38 42  1  0
 37 43  1  0
 36 44  1  0
 34 45  1  0
 32 46  1  0
 30 47  1  0
 30 48  1  0
 12 49  1  0
 49 50  2  0
 49 51  1  0
 11 52  1  0
 10 53  1  0
  8 54  1  0
  8 55  1  0
  7 56  1  0
  7 57  1  0
  6 58  1  0
  6 59  1  0
  2 60  1  0
  2 61  1  0
  1 62  1  0
  1 63  1  0
  1 64  1  0
 50  5  1  0
 50  9  1  0
 21 15  1  0
 40 31  1  0
 40 35  1  0
M  END
>  <cnnaffinities>  (88) 
[6.47622]

>  <score>  (88) 
6.47622

>  <index>  (88) 
88

>  <Smiles>  (88) 
C(C(C(=O)N1C(C(C(c2c(c(c(N(C(c3c(c(c(c(Br)c3[H])[H])[H])[H])([H])[H])C(=O)C(c3c(nc(c4c(c(c(c(c34)[H])[H])[H])[H])[H])[H])([H])[H])c(c12)[H])[H])[H])([H])[H])([H])[H])([H])[H])([H])[H])([H])([H])[H]

>  <h>  (88) 
<NA>

>  <Training>  (88) 
True

>  <Success>  (88) 
True

>  <enamine_searched>  (88) 
False

>  <enamine_id>  (88) 
nan

$$$$

     RDKit          3D

 38 40  0  0  0  0  0  0  0  0999 V2000
    8.0546    1.6757   20.9660 O   0  0  0  0  0  0  0  0  0  0  0  0
    7.8876    0.6105   21.5296 C   0  0  0  0  0  0  0  0  0  0  0  0
    6.9519   -0.4561   20.9115 C   0  0  0  0  0  0  0  0  0  0  0  0
    6.1174    0.0872   19.7715 C   0  0  0  0  0  0  0  0  0  0  0  0
    6.4280   -0.2081   18.4699 C   0  0  0  0  0  0  0  0  0  0  0  0
    5.7617    0.2396   17.3703 N   0  0  0  0  0  0  0  0  0  0  0  0
    4.7365    1.0291   17.5776 C   0  0  0  0  0  0  0  0  0  0  0  0
    4.2907    1.4241   18.8672 C   0  0  0  0  0  0  0  0  0  0  0  0
    3.1722    2.2800   19.0436 C   0  0  0  0  0  0  0  0  0  0  0  0
    2.7671    2.6471   20.2984 C   0  0  0  0  0  0  0  0  0  0  0  0
    3.4669    2.1723   21.4304 C   0  0  0  0  0  0  0  0  0  0  0  0
    4.5536    1.3436   21.2868 C   0  0  0  0  0  0  0  0  0  0  0  0
    4.9982    0.9451   19.9986 C   0  0  0  0  0  0  0  0  0  0  0  0
    5.0852    0.9942   22.1667 H   0  0  0  0  0  0  0  0  0  0  0  0
    3.1420    2.4730   22.4223 H   0  0  0  0  0  0  0  0  0  0  0  0
    1.9134    3.3086   20.4341 H   0  0  0  0  0  0  0  0  0  0  0  0
    2.6492    2.6472   18.1626 H   0  0  0  0  0  0  0  0  0  0  0  0
    4.2008    1.3979   16.6994 H   0  0  0  0  0  0  0  0  0  0  0  0
    7.2742   -0.8561   18.2444 H   0  0  0  0  0  0  0  0  0  0  0  0
    6.3002   -0.8843   21.6862 H   0  0  0  0  0  0  0  0  0  0  0  0
    7.5691   -1.2881   20.5382 H   0  0  0  0  0  0  0  0  0  0  0  0
    8.4968    0.3268   22.7425 N   0  0  0  0  0  0  0  0  0  0  0  0
    8.8167   -1.0452   23.1440 C   0  0  0  0  0  0  0  0  0  0  0  0
    9.9946   -1.6536   22.4086 C   0  0  0  0  0  0  0  0  0  0  0  0
   11.2174   -1.1281   22.4428 C   0  0  0  0  0  0  0  0  0  0  0  0
   11.5862    0.1016   23.2428 C   0  0  0  0  0  0  0  0  0  0  0  0
   10.8024    1.3665   22.8559 C   0  0  0  0  0  0  0  0  0  0  0  0
    9.3458    1.3717   23.3245 C   0  0  0  0  0  0  0  0  0  0  0  0
    9.3365    1.2336   24.4100 H   0  0  0  0  0  0  0  0  0  0  0  0
    8.8849    2.3387   23.1156 H   0  0  0  0  0  0  0  0  0  0  0  0
   10.8167    1.4880   21.7710 H   0  0  0  0  0  0  0  0  0  0  0  0
   11.3142    2.2483   23.2713 H   0  0  0  0  0  0  0  0  0  0  0  0
   12.6585    0.2942   23.1279 H   0  0  0  0  0  0  0  0  0  0  0  0
   11.4270   -0.0901   24.3141 H   0  0  0  0  0  0  0  0  0  0  0  0
   11.9987   -1.5795   21.8294 H   0  0  0  0  0  0  0  0  0  0  0  0
    9.8146   -2.5474   21.8074 H   0  0  0  0  0  0  0  0  0  0  0  0
    9.0351   -1.0189   24.2171 H   0  0  0  0  0  0  0  0  0  0  0  0
    7.9276   -1.6685   23.0334 H   0  0  0  0  0  0  0  0  0  0  0  0
  1  2  2  0
  2  3  1  0
  3  4  1  0
  4  5  2  0
  5  6  1  0
  6  7  2  0
  7  8  1  0
  8  9  2  0
  9 10  1  0
 10 11  2  0
 11 12  1  0
 12 13  2  0
 12 14  1  0
 11 15  1  0
 10 16  1  0
  9 17  1  0
  7 18  1  0
  5 19  1  0
  3 20  1  0
  3 21  1  0
  2 22  1  0
 22 23  1  0
 23 24  1  0
 24 25  2  0
 25 26  1  0
 26 27  1  0
 27 28  1  0
 28 29  1  0
 28 30  1  0
 27 31  1  0
 27 32  1  0
 26 33  1  0
 26 34  1  0
 25 35  1  0
 24 36  1  0
 23 37  1  0
 23 38  1  0
 13  4  1  0
 28 22  1  0
 13  8  1  0
M  END
>  <cnnaffinities>  (89) 
[5.48153, 5.38295]

>  <score>  (89) 
5.48153

>  <index>  (89) 
89

>  <Smiles>  (89) 
O=C(C(c1c(nc(c2c(c(c(c(c12)[H])[H])[H])[H])[H])[H])([H])[H])N1C(C(=C(C(C(C1([H])[H])([H])[H])([H])[H])[H])[H])([H])[H]

>  <h>  (89) 
<NA>

>  <Training>  (89) 
True

>  <Success>  (89) 
True

>  <enamine_searched>  (89) 
False

>  <enamine_id>  (89) 
nan

$$$$

     RDKit          3D

 62 67  0  0  0  0  0  0  0  0999 V2000
    7.7993   -2.9155   23.2989 C   0  0  0  0  0  0  0  0  0  0  0  0
    8.1130   -1.8489   22.2466 C   0  0  1  0  0  0  0  0  0  0  0  0
    6.9411   -1.6712   21.2747 C   0  0  0  0  0  0  0  0  0  0  0  0
    7.0933   -0.3136   20.7997 N   0  0  0  0  0  0  0  0  0  0  0  0
    6.2615    0.1896   19.7653 C   0  0  0  0  0  0  0  0  0  0  0  0
    6.5239   -0.2022   18.4769 C   0  0  0  0  0  0  0  0  0  0  0  0
    5.8259    0.2010   17.3868 N   0  0  0  0  0  0  0  0  0  0  0  0
    4.8101    1.0055   17.5860 C   0  0  0  0  0  0  0  0  0  0  0  0
    4.3773    1.4333   18.8738 C   0  0  0  0  0  0  0  0  0  0  0  0
    3.2393    2.2667   19.0281 C   0  0  0  0  0  0  0  0  0  0  0  0
    2.7870    2.6000   20.2733 C   0  0  0  0  0  0  0  0  0  0  0  0
    3.4588    2.1197   21.4202 C   0  0  0  0  0  0  0  0  0  0  0  0
    4.5861    1.3422   21.3031 C   0  0  0  0  0  0  0  0  0  0  0  0
    5.0907    0.9911   20.0151 C   0  0  0  0  0  0  0  0  0  0  0  0
    5.0904    0.9890   22.2016 H   0  0  0  0  0  0  0  0  0  0  0  0
    3.0810    2.3758   22.4054 H   0  0  0  0  0  0  0  0  0  0  0  0
    1.9068    3.2272   20.3891 H   0  0  0  0  0  0  0  0  0  0  0  0
    2.7385    2.6221   18.1326 H   0  0  0  0  0  0  0  0  0  0  0  0
    4.2522    1.3463   16.7114 H   0  0  0  0  0  0  0  0  0  0  0  0
    7.3546   -0.8822   18.2809 H   0  0  0  0  0  0  0  0  0  0  0  0
    7.9796    0.4470   21.5458 C   0  0  0  0  0  0  0  0  0  0  0  0
    8.2973    1.5817   21.2628 O   0  0  0  0  0  0  0  0  0  0  0  0
    8.4005   -0.3942   22.7737 C   0  0  1  0  0  0  0  0  0  0  0  0
    7.3821    0.0094   23.8769 C   0  0  0  0  0  0  0  0  0  0  0  0
    7.7838   -0.6415   25.1827 N   0  0  0  0  0  0  0  0  0  0  0  0
    6.7998   -0.8052   26.3220 C   0  0  0  0  0  0  0  0  0  0  0  0
    6.8329   -2.2671   26.6825 C   0  0  0  0  0  0  0  0  0  0  0  0
    6.0629   -2.5265   27.9273 N   0  0  0  0  0  4  0  0  0  0  0  0
    5.9377   -3.9834   28.3471 C   0  0  0  0  0  0  0  0  0  0  0  0
    6.9296   -3.7876   29.5266 C   0  0  0  0  0  0  0  0  0  0  0  0
    6.8585   -2.2677   29.2362 C   0  0  0  0  0  0  0  0  0  0  0  0
    7.8085   -1.7861   29.0199 H   0  0  0  0  0  0  0  0  0  0  0  0
    6.2466   -1.6838   29.9162 H   0  0  0  0  0  0  0  0  0  0  0  0
    7.9275   -4.1833   29.3005 H   0  0  0  0  0  0  0  0  0  0  0  0
    6.5879   -4.1050   30.5109 H   0  0  0  0  0  0  0  0  0  0  0  0
    6.2586   -4.6501   27.5494 H   0  0  0  0  0  0  0  0  0  0  0  0
    4.9075   -4.1922   28.6238 H   0  0  0  0  0  0  0  0  0  0  0  0
    5.1549   -2.0394   27.8733 H   0  0  0  0  0  0  0  0  0  0  0  0
    6.4098   -2.8861   25.8973 H   0  0  0  0  0  0  0  0  0  0  0  0
    7.8801   -2.5569   26.8071 H   0  0  0  0  0  0  0  0  0  0  0  0
    5.8204   -0.4507   25.9833 H   0  0  0  0  0  0  0  0  0  0  0  0
    7.1553   -0.1785   27.1477 H   0  0  0  0  0  0  0  0  0  0  0  0
    9.2659   -0.6219   25.4388 C   0  0  0  0  0  0  0  0  0  0  0  0
    9.3919   -0.6036   25.4350 O   0  0  0  0  0  0  0  0  0  0  0  0
   10.3322   -0.1378   24.5464 C   0  0  0  0  0  0  0  0  0  0  0  0
   11.6319    0.4308   24.7717 C   0  0  0  0  0  0  0  0  0  0  0  0
   12.5032    0.6229   23.7369 C   0  0  0  0  0  0  0  0  0  0  0  0
   12.1305    0.2419   22.4572 C   0  0  0  0  0  0  0  0  0  0  0  0
   13.4171    0.1842   21.3216 Cl  0  0  0  0  0  0  0  0  0  0  0  0
   10.8266   -0.1289   22.1732 C   0  0  0  0  0  0  0  0  0  0  0  0
    9.8786   -0.1965   23.2115 C   0  0  0  0  0  0  0  0  0  0  0  0
   10.5377   -0.3706   21.1499 H   0  0  0  0  0  0  0  0  0  0  0  0
   13.4964    1.0192   23.9360 H   0  0  0  0  0  0  0  0  0  0  0  0
   12.0614    0.6879   25.7299 H   0  0  0  0  0  0  0  0  0  0  0  0
    6.3717   -0.3292   23.6337 H   0  0  0  0  0  0  0  0  0  0  0  0
    7.3786    1.0942   24.0119 H   0  0  0  0  0  0  0  0  0  0  0  0
    5.9857   -1.8164   21.8025 H   0  0  0  0  0  0  0  0  0  0  0  0
    6.9498   -2.3764   20.4436 H   0  0  0  0  0  0  0  0  0  0  0  0
    9.0096   -2.1421   21.6807 H   0  0  0  0  0  0  0  0  0  0  0  0
    6.7572   -2.8115   23.6315 H   0  0  0  0  0  0  0  0  0  0  0  0
    8.4391   -2.8220   24.1853 H   0  0  0  0  0  0  0  0  0  0  0  0
    7.9188   -3.9215   22.8794 H   0  0  0  0  0  0  0  0  0  0  0  0
  1  2  1  0
  2  3  1  0
  3  4  1  0
  4  5  1  0
  5  6  2  0
  6  7  1  0
  7  8  2  0
  8  9  1  0
  9 10  2  0
 10 11  1  0
 11 12  2  0
 12 13  1  0
 13 14  2  0
 13 15  1  0
 12 16  1  0
 11 17  1  0
 10 18  1  0
  8 19  1  0
  6 20  1  0
  4 21  1  0
 21 22  2  0
 21 23  1  0
 23 24  1  1
 24 25  1  0
 25 26  1  0
 26 27  1  0
 27 28  1  0
 28 29  1  0
 29 30  1  0
 30 31  1  0
 31 32  1  0
 31 33  1  0
 30 34  1  0
 30 35  1  0
 29 36  1  0
 29 37  1  0
 28 38  1  0
 27 39  1  0
 27 40  1  0
 26 41  1  0
 26 42  1  0
 25 43  1  0
 43 44  2  0
 43 45  1  0
 45 46  2  0
 46 47  1  0
 47 48  2  0
 48 49  1  0
 48 50  1  0
 50 51  2  0
 50 52  1  0
 47 53  1  0
 46 54  1  0
 24 55  1  0
 24 56  1  0
  3 57  1  0
  3 58  1  0
  2 59  1  6
  1 60  1  0
  1 61  1  0
  1 62  1  0
 23  2  1  0
 31 28  1  0
 51 45  1  0
 14  5  1  0
 51 23  1  0
 14  9  1  0
M  CHG  1  28   1
M  END
>  <cnnaffinities>  (90) 
[5.99295, 5.7927, 5.79167]

>  <score>  (90) 
5.99295

>  <index>  (90) 
90

>  <Smiles>  (90) 
C([C@]1(C(N(c2c(nc(c3c(c(c(c(c23)[H])[H])[H])[H])[H])[H])C(=O)[C@]21C(N(C(C([N+]1(C(C(C1([H])[H])([H])[H])([H])[H])[H])([H])[H])([H])[H])C(=O)c1c(c(c(Cl)c(c21)[H])[H])[H])([H])[H])([H])[H])[H])([H])([H])[H]

>  <h>  (90) 
<NA>

>  <Training>  (90) 
True

>  <Success>  (90) 
True

>  <enamine_searched>  (90) 
False

>  <enamine_id>  (90) 
nan

$$$$

     RDKit          3D

 56 61  0  0  0  0  0  0  0  0999 V2000
    7.7850   -2.9145   23.3489 C   0  0  0  0  0  0  0  0  0  0  0  0
    8.0733   -1.8739   22.2650 C   0  0  1  0  0  0  0  0  0  0  0  0
    6.8975   -1.7213   21.2874 C   0  0  0  0  0  0  0  0  0  0  0  0
    7.0172   -0.3572   20.8224 N   0  0  0  0  0  0  0  0  0  0  0  0
    6.2030    0.1463   19.7749 C   0  0  0  0  0  0  0  0  0  0  0  0
    6.4763   -0.2296   18.4843 C   0  0  0  0  0  0  0  0  0  0  0  0
    5.7955    0.1934   17.3907 N   0  0  0  0  0  0  0  0  0  0  0  0
    4.7867    1.0049   17.5956 C   0  0  0  0  0  0  0  0  0  0  0  0
    4.3473    1.4226   18.8824 C   0  0  0  0  0  0  0  0  0  0  0  0
    3.2133    2.2625   19.0356 C   0  0  0  0  0  0  0  0  0  0  0  0
    2.7642    2.6005   20.2813 C   0  0  0  0  0  0  0  0  0  0  0  0
    3.4315    2.1172   21.4304 C   0  0  0  0  0  0  0  0  0  0  0  0
    4.5484    1.3264   21.3078 C   0  0  0  0  0  0  0  0  0  0  0  0
    5.0497    0.9677   20.0219 C   0  0  0  0  0  0  0  0  0  0  0  0
    5.0500    0.9688   22.2024 H   0  0  0  0  0  0  0  0  0  0  0  0
    3.0569    2.3813   22.4154 H   0  0  0  0  0  0  0  0  0  0  0  0
    1.8948    3.2420   20.3965 H   0  0  0  0  0  0  0  0  0  0  0  0
    2.7210    2.6292   18.1390 H   0  0  0  0  0  0  0  0  0  0  0  0
    4.2456    1.3552   16.7179 H   0  0  0  0  0  0  0  0  0  0  0  0
    7.3114   -0.9026   18.2931 H   0  0  0  0  0  0  0  0  0  0  0  0
    7.8403    0.4360   21.5970 C   0  0  0  0  0  0  0  0  0  0  0  0
    8.0589    1.6025   21.3463 O   0  0  0  0  0  0  0  0  0  0  0  0
    8.3408   -0.4107   22.7919 C   0  0  1  0  0  0  0  0  0  0  0  0
    7.3738   -0.0542   23.9677 C   0  0  0  0  0  0  0  0  0  0  0  0
    7.8785   -0.7510   25.2594 N   0  0  0  0  0  0  0  0  0  0  0  0
    6.9833   -0.9849   26.5092 C   0  0  0  0  0  0  0  0  0  0  0  0
    6.7615   -2.4499   26.7499 C   0  0  0  0  0  0  0  0  0  0  0  0
    5.6237   -3.2841   26.6148 C   0  0  0  0  0  0  0  0  0  0  0  0
    5.9169   -4.5640   26.8487 N   0  0  0  0  0  0  0  0  0  0  0  0
    7.2242   -4.5552   27.1537 N   0  0  0  0  0  0  0  0  0  0  0  0
    7.7648   -3.3145   27.1175 C   0  0  0  0  0  0  0  0  0  0  0  0
    8.8082   -3.1086   27.3212 H   0  0  0  0  0  0  0  0  0  0  0  0
    7.6901   -5.4333   27.3411 H   0  0  0  0  0  0  0  0  0  0  0  0
    4.6113   -3.0081   26.3321 H   0  0  0  0  0  0  0  0  0  0  0  0
    6.0622   -0.4237   26.3457 H   0  0  0  0  0  0  0  0  0  0  0  0
    7.5329   -0.5306   27.3365 H   0  0  0  0  0  0  0  0  0  0  0  0
    9.3639   -0.6707   25.3871 C   0  0  0  0  0  0  0  0  0  0  0  0
    9.4896   -0.6495   25.3753 O   0  0  0  0  0  0  0  0  0  0  0  0
   10.3791   -0.1749   24.4396 C   0  0  0  0  0  0  0  0  0  0  0  0
   11.7043    0.3669   24.6120 C   0  0  0  0  0  0  0  0  0  0  0  0
   12.5454    0.5317   23.5390 C   0  0  0  0  0  0  0  0  0  0  0  0
   12.0643    0.2412   22.2701 C   0  0  0  0  0  0  0  0  0  0  0  0
   12.9436    0.2808   21.2653 F   0  0  0  0  0  0  0  0  0  0  0  0
   10.7260   -0.0399   22.0531 C   0  0  0  0  0  0  0  0  0  0  0  0
    9.8441   -0.1903   23.1378 C   0  0  0  0  0  0  0  0  0  0  0  0
   10.3594   -0.1223   21.0344 H   0  0  0  0  0  0  0  0  0  0  0  0
   13.5662    0.8620   23.6941 H   0  0  0  0  0  0  0  0  0  0  0  0
   12.1414    0.6435   25.5790 H   0  0  0  0  0  0  0  0  0  0  0  0
    7.3866    1.0253   24.1466 H   0  0  0  0  0  0  0  0  0  0  0  0
    6.3514   -0.3997   23.7807 H   0  0  0  0  0  0  0  0  0  0  0  0
    5.9403   -1.8943   21.8082 H   0  0  0  0  0  0  0  0  0  0  0  0
    6.9342   -2.4117   20.4417 H   0  0  0  0  0  0  0  0  0  0  0  0
    8.9711   -2.1600   21.6944 H   0  0  0  0  0  0  0  0  0  0  0  0
    7.8532   -3.9361   22.9604 H   0  0  0  0  0  0  0  0  0  0  0  0
    6.7704   -2.7621   23.7308 H   0  0  0  0  0  0  0  0  0  0  0  0
    8.4523   -2.7945   24.2102 H   0  0  0  0  0  0  0  0  0  0  0  0
  1  2  1  0
  2  3  1  0
  3  4  1  0
  4  5  1  0
  5  6  2  0
  6  7  1  0
  7  8  2  0
  8  9  1  0
  9 10  2  0
 10 11  1  0
 11 12  2  0
 12 13  1  0
 13 14  2  0
 13 15  1  0
 12 16  1  0
 11 17  1  0
 10 18  1  0
  8 19  1  0
  6 20  1  0
  4 21  1  0
 21 22  2  0
 21 23  1  0
 23 24  1  1
 24 25  1  0
 25 26  1  0
 26 27  1  0
 27 28  1  0
 28 29  2  0
 29 30  1  0
 30 31  1  0
 31 32  1  0
 30 33  1  0
 28 34  1  0
 26 35  1  0
 26 36  1  0
 25 37  1  0
 37 38  2  0
 37 39  1  0
 39 40  2  0
 40 41  1  0
 41 42  2  0
 42 43  1  0
 42 44  1  0
 44 45  2  0
 44 46  1  0
 41 47  1  0
 40 48  1  0
 24 49  1  0
 24 50  1  0
  3 51  1  0
  3 52  1  0
  2 53  1  6
  1 54  1  0
  1 55  1  0
  1 56  1  0
 23  2  1  0
 31 27  2  0
 45 39  1  0
 14  5  1  0
 45 23  1  0
 14  9  1  0
M  END
>  <cnnaffinities>  (91) 
[6.28262]

>  <score>  (91) 
6.28262

>  <index>  (91) 
91

>  <Smiles>  (91) 
C([C@]1(C(N(c2c(nc(c3c(c(c(c(c23)[H])[H])[H])[H])[H])[H])C(=O)[C@]21C(N(C(c1c(nn(c1[H])[H])[H])([H])[H])C(=O)c1c(c(c(F)c(c21)[H])[H])[H])([H])[H])([H])[H])[H])([H])([H])[H]

>  <h>  (91) 
<NA>

>  <Training>  (91) 
True

>  <Success>  (91) 
True

>  <enamine_searched>  (91) 
False

>  <enamine_id>  (91) 
nan

$$$$

     RDKit          3D

 47 50  0  0  0  0  0  0  0  0999 V2000
    8.2092    1.5831   20.8421 O   0  0  0  0  0  0  0  0  0  0  0  0
    7.8979    0.6060   21.4953 C   0  0  0  0  0  0  0  0  0  0  0  0
    6.9378   -0.4519   20.9123 C   0  0  0  0  0  0  0  0  0  0  0  0
    6.1150    0.0874   19.7689 C   0  0  0  0  0  0  0  0  0  0  0  0
    6.4287   -0.2065   18.4663 C   0  0  0  0  0  0  0  0  0  0  0  0
    5.7608    0.2405   17.3661 N   0  0  0  0  0  0  0  0  0  0  0  0
    4.7350    1.0298   17.5774 C   0  0  0  0  0  0  0  0  0  0  0  0
    4.2882    1.4239   18.8700 C   0  0  0  0  0  0  0  0  0  0  0  0
    3.1696    2.2782   19.0443 C   0  0  0  0  0  0  0  0  0  0  0  0
    2.7632    2.6434   20.2981 C   0  0  0  0  0  0  0  0  0  0  0  0
    3.4674    2.1652   21.4302 C   0  0  0  0  0  0  0  0  0  0  0  0
    4.5565    1.3383   21.2974 C   0  0  0  0  0  0  0  0  0  0  0  0
    4.9957    0.9447   20.0025 C   0  0  0  0  0  0  0  0  0  0  0  0
    5.0831    0.9933   22.1911 H   0  0  0  0  0  0  0  0  0  0  0  0
    3.1396    2.4670   22.4184 H   0  0  0  0  0  0  0  0  0  0  0  0
    1.9099    3.3030   20.4365 H   0  0  0  0  0  0  0  0  0  0  0  0
    2.6486    2.6457   18.1627 H   0  0  0  0  0  0  0  0  0  0  0  0
    4.2007    1.3978   16.6984 H   0  0  0  0  0  0  0  0  0  0  0  0
    7.2738   -0.8558   18.2443 H   0  0  0  0  0  0  0  0  0  0  0  0
    7.5594   -1.2786   20.5431 H   0  0  0  0  0  0  0  0  0  0  0  0
    6.2920   -0.8762   21.6870 H   0  0  0  0  0  0  0  0  0  0  0  0
    8.4579    0.4057   22.7578 N   0  0  0  0  0  0  0  0  0  0  0  0
    9.5514    1.2679   23.0514 C   0  0  0  0  0  0  0  0  0  0  0  0
   10.8240    0.8800   22.9839 C   0  0  0  0  0  0  0  0  0  0  0  0
   11.2456   -0.5150   22.7632 C   0  0  0  0  0  0  0  0  0  0  0  0
   10.8977   -1.5469   23.5384 C   0  0  0  0  0  0  0  0  0  0  0  0
   10.1366   -1.4029   24.7952 C   0  0  0  0  0  0  0  0  0  0  0  0
    8.9189   -0.8683   24.9010 C   0  0  0  0  0  0  0  0  0  0  0  0
    7.9627   -0.5895   23.7501 C   0  0  1  0  0  0  0  0  0  0  0  0
    6.5976   -0.1652   24.2797 C   0  0  0  0  0  0  0  0  0  0  0  0
    5.5378   -1.0690   24.3361 C   0  0  0  0  0  0  0  0  0  0  0  0
    4.2971   -0.6756   24.8277 C   0  0  0  0  0  0  0  0  0  0  0  0
    4.1106    0.6297   25.2763 C   0  0  0  0  0  0  0  0  0  0  0  0
    5.1732    1.5300   25.2446 C   0  0  0  0  0  0  0  0  0  0  0  0
    6.4091    1.1320   24.7514 C   0  0  0  0  0  0  0  0  0  0  0  0
    7.2433    1.8291   24.7334 H   0  0  0  0  0  0  0  0  0  0  0  0
    5.0410    2.5472   25.5993 H   0  0  0  0  0  0  0  0  0  0  0  0
    3.1424    0.9446   25.6496 H   0  0  0  0  0  0  0  0  0  0  0  0
    3.4789   -1.3876   24.8491 H   0  0  0  0  0  0  0  0  0  0  0  0
    5.6880   -2.0901   23.9927 H   0  0  0  0  0  0  0  0  0  0  0  0
    7.8558   -1.5373   23.2071 H   0  0  0  0  0  0  0  0  0  0  0  0
    8.4932   -0.7297   25.8930 H   0  0  0  0  0  0  0  0  0  0  0  0
   10.6663   -1.7357   25.6891 H   0  0  0  0  0  0  0  0  0  0  0  0
   11.2575   -2.5467   23.2940 H   0  0  0  0  0  0  0  0  0  0  0  0
   11.9131   -0.6883   21.9167 H   0  0  0  0  0  0  0  0  0  0  0  0
   11.6173    1.6181   23.0935 H   0  0  0  0  0  0  0  0  0  0  0  0
    9.2893    2.3052   23.2679 H   0  0  0  0  0  0  0  0  0  0  0  0
  1  2  2  0
  2  3  1  0
  3  4  1  0
  4  5  2  0
  5  6  1  0
  6  7  2  0
  7  8  1  0
  8  9  2  0
  9 10  1  0
 10 11  2  0
 11 12  1  0
 12 13  2  0
 12 14  1  0
 11 15  1  0
 10 16  1  0
  9 17  1  0
  7 18  1  0
  5 19  1  0
  3 20  1  0
  3 21  1  0
  2 22  1  0
 22 23  1  0
 23 24  2  3
 24 25  1  0
 25 26  2  3
 26 27  1  0
 27 28  2  3
 28 29  1  0
 29 30  1  0
 30 31  2  0
 31 32  1  0
 32 33  2  0
 33 34  1  0
 34 35  2  0
 35 36  1  0
 34 37  1  0
 33 38  1  0
 32 39  1  0
 31 40  1  0
 29 41  1  6
 28 42  1  0
 27 43  1  0
 26 44  1  0
 25 45  1  0
 24 46  1  0
 23 47  1  0
 13  4  1  0
 29 22  1  0
 35 30  1  0
 13  8  1  0
M  END
>  <cnnaffinities>  (92) 
[6.29011, 6.29009]

>  <score>  (92) 
6.29011

>  <index>  (92) 
92

>  <Smiles>  (92) 
O=C(C(c1c(nc(c2c(c(c(c(c12)[H])[H])[H])[H])[H])[H])([H])[H])N1C(=C(C(=C(C(=C([C@]1(c1c(c(c(c(c1[H])[H])[H])[H])[H])[H])[H])[H])[H])[H])[H])[H]

>  <h>  (92) 
<NA>

>  <Training>  (92) 
True

>  <Success>  (92) 
True

>  <enamine_searched>  (92) 
False

>  <enamine_id>  (92) 
nan

$$$$

     RDKit          3D

 58 62  0  0  0  0  0  0  0  0999 V2000
    8.2502    5.3489   24.0940 C   0  0  0  0  0  0  0  0  0  0  0  0
    7.8621    4.2275   23.2103 N   0  0  0  0  0  4  0  0  0  0  0  0
    6.7420    3.4004   23.7334 C   0  0  0  0  0  0  0  0  0  0  0  0
    7.1630    2.4332   24.8345 C   0  0  0  0  0  0  0  0  0  0  0  0
    8.1838    1.4698   24.4376 N   0  0  0  0  0  0  0  0  0  0  0  0
    7.6778    0.1552   24.0890 C   0  0  0  0  0  0  0  0  0  0  0  0
    8.2568   -0.3750   22.7701 C   0  0  2  0  0  0  0  0  0  0  0  0
    7.7252    0.4143   21.5571 C   0  0  0  0  0  0  0  0  0  0  0  0
    7.9881    1.5692   21.2600 O   0  0  0  0  0  0  0  0  0  0  0  0
    6.9175   -0.4071   20.8186 N   0  0  0  0  0  0  0  0  0  0  0  0
    6.1349    0.0995   19.7573 C   0  0  0  0  0  0  0  0  0  0  0  0
    6.4427   -0.2376   18.4664 C   0  0  0  0  0  0  0  0  0  0  0  0
    5.7707    0.2128   17.3799 N   0  0  0  0  0  0  0  0  0  0  0  0
    4.7570    1.0202   17.5895 C   0  0  0  0  0  0  0  0  0  0  0  0
    4.3172    1.4210   18.8833 C   0  0  0  0  0  0  0  0  0  0  0  0
    3.1985    2.2768   19.0569 C   0  0  0  0  0  0  0  0  0  0  0  0
    2.7780    2.6249   20.3115 C   0  0  0  0  0  0  0  0  0  0  0  0
    3.4534    2.1365   21.4514 C   0  0  0  0  0  0  0  0  0  0  0  0
    4.5397    1.3080   21.3094 C   0  0  0  0  0  0  0  0  0  0  0  0
    5.0117    0.9431   20.0133 C   0  0  0  0  0  0  0  0  0  0  0  0
    5.0404    0.9269   22.1946 H   0  0  0  0  0  0  0  0  0  0  0  0
    3.1080    2.4166   22.4428 H   0  0  0  0  0  0  0  0  0  0  0  0
    1.9195    3.2769   20.4398 H   0  0  0  0  0  0  0  0  0  0  0  0
    2.6887    2.6456   18.1719 H   0  0  0  0  0  0  0  0  0  0  0  0
    4.2099    1.3851   16.7178 H   0  0  0  0  0  0  0  0  0  0  0  0
    7.2926   -0.8889   18.2649 H   0  0  0  0  0  0  0  0  0  0  0  0
    6.6849   -1.7020   21.4189 C   0  0  0  0  0  0  0  0  0  0  0  0
    7.8075   -1.8335   22.4551 C   0  0  2  0  0  0  0  0  0  0  0  0
    7.4442   -2.7145   23.6451 C   0  0  0  0  0  0  0  0  0  0  0  0
    6.5679   -2.3299   24.1762 H   0  0  0  0  0  0  0  0  0  0  0  0
    7.2085   -3.7278   23.3082 H   0  0  0  0  0  0  0  0  0  0  0  0
    8.2720   -2.7907   24.3593 H   0  0  0  0  0  0  0  0  0  0  0  0
    8.6456   -2.3229   21.9583 H   0  0  0  0  0  0  0  0  0  0  0  0
    5.6939   -1.7635   21.8915 H   0  0  0  0  0  0  0  0  0  0  0  0
    6.7352   -2.4787   20.6549 H   0  0  0  0  0  0  0  0  0  0  0  0
    9.7413   -0.1912   22.8336 C   0  0  0  0  0  0  0  0  0  0  0  0
   10.5034   -0.8782   21.9212 C   0  0  0  0  0  0  0  0  0  0  0  0
   11.8557   -0.7179   21.9334 C   0  0  0  0  0  0  0  0  0  0  0  0
   12.4337   -1.4184   20.9648 F   0  0  0  0  0  0  0  0  0  0  0  0
   12.5448    0.0962   22.8269 C   0  0  0  0  0  0  0  0  0  0  0  0
   11.7642    0.8598   23.6827 C   0  0  0  0  0  0  0  0  0  0  0  0
   10.3689    0.7759   23.6204 C   0  0  0  0  0  0  0  0  0  0  0  0
    9.4839    1.8250   24.2094 C   0  0  0  0  0  0  0  0  0  0  0  0
    9.8987    2.9761   24.3487 O   0  0  0  0  0  0  0  0  0  0  0  0
   12.2287    1.5523   24.3750 H   0  0  0  0  0  0  0  0  0  0  0  0
   13.6235    0.1942   22.7741 H   0  0  0  0  0  0  0  0  0  0  0  0
   10.0892   -1.5003   21.1387 H   0  0  0  0  0  0  0  0  0  0  0  0
    7.9166   -0.5403   24.9030 H   0  0  0  0  0  0  0  0  0  0  0  0
    6.5904    0.2345   23.9869 H   0  0  0  0  0  0  0  0  0  0  0  0
    6.2887    1.8527   25.1347 H   0  0  0  0  0  0  0  0  0  0  0  0
    7.4333    2.9658   25.7404 H   0  0  0  0  0  0  0  0  0  0  0  0
    5.9482    4.0476   24.1216 H   0  0  0  0  0  0  0  0  0  0  0  0
    6.3307    2.8358   22.8996 H   0  0  0  0  0  0  0  0  0  0  0  0
    8.7067    3.6530   23.0891 H   0  0  0  0  0  0  0  0  0  0  0  0
    7.6304    4.5801   22.2666 H   0  0  0  0  0  0  0  0  0  0  0  0
    8.7622    4.9670   24.9762 H   0  0  0  0  0  0  0  0  0  0  0  0
    8.9309    6.0136   23.5602 H   0  0  0  0  0  0  0  0  0  0  0  0
    7.3692    5.9116   24.4070 H   0  0  0  0  0  0  0  0  0  0  0  0
  1  2  1  0
  2  3  1  0
  3  4  1  0
  4  5  1  0
  5  6  1  0
  7  6  1  1
  7  8  1  0
  8  9  2  0
  8 10  1  0
 10 11  1  0
 11 12  2  0
 12 13  1  0
 13 14  2  0
 14 15  1  0
 15 16  2  0
 16 17  1  0
 17 18  2  0
 18 19  1  0
 19 20  2  0
 19 21  1  0
 18 22  1  0
 17 23  1  0
 16 24  1  0
 14 25  1  0
 12 26  1  0
 10 27  1  0
 27 28  1  0
 28 29  1  0
 29 30  1  0
 29 31  1  0
 29 32  1  0
 28 33  1  6
 27 34  1  0
 27 35  1  0
  7 36  1  0
 36 37  2  0
 37 38  1  0
 38 39  1  0
 38 40  2  0
 40 41  1  0
 41 42  2  0
 42 43  1  0
 43 44  2  0
 41 45  1  0
 40 46  1  0
 37 47  1  0
  6 48  1  0
  6 49  1  0
  4 50  1  0
  4 51  1  0
  3 52  1  0
  3 53  1  0
  2 54  1  0
  2 55  1  0
  1 56  1  0
  1 57  1  0
  1 58  1  0
 43  5  1  0
 28  7  1  0
 42 36  1  0
 20 11  1  0
 20 15  1  0
M  CHG  1   2   1
M  END
>  <cnnaffinities>  (93) 
[6.16475]

>  <score>  (93) 
6.16475

>  <index>  (93) 
93

>  <Smiles>  (93) 
C([N+](C(C(N1C([C@@]2(C(=O)N(c3c(nc(c4c(c(c(c(c34)[H])[H])[H])[H])[H])[H])C([C@@]2(C([H])([H])[H])[H])([H])[H])c2c(c(F)c(c(c2C1=O)[H])[H])[H])([H])[H])([H])[H])([H])[H])([H])[H])([H])([H])[H]

>  <h>  (93) 
<NA>

>  <Training>  (93) 
True

>  <Success>  (93) 
True

>  <enamine_searched>  (93) 
False

>  <enamine_id>  (93) 
nan

$$$$

     RDKit          3D

 65 69  0  0  0  0  0  0  0  0999 V2000
   11.4788    7.4074   26.7868 C   0  0  0  0  0  0  0  0  0  0  0  0
   10.0567    7.3957   27.1844 C   0  0  0  0  0  0  0  0  0  0  0  0
    9.6301    5.9111   27.3475 C   0  0  0  0  0  0  0  0  0  0  0  0
    9.6953    6.0038   27.4714 O   0  0  0  0  0  0  0  0  0  0  0  0
    8.4255    5.3580   24.8592 N   0  0  2  0  0  4  0  0  0  0  0  0
    7.1417    5.1439   25.5021 C   0  0  0  0  0  0  0  0  0  0  0  0
    6.1242    4.5288   24.5417 C   0  0  0  0  0  0  0  0  0  0  0  0
    6.6615    3.1555   24.1498 C   0  0  0  0  0  0  0  0  0  0  0  0
    8.1236    3.2046   23.7234 C   0  0  0  0  0  0  0  0  0  0  0  0
    8.7148    2.1661   22.9855 C   0  0  0  0  0  0  0  0  0  0  0  0
    7.8987    1.0536   22.6108 N   0  0  0  0  0  0  0  0  0  0  0  0
    7.5024    0.1540   23.7077 C   0  0  0  0  0  0  0  0  0  0  0  0
    8.3300   -1.1108   23.7157 C   0  0  0  0  0  0  0  0  0  0  0  0
    9.7047   -1.0337   23.9178 C   0  0  0  0  0  0  0  0  0  0  0  0
   10.5203   -2.1077   23.5779 C   0  0  0  0  0  0  0  0  0  0  0  0
    9.9540   -3.2761   23.0704 C   0  0  0  0  0  0  0  0  0  0  0  0
    8.5691   -3.3786   22.9795 C   0  0  0  0  0  0  0  0  0  0  0  0
    7.8113   -4.8120   22.3409 Cl  0  0  0  0  0  0  0  0  0  0  0  0
    7.7502   -2.3220   23.3506 C   0  0  0  0  0  0  0  0  0  0  0  0
    6.6670   -2.4204   23.2771 H   0  0  0  0  0  0  0  0  0  0  0  0
   10.5766   -4.0916   22.7264 H   0  0  0  0  0  0  0  0  0  0  0  0
   11.6016   -2.0128   23.6718 H   0  0  0  0  0  0  0  0  0  0  0  0
   10.1406   -0.1090   24.2819 H   0  0  0  0  0  0  0  0  0  0  0  0
    7.6624    0.7079   24.6350 H   0  0  0  0  0  0  0  0  0  0  0  0
    6.4352   -0.0966   23.6303 H   0  0  0  0  0  0  0  0  0  0  0  0
    7.9455    0.6518   21.2795 C   0  0  0  0  0  0  0  0  0  0  0  0
    8.7151    1.1447   20.4732 O   0  0  0  0  0  0  0  0  0  0  0  0
    6.9531   -0.4157   20.8124 C   0  0  0  0  0  0  0  0  0  0  0  0
    6.1077    0.0660   19.6714 C   0  0  0  0  0  0  0  0  0  0  0  0
    6.4193   -0.2513   18.3773 C   0  0  0  0  0  0  0  0  0  0  0  0
    5.7567    0.1966   17.2797 N   0  0  0  0  0  0  0  0  0  0  0  0
    4.7498    1.0067   17.4962 C   0  0  0  0  0  0  0  0  0  0  0  0
    4.3044    1.4126   18.7836 C   0  0  0  0  0  0  0  0  0  0  0  0
    3.2130    2.2998   18.9597 C   0  0  0  0  0  0  0  0  0  0  0  0
    2.8039    2.6579   20.2147 C   0  0  0  0  0  0  0  0  0  0  0  0
    3.4685    2.1456   21.3522 C   0  0  0  0  0  0  0  0  0  0  0  0
    4.5356    1.2940   21.2050 C   0  0  0  0  0  0  0  0  0  0  0  0
    4.9907    0.9147   19.9136 C   0  0  0  0  0  0  0  0  0  0  0  0
    5.0355    0.9122   22.0916 H   0  0  0  0  0  0  0  0  0  0  0  0
    3.1293    2.4316   22.3449 H   0  0  0  0  0  0  0  0  0  0  0  0
    1.9682    3.3392   20.3445 H   0  0  0  0  0  0  0  0  0  0  0  0
    2.7193    2.6946   18.0749 H   0  0  0  0  0  0  0  0  0  0  0  0
    4.2267    1.3798   16.6177 H   0  0  0  0  0  0  0  0  0  0  0  0
    7.2586   -0.9157   18.1742 H   0  0  0  0  0  0  0  0  0  0  0  0
    7.5509   -1.2779   20.5006 H   0  0  0  0  0  0  0  0  0  0  0  0
    6.3247   -0.7516   21.6328 H   0  0  0  0  0  0  0  0  0  0  0  0
   10.0759    2.1583   22.6950 C   0  0  0  0  0  0  0  0  0  0  0  0
   10.8651    3.2337   23.0927 C   0  0  0  0  0  0  0  0  0  0  0  0
   10.2919    4.3002   23.7671 C   0  0  0  0  0  0  0  0  0  0  0  0
    8.9318    4.2893   24.0952 C   0  0  0  0  0  0  0  0  0  0  0  0
   10.8790    5.1532   24.0971 H   0  0  0  0  0  0  0  0  0  0  0  0
   11.9261    3.2459   22.8638 H   0  0  0  0  0  0  0  0  0  0  0  0
   10.5112    1.3174   22.1639 H   0  0  0  0  0  0  0  0  0  0  0  0
    6.0574    2.6939   23.3611 H   0  0  0  0  0  0  0  0  0  0  0  0
    6.5769    2.5010   25.0334 H   0  0  0  0  0  0  0  0  0  0  0  0
    5.9937    5.1505   23.6510 H   0  0  0  0  0  0  0  0  0  0  0  0
    5.1485    4.4313   25.0270 H   0  0  0  0  0  0  0  0  0  0  0  0
    6.8119    6.0919   25.9377 H   0  0  0  0  0  0  0  0  0  0  0  0
    7.2542    4.4245   26.3261 H   0  0  0  0  0  0  0  0  0  0  0  0
    8.4723    6.2334   24.3501 H   0  0  0  0  0  0  0  0  0  0  0  0
    9.8034    8.2416   27.9197 H   0  0  0  0  0  0  0  0  0  0  0  0
    9.4805    7.7316   26.3024 H   0  0  0  0  0  0  0  0  0  0  0  0
   11.7565    8.3809   26.3504 H   0  0  0  0  0  0  0  0  0  0  0  0
   12.2070    7.2293   27.6013 H   0  0  0  0  0  0  0  0  0  0  0  0
   11.6609    6.6582   26.0044 H   0  0  0  0  0  0  0  0  0  0  0  0
  1  2  1  0
  2  3  1  0
  3  4  2  0
  3  5  1  0
  5  6  1  0
  6  7  1  0
  7  8  1  0
  8  9  1  0
  9 10  2  0
 10 11  1  0
 11 12  1  0
 12 13  1  0
 13 14  2  0
 14 15  1  0
 15 16  2  0
 16 17  1  0
 17 18  1  0
 17 19  2  0
 19 20  1  0
 16 21  1  0
 15 22  1  0
 14 23  1  0
 12 24  1  0
 12 25  1  0
 11 26  1  0
 26 27  2  0
 26 28  1  0
 28 29  1  0
 29 30  2  0
 30 31  1  0
 31 32  2  0
 32 33  1  0
 33 34  2  0
 34 35  1  0
 35 36  2  0
 36 37  1  0
 37 38  2  0
 37 39  1  0
 36 40  1  0
 35 41  1  0
 34 42  1  0
 32 43  1  0
 30 44  1  0
 28 45  1  0
 28 46  1  0
 10 47  1  0
 47 48  2  0
 48 49  1  0
 49 50  2  0
 49 51  1  0
 48 52  1  0
 47 53  1  0
  8 54  1  0
  8 55  1  0
  7 56  1  0
  7 57  1  0
  6 58  1  0
  6 59  1  0
  5 60  1  6
  2 61  1  0
  2 62  1  0
  1 63  1  0
  1 64  1  0
  1 65  1  0
 50  5  1  0
 50  9  1  0
 19 13  1  0
 38 29  1  0
 38 33  1  0
M  CHG  1   5   1
M  END
>  <cnnaffinities>  (94) 
[6.48138]

>  <score>  (94) 
6.48138

>  <index>  (94) 
94

>  <Smiles>  (94) 
C(C(C(=O)[N@@+]1(C(C(C(c2c(N(C(c3c(c(c(c(Cl)c3[H])[H])[H])[H])([H])[H])C(=O)C(c3c(nc(c4c(c(c(c(c34)[H])[H])[H])[H])[H])[H])([H])[H])c(c(c(c12)[H])[H])[H])([H])[H])([H])[H])([H])[H])[H])([H])[H])([H])([H])[H]

>  <h>  (94) 
<NA>

>  <Training>  (94) 
True

>  <Success>  (94) 
True

>  <enamine_searched>  (94) 
False

>  <enamine_id>  (94) 
nan

$$$$

     RDKit          3D

 67 71  0  0  0  0  0  0  0  0999 V2000
    4.9008   -3.0884   18.7992 C   0  0  0  0  0  0  0  0  0  0  0  0
    5.2211   -3.8121   20.0158 N   0  0  0  0  0  0  0  0  0  0  0  0
    5.8243   -5.0231   20.0695 C   0  0  0  0  0  0  0  0  0  0  0  0
    5.7526   -5.8873   19.2110 O   0  0  0  0  0  0  0  0  0  0  0  0
    6.7185   -5.2828   21.2937 C   0  0  0  0  0  0  0  0  0  0  0  0
    6.8257   -4.2270   22.2852 N   0  0  0  0  0  0  0  0  0  0  0  0
    7.8649   -3.1997   22.2126 C   0  0  0  0  0  0  0  0  0  0  0  0
    7.3546   -1.8161   22.7073 C   0  0  2  0  0  0  0  0  0  0  0  0
    6.2751   -1.2708   21.7469 C   0  0  0  0  0  0  0  0  0  0  0  0
    5.0985   -1.6057   21.7056 O   0  0  0  0  0  0  0  0  0  0  0  0
    6.8314   -0.3517   20.9053 N   0  0  0  0  0  0  0  0  0  0  0  0
    6.1547    0.2134   19.8140 C   0  0  0  0  0  0  0  0  0  0  0  0
    6.6344    0.0226   18.5440 C   0  0  0  0  0  0  0  0  0  0  0  0
    5.9713    0.3957   17.4292 N   0  0  0  0  0  0  0  0  0  0  0  0
    4.8485    1.0620   17.5882 C   0  0  0  0  0  0  0  0  0  0  0  0
    4.3098    1.4222   18.8573 C   0  0  0  0  0  0  0  0  0  0  0  0
    3.1560    2.2395   18.9898 C   0  0  0  0  0  0  0  0  0  0  0  0
    2.7029    2.6094   20.2279 C   0  0  0  0  0  0  0  0  0  0  0  0
    3.3589    2.1595   21.3953 C   0  0  0  0  0  0  0  0  0  0  0  0
    4.4617    1.3511   21.2969 C   0  0  0  0  0  0  0  0  0  0  0  0
    4.9690    0.9778   20.0196 C   0  0  0  0  0  0  0  0  0  0  0  0
    4.9565    0.9912   22.1927 H   0  0  0  0  0  0  0  0  0  0  0  0
    2.9959    2.4631   22.3737 H   0  0  0  0  0  0  0  0  0  0  0  0
    1.8437    3.2676   20.3242 H   0  0  0  0  0  0  0  0  0  0  0  0
    2.6641    2.5901   18.0864 H   0  0  0  0  0  0  0  0  0  0  0  0
    4.3230    1.3640   16.6830 H   0  0  0  0  0  0  0  0  0  0  0  0
    7.5686   -0.5168   18.3884 H   0  0  0  0  0  0  0  0  0  0  0  0
    8.2286   -0.1218   21.1463 C   0  0  0  0  0  0  0  0  0  0  0  0
    8.4117   -0.6664   22.5692 C   0  0  2  0  0  0  0  0  0  0  0  0
    9.9004   -0.8527   22.8811 C   0  0  0  0  0  0  0  0  0  0  0  0
   10.6135    0.8123   23.0946 S   0  0  0  0  0  0  0  0  0  0  0  0
   10.1729    1.2896   24.4012 O   0  0  0  0  0  0  0  0  0  0  0  0
   10.3134    1.5989   21.9060 O   0  0  0  0  0  0  0  0  0  0  0  0
   12.2805    0.6009   23.0969 N   0  0  0  0  0  0  0  0  0  0  0  0
   12.7806   -0.0116   24.3203 C   0  0  0  0  0  0  0  0  0  0  0  0
   12.4004   -1.0333   24.4077 H   0  0  0  0  0  0  0  0  0  0  0  0
   12.4937    0.5649   25.2084 H   0  0  0  0  0  0  0  0  0  0  0  0
   13.8700   -0.0732   24.2546 H   0  0  0  0  0  0  0  0  0  0  0  0
   13.0215    1.8031   22.6904 C   0  0  0  0  0  0  0  0  0  0  0  0
   12.9422    2.6274   23.4132 H   0  0  0  0  0  0  0  0  0  0  0  0
   14.0709    1.5254   22.5679 H   0  0  0  0  0  0  0  0  0  0  0  0
   12.6424    2.1422   21.7290 H   0  0  0  0  0  0  0  0  0  0  0  0
   10.4362   -1.3446   22.0590 H   0  0  0  0  0  0  0  0  0  0  0  0
   10.0701   -1.4160   23.8049 H   0  0  0  0  0  0  0  0  0  0  0  0
    8.0543    0.1092   23.2438 H   0  0  0  0  0  0  0  0  0  0  0  0
    8.4493    0.9399   21.0850 H   0  0  0  0  0  0  0  0  0  0  0  0
    8.8745   -0.6549   20.4343 H   0  0  0  0  0  0  0  0  0  0  0  0
    6.7459   -2.0293   24.0824 C   0  0  0  0  0  0  0  0  0  0  0  0
    6.6894   -1.0205   25.0464 C   0  0  0  0  0  0  0  0  0  0  0  0
    6.2214   -1.3204   26.3099 C   0  0  0  0  0  0  0  0  0  0  0  0
    6.2080   -0.3451   27.2316 F   0  0  0  0  0  0  0  0  0  0  0  0
    5.7724   -2.5832   26.6759 C   0  0  0  0  0  0  0  0  0  0  0  0
    5.7078   -3.5471   25.6889 C   0  0  0  0  0  0  0  0  0  0  0  0
    6.1390   -3.2581   24.3930 C   0  0  0  0  0  0  0  0  0  0  0  0
    5.9298   -4.2778   23.3186 C   0  0  0  0  0  0  0  0  0  0  0  0
    5.0304   -5.1053   23.3543 O   0  0  0  0  0  0  0  0  0  0  0  0
    5.3264   -4.5398   25.9069 H   0  0  0  0  0  0  0  0  0  0  0  0
    5.4850   -2.7909   27.7014 H   0  0  0  0  0  0  0  0  0  0  0  0
    7.0098   -0.0067   24.8451 H   0  0  0  0  0  0  0  0  0  0  0  0
    8.7259   -3.4804   22.8363 H   0  0  0  0  0  0  0  0  0  0  0  0
    8.1996   -3.1333   21.1798 H   0  0  0  0  0  0  0  0  0  0  0  0
    7.7051   -5.5393   20.8943 H   0  0  0  0  0  0  0  0  0  0  0  0
    6.3117   -6.1754   21.7718 H   0  0  0  0  0  0  0  0  0  0  0  0
    5.1985   -3.2379   20.8488 H   0  0  0  0  0  0  0  0  0  0  0  0
    5.5107   -3.4648   17.9804 H   0  0  0  0  0  0  0  0  0  0  0  0
    3.8501   -3.1336   18.5160 H   0  0  0  0  0  0  0  0  0  0  0  0
    5.1451   -2.0312   18.9541 H   0  0  0  0  0  0  0  0  0  0  0  0
  1  2  1  0
  2  3  1  0
  3  4  2  0
  3  5  1  0
  5  6  1  0
  6  7  1  0
  8  7  1  6
  8  9  1  0
  9 10  2  0
  9 11  1  0
 11 12  1  0
 12 13  2  0
 13 14  1  0
 14 15  2  0
 15 16  1  0
 16 17  2  0
 17 18  1  0
 18 19  2  0
 19 20  1  0
 20 21  2  0
 20 22  1  0
 19 23  1  0
 18 24  1  0
 17 25  1  0
 15 26  1  0
 13 27  1  0
 11 28  1  0
 28 29  1  0
 29 30  1  0
 30 31  1  0
 31 32  2  0
 31 33  2  0
 31 34  1  0
 34 35  1  0
 35 36  1  0
 35 37  1  0
 35 38  1  0
 34 39  1  0
 39 40  1  0
 39 41  1  0
 39 42  1  0
 30 43  1  0
 30 44  1  0
 29 45  1  1
 28 46  1  0
 28 47  1  0
  8 48  1  0
 48 49  2  0
 49 50  1  0
 50 51  1  0
 50 52  2  0
 52 53  1  0
 53 54  2  0
 54 55  1  0
 55 56  2  0
 53 57  1  0
 52 58  1  0
 49 59  1  0
  7 60  1  0
  7 61  1  0
  5 62  1  0
  5 63  1  0
  2 64  1  0
  1 65  1  0
  1 66  1  0
  1 67  1  0
 55  6  1  0
 29  8  1  0
 54 48  1  0
 21 12  1  0
 21 16  1  0
M  END
>  <cnnaffinities>  (95) 
[6.96389, 6.48804]

>  <score>  (95) 
6.96389

>  <index>  (95) 
95

>  <Smiles>  (95) 
C(N(C(=O)C(N1C([C@@]2(C(=O)N(c3c(nc(c4c(c(c(c(c34)[H])[H])[H])[H])[H])[H])C([C@@]2(C(S(=O)(=O)N(C([H])([H])[H])C([H])([H])[H])([H])[H])[H])([H])[H])c2c(c(F)c(c(c2C1=O)[H])[H])[H])([H])[H])([H])[H])[H])([H])([H])[H]

>  <h>  (95) 
<NA>

>  <Training>  (95) 
True

>  <Success>  (95) 
True

>  <enamine_searched>  (95) 
False

>  <enamine_id>  (95) 
nan

$$$$

     RDKit          3D

 37 39  0  0  0  0  0  0  0  0999 V2000
    5.9311   -2.6913   20.8305 O   0  0  0  0  0  0  0  0  0  0  0  0
    6.1762   -1.7090   21.5144 C   0  0  0  0  0  0  0  0  0  0  0  0
    6.9069   -0.4993   20.9074 C   0  0  0  0  0  0  0  0  0  0  0  0
    6.1144    0.0950   19.7621 C   0  0  0  0  0  0  0  0  0  0  0  0
    6.4209   -0.2120   18.4601 C   0  0  0  0  0  0  0  0  0  0  0  0
    5.7570    0.2374   17.3629 N   0  0  0  0  0  0  0  0  0  0  0  0
    4.7349    1.0325   17.5735 C   0  0  0  0  0  0  0  0  0  0  0  0
    4.2856    1.4255   18.8670 C   0  0  0  0  0  0  0  0  0  0  0  0
    3.1605    2.2753   19.0405 C   0  0  0  0  0  0  0  0  0  0  0  0
    2.7471    2.6250   20.2986 C   0  0  0  0  0  0  0  0  0  0  0  0
    3.4373    2.1423   21.4288 C   0  0  0  0  0  0  0  0  0  0  0  0
    4.5307    1.3226   21.2862 C   0  0  0  0  0  0  0  0  0  0  0  0
    4.9870    0.9422   19.9931 C   0  0  0  0  0  0  0  0  0  0  0  0
    5.0469    0.9652   22.1702 H   0  0  0  0  0  0  0  0  0  0  0  0
    3.1014    2.4298   22.4220 H   0  0  0  0  0  0  0  0  0  0  0  0
    1.8873    3.2768   20.4335 H   0  0  0  0  0  0  0  0  0  0  0  0
    2.6372    2.6440   18.1619 H   0  0  0  0  0  0  0  0  0  0  0  0
    4.1965    1.4010   16.7001 H   0  0  0  0  0  0  0  0  0  0  0  0
    7.2667   -0.8691   18.2492 H   0  0  0  0  0  0  0  0  0  0  0  0
    7.8657   -0.8637   20.5159 H   0  0  0  0  0  0  0  0  0  0  0  0
    7.1438    0.2573   21.6633 H   0  0  0  0  0  0  0  0  0  0  0  0
    5.7588   -1.6359   22.8077 N   0  0  0  0  0  0  0  0  0  0  0  0
    4.9164   -2.6757   23.3937 C   0  0  0  0  0  0  0  0  0  0  0  0
    4.4664   -2.3087   24.7940 C   0  0  0  0  0  0  0  0  0  0  0  0
    3.3743   -1.4609   24.9851 C   0  0  0  0  0  0  0  0  0  0  0  0
    2.9842   -1.0881   26.2678 C   0  0  0  0  0  0  0  0  0  0  0  0
    3.6715   -1.5572   27.3812 C   0  0  0  0  0  0  0  0  0  0  0  0
    4.7570   -2.4021   27.1889 C   0  0  0  0  0  0  0  0  0  0  0  0
    5.6355   -2.9920   28.5739 Cl  0  0  0  0  0  0  0  0  0  0  0  0
    5.1564   -2.7829   25.9107 C   0  0  0  0  0  0  0  0  0  0  0  0
    6.0160   -3.4396   25.7918 H   0  0  0  0  0  0  0  0  0  0  0  0
    3.3692   -1.2671   28.3835 H   0  0  0  0  0  0  0  0  0  0  0  0
    2.1381   -0.4200   26.4041 H   0  0  0  0  0  0  0  0  0  0  0  0
    2.8342   -1.0749   24.1227 H   0  0  0  0  0  0  0  0  0  0  0  0
    5.4497   -3.6308   23.4053 H   0  0  0  0  0  0  0  0  0  0  0  0
    4.0412   -2.8169   22.7526 H   0  0  0  0  0  0  0  0  0  0  0  0
    6.0403   -0.8753   23.4063 H   0  0  0  0  0  0  0  0  0  0  0  0
  1  2  2  0
  2  3  1  0
  3  4  1  0
  4  5  2  0
  5  6  1  0
  6  7  2  0
  7  8  1  0
  8  9  2  0
  9 10  1  0
 10 11  2  0
 11 12  1  0
 12 13  2  0
 12 14  1  0
 11 15  1  0
 10 16  1  0
  9 17  1  0
  7 18  1  0
  5 19  1  0
  3 20  1  0
  3 21  1  0
  2 22  1  0
 22 23  1  0
 23 24  1  0
 24 25  2  0
 25 26  1  0
 26 27  2  0
 27 28  1  0
 28 29  1  0
 28 30  2  0
 30 31  1  0
 27 32  1  0
 26 33  1  0
 25 34  1  0
 23 35  1  0
 23 36  1  0
 22 37  1  0
 13  4  1  0
 30 24  1  0
 13  8  1  0
M  END
>  <cnnaffinities>  (96) 
[4.67613, 4.85199]

>  <score>  (96) 
4.67613

>  <index>  (96) 
96

>  <Smiles>  (96) 
O=C(C(c1c(nc(c2c(c(c(c(c12)[H])[H])[H])[H])[H])[H])([H])[H])N(C(c1c(c(c(c(Cl)c1[H])[H])[H])[H])([H])[H])[H]

>  <h>  (96) 
<NA>

>  <Training>  (96) 
True

>  <Success>  (96) 
True

>  <enamine_searched>  (96) 
False

>  <enamine_id>  (96) 
nan

$$$$
