
     RDKit          3D

 64 68  0  0  0  0  0  0  0  0999 V2000
    6.0435   -3.9062   24.6550 C   0  0  0  0  0  0  0  0  0  0  0  0
    6.6141   -4.4447   23.3572 C   0  0  0  0  0  0  0  0  0  0  0  0
    8.3824   -4.3301   23.2416 S   0  0  0  0  0  0  0  0  0  0  0  0
    8.6745   -4.6176   21.8443 O   0  0  0  0  0  0  0  0  0  0  0  0
    8.9415   -5.1194   24.3240 O   0  0  0  0  0  0  0  0  0  0  0  0
    8.7960   -2.7334   23.6126 N   0  0  0  0  0  0  0  0  0  0  0  0
    8.9087   -1.7911   22.4921 C   0  0  1  0  0  0  0  0  0  0  0  0
    7.5606   -1.5511   21.8006 C   0  0  0  0  0  0  0  0  0  0  0  0
    7.7765   -0.2681   21.1635 N   0  0  0  0  0  0  0  0  0  0  0  0
    6.9461    0.2672   20.1404 C   0  0  0  0  0  0  0  0  0  0  0  0
    7.2179   -0.0084   18.8253 C   0  0  0  0  0  0  0  0  0  0  0  0
    6.4881    0.4454   17.7724 N   0  0  0  0  0  0  0  0  0  0  0  0
    5.4513    1.2024   18.0453 C   0  0  0  0  0  0  0  0  0  0  0  0
    5.0403    1.5588   19.3638 C   0  0  0  0  0  0  0  0  0  0  0  0
    3.9088    2.3838   19.6118 C   0  0  0  0  0  0  0  0  0  0  0  0
    3.5396    2.6873   20.8945 C   0  0  0  0  0  0  0  0  0  0  0  0
    4.2766    2.1795   21.9897 C   0  0  0  0  0  0  0  0  0  0  0  0
    5.3803    1.3916   21.7742 C   0  0  0  0  0  0  0  0  0  0  0  0
    5.8015    1.0700   20.4534 C   0  0  0  0  0  0  0  0  0  0  0  0
    8.8166    0.4551   21.7068 C   0  0  0  0  0  0  0  0  0  0  0  0
    9.1532    1.5605   21.3278 O   0  0  0  0  0  0  0  0  0  0  0  0
    9.4266   -0.3783   22.8649 C   0  0  1  0  0  0  0  0  0  0  0  0
    8.8440    0.1068   24.2137 C   0  0  0  0  0  0  0  0  0  0  0  0
    9.2613    1.4715   24.5029 N   0  0  0  0  0  0  0  0  0  0  0  0
    8.4034    2.3050   25.3216 C   0  0  0  0  0  0  0  0  0  0  0  0
    7.6497    3.4489   24.6244 C   0  0  0  0  0  0  0  0  0  0  0  0
    6.7939    4.0701   25.2443 O   0  0  0  0  0  0  0  0  0  0  0  0
    7.9602    3.7068   23.3369 N   0  0  0  0  0  0  0  0  0  0  0  0
    7.1691    4.6498   22.5677 C   0  0  0  0  0  0  0  0  0  0  0  0
   10.5421    1.9033   24.2865 C   0  0  0  0  0  0  0  0  0  0  0  0
   10.9054    3.0156   24.6518 O   0  0  0  0  0  0  0  0  0  0  0  0
   11.4437    0.9520   23.5557 C   0  0  0  0  0  0  0  0  0  0  0  0
   12.8077    1.2373   23.5193 C   0  0  0  0  0  0  0  0  0  0  0  0
   13.6858    0.3926   22.8658 C   0  0  0  0  0  0  0  0  0  0  0  0
   13.1749   -0.7512   22.2503 C   0  0  0  0  0  0  0  0  0  0  0  0
   14.2615   -1.8183   21.4021 Cl  0  0  0  0  0  0  0  0  0  0  0  0
   11.8231   -1.0496   22.2788 C   0  0  0  0  0  0  0  0  0  0  0  0
   10.9276   -0.1892   22.9222 C   0  0  0  0  0  0  0  0  0  0  0  0
    4.9601   -4.0609   24.6568 H   0  0  0  0  0  0  0  0  0  0  0  0
    6.4761   -4.4323   25.5115 H   0  0  0  0  0  0  0  0  0  0  0  0
    6.2469   -2.8338   24.7537 H   0  0  0  0  0  0  0  0  0  0  0  0
    6.4440   -5.5216   23.2301 H   0  0  0  0  0  0  0  0  0  0  0  0
    6.2327   -3.9448   22.4640 H   0  0  0  0  0  0  0  0  0  0  0  0
    9.6557   -2.8088   24.1561 H   0  0  0  0  0  0  0  0  0  0  0  0
    9.5848   -2.2033   21.7396 H   0  0  0  0  0  0  0  0  0  0  0  0
    7.3150   -2.3163   21.0575 H   0  0  0  0  0  0  0  0  0  0  0  0
    6.7453   -1.5194   22.5432 H   0  0  0  0  0  0  0  0  0  0  0  0
    8.0739   -0.6316   18.5723 H   0  0  0  0  0  0  0  0  0  0  0  0
    4.8820    1.5752   17.1932 H   0  0  0  0  0  0  0  0  0  0  0  0
    3.3602    2.7738   18.7575 H   0  0  0  0  0  0  0  0  0  0  0  0
    2.6884    3.3352   21.0849 H   0  0  0  0  0  0  0  0  0  0  0  0
    3.9931    2.4447   23.0062 H   0  0  0  0  0  0  0  0  0  0  0  0
    5.9481    1.0063   22.6165 H   0  0  0  0  0  0  0  0  0  0  0  0
    9.1618   -0.5781   25.0098 H   0  0  0  0  0  0  0  0  0  0  0  0
    7.7503    0.0976   24.1626 H   0  0  0  0  0  0  0  0  0  0  0  0
    7.6288    1.6797   25.7741 H   0  0  0  0  0  0  0  0  0  0  0  0
    8.9859    2.7501   26.1357 H   0  0  0  0  0  0  0  0  0  0  0  0
    8.7392    3.2487   22.8849 H   0  0  0  0  0  0  0  0  0  0  0  0
    7.5949    4.6985   21.5604 H   0  0  0  0  0  0  0  0  0  0  0  0
    6.1259    4.3119   22.4958 H   0  0  0  0  0  0  0  0  0  0  0  0
    7.1774    5.6480   23.0223 H   0  0  0  0  0  0  0  0  0  0  0  0
   13.1468    2.1423   24.0119 H   0  0  0  0  0  0  0  0  0  0  0  0
   14.7483    0.6105   22.8189 H   0  0  0  0  0  0  0  0  0  0  0  0
   11.4758   -1.9567   21.7986 H   0  0  0  0  0  0  0  0  0  0  0  0
  1  2  1  0
  2  3  1  0
  3  4  2  0
  3  5  2  0
  3  6  1  0
  6  7  1  0
  7  8  1  0
  8  9  1  0
  9 10  1  0
 10 11  2  0
 11 12  1  0
 12 13  2  0
 13 14  1  0
 14 15  2  0
 15 16  1  0
 16 17  2  0
 17 18  1  0
 18 19  2  0
  9 20  1  0
 20 21  2  0
 20 22  1  0
 22 23  1  1
 23 24  1  0
 24 25  1  0
 25 26  1  0
 26 27  2  0
 26 28  1  0
 28 29  1  0
 24 30  1  0
 30 31  2  0
 30 32  1  0
 32 33  2  0
 33 34  1  0
 34 35  2  0
 35 36  1  0
 35 37  1  0
 37 38  2  0
 22  7  1  0
 38 32  1  0
 19 10  1  0
 38 22  1  0
 19 14  1  0
  1 39  1  0
  1 40  1  0
  1 41  1  0
  2 42  1  0
  2 43  1  0
  6 44  1  0
  7 45  1  6
  8 46  1  0
  8 47  1  0
 11 48  1  0
 13 49  1  0
 15 50  1  0
 16 51  1  0
 17 52  1  0
 18 53  1  0
 23 54  1  0
 23 55  1  0
 25 56  1  0
 25 57  1  0
 28 58  1  0
 29 59  1  0
 29 60  1  0
 29 61  1  0
 33 62  1  0
 34 63  1  0
 37 64  1  0
M  END
$$$$
