
     RDKit          3D

 66 71  0  0  0  0  0  0  0  0999 V2000
  -14.3508   -1.4893  -23.6816 C   0  0  0  0  0  0  0  0  0  0  0  0
  -13.5848   -2.6754  -23.3484 N   0  0  0  0  0  0  0  0  0  0  0  0
  -13.2546   -2.9570  -22.0614 C   0  0  0  0  0  0  0  0  0  0  0  0
  -13.7468   -2.3648  -21.1126 O   0  0  0  0  0  0  0  0  0  0  0  0
  -12.2598   -4.1044  -21.8650 C   0  0  0  0  0  0  0  0  0  0  0  0
  -10.9474   -3.9697  -22.4684 N   0  0  0  0  0  0  0  0  0  0  0  0
   -9.8262   -3.5141  -21.6651 C   0  0  0  0  0  0  0  0  0  0  0  0
   -8.6623   -2.9232  -22.5005 C   0  0  2  0  0  0  0  0  0  0  0  0
   -7.5055   -2.6948  -21.5215 C   0  0  0  0  0  0  0  0  0  0  0  0
   -6.7792   -3.5466  -21.0466 O   0  0  0  0  0  0  0  0  0  0  0  0
   -7.4220   -1.3454  -21.2434 N   0  0  0  0  0  0  0  0  0  0  0  0
   -6.5977   -0.8495  -20.2043 C   0  0  0  0  0  0  0  0  0  0  0  0
   -6.8891   -1.1247  -18.8927 C   0  0  0  0  0  0  0  0  0  0  0  0
   -6.2209   -0.5907  -17.8410 N   0  0  0  0  0  0  0  0  0  0  0  0
   -5.2202    0.2161  -18.0938 C   0  0  0  0  0  0  0  0  0  0  0  0
   -4.7759    0.5406  -19.4072 C   0  0  0  0  0  0  0  0  0  0  0  0
   -3.6489    1.3721  -19.6375 C   0  0  0  0  0  0  0  0  0  0  0  0
   -3.2426    1.6405  -20.9166 C   0  0  0  0  0  0  0  0  0  0  0  0
   -3.9405    1.0922  -22.0162 C   0  0  0  0  0  0  0  0  0  0  0  0
   -5.0312    0.2819  -21.8183 C   0  0  0  0  0  0  0  0  0  0  0  0
   -5.4795   -0.0060  -20.5021 C   0  0  0  0  0  0  0  0  0  0  0  0
   -5.5481   -0.1639  -22.6618 H   0  0  0  0  0  0  0  0  0  0  0  0
   -3.6058    1.3021  -23.0284 H   0  0  0  0  0  0  0  0  0  0  0  0
   -2.3797    2.2748  -21.0969 H   0  0  0  0  0  0  0  0  0  0  0  0
   -3.1241    1.7838  -18.7795 H   0  0  0  0  0  0  0  0  0  0  0  0
   -4.6949    0.6468  -17.2397 H   0  0  0  0  0  0  0  0  0  0  0  0
   -7.7095   -1.7936  -18.6407 H   0  0  0  0  0  0  0  0  0  0  0  0
   -8.4209   -0.5326  -21.9263 C   0  0  0  0  0  0  0  0  0  0  0  0
   -8.9041   -1.4739  -23.0404 C   0  0  2  0  0  0  0  0  0  0  0  0
  -10.3378   -1.2153  -23.5054 C   0  0  0  0  0  0  0  0  0  0  0  0
  -10.5275    0.0004  -24.2549 N   0  0  0  0  0  0  0  0  0  0  0  0
  -11.0404    1.1225  -23.6987 C   0  0  0  0  0  0  0  0  0  0  0  0
  -11.0653    2.3293  -24.4248 C   0  0  0  0  0  0  0  0  0  0  0  0
  -11.5561    3.4183  -23.7473 C   0  0  0  0  0  0  0  0  0  0  0  0
  -12.0343    3.3680  -22.4927 N   0  0  0  0  0  0  0  0  0  0  0  0
  -11.9921    2.1751  -21.9268 C   0  0  0  0  0  0  0  0  0  0  0  0
  -11.5286    1.0389  -22.4541 N   0  0  0  0  0  0  0  0  0  0  0  0
  -12.3776    2.1173  -20.9083 H   0  0  0  0  0  0  0  0  0  0  0  0
  -11.5627    4.3926  -24.2288 H   0  0  0  0  0  0  0  0  0  0  0  0
  -10.7072    2.3662  -25.4523 H   0  0  0  0  0  0  0  0  0  0  0  0
  -10.0991    0.0731  -25.1632 H   0  0  0  0  0  0  0  0  0  0  0  0
  -10.6711   -2.0633  -24.1097 H   0  0  0  0  0  0  0  0  0  0  0  0
  -10.9770   -1.1268  -22.6281 H   0  0  0  0  0  0  0  0  0  0  0  0
   -8.2207   -1.3621  -23.8926 H   0  0  0  0  0  0  0  0  0  0  0  0
   -7.9787    0.3975  -22.3012 H   0  0  0  0  0  0  0  0  0  0  0  0
   -9.2413   -0.2375  -21.2537 H   0  0  0  0  0  0  0  0  0  0  0  0
   -8.3287   -3.9334  -23.5760 C   0  0  0  0  0  0  0  0  0  0  0  0
   -7.0275   -4.0752  -24.0735 C   0  0  0  0  0  0  0  0  0  0  0  0
   -6.7536   -5.0448  -25.0233 C   0  0  0  0  0  0  0  0  0  0  0  0
   -5.1364   -5.1980  -25.6597 Cl  0  0  0  0  0  0  0  0  0  0  0  0
   -7.7382   -5.9370  -25.4440 C   0  0  0  0  0  0  0  0  0  0  0  0
   -9.0362   -5.7696  -24.9949 C   0  0  0  0  0  0  0  0  0  0  0  0
   -9.3422   -4.7465  -24.1010 C   0  0  0  0  0  0  0  0  0  0  0  0
  -10.7655   -4.5422  -23.6904 C   0  0  0  0  0  0  0  0  0  0  0  0
  -11.7262   -4.8479  -24.3958 O   0  0  0  0  0  0  0  0  0  0  0  0
   -9.8355   -6.4337  -25.3141 H   0  0  0  0  0  0  0  0  0  0  0  0
   -7.4824   -6.7593  -26.1059 H   0  0  0  0  0  0  0  0  0  0  0  0
   -6.2146   -3.4814  -23.6685 H   0  0  0  0  0  0  0  0  0  0  0  0
  -10.1699   -2.7578  -20.9556 H   0  0  0  0  0  0  0  0  0  0  0  0
   -9.4117   -4.3556  -21.1022 H   0  0  0  0  0  0  0  0  0  0  0  0
  -12.1603   -4.2688  -20.7905 H   0  0  0  0  0  0  0  0  0  0  0  0
  -12.7076   -4.9675  -22.3395 H   0  0  0  0  0  0  0  0  0  0  0  0
  -13.1689   -3.2106  -24.0976 H   0  0  0  0  0  0  0  0  0  0  0  0
  -13.7598   -0.5726  -23.5488 H   0  0  0  0  0  0  0  0  0  0  0  0
  -15.2222   -1.3998  -23.0308 H   0  0  0  0  0  0  0  0  0  0  0  0
  -14.6936   -1.5734  -24.7173 H   0  0  0  0  0  0  0  0  0  0  0  0
  1  2  1  0
  2  3  1  0
  3  4  2  0
  3  5  1  0
  5  6  1  0
  6  7  1  0
  8  7  1  1
  8  9  1  0
  9 10  2  0
  9 11  1  0
 11 12  1  0
 12 13  2  0
 13 14  1  0
 14 15  2  0
 15 16  1  0
 16 17  2  0
 17 18  1  0
 18 19  2  0
 19 20  1  0
 20 21  2  0
 20 22  1  0
 19 23  1  0
 18 24  1  0
 17 25  1  0
 15 26  1  0
 13 27  1  0
 11 28  1  0
 28 29  1  0
 29 30  1  0
 30 31  1  0
 31 32  1  0
 32 33  2  0
 33 34  1  0
 34 35  2  0
 35 36  1  0
 36 37  2  0
 36 38  1  0
 34 39  1  0
 33 40  1  0
 31 41  1  0
 30 42  1  0
 30 43  1  0
 29 44  1  6
 28 45  1  0
 28 46  1  0
  8 47  1  0
 47 48  2  0
 48 49  1  0
 49 50  1  0
 49 51  2  0
 51 52  1  0
 52 53  2  0
 53 54  1  0
 54 55  2  0
 52 56  1  0
 51 57  1  0
 48 58  1  0
  7 59  1  0
  7 60  1  0
  5 61  1  0
  5 62  1  0
  2 63  1  0
  1 64  1  0
  1 65  1  0
  1 66  1  0
 54  6  1  0
 29  8  1  0
 37 32  1  0
 53 47  1  0
 21 12  1  0
 21 16  1  0
M  END
>  <cnnaffinities>  (1) 
[7.08659, 6.93091, 6.86365]

>  <score>  (1) 
7.08659

>  <index>  (1) 
0

>  <Smiles>  (1) 
C(N(C(=O)C(N1C([C@@]2(C(=O)N(c3c(nc(c4c(c(c(c(c34)[H])[H])[H])[H])[H])[H])C([C@@]2(C(N(c2c(c(nc(n2)[H])[H])[H])[H])([H])[H])[H])([H])[H])c2c(c(Cl)c(c(c2C1=O)[H])[H])[H])([H])[H])([H])[H])[H])([H])([H])[H]

>  <h>  (1) 
<NA>

>  <Training>  (1) 
True

>  <Success>  (1) 
True

>  <enamine_searched>  (1) 
False

>  <enamine_id>  (1) 
nan

$$$$

     RDKit          3D

 68 73  0  0  0  0  0  0  0  0999 V2000
   -7.3019    3.4632  -21.8821 C   0  0  0  0  0  0  0  0  0  0  0  0
   -8.2929    2.9115  -22.7959 N   0  0  0  0  0  0  0  0  0  0  0  0
   -7.8774    2.2340  -23.8999 C   0  0  0  0  0  0  0  0  0  0  0  0
   -6.6899    2.0613  -24.1496 O   0  0  0  0  0  0  0  0  0  0  0  0
   -8.9946    1.6929  -24.8115 C   0  0  0  0  0  0  0  0  0  0  0  0
   -9.5981    0.5018  -24.2302 N   0  0  0  0  0  0  0  0  0  0  0  0
   -8.7609   -0.6784  -24.0658 C   0  0  0  0  0  0  0  0  0  0  0  0
   -9.1005   -1.4830  -22.7761 C   0  0  2  0  0  0  0  0  0  0  0  0
   -8.6046   -0.6817  -21.5466 C   0  0  0  0  0  0  0  0  0  0  0  0
   -9.1205    0.2975  -21.0499 O   0  0  0  0  0  0  0  0  0  0  0  0
   -7.4404   -1.2526  -21.0920 N   0  0  0  0  0  0  0  0  0  0  0  0
   -6.6393   -0.6879  -20.0856 C   0  0  0  0  0  0  0  0  0  0  0  0
   -6.9144   -0.9623  -18.7742 C   0  0  0  0  0  0  0  0  0  0  0  0
   -6.1690   -0.5099  -17.7423 N   0  0  0  0  0  0  0  0  0  0  0  0
   -5.1307    0.2363  -18.0302 C   0  0  0  0  0  0  0  0  0  0  0  0
   -4.7173    0.5657  -19.3541 C   0  0  0  0  0  0  0  0  0  0  0  0
   -3.5869    1.3844  -19.6198 C   0  0  0  0  0  0  0  0  0  0  0  0
   -3.2227    1.6725  -20.9073 C   0  0  0  0  0  0  0  0  0  0  0  0
   -3.9726    1.1616  -21.9927 C   0  0  0  0  0  0  0  0  0  0  0  0
   -5.0810    0.3824  -21.7627 C   0  0  0  0  0  0  0  0  0  0  0  0
   -5.4848    0.0735  -20.4314 C   0  0  0  0  0  0  0  0  0  0  0  0
   -5.6667    0.0214  -22.6048 H   0  0  0  0  0  0  0  0  0  0  0  0
   -3.6857    1.3979  -23.0137 H   0  0  0  0  0  0  0  0  0  0  0  0
   -2.3666    2.3114  -21.1045 H   0  0  0  0  0  0  0  0  0  0  0  0
   -3.0443    1.7898  -18.7702 H   0  0  0  0  0  0  0  0  0  0  0  0
   -4.5528    0.6189  -17.1899 H   0  0  0  0  0  0  0  0  0  0  0  0
   -7.7696   -1.5878  -18.5250 H   0  0  0  0  0  0  0  0  0  0  0  0
   -6.9897   -2.3974  -21.8249 C   0  0  0  0  0  0  0  0  0  0  0  0
   -8.2252   -2.7769  -22.6368 C   0  0  2  0  0  0  0  0  0  0  0  0
   -7.7885   -3.4765  -23.9063 C   0  0  0  0  0  0  0  0  0  0  0  0
   -8.9316   -4.0243  -24.5784 N   0  0  0  0  0  0  0  0  0  0  0  0
   -8.7974   -4.5772  -25.8350 C   0  0  0  0  0  0  0  0  0  0  0  0
   -7.6253   -4.7053  -26.6225 C   0  0  0  0  0  0  0  0  0  0  0  0
   -7.8945   -5.2770  -27.7924 N   0  0  0  0  0  0  0  0  0  0  0  0
   -9.1976   -5.5534  -27.7529 N   0  0  0  0  0  0  0  0  0  0  0  0
   -9.8949   -6.0006  -28.9226 C   0  0  0  0  0  0  0  0  0  0  0  0
  -10.6327   -5.2522  -29.2104 H   0  0  0  0  0  0  0  0  0  0  0  0
  -10.4157   -6.9423  -28.7461 H   0  0  0  0  0  0  0  0  0  0  0  0
   -9.1533   -6.1131  -29.7057 H   0  0  0  0  0  0  0  0  0  0  0  0
   -9.7890   -5.1513  -26.6040 C   0  0  0  0  0  0  0  0  0  0  0  0
  -10.8338   -5.3503  -26.4297 H   0  0  0  0  0  0  0  0  0  0  0  0
   -6.6071   -4.4205  -26.3624 H   0  0  0  0  0  0  0  0  0  0  0  0
   -9.8447   -3.6411  -24.3672 H   0  0  0  0  0  0  0  0  0  0  0  0
   -7.2086   -2.7669  -24.5256 H   0  0  0  0  0  0  0  0  0  0  0  0
   -7.0833   -4.2890  -23.6809 H   0  0  0  0  0  0  0  0  0  0  0  0
   -8.7970   -3.4989  -22.0496 H   0  0  0  0  0  0  0  0  0  0  0  0
   -6.1264   -2.1522  -22.4644 H   0  0  0  0  0  0  0  0  0  0  0  0
   -6.6657   -3.2009  -21.1515 H   0  0  0  0  0  0  0  0  0  0  0  0
  -10.6146   -1.6759  -22.7141 C   0  0  0  0  0  0  0  0  0  0  0  0
  -11.2011   -2.6725  -21.9152 C   0  0  0  0  0  0  0  0  0  0  0  0
  -12.5790   -2.7401  -21.7730 C   0  0  0  0  0  0  0  0  0  0  0  0
  -13.2781   -3.9232  -20.7012 Cl  0  0  0  0  0  0  0  0  0  0  0  0
  -13.4231   -1.8533  -22.4385 C   0  0  0  0  0  0  0  0  0  0  0  0
  -12.8595   -0.8649  -23.2186 C   0  0  0  0  0  0  0  0  0  0  0  0
  -11.4743   -0.7503  -23.3345 C   0  0  0  0  0  0  0  0  0  0  0  0
  -10.9569    0.4373  -24.0944 C   0  0  0  0  0  0  0  0  0  0  0  0
  -11.7086    1.2979  -24.5354 O   0  0  0  0  0  0  0  0  0  0  0  0
  -13.4799   -0.1434  -23.7401 H   0  0  0  0  0  0  0  0  0  0  0  0
  -14.4984   -1.9301  -22.3249 H   0  0  0  0  0  0  0  0  0  0  0  0
  -10.6052   -3.3867  -21.3572 H   0  0  0  0  0  0  0  0  0  0  0  0
   -7.7247   -0.3357  -24.0054 H   0  0  0  0  0  0  0  0  0  0  0  0
   -8.8627   -1.3171  -24.9551 H   0  0  0  0  0  0  0  0  0  0  0  0
   -9.8048    2.4179  -24.9502 H   0  0  0  0  0  0  0  0  0  0  0  0
   -8.5737    1.4891  -25.8057 H   0  0  0  0  0  0  0  0  0  0  0  0
   -9.2374    2.7721  -22.4570 H   0  0  0  0  0  0  0  0  0  0  0  0
   -6.6464    4.1522  -22.4211 H   0  0  0  0  0  0  0  0  0  0  0  0
   -7.7990    4.0173  -21.0802 H   0  0  0  0  0  0  0  0  0  0  0  0
   -6.6666    2.6736  -21.4570 H   0  0  0  0  0  0  0  0  0  0  0  0
  1  2  1  0
  2  3  1  0
  3  4  2  0
  3  5  1  0
  5  6  1  0
  6  7  1  0
  8  7  1  6
  8  9  1  0
  9 10  2  0
  9 11  1  0
 11 12  1  0
 12 13  2  0
 13 14  1  0
 14 15  2  0
 15 16  1  0
 16 17  2  0
 17 18  1  0
 18 19  2  0
 19 20  1  0
 20 21  2  0
 20 22  1  0
 19 23  1  0
 18 24  1  0
 17 25  1  0
 15 26  1  0
 13 27  1  0
 11 28  1  0
 28 29  1  0
 29 30  1  0
 30 31  1  0
 31 32  1  0
 32 33  1  0
 33 34  2  0
 34 35  1  0
 35 36  1  0
 36 37  1  0
 36 38  1  0
 36 39  1  0
 35 40  1  0
 40 41  1  0
 33 42  1  0
 31 43  1  0
 30 44  1  0
 30 45  1  0
 29 46  1  1
 28 47  1  0
 28 48  1  0
  8 49  1  0
 49 50  2  0
 50 51  1  0
 51 52  1  0
 51 53  2  0
 53 54  1  0
 54 55  2  0
 55 56  1  0
 56 57  2  0
 54 58  1  0
 53 59  1  0
 50 60  1  0
  7 61  1  0
  7 62  1  0
  5 63  1  0
  5 64  1  0
  2 65  1  0
  1 66  1  0
  1 67  1  0
  1 68  1  0
 56  6  1  0
 29  8  1  0
 40 32  2  0
 55 49  1  0
 21 12  1  0
 21 16  1  0
M  END
>  <cnnaffinities>  (2) 
[6.25736]

>  <score>  (2) 
6.25736

>  <index>  (2) 
1

>  <Smiles>  (2) 
C(N(C(=O)C(N1C([C@@]2(C(=O)N(c3c(nc(c4c(c(c(c(c34)[H])[H])[H])[H])[H])[H])C([C@@]2(C(N(c2c(nn(C([H])([H])[H])c2[H])[H])[H])([H])[H])[H])([H])[H])c2c(c(Cl)c(c(c2C1=O)[H])[H])[H])([H])[H])([H])[H])[H])([H])([H])[H]

>  <h>  (2) 
<NA>

>  <Training>  (2) 
True

>  <Success>  (2) 
True

>  <enamine_searched>  (2) 
False

>  <enamine_id>  (2) 
nan

$$$$

     RDKit          3D

 60 65  0  0  0  0  0  0  0  0999 V2000
   -6.3285    1.0715  -30.6319 C   0  0  0  0  0  0  0  0  0  0  0  0
   -6.7038    1.2291  -29.1822 C   0  0  0  0  0  0  0  0  0  0  0  0
   -6.0628    0.4832  -28.1878 C   0  0  0  0  0  0  0  0  0  0  0  0
   -6.3566    0.5878  -26.8939 N   0  0  0  0  0  0  0  0  0  0  0  0
   -7.3276    1.4510  -26.5741 C   0  0  0  0  0  0  0  0  0  0  0  0
   -7.7398    1.5599  -25.1212 C   0  0  0  0  0  0  0  0  0  0  0  0
   -8.7076    0.5419  -24.6921 N   0  0  0  0  0  0  0  0  0  0  0  0
   -8.2505   -0.8123  -24.4223 C   0  0  0  0  0  0  0  0  0  0  0  0
   -8.8813   -1.3621  -23.1117 C   0  0  2  0  0  0  0  0  0  0  0  0
   -8.3063   -0.5533  -21.9258 C   0  0  0  0  0  0  0  0  0  0  0  0
   -8.5492    0.6033  -21.6665 O   0  0  0  0  0  0  0  0  0  0  0  0
   -7.4405   -1.3475  -21.2025 N   0  0  0  0  0  0  0  0  0  0  0  0
   -6.6066   -0.8000  -20.1792 C   0  0  0  0  0  0  0  0  0  0  0  0
   -6.8869   -1.0476  -18.8605 C   0  0  0  0  0  0  0  0  0  0  0  0
   -6.1833   -0.5485  -17.8133 N   0  0  0  0  0  0  0  0  0  0  0  0
   -5.1551    0.2212  -18.0682 C   0  0  0  0  0  0  0  0  0  0  0  0
   -4.7208    0.5331  -19.3879 C   0  0  0  0  0  0  0  0  0  0  0  0
   -3.5932    1.3651  -19.6318 C   0  0  0  0  0  0  0  0  0  0  0  0
   -3.2078    1.6458  -20.9140 C   0  0  0  0  0  0  0  0  0  0  0  0
   -3.9249    1.1091  -22.0052 C   0  0  0  0  0  0  0  0  0  0  0  0
   -5.0134    0.3018  -21.7938 C   0  0  0  0  0  0  0  0  0  0  0  0
   -5.4534    0.0024  -20.4759 C   0  0  0  0  0  0  0  0  0  0  0  0
   -5.5588   -0.1132  -22.6360 H   0  0  0  0  0  0  0  0  0  0  0  0
   -3.6101    1.3324  -23.0200 H   0  0  0  0  0  0  0  0  0  0  0  0
   -2.3511    2.2849  -21.1068 H   0  0  0  0  0  0  0  0  0  0  0  0
   -3.0525    1.7815  -18.7851 H   0  0  0  0  0  0  0  0  0  0  0  0
   -4.6007    0.6275  -17.2172 H   0  0  0  0  0  0  0  0  0  0  0  0
   -7.7414   -1.6674  -18.5940 H   0  0  0  0  0  0  0  0  0  0  0  0
   -7.2322   -2.6550  -21.7950 C   0  0  0  0  0  0  0  0  0  0  0  0
   -8.4006   -2.8138  -22.7899 C   0  0  2  0  0  0  0  0  0  0  0  0
   -8.0326   -3.6976  -23.9835 C   0  0  0  0  0  0  0  0  0  0  0  0
   -7.1577   -3.3174  -24.5226 H   0  0  0  0  0  0  0  0  0  0  0  0
   -8.8582   -3.7715  -24.6984 H   0  0  0  0  0  0  0  0  0  0  0  0
   -7.7927   -4.7127  -23.6504 H   0  0  0  0  0  0  0  0  0  0  0  0
   -9.2112   -3.3235  -22.2620 H   0  0  0  0  0  0  0  0  0  0  0  0
   -6.2609   -2.7246  -22.3086 H   0  0  0  0  0  0  0  0  0  0  0  0
   -7.2442   -3.4321  -21.0286 H   0  0  0  0  0  0  0  0  0  0  0  0
  -10.3940   -1.1395  -23.1704 C   0  0  0  0  0  0  0  0  0  0  0  0
  -11.2539   -1.7964  -22.2757 C   0  0  0  0  0  0  0  0  0  0  0  0
  -12.6193   -1.5777  -22.3384 C   0  0  0  0  0  0  0  0  0  0  0  0
  -13.4273   -2.2416  -21.4934 F   0  0  0  0  0  0  0  0  0  0  0  0
  -13.1929   -0.6878  -23.2377 C   0  0  0  0  0  0  0  0  0  0  0  0
  -12.3397    0.0295  -24.0550 C   0  0  0  0  0  0  0  0  0  0  0  0
  -10.9498   -0.1592  -24.0119 C   0  0  0  0  0  0  0  0  0  0  0  0
  -10.0585    0.7846  -24.7938 C   0  0  0  0  0  0  0  0  0  0  0  0
  -10.5151    1.7195  -25.4362 O   0  0  0  0  0  0  0  0  0  0  0  0
  -12.7648    0.7734  -24.7167 H   0  0  0  0  0  0  0  0  0  0  0  0
  -14.2732   -0.5478  -23.2530 H   0  0  0  0  0  0  0  0  0  0  0  0
  -10.8830   -2.4531  -21.4952 H   0  0  0  0  0  0  0  0  0  0  0  0
   -7.1602   -0.8066  -24.3463 H   0  0  0  0  0  0  0  0  0  0  0  0
   -8.4978   -1.4666  -25.2718 H   0  0  0  0  0  0  0  0  0  0  0  0
   -6.8470    1.4665  -24.4912 H   0  0  0  0  0  0  0  0  0  0  0  0
   -8.1663    2.5439  -24.9065 H   0  0  0  0  0  0  0  0  0  0  0  0
   -7.9609    2.1980  -27.5629 C   0  0  0  0  0  0  0  0  0  0  0  0
   -7.6607    2.0973  -28.8615 N   0  0  0  0  0  0  0  0  0  0  0  0
   -8.7490    2.8956  -27.2905 H   0  0  0  0  0  0  0  0  0  0  0  0
   -5.2859   -0.2263  -28.4622 H   0  0  0  0  0  0  0  0  0  0  0  0
   -6.4938    0.0470  -30.9801 H   0  0  0  0  0  0  0  0  0  0  0  0
   -6.9152    1.7438  -31.2593 H   0  0  0  0  0  0  0  0  0  0  0  0
   -5.2678    1.2847  -30.7985 H   0  0  0  0  0  0  0  0  0  0  0  0
  1  2  1  0
  2  3  2  0
  3  4  1  0
  4  5  2  0
  5  6  1  0
  6  7  1  0
  7  8  1  0
  9  8  1  6
  9 10  1  0
 10 11  2  0
 10 12  1  0
 12 13  1  0
 13 14  2  0
 14 15  1  0
 15 16  2  0
 16 17  1  0
 17 18  2  0
 18 19  1  0
 19 20  2  0
 20 21  1  0
 21 22  2  0
 21 23  1  0
 20 24  1  0
 19 25  1  0
 18 26  1  0
 16 27  1  0
 14 28  1  0
 12 29  1  0
 29 30  1  0
 30 31  1  0
 31 32  1  0
 31 33  1  0
 31 34  1  0
 30 35  1  1
 29 36  1  0
 29 37  1  0
  9 38  1  0
 38 39  2  0
 39 40  1  0
 40 41  1  0
 40 42  2  0
 42 43  1  0
 43 44  2  0
 44 45  1  0
 45 46  2  0
 43 47  1  0
 42 48  1  0
 39 49  1  0
  8 50  1  0
  8 51  1  0
  6 52  1  0
  6 53  1  0
  5 54  1  0
 54 55  2  0
 54 56  1  0
  3 57  1  0
  1 58  1  0
  1 59  1  0
  1 60  1  0
 55  2  1  0
 45  7  1  0
 30  9  1  0
 44 38  1  0
 22 13  1  0
 22 17  1  0
M  END
>  <cnnaffinities>  (3) 
[6.67959, 6.51759]

>  <score>  (3) 
6.67959

>  <index>  (3) 
2

>  <Smiles>  (3) 
C(c1c(nc(C(N2C([C@@]3(C(=O)N(c4c(nc(c5c(c(c(c(c45)[H])[H])[H])[H])[H])[H])C([C@@]3(C([H])([H])[H])[H])([H])[H])c3c(c(F)c(c(c3C2=O)[H])[H])[H])([H])[H])([H])[H])c(n1)[H])[H])([H])([H])[H]

>  <h>  (3) 
<NA>

>  <Training>  (3) 
True

>  <Success>  (3) 
True

>  <enamine_searched>  (3) 
False

>  <enamine_id>  (3) 
nan

$$$$

     RDKit          3D

 66 70  0  0  0  0  0  0  0  0999 V2000
   -7.4506    3.3392  -21.7599 C   0  0  0  0  0  0  0  0  0  0  0  0
   -8.3685    2.8980  -22.7954 N   0  0  0  0  0  0  0  0  0  0  0  0
   -7.8308    2.1984  -23.8222 C   0  0  0  0  0  0  0  0  0  0  0  0
   -6.6193    2.0801  -23.9628 O   0  0  0  0  0  0  0  0  0  0  0  0
   -8.8058    1.5769  -24.8267 C   0  0  0  0  0  0  0  0  0  0  0  0
   -9.5072    0.4133  -24.3187 N   0  0  0  0  0  0  0  0  0  0  0  0
   -8.7727   -0.8293  -24.1767 C   0  0  0  0  0  0  0  0  0  0  0  0
   -9.1167   -1.5484  -22.8483 C   0  0  2  0  0  0  0  0  0  0  0  0
   -8.5486   -0.7469  -21.6437 C   0  0  0  0  0  0  0  0  0  0  0  0
   -9.0056    0.2635  -21.1519 O   0  0  0  0  0  0  0  0  0  0  0  0
   -7.4055   -1.3775  -21.2008 N   0  0  0  0  0  0  0  0  0  0  0  0
   -6.6053   -0.8077  -20.1739 C   0  0  0  0  0  0  0  0  0  0  0  0
   -6.9074   -1.0422  -18.8574 C   0  0  0  0  0  0  0  0  0  0  0  0
   -6.1978   -0.5506  -17.8136 N   0  0  0  0  0  0  0  0  0  0  0  0
   -5.1651    0.2084  -18.0811 C   0  0  0  0  0  0  0  0  0  0  0  0
   -4.7293    0.5317  -19.3960 C   0  0  0  0  0  0  0  0  0  0  0  0
   -3.6054    1.3683  -19.6422 C   0  0  0  0  0  0  0  0  0  0  0  0
   -3.2221    1.6632  -20.9208 C   0  0  0  0  0  0  0  0  0  0  0  0
   -3.9473    1.1356  -22.0133 C   0  0  0  0  0  0  0  0  0  0  0  0
   -5.0376    0.3245  -21.8013 C   0  0  0  0  0  0  0  0  0  0  0  0
   -5.4665    0.0034  -20.4863 C   0  0  0  0  0  0  0  0  0  0  0  0
   -5.5931   -0.0608  -22.6521 H   0  0  0  0  0  0  0  0  0  0  0  0
   -3.6556    1.3742  -23.0299 H   0  0  0  0  0  0  0  0  0  0  0  0
   -2.3713    2.3142  -21.1017 H   0  0  0  0  0  0  0  0  0  0  0  0
   -3.0783    1.7781  -18.7837 H   0  0  0  0  0  0  0  0  0  0  0  0
   -4.6180    0.6135  -17.2292 H   0  0  0  0  0  0  0  0  0  0  0  0
   -7.7580   -1.6665  -18.5963 H   0  0  0  0  0  0  0  0  0  0  0  0
   -7.0694   -2.5895  -21.9238 C   0  0  0  0  0  0  0  0  0  0  0  0
   -8.3546   -2.9009  -22.7206 C   0  0  2  0  0  0  0  0  0  0  0  0
   -8.0580   -3.6710  -24.0139 C   0  0  0  0  0  0  0  0  0  0  0  0
   -7.4880   -4.9323  -23.7268 O   0  0  0  0  0  0  0  0  0  0  0  0
   -8.4265   -6.0012  -23.6066 C   0  0  0  0  0  0  0  0  0  0  0  0
   -7.9266   -6.9300  -22.5112 C   0  0  0  0  0  0  0  0  0  0  0  0
   -7.8658   -6.3938  -21.5593 H   0  0  0  0  0  0  0  0  0  0  0  0
   -6.9316   -7.3103  -22.7580 H   0  0  0  0  0  0  0  0  0  0  0  0
   -8.6009   -7.7868  -22.4097 H   0  0  0  0  0  0  0  0  0  0  0  0
   -8.5636   -6.7369  -24.9374 C   0  0  0  0  0  0  0  0  0  0  0  0
   -8.9085   -6.0668  -25.7331 H   0  0  0  0  0  0  0  0  0  0  0  0
   -9.2835   -7.5591  -24.8455 H   0  0  0  0  0  0  0  0  0  0  0  0
   -7.5915   -7.1492  -25.2271 H   0  0  0  0  0  0  0  0  0  0  0  0
   -9.4110   -5.5831  -23.3274 H   0  0  0  0  0  0  0  0  0  0  0  0
   -8.9728   -3.7785  -24.6217 H   0  0  0  0  0  0  0  0  0  0  0  0
   -7.3143   -3.1308  -24.6165 H   0  0  0  0  0  0  0  0  0  0  0  0
   -8.9766   -3.5555  -22.1050 H   0  0  0  0  0  0  0  0  0  0  0  0
   -6.7966   -3.3976  -21.2345 H   0  0  0  0  0  0  0  0  0  0  0  0
   -6.2083   -2.4292  -22.5920 H   0  0  0  0  0  0  0  0  0  0  0  0
  -10.6305   -1.6189  -22.7399 C   0  0  0  0  0  0  0  0  0  0  0  0
  -11.2336   -2.5279  -21.8631 C   0  0  0  0  0  0  0  0  0  0  0  0
  -12.6095   -2.5627  -21.7367 C   0  0  0  0  0  0  0  0  0  0  0  0
  -13.3469   -3.6868  -20.6327 Cl  0  0  0  0  0  0  0  0  0  0  0  0
  -13.4288   -1.6965  -22.4596 C   0  0  0  0  0  0  0  0  0  0  0  0
  -12.8411   -0.7579  -23.2831 C   0  0  0  0  0  0  0  0  0  0  0  0
  -11.4532   -0.6954  -23.4027 C   0  0  0  0  0  0  0  0  0  0  0  0
  -10.8701    0.4418  -24.1872 C   0  0  0  0  0  0  0  0  0  0  0  0
  -11.5669    1.3399  -24.6421 O   0  0  0  0  0  0  0  0  0  0  0  0
  -13.4252   -0.0299  -23.8376 H   0  0  0  0  0  0  0  0  0  0  0  0
  -14.5047   -1.7508  -22.3479 H   0  0  0  0  0  0  0  0  0  0  0  0
  -10.6357   -3.1924  -21.2515 H   0  0  0  0  0  0  0  0  0  0  0  0
   -8.9970   -1.5072  -25.0168 H   0  0  0  0  0  0  0  0  0  0  0  0
   -7.7084   -0.5743  -24.1952 H   0  0  0  0  0  0  0  0  0  0  0  0
   -9.5905    2.2769  -25.1241 H   0  0  0  0  0  0  0  0  0  0  0  0
   -8.1908    1.3142  -25.6969 H   0  0  0  0  0  0  0  0  0  0  0  0
   -9.3593    2.8130  -22.6101 H   0  0  0  0  0  0  0  0  0  0  0  0
   -6.7732    4.1073  -22.1505 H   0  0  0  0  0  0  0  0  0  0  0  0
   -6.8416    2.4851  -21.4246 H   0  0  0  0  0  0  0  0  0  0  0  0
   -8.0184    3.7656  -20.9345 H   0  0  0  0  0  0  0  0  0  0  0  0
  1  2  1  0
  2  3  1  0
  3  4  2  0
  3  5  1  0
  5  6  1  0
  6  7  1  0
  8  7  1  6
  8  9  1  0
  9 10  2  0
  9 11  1  0
 11 12  1  0
 12 13  2  0
 13 14  1  0
 14 15  2  0
 15 16  1  0
 16 17  2  0
 17 18  1  0
 18 19  2  0
 19 20  1  0
 20 21  2  0
 20 22  1  0
 19 23  1  0
 18 24  1  0
 17 25  1  0
 15 26  1  0
 13 27  1  0
 11 28  1  0
 28 29  1  0
 29 30  1  0
 30 31  1  0
 31 32  1  0
 32 33  1  0
 33 34  1  0
 33 35  1  0
 33 36  1  0
 32 37  1  0
 37 38  1  0
 37 39  1  0
 37 40  1  0
 32 41  1  0
 30 42  1  0
 30 43  1  0
 29 44  1  1
 28 45  1  0
 28 46  1  0
  8 47  1  0
 47 48  2  0
 48 49  1  0
 49 50  1  0
 49 51  2  0
 51 52  1  0
 52 53  2  0
 53 54  1  0
 54 55  2  0
 52 56  1  0
 51 57  1  0
 48 58  1  0
  7 59  1  0
  7 60  1  0
  5 61  1  0
  5 62  1  0
  2 63  1  0
  1 64  1  0
  1 65  1  0
  1 66  1  0
 54  6  1  0
 29  8  1  0
 53 47  1  0
 21 12  1  0
 21 16  1  0
M  END
>  <cnnaffinities>  (4) 
[6.36288, 6.38168, 6.49661, 6.64595, 6.57452, 6.38922]

>  <score>  (4) 
6.36288

>  <index>  (4) 
3

>  <Smiles>  (4) 
C(N(C(=O)C(N1C([C@@]2(C(=O)N(c3c(nc(c4c(c(c(c(c34)[H])[H])[H])[H])[H])[H])C([C@@]2(C(OC(C([H])([H])[H])(C([H])([H])[H])[H])([H])[H])[H])([H])[H])c2c(c(Cl)c(c(c2C1=O)[H])[H])[H])([H])[H])([H])[H])[H])([H])([H])[H]

>  <h>  (4) 
<NA>

>  <Training>  (4) 
True

>  <Success>  (4) 
True

>  <enamine_searched>  (4) 
False

>  <enamine_id>  (4) 
nan

$$$$

     RDKit          3D

 59 64  0  0  0  0  0  0  0  0999 V2000
   -8.0724   -3.8374  -23.8630 C   0  0  0  0  0  0  0  0  0  0  0  0
   -8.4141   -2.8542  -22.7345 C   0  0  1  0  0  0  0  0  0  0  0  0
   -7.2605   -2.7007  -21.7202 C   0  0  0  0  0  0  0  0  0  0  0  0
   -7.4333   -1.3587  -21.1969 N   0  0  0  0  0  0  0  0  0  0  0  0
   -6.6121   -0.7989  -20.1819 C   0  0  0  0  0  0  0  0  0  0  0  0
   -6.8953   -1.0506  -18.8653 C   0  0  0  0  0  0  0  0  0  0  0  0
   -6.1871   -0.5588  -17.8208 N   0  0  0  0  0  0  0  0  0  0  0  0
   -5.1621    0.2107  -18.0878 C   0  0  0  0  0  0  0  0  0  0  0  0
   -4.7347    0.5343  -19.4056 C   0  0  0  0  0  0  0  0  0  0  0  0
   -3.6020    1.3601  -19.6448 C   0  0  0  0  0  0  0  0  0  0  0  0
   -3.2031    1.6411  -20.9218 C   0  0  0  0  0  0  0  0  0  0  0  0
   -3.9159    1.1010  -22.0191 C   0  0  0  0  0  0  0  0  0  0  0  0
   -5.0120    0.3006  -21.8130 C   0  0  0  0  0  0  0  0  0  0  0  0
   -5.4693    0.0100  -20.4953 C   0  0  0  0  0  0  0  0  0  0  0  0
   -5.5394   -0.1171  -22.6680 H   0  0  0  0  0  0  0  0  0  0  0  0
   -3.6060    1.3174  -23.0369 H   0  0  0  0  0  0  0  0  0  0  0  0
   -2.3470    2.2864  -21.0964 H   0  0  0  0  0  0  0  0  0  0  0  0
   -3.0778    1.7724  -18.7853 H   0  0  0  0  0  0  0  0  0  0  0  0
   -4.6184    0.6164  -17.2338 H   0  0  0  0  0  0  0  0  0  0  0  0
   -7.7434   -1.6785  -18.5998 H   0  0  0  0  0  0  0  0  0  0  0  0
   -8.2407   -0.5590  -21.9723 C   0  0  0  0  0  0  0  0  0  0  0  0
   -8.4392    0.6184  -21.7509 O   0  0  0  0  0  0  0  0  0  0  0  0
   -8.7920   -1.3955  -23.1524 C   0  0  1  0  0  0  0  0  0  0  0  0
   -8.0668   -0.9689  -24.4550 C   0  0  0  0  0  0  0  0  0  0  0  0
   -8.4360    0.3699  -24.8666 N   0  0  0  0  0  0  0  0  0  0  0  0
   -7.3872    1.3709  -25.0202 C   0  0  0  0  0  0  0  0  0  0  0  0
   -6.2963    0.9677  -25.9725 C   0  0  0  0  0  0  0  0  0  0  0  0
   -5.0462    0.7278  -25.6279 N   0  0  0  0  0  0  0  0  0  0  0  0
   -4.4129    0.3476  -26.7836 C   0  0  0  0  0  0  0  0  0  0  0  0
   -5.2927    0.3651  -27.8324 C   0  0  0  0  0  0  0  0  0  0  0  0
   -6.5009    0.7707  -27.3053 N   0  0  0  0  0  0  0  0  0  0  0  0
   -7.7503    0.9202  -28.0295 C   0  0  0  0  0  0  0  0  0  0  0  0
   -8.4602    0.1337  -27.7543 H   0  0  0  0  0  0  0  0  0  0  0  0
   -8.2047    1.8964  -27.8271 H   0  0  0  0  0  0  0  0  0  0  0  0
   -7.5265    0.8472  -29.0968 H   0  0  0  0  0  0  0  0  0  0  0  0
   -5.1925    0.1281  -28.8803 H   0  0  0  0  0  0  0  0  0  0  0  0
   -3.3654    0.0715  -26.7789 H   0  0  0  0  0  0  0  0  0  0  0  0
   -7.8932    2.2864  -25.3428 H   0  0  0  0  0  0  0  0  0  0  0  0
   -6.9084    1.5537  -24.0475 H   0  0  0  0  0  0  0  0  0  0  0  0
   -9.7522    0.7113  -25.0025 C   0  0  0  0  0  0  0  0  0  0  0  0
  -10.1284    1.6605  -25.6821 O   0  0  0  0  0  0  0  0  0  0  0  0
  -10.7232   -0.1385  -24.2319 C   0  0  0  0  0  0  0  0  0  0  0  0
  -12.0822    0.1542  -24.3507 C   0  0  0  0  0  0  0  0  0  0  0  0
  -13.0217   -0.5276  -23.6051 C   0  0  0  0  0  0  0  0  0  0  0  0
  -12.5636   -1.4331  -22.6553 C   0  0  0  0  0  0  0  0  0  0  0  0
  -13.4608   -2.0275  -21.8513 F   0  0  0  0  0  0  0  0  0  0  0  0
  -11.2237   -1.7183  -22.4879 C   0  0  0  0  0  0  0  0  0  0  0  0
  -10.2774   -1.1181  -23.3296 C   0  0  0  0  0  0  0  0  0  0  0  0
  -10.9459   -2.3796  -21.6735 H   0  0  0  0  0  0  0  0  0  0  0  0
  -14.0849   -0.3408  -23.7039 H   0  0  0  0  0  0  0  0  0  0  0  0
  -12.3661    0.9733  -25.0012 H   0  0  0  0  0  0  0  0  0  0  0  0
   -6.9850   -0.9766  -24.3013 H   0  0  0  0  0  0  0  0  0  0  0  0
   -8.3166   -1.6793  -25.2575 H   0  0  0  0  0  0  0  0  0  0  0  0
   -7.3055   -3.4332  -20.9084 H   0  0  0  0  0  0  0  0  0  0  0  0
   -6.2824   -2.8239  -22.2139 H   0  0  0  0  0  0  0  0  0  0  0  0
   -9.2780   -3.2481  -22.1934 H   0  0  0  0  0  0  0  0  0  0  0  0
   -7.9019   -4.8461  -23.4668 H   0  0  0  0  0  0  0  0  0  0  0  0
   -8.8746   -3.9033  -24.6075 H   0  0  0  0  0  0  0  0  0  0  0  0
   -7.1576   -3.5360  -24.3898 H   0  0  0  0  0  0  0  0  0  0  0  0
  1  2  1  0
  2  3  1  0
  3  4  1  0
  4  5  1  0
  5  6  2  0
  6  7  1  0
  7  8  2  0
  8  9  1  0
  9 10  2  0
 10 11  1  0
 11 12  2  0
 12 13  1  0
 13 14  2  0
 13 15  1  0
 12 16  1  0
 11 17  1  0
 10 18  1  0
  8 19  1  0
  6 20  1  0
  4 21  1  0
 21 22  2  0
 21 23  1  0
 23 24  1  6
 24 25  1  0
 25 26  1  0
 26 27  1  0
 27 28  2  0
 28 29  1  0
 29 30  2  0
 30 31  1  0
 31 32  1  0
 32 33  1  0
 32 34  1  0
 32 35  1  0
 30 36  1  0
 29 37  1  0
 26 38  1  0
 26 39  1  0
 25 40  1  0
 40 41  2  0
 40 42  1  0
 42 43  2  0
 43 44  1  0
 44 45  2  0
 45 46  1  0
 45 47  1  0
 47 48  2  0
 47 49  1  0
 44 50  1  0
 43 51  1  0
 24 52  1  0
 24 53  1  0
  3 54  1  0
  3 55  1  0
  2 56  1  1
  1 57  1  0
  1 58  1  0
  1 59  1  0
 23  2  1  0
 31 27  1  0
 48 42  1  0
 14  5  1  0
 48 23  1  0
 14  9  1  0
M  END
>  <cnnaffinities>  (5) 
[6.54377, 6.04242, 5.92118, 6.47894, 6.47254]

>  <score>  (5) 
6.54377

>  <index>  (5) 
4

>  <Smiles>  (5) 
C([C@]1(C(N(c2c(nc(c3c(c(c(c(c23)[H])[H])[H])[H])[H])[H])C(=O)[C@]21C(N(C(c1nc(c(n1C([H])([H])[H])[H])[H])([H])[H])C(=O)c1c(c(c(F)c(c21)[H])[H])[H])([H])[H])([H])[H])[H])([H])([H])[H]

>  <h>  (5) 
<NA>

>  <Training>  (5) 
True

>  <Success>  (5) 
True

>  <enamine_searched>  (5) 
False

>  <enamine_id>  (5) 
nan

$$$$

     RDKit          3D

 58 61  0  0  0  0  0  0  0  0999 V2000
   -8.0324   -4.6417  -21.9712 C   0  0  0  0  0  0  0  0  0  0  0  0
   -7.0072   -3.8628  -21.6389 C   0  0  0  0  0  0  0  0  0  0  0  0
   -6.7290   -2.4505  -22.0430 C   0  0  0  0  0  0  0  0  0  0  0  0
   -7.3763   -1.3980  -21.2469 N   0  0  0  0  0  0  0  0  0  0  0  0
   -8.6107   -0.7956  -21.4886 C   0  0  0  0  0  0  0  0  0  0  0  0
   -9.0719    0.0038  -20.7050 O   0  0  0  0  0  0  0  0  0  0  0  0
   -9.3206   -1.1098  -22.8055 C   0  0  2  0  0  0  0  0  0  0  0  0
   -8.7152   -0.2374  -23.9168 C   0  0  0  0  0  0  0  0  0  0  0  0
   -9.0515    1.1548  -23.6650 N   0  0  0  0  0  0  0  0  0  0  0  0
   -8.0104    2.1625  -23.7140 C   0  0  0  0  0  0  0  0  0  0  0  0
   -7.5020    2.3278  -25.1439 C   0  0  0  0  0  0  0  0  0  0  0  0
   -6.4563    1.8308  -25.5364 O   0  0  0  0  0  0  0  0  0  0  0  0
   -8.3387    3.0180  -25.9571 N   0  0  0  0  0  0  0  0  0  0  0  0
   -7.9756    3.2114  -27.3463 C   0  0  0  0  0  0  0  0  0  0  0  0
   -7.0242    3.7485  -27.4159 H   0  0  0  0  0  0  0  0  0  0  0  0
   -7.8482    2.2516  -27.8597 H   0  0  0  0  0  0  0  0  0  0  0  0
   -8.7558    3.7905  -27.8449 H   0  0  0  0  0  0  0  0  0  0  0  0
   -9.2516    3.2906  -25.6182 H   0  0  0  0  0  0  0  0  0  0  0  0
   -7.1739    1.8729  -23.0669 H   0  0  0  0  0  0  0  0  0  0  0  0
   -8.4516    3.0923  -23.3408 H   0  0  0  0  0  0  0  0  0  0  0  0
  -10.3496    1.5483  -23.5096 C   0  0  0  0  0  0  0  0  0  0  0  0
  -10.7148    2.6978  -23.7463 O   0  0  0  0  0  0  0  0  0  0  0  0
  -11.2761    0.4787  -23.0227 C   0  0  0  0  0  0  0  0  0  0  0  0
  -12.6325    0.7762  -22.8958 C   0  0  0  0  0  0  0  0  0  0  0  0
  -13.5241   -0.2008  -22.4911 C   0  0  0  0  0  0  0  0  0  0  0  0
  -13.0419   -1.4683  -22.1662 C   0  0  0  0  0  0  0  0  0  0  0  0
  -14.1619   -2.6910  -21.6349 Cl  0  0  0  0  0  0  0  0  0  0  0  0
  -11.6878   -1.7612  -22.2512 C   0  0  0  0  0  0  0  0  0  0  0  0
  -10.7923   -0.7902  -22.7007 C   0  0  0  0  0  0  0  0  0  0  0  0
  -11.3265   -2.7451  -21.9607 H   0  0  0  0  0  0  0  0  0  0  0  0
  -14.5853    0.0123  -22.4099 H   0  0  0  0  0  0  0  0  0  0  0  0
  -12.9658    1.7837  -23.1225 H   0  0  0  0  0  0  0  0  0  0  0  0
   -9.1051   -0.5618  -24.8894 H   0  0  0  0  0  0  0  0  0  0  0  0
   -7.6258   -0.3103  -23.9651 H   0  0  0  0  0  0  0  0  0  0  0  0
   -9.1954   -2.1737  -23.0161 H   0  0  0  0  0  0  0  0  0  0  0  0
   -6.6107   -0.8148  -20.1983 C   0  0  0  0  0  0  0  0  0  0  0  0
   -6.9416   -1.0434  -18.8910 C   0  0  0  0  0  0  0  0  0  0  0  0
   -6.2400   -0.5644  -17.8384 N   0  0  0  0  0  0  0  0  0  0  0  0
   -5.1879    0.1797  -18.0852 C   0  0  0  0  0  0  0  0  0  0  0  0
   -4.7377    0.5046  -19.3980 C   0  0  0  0  0  0  0  0  0  0  0  0
   -3.6073    1.3347  -19.6369 C   0  0  0  0  0  0  0  0  0  0  0  0
   -3.2160    1.6373  -20.9125 C   0  0  0  0  0  0  0  0  0  0  0  0
   -3.9419    1.1309  -22.0129 C   0  0  0  0  0  0  0  0  0  0  0  0
   -5.0458    0.3396  -21.8092 C   0  0  0  0  0  0  0  0  0  0  0  0
   -5.4664   -0.0062  -20.4938 C   0  0  0  0  0  0  0  0  0  0  0  0
   -5.5988   -0.0260  -22.6700 H   0  0  0  0  0  0  0  0  0  0  0  0
   -3.6319    1.3633  -23.0268 H   0  0  0  0  0  0  0  0  0  0  0  0
   -2.3638    2.2892  -21.0868 H   0  0  0  0  0  0  0  0  0  0  0  0
   -3.0878    1.7475  -18.7777 H   0  0  0  0  0  0  0  0  0  0  0  0
   -4.6429    0.5656  -17.2215 H   0  0  0  0  0  0  0  0  0  0  0  0
   -7.8251   -1.6336  -18.6526 H   0  0  0  0  0  0  0  0  0  0  0  0
   -6.8845   -2.2669  -23.1165 H   0  0  0  0  0  0  0  0  0  0  0  0
   -5.6669   -2.4427  -21.7519 H   0  0  0  0  0  0  0  0  0  0  0  0
   -5.7666   -4.3331  -20.8261 C   0  0  0  0  0  0  0  0  0  0  0  0
   -4.9048   -3.4320  -20.6848 O   0  0  0  0  0  0  0  0  0  0  0  0
   -5.6596   -5.4801  -20.3711 O   0  0  0  0  0  1  0  0  0  0  0  0
   -8.8043   -4.2927  -22.6618 H   0  0  0  0  0  0  0  0  0  0  0  0
   -8.1631   -5.6487  -21.5906 H   0  0  0  0  0  0  0  0  0  0  0  0
  1  2  2  0
  2  3  1  0
  3  4  1  0
  4  5  1  0
  5  6  2  0
  5  7  1  0
  7  8  1  0
  8  9  1  0
  9 10  1  0
 10 11  1  0
 11 12  2  0
 11 13  1  0
 13 14  1  0
 14 15  1  0
 14 16  1  0
 14 17  1  0
 13 18  1  0
 10 19  1  0
 10 20  1  0
  9 21  1  0
 21 22  2  0
 21 23  1  0
 23 24  2  0
 24 25  1  0
 25 26  2  0
 26 27  1  0
 26 28  1  0
 28 29  2  0
 28 30  1  0
 25 31  1  0
 24 32  1  0
  8 33  1  0
  8 34  1  0
  7 35  1  6
  4 36  1  0
 36 37  2  0
 37 38  1  0
 38 39  2  0
 39 40  1  0
 40 41  2  0
 41 42  1  0
 42 43  2  0
 43 44  1  0
 44 45  2  0
 44 46  1  0
 43 47  1  0
 42 48  1  0
 41 49  1  0
 39 50  1  0
 37 51  1  0
  3 52  1  0
  3 53  1  0
  2 54  1  0
 54 55  2  0
 54 56  1  0
  1 57  1  0
  1 58  1  0
 29  7  1  0
 45 36  1  0
 29 23  1  0
 45 40  1  0
M  CHG  1  56  -1
M  END
>  <cnnaffinities>  (6) 
[6.16294, 6.28847]

>  <score>  (6) 
6.16294

>  <index>  (6) 
5

>  <Smiles>  (6) 
C(=C(C(N(C(=O)[C@@]1(C(N(C(C(=O)N(C([H])([H])[H])[H])([H])[H])C(=O)c2c(c(c(Cl)c(c12)[H])[H])[H])([H])[H])[H])c1c(nc(c2c(c(c(c(c12)[H])[H])[H])[H])[H])[H])([H])[H])C(=O)[O-])([H])[H]

>  <h>  (6) 
<NA>

>  <Training>  (6) 
True

>  <Success>  (6) 
True

>  <enamine_searched>  (6) 
False

>  <enamine_id>  (6) 
nan

$$$$

     RDKit          3D

 43 45  0  0  0  0  0  0  0  0999 V2000
   -9.7240   -6.0269  -26.7138 C   0  0  0  0  0  0  0  0  0  0  0  0
   -9.4390   -6.4508  -25.2776 C   0  0  0  0  0  0  0  0  0  0  0  0
   -8.5442   -5.4659  -24.5158 C   0  0  0  0  0  0  0  0  0  0  0  0
   -8.0818   -6.0235  -23.1806 C   0  0  0  0  0  0  0  0  0  0  0  0
   -7.1015   -5.0854  -22.4891 C   0  0  0  0  0  0  0  0  0  0  0  0
   -7.5912   -3.7040  -22.4412 N   0  0  0  0  0  0  0  0  0  0  0  0
   -6.7895   -2.7845  -21.8061 C   0  0  0  0  0  0  0  0  0  0  0  0
   -5.5997   -3.0067  -21.6427 O   0  0  0  0  0  0  0  0  0  0  0  0
   -7.4230   -1.4812  -21.2592 C   0  0  0  0  0  0  0  0  0  0  0  0
   -6.5808   -0.8289  -20.1830 C   0  0  0  0  0  0  0  0  0  0  0  0
   -6.8723   -1.0433  -18.8626 C   0  0  0  0  0  0  0  0  0  0  0  0
   -6.1822   -0.5415  -17.8047 N   0  0  0  0  0  0  0  0  0  0  0  0
   -5.1559    0.2246  -18.0682 C   0  0  0  0  0  0  0  0  0  0  0  0
   -4.7193    0.5325  -19.3825 C   0  0  0  0  0  0  0  0  0  0  0  0
   -3.5906    1.3582  -19.6222 C   0  0  0  0  0  0  0  0  0  0  0  0
   -3.1888    1.6351  -20.8982 C   0  0  0  0  0  0  0  0  0  0  0  0
   -3.9036    1.0934  -21.9909 C   0  0  0  0  0  0  0  0  0  0  0  0
   -4.9977    0.2900  -21.7850 C   0  0  0  0  0  0  0  0  0  0  0  0
   -5.4449   -0.0122  -20.4752 C   0  0  0  0  0  0  0  0  0  0  0  0
   -5.5176   -0.1375  -22.6368 H   0  0  0  0  0  0  0  0  0  0  0  0
   -3.5744    1.3079  -23.0030 H   0  0  0  0  0  0  0  0  0  0  0  0
   -2.3272    2.2718  -21.0848 H   0  0  0  0  0  0  0  0  0  0  0  0
   -3.0578    1.7755  -18.7685 H   0  0  0  0  0  0  0  0  0  0  0  0
   -4.6020    0.6287  -17.2162 H   0  0  0  0  0  0  0  0  0  0  0  0
   -7.7185   -1.6685  -18.5829 H   0  0  0  0  0  0  0  0  0  0  0  0
   -8.4183   -1.7016  -20.8444 H   0  0  0  0  0  0  0  0  0  0  0  0
   -7.5832   -0.7769  -22.0867 H   0  0  0  0  0  0  0  0  0  0  0  0
   -8.9353   -3.4528  -22.9402 C   0  0  0  0  0  0  0  0  0  0  0  0
   -9.2014   -4.0912  -24.3118 C   0  0  0  0  0  0  0  0  0  0  0  0
   -8.8720   -3.4126  -25.1029 H   0  0  0  0  0  0  0  0  0  0  0  0
  -10.2870   -4.1695  -24.4303 H   0  0  0  0  0  0  0  0  0  0  0  0
   -9.0820   -2.3762  -23.0242 H   0  0  0  0  0  0  0  0  0  0  0  0
   -9.6837   -3.8150  -22.2231 H   0  0  0  0  0  0  0  0  0  0  0  0
   -6.9033   -5.4471  -21.4737 H   0  0  0  0  0  0  0  0  0  0  0  0
   -6.1388   -5.1103  -23.0086 H   0  0  0  0  0  0  0  0  0  0  0  0
   -7.6050   -6.9985  -23.3295 H   0  0  0  0  0  0  0  0  0  0  0  0
   -8.9473   -6.2212  -22.5464 H   0  0  0  0  0  0  0  0  0  0  0  0
   -7.6408   -5.3194  -25.1195 H   0  0  0  0  0  0  0  0  0  0  0  0
   -8.9668   -7.4410  -25.2871 H   0  0  0  0  0  0  0  0  0  0  0  0
  -10.3831   -6.5795  -24.7359 H   0  0  0  0  0  0  0  0  0  0  0  0
  -10.2610   -5.0746  -26.7570 H   0  0  0  0  0  0  0  0  0  0  0  0
   -8.7909   -5.8995  -27.2725 H   0  0  0  0  0  0  0  0  0  0  0  0
  -10.3272   -6.7721  -27.2424 H   0  0  0  0  0  0  0  0  0  0  0  0
  1  2  1  0
  2  3  1  0
  3  4  1  0
  4  5  1  0
  5  6  1  0
  6  7  1  0
  7  8  2  0
  7  9  1  0
  9 10  1  0
 10 11  2  0
 11 12  1  0
 12 13  2  0
 13 14  1  0
 14 15  2  0
 15 16  1  0
 16 17  2  0
 17 18  1  0
 18 19  2  0
 18 20  1  0
 17 21  1  0
 16 22  1  0
 15 23  1  0
 13 24  1  0
 11 25  1  0
  9 26  1  0
  9 27  1  0
  6 28  1  0
 28 29  1  0
 29 30  1  0
 29 31  1  0
 28 32  1  0
 28 33  1  0
  5 34  1  0
  5 35  1  0
  4 36  1  0
  4 37  1  0
  3 38  1  0
  2 39  1  0
  2 40  1  0
  1 41  1  0
  1 42  1  0
  1 43  1  0
 29  3  1  0
 19 10  1  0
 19 14  1  0
M  END
>  <cnnaffinities>  (7) 
[5.22393, 5.22415, 4.6289, 4.63062, 5.16575, 5.00529, 4.76952, 4.70621, 4.70621, 4.62832, 4.62835, 4.9461, 4.69183, 4.61838]

>  <score>  (7) 
5.22393

>  <index>  (7) 
6

>  <Smiles>  (7) 
C(C(C1(C(C(N(C(=O)C(c2c(nc(c3c(c(c(c(c23)[H])[H])[H])[H])[H])[H])([H])[H])C(C1([H])[H])([H])[H])([H])[H])([H])[H])[H])([H])[H])([H])([H])[H]

>  <h>  (7) 
<NA>

>  <Training>  (7) 
True

>  <Success>  (7) 
True

>  <enamine_searched>  (7) 
False

>  <enamine_id>  (7) 
nan

$$$$

     RDKit          3D

 44 47  0  0  0  0  0  0  0  0999 V2000
   -9.5411   -6.2969  -25.7903 C   0  0  0  0  0  0  0  0  0  0  0  0
  -10.9154   -6.1551  -25.1613 C   0  0  0  0  0  0  0  0  0  0  0  0
  -11.1552   -4.6155  -24.2610 S   0  0  0  0  0  0  0  0  0  0  0  0
  -12.4123   -4.6828  -23.5295 O   0  0  0  0  0  0  0  0  0  0  0  0
  -10.9296   -3.5309  -25.2076 O   0  0  0  0  0  0  0  0  0  0  0  0
   -9.8833   -4.5861  -23.1345 N   0  0  0  0  0  0  0  0  0  0  0  0
  -10.0238   -3.7097  -21.9197 C   0  0  0  0  0  0  0  0  0  0  0  0
   -8.8418   -2.8256  -22.4050 C   0  0  0  0  0  0  0  0  0  0  0  0
   -8.6642   -3.8441  -23.5491 C   0  0  0  0  0  0  0  0  0  0  0  0
   -8.6700   -3.4362  -24.5607 H   0  0  0  0  0  0  0  0  0  0  0  0
   -7.7875   -4.4638  -23.3616 H   0  0  0  0  0  0  0  0  0  0  0  0
   -7.6265   -2.7107  -21.4895 C   0  0  0  0  0  0  0  0  0  0  0  0
   -6.9032   -3.5926  -21.0936 O   0  0  0  0  0  0  0  0  0  0  0  0
   -7.4390   -1.3493  -21.2656 N   0  0  0  0  0  0  0  0  0  0  0  0
   -6.6291   -0.8093  -20.2341 C   0  0  0  0  0  0  0  0  0  0  0  0
   -6.9551   -1.0650  -18.9312 C   0  0  0  0  0  0  0  0  0  0  0  0
   -6.2695   -0.5699  -17.8761 N   0  0  0  0  0  0  0  0  0  0  0  0
   -5.2384    0.2024  -18.1206 C   0  0  0  0  0  0  0  0  0  0  0  0
   -4.7842    0.5260  -19.4311 C   0  0  0  0  0  0  0  0  0  0  0  0
   -3.6518    1.3552  -19.6488 C   0  0  0  0  0  0  0  0  0  0  0  0
   -3.2234    1.6171  -20.9225 C   0  0  0  0  0  0  0  0  0  0  0  0
   -3.9234    1.0851  -22.0304 C   0  0  0  0  0  0  0  0  0  0  0  0
   -5.0360    0.3005  -21.8470 C   0  0  0  0  0  0  0  0  0  0  0  0
   -5.4962    0.0061  -20.5337 C   0  0  0  0  0  0  0  0  0  0  0  0
   -5.5711   -0.0996  -22.7025 H   0  0  0  0  0  0  0  0  0  0  0  0
   -3.5704    1.2902  -23.0380 H   0  0  0  0  0  0  0  0  0  0  0  0
   -2.3440    2.2356  -21.0903 H   0  0  0  0  0  0  0  0  0  0  0  0
   -3.1464    1.7696  -18.7796 H   0  0  0  0  0  0  0  0  0  0  0  0
   -4.6957    0.6064  -17.2612 H   0  0  0  0  0  0  0  0  0  0  0  0
   -7.8123   -1.6946  -18.6929 H   0  0  0  0  0  0  0  0  0  0  0  0
   -8.3849   -0.5744  -21.9529 C   0  0  0  0  0  0  0  0  0  0  0  0
   -8.5056    0.6281  -21.8917 O   0  0  0  0  0  0  0  0  0  0  0  0
   -9.1369   -1.4404  -22.6987 N   0  0  0  0  0  0  0  0  0  0  0  0
  -10.1724   -0.9535  -23.6032 C   0  0  0  0  0  0  0  0  0  0  0  0
  -10.7291   -0.1479  -23.1147 H   0  0  0  0  0  0  0  0  0  0  0  0
   -9.7279   -0.5558  -24.5238 H   0  0  0  0  0  0  0  0  0  0  0  0
  -10.8579   -1.7632  -23.8669 H   0  0  0  0  0  0  0  0  0  0  0  0
  -10.9907   -3.2095  -21.8266 H   0  0  0  0  0  0  0  0  0  0  0  0
   -9.7976   -4.2756  -21.0150 H   0  0  0  0  0  0  0  0  0  0  0  0
  -11.6928   -6.1376  -25.9301 H   0  0  0  0  0  0  0  0  0  0  0  0
  -11.1547   -6.9697  -24.4767 H   0  0  0  0  0  0  0  0  0  0  0  0
   -8.7450   -6.2873  -25.0381 H   0  0  0  0  0  0  0  0  0  0  0  0
   -9.3592   -5.5017  -26.5170 H   0  0  0  0  0  0  0  0  0  0  0  0
   -9.5144   -7.2505  -26.3222 H   0  0  0  0  0  0  0  0  0  0  0  0
  1  2  1  0
  2  3  1  0
  3  4  2  0
  3  5  2  0
  3  6  1  0
  6  7  1  0
  7  8  1  0
  8  9  1  0
  9 10  1  0
  9 11  1  0
  8 12  1  0
 12 13  2  0
 12 14  1  0
 14 15  1  0
 15 16  2  0
 16 17  1  0
 17 18  2  0
 18 19  1  0
 19 20  2  0
 20 21  1  0
 21 22  2  0
 22 23  1  0
 23 24  2  0
 23 25  1  0
 22 26  1  0
 21 27  1  0
 20 28  1  0
 18 29  1  0
 16 30  1  0
 14 31  1  0
 31 32  2  0
 31 33  1  0
 33 34  1  0
 34 35  1  0
 34 36  1  0
 34 37  1  0
  7 38  1  0
  7 39  1  0
  2 40  1  0
  2 41  1  0
  1 42  1  0
  1 43  1  0
  1 44  1  0
  9  6  1  0
 24 15  1  0
 33  8  1  0
 24 19  1  0
M  END
>  <cnnaffinities>  (8) 
[5.57214, 5.28165]

>  <score>  (8) 
5.57214

>  <index>  (8) 
7

>  <Smiles>  (8) 
C(C(S(=O)(=O)N1C(C2(C1([H])[H])C(=O)N(c1c(nc(c3c(c(c(c(c13)[H])[H])[H])[H])[H])[H])C(=O)N2C([H])([H])[H])([H])[H])([H])[H])([H])([H])[H]

>  <h>  (8) 
<NA>

>  <Training>  (8) 
True

>  <Success>  (8) 
True

>  <enamine_searched>  (8) 
False

>  <enamine_id>  (8) 
nan

$$$$

     RDKit          3D

 60 64  0  0  0  0  0  0  0  0999 V2000
  -14.8897   -2.2039  -23.9405 C   0  0  0  0  0  0  0  0  0  0  0  0
  -13.9921   -3.1531  -23.3325 N   0  0  0  0  0  0  0  0  0  0  0  0
  -13.2264   -2.7832  -22.2700 C   0  0  0  0  0  0  0  0  0  0  0  0
  -13.2107   -1.6438  -21.8168 O   0  0  0  0  0  0  0  0  0  0  0  0
  -12.3969   -3.9262  -21.7115 C   0  0  0  0  0  0  0  0  0  0  0  0
  -11.0572   -3.9468  -22.2721 N   0  0  0  0  0  0  0  0  0  0  0  0
   -9.9386   -3.3791  -21.5285 C   0  0  0  0  0  0  0  0  0  0  0  0
   -8.7540   -2.9007  -22.4064 C   0  0  2  0  0  0  0  0  0  0  0  0
   -7.5467   -2.6808  -21.4756 C   0  0  0  0  0  0  0  0  0  0  0  0
   -6.8126   -3.5291  -21.0013 O   0  0  0  0  0  0  0  0  0  0  0  0
   -7.4009   -1.3299  -21.2448 N   0  0  0  0  0  0  0  0  0  0  0  0
   -6.5833   -0.8430  -20.1995 C   0  0  0  0  0  0  0  0  0  0  0  0
   -6.8879   -1.1172  -18.8903 C   0  0  0  0  0  0  0  0  0  0  0  0
   -6.2168   -0.5897  -17.8377 N   0  0  0  0  0  0  0  0  0  0  0  0
   -5.2089    0.2075  -18.0900 C   0  0  0  0  0  0  0  0  0  0  0  0
   -4.7622    0.5380  -19.4024 C   0  0  0  0  0  0  0  0  0  0  0  0
   -3.6380    1.3707  -19.6382 C   0  0  0  0  0  0  0  0  0  0  0  0
   -3.2335    1.6376  -20.9167 C   0  0  0  0  0  0  0  0  0  0  0  0
   -3.9310    1.0903  -22.0181 C   0  0  0  0  0  0  0  0  0  0  0  0
   -5.0236    0.2819  -21.8176 C   0  0  0  0  0  0  0  0  0  0  0  0
   -5.4647   -0.0055  -20.4989 C   0  0  0  0  0  0  0  0  0  0  0  0
   -5.5491   -0.1597  -22.6595 H   0  0  0  0  0  0  0  0  0  0  0  0
   -3.5944    1.2979  -23.0294 H   0  0  0  0  0  0  0  0  0  0  0  0
   -2.3686    2.2699  -21.0972 H   0  0  0  0  0  0  0  0  0  0  0  0
   -3.1160    1.7841  -18.7794 H   0  0  0  0  0  0  0  0  0  0  0  0
   -4.6799    0.6320  -17.2354 H   0  0  0  0  0  0  0  0  0  0  0  0
   -7.7163   -1.7781  -18.6400 H   0  0  0  0  0  0  0  0  0  0  0  0
   -8.4020   -0.5069  -21.8990 C   0  0  0  0  0  0  0  0  0  0  0  0
   -8.9751   -1.4533  -22.9653 C   0  0  2  0  0  0  0  0  0  0  0  0
  -10.4152   -1.1397  -23.3293 C   0  0  0  0  0  0  0  0  0  0  0  0
  -10.5241    0.1135  -23.9608 O   0  0  0  0  0  0  0  0  0  0  0  0
  -11.8850    0.3422  -24.2473 C   0  0  0  0  0  0  0  0  0  0  0  0
  -12.4919    0.3674  -23.3288 H   0  0  0  0  0  0  0  0  0  0  0  0
  -12.2760   -0.4657  -24.8864 H   0  0  0  0  0  0  0  0  0  0  0  0
  -11.9754    1.2888  -24.7821 H   0  0  0  0  0  0  0  0  0  0  0  0
  -10.7878   -1.9252  -24.0046 H   0  0  0  0  0  0  0  0  0  0  0  0
  -11.0539   -1.1371  -22.4316 H   0  0  0  0  0  0  0  0  0  0  0  0
   -8.3599   -1.3630  -23.8675 H   0  0  0  0  0  0  0  0  0  0  0  0
   -9.1648   -0.1695  -21.1814 H   0  0  0  0  0  0  0  0  0  0  0  0
   -7.9578    0.3969  -22.3271 H   0  0  0  0  0  0  0  0  0  0  0  0
   -8.4811   -3.9462  -23.4671 C   0  0  0  0  0  0  0  0  0  0  0  0
   -7.2081   -4.0937  -24.0345 C   0  0  0  0  0  0  0  0  0  0  0  0
   -6.9963   -5.0529  -25.0094 C   0  0  0  0  0  0  0  0  0  0  0  0
   -5.4129   -5.2268  -25.7095 Cl  0  0  0  0  0  0  0  0  0  0  0  0
   -8.0200   -5.9037  -25.4243 C   0  0  0  0  0  0  0  0  0  0  0  0
   -9.2866   -5.7393  -24.8975 C   0  0  0  0  0  0  0  0  0  0  0  0
   -9.5168   -4.7593  -23.9402 C   0  0  0  0  0  0  0  0  0  0  0  0
  -10.9158   -4.5873  -23.4629 C   0  0  0  0  0  0  0  0  0  0  0  0
  -11.8899   -5.0022  -24.0942 O   0  0  0  0  0  0  0  0  0  0  0  0
  -10.1262   -6.3590  -25.2020 H   0  0  0  0  0  0  0  0  0  0  0  0
   -7.8254   -6.6811  -26.1500 H   0  0  0  0  0  0  0  0  0  0  0  0
   -6.3742   -3.4959  -23.6833 H   0  0  0  0  0  0  0  0  0  0  0  0
   -9.5472   -4.1122  -20.8281 H   0  0  0  0  0  0  0  0  0  0  0  0
  -10.2806   -2.5230  -20.9361 H   0  0  0  0  0  0  0  0  0  0  0  0
  -12.9157   -4.8302  -22.0189 H   0  0  0  0  0  0  0  0  0  0  0  0
  -12.3580   -3.8800  -20.6244 H   0  0  0  0  0  0  0  0  0  0  0  0
  -13.6561   -3.9152  -23.9129 H   0  0  0  0  0  0  0  0  0  0  0  0
  -15.4362   -1.6808  -23.1545 H   0  0  0  0  0  0  0  0  0  0  0  0
  -15.5917   -2.7358  -24.5913 H   0  0  0  0  0  0  0  0  0  0  0  0
  -14.3624   -1.4370  -24.5222 H   0  0  0  0  0  0  0  0  0  0  0  0
  1  2  1  0
  2  3  1  0
  3  4  2  0
  3  5  1  0
  5  6  1  0
  6  7  1  0
  8  7  1  1
  8  9  1  0
  9 10  2  0
  9 11  1  0
 11 12  1  0
 12 13  2  0
 13 14  1  0
 14 15  2  0
 15 16  1  0
 16 17  2  0
 17 18  1  0
 18 19  2  0
 19 20  1  0
 20 21  2  0
 20 22  1  0
 19 23  1  0
 18 24  1  0
 17 25  1  0
 15 26  1  0
 13 27  1  0
 11 28  1  0
 28 29  1  0
 29 30  1  0
 30 31  1  0
 31 32  1  0
 32 33  1  0
 32 34  1  0
 32 35  1  0
 30 36  1  0
 30 37  1  0
 29 38  1  6
 28 39  1  0
 28 40  1  0
  8 41  1  0
 41 42  2  0
 42 43  1  0
 43 44  1  0
 43 45  2  0
 45 46  1  0
 46 47  2  0
 47 48  1  0
 48 49  2  0
 46 50  1  0
 45 51  1  0
 42 52  1  0
  7 53  1  0
  7 54  1  0
  5 55  1  0
  5 56  1  0
  2 57  1  0
  1 58  1  0
  1 59  1  0
  1 60  1  0
 48  6  1  0
 29  8  1  0
 47 41  1  0
 21 12  1  0
 21 16  1  0
M  END
>  <cnnaffinities>  (9) 
[6.57927]

>  <score>  (9) 
6.57927

>  <index>  (9) 
8

>  <Smiles>  (9) 
C(N(C(=O)C(N1C([C@@]2(C(=O)N(c3c(nc(c4c(c(c(c(c34)[H])[H])[H])[H])[H])[H])C([C@@]2(C(OC([H])([H])[H])([H])[H])[H])([H])[H])c2c(c(Cl)c(c(c2C1=O)[H])[H])[H])([H])[H])([H])[H])[H])([H])([H])[H]

>  <h>  (9) 
<NA>

>  <Training>  (9) 
True

>  <Success>  (9) 
True

>  <enamine_searched>  (9) 
False

>  <enamine_id>  (9) 
nan

$$$$

     RDKit          3D

 41 43  0  0  0  0  0  0  0  0999 V2000
  -13.1790   -2.9270  -22.9033 C   0  0  0  0  0  0  0  0  0  0  0  0
  -11.9701   -2.0482  -23.2185 C   0  0  1  0  0  0  0  0  0  0  0  0
  -12.1563   -0.6591  -22.6450 C   0  0  0  0  0  0  0  0  0  0  0  0
  -11.3185    0.3565  -22.8351 C   0  0  0  0  0  0  0  0  0  0  0  0
  -10.0219    0.2185  -23.6036 C   0  0  0  0  0  0  0  0  0  0  0  0
   -9.0915   -0.7824  -23.0594 N   0  0  0  0  0  0  0  0  0  0  0  0
   -8.3786   -0.4053  -21.9313 C   0  0  0  0  0  0  0  0  0  0  0  0
   -8.4792    0.7175  -21.4720 O   0  0  0  0  0  0  0  0  0  0  0  0
   -7.4317   -1.4335  -21.2731 C   0  0  0  0  0  0  0  0  0  0  0  0
   -6.5792   -0.8284  -20.1822 C   0  0  0  0  0  0  0  0  0  0  0  0
   -6.8771   -1.0391  -18.8620 C   0  0  0  0  0  0  0  0  0  0  0  0
   -6.1882   -0.5359  -17.8038 N   0  0  0  0  0  0  0  0  0  0  0  0
   -5.1551    0.2233  -18.0670 C   0  0  0  0  0  0  0  0  0  0  0  0
   -4.7225    0.5363  -19.3825 C   0  0  0  0  0  0  0  0  0  0  0  0
   -3.5968    1.3660  -19.6223 C   0  0  0  0  0  0  0  0  0  0  0  0
   -3.2096    1.6594  -20.9013 C   0  0  0  0  0  0  0  0  0  0  0  0
   -3.9357    1.1335  -21.9924 C   0  0  0  0  0  0  0  0  0  0  0  0
   -5.0267    0.3246  -21.7866 C   0  0  0  0  0  0  0  0  0  0  0  0
   -5.4536    0.0016  -20.4727 C   0  0  0  0  0  0  0  0  0  0  0  0
   -5.5740   -0.0666  -22.6380 H   0  0  0  0  0  0  0  0  0  0  0  0
   -3.6224    1.3691  -23.0052 H   0  0  0  0  0  0  0  0  0  0  0  0
   -2.3528    2.3026  -21.0876 H   0  0  0  0  0  0  0  0  0  0  0  0
   -3.0586    1.7767  -18.7709 H   0  0  0  0  0  0  0  0  0  0  0  0
   -4.6011    0.6281  -17.2167 H   0  0  0  0  0  0  0  0  0  0  0  0
   -7.7285   -1.6593  -18.5840 H   0  0  0  0  0  0  0  0  0  0  0  0
   -6.7956   -1.8990  -22.0377 H   0  0  0  0  0  0  0  0  0  0  0  0
   -8.0411   -2.2444  -20.8451 H   0  0  0  0  0  0  0  0  0  0  0  0
   -9.3947   -2.1695  -23.3975 C   0  0  0  0  0  0  0  0  0  0  0  0
  -10.6667   -2.7290  -22.7527 C   0  0  0  0  0  0  0  0  0  0  0  0
  -10.5869   -2.6365  -21.6641 H   0  0  0  0  0  0  0  0  0  0  0  0
  -10.7247   -3.8068  -22.9659 H   0  0  0  0  0  0  0  0  0  0  0  0
   -8.5305   -2.7933  -23.1563 H   0  0  0  0  0  0  0  0  0  0  0  0
   -9.5105   -2.2206  -24.4857 H   0  0  0  0  0  0  0  0  0  0  0  0
  -10.2465   -0.0756  -24.6359 H   0  0  0  0  0  0  0  0  0  0  0  0
   -9.5082    1.1797  -23.6533 H   0  0  0  0  0  0  0  0  0  0  0  0
  -11.5320    1.3284  -22.3882 H   0  0  0  0  0  0  0  0  0  0  0  0
  -13.0292   -0.4944  -22.0118 H   0  0  0  0  0  0  0  0  0  0  0  0
  -11.9086   -1.9518  -24.3129 H   0  0  0  0  0  0  0  0  0  0  0  0
  -13.0970   -3.9086  -23.3858 H   0  0  0  0  0  0  0  0  0  0  0  0
  -13.2636   -3.0898  -21.8218 H   0  0  0  0  0  0  0  0  0  0  0  0
  -14.1064   -2.4565  -23.2511 H   0  0  0  0  0  0  0  0  0  0  0  0
  1  2  1  0
  2  3  1  0
  3  4  2  0
  4  5  1  0
  5  6  1  0
  6  7  1  0
  7  8  2  0
  7  9  1  0
  9 10  1  0
 10 11  2  0
 11 12  1  0
 12 13  2  0
 13 14  1  0
 14 15  2  0
 15 16  1  0
 16 17  2  0
 17 18  1  0
 18 19  2  0
 18 20  1  0
 17 21  1  0
 16 22  1  0
 15 23  1  0
 13 24  1  0
 11 25  1  0
  9 26  1  0
  9 27  1  0
  6 28  1  0
 28 29  1  0
 29 30  1  0
 29 31  1  0
 28 32  1  0
 28 33  1  0
  5 34  1  0
  5 35  1  0
  4 36  1  0
  3 37  1  0
  2 38  1  6
  1 39  1  0
  1 40  1  0
  1 41  1  0
 29  2  1  0
 19 10  1  0
 19 14  1  0
M  END
>  <cnnaffinities>  (10) 
[4.92031]

>  <score>  (10) 
4.92031

>  <index>  (10) 
9

>  <Smiles>  (10) 
C([C@]1(C(=C(C(N(C(=O)C(c2c(nc(c3c(c(c(c(c23)[H])[H])[H])[H])[H])[H])([H])[H])C(C1([H])[H])([H])[H])([H])[H])[H])[H])[H])([H])([H])[H]

>  <h>  (10) 
<NA>

>  <Training>  (10) 
True

>  <Success>  (10) 
True

>  <enamine_searched>  (10) 
False

>  <enamine_id>  (10) 
nan

$$$$

     RDKit          3D

 57 62  0  0  0  0  0  0  0  0999 V2000
  -10.4515   -1.1669  -23.2739 C   0  0  0  0  0  0  0  0  0  0  0  0
   -9.0060   -1.4988  -22.9360 C   0  0  1  0  0  0  0  0  0  0  0  0
   -8.3888   -0.5369  -21.9087 C   0  0  0  0  0  0  0  0  0  0  0  0
   -7.3964   -1.3547  -21.2330 N   0  0  0  0  0  0  0  0  0  0  0  0
   -6.5810   -0.8482  -20.1913 C   0  0  0  0  0  0  0  0  0  0  0  0
   -6.8876   -1.0954  -18.8774 C   0  0  0  0  0  0  0  0  0  0  0  0
   -6.2118   -0.5682  -17.8260 N   0  0  0  0  0  0  0  0  0  0  0  0
   -5.1945    0.2132  -18.0878 C   0  0  0  0  0  0  0  0  0  0  0  0
   -4.7507    0.5254  -19.4042 C   0  0  0  0  0  0  0  0  0  0  0  0
   -3.6250    1.3540  -19.6393 C   0  0  0  0  0  0  0  0  0  0  0  0
   -3.2212    1.6216  -20.9172 C   0  0  0  0  0  0  0  0  0  0  0  0
   -3.9232    1.0796  -22.0160 C   0  0  0  0  0  0  0  0  0  0  0  0
   -5.0172    0.2740  -21.8164 C   0  0  0  0  0  0  0  0  0  0  0  0
   -5.4610   -0.0154  -20.4986 C   0  0  0  0  0  0  0  0  0  0  0  0
   -5.5379   -0.1563  -22.6661 H   0  0  0  0  0  0  0  0  0  0  0  0
   -3.5907    1.2971  -23.0264 H   0  0  0  0  0  0  0  0  0  0  0  0
   -2.3626    2.2607  -21.0969 H   0  0  0  0  0  0  0  0  0  0  0  0
   -3.1062    1.7717  -18.7811 H   0  0  0  0  0  0  0  0  0  0  0  0
   -4.6534    0.6376  -17.2398 H   0  0  0  0  0  0  0  0  0  0  0  0
   -7.7291   -1.7379  -18.6284 H   0  0  0  0  0  0  0  0  0  0  0  0
   -7.5568   -2.7092  -21.4431 C   0  0  0  0  0  0  0  0  0  0  0  0
   -6.8169   -3.5657  -21.0048 O   0  0  0  0  0  0  0  0  0  0  0  0
   -8.7868   -2.9331  -22.3393 C   0  0  1  0  0  0  0  0  0  0  0  0
   -9.9755   -3.4076  -21.4665 C   0  0  0  0  0  0  0  0  0  0  0  0
  -11.0986   -3.9223  -22.2440 N   0  0  0  0  0  0  0  0  0  0  0  0
  -12.4432   -3.9576  -21.6607 C   0  0  0  0  0  0  0  0  0  0  0  0
  -13.3377   -2.8183  -22.0674 C   0  0  0  0  0  0  0  0  0  0  0  0
  -13.9304   -1.7752  -21.4279 C   0  0  0  0  0  0  0  0  0  0  0  0
  -14.6441   -1.0684  -22.3816 N   0  0  0  0  0  4  0  0  0  0  0  0
  -14.5268   -1.7019  -23.5592 C   0  0  0  0  0  0  0  0  0  0  0  0
  -13.7570   -2.7787  -23.3908 N   0  0  0  0  0  0  0  0  0  0  0  0
  -13.4708   -3.4853  -24.0763 H   0  0  0  0  0  0  0  0  0  0  0  0
  -14.9900   -1.3882  -24.4760 H   0  0  0  0  0  0  0  0  0  0  0  0
  -15.1056   -0.1777  -22.2170 H   0  0  0  0  0  0  0  0  0  0  0  0
  -13.9527   -1.4628  -20.3862 H   0  0  0  0  0  0  0  0  0  0  0  0
  -12.9048   -4.8360  -22.1153 H   0  0  0  0  0  0  0  0  0  0  0  0
  -12.3952   -4.1174  -20.5764 H   0  0  0  0  0  0  0  0  0  0  0  0
  -10.9368   -4.5888  -23.4226 C   0  0  0  0  0  0  0  0  0  0  0  0
  -11.9042   -4.9664  -24.0894 O   0  0  0  0  0  0  0  0  0  0  0  0
   -9.5335   -4.7986  -23.8775 C   0  0  0  0  0  0  0  0  0  0  0  0
   -9.2702   -5.7676  -24.8459 C   0  0  0  0  0  0  0  0  0  0  0  0
   -8.0095   -5.8908  -25.4004 C   0  0  0  0  0  0  0  0  0  0  0  0
   -7.0185   -5.0282  -24.9466 C   0  0  0  0  0  0  0  0  0  0  0  0
   -5.8053   -5.0906  -25.5169 F   0  0  0  0  0  0  0  0  0  0  0  0
   -7.2355   -4.0985  -23.9499 C   0  0  0  0  0  0  0  0  0  0  0  0
   -8.5093   -3.9830  -23.3882 C   0  0  0  0  0  0  0  0  0  0  0  0
   -6.4172   -3.4701  -23.6149 H   0  0  0  0  0  0  0  0  0  0  0  0
   -7.7859   -6.6073  -26.1862 H   0  0  0  0  0  0  0  0  0  0  0  0
  -10.0749   -6.4229  -25.1584 H   0  0  0  0  0  0  0  0  0  0  0  0
   -9.6288   -4.1864  -20.7839 H   0  0  0  0  0  0  0  0  0  0  0  0
  -10.3249   -2.5544  -20.8778 H   0  0  0  0  0  0  0  0  0  0  0  0
   -7.9246    0.3351  -22.3850 H   0  0  0  0  0  0  0  0  0  0  0  0
   -9.1436   -0.1649  -21.1974 H   0  0  0  0  0  0  0  0  0  0  0  0
   -8.3972   -1.4552  -23.8516 H   0  0  0  0  0  0  0  0  0  0  0  0
  -11.0599   -1.1525  -22.3627 H   0  0  0  0  0  0  0  0  0  0  0  0
  -10.8592   -1.9327  -23.9383 H   0  0  0  0  0  0  0  0  0  0  0  0
  -10.5320   -0.1917  -23.7591 H   0  0  0  0  0  0  0  0  0  0  0  0
  1  2  1  0
  2  3  1  0
  3  4  1  0
  4  5  1  0
  5  6  2  0
  6  7  1  0
  7  8  2  0
  8  9  1  0
  9 10  2  0
 10 11  1  0
 11 12  2  0
 12 13  1  0
 13 14  2  0
 13 15  1  0
 12 16  1  0
 11 17  1  0
 10 18  1  0
  8 19  1  0
  6 20  1  0
  4 21  1  0
 21 22  2  0
 21 23  1  0
 23 24  1  1
 24 25  1  0
 25 26  1  0
 26 27  1  0
 27 28  2  0
 28 29  1  0
 29 30  2  0
 30 31  1  0
 31 32  1  0
 30 33  1  0
 29 34  1  0
 28 35  1  0
 26 36  1  0
 26 37  1  0
 25 38  1  0
 38 39  2  0
 38 40  1  0
 40 41  2  0
 41 42  1  0
 42 43  2  0
 43 44  1  0
 43 45  1  0
 45 46  2  0
 45 47  1  0
 42 48  1  0
 41 49  1  0
 24 50  1  0
 24 51  1  0
  3 52  1  0
  3 53  1  0
  2 54  1  6
  1 55  1  0
  1 56  1  0
  1 57  1  0
 23  2  1  0
 31 27  1  0
 46 40  1  0
 14  5  1  0
 46 23  1  0
 14  9  1  0
M  CHG  1  29   1
M  END
>  <cnnaffinities>  (11) 
[6.85725]

>  <score>  (11) 
6.85725

>  <index>  (11) 
10

>  <Smiles>  (11) 
C([C@]1(C(N(c2c(nc(c3c(c(c(c(c23)[H])[H])[H])[H])[H])[H])C(=O)[C@]21C(N(C(c1c([n+](c(n1[H])[H])[H])[H])([H])[H])C(=O)c1c(c(c(F)c(c21)[H])[H])[H])([H])[H])([H])[H])[H])([H])([H])[H]

>  <h>  (11) 
<NA>

>  <Training>  (11) 
True

>  <Success>  (11) 
True

>  <enamine_searched>  (11) 
False

>  <enamine_id>  (11) 
nan

$$$$

     RDKit          3D

 48 52  0  0  0  0  0  0  0  0999 V2000
  -10.0794   -0.7979  -23.6276 C   0  0  0  0  0  0  0  0  0  0  0  0
   -9.0631   -1.3450  -22.7543 N   0  0  0  0  0  0  0  0  0  0  0  0
   -8.3422   -0.5104  -21.9453 C   0  0  0  0  0  0  0  0  0  0  0  0
   -8.4520    0.6870  -21.8212 O   0  0  0  0  0  0  0  0  0  0  0  0
   -7.4241   -1.3144  -21.2632 N   0  0  0  0  0  0  0  0  0  0  0  0
   -6.6101   -0.8031  -20.2249 C   0  0  0  0  0  0  0  0  0  0  0  0
   -6.9407   -1.0542  -18.9214 C   0  0  0  0  0  0  0  0  0  0  0  0
   -6.2631   -0.5552  -17.8624 N   0  0  0  0  0  0  0  0  0  0  0  0
   -5.2345    0.2182  -18.1102 C   0  0  0  0  0  0  0  0  0  0  0  0
   -4.7750    0.5392  -19.4193 C   0  0  0  0  0  0  0  0  0  0  0  0
   -3.6396    1.3637  -19.6409 C   0  0  0  0  0  0  0  0  0  0  0  0
   -3.2127    1.6239  -20.9155 C   0  0  0  0  0  0  0  0  0  0  0  0
   -3.9117    1.0974  -22.0251 C   0  0  0  0  0  0  0  0  0  0  0  0
   -5.0255    0.3174  -21.8350 C   0  0  0  0  0  0  0  0  0  0  0  0
   -5.4832    0.0184  -20.5213 C   0  0  0  0  0  0  0  0  0  0  0  0
   -5.5661   -0.0751  -22.6893 H   0  0  0  0  0  0  0  0  0  0  0  0
   -3.5660    1.3070  -23.0363 H   0  0  0  0  0  0  0  0  0  0  0  0
   -2.3382    2.2455  -21.0881 H   0  0  0  0  0  0  0  0  0  0  0  0
   -3.1407    1.7961  -18.7780 H   0  0  0  0  0  0  0  0  0  0  0  0
   -4.7032    0.6195  -17.2473 H   0  0  0  0  0  0  0  0  0  0  0  0
   -7.8013   -1.6813  -18.6993 H   0  0  0  0  0  0  0  0  0  0  0  0
   -7.6278   -2.6612  -21.5180 C   0  0  0  0  0  0  0  0  0  0  0  0
   -6.9476   -3.5657  -21.1007 O   0  0  0  0  0  0  0  0  0  0  0  0
   -8.8317   -2.7371  -22.4480 C   0  0  0  0  0  0  0  0  0  0  0  0
  -10.0344   -3.5942  -21.9642 C   0  0  0  0  0  0  0  0  0  0  0  0
   -9.9123   -4.4667  -23.1819 N   0  0  0  0  0  0  0  0  0  0  0  0
  -11.1551   -4.4481  -24.3380 S   0  0  0  0  0  0  0  0  0  0  0  0
  -12.3208   -4.9990  -23.6796 O   0  0  0  0  0  0  0  0  0  0  0  0
  -11.2467   -3.1205  -24.9289 O   0  0  0  0  0  0  0  0  0  0  0  0
  -10.5133   -5.5487  -25.6028 C   0  0  0  0  0  0  0  0  0  0  0  0
  -10.3497   -6.8981  -25.3072 C   0  0  0  0  0  0  0  0  0  0  0  0
   -9.7655   -7.7356  -26.2516 C   0  0  0  0  0  0  0  0  0  0  0  0
   -9.3751   -7.2394  -27.4892 C   0  0  0  0  0  0  0  0  0  0  0  0
   -9.5432   -5.8863  -27.7745 C   0  0  0  0  0  0  0  0  0  0  0  0
  -10.1252   -5.0337  -26.8395 C   0  0  0  0  0  0  0  0  0  0  0  0
  -10.2971   -3.9764  -27.0393 H   0  0  0  0  0  0  0  0  0  0  0  0
   -9.2500   -5.5057  -28.7477 H   0  0  0  0  0  0  0  0  0  0  0  0
   -8.9648   -7.9068  -28.2446 H   0  0  0  0  0  0  0  0  0  0  0  0
   -9.6244   -8.7905  -26.0443 H   0  0  0  0  0  0  0  0  0  0  0  0
  -10.6753   -7.2958  -24.3547 H   0  0  0  0  0  0  0  0  0  0  0  0
   -8.6653   -3.7801  -23.5707 C   0  0  0  0  0  0  0  0  0  0  0  0
   -7.8375   -4.4512  -23.3469 H   0  0  0  0  0  0  0  0  0  0  0  0
   -8.6185   -3.4260  -24.6020 H   0  0  0  0  0  0  0  0  0  0  0  0
  -10.9926   -3.0912  -21.8167 H   0  0  0  0  0  0  0  0  0  0  0  0
   -9.7791   -4.1766  -21.0801 H   0  0  0  0  0  0  0  0  0  0  0  0
  -11.0821   -1.0050  -23.2430 H   0  0  0  0  0  0  0  0  0  0  0  0
   -9.9223    0.2823  -23.6402 H   0  0  0  0  0  0  0  0  0  0  0  0
   -9.9745   -1.2093  -24.6315 H   0  0  0  0  0  0  0  0  0  0  0  0
  1  2  1  0
  2  3  1  0
  3  4  2  0
  3  5  1  0
  5  6  1  0
  6  7  2  0
  7  8  1  0
  8  9  2  0
  9 10  1  0
 10 11  2  0
 11 12  1  0
 12 13  2  0
 13 14  1  0
 14 15  2  0
 14 16  1  0
 13 17  1  0
 12 18  1  0
 11 19  1  0
  9 20  1  0
  7 21  1  0
  5 22  1  0
 22 23  2  0
 22 24  1  0
 24 25  1  0
 25 26  1  0
 26 27  1  0
 27 28  2  0
 27 29  2  0
 27 30  1  0
 30 31  2  0
 31 32  1  0
 32 33  2  0
 33 34  1  0
 34 35  2  0
 35 36  1  0
 34 37  1  0
 33 38  1  0
 32 39  1  0
 31 40  1  0
 26 41  1  0
 41 42  1  0
 41 43  1  0
 25 44  1  0
 25 45  1  0
  1 46  1  0
  1 47  1  0
  1 48  1  0
 24  2  1  0
 35 30  1  0
 15  6  1  0
 41 24  1  0
 15 10  1  0
M  END
>  <cnnaffinities>  (12) 
[5.817, 5.80587, 5.80455, 5.80389, 5.69045, 5.70787, 5.23259]

>  <score>  (12) 
5.817

>  <index>  (12) 
11

>  <Smiles>  (12) 
C(N1C(=O)N(c2c(nc(c3c(c(c(c(c23)[H])[H])[H])[H])[H])[H])C(=O)C21C(N(S(=O)(=O)c1c(c(c(c(c1[H])[H])[H])[H])[H])C2([H])[H])([H])[H])([H])([H])[H]

>  <h>  (12) 
<NA>

>  <Training>  (12) 
True

>  <Success>  (12) 
True

>  <enamine_searched>  (12) 
False

>  <enamine_id>  (12) 
nan

$$$$

     RDKit          3D

 76 82  0  0  0  0  0  0  0  0999 V2000
  -11.0047    1.6504  -24.9152 O   0  0  0  0  0  0  0  0  0  0  0  0
  -10.4537    0.6580  -24.4488 C   0  0  0  0  0  0  0  0  0  0  0  0
  -11.1332   -0.2287  -23.4489 C   0  0  0  0  0  0  0  0  0  0  0  0
  -12.4953   -0.0255  -23.2195 C   0  0  0  0  0  0  0  0  0  0  0  0
  -13.2321   -0.9127  -22.4603 C   0  0  0  0  0  0  0  0  0  0  0  0
  -12.5516   -1.9845  -21.8829 C   0  0  0  0  0  0  0  0  0  0  0  0
  -13.4322   -3.1887  -20.9890 Cl  0  0  0  0  0  0  0  0  0  0  0  0
  -11.1811   -2.1340  -22.0010 C   0  0  0  0  0  0  0  0  0  0  0  0
  -10.4433   -1.2730  -22.8176 C   0  0  0  0  0  0  0  0  0  0  0  0
   -8.9416   -1.4337  -23.0359 C   0  0  1  0  0  0  0  0  0  0  0  0
   -8.6666   -1.0213  -24.5070 C   0  0  0  0  0  0  0  0  0  0  0  0
   -9.1999    0.2862  -24.8230 N   0  0  0  0  0  0  0  0  0  0  0  0
   -8.4597    1.2141  -25.6543 C   0  0  0  0  0  0  0  0  0  0  0  0
   -7.8289    2.3212  -24.8107 C   0  0  0  0  0  0  0  0  0  0  0  0
   -7.1747    3.3962  -25.6155 N   0  0  0  0  0  4  0  0  0  0  0  0
   -8.1452    4.2911  -26.3442 C   0  0  0  0  0  0  0  0  0  0  0  0
   -7.3835    5.4165  -27.0288 C   0  0  0  0  0  0  0  0  0  0  0  0
   -6.3925    4.9271  -27.9135 O   0  0  0  0  0  0  0  0  0  0  0  0
   -5.4462    4.1336  -27.2198 C   0  0  0  0  0  0  0  0  0  0  0  0
   -6.0882    2.9251  -26.5519 C   0  0  0  0  0  0  0  0  0  0  0  0
   -5.3489    2.3517  -25.9834 H   0  0  0  0  0  0  0  0  0  0  0  0
   -6.5250    2.2800  -27.3154 H   0  0  0  0  0  0  0  0  0  0  0  0
   -4.9526    4.7389  -26.4410 H   0  0  0  0  0  0  0  0  0  0  0  0
   -4.6968    3.8171  -27.9507 H   0  0  0  0  0  0  0  0  0  0  0  0
   -6.9154    6.0428  -26.2512 H   0  0  0  0  0  0  0  0  0  0  0  0
   -8.0664    6.0342  -27.6187 H   0  0  0  0  0  0  0  0  0  0  0  0
   -8.6814    3.7047  -27.0931 H   0  0  0  0  0  0  0  0  0  0  0  0
   -8.8673    4.6924  -25.6258 H   0  0  0  0  0  0  0  0  0  0  0  0
   -6.7001    4.0027  -24.9179 H   0  0  0  0  0  0  0  0  0  0  0  0
   -7.0796    1.8969  -24.1353 H   0  0  0  0  0  0  0  0  0  0  0  0
   -8.6008    2.7942  -24.1977 H   0  0  0  0  0  0  0  0  0  0  0  0
   -9.1577    1.6395  -26.3803 H   0  0  0  0  0  0  0  0  0  0  0  0
   -7.6895    0.6651  -26.2017 H   0  0  0  0  0  0  0  0  0  0  0  0
   -9.1150   -1.7753  -25.1717 H   0  0  0  0  0  0  0  0  0  0  0  0
   -7.5963   -0.9969  -24.7016 H   0  0  0  0  0  0  0  0  0  0  0  0
   -8.1518   -0.5185  -22.0716 C   0  0  0  0  0  0  0  0  0  0  0  0
   -8.1621    0.6960  -22.0440 O   0  0  0  0  0  0  0  0  0  0  0  0
   -7.4015   -1.3129  -21.2364 N   0  0  0  0  0  0  0  0  0  0  0  0
   -6.5961   -0.7891  -20.2070 C   0  0  0  0  0  0  0  0  0  0  0  0
   -6.8859   -1.0696  -18.8961 C   0  0  0  0  0  0  0  0  0  0  0  0
   -6.2007   -0.5784  -17.8399 N   0  0  0  0  0  0  0  0  0  0  0  0
   -5.1822    0.2045  -18.0937 C   0  0  0  0  0  0  0  0  0  0  0  0
   -4.7419    0.5303  -19.4065 C   0  0  0  0  0  0  0  0  0  0  0  0
   -3.6160    1.3644  -19.6238 C   0  0  0  0  0  0  0  0  0  0  0  0
   -3.1921    1.6388  -20.8942 C   0  0  0  0  0  0  0  0  0  0  0  0
   -3.8689    1.0876  -22.0039 C   0  0  0  0  0  0  0  0  0  0  0  0
   -4.9615    0.2798  -21.8194 C   0  0  0  0  0  0  0  0  0  0  0  0
   -5.4465    0.0053  -20.5091 C   0  0  0  0  0  0  0  0  0  0  0  0
   -5.4708   -0.1437  -22.6790 H   0  0  0  0  0  0  0  0  0  0  0  0
   -3.5183    1.2997  -23.0099 H   0  0  0  0  0  0  0  0  0  0  0  0
   -2.3338    2.2817  -21.0591 H   0  0  0  0  0  0  0  0  0  0  0  0
   -3.1120    1.7813  -18.7571 H   0  0  0  0  0  0  0  0  0  0  0  0
   -4.6409    0.6130  -17.2407 H   0  0  0  0  0  0  0  0  0  0  0  0
   -7.7362   -1.7035  -18.6505 H   0  0  0  0  0  0  0  0  0  0  0  0
   -7.7213   -2.7199  -21.3257 C   0  0  0  0  0  0  0  0  0  0  0  0
   -8.4227   -2.8614  -22.6874 C   0  0  2  0  0  0  0  0  0  0  0  0
   -7.5305   -3.5305  -23.7502 C   0  0  0  0  0  0  0  0  0  0  0  0
   -7.1607   -4.8820  -23.3987 N   0  0  0  0  0  0  0  0  0  0  0  0
   -7.9658   -5.9535  -23.6071 C   0  0  0  0  0  0  0  0  0  0  0  0
   -7.4943   -7.1408  -23.1642 N   0  0  0  0  0  0  0  0  0  0  0  0
   -8.2899   -8.1815  -23.3524 C   0  0  0  0  0  0  0  0  0  0  0  0
   -9.5286   -8.0914  -23.9807 C   0  0  0  0  0  0  0  0  0  0  0  0
   -9.8917   -6.8296  -24.4203 C   0  0  0  0  0  0  0  0  0  0  0  0
   -9.1364   -5.7473  -24.2326 N   0  0  0  0  0  0  0  0  0  0  0  0
  -10.8404   -6.6764  -24.9312 H   0  0  0  0  0  0  0  0  0  0  0  0
  -10.2158   -8.9204  -24.0714 H   0  0  0  0  0  0  0  0  0  0  0  0
   -7.9239   -9.1312  -22.9642 H   0  0  0  0  0  0  0  0  0  0  0  0
   -6.2745   -5.0731  -22.9629 H   0  0  0  0  0  0  0  0  0  0  0  0
   -6.6212   -2.9442  -23.9199 H   0  0  0  0  0  0  0  0  0  0  0  0
   -8.0877   -3.6097  -24.6859 H   0  0  0  0  0  0  0  0  0  0  0  0
   -9.2702   -3.5443  -22.6112 H   0  0  0  0  0  0  0  0  0  0  0  0
   -6.8058   -3.3121  -21.2371 H   0  0  0  0  0  0  0  0  0  0  0  0
   -8.3915   -3.0168  -20.5097 H   0  0  0  0  0  0  0  0  0  0  0  0
  -10.7163   -2.9374  -21.4379 H   0  0  0  0  0  0  0  0  0  0  0  0
  -14.3051   -0.7857  -22.3198 H   0  0  0  0  0  0  0  0  0  0  0  0
  -12.9570    0.8372  -23.6877 H   0  0  0  0  0  0  0  0  0  0  0  0
  1  2  2  0
  2  3  1  0
  3  4  2  0
  4  5  1  0
  5  6  2  0
  6  7  1  0
  6  8  1  0
  8  9  2  0
  9 10  1  0
 10 11  1  6
 11 12  1  0
 12 13  1  0
 13 14  1  0
 14 15  1  0
 15 16  1  0
 16 17  1  0
 17 18  1  0
 18 19  1  0
 19 20  1  0
 20 21  1  0
 20 22  1  0
 19 23  1  0
 19 24  1  0
 17 25  1  0
 17 26  1  0
 16 27  1  0
 16 28  1  0
 15 29  1  0
 14 30  1  0
 14 31  1  0
 13 32  1  0
 13 33  1  0
 11 34  1  0
 11 35  1  0
 10 36  1  0
 36 37  2  0
 36 38  1  0
 38 39  1  0
 39 40  2  0
 40 41  1  0
 41 42  2  0
 42 43  1  0
 43 44  2  0
 44 45  1  0
 45 46  2  0
 46 47  1  0
 47 48  2  0
 47 49  1  0
 46 50  1  0
 45 51  1  0
 44 52  1  0
 42 53  1  0
 40 54  1  0
 38 55  1  0
 55 56  1  0
 56 57  1  0
 57 58  1  0
 58 59  1  0
 59 60  2  0
 60 61  1  0
 61 62  2  0
 62 63  1  0
 63 64  2  0
 63 65  1  0
 62 66  1  0
 61 67  1  0
 58 68  1  0
 57 69  1  0
 57 70  1  0
 56 71  1  1
 55 72  1  0
 55 73  1  0
  8 74  1  0
  5 75  1  0
  4 76  1  0
 12  2  1  0
 20 15  1  0
 48 39  1  0
 64 59  1  0
  9  3  1  0
 56 10  1  0
 48 43  1  0
M  CHG  1  15   1
M  END
>  <cnnaffinities>  (13) 
[6.62465, 6.20024, 6.33105]

>  <score>  (13) 
6.62465

>  <index>  (13) 
12

>  <Smiles>  (13) 
O=C1c2c(c(c(Cl)c(c2[C@@]2(C(N1C(C([N+]1(C(C(OC(C1([H])[H])([H])[H])([H])[H])([H])[H])[H])([H])[H])([H])[H])([H])[H])C(=O)N(c1c(nc(c3c(c(c(c(c13)[H])[H])[H])[H])[H])[H])C([C@@]2(C(N(c1nc(c(c(n1)[H])[H])[H])[H])([H])[H])[H])([H])[H])[H])[H])[H]

>  <h>  (13) 
<NA>

>  <Training>  (13) 
True

>  <Success>  (13) 
True

>  <enamine_searched>  (13) 
False

>  <enamine_id>  (13) 
nan

$$$$

     RDKit          3D

 69 74  0  0  0  0  0  0  0  0999 V2000
   -7.4387    3.3643  -21.8076 C   0  0  0  0  0  0  0  0  0  0  0  0
   -8.4766    2.8861  -22.7071 N   0  0  0  0  0  0  0  0  0  0  0  0
   -8.0754    2.1458  -23.7794 C   0  0  0  0  0  0  0  0  0  0  0  0
   -6.8945    1.9210  -24.0032 O   0  0  0  0  0  0  0  0  0  0  0  0
   -9.1540    1.5855  -24.7059 C   0  0  0  0  0  0  0  0  0  0  0  0
   -9.7459    0.4006  -24.1224 N   0  0  0  0  0  0  0  0  0  0  0  0
   -8.9533   -0.8156  -24.0552 C   0  0  0  0  0  0  0  0  0  0  0  0
   -9.2173   -1.5947  -22.7458 C   0  0  2  0  0  0  0  0  0  0  0  0
   -8.6363   -0.7967  -21.5496 C   0  0  0  0  0  0  0  0  0  0  0  0
   -9.1120    0.1881  -21.0237 O   0  0  0  0  0  0  0  0  0  0  0  0
   -7.4407   -1.3746  -21.1863 N   0  0  0  0  0  0  0  0  0  0  0  0
   -6.6258   -0.8050  -20.1789 C   0  0  0  0  0  0  0  0  0  0  0  0
   -6.9296   -1.0376  -18.8621 C   0  0  0  0  0  0  0  0  0  0  0  0
   -6.2163   -0.5587  -17.8179 N   0  0  0  0  0  0  0  0  0  0  0  0
   -5.1812    0.1962  -18.0892 C   0  0  0  0  0  0  0  0  0  0  0  0
   -4.7549    0.5212  -19.4068 C   0  0  0  0  0  0  0  0  0  0  0  0
   -3.6343    1.3599  -19.6414 C   0  0  0  0  0  0  0  0  0  0  0  0
   -3.2481    1.6623  -20.9176 C   0  0  0  0  0  0  0  0  0  0  0  0
   -3.9678    1.1440  -22.0164 C   0  0  0  0  0  0  0  0  0  0  0  0
   -5.0649    0.3377  -21.8175 C   0  0  0  0  0  0  0  0  0  0  0  0
   -5.4883    0.0006  -20.5016 C   0  0  0  0  0  0  0  0  0  0  0  0
   -5.6257   -0.0122  -22.6793 H   0  0  0  0  0  0  0  0  0  0  0  0
   -3.6516    1.3824  -23.0278 H   0  0  0  0  0  0  0  0  0  0  0  0
   -2.3913    2.3053  -21.0926 H   0  0  0  0  0  0  0  0  0  0  0  0
   -3.1088    1.7627  -18.7797 H   0  0  0  0  0  0  0  0  0  0  0  0
   -4.6158    0.5927  -17.2445 H   0  0  0  0  0  0  0  0  0  0  0  0
   -7.7907   -1.6537  -18.6167 H   0  0  0  0  0  0  0  0  0  0  0  0
   -7.0846   -2.5413  -21.9640 C   0  0  0  0  0  0  0  0  0  0  0  0
   -8.3900   -2.9145  -22.6777 C   0  0  2  0  0  0  0  0  0  0  0  0
   -8.0935   -3.6695  -23.9756 C   0  0  0  0  0  0  0  0  0  0  0  0
   -9.3051   -4.1409  -24.5945 N   0  0  0  0  0  0  0  0  0  0  0  0
   -9.3232   -4.8398  -25.7620 C   0  0  0  0  0  0  0  0  0  0  0  0
  -10.5130   -5.4314  -26.2304 C   0  0  0  0  0  0  0  0  0  0  0  0
  -10.4954   -5.9056  -27.5205 C   0  0  0  0  0  0  0  0  0  0  0  0
   -9.3849   -5.9551  -28.2688 N   0  0  0  0  0  0  0  0  0  0  0  0
   -8.2697   -5.5329  -27.6648 C   0  0  0  0  0  0  0  0  0  0  0  0
   -6.9869   -5.7898  -28.4134 C   0  0  0  0  0  0  0  0  0  0  0  0
   -7.1858   -5.7515  -29.4882 H   0  0  0  0  0  0  0  0  0  0  0  0
   -6.6491   -6.8109  -28.1904 H   0  0  0  0  0  0  0  0  0  0  0  0
   -6.1814   -5.0960  -28.1471 H   0  0  0  0  0  0  0  0  0  0  0  0
   -8.1842   -4.9428  -26.4624 N   0  0  0  0  0  0  0  0  0  0  0  0
  -11.4128   -6.2673  -27.9890 H   0  0  0  0  0  0  0  0  0  0  0  0
  -11.4081   -5.5231  -25.6191 H   0  0  0  0  0  0  0  0  0  0  0  0
  -10.1746   -3.9892  -24.1055 H   0  0  0  0  0  0  0  0  0  0  0  0
   -7.4392   -4.5222  -23.7570 H   0  0  0  0  0  0  0  0  0  0  0  0
   -7.5374   -3.0350  -24.6785 H   0  0  0  0  0  0  0  0  0  0  0  0
   -8.9404   -3.6020  -22.0274 H   0  0  0  0  0  0  0  0  0  0  0  0
   -6.2828   -2.3253  -22.6894 H   0  0  0  0  0  0  0  0  0  0  0  0
   -6.7288   -3.3497  -21.3183 H   0  0  0  0  0  0  0  0  0  0  0  0
  -10.7209   -1.7438  -22.5979 C   0  0  0  0  0  0  0  0  0  0  0  0
  -11.2839   -2.7479  -21.8064 C   0  0  0  0  0  0  0  0  0  0  0  0
  -12.6489   -2.7755  -21.5826 C   0  0  0  0  0  0  0  0  0  0  0  0
  -13.2986   -3.9691  -20.5095 Cl  0  0  0  0  0  0  0  0  0  0  0  0
  -13.5184   -1.8468  -22.1467 C   0  0  0  0  0  0  0  0  0  0  0  0
  -12.9711   -0.8586  -22.9323 C   0  0  0  0  0  0  0  0  0  0  0  0
  -11.5967   -0.7913  -23.1395 C   0  0  0  0  0  0  0  0  0  0  0  0
  -11.0922    0.3896  -23.9021 C   0  0  0  0  0  0  0  0  0  0  0  0
  -11.8291    1.2895  -24.2792 O   0  0  0  0  0  0  0  0  0  0  0  0
  -13.5809   -0.0888  -23.3848 H   0  0  0  0  0  0  0  0  0  0  0  0
  -14.5826   -1.8860  -21.9402 H   0  0  0  0  0  0  0  0  0  0  0  0
  -10.6802   -3.4936  -21.3023 H   0  0  0  0  0  0  0  0  0  0  0  0
   -7.8979   -0.5413  -24.1272 H   0  0  0  0  0  0  0  0  0  0  0  0
   -9.1909   -1.4647  -24.9085 H   0  0  0  0  0  0  0  0  0  0  0  0
   -8.6703    1.3282  -25.6563 H   0  0  0  0  0  0  0  0  0  0  0  0
   -9.9713    2.2862  -24.9059 H   0  0  0  0  0  0  0  0  0  0  0  0
   -9.4080    2.7677  -22.3231 H   0  0  0  0  0  0  0  0  0  0  0  0
   -6.8292    2.5132  -21.4669 H   0  0  0  0  0  0  0  0  0  0  0  0
   -6.7969    4.0965  -22.3089 H   0  0  0  0  0  0  0  0  0  0  0  0
   -7.9024    3.8873  -20.9703 H   0  0  0  0  0  0  0  0  0  0  0  0
  1  2  1  0
  2  3  1  0
  3  4  2  0
  3  5  1  0
  5  6  1  0
  6  7  1  0
  8  7  1  6
  8  9  1  0
  9 10  2  0
  9 11  1  0
 11 12  1  0
 12 13  2  0
 13 14  1  0
 14 15  2  0
 15 16  1  0
 16 17  2  0
 17 18  1  0
 18 19  2  0
 19 20  1  0
 20 21  2  0
 20 22  1  0
 19 23  1  0
 18 24  1  0
 17 25  1  0
 15 26  1  0
 13 27  1  0
 11 28  1  0
 28 29  1  0
 29 30  1  0
 30 31  1  0
 31 32  1  0
 32 33  2  0
 33 34  1  0
 34 35  2  0
 35 36  1  0
 36 37  1  0
 37 38  1  0
 37 39  1  0
 37 40  1  0
 36 41  2  0
 34 42  1  0
 33 43  1  0
 31 44  1  0
 30 45  1  0
 30 46  1  0
 29 47  1  1
 28 48  1  0
 28 49  1  0
  8 50  1  0
 50 51  2  0
 51 52  1  0
 52 53  1  0
 52 54  2  0
 54 55  1  0
 55 56  2  0
 56 57  1  0
 57 58  2  0
 55 59  1  0
 54 60  1  0
 51 61  1  0
  7 62  1  0
  7 63  1  0
  5 64  1  0
  5 65  1  0
  2 66  1  0
  1 67  1  0
  1 68  1  0
  1 69  1  0
 57  6  1  0
 29  8  1  0
 41 32  1  0
 56 50  1  0
 21 12  1  0
 21 16  1  0
M  END
>  <cnnaffinities>  (14) 
[6.13091, 6.57981]

>  <score>  (14) 
6.13091

>  <index>  (14) 
13

>  <Smiles>  (14) 
C(N(C(=O)C(N1C([C@@]2(C(=O)N(c3c(nc(c4c(c(c(c(c34)[H])[H])[H])[H])[H])[H])C([C@@]2(C(N(c2c(c(nc(C([H])([H])[H])n2)[H])[H])[H])([H])[H])[H])([H])[H])c2c(c(Cl)c(c(c2C1=O)[H])[H])[H])([H])[H])([H])[H])[H])([H])([H])[H]

>  <h>  (14) 
<NA>

>  <Training>  (14) 
True

>  <Success>  (14) 
True

>  <enamine_searched>  (14) 
False

>  <enamine_id>  (14) 
nan

$$$$

     RDKit          3D

 73 78  0  0  0  0  0  0  0  0999 V2000
   -7.9426   -3.7510  -24.0048 C   0  0  0  0  0  0  0  0  0  0  0  0
   -8.2977   -2.8752  -22.7990 C   0  0  1  0  0  0  0  0  0  0  0  0
   -7.1001   -2.6533  -21.8499 C   0  0  0  0  0  0  0  0  0  0  0  0
   -7.4071   -1.3930  -21.1992 N   0  0  0  0  0  0  0  0  0  0  0  0
   -6.6039   -0.8123  -20.1776 C   0  0  0  0  0  0  0  0  0  0  0  0
   -6.8982   -1.0501  -18.8606 C   0  0  0  0  0  0  0  0  0  0  0  0
   -6.1910   -0.5536  -17.8164 N   0  0  0  0  0  0  0  0  0  0  0  0
   -5.1645    0.2137  -18.0823 C   0  0  0  0  0  0  0  0  0  0  0  0
   -4.7348    0.5405  -19.4000 C   0  0  0  0  0  0  0  0  0  0  0  0
   -3.6080    1.3743  -19.6426 C   0  0  0  0  0  0  0  0  0  0  0  0
   -3.2180    1.6643  -20.9217 C   0  0  0  0  0  0  0  0  0  0  0  0
   -3.9367    1.1325  -22.0150 C   0  0  0  0  0  0  0  0  0  0  0  0
   -5.0302    0.3258  -21.8041 C   0  0  0  0  0  0  0  0  0  0  0  0
   -5.4704    0.0094  -20.4881 C   0  0  0  0  0  0  0  0  0  0  0  0
   -5.5604   -0.0877  -22.6557 H   0  0  0  0  0  0  0  0  0  0  0  0
   -3.6343    1.3710  -23.0313 H   0  0  0  0  0  0  0  0  0  0  0  0
   -2.3652    2.3121  -21.1011 H   0  0  0  0  0  0  0  0  0  0  0  0
   -3.0797    1.7841  -18.7860 H   0  0  0  0  0  0  0  0  0  0  0  0
   -4.6160    0.6193  -17.2308 H   0  0  0  0  0  0  0  0  0  0  0  0
   -7.7497   -1.6731  -18.5965 H   0  0  0  0  0  0  0  0  0  0  0  0
   -8.3910   -0.6649  -21.8331 C   0  0  0  0  0  0  0  0  0  0  0  0
   -8.8052    0.4048  -21.4388 O   0  0  0  0  0  0  0  0  0  0  0  0
   -8.8401   -1.4418  -23.1007 C   0  0  1  0  0  0  0  0  0  0  0  0
   -8.1529   -0.8420  -24.3596 C   0  0  0  0  0  0  0  0  0  0  0  0
   -8.5970    0.5085  -24.6291 N   0  0  0  0  0  0  0  0  0  0  0  0
   -7.6370    1.5718  -24.8904 C   0  0  0  0  0  0  0  0  0  0  0  0
   -7.5122    2.5185  -23.6946 C   0  0  0  0  0  0  0  0  0  0  0  0
   -6.4217    3.5567  -23.8580 N   0  0  0  0  0  4  0  0  0  0  0  0
   -6.7547    4.6772  -24.8351 C   0  0  0  0  0  0  0  0  0  0  0  0
   -7.7592    5.6767  -24.2562 C   0  0  0  0  0  0  0  0  0  0  0  0
   -7.3573    6.1568  -22.9342 N   0  0  0  0  0  0  0  0  0  0  0  0
   -6.5508    7.6005  -22.8286 S   0  0  0  0  0  0  0  0  0  0  0  0
   -6.0365    7.6902  -21.4757 O   0  0  0  0  0  0  0  0  0  0  0  0
   -7.4111    8.6230  -23.3953 O   0  0  0  0  0  0  0  0  0  0  0  0
   -5.1464    7.5253  -23.9310 C   0  0  0  0  0  0  0  0  0  0  0  0
   -5.5135    7.5000  -24.9617 H   0  0  0  0  0  0  0  0  0  0  0  0
   -4.5146    6.6683  -23.6901 H   0  0  0  0  0  0  0  0  0  0  0  0
   -4.6078    8.4628  -23.7598 H   0  0  0  0  0  0  0  0  0  0  0  0
   -7.0454    5.0943  -21.9732 C   0  0  0  0  0  0  0  0  0  0  0  0
   -5.9870    4.1519  -22.5327 C   0  0  0  0  0  0  0  0  0  0  0  0
   -5.0603    4.7044  -22.7068 H   0  0  0  0  0  0  0  0  0  0  0  0
   -5.7763    3.3320  -21.8405 H   0  0  0  0  0  0  0  0  0  0  0  0
   -7.9775    4.5500  -21.7880 H   0  0  0  0  0  0  0  0  0  0  0  0
   -6.7223    5.5569  -21.0418 H   0  0  0  0  0  0  0  0  0  0  0  0
   -8.7369    5.2017  -24.1343 H   0  0  0  0  0  0  0  0  0  0  0  0
   -7.8928    6.5368  -24.9159 H   0  0  0  0  0  0  0  0  0  0  0  0
   -7.1494    4.2433  -25.7526 H   0  0  0  0  0  0  0  0  0  0  0  0
   -5.8192    5.1858  -25.0786 H   0  0  0  0  0  0  0  0  0  0  0  0
   -5.5907    3.0532  -24.2219 H   0  0  0  0  0  0  0  0  0  0  0  0
   -7.2836    1.9432  -22.7928 H   0  0  0  0  0  0  0  0  0  0  0  0
   -8.4702    3.0196  -23.5415 H   0  0  0  0  0  0  0  0  0  0  0  0
   -6.6637    1.1105  -25.0941 H   0  0  0  0  0  0  0  0  0  0  0  0
   -7.9553    2.1135  -25.7852 H   0  0  0  0  0  0  0  0  0  0  0  0
   -9.9307    0.7963  -24.6752 C   0  0  0  0  0  0  0  0  0  0  0  0
  -10.3654    1.8319  -25.1667 O   0  0  0  0  0  0  0  0  0  0  0  0
  -10.8484   -0.2267  -24.0522 C   0  0  0  0  0  0  0  0  0  0  0  0
  -12.2255   -0.0465  -24.1899 C   0  0  0  0  0  0  0  0  0  0  0  0
  -13.1161   -0.8987  -23.5674 C   0  0  0  0  0  0  0  0  0  0  0  0
  -12.6119   -1.9181  -22.7619 C   0  0  0  0  0  0  0  0  0  0  0  0
  -13.7272   -2.9511  -21.9146 Cl  0  0  0  0  0  0  0  0  0  0  0  0
  -11.2507   -2.1129  -22.6071 C   0  0  0  0  0  0  0  0  0  0  0  0
  -10.3417   -1.2926  -23.2888 C   0  0  0  0  0  0  0  0  0  0  0  0
  -10.9184   -2.8910  -21.9280 H   0  0  0  0  0  0  0  0  0  0  0  0
  -14.1877   -0.7698  -23.6739 H   0  0  0  0  0  0  0  0  0  0  0  0
  -12.5738    0.7965  -24.7762 H   0  0  0  0  0  0  0  0  0  0  0  0
   -8.3784   -1.4914  -25.2206 H   0  0  0  0  0  0  0  0  0  0  0  0
   -7.0672   -0.8211  -24.2120 H   0  0  0  0  0  0  0  0  0  0  0  0
   -6.1517   -2.6039  -22.4103 H   0  0  0  0  0  0  0  0  0  0  0  0
   -6.9960   -3.4527  -21.1081 H   0  0  0  0  0  0  0  0  0  0  0  0
   -9.0724   -3.3842  -22.2190 H   0  0  0  0  0  0  0  0  0  0  0  0
   -7.0891   -3.3403  -24.5582 H   0  0  0  0  0  0  0  0  0  0  0  0
   -7.6634   -4.7615  -23.6863 H   0  0  0  0  0  0  0  0  0  0  0  0
   -8.7803   -3.8414  -24.7051 H   0  0  0  0  0  0  0  0  0  0  0  0
  1  2  1  0
  2  3  1  0
  3  4  1  0
  4  5  1  0
  5  6  2  0
  6  7  1  0
  7  8  2  0
  8  9  1  0
  9 10  2  0
 10 11  1  0
 11 12  2  0
 12 13  1  0
 13 14  2  0
 13 15  1  0
 12 16  1  0
 11 17  1  0
 10 18  1  0
  8 19  1  0
  6 20  1  0
  4 21  1  0
 21 22  2  0
 21 23  1  0
 23 24  1  6
 24 25  1  0
 25 26  1  0
 26 27  1  0
 27 28  1  0
 28 29  1  0
 29 30  1  0
 30 31  1  0
 31 32  1  0
 32 33  2  0
 32 34  2  0
 32 35  1  0
 35 36  1  0
 35 37  1  0
 35 38  1  0
 31 39  1  0
 39 40  1  0
 40 41  1  0
 40 42  1  0
 39 43  1  0
 39 44  1  0
 30 45  1  0
 30 46  1  0
 29 47  1  0
 29 48  1  0
 28 49  1  0
 27 50  1  0
 27 51  1  0
 26 52  1  0
 26 53  1  0
 25 54  1  0
 54 55  2  0
 54 56  1  0
 56 57  2  0
 57 58  1  0
 58 59  2  0
 59 60  1  0
 59 61  1  0
 61 62  2  0
 61 63  1  0
 58 64  1  0
 57 65  1  0
 24 66  1  0
 24 67  1  0
  3 68  1  0
  3 69  1  0
  2 70  1  1
  1 71  1  0
  1 72  1  0
  1 73  1  0
 23  2  1  0
 40 28  1  0
 62 56  1  0
 14  5  1  0
 62 23  1  0
 14  9  1  0
M  CHG  1  28   1
M  END
>  <cnnaffinities>  (15) 
[7.0645]

>  <score>  (15) 
7.0645

>  <index>  (15) 
14

>  <Smiles>  (15) 
C([C@]1(C(N(c2c(nc(c3c(c(c(c(c23)[H])[H])[H])[H])[H])[H])C(=O)[C@]21C(N(C(C([N+]1(C(C(N(S(=O)(=O)C([H])([H])[H])C(C1([H])[H])([H])[H])([H])[H])([H])[H])[H])([H])[H])([H])[H])C(=O)c1c(c(c(Cl)c(c21)[H])[H])[H])([H])[H])([H])[H])[H])([H])([H])[H]

>  <h>  (15) 
<NA>

>  <Training>  (15) 
True

>  <Success>  (15) 
True

>  <enamine_searched>  (15) 
False

>  <enamine_id>  (15) 
nan

$$$$

     RDKit          3D

 63 68  0  0  0  0  0  0  0  0999 V2000
   -7.4843    3.3281  -21.7194 C   0  0  0  0  0  0  0  0  0  0  0  0
   -8.4254    2.8922  -22.7276 N   0  0  0  0  0  0  0  0  0  0  0  0
   -7.8975    2.2136  -23.7725 C   0  0  0  0  0  0  0  0  0  0  0  0
   -6.6857    2.1125  -23.9204 O   0  0  0  0  0  0  0  0  0  0  0  0
   -8.8560    1.5923  -24.7805 C   0  0  0  0  0  0  0  0  0  0  0  0
   -9.5231    0.4033  -24.2892 N   0  0  0  0  0  0  0  0  0  0  0  0
   -8.7596   -0.8273  -24.1707 C   0  0  0  0  0  0  0  0  0  0  0  0
   -9.0890   -1.5799  -22.8568 C   0  0  2  0  0  0  0  0  0  0  0  0
   -8.5459   -0.7880  -21.6412 C   0  0  0  0  0  0  0  0  0  0  0  0
   -9.0391    0.2031  -21.1309 O   0  0  0  0  0  0  0  0  0  0  0  0
   -7.3875   -1.3879  -21.2073 N   0  0  0  0  0  0  0  0  0  0  0  0
   -6.5991   -0.8139  -20.1767 C   0  0  0  0  0  0  0  0  0  0  0  0
   -6.9066   -1.0465  -18.8597 C   0  0  0  0  0  0  0  0  0  0  0  0
   -6.2011   -0.5520  -17.8149 N   0  0  0  0  0  0  0  0  0  0  0  0
   -5.1682    0.2085  -18.0809 C   0  0  0  0  0  0  0  0  0  0  0  0
   -4.7311    0.5304  -19.3971 C   0  0  0  0  0  0  0  0  0  0  0  0
   -3.6089    1.3699  -19.6409 C   0  0  0  0  0  0  0  0  0  0  0  0
   -3.2270    1.6679  -20.9204 C   0  0  0  0  0  0  0  0  0  0  0  0
   -3.9531    1.1443  -22.0144 C   0  0  0  0  0  0  0  0  0  0  0  0
   -5.0421    0.3314  -21.8042 C   0  0  0  0  0  0  0  0  0  0  0  0
   -5.4646    0.0030  -20.4874 C   0  0  0  0  0  0  0  0  0  0  0  0
   -5.6012   -0.0462  -22.6555 H   0  0  0  0  0  0  0  0  0  0  0  0
   -3.6610    1.3864  -23.0306 H   0  0  0  0  0  0  0  0  0  0  0  0
   -2.3762    2.3192  -21.1003 H   0  0  0  0  0  0  0  0  0  0  0  0
   -3.0798    1.7770  -18.7830 H   0  0  0  0  0  0  0  0  0  0  0  0
   -4.6179    0.6127  -17.2307 H   0  0  0  0  0  0  0  0  0  0  0  0
   -7.7596   -1.6702  -18.6027 H   0  0  0  0  0  0  0  0  0  0  0  0
   -7.0238   -2.5851  -21.9363 C   0  0  0  0  0  0  0  0  0  0  0  0
   -8.2946   -2.9199  -22.7382 C   0  0  2  0  0  0  0  0  0  0  0  0
   -7.9729   -3.6697  -24.0486 C   0  0  0  0  0  0  0  0  0  0  0  0
   -7.3980   -4.9848  -23.8092 N   0  0  0  0  0  0  0  0  0  0  0  0
   -8.0748   -6.1191  -23.5142 C   0  0  0  0  0  0  0  0  0  0  0  0
   -7.1350   -7.1020  -23.2861 C   0  0  0  0  0  0  0  0  0  0  0  0
   -5.8995   -6.4405  -23.4772 C   0  0  0  0  0  0  0  0  0  0  0  0
   -6.0690   -5.1596  -23.7854 N   0  0  0  0  0  0  0  0  0  0  0  0
   -4.8882   -6.8256  -23.4053 H   0  0  0  0  0  0  0  0  0  0  0  0
   -7.3179   -8.1387  -23.0245 H   0  0  0  0  0  0  0  0  0  0  0  0
   -9.1610   -6.1238  -23.5041 H   0  0  0  0  0  0  0  0  0  0  0  0
   -7.2313   -3.1255  -24.6429 H   0  0  0  0  0  0  0  0  0  0  0  0
   -8.8838   -3.8153  -24.6430 H   0  0  0  0  0  0  0  0  0  0  0  0
   -8.9132   -3.5901  -22.1380 H   0  0  0  0  0  0  0  0  0  0  0  0
   -6.1668   -2.4027  -22.6038 H   0  0  0  0  0  0  0  0  0  0  0  0
   -6.7341   -3.3851  -21.2455 H   0  0  0  0  0  0  0  0  0  0  0  0
  -10.6033   -1.6843  -22.7517 C   0  0  0  0  0  0  0  0  0  0  0  0
  -11.1901   -2.6169  -21.8881 C   0  0  0  0  0  0  0  0  0  0  0  0
  -12.5657   -2.6757  -21.7611 C   0  0  0  0  0  0  0  0  0  0  0  0
  -13.2804   -3.8255  -20.6687 Cl  0  0  0  0  0  0  0  0  0  0  0  0
  -13.4015   -1.8152  -22.4724 C   0  0  0  0  0  0  0  0  0  0  0  0
  -12.8330   -0.8503  -23.2800 C   0  0  0  0  0  0  0  0  0  0  0  0
  -11.4452   -0.7637  -23.3955 C   0  0  0  0  0  0  0  0  0  0  0  0
  -10.8860    0.4003  -24.1565 C   0  0  0  0  0  0  0  0  0  0  0  0
  -11.6051    1.2900  -24.5942 O   0  0  0  0  0  0  0  0  0  0  0  0
  -13.4323   -0.1227  -23.8213 H   0  0  0  0  0  0  0  0  0  0  0  0
  -14.4757   -1.8953  -22.3614 H   0  0  0  0  0  0  0  0  0  0  0  0
  -10.5824   -3.2832  -21.2874 H   0  0  0  0  0  0  0  0  0  0  0  0
   -8.9739   -1.4905  -25.0236 H   0  0  0  0  0  0  0  0  0  0  0  0
   -7.7007   -0.5496  -24.1874 H   0  0  0  0  0  0  0  0  0  0  0  0
   -9.6557    2.2831  -25.0521 H   0  0  0  0  0  0  0  0  0  0  0  0
   -8.2406    1.3590  -25.6586 H   0  0  0  0  0  0  0  0  0  0  0  0
   -9.3982    2.7645  -22.4991 H   0  0  0  0  0  0  0  0  0  0  0  0
   -6.8353    2.4895  -21.4429 H   0  0  0  0  0  0  0  0  0  0  0  0
   -8.0192    3.7008  -20.8524 H   0  0  0  0  0  0  0  0  0  0  0  0
   -6.8463    4.1192  -22.1152 H   0  0  0  0  0  0  0  0  0  0  0  0
  1  2  1  0
  2  3  1  0
  3  4  2  0
  3  5  1  0
  5  6  1  0
  6  7  1  0
  8  7  1  6
  8  9  1  0
  9 10  2  0
  9 11  1  0
 11 12  1  0
 12 13  2  0
 13 14  1  0
 14 15  2  0
 15 16  1  0
 16 17  2  0
 17 18  1  0
 18 19  2  0
 19 20  1  0
 20 21  2  0
 20 22  1  0
 19 23  1  0
 18 24  1  0
 17 25  1  0
 15 26  1  0
 13 27  1  0
 11 28  1  0
 28 29  1  0
 29 30  1  0
 30 31  1  0
 31 32  1  0
 32 33  2  0
 33 34  1  0
 34 35  2  0
 34 36  1  0
 33 37  1  0
 32 38  1  0
 30 39  1  0
 30 40  1  0
 29 41  1  1
 28 42  1  0
 28 43  1  0
  8 44  1  0
 44 45  2  0
 45 46  1  0
 46 47  1  0
 46 48  2  0
 48 49  1  0
 49 50  2  0
 50 51  1  0
 51 52  2  0
 49 53  1  0
 48 54  1  0
 45 55  1  0
  7 56  1  0
  7 57  1  0
  5 58  1  0
  5 59  1  0
  2 60  1  0
  1 61  1  0
  1 62  1  0
  1 63  1  0
 51  6  1  0
 29  8  1  0
 35 31  1  0
 50 44  1  0
 21 12  1  0
 21 16  1  0
M  END
>  <cnnaffinities>  (16) 
[6.77833, 6.80161, 6.92723]

>  <score>  (16) 
6.77833

>  <index>  (16) 
15

>  <Smiles>  (16) 
C(N(C(=O)C(N1C([C@@]2(C(=O)N(c3c(nc(c4c(c(c(c(c34)[H])[H])[H])[H])[H])[H])C([C@@]2(C(n2c(c(c(n2)[H])[H])[H])([H])[H])[H])([H])[H])c2c(c(Cl)c(c(c2C1=O)[H])[H])[H])([H])[H])([H])[H])[H])([H])([H])[H]

>  <h>  (16) 
<NA>

>  <Training>  (16) 
True

>  <Success>  (16) 
True

>  <enamine_searched>  (16) 
False

>  <enamine_id>  (16) 
nan

$$$$

     RDKit          3D

 61 66  0  0  0  0  0  0  0  0999 V2000
   -7.3762    3.3988  -21.8009 C   0  0  0  0  0  0  0  0  0  0  0  0
   -8.2338    2.9360  -22.8794 N   0  0  0  0  0  0  0  0  0  0  0  0
   -7.6649    2.2474  -23.8954 C   0  0  0  0  0  0  0  0  0  0  0  0
   -6.4512    2.1365  -24.0107 O   0  0  0  0  0  0  0  0  0  0  0  0
   -8.6163    1.6253  -24.9268 C   0  0  0  0  0  0  0  0  0  0  0  0
   -9.3472    0.4720  -24.4301 N   0  0  0  0  0  0  0  0  0  0  0  0
   -8.6340   -0.7838  -24.2569 C   0  0  0  0  0  0  0  0  0  0  0  0
   -9.0357   -1.4954  -22.9370 C   0  0  2  0  0  0  0  0  0  0  0  0
   -8.4854   -0.7068  -21.7210 C   0  0  0  0  0  0  0  0  0  0  0  0
   -8.9164    0.3356  -21.2673 O   0  0  0  0  0  0  0  0  0  0  0  0
   -7.4007   -1.3808  -21.2075 N   0  0  0  0  0  0  0  0  0  0  0  0
   -6.6020   -0.8103  -20.1786 C   0  0  0  0  0  0  0  0  0  0  0  0
   -6.9051   -1.0431  -18.8610 C   0  0  0  0  0  0  0  0  0  0  0  0
   -6.1992   -0.5504  -17.8162 N   0  0  0  0  0  0  0  0  0  0  0  0
   -5.1655    0.2101  -18.0794 C   0  0  0  0  0  0  0  0  0  0  0  0
   -4.7288    0.5320  -19.3959 C   0  0  0  0  0  0  0  0  0  0  0  0
   -3.6022    1.3663  -19.6394 C   0  0  0  0  0  0  0  0  0  0  0  0
   -3.2160    1.6556  -20.9202 C   0  0  0  0  0  0  0  0  0  0  0  0
   -3.9386    1.1275  -22.0115 C   0  0  0  0  0  0  0  0  0  0  0  0
   -5.0320    0.3206  -21.8015 C   0  0  0  0  0  0  0  0  0  0  0  0
   -5.4642    0.0045  -20.4846 C   0  0  0  0  0  0  0  0  0  0  0  0
   -5.5846   -0.0706  -22.6506 H   0  0  0  0  0  0  0  0  0  0  0  0
   -3.6442    1.3623  -23.0292 H   0  0  0  0  0  0  0  0  0  0  0  0
   -2.3618    2.3036  -21.1008 H   0  0  0  0  0  0  0  0  0  0  0  0
   -3.0746    1.7773  -18.7830 H   0  0  0  0  0  0  0  0  0  0  0  0
   -4.6180    0.6146  -17.2284 H   0  0  0  0  0  0  0  0  0  0  0  0
   -7.7578   -1.6667  -18.6026 H   0  0  0  0  0  0  0  0  0  0  0  0
   -7.0713   -2.6035  -21.9093 C   0  0  0  0  0  0  0  0  0  0  0  0
   -8.3160   -2.8716  -22.7775 C   0  0  2  0  0  0  0  0  0  0  0  0
   -7.9574   -3.6314  -24.0716 C   0  0  0  0  0  0  0  0  0  0  0  0
   -7.4389   -4.9626  -23.7777 N   0  0  0  0  0  0  0  0  0  0  0  0
   -8.2118   -6.0019  -23.5248 N   0  0  0  0  0  0  0  0  0  0  0  0
   -7.3115   -6.9404  -23.2789 C   0  0  0  0  0  0  0  0  0  0  0  0
   -6.0455   -6.4815  -23.3740 N   0  0  0  0  0  0  0  0  0  0  0  0
   -6.1518   -5.2214  -23.6933 N   0  0  0  0  0  0  0  0  0  0  0  0
   -7.5689   -7.9596  -23.0236 H   0  0  0  0  0  0  0  0  0  0  0  0
   -8.8333   -3.7786  -24.7101 H   0  0  0  0  0  0  0  0  0  0  0  0
   -7.1681   -3.1192  -24.6316 H   0  0  0  0  0  0  0  0  0  0  0  0
   -8.9869   -3.5275  -22.2191 H   0  0  0  0  0  0  0  0  0  0  0  0
   -6.8701   -3.4221  -21.2101 H   0  0  0  0  0  0  0  0  0  0  0  0
   -6.1676   -2.4798  -22.5287 H   0  0  0  0  0  0  0  0  0  0  0  0
  -10.5541   -1.5252  -22.8621 C   0  0  0  0  0  0  0  0  0  0  0  0
  -11.1956   -2.3899  -21.9662 C   0  0  0  0  0  0  0  0  0  0  0  0
  -12.5758   -2.4028  -21.8794 C   0  0  0  0  0  0  0  0  0  0  0  0
  -13.3566   -3.4900  -20.7671 Cl  0  0  0  0  0  0  0  0  0  0  0  0
  -13.3603   -1.5465  -22.6507 C   0  0  0  0  0  0  0  0  0  0  0  0
  -12.7338   -0.6378  -23.4803 C   0  0  0  0  0  0  0  0  0  0  0  0
  -11.3412   -0.6009  -23.5646 C   0  0  0  0  0  0  0  0  0  0  0  0
  -10.7142    0.5146  -24.3493 C   0  0  0  0  0  0  0  0  0  0  0  0
  -11.3868    1.4105  -24.8462 O   0  0  0  0  0  0  0  0  0  0  0  0
  -13.2961    0.0844  -24.0634 H   0  0  0  0  0  0  0  0  0  0  0  0
  -14.4403   -1.5803  -22.5680 H   0  0  0  0  0  0  0  0  0  0  0  0
  -10.6286   -3.0354  -21.3067 H   0  0  0  0  0  0  0  0  0  0  0  0
   -7.5652   -0.5487  -24.2375 H   0  0  0  0  0  0  0  0  0  0  0  0
   -8.8358   -1.4582  -25.1059 H   0  0  0  0  0  0  0  0  0  0  0  0
   -7.9825    1.3501  -25.7779 H   0  0  0  0  0  0  0  0  0  0  0  0
   -9.3780    2.3369  -25.2582 H   0  0  0  0  0  0  0  0  0  0  0  0
   -9.2305    2.8736  -22.7355 H   0  0  0  0  0  0  0  0  0  0  0  0
   -6.6804    4.1642  -22.1613 H   0  0  0  0  0  0  0  0  0  0  0  0
   -7.9980    3.8362  -21.0204 H   0  0  0  0  0  0  0  0  0  0  0  0
   -6.7837    2.5597  -21.4063 H   0  0  0  0  0  0  0  0  0  0  0  0
  1  2  1  0
  2  3  1  0
  3  4  2  0
  3  5  1  0
  5  6  1  0
  6  7  1  0
  8  7  1  6
  8  9  1  0
  9 10  2  0
  9 11  1  0
 11 12  1  0
 12 13  2  0
 13 14  1  0
 14 15  2  0
 15 16  1  0
 16 17  2  0
 17 18  1  0
 18 19  2  0
 19 20  1  0
 20 21  2  0
 20 22  1  0
 19 23  1  0
 18 24  1  0
 17 25  1  0
 15 26  1  0
 13 27  1  0
 11 28  1  0
 28 29  1  0
 29 30  1  0
 30 31  1  0
 31 32  1  0
 32 33  2  0
 33 34  1  0
 34 35  2  0
 33 36  1  0
 30 37  1  0
 30 38  1  0
 29 39  1  1
 28 40  1  0
 28 41  1  0
  8 42  1  0
 42 43  2  0
 43 44  1  0
 44 45  1  0
 44 46  2  0
 46 47  1  0
 47 48  2  0
 48 49  1  0
 49 50  2  0
 47 51  1  0
 46 52  1  0
 43 53  1  0
  7 54  1  0
  7 55  1  0
  5 56  1  0
  5 57  1  0
  2 58  1  0
  1 59  1  0
  1 60  1  0
  1 61  1  0
 49  6  1  0
 29  8  1  0
 35 31  1  0
 48 42  1  0
 21 12  1  0
 21 16  1  0
M  END
>  <cnnaffinities>  (17) 
[6.68989, 6.7456]

>  <score>  (17) 
6.68989

>  <index>  (17) 
16

>  <Smiles>  (17) 
C(N(C(=O)C(N1C([C@@]2(C(=O)N(c3c(nc(c4c(c(c(c(c34)[H])[H])[H])[H])[H])[H])C([C@@]2(C(n2nc(nn2)[H])([H])[H])[H])([H])[H])c2c(c(Cl)c(c(c2C1=O)[H])[H])[H])([H])[H])([H])[H])[H])([H])([H])[H]

>  <h>  (17) 
<NA>

>  <Training>  (17) 
True

>  <Success>  (17) 
True

>  <enamine_searched>  (17) 
False

>  <enamine_id>  (17) 
nan

$$$$

     RDKit          3D

 38 41  0  0  0  0  0  0  0  0999 V2000
   -9.3485   -4.9443  -25.6906 C   0  0  0  0  0  0  0  0  0  0  0  0
   -9.3467   -4.1952  -24.3572 C   0  0  2  0  0  0  0  0  0  0  0  0
  -10.3480   -3.0411  -24.3808 C   0  0  0  0  0  0  0  0  0  0  0  0
  -10.4235   -2.3517  -23.0161 C   0  0  0  0  0  0  0  0  0  0  0  0
   -9.0846   -2.1164  -22.4682 C   0  0  0  0  0  0  0  0  0  0  0  0
   -8.7202   -1.1943  -21.4397 C   0  0  0  0  0  0  0  0  0  0  0  0
   -9.3843   -0.3304  -20.9133 O   0  0  0  0  0  1  0  0  0  0  0  0
   -7.3442   -1.4711  -21.1996 N   0  0  0  0  0  0  0  0  0  0  0  0
   -6.5719   -0.8435  -20.1837 C   0  0  0  0  0  0  0  0  0  0  0  0
   -6.8867   -1.0522  -18.8655 C   0  0  0  0  0  0  0  0  0  0  0  0
   -6.1870   -0.5449  -17.8210 N   0  0  0  0  0  0  0  0  0  0  0  0
   -5.1558    0.2164  -18.0791 C   0  0  0  0  0  0  0  0  0  0  0  0
   -4.7242    0.5339  -19.3938 C   0  0  0  0  0  0  0  0  0  0  0  0
   -3.5971    1.3669  -19.6292 C   0  0  0  0  0  0  0  0  0  0  0  0
   -3.2201    1.6710  -20.9078 C   0  0  0  0  0  0  0  0  0  0  0  0
   -3.9555    1.1611  -22.0006 C   0  0  0  0  0  0  0  0  0  0  0  0
   -5.0475    0.3554  -21.7981 C   0  0  0  0  0  0  0  0  0  0  0  0
   -5.4557    0.0041  -20.4852 C   0  0  0  0  0  0  0  0  0  0  0  0
   -5.6042   -0.0319  -22.6442 H   0  0  0  0  0  0  0  0  0  0  0  0
   -3.6545    1.4050  -23.0150 H   0  0  0  0  0  0  0  0  0  0  0  0
   -2.3658    2.3171  -21.0949 H   0  0  0  0  0  0  0  0  0  0  0  0
   -3.0611    1.7726  -18.7745 H   0  0  0  0  0  0  0  0  0  0  0  0
   -4.6091    0.6212  -17.2230 H   0  0  0  0  0  0  0  0  0  0  0  0
   -7.7371   -1.6716  -18.5928 H   0  0  0  0  0  0  0  0  0  0  0  0
   -6.8627   -2.4209  -22.1188 C   0  0  0  0  0  0  0  0  0  0  0  0
   -5.7295   -2.8240  -22.2397 O   0  0  0  0  0  0  0  0  0  0  0  0
   -7.9764   -2.7837  -22.8663 N   0  0  0  0  0  0  0  0  0  0  0  0
   -7.9458   -3.6820  -24.0086 C   0  0  0  0  0  0  0  0  0  0  0  0
   -7.2775   -4.4995  -23.7572 H   0  0  0  0  0  0  0  0  0  0  0  0
   -7.5090   -3.1773  -24.8746 H   0  0  0  0  0  0  0  0  0  0  0  0
  -10.9660   -1.4015  -23.0754 H   0  0  0  0  0  0  0  0  0  0  0  0
  -11.0048   -2.9652  -22.3109 H   0  0  0  0  0  0  0  0  0  0  0  0
  -10.0335   -2.3168  -25.1410 H   0  0  0  0  0  0  0  0  0  0  0  0
  -11.3403   -3.4062  -24.6761 H   0  0  0  0  0  0  0  0  0  0  0  0
   -9.6528   -4.9011  -23.5745 H   0  0  0  0  0  0  0  0  0  0  0  0
  -10.3425   -5.3465  -25.9213 H   0  0  0  0  0  0  0  0  0  0  0  0
   -8.6482   -5.7870  -25.6928 H   0  0  0  0  0  0  0  0  0  0  0  0
   -9.0729   -4.2815  -26.5203 H   0  0  0  0  0  0  0  0  0  0  0  0
  1  2  1  0
  2  3  1  0
  3  4  1  0
  4  5  1  0
  5  6  2  0
  6  7  1  0
  6  8  1  0
  8  9  1  0
  9 10  2  0
 10 11  1  0
 11 12  2  0
 12 13  1  0
 13 14  2  0
 14 15  1  0
 15 16  2  0
 16 17  1  0
 17 18  2  0
 17 19  1  0
 16 20  1  0
 15 21  1  0
 14 22  1  0
 12 23  1  0
 10 24  1  0
  8 25  1  0
 25 26  2  0
 25 27  1  0
 27 28  1  0
 28 29  1  0
 28 30  1  0
  4 31  1  0
  4 32  1  0
  3 33  1  0
  3 34  1  0
  2 35  1  1
  1 36  1  0
  1 37  1  0
  1 38  1  0
 28  2  1  0
 27  5  1  0
 18  9  1  0
 18 13  1  0
M  CHG  1   7  -1
M  END
>  <cnnaffinities>  (18) 
[5.26109, 4.54267]

>  <score>  (18) 
5.26109

>  <index>  (18) 
17

>  <Smiles>  (18) 
C([C@@]1(C(C(c2c([O-])n(c3c(nc(c4c(c(c(c(c34)[H])[H])[H])[H])[H])[H])c(=O)n2C1([H])[H])([H])[H])([H])[H])[H])([H])([H])[H]

>  <h>  (18) 
<NA>

>  <Training>  (18) 
True

>  <Success>  (18) 
True

>  <enamine_searched>  (18) 
False

>  <enamine_id>  (18) 
nan

$$$$

     RDKit          3D

 56 61  0  0  0  0  0  0  0  0999 V2000
  -10.4642   -1.1961  -23.2321 C   0  0  0  0  0  0  0  0  0  0  0  0
   -9.0138   -1.5342  -22.9184 C   0  0  1  0  0  0  0  0  0  0  0  0
   -8.3829   -0.5559  -21.9161 C   0  0  0  0  0  0  0  0  0  0  0  0
   -7.3914   -1.3553  -21.2267 N   0  0  0  0  0  0  0  0  0  0  0  0
   -6.5830   -0.8394  -20.1842 C   0  0  0  0  0  0  0  0  0  0  0  0
   -6.8929   -1.0820  -18.8680 C   0  0  0  0  0  0  0  0  0  0  0  0
   -6.2085   -0.5625  -17.8181 N   0  0  0  0  0  0  0  0  0  0  0  0
   -5.1843    0.2110  -18.0838 C   0  0  0  0  0  0  0  0  0  0  0  0
   -4.7428    0.5209  -19.4026 C   0  0  0  0  0  0  0  0  0  0  0  0
   -3.6171    1.3482  -19.6376 C   0  0  0  0  0  0  0  0  0  0  0  0
   -3.2145    1.6208  -20.9187 C   0  0  0  0  0  0  0  0  0  0  0  0
   -3.9178    1.0784  -22.0175 C   0  0  0  0  0  0  0  0  0  0  0  0
   -5.0122    0.2725  -21.8171 C   0  0  0  0  0  0  0  0  0  0  0  0
   -5.4568   -0.0159  -20.4959 C   0  0  0  0  0  0  0  0  0  0  0  0
   -5.5387   -0.1531  -22.6669 H   0  0  0  0  0  0  0  0  0  0  0  0
   -3.5887    1.2987  -23.0307 H   0  0  0  0  0  0  0  0  0  0  0  0
   -2.3546    2.2577  -21.0986 H   0  0  0  0  0  0  0  0  0  0  0  0
   -3.0990    1.7647  -18.7798 H   0  0  0  0  0  0  0  0  0  0  0  0
   -4.6399    0.6368  -17.2397 H   0  0  0  0  0  0  0  0  0  0  0  0
   -7.7345   -1.7255  -18.6161 H   0  0  0  0  0  0  0  0  0  0  0  0
   -7.5476   -2.7126  -21.4164 C   0  0  0  0  0  0  0  0  0  0  0  0
   -6.7767   -3.5435  -20.9824 O   0  0  0  0  0  0  0  0  0  0  0  0
   -8.7836   -2.9553  -22.3065 C   0  0  1  0  0  0  0  0  0  0  0  0
   -9.9624   -3.4267  -21.4328 C   0  0  0  0  0  0  0  0  0  0  0  0
  -11.0760   -3.9925  -22.1776 N   0  0  0  0  0  0  0  0  0  0  0  0
  -12.4303   -3.9196  -21.6442 C   0  0  0  0  0  0  0  0  0  0  0  0
  -13.2896   -2.8098  -22.1721 C   0  0  0  0  0  0  0  0  0  0  0  0
  -13.9169   -2.8599  -23.4303 C   0  0  0  0  0  0  0  0  0  0  0  0
  -14.6158   -1.6841  -23.5242 C   0  0  0  0  0  0  0  0  0  0  0  0
  -14.4108   -1.0413  -22.3544 N   0  0  0  0  0  0  0  0  0  0  0  0
  -13.6177   -1.7137  -21.5051 N   0  0  0  0  0  0  0  0  0  0  0  0
  -14.7882   -0.1543  -22.0615 H   0  0  0  0  0  0  0  0  0  0  0  0
  -15.2423   -1.2650  -24.2989 H   0  0  0  0  0  0  0  0  0  0  0  0
  -13.7970   -3.6783  -24.1212 H   0  0  0  0  0  0  0  0  0  0  0  0
  -12.9033   -4.8213  -22.0217 H   0  0  0  0  0  0  0  0  0  0  0  0
  -12.4244   -3.9368  -20.5556 H   0  0  0  0  0  0  0  0  0  0  0  0
  -10.9276   -4.6750  -23.3525 C   0  0  0  0  0  0  0  0  0  0  0  0
  -11.8880   -5.0944  -23.9926 O   0  0  0  0  0  0  0  0  0  0  0  0
   -9.5299   -4.8447  -23.8233 C   0  0  0  0  0  0  0  0  0  0  0  0
   -9.2799   -5.8021  -24.8043 C   0  0  0  0  0  0  0  0  0  0  0  0
   -8.0206   -5.9038  -25.3674 C   0  0  0  0  0  0  0  0  0  0  0  0
   -7.0309   -5.0314  -24.9254 C   0  0  0  0  0  0  0  0  0  0  0  0
   -5.8231   -5.0755  -25.5109 F   0  0  0  0  0  0  0  0  0  0  0  0
   -7.2457   -4.1098  -23.9208 C   0  0  0  0  0  0  0  0  0  0  0  0
   -8.5115   -4.0166  -23.3431 C   0  0  0  0  0  0  0  0  0  0  0  0
   -6.4441   -3.4552  -23.5993 H   0  0  0  0  0  0  0  0  0  0  0  0
   -7.7995   -6.5935  -26.1747 H   0  0  0  0  0  0  0  0  0  0  0  0
  -10.1010   -6.4501  -25.1024 H   0  0  0  0  0  0  0  0  0  0  0  0
   -9.5750   -4.1668  -20.7429 H   0  0  0  0  0  0  0  0  0  0  0  0
  -10.3329   -2.5828  -20.8503 H   0  0  0  0  0  0  0  0  0  0  0  0
   -9.1327   -0.1714  -21.2105 H   0  0  0  0  0  0  0  0  0  0  0  0
   -7.9266    0.3106  -22.4078 H   0  0  0  0  0  0  0  0  0  0  0  0
   -8.4214   -1.4925  -23.8432 H   0  0  0  0  0  0  0  0  0  0  0  0
  -10.9263   -1.9666  -23.8581 H   0  0  0  0  0  0  0  0  0  0  0  0
  -11.0510   -1.1220  -22.3113 H   0  0  0  0  0  0  0  0  0  0  0  0
  -10.5404   -0.2350  -23.7444 H   0  0  0  0  0  0  0  0  0  0  0  0
  1  2  1  0
  2  3  1  0
  3  4  1  0
  4  5  1  0
  5  6  2  0
  6  7  1  0
  7  8  2  0
  8  9  1  0
  9 10  2  0
 10 11  1  0
 11 12  2  0
 12 13  1  0
 13 14  2  0
 13 15  1  0
 12 16  1  0
 11 17  1  0
 10 18  1  0
  8 19  1  0
  6 20  1  0
  4 21  1  0
 21 22  2  0
 21 23  1  0
 23 24  1  1
 24 25  1  0
 25 26  1  0
 26 27  1  0
 27 28  1  0
 28 29  2  0
 29 30  1  0
 30 31  1  0
 30 32  1  0
 29 33  1  0
 28 34  1  0
 26 35  1  0
 26 36  1  0
 25 37  1  0
 37 38  2  0
 37 39  1  0
 39 40  2  0
 40 41  1  0
 41 42  2  0
 42 43  1  0
 42 44  1  0
 44 45  2  0
 44 46  1  0
 41 47  1  0
 40 48  1  0
 24 49  1  0
 24 50  1  0
  3 51  1  0
  3 52  1  0
  2 53  1  6
  1 54  1  0
  1 55  1  0
  1 56  1  0
 23  2  1  0
 31 27  2  0
 45 39  1  0
 14  5  1  0
 45 23  1  0
 14  9  1  0
M  END
>  <cnnaffinities>  (19) 
[6.79488, 6.26514]

>  <score>  (19) 
6.79488

>  <index>  (19) 
18

>  <Smiles>  (19) 
C([C@]1(C(N(c2c(nc(c3c(c(c(c(c23)[H])[H])[H])[H])[H])[H])C(=O)[C@]21C(N(C(c1c(c(n(n1)[H])[H])[H])([H])[H])C(=O)c1c(c(c(F)c(c21)[H])[H])[H])([H])[H])([H])[H])[H])([H])([H])[H]

>  <h>  (19) 
<NA>

>  <Training>  (19) 
True

>  <Success>  (19) 
True

>  <enamine_searched>  (19) 
False

>  <enamine_id>  (19) 
nan

$$$$

     RDKit          3D

 42 45  0  0  0  0  0  0  0  0999 V2000
   -9.1471   -0.0636  -20.7257 O   0  0  0  0  0  0  0  0  0  0  0  0
   -8.6551   -0.9067  -21.4506 C   0  0  0  0  0  0  0  0  0  0  0  0
   -9.3670   -1.5025  -22.6773 C   0  0  1  0  0  0  0  0  0  0  0  0
  -10.4388   -0.5578  -23.1880 C   0  0  0  0  0  0  0  0  0  0  0  0
  -10.1010    0.7539  -23.5121 C   0  0  0  0  0  0  0  0  0  0  0  0
  -11.0719    1.6267  -23.9688 C   0  0  0  0  0  0  0  0  0  0  0  0
  -12.4001    1.2399  -24.0831 C   0  0  0  0  0  0  0  0  0  0  0  0
  -13.5489    2.5026  -24.3747 Cl  0  0  0  0  0  0  0  0  0  0  0  0
  -12.7285   -0.0989  -23.8610 C   0  0  0  0  0  0  0  0  0  0  0  0
  -14.3309   -0.6919  -24.1125 Cl  0  0  0  0  0  0  0  0  0  0  0  0
  -11.7486   -0.9850  -23.4040 C   0  0  0  0  0  0  0  0  0  0  0  0
  -12.0455   -2.0124  -23.1881 H   0  0  0  0  0  0  0  0  0  0  0  0
  -10.8343    2.6526  -24.2068 H   0  0  0  0  0  0  0  0  0  0  0  0
   -9.0892    1.1207  -23.3399 H   0  0  0  0  0  0  0  0  0  0  0  0
   -8.3345   -1.7867  -23.7761 C   0  0  0  0  0  0  0  0  0  0  0  0
   -7.2412   -2.7556  -23.3381 C   0  0  2  0  0  0  0  0  0  0  0  0
   -7.5388   -4.1066  -23.6585 O   0  0  0  0  0  0  0  0  0  0  0  0
   -8.3959   -4.3208  -23.2669 H   0  0  0  0  0  0  0  0  0  0  0  0
   -6.9338   -2.6358  -21.8358 C   0  0  0  0  0  0  0  0  0  0  0  0
   -7.3754   -1.3760  -21.2547 N   0  0  0  0  0  0  0  0  0  0  0  0
   -6.6075   -0.8067  -20.1943 C   0  0  0  0  0  0  0  0  0  0  0  0
   -6.9066   -1.0516  -18.8787 C   0  0  0  0  0  0  0  0  0  0  0  0
   -6.1942   -0.5617  -17.8342 N   0  0  0  0  0  0  0  0  0  0  0  0
   -5.1644    0.2056  -18.0851 C   0  0  0  0  0  0  0  0  0  0  0  0
   -4.7250    0.5276  -19.3991 C   0  0  0  0  0  0  0  0  0  0  0  0
   -3.5973    1.3575  -19.6388 C   0  0  0  0  0  0  0  0  0  0  0  0
   -3.2117    1.6438  -20.9192 C   0  0  0  0  0  0  0  0  0  0  0  0
   -3.9353    1.1104  -22.0103 C   0  0  0  0  0  0  0  0  0  0  0  0
   -5.0248    0.3048  -21.8000 C   0  0  0  0  0  0  0  0  0  0  0  0
   -5.4557   -0.0022  -20.4856 C   0  0  0  0  0  0  0  0  0  0  0  0
   -5.5837   -0.0971  -22.6379 H   0  0  0  0  0  0  0  0  0  0  0  0
   -3.6287    1.3433  -23.0249 H   0  0  0  0  0  0  0  0  0  0  0  0
   -2.3589    2.2896  -21.1069 H   0  0  0  0  0  0  0  0  0  0  0  0
   -3.0686    1.7716  -18.7840 H   0  0  0  0  0  0  0  0  0  0  0  0
   -4.6223    0.6132  -17.2292 H   0  0  0  0  0  0  0  0  0  0  0  0
   -7.7546   -1.6699  -18.5940 H   0  0  0  0  0  0  0  0  0  0  0  0
   -7.3922   -3.5097  -21.3375 H   0  0  0  0  0  0  0  0  0  0  0  0
   -5.8588   -2.6947  -21.6667 H   0  0  0  0  0  0  0  0  0  0  0  0
   -6.3402   -2.5453  -23.9202 H   0  0  0  0  0  0  0  0  0  0  0  0
   -7.8961   -0.8294  -24.0867 H   0  0  0  0  0  0  0  0  0  0  0  0
   -8.8253   -2.2063  -24.6600 H   0  0  0  0  0  0  0  0  0  0  0  0
   -9.8473   -2.4447  -22.3766 H   0  0  0  0  0  0  0  0  0  0  0  0
  1  2  2  0
  2  3  1  0
  3  4  1  0
  4  5  2  0
  5  6  1  0
  6  7  2  0
  7  8  1  0
  7  9  1  0
  9 10  1  0
  9 11  2  0
 11 12  1  0
  6 13  1  0
  5 14  1  0
  3 15  1  0
 15 16  1  0
 16 17  1  0
 17 18  1  0
 16 19  1  0
 19 20  1  0
 20 21  1  0
 21 22  2  0
 22 23  1  0
 23 24  2  0
 24 25  1  0
 25 26  2  0
 26 27  1  0
 27 28  2  0
 28 29  1  0
 29 30  2  0
 29 31  1  0
 28 32  1  0
 27 33  1  0
 26 34  1  0
 24 35  1  0
 22 36  1  0
 19 37  1  0
 19 38  1  0
 16 39  1  6
 15 40  1  0
 15 41  1  0
  3 42  1  1
 20  2  1  0
 30 21  1  0
 11  4  1  0
 30 25  1  0
M  END
>  <cnnaffinities>  (20) 
[5.70422, 5.10431]

>  <score>  (20) 
5.70422

>  <index>  (20) 
19

>  <Smiles>  (20) 
O=C1[C@@](c2c(c(c(Cl)c(Cl)c2[H])[H])[H])(C([C@](O[H])(C(N1c1c(nc(c2c(c(c(c(c12)[H])[H])[H])[H])[H])[H])([H])[H])[H])([H])[H])[H]

>  <h>  (20) 
<NA>

>  <Training>  (20) 
True

>  <Success>  (20) 
True

>  <enamine_searched>  (20) 
False

>  <enamine_id>  (20) 
nan

$$$$

     RDKit          3D

 66 71  0  0  0  0  0  0  0  0999 V2000
   -7.4282    3.3534  -21.7587 C   0  0  0  0  0  0  0  0  0  0  0  0
   -8.3201    2.9052  -22.8166 N   0  0  0  0  0  0  0  0  0  0  0  0
   -7.7577    2.2235  -23.8383 C   0  0  0  0  0  0  0  0  0  0  0  0
   -6.5436    2.1198  -23.9635 O   0  0  0  0  0  0  0  0  0  0  0  0
   -8.7032    1.5948  -24.8660 C   0  0  0  0  0  0  0  0  0  0  0  0
   -9.4190    0.4371  -24.3643 N   0  0  0  0  0  0  0  0  0  0  0  0
   -8.6908   -0.8080  -24.2052 C   0  0  0  0  0  0  0  0  0  0  0  0
   -9.0733   -1.5298  -22.8879 C   0  0  2  0  0  0  0  0  0  0  0  0
   -8.5246   -0.7430  -21.6701 C   0  0  0  0  0  0  0  0  0  0  0  0
   -8.9874    0.2720  -21.1836 O   0  0  0  0  0  0  0  0  0  0  0  0
   -7.3988   -1.3818  -21.2037 N   0  0  0  0  0  0  0  0  0  0  0  0
   -6.6009   -0.8111  -20.1757 C   0  0  0  0  0  0  0  0  0  0  0  0
   -6.9064   -1.0429  -18.8583 C   0  0  0  0  0  0  0  0  0  0  0  0
   -6.2007   -0.5499  -17.8144 N   0  0  0  0  0  0  0  0  0  0  0  0
   -5.1666    0.2087  -18.0801 C   0  0  0  0  0  0  0  0  0  0  0  0
   -4.7294    0.5310  -19.3962 C   0  0  0  0  0  0  0  0  0  0  0  0
   -3.6045    1.3665  -19.6406 C   0  0  0  0  0  0  0  0  0  0  0  0
   -3.2199    1.6578  -20.9206 C   0  0  0  0  0  0  0  0  0  0  0  0
   -3.9431    1.1321  -22.0118 C   0  0  0  0  0  0  0  0  0  0  0  0
   -5.0356    0.3237  -21.8024 C   0  0  0  0  0  0  0  0  0  0  0  0
   -5.4646    0.0027  -20.4857 C   0  0  0  0  0  0  0  0  0  0  0  0
   -5.5911   -0.0618  -22.6530 H   0  0  0  0  0  0  0  0  0  0  0  0
   -3.6499    1.3703  -23.0301 H   0  0  0  0  0  0  0  0  0  0  0  0
   -2.3656    2.3079  -21.1002 H   0  0  0  0  0  0  0  0  0  0  0  0
   -3.0770    1.7761  -18.7826 H   0  0  0  0  0  0  0  0  0  0  0  0
   -4.6178    0.6136  -17.2294 H   0  0  0  0  0  0  0  0  0  0  0  0
   -7.7601   -1.6664  -18.6014 H   0  0  0  0  0  0  0  0  0  0  0  0
   -7.0550   -2.5873  -21.9311 C   0  0  0  0  0  0  0  0  0  0  0  0
   -8.3248   -2.8942  -22.7507 C   0  0  2  0  0  0  0  0  0  0  0  0
   -8.0180   -3.6736  -24.0487 C   0  0  0  0  0  0  0  0  0  0  0  0
   -7.4767   -5.0626  -23.7769 C   0  0  0  0  0  0  0  0  0  0  0  0
   -8.3519   -6.1166  -23.5010 C   0  0  0  0  0  0  0  0  0  0  0  0
   -7.8734   -7.3926  -23.2115 C   0  0  0  0  0  0  0  0  0  0  0  0
   -6.5025   -7.6356  -23.1924 C   0  0  0  0  0  0  0  0  0  0  0  0
   -5.6176   -6.5970  -23.4689 C   0  0  0  0  0  0  0  0  0  0  0  0
   -6.1029   -5.3215  -23.7563 C   0  0  0  0  0  0  0  0  0  0  0  0
   -5.4027   -4.5126  -23.9683 H   0  0  0  0  0  0  0  0  0  0  0  0
   -4.5441   -6.7809  -23.4619 H   0  0  0  0  0  0  0  0  0  0  0  0
   -6.1248   -8.6329  -22.9675 H   0  0  0  0  0  0  0  0  0  0  0  0
   -8.5791   -8.1955  -23.0035 H   0  0  0  0  0  0  0  0  0  0  0  0
   -9.4269   -5.9325  -23.5145 H   0  0  0  0  0  0  0  0  0  0  0  0
   -8.9365   -3.7534  -24.6481 H   0  0  0  0  0  0  0  0  0  0  0  0
   -7.2892   -3.1132  -24.6511 H   0  0  0  0  0  0  0  0  0  0  0  0
   -8.9685   -3.5360  -22.1430 H   0  0  0  0  0  0  0  0  0  0  0  0
   -6.7958   -3.4027  -21.2445 H   0  0  0  0  0  0  0  0  0  0  0  0
   -6.1814   -2.4227  -22.5842 H   0  0  0  0  0  0  0  0  0  0  0  0
  -10.5904   -1.5911  -22.8106 C   0  0  0  0  0  0  0  0  0  0  0  0
  -11.2167   -2.4935  -21.9408 C   0  0  0  0  0  0  0  0  0  0  0  0
  -12.5966   -2.5217  -21.8476 C   0  0  0  0  0  0  0  0  0  0  0  0
  -13.3612   -3.6412  -20.7554 Cl  0  0  0  0  0  0  0  0  0  0  0  0
  -13.3934   -1.6558  -22.5962 C   0  0  0  0  0  0  0  0  0  0  0  0
  -12.7839   -0.7209  -23.4091 C   0  0  0  0  0  0  0  0  0  0  0  0
  -11.3931   -0.6655  -23.4943 C   0  0  0  0  0  0  0  0  0  0  0  0
  -10.7847    0.4688  -24.2654 C   0  0  0  0  0  0  0  0  0  0  0  0
  -11.4707    1.3671  -24.7372 O   0  0  0  0  0  0  0  0  0  0  0  0
  -13.3526    0.0085  -23.9794 H   0  0  0  0  0  0  0  0  0  0  0  0
  -14.4719   -1.7054  -22.5112 H   0  0  0  0  0  0  0  0  0  0  0  0
  -10.6377   -3.1585  -21.3115 H   0  0  0  0  0  0  0  0  0  0  0  0
   -8.9017   -1.4824  -25.0527 H   0  0  0  0  0  0  0  0  0  0  0  0
   -7.6247   -0.5604  -24.1994 H   0  0  0  0  0  0  0  0  0  0  0  0
   -9.4780    2.2977  -25.1817 H   0  0  0  0  0  0  0  0  0  0  0  0
   -8.0685    1.3246  -25.7190 H   0  0  0  0  0  0  0  0  0  0  0  0
   -9.3089    2.8052  -22.6420 H   0  0  0  0  0  0  0  0  0  0  0  0
   -6.7553    4.1318  -22.1337 H   0  0  0  0  0  0  0  0  0  0  0  0
   -8.0154    3.7591  -20.9379 H   0  0  0  0  0  0  0  0  0  0  0  0
   -6.8131    2.5079  -21.4189 H   0  0  0  0  0  0  0  0  0  0  0  0
  1  2  1  0
  2  3  1  0
  3  4  2  0
  3  5  1  0
  5  6  1  0
  6  7  1  0
  8  7  1  6
  8  9  1  0
  9 10  2  0
  9 11  1  0
 11 12  1  0
 12 13  2  0
 13 14  1  0
 14 15  2  0
 15 16  1  0
 16 17  2  0
 17 18  1  0
 18 19  2  0
 19 20  1  0
 20 21  2  0
 20 22  1  0
 19 23  1  0
 18 24  1  0
 17 25  1  0
 15 26  1  0
 13 27  1  0
 11 28  1  0
 28 29  1  0
 29 30  1  0
 30 31  1  0
 31 32  2  0
 32 33  1  0
 33 34  2  0
 34 35  1  0
 35 36  2  0
 36 37  1  0
 35 38  1  0
 34 39  1  0
 33 40  1  0
 32 41  1  0
 30 42  1  0
 30 43  1  0
 29 44  1  1
 28 45  1  0
 28 46  1  0
  8 47  1  0
 47 48  2  0
 48 49  1  0
 49 50  1  0
 49 51  2  0
 51 52  1  0
 52 53  2  0
 53 54  1  0
 54 55  2  0
 52 56  1  0
 51 57  1  0
 48 58  1  0
  7 59  1  0
  7 60  1  0
  5 61  1  0
  5 62  1  0
  2 63  1  0
  1 64  1  0
  1 65  1  0
  1 66  1  0
 54  6  1  0
 29  8  1  0
 36 31  1  0
 53 47  1  0
 21 12  1  0
 21 16  1  0
M  END
>  <cnnaffinities>  (21) 
[6.71272, 6.6963, 6.73747]

>  <score>  (21) 
6.71272

>  <index>  (21) 
20

>  <Smiles>  (21) 
C(N(C(=O)C(N1C([C@@]2(C(=O)N(c3c(nc(c4c(c(c(c(c34)[H])[H])[H])[H])[H])[H])C([C@@]2(C(c2c(c(c(c(c2[H])[H])[H])[H])[H])([H])[H])[H])([H])[H])c2c(c(Cl)c(c(c2C1=O)[H])[H])[H])([H])[H])([H])[H])[H])([H])([H])[H]

>  <h>  (21) 
<NA>

>  <Training>  (21) 
True

>  <Success>  (21) 
True

>  <enamine_searched>  (21) 
False

>  <enamine_id>  (21) 
nan

$$$$

     RDKit          3D

 63 68  0  0  0  0  0  0  0  0999 V2000
  -10.2935   -2.7346  -22.1840 C   0  0  0  0  0  0  0  0  0  0  0  0
   -9.0979   -1.9333  -22.7043 C   0  0  1  0  0  0  0  0  0  0  0  0
   -8.6096   -0.9285  -21.6430 C   0  0  0  0  0  0  0  0  0  0  0  0
   -7.3565   -1.4775  -21.1817 N   0  0  0  0  0  0  0  0  0  0  0  0
   -6.5740   -0.8585  -20.1823 C   0  0  0  0  0  0  0  0  0  0  0  0
   -6.9101   -1.0515  -18.8704 C   0  0  0  0  0  0  0  0  0  0  0  0
   -6.2277   -0.5366  -17.8226 N   0  0  0  0  0  0  0  0  0  0  0  0
   -5.1916    0.2141  -18.1028 C   0  0  0  0  0  0  0  0  0  0  0  0
   -4.7495    0.5094  -19.4235 C   0  0  0  0  0  0  0  0  0  0  0  0
   -3.6340    1.3524  -19.6487 C   0  0  0  0  0  0  0  0  0  0  0  0
   -3.2425    1.6553  -20.9196 C   0  0  0  0  0  0  0  0  0  0  0  0
   -3.9515    1.1320  -22.0263 C   0  0  0  0  0  0  0  0  0  0  0  0
   -5.0312    0.3033  -21.8425 C   0  0  0  0  0  0  0  0  0  0  0  0
   -5.4581   -0.0305  -20.5198 C   0  0  0  0  0  0  0  0  0  0  0  0
   -5.5591   -0.0860  -22.7155 H   0  0  0  0  0  0  0  0  0  0  0  0
   -3.6295    1.3952  -23.0293 H   0  0  0  0  0  0  0  0  0  0  0  0
   -2.3978    2.3154  -21.0870 H   0  0  0  0  0  0  0  0  0  0  0  0
   -3.1229    1.7614  -18.7806 H   0  0  0  0  0  0  0  0  0  0  0  0
   -4.6383    0.6384  -17.2639 H   0  0  0  0  0  0  0  0  0  0  0  0
   -7.7685   -1.6792  -18.6372 H   0  0  0  0  0  0  0  0  0  0  0  0
   -6.8592   -2.5201  -21.9235 C   0  0  0  0  0  0  0  0  0  0  0  0
   -5.8260   -3.1053  -21.6746 O   0  0  0  0  0  0  0  0  0  0  0  0
   -7.8333   -2.7759  -23.0909 C   0  0  1  0  0  0  0  0  0  0  0  0
   -8.1466   -4.2814  -23.2135 C   0  0  0  0  0  0  0  0  0  0  0  0
   -7.0109   -5.0275  -23.7329 N   0  0  0  0  0  0  0  0  0  0  0  0
   -6.7053   -6.3245  -23.1643 C   0  0  0  0  0  0  0  0  0  0  0  0
   -7.7946   -7.3347  -23.5075 C   0  0  0  0  0  0  0  0  0  0  0  0
   -8.4930   -7.8652  -22.6609 O   0  0  0  0  0  0  0  0  0  0  0  0
   -7.9527   -7.5574  -24.8428 N   0  0  0  0  0  0  0  0  0  0  0  0
   -9.2596   -8.0032  -25.3123 C   0  0  0  0  0  0  0  0  0  0  0  0
  -10.2398   -6.8620  -25.4709 C   0  0  0  0  0  0  0  0  0  0  0  0
  -10.0045   -5.8698  -26.5731 C   0  0  0  0  0  0  0  0  0  0  0  0
  -11.1569   -6.8223  -26.6511 C   0  0  0  0  0  0  0  0  0  0  0  0
  -12.1480   -6.4273  -26.4800 H   0  0  0  0  0  0  0  0  0  0  0  0
  -11.0920   -7.6251  -27.3772 H   0  0  0  0  0  0  0  0  0  0  0  0
  -10.2122   -4.8262  -26.3592 H   0  0  0  0  0  0  0  0  0  0  0  0
   -9.1690   -6.0643  -27.2437 H   0  0  0  0  0  0  0  0  0  0  0  0
  -10.6671   -6.4694  -24.5449 H   0  0  0  0  0  0  0  0  0  0  0  0
   -9.1231   -8.5284  -26.2657 H   0  0  0  0  0  0  0  0  0  0  0  0
   -9.6407   -8.7182  -24.5773 H   0  0  0  0  0  0  0  0  0  0  0  0
   -7.3188   -7.1040  -25.4962 H   0  0  0  0  0  0  0  0  0  0  0  0
   -6.6130   -6.2174  -22.0820 H   0  0  0  0  0  0  0  0  0  0  0  0
   -5.7578   -6.6596  -23.5920 H   0  0  0  0  0  0  0  0  0  0  0  0
   -6.3842   -4.6510  -24.8786 C   0  0  0  0  0  0  0  0  0  0  0  0
   -5.7273   -5.4463  -25.5529 O   0  0  0  0  0  0  0  0  0  0  0  0
   -6.5262   -3.2123  -25.2474 C   0  0  0  0  0  0  0  0  0  0  0  0
   -5.9498   -2.7947  -26.4445 C   0  0  0  0  0  0  0  0  0  0  0  0
   -6.0117   -1.4752  -26.8332 C   0  0  0  0  0  0  0  0  0  0  0  0
   -6.6563   -0.5855  -25.9825 C   0  0  0  0  0  0  0  0  0  0  0  0
   -6.7302    0.7028  -26.3562 F   0  0  0  0  0  0  0  0  0  0  0  0
   -7.2342   -0.9715  -24.7871 C   0  0  0  0  0  0  0  0  0  0  0  0
   -7.1977   -2.3166  -24.4042 C   0  0  0  0  0  0  0  0  0  0  0  0
   -7.7326   -0.2176  -24.1858 H   0  0  0  0  0  0  0  0  0  0  0  0
   -5.5730   -1.1283  -27.7616 H   0  0  0  0  0  0  0  0  0  0  0  0
   -5.4506   -3.5453  -27.0452 H   0  0  0  0  0  0  0  0  0  0  0  0
   -9.0247   -4.3827  -23.8679 H   0  0  0  0  0  0  0  0  0  0  0  0
   -8.4113   -4.6967  -22.2418 H   0  0  0  0  0  0  0  0  0  0  0  0
   -9.3100   -0.8370  -20.8100 H   0  0  0  0  0  0  0  0  0  0  0  0
   -8.4729    0.0826  -22.0522 H   0  0  0  0  0  0  0  0  0  0  0  0
   -9.4432   -1.4080  -23.6011 H   0  0  0  0  0  0  0  0  0  0  0  0
  -10.0307   -3.3270  -21.3032 H   0  0  0  0  0  0  0  0  0  0  0  0
  -11.0996   -2.0523  -21.9069 H   0  0  0  0  0  0  0  0  0  0  0  0
  -10.6843   -3.4062  -22.9510 H   0  0  0  0  0  0  0  0  0  0  0  0
  1  2  1  0
  2  3  1  0
  3  4  1  0
  4  5  1  0
  5  6  2  0
  6  7  1  0
  7  8  2  0
  8  9  1  0
  9 10  2  0
 10 11  1  0
 11 12  2  0
 12 13  1  0
 13 14  2  0
 13 15  1  0
 12 16  1  0
 11 17  1  0
 10 18  1  0
  8 19  1  0
  6 20  1  0
  4 21  1  0
 21 22  2  0
 21 23  1  0
 23 24  1  6
 24 25  1  0
 25 26  1  0
 26 27  1  0
 27 28  2  0
 27 29  1  0
 29 30  1  0
 30 31  1  0
 31 32  1  0
 32 33  1  0
 33 34  1  0
 33 35  1  0
 32 36  1  0
 32 37  1  0
 31 38  1  0
 30 39  1  0
 30 40  1  0
 29 41  1  0
 26 42  1  0
 26 43  1  0
 25 44  1  0
 44 45  2  0
 44 46  1  0
 46 47  2  0
 47 48  1  0
 48 49  2  0
 49 50  1  0
 49 51  1  0
 51 52  2  0
 51 53  1  0
 48 54  1  0
 47 55  1  0
 24 56  1  0
 24 57  1  0
  3 58  1  0
  3 59  1  0
  2 60  1  6
  1 61  1  0
  1 62  1  0
  1 63  1  0
 23  2  1  0
 33 31  1  0
 52 46  1  0
 14  5  1  0
 52 23  1  0
 14  9  1  0
M  END
>  <cnnaffinities>  (22) 
[6.29953, 6.01447]

>  <score>  (22) 
6.29953

>  <index>  (22) 
21

>  <Smiles>  (22) 
C([C@]1(C(N(c2c(nc(c3c(c(c(c(c23)[H])[H])[H])[H])[H])[H])C(=O)[C@]21C(N(C(C(=O)N(C(C1(C(C1([H])[H])([H])[H])[H])([H])[H])[H])([H])[H])C(=O)c1c(c(c(F)c(c21)[H])[H])[H])([H])[H])([H])[H])[H])([H])([H])[H]

>  <h>  (22) 
<NA>

>  <Training>  (22) 
True

>  <Success>  (22) 
True

>  <enamine_searched>  (22) 
False

>  <enamine_id>  (22) 
nan

$$$$

     RDKit          3D

 68 73  0  0  0  0  0  0  0  0999 V2000
   -7.2497    3.4155  -21.9071 C   0  0  0  0  0  0  0  0  0  0  0  0
   -8.2054    2.9097  -22.8769 N   0  0  0  0  0  0  0  0  0  0  0  0
   -7.7460    2.2195  -23.9555 C   0  0  0  0  0  0  0  0  0  0  0  0
   -6.5549    2.0428  -24.1644 O   0  0  0  0  0  0  0  0  0  0  0  0
   -8.8261    1.6754  -24.9001 C   0  0  0  0  0  0  0  0  0  0  0  0
   -9.4968    0.5223  -24.3202 N   0  0  0  0  0  0  0  0  0  0  0  0
   -8.7206   -0.6947  -24.1417 C   0  0  0  0  0  0  0  0  0  0  0  0
   -9.1061   -1.4809  -22.8580 C   0  0  2  0  0  0  0  0  0  0  0  0
   -8.5905   -0.7008  -21.6191 C   0  0  0  0  0  0  0  0  0  0  0  0
   -9.0795    0.2961  -21.1279 O   0  0  0  0  0  0  0  0  0  0  0  0
   -7.4523   -1.3138  -21.1541 N   0  0  0  0  0  0  0  0  0  0  0  0
   -6.6480   -0.7486  -20.1424 C   0  0  0  0  0  0  0  0  0  0  0  0
   -6.9452   -1.0013  -18.8283 C   0  0  0  0  0  0  0  0  0  0  0  0
   -6.2148   -0.5391  -17.7905 N   0  0  0  0  0  0  0  0  0  0  0  0
   -5.1706    0.2041  -18.0637 C   0  0  0  0  0  0  0  0  0  0  0  0
   -4.7438    0.5298  -19.3838 C   0  0  0  0  0  0  0  0  0  0  0  0
   -3.6124    1.3520  -19.6331 C   0  0  0  0  0  0  0  0  0  0  0  0
   -3.2367    1.6498  -20.9160 C   0  0  0  0  0  0  0  0  0  0  0  0
   -3.9770    1.1434  -22.0090 C   0  0  0  0  0  0  0  0  0  0  0  0
   -5.0804    0.3506  -21.7932 C   0  0  0  0  0  0  0  0  0  0  0  0
   -5.4953    0.0290  -20.4690 C   0  0  0  0  0  0  0  0  0  0  0  0
   -5.6592   -0.0012  -22.6417 H   0  0  0  0  0  0  0  0  0  0  0  0
   -3.6929    1.3956  -23.0264 H   0  0  0  0  0  0  0  0  0  0  0  0
   -2.3823    2.2947  -21.1006 H   0  0  0  0  0  0  0  0  0  0  0  0
   -3.0805    1.7572  -18.7778 H   0  0  0  0  0  0  0  0  0  0  0  0
   -4.5985    0.5867  -17.2189 H   0  0  0  0  0  0  0  0  0  0  0  0
   -7.8120   -1.6106  -18.5796 H   0  0  0  0  0  0  0  0  0  0  0  0
   -7.0451   -2.4784  -21.8973 C   0  0  0  0  0  0  0  0  0  0  0  0
   -8.2914   -2.8201  -22.7262 C   0  0  2  0  0  0  0  0  0  0  0  0
   -7.8916   -3.5854  -23.9931 C   0  0  0  0  0  0  0  0  0  0  0  0
   -9.0607   -4.1807  -24.5917 N   0  0  0  0  0  0  0  0  0  0  0  0
   -9.0561   -4.7917  -25.8438 C   0  0  0  0  0  0  0  0  0  0  0  0
  -10.2777   -5.2693  -26.3417 C   0  0  0  0  0  0  0  0  0  0  0  0
  -10.3671   -5.7944  -27.6285 C   0  0  0  0  0  0  0  0  0  0  0  0
   -9.2260   -5.8841  -28.4240 C   0  0  0  0  0  0  0  0  0  0  0  0
   -8.0007   -5.4942  -27.8986 C   0  0  0  0  0  0  0  0  0  0  0  0
   -7.9021   -4.9564  -26.6180 C   0  0  0  0  0  0  0  0  0  0  0  0
   -6.9311   -4.6739  -26.2308 H   0  0  0  0  0  0  0  0  0  0  0  0
   -7.1078   -5.6098  -28.4996 H   0  0  0  0  0  0  0  0  0  0  0  0
   -9.3110   -6.2532  -29.4430 H   0  0  0  0  0  0  0  0  0  0  0  0
  -11.3381   -6.1266  -28.0038 H   0  0  0  0  0  0  0  0  0  0  0  0
  -11.1449   -5.2285  -25.6770 H   0  0  0  0  0  0  0  0  0  0  0  0
   -9.9224   -3.6868  -24.3957 H   0  0  0  0  0  0  0  0  0  0  0  0
   -7.1749   -4.3733  -23.7228 H   0  0  0  0  0  0  0  0  0  0  0  0
   -7.3354   -2.9096  -24.6690 H   0  0  0  0  0  0  0  0  0  0  0  0
   -8.9060   -3.4936  -22.1221 H   0  0  0  0  0  0  0  0  0  0  0  0
   -6.7592   -3.2928  -21.2185 H   0  0  0  0  0  0  0  0  0  0  0  0
   -6.1693   -2.2627  -22.5316 H   0  0  0  0  0  0  0  0  0  0  0  0
  -10.6300   -1.5790  -22.7851 C   0  0  0  0  0  0  0  0  0  0  0  0
  -11.2686   -2.5309  -21.9744 C   0  0  0  0  0  0  0  0  0  0  0  0
  -12.6486   -2.5167  -21.8293 C   0  0  0  0  0  0  0  0  0  0  0  0
  -13.4159   -3.6839  -20.7887 Cl  0  0  0  0  0  0  0  0  0  0  0  0
  -13.4436   -1.5696  -22.4731 C   0  0  0  0  0  0  0  0  0  0  0  0
  -12.8258   -0.6162  -23.2551 C   0  0  0  0  0  0  0  0  0  0  0  0
  -11.4380   -0.6042  -23.3984 C   0  0  0  0  0  0  0  0  0  0  0  0
  -10.8552    0.5378  -24.1778 C   0  0  0  0  0  0  0  0  0  0  0  0
  -11.5595    1.4364  -24.6266 O   0  0  0  0  0  0  0  0  0  0  0  0
  -13.3949    0.1565  -23.7622 H   0  0  0  0  0  0  0  0  0  0  0  0
  -14.5206   -1.5711  -22.3426 H   0  0  0  0  0  0  0  0  0  0  0  0
  -10.7065   -3.2691  -21.4125 H   0  0  0  0  0  0  0  0  0  0  0  0
   -7.6708   -0.3975  -24.0770 H   0  0  0  0  0  0  0  0  0  0  0  0
   -8.8466   -1.3323  -25.0276 H   0  0  0  0  0  0  0  0  0  0  0  0
   -8.3372    1.4225  -25.8486 H   0  0  0  0  0  0  0  0  0  0  0  0
   -9.6113    2.4124  -25.0985 H   0  0  0  0  0  0  0  0  0  0  0  0
   -9.1501    2.7390  -22.5577 H   0  0  0  0  0  0  0  0  0  0  0  0
   -6.6282    2.6083  -21.4999 H   0  0  0  0  0  0  0  0  0  0  0  0
   -7.7839    3.9111  -21.0940 H   0  0  0  0  0  0  0  0  0  0  0  0
   -6.5810    4.1363  -22.3837 H   0  0  0  0  0  0  0  0  0  0  0  0
  1  2  1  0
  2  3  1  0
  3  4  2  0
  3  5  1  0
  5  6  1  0
  6  7  1  0
  8  7  1  6
  8  9  1  0
  9 10  2  0
  9 11  1  0
 11 12  1  0
 12 13  2  0
 13 14  1  0
 14 15  2  0
 15 16  1  0
 16 17  2  0
 17 18  1  0
 18 19  2  0
 19 20  1  0
 20 21  2  0
 20 22  1  0
 19 23  1  0
 18 24  1  0
 17 25  1  0
 15 26  1  0
 13 27  1  0
 11 28  1  0
 28 29  1  0
 29 30  1  0
 30 31  1  0
 31 32  1  0
 32 33  2  0
 33 34  1  0
 34 35  2  0
 35 36  1  0
 36 37  2  0
 37 38  1  0
 36 39  1  0
 35 40  1  0
 34 41  1  0
 33 42  1  0
 31 43  1  0
 30 44  1  0
 30 45  1  0
 29 46  1  1
 28 47  1  0
 28 48  1  0
  8 49  1  0
 49 50  2  0
 50 51  1  0
 51 52  1  0
 51 53  2  0
 53 54  1  0
 54 55  2  0
 55 56  1  0
 56 57  2  0
 54 58  1  0
 53 59  1  0
 50 60  1  0
  7 61  1  0
  7 62  1  0
  5 63  1  0
  5 64  1  0
  2 65  1  0
  1 66  1  0
  1 67  1  0
  1 68  1  0
 56  6  1  0
 29  8  1  0
 37 32  1  0
 55 49  1  0
 21 12  1  0
 21 16  1  0
M  END
>  <cnnaffinities>  (23) 
[6.28661]

>  <score>  (23) 
6.28661

>  <index>  (23) 
23

>  <Smiles>  (23) 
C(N(C(=O)C(N1C([C@@]2(C(=O)N(c3c(nc(c4c(c(c(c(c34)[H])[H])[H])[H])[H])[H])C([C@@]2(C(N(c2c(c(c(c(c2[H])[H])[H])[H])[H])[H])([H])[H])[H])([H])[H])c2c(c(Cl)c(c(c2C1=O)[H])[H])[H])([H])[H])([H])[H])[H])([H])([H])[H]

>  <h>  (23) 
<NA>

>  <Training>  (23) 
True

>  <Success>  (23) 
True

>  <enamine_searched>  (23) 
False

>  <enamine_id>  (23) 
nan

$$$$

     RDKit          3D

 65 70  0  0  0  0  0  0  0  0999 V2000
  -12.8123   -2.2454  -22.7365 O   0  0  0  0  0  0  0  0  0  0  0  0
  -12.5468   -3.4014  -23.0278 C   0  0  0  0  0  0  0  0  0  0  0  0
  -11.2859   -3.8414  -23.7630 C   0  0  0  0  0  0  0  0  0  0  0  0
  -10.4985   -4.7235  -22.8003 N   0  0  1  0  0  4  0  0  0  0  0  0
   -9.5872   -5.6670  -23.5133 C   0  0  0  0  0  0  0  0  0  0  0  0
   -8.4882   -4.9097  -24.2211 C   0  0  0  0  0  0  0  0  0  0  0  0
   -7.9142   -5.4475  -25.3682 C   0  0  0  0  0  0  0  0  0  0  0  0
   -6.9146   -4.7789  -26.0603 C   0  0  0  0  0  0  0  0  0  0  0  0
   -6.4890   -3.5459  -25.5810 C   0  0  0  0  0  0  0  0  0  0  0  0
   -5.2297   -2.6912  -26.4256 Cl  0  0  0  0  0  0  0  0  0  0  0  0
   -7.0466   -2.9919  -24.4395 C   0  0  0  0  0  0  0  0  0  0  0  0
   -8.0617   -3.6616  -23.7475 C   0  0  0  0  0  0  0  0  0  0  0  0
   -8.6275   -2.9965  -22.4976 C   0  0  2  0  0  0  0  0  0  0  0  0
   -9.2059   -1.5721  -22.7457 C   0  0  0  0  0  0  0  0  0  0  0  0
   -8.3672   -0.5642  -21.9347 C   0  0  0  0  0  0  0  0  0  0  0  0
   -7.4037   -1.3947  -21.2353 N   0  0  0  0  0  0  0  0  0  0  0  0
   -6.5873   -0.8887  -20.1924 C   0  0  0  0  0  0  0  0  0  0  0  0
   -6.8897   -1.1499  -18.8802 C   0  0  0  0  0  0  0  0  0  0  0  0
   -6.2277   -0.6105  -17.8271 N   0  0  0  0  0  0  0  0  0  0  0  0
   -5.2328    0.2020  -18.0813 C   0  0  0  0  0  0  0  0  0  0  0  0
   -4.7921    0.5325  -19.3946 C   0  0  0  0  0  0  0  0  0  0  0  0
   -3.6882    1.3945  -19.6238 C   0  0  0  0  0  0  0  0  0  0  0  0
   -3.2801    1.6704  -20.8993 C   0  0  0  0  0  0  0  0  0  0  0  0
   -3.9588    1.1042  -22.0011 C   0  0  0  0  0  0  0  0  0  0  0  0
   -5.0357    0.2750  -21.8055 C   0  0  0  0  0  0  0  0  0  0  0  0
   -5.4842   -0.0277  -20.4911 C   0  0  0  0  0  0  0  0  0  0  0  0
   -5.5464   -0.1617  -22.6593 H   0  0  0  0  0  0  0  0  0  0  0  0
   -3.6244    1.3212  -23.0115 H   0  0  0  0  0  0  0  0  0  0  0  0
   -2.4347    2.3299  -21.0747 H   0  0  0  0  0  0  0  0  0  0  0  0
   -3.1870    1.8303  -18.7634 H   0  0  0  0  0  0  0  0  0  0  0  0
   -4.7114    0.6359  -17.2267 H   0  0  0  0  0  0  0  0  0  0  0  0
   -7.7154   -1.8122  -18.6279 H   0  0  0  0  0  0  0  0  0  0  0  0
   -7.4850   -2.7391  -21.5065 C   0  0  0  0  0  0  0  0  0  0  0  0
   -6.7461   -3.5838  -21.0461 O   0  0  0  0  0  0  0  0  0  0  0  0
   -7.8642    0.1712  -22.5757 H   0  0  0  0  0  0  0  0  0  0  0  0
   -8.9697   -0.0014  -21.2114 H   0  0  0  0  0  0  0  0  0  0  0  0
  -10.2568   -1.5315  -22.4316 H   0  0  0  0  0  0  0  0  0  0  0  0
   -9.1858   -1.3213  -23.8102 H   0  0  0  0  0  0  0  0  0  0  0  0
   -9.6453   -3.9191  -21.8052 C   0  0  0  0  0  0  0  0  0  0  0  0
  -10.3153   -3.3492  -21.1594 H   0  0  0  0  0  0  0  0  0  0  0  0
   -9.1069   -4.6442  -21.1956 H   0  0  0  0  0  0  0  0  0  0  0  0
   -6.6872   -2.0296  -24.0828 H   0  0  0  0  0  0  0  0  0  0  0  0
   -6.4733   -5.2039  -26.9558 H   0  0  0  0  0  0  0  0  0  0  0  0
   -8.2690   -6.4095  -25.7333 H   0  0  0  0  0  0  0  0  0  0  0  0
  -10.1633   -6.2607  -24.2289 H   0  0  0  0  0  0  0  0  0  0  0  0
   -9.1753   -6.3676  -22.7828 H   0  0  0  0  0  0  0  0  0  0  0  0
  -11.1879   -5.2585  -22.2395 H   0  0  0  0  0  0  0  0  0  0  0  0
  -10.6915   -2.9938  -24.0766 H   0  0  0  0  0  0  0  0  0  0  0  0
  -11.5341   -4.4379  -24.6474 H   0  0  0  0  0  0  0  0  0  0  0  0
  -13.3122   -4.4632  -22.6464 N   0  0  0  0  0  0  0  0  0  0  0  0
  -14.4808   -4.1679  -21.7490 C   0  0  0  0  0  0  0  0  0  0  0  0
  -15.2145   -5.2450  -21.2227 C   0  0  2  0  0  0  0  0  0  0  0  0
  -15.5505   -5.4448  -19.7603 C   0  0  0  0  0  0  0  0  0  0  0  0
  -16.8720   -5.6356  -18.9736 C   0  0  1  0  0  0  0  0  0  0  0  0
  -17.8757   -5.6035  -17.2730 F   0  0  0  0  0  0  0  0  0  0  0  0
  -16.7928   -5.4146  -19.1831 C   0  0  0  0  0  0  0  0  0  0  0  0
  -17.1121   -4.4902  -18.5547 H   0  0  0  0  0  0  0  0  0  0  0  0
  -17.9062   -5.3522  -19.6624 H   0  0  0  0  0  0  0  0  0  0  0  0
  -16.9666   -7.0003  -18.3265 H   0  0  0  0  0  0  0  0  0  0  0  0
  -14.8868   -4.6657  -19.3263 H   0  0  0  0  0  0  0  0  0  0  0  0
  -15.0499   -6.4406  -19.6539 H   0  0  0  0  0  0  0  0  0  0  0  0
  -15.6784   -5.9645  -21.8883 H   0  0  0  0  0  0  0  0  0  0  0  0
  -15.0700   -3.4210  -22.3658 H   0  0  0  0  0  0  0  0  0  0  0  0
  -14.0779   -3.5454  -20.8918 H   0  0  0  0  0  0  0  0  0  0  0  0
  -13.0565   -5.3876  -22.9633 H   0  0  0  0  0  0  0  0  0  0  0  0
  1  2  2  0
  2  3  1  0
  3  4  1  0
  4  5  1  0
  5  6  1  0
  6  7  2  0
  7  8  1  0
  8  9  2  0
  9 10  1  0
  9 11  1  0
 11 12  2  0
 12 13  1  0
 13 14  1  6
 14 15  1  0
 15 16  1  0
 16 17  1  0
 17 18  2  0
 18 19  1  0
 19 20  2  0
 20 21  1  0
 21 22  2  0
 22 23  1  0
 23 24  2  0
 24 25  1  0
 25 26  2  0
 25 27  1  0
 24 28  1  0
 23 29  1  0
 22 30  1  0
 20 31  1  0
 18 32  1  0
 16 33  1  0
 33 34  2  0
 15 35  1  0
 15 36  1  0
 14 37  1  0
 14 38  1  0
 13 39  1  0
 39 40  1  0
 39 41  1  0
 11 42  1  0
  8 43  1  0
  7 44  1  0
  5 45  1  0
  5 46  1  0
  4 47  1  1
  3 48  1  0
  3 49  1  0
  2 50  1  0
 50 51  1  0
 51 52  1  0
 52 53  1  0
 53 54  1  0
 54 55  1  0
 54 56  1  0
 56 57  1  0
 56 58  1  0
 54 59  1  6
 53 60  1  0
 53 61  1  0
 52 62  1  6
 51 63  1  0
 51 64  1  0
 50 65  1  0
 39  4  1  0
 56 52  1  0
 12  6  1  0
 33 13  1  0
 26 17  1  0
 26 21  1  0
M  CHG  1   4   1
M  END
>  <cnnaffinities>  (24) 
[6.9466]

>  <score>  (24) 
6.9466

>  <index>  (24) 
24

>  <Smiles>  (24) 
O=C(C([N@+]1(C(c2c(c(c(Cl)c(c2[C@@]2(C(C(N(c3c(nc(c4c(c(c(c(c34)[H])[H])[H])[H])[H])[H])C2=O)([H])[H])([H])[H])C1([H])[H])[H])[H])[H])([H])[H])[H])([H])[H])N(C([C@]1(C([C@@](F)(C1([H])[H])[H])([H])[H])[H])([H])[H])[H]

>  <h>  (24) 
<NA>

>  <Training>  (24) 
True

>  <Success>  (24) 
True

>  <enamine_searched>  (24) 
False

>  <enamine_id>  (24) 
nan

$$$$

     RDKit          3D

 70 75  0  0  0  0  0  0  0  0999 V2000
   -5.6620   -7.5221  -25.6625 O   0  0  0  0  0  0  0  0  0  0  0  0
   -5.6139   -7.0621  -24.5367 C   0  0  0  0  0  0  0  0  0  0  0  0
   -6.8143   -6.3763  -23.8685 C   0  0  0  0  0  0  0  0  0  0  0  0
   -6.7961   -4.8799  -23.9568 N   0  0  1  0  0  4  0  0  0  0  0  0
   -6.7608   -4.5066  -25.4280 C   0  0  0  0  0  0  0  0  0  0  0  0
   -6.7798   -3.0186  -25.6354 C   0  0  0  0  0  0  0  0  0  0  0  0
   -6.2873   -2.4741  -26.8205 C   0  0  0  0  0  0  0  0  0  0  0  0
   -6.3080   -1.1046  -27.0352 C   0  0  0  0  0  0  0  0  0  0  0  0
   -6.8221   -0.2730  -26.0479 C   0  0  0  0  0  0  0  0  0  0  0  0
   -6.8418    1.4473  -26.2993 Cl  0  0  0  0  0  0  0  0  0  0  0  0
   -7.3102   -0.7994  -24.8629 C   0  0  0  0  0  0  0  0  0  0  0  0
   -7.3025   -2.1796  -24.6556 C   0  0  0  0  0  0  0  0  0  0  0  0
   -7.8149   -2.7111  -23.3335 C   0  0  2  0  0  0  0  0  0  0  0  0
   -6.8222   -2.3831  -22.2239 C   0  0  0  0  0  0  0  0  0  0  0  0
   -5.7320   -2.9335  -22.1951 O   0  0  0  0  0  0  0  0  0  0  0  0
   -7.2751   -1.4710  -21.2927 N   0  0  0  0  0  0  0  0  0  0  0  0
   -6.5340   -0.8784  -20.2403 C   0  0  0  0  0  0  0  0  0  0  0  0
   -6.8979   -1.0707  -18.9257 C   0  0  0  0  0  0  0  0  0  0  0  0
   -6.2204   -0.5685  -17.8650 N   0  0  0  0  0  0  0  0  0  0  0  0
   -5.1816    0.1927  -18.1001 C   0  0  0  0  0  0  0  0  0  0  0  0
   -4.7379    0.5190  -19.4117 C   0  0  0  0  0  0  0  0  0  0  0  0
   -3.6228    1.3687  -19.6300 C   0  0  0  0  0  0  0  0  0  0  0  0
   -3.2428    1.6995  -20.9024 C   0  0  0  0  0  0  0  0  0  0  0  0
   -3.9633    1.2027  -22.0140 C   0  0  0  0  0  0  0  0  0  0  0  0
   -5.0419    0.3723  -21.8314 C   0  0  0  0  0  0  0  0  0  0  0  0
   -5.4387   -0.0064  -20.5173 C   0  0  0  0  0  0  0  0  0  0  0  0
   -5.6015    0.0081  -22.6881 H   0  0  0  0  0  0  0  0  0  0  0  0
   -3.6617    1.4723  -23.0214 H   0  0  0  0  0  0  0  0  0  0  0  0
   -2.3878    2.3477  -21.0720 H   0  0  0  0  0  0  0  0  0  0  0  0
   -3.0954    1.7556  -18.7637 H   0  0  0  0  0  0  0  0  0  0  0  0
   -4.6343    0.5946  -17.2436 H   0  0  0  0  0  0  0  0  0  0  0  0
   -7.7600   -1.6883  -18.6673 H   0  0  0  0  0  0  0  0  0  0  0  0
   -8.2780   -1.3985  -21.2101 H   0  0  0  0  0  0  0  0  0  0  0  0
   -8.0078   -4.2277  -23.3228 C   0  0  0  0  0  0  0  0  0  0  0  0
   -8.9047   -4.5093  -23.8815 H   0  0  0  0  0  0  0  0  0  0  0  0
   -8.1120   -4.5737  -22.2910 H   0  0  0  0  0  0  0  0  0  0  0  0
   -8.7484   -2.2054  -23.0830 H   0  0  0  0  0  0  0  0  0  0  0  0
   -7.6830   -0.1324  -24.0918 H   0  0  0  0  0  0  0  0  0  0  0  0
   -5.9267   -0.6827  -27.9571 H   0  0  0  0  0  0  0  0  0  0  0  0
   -5.8835   -3.1354  -27.5857 H   0  0  0  0  0  0  0  0  0  0  0  0
   -7.6393   -4.9794  -25.8863 H   0  0  0  0  0  0  0  0  0  0  0  0
   -5.8852   -4.9636  -25.8908 H   0  0  0  0  0  0  0  0  0  0  0  0
   -5.9774   -4.4568  -23.4612 H   0  0  0  0  0  0  0  0  0  0  0  0
   -7.6879   -6.7677  -24.4027 H   0  0  0  0  0  0  0  0  0  0  0  0
   -6.8652   -6.7073  -22.8286 H   0  0  0  0  0  0  0  0  0  0  0  0
   -4.4844   -7.1243  -23.7626 N   0  0  0  0  0  0  0  0  0  0  0  0
   -3.2780   -7.7472  -24.1754 C   0  0  0  0  0  0  0  0  0  0  0  0
   -2.0568   -7.1075  -23.9521 C   0  0  0  0  0  0  0  0  0  0  0  0
   -0.8762   -7.7108  -24.3778 C   0  0  0  0  0  0  0  0  0  0  0  0
   -0.9082   -8.9485  -25.0210 C   0  0  0  0  0  0  0  0  0  0  0  0
    0.3068   -9.5499  -25.4683 N   0  0  0  0  0  0  0  0  0  0  0  0
    1.3194   -9.8671  -24.4669 C   0  0  0  0  0  0  0  0  0  0  0  0
    2.6362  -10.2242  -25.1318 C   0  0  0  0  0  0  0  0  0  0  0  0
    2.4053  -11.1782  -26.1396 O   0  0  0  0  0  0  0  0  0  0  0  0
    1.6816  -10.6197  -27.2009 C   0  0  0  0  0  0  0  0  0  0  0  0
    0.3882   -9.9386  -26.7824 C   0  0  0  0  0  0  0  0  0  0  0  0
   -0.4858   -9.7165  -27.5997 O   0  0  0  0  0  0  0  0  0  0  0  0
    2.2767   -9.8674  -27.7396 H   0  0  0  0  0  0  0  0  0  0  0  0
    1.4276  -11.4179  -27.8980 H   0  0  0  0  0  0  0  0  0  0  0  0
    3.1353   -9.3378  -25.5492 H   0  0  0  0  0  0  0  0  0  0  0  0
    3.3211  -10.6812  -24.4128 H   0  0  0  0  0  0  0  0  0  0  0  0
    1.4578   -9.0147  -23.7957 H   0  0  0  0  0  0  0  0  0  0  0  0
    0.9733  -10.7151  -23.8659 H   0  0  0  0  0  0  0  0  0  0  0  0
   -2.1291   -9.5981  -25.2067 C   0  0  0  0  0  0  0  0  0  0  0  0
   -3.3080   -8.9977  -24.7890 C   0  0  0  0  0  0  0  0  0  0  0  0
   -4.2642   -9.4788  -24.9620 H   0  0  0  0  0  0  0  0  0  0  0  0
   -2.1645  -10.5626  -25.7072 H   0  0  0  0  0  0  0  0  0  0  0  0
    0.0732   -7.1979  -24.2449 H   0  0  0  0  0  0  0  0  0  0  0  0
   -2.0290   -6.1346  -23.4678 H   0  0  0  0  0  0  0  0  0  0  0  0
   -4.4597   -6.5475  -22.9383 H   0  0  0  0  0  0  0  0  0  0  0  0
  1  2  2  0
  2  3  1  0
  3  4  1  0
  4  5  1  0
  5  6  1  0
  6  7  2  0
  7  8  1  0
  8  9  2  0
  9 10  1  0
  9 11  1  0
 11 12  2  0
 12 13  1  0
 13 14  1  0
 14 15  2  0
 14 16  1  0
 16 17  1  0
 17 18  2  0
 18 19  1  0
 19 20  2  0
 20 21  1  0
 21 22  2  0
 22 23  1  0
 23 24  2  0
 24 25  1  0
 25 26  2  0
 25 27  1  0
 24 28  1  0
 23 29  1  0
 22 30  1  0
 20 31  1  0
 18 32  1  0
 16 33  1  0
 13 34  1  0
 34 35  1  0
 34 36  1  0
 13 37  1  1
 11 38  1  0
  8 39  1  0
  7 40  1  0
  5 41  1  0
  5 42  1  0
  4 43  1  1
  3 44  1  0
  3 45  1  0
  2 46  1  0
 46 47  1  0
 47 48  2  0
 48 49  1  0
 49 50  2  0
 50 51  1  0
 51 52  1  0
 52 53  1  0
 53 54  1  0
 54 55  1  0
 55 56  1  0
 56 57  2  0
 55 58  1  0
 55 59  1  0
 53 60  1  0
 53 61  1  0
 52 62  1  0
 52 63  1  0
 50 64  1  0
 64 65  2  0
 65 66  1  0
 64 67  1  0
 49 68  1  0
 48 69  1  0
 46 70  1  0
 34  4  1  0
 65 47  1  0
 12  6  1  0
 26 17  1  0
 56 51  1  0
 26 21  1  0
M  CHG  1   4   1
M  END
>  <cnnaffinities>  (25) 
[6.35622]

>  <score>  (25) 
6.35622

>  <index>  (25) 
25

>  <Smiles>  (25) 
O=C(C([N@+]1(C(c2c(c(c(Cl)c(c2[C@](C(=O)N(c2c(nc(c3c(c(c(c(c23)[H])[H])[H])[H])[H])[H])[H])(C1([H])[H])[H])[H])[H])[H])([H])[H])[H])([H])[H])N(c1c(c(c(N2C(C(OC(C2=O)([H])[H])([H])[H])([H])[H])c(c1[H])[H])[H])[H])[H]

>  <h>  (25) 
<NA>

>  <Training>  (25) 
True

>  <Success>  (25) 
True

>  <enamine_searched>  (25) 
False

>  <enamine_id>  (25) 
nan

$$$$

     RDKit          3D

 55 60  0  0  0  0  0  0  0  0999 V2000
  -10.4795   -1.1996  -23.2254 C   0  0  0  0  0  0  0  0  0  0  0  0
   -9.0247   -1.5381  -22.9172 C   0  0  1  0  0  0  0  0  0  0  0  0
   -8.3887   -0.5578  -21.9175 C   0  0  0  0  0  0  0  0  0  0  0  0
   -7.3950   -1.3552  -21.2272 N   0  0  0  0  0  0  0  0  0  0  0  0
   -6.5848   -0.8381  -20.1842 C   0  0  0  0  0  0  0  0  0  0  0  0
   -6.8932   -1.0804  -18.8683 C   0  0  0  0  0  0  0  0  0  0  0  0
   -6.2074   -0.5612  -17.8179 N   0  0  0  0  0  0  0  0  0  0  0  0
   -5.1836    0.2108  -18.0838 C   0  0  0  0  0  0  0  0  0  0  0  0
   -4.7417    0.5216  -19.4015 C   0  0  0  0  0  0  0  0  0  0  0  0
   -3.6160    1.3485  -19.6379 C   0  0  0  0  0  0  0  0  0  0  0  0
   -3.2134    1.6213  -20.9182 C   0  0  0  0  0  0  0  0  0  0  0  0
   -3.9178    1.0781  -22.0174 C   0  0  0  0  0  0  0  0  0  0  0  0
   -5.0118    0.2732  -21.8159 C   0  0  0  0  0  0  0  0  0  0  0  0
   -5.4573   -0.0154  -20.4961 C   0  0  0  0  0  0  0  0  0  0  0  0
   -5.5390   -0.1531  -22.6659 H   0  0  0  0  0  0  0  0  0  0  0  0
   -3.5883    1.2982  -23.0302 H   0  0  0  0  0  0  0  0  0  0  0  0
   -2.3537    2.2577  -21.0990 H   0  0  0  0  0  0  0  0  0  0  0  0
   -3.0966    1.7650  -18.7800 H   0  0  0  0  0  0  0  0  0  0  0  0
   -4.6379    0.6359  -17.2391 H   0  0  0  0  0  0  0  0  0  0  0  0
   -7.7352   -1.7229  -18.6155 H   0  0  0  0  0  0  0  0  0  0  0  0
   -7.5498   -2.7125  -21.4158 C   0  0  0  0  0  0  0  0  0  0  0  0
   -6.7826   -3.5435  -20.9775 O   0  0  0  0  0  0  0  0  0  0  0  0
   -8.7859   -2.9582  -22.3053 C   0  0  1  0  0  0  0  0  0  0  0  0
   -9.9598   -3.4314  -21.4250 C   0  0  0  0  0  0  0  0  0  0  0  0
  -11.0736   -3.9984  -22.1672 N   0  0  0  0  0  0  0  0  0  0  0  0
  -12.4280   -3.9083  -21.6405 C   0  0  0  0  0  0  0  0  0  0  0  0
  -13.2820   -2.8027  -22.1891 C   0  0  0  0  0  0  0  0  0  0  0  0
  -13.9587   -2.8438  -23.4125 C   0  0  0  0  0  0  0  0  0  0  0  0
  -14.6831   -1.7382  -23.5572 N   0  0  0  0  0  0  0  0  0  0  0  0
  -14.4397   -1.0917  -22.4357 N   0  0  0  0  0  0  0  0  0  0  0  0
  -13.6189   -1.6755  -21.5728 N   0  0  0  0  0  0  0  0  0  0  0  0
  -14.8514   -0.1885  -22.2535 H   0  0  0  0  0  0  0  0  0  0  0  0
  -13.8851   -3.6328  -24.1408 H   0  0  0  0  0  0  0  0  0  0  0  0
  -12.4220   -3.9217  -20.5497 H   0  0  0  0  0  0  0  0  0  0  0  0
  -12.9092   -4.8129  -21.9972 H   0  0  0  0  0  0  0  0  0  0  0  0
  -10.9307   -4.6787  -23.3459 C   0  0  0  0  0  0  0  0  0  0  0  0
  -11.8961   -5.0889  -23.9845 O   0  0  0  0  0  0  0  0  0  0  0  0
   -9.5320   -4.8496  -23.8222 C   0  0  0  0  0  0  0  0  0  0  0  0
   -9.2791   -5.8042  -24.8058 C   0  0  0  0  0  0  0  0  0  0  0  0
   -8.0192   -5.9018  -25.3691 C   0  0  0  0  0  0  0  0  0  0  0  0
   -7.0298   -5.0284  -24.9279 C   0  0  0  0  0  0  0  0  0  0  0  0
   -5.8219   -5.0704  -25.5132 F   0  0  0  0  0  0  0  0  0  0  0  0
   -7.2476   -4.1088  -23.9228 C   0  0  0  0  0  0  0  0  0  0  0  0
   -8.5134   -4.0199  -23.3433 C   0  0  0  0  0  0  0  0  0  0  0  0
   -6.4479   -3.4516  -23.6017 H   0  0  0  0  0  0  0  0  0  0  0  0
   -7.7982   -6.5905  -26.1767 H   0  0  0  0  0  0  0  0  0  0  0  0
  -10.0980   -6.4546  -25.1072 H   0  0  0  0  0  0  0  0  0  0  0  0
  -10.3278   -2.5856  -20.8418 H   0  0  0  0  0  0  0  0  0  0  0  0
   -9.5682   -4.1699  -20.7356 H   0  0  0  0  0  0  0  0  0  0  0  0
   -9.1341   -0.1696  -21.2092 H   0  0  0  0  0  0  0  0  0  0  0  0
   -7.9311    0.3052  -22.4139 H   0  0  0  0  0  0  0  0  0  0  0  0
   -8.4375   -1.4950  -23.8452 H   0  0  0  0  0  0  0  0  0  0  0  0
  -10.5547   -0.2391  -23.7398 H   0  0  0  0  0  0  0  0  0  0  0  0
  -10.9533   -1.9670  -23.8483 H   0  0  0  0  0  0  0  0  0  0  0  0
  -11.0632   -1.1204  -22.3030 H   0  0  0  0  0  0  0  0  0  0  0  0
  1  2  1  0
  2  3  1  0
  3  4  1  0
  4  5  1  0
  5  6  2  0
  6  7  1  0
  7  8  2  0
  8  9  1  0
  9 10  2  0
 10 11  1  0
 11 12  2  0
 12 13  1  0
 13 14  2  0
 13 15  1  0
 12 16  1  0
 11 17  1  0
 10 18  1  0
  8 19  1  0
  6 20  1  0
  4 21  1  0
 21 22  2  0
 21 23  1  0
 23 24  1  1
 24 25  1  0
 25 26  1  0
 26 27  1  0
 27 28  1  0
 28 29  2  0
 29 30  1  0
 30 31  1  0
 30 32  1  0
 28 33  1  0
 26 34  1  0
 26 35  1  0
 25 36  1  0
 36 37  2  0
 36 38  1  0
 38 39  2  0
 39 40  1  0
 40 41  2  0
 41 42  1  0
 41 43  1  0
 43 44  2  0
 43 45  1  0
 40 46  1  0
 39 47  1  0
 24 48  1  0
 24 49  1  0
  3 50  1  0
  3 51  1  0
  2 52  1  6
  1 53  1  0
  1 54  1  0
  1 55  1  0
 23  2  1  0
 31 27  2  0
 44 38  1  0
 14  5  1  0
 44 23  1  0
 14  9  1  0
M  END
>  <cnnaffinities>  (26) 
[6.89146]

>  <score>  (26) 
6.89146

>  <index>  (26) 
26

>  <Smiles>  (26) 
C([C@]1(C(N(c2c(nc(c3c(c(c(c(c23)[H])[H])[H])[H])[H])[H])C(=O)[C@]21C(N(C(c1c(nn(n1)[H])[H])([H])[H])C(=O)c1c(c(c(F)c(c21)[H])[H])[H])([H])[H])([H])[H])[H])([H])([H])[H]

>  <h>  (26) 
<NA>

>  <Training>  (26) 
True

>  <Success>  (26) 
True

>  <enamine_searched>  (26) 
False

>  <enamine_id>  (26) 
nan

$$$$

     RDKit          3D

 58 62  0  0  0  0  0  0  0  0999 V2000
  -14.9340   -3.3980  -23.3274 C   0  0  0  0  0  0  0  0  0  0  0  0
  -13.6757   -2.6642  -23.1043 N   0  0  0  0  0  4  0  0  0  0  0  0
  -13.2151   -2.7082  -21.6959 C   0  0  0  0  0  0  0  0  0  0  0  0
  -12.3545   -3.9514  -21.4940 C   0  0  0  0  0  0  0  0  0  0  0  0
  -11.0747   -3.8551  -22.1933 N   0  0  0  0  0  0  0  0  0  0  0  0
   -9.9372   -3.2607  -21.5103 C   0  0  0  0  0  0  0  0  0  0  0  0
   -8.7631   -2.8333  -22.4258 C   0  0  2  0  0  0  0  0  0  0  0  0
   -7.5508   -2.6496  -21.4955 C   0  0  0  0  0  0  0  0  0  0  0  0
   -6.8335   -3.5088  -21.0249 O   0  0  0  0  0  0  0  0  0  0  0  0
   -7.3840   -1.3028  -21.2623 N   0  0  0  0  0  0  0  0  0  0  0  0
   -6.5757   -0.8341  -20.2025 C   0  0  0  0  0  0  0  0  0  0  0  0
   -6.8790   -1.1211  -18.8957 C   0  0  0  0  0  0  0  0  0  0  0  0
   -6.2082   -0.5963  -17.8390 N   0  0  0  0  0  0  0  0  0  0  0  0
   -5.2080    0.2116  -18.0852 C   0  0  0  0  0  0  0  0  0  0  0  0
   -4.7570    0.5485  -19.3957 C   0  0  0  0  0  0  0  0  0  0  0  0
   -3.6379    1.3913  -19.6348 C   0  0  0  0  0  0  0  0  0  0  0  0
   -3.2322    1.6557  -20.9131 C   0  0  0  0  0  0  0  0  0  0  0  0
   -3.9216    1.1002  -22.0154 C   0  0  0  0  0  0  0  0  0  0  0  0
   -5.0110    0.2872  -21.8101 C   0  0  0  0  0  0  0  0  0  0  0  0
   -5.4567    0.0042  -20.4933 C   0  0  0  0  0  0  0  0  0  0  0  0
   -5.5344   -0.1600  -22.6482 H   0  0  0  0  0  0  0  0  0  0  0  0
   -3.5852    1.3024  -23.0279 H   0  0  0  0  0  0  0  0  0  0  0  0
   -2.3685    2.2911  -21.0957 H   0  0  0  0  0  0  0  0  0  0  0  0
   -3.1184    1.8121  -18.7770 H   0  0  0  0  0  0  0  0  0  0  0  0
   -4.6889    0.6369  -17.2239 H   0  0  0  0  0  0  0  0  0  0  0  0
   -7.6985   -1.7947  -18.6509 H   0  0  0  0  0  0  0  0  0  0  0  0
   -8.3819   -0.4694  -21.9085 C   0  0  0  0  0  0  0  0  0  0  0  0
   -8.9458   -1.3868  -23.0027 C   0  0  2  0  0  0  0  0  0  0  0  0
  -10.3472   -0.9956  -23.4619 C   0  0  0  0  0  0  0  0  0  0  0  0
  -11.0509   -0.9585  -22.6243 H   0  0  0  0  0  0  0  0  0  0  0  0
  -10.7411   -1.6989  -24.2044 H   0  0  0  0  0  0  0  0  0  0  0  0
  -10.3465    0.0048  -23.9035 H   0  0  0  0  0  0  0  0  0  0  0  0
   -8.2686   -1.3315  -23.8637 H   0  0  0  0  0  0  0  0  0  0  0  0
   -7.9321    0.4467  -22.3043 H   0  0  0  0  0  0  0  0  0  0  0  0
   -9.1610   -0.1599  -21.1940 H   0  0  0  0  0  0  0  0  0  0  0  0
   -8.5335   -3.8959  -23.4737 C   0  0  0  0  0  0  0  0  0  0  0  0
   -7.2728   -4.1512  -24.0252 C   0  0  0  0  0  0  0  0  0  0  0  0
   -7.1498   -5.1627  -24.9583 C   0  0  0  0  0  0  0  0  0  0  0  0
   -5.9388   -5.4017  -25.4866 F   0  0  0  0  0  0  0  0  0  0  0  0
   -8.2159   -5.9557  -25.3696 C   0  0  0  0  0  0  0  0  0  0  0  0
   -9.4669   -5.6677  -24.8612 C   0  0  0  0  0  0  0  0  0  0  0  0
   -9.6241   -4.6329  -23.9446 C   0  0  0  0  0  0  0  0  0  0  0  0
  -10.9905   -4.3095  -23.4665 C   0  0  0  0  0  0  0  0  0  0  0  0
  -11.9927   -4.4501  -24.1809 O   0  0  0  0  0  0  0  0  0  0  0  0
  -10.3398   -6.2499  -25.1437 H   0  0  0  0  0  0  0  0  0  0  0  0
   -8.0488   -6.7746  -26.0624 H   0  0  0  0  0  0  0  0  0  0  0  0
   -6.3882   -3.6143  -23.6964 H   0  0  0  0  0  0  0  0  0  0  0  0
  -10.2583   -2.3838  -20.9374 H   0  0  0  0  0  0  0  0  0  0  0  0
   -9.5351   -3.9643  -20.7877 H   0  0  0  0  0  0  0  0  0  0  0  0
  -12.9161   -4.7777  -21.9275 H   0  0  0  0  0  0  0  0  0  0  0  0
  -12.2056   -4.1937  -20.4397 H   0  0  0  0  0  0  0  0  0  0  0  0
  -12.6481   -1.7988  -21.4895 H   0  0  0  0  0  0  0  0  0  0  0  0
  -14.0760   -2.7248  -21.0254 H   0  0  0  0  0  0  0  0  0  0  0  0
  -13.7626   -1.6808  -23.4126 H   0  0  0  0  0  0  0  0  0  0  0  0
  -12.9645   -3.1338  -23.6925 H   0  0  0  0  0  0  0  0  0  0  0  0
  -15.3328   -3.1830  -24.3174 H   0  0  0  0  0  0  0  0  0  0  0  0
  -15.6710   -3.1149  -22.5796 H   0  0  0  0  0  0  0  0  0  0  0  0
  -14.7872   -4.4811  -23.2427 H   0  0  0  0  0  0  0  0  0  0  0  0
  1  2  1  0
  2  3  1  0
  3  4  1  0
  4  5  1  0
  5  6  1  0
  7  6  1  1
  7  8  1  0
  8  9  2  0
  8 10  1  0
 10 11  1  0
 11 12  2  0
 12 13  1  0
 13 14  2  0
 14 15  1  0
 15 16  2  0
 16 17  1  0
 17 18  2  0
 18 19  1  0
 19 20  2  0
 19 21  1  0
 18 22  1  0
 17 23  1  0
 16 24  1  0
 14 25  1  0
 12 26  1  0
 10 27  1  0
 27 28  1  0
 28 29  1  0
 29 30  1  0
 29 31  1  0
 29 32  1  0
 28 33  1  6
 27 34  1  0
 27 35  1  0
  7 36  1  0
 36 37  2  0
 37 38  1  0
 38 39  1  0
 38 40  2  0
 40 41  1  0
 41 42  2  0
 42 43  1  0
 43 44  2  0
 41 45  1  0
 40 46  1  0
 37 47  1  0
  6 48  1  0
  6 49  1  0
  4 50  1  0
  4 51  1  0
  3 52  1  0
  3 53  1  0
  2 54  1  0
  2 55  1  0
  1 56  1  0
  1 57  1  0
  1 58  1  0
 43  5  1  0
 28  7  1  0
 42 36  1  0
 20 11  1  0
 20 15  1  0
M  CHG  1   2   1
M  END
>  <cnnaffinities>  (27) 
[6.38579, 6.43597]

>  <score>  (27) 
6.38579

>  <index>  (27) 
27

>  <Smiles>  (27) 
C([N+](C(C(N1C([C@@]2(C(=O)N(c3c(nc(c4c(c(c(c(c34)[H])[H])[H])[H])[H])[H])C([C@@]2(C([H])([H])[H])[H])([H])[H])c2c(c(F)c(c(c2C1=O)[H])[H])[H])([H])[H])([H])[H])([H])[H])([H])[H])([H])([H])[H]

>  <h>  (27) 
<NA>

>  <Training>  (27) 
True

>  <Success>  (27) 
True

>  <enamine_searched>  (27) 
False

>  <enamine_id>  (27) 
nan

$$$$

     RDKit          3D

 64 68  0  0  0  0  0  0  0  0999 V2000
   -7.4039    3.3493  -21.7923 C   0  0  0  0  0  0  0  0  0  0  0  0
   -8.3556    2.9054  -22.7983 N   0  0  0  0  0  0  0  0  0  0  0  0
   -7.8404    2.1917  -23.8395 C   0  0  0  0  0  0  0  0  0  0  0  0
   -6.6308    2.0395  -23.9893 O   0  0  0  0  0  0  0  0  0  0  0  0
   -8.8325    1.5906  -24.8299 C   0  0  0  0  0  0  0  0  0  0  0  0
   -9.4875    0.4214  -24.2825 N   0  0  0  0  0  0  0  0  0  0  0  0
   -8.7289   -0.8109  -24.1492 C   0  0  0  0  0  0  0  0  0  0  0  0
   -9.0905   -1.5615  -22.8476 C   0  0  2  0  0  0  0  0  0  0  0  0
   -8.5554   -0.7819  -21.6245 C   0  0  0  0  0  0  0  0  0  0  0  0
   -9.0372    0.2082  -21.1131 O   0  0  0  0  0  0  0  0  0  0  0  0
   -7.4007   -1.3968  -21.1980 N   0  0  0  0  0  0  0  0  0  0  0  0
   -6.6016   -0.8216  -20.1801 C   0  0  0  0  0  0  0  0  0  0  0  0
   -6.9174   -1.0466  -18.8649 C   0  0  0  0  0  0  0  0  0  0  0  0
   -6.2167   -0.5525  -17.8181 N   0  0  0  0  0  0  0  0  0  0  0  0
   -5.1809    0.2042  -18.0844 C   0  0  0  0  0  0  0  0  0  0  0  0
   -4.7432    0.5230  -19.4011 C   0  0  0  0  0  0  0  0  0  0  0  0
   -3.6211    1.3593  -19.6419 C   0  0  0  0  0  0  0  0  0  0  0  0
   -3.2363    1.6575  -20.9195 C   0  0  0  0  0  0  0  0  0  0  0  0
   -3.9572    1.1406  -22.0184 C   0  0  0  0  0  0  0  0  0  0  0  0
   -5.0487    0.3290  -21.8134 C   0  0  0  0  0  0  0  0  0  0  0  0
   -5.4694   -0.0065  -20.4962 C   0  0  0  0  0  0  0  0  0  0  0  0
   -5.6060   -0.0348  -22.6726 H   0  0  0  0  0  0  0  0  0  0  0  0
   -3.6546    1.3836  -23.0318 H   0  0  0  0  0  0  0  0  0  0  0  0
   -2.3796    2.2993  -21.0955 H   0  0  0  0  0  0  0  0  0  0  0  0
   -3.0931    1.7646  -18.7833 H   0  0  0  0  0  0  0  0  0  0  0  0
   -4.6190    0.6027  -17.2384 H   0  0  0  0  0  0  0  0  0  0  0  0
   -7.7825   -1.6590  -18.6218 H   0  0  0  0  0  0  0  0  0  0  0  0
   -7.0382   -2.5850  -21.9372 C   0  0  0  0  0  0  0  0  0  0  0  0
   -8.3195   -2.9115  -22.7271 C   0  0  2  0  0  0  0  0  0  0  0  0
   -8.0524   -3.6886  -24.0190 C   0  0  0  0  0  0  0  0  0  0  0  0
   -7.4657   -5.3428  -23.6622 S   0  0  0  0  0  0  0  0  0  0  0  0
   -6.1075   -5.2720  -23.1395 O   0  0  0  0  0  0  0  0  0  0  0  0
   -8.4955   -6.0459  -22.9024 O   0  0  0  0  0  0  0  0  0  0  0  0
   -7.3009   -5.9745  -25.2001 N   0  0  0  0  0  0  0  0  0  0  0  0
   -8.4859   -6.3656  -25.9587 C   0  0  0  0  0  0  0  0  0  0  0  0
   -9.0106   -5.4800  -26.3258 H   0  0  0  0  0  0  0  0  0  0  0  0
   -9.1809   -6.9827  -25.3826 H   0  0  0  0  0  0  0  0  0  0  0  0
   -8.1547   -6.9260  -26.8380 H   0  0  0  0  0  0  0  0  0  0  0  0
   -6.5971   -6.6999  -25.1434 H   0  0  0  0  0  0  0  0  0  0  0  0
   -8.9616   -3.7950  -24.6178 H   0  0  0  0  0  0  0  0  0  0  0  0
   -7.2876   -3.2222  -24.6455 H   0  0  0  0  0  0  0  0  0  0  0  0
   -8.9252   -3.5749  -22.1118 H   0  0  0  0  0  0  0  0  0  0  0  0
   -6.1837   -2.3989  -22.6053 H   0  0  0  0  0  0  0  0  0  0  0  0
   -6.7568   -3.3927  -21.2568 H   0  0  0  0  0  0  0  0  0  0  0  0
  -10.6011   -1.6468  -22.7634 C   0  0  0  0  0  0  0  0  0  0  0  0
  -11.2131   -2.5735  -21.9172 C   0  0  0  0  0  0  0  0  0  0  0  0
  -12.5910   -2.6017  -21.8037 C   0  0  0  0  0  0  0  0  0  0  0  0
  -13.3165   -3.7459  -20.7162 Cl  0  0  0  0  0  0  0  0  0  0  0  0
  -13.4130   -1.7266  -22.5134 C   0  0  0  0  0  0  0  0  0  0  0  0
  -12.8125   -0.7785  -23.3136 C   0  0  0  0  0  0  0  0  0  0  0  0
  -11.4251   -0.7169  -23.4110 C   0  0  0  0  0  0  0  0  0  0  0  0
  -10.8493    0.4309  -24.1726 C   0  0  0  0  0  0  0  0  0  0  0  0
  -11.5443    1.3250  -24.6318 O   0  0  0  0  0  0  0  0  0  0  0  0
  -13.3905   -0.0450  -23.8634 H   0  0  0  0  0  0  0  0  0  0  0  0
  -14.4919   -1.7834  -22.4097 H   0  0  0  0  0  0  0  0  0  0  0  0
  -10.6241   -3.2677  -21.3276 H   0  0  0  0  0  0  0  0  0  0  0  0
   -7.6621   -0.5659  -24.1683 H   0  0  0  0  0  0  0  0  0  0  0  0
   -8.9441   -1.4688  -25.0006 H   0  0  0  0  0  0  0  0  0  0  0  0
   -9.6258    2.2973  -25.1023 H   0  0  0  0  0  0  0  0  0  0  0  0
   -8.2531    1.3209  -25.7181 H   0  0  0  0  0  0  0  0  0  0  0  0
   -9.3118    2.7536  -22.4883 H   0  0  0  0  0  0  0  0  0  0  0  0
   -6.7759    2.5040  -21.4749 H   0  0  0  0  0  0  0  0  0  0  0  0
   -6.7475    4.1202  -22.2066 H   0  0  0  0  0  0  0  0  0  0  0  0
   -7.9352    3.7751  -20.9400 H   0  0  0  0  0  0  0  0  0  0  0  0
  1  2  1  0
  2  3  1  0
  3  4  2  0
  3  5  1  0
  5  6  1  0
  6  7  1  0
  8  7  1  6
  8  9  1  0
  9 10  2  0
  9 11  1  0
 11 12  1  0
 12 13  2  0
 13 14  1  0
 14 15  2  0
 15 16  1  0
 16 17  2  0
 17 18  1  0
 18 19  2  0
 19 20  1  0
 20 21  2  0
 20 22  1  0
 19 23  1  0
 18 24  1  0
 17 25  1  0
 15 26  1  0
 13 27  1  0
 11 28  1  0
 28 29  1  0
 29 30  1  0
 30 31  1  0
 31 32  2  0
 31 33  2  0
 31 34  1  0
 34 35  1  0
 35 36  1  0
 35 37  1  0
 35 38  1  0
 34 39  1  0
 30 40  1  0
 30 41  1  0
 29 42  1  1
 28 43  1  0
 28 44  1  0
  8 45  1  0
 45 46  2  0
 46 47  1  0
 47 48  1  0
 47 49  2  0
 49 50  1  0
 50 51  2  0
 51 52  1  0
 52 53  2  0
 50 54  1  0
 49 55  1  0
 46 56  1  0
  7 57  1  0
  7 58  1  0
  5 59  1  0
  5 60  1  0
  2 61  1  0
  1 62  1  0
  1 63  1  0
  1 64  1  0
 52  6  1  0
 29  8  1  0
 51 45  1  0
 21 12  1  0
 21 16  1  0
M  END
>  <cnnaffinities>  (28) 
[6.48108]

>  <score>  (28) 
6.48108

>  <index>  (28) 
28

>  <Smiles>  (28) 
C(N(C(=O)C(N1C([C@@]2(C(=O)N(c3c(nc(c4c(c(c(c(c34)[H])[H])[H])[H])[H])[H])C([C@@]2(C(S(=O)(=O)N(C([H])([H])[H])[H])([H])[H])[H])([H])[H])c2c(c(Cl)c(c(c2C1=O)[H])[H])[H])([H])[H])([H])[H])[H])([H])([H])[H]

>  <h>  (28) 
<NA>

>  <Training>  (28) 
True

>  <Success>  (28) 
True

>  <enamine_searched>  (28) 
False

>  <enamine_id>  (28) 
nan

$$$$

     RDKit          3D

 55 60  0  0  0  0  0  0  0  0999 V2000
  -10.4795   -1.1996  -23.2255 C   0  0  0  0  0  0  0  0  0  0  0  0
   -9.0247   -1.5381  -22.9172 C   0  0  1  0  0  0  0  0  0  0  0  0
   -8.3887   -0.5578  -21.9175 C   0  0  0  0  0  0  0  0  0  0  0  0
   -7.3950   -1.3552  -21.2272 N   0  0  0  0  0  0  0  0  0  0  0  0
   -6.5848   -0.8381  -20.1842 C   0  0  0  0  0  0  0  0  0  0  0  0
   -6.8932   -1.0804  -18.8683 C   0  0  0  0  0  0  0  0  0  0  0  0
   -6.2074   -0.5612  -17.8179 N   0  0  0  0  0  0  0  0  0  0  0  0
   -5.1836    0.2108  -18.0838 C   0  0  0  0  0  0  0  0  0  0  0  0
   -4.7417    0.5216  -19.4015 C   0  0  0  0  0  0  0  0  0  0  0  0
   -3.6160    1.3485  -19.6379 C   0  0  0  0  0  0  0  0  0  0  0  0
   -3.2134    1.6213  -20.9182 C   0  0  0  0  0  0  0  0  0  0  0  0
   -3.9178    1.0781  -22.0174 C   0  0  0  0  0  0  0  0  0  0  0  0
   -5.0118    0.2731  -21.8159 C   0  0  0  0  0  0  0  0  0  0  0  0
   -5.4573   -0.0154  -20.4961 C   0  0  0  0  0  0  0  0  0  0  0  0
   -5.5390   -0.1531  -22.6659 H   0  0  0  0  0  0  0  0  0  0  0  0
   -3.5883    1.2982  -23.0302 H   0  0  0  0  0  0  0  0  0  0  0  0
   -2.3537    2.2577  -21.0990 H   0  0  0  0  0  0  0  0  0  0  0  0
   -3.0966    1.7650  -18.7800 H   0  0  0  0  0  0  0  0  0  0  0  0
   -4.6379    0.6359  -17.2391 H   0  0  0  0  0  0  0  0  0  0  0  0
   -7.7352   -1.7229  -18.6155 H   0  0  0  0  0  0  0  0  0  0  0  0
   -7.5498   -2.7125  -21.4158 C   0  0  0  0  0  0  0  0  0  0  0  0
   -6.7826   -3.5435  -20.9775 O   0  0  0  0  0  0  0  0  0  0  0  0
   -8.7859   -2.9582  -22.3053 C   0  0  1  0  0  0  0  0  0  0  0  0
   -9.9598   -3.4314  -21.4250 C   0  0  0  0  0  0  0  0  0  0  0  0
  -11.0736   -3.9984  -22.1672 N   0  0  0  0  0  0  0  0  0  0  0  0
  -12.4280   -3.9083  -21.6406 C   0  0  0  0  0  0  0  0  0  0  0  0
  -13.2820   -2.8027  -22.1892 C   0  0  0  0  0  0  0  0  0  0  0  0
  -13.9587   -2.8438  -23.4125 C   0  0  0  0  0  0  0  0  0  0  0  0
  -14.6832   -1.7382  -23.5572 N   0  0  0  0  0  0  0  0  0  0  0  0
  -14.4397   -1.0917  -22.4357 N   0  0  0  0  0  0  0  0  0  0  0  0
  -13.6189   -1.6755  -21.5728 N   0  0  0  0  0  0  0  0  0  0  0  0
  -14.8514   -0.1885  -22.2535 H   0  0  0  0  0  0  0  0  0  0  0  0
  -13.8851   -3.6328  -24.1408 H   0  0  0  0  0  0  0  0  0  0  0  0
  -12.4220   -3.9217  -20.5498 H   0  0  0  0  0  0  0  0  0  0  0  0
  -12.9092   -4.8129  -21.9973 H   0  0  0  0  0  0  0  0  0  0  0  0
  -10.9307   -4.6787  -23.3459 C   0  0  0  0  0  0  0  0  0  0  0  0
  -11.8961   -5.0888  -23.9845 O   0  0  0  0  0  0  0  0  0  0  0  0
   -9.5320   -4.8496  -23.8222 C   0  0  0  0  0  0  0  0  0  0  0  0
   -9.2791   -5.8042  -24.8058 C   0  0  0  0  0  0  0  0  0  0  0  0
   -8.0192   -5.9018  -25.3691 C   0  0  0  0  0  0  0  0  0  0  0  0
   -7.0298   -5.0284  -24.9279 C   0  0  0  0  0  0  0  0  0  0  0  0
   -5.8219   -5.0704  -25.5132 F   0  0  0  0  0  0  0  0  0  0  0  0
   -7.2477   -4.1088  -23.9228 C   0  0  0  0  0  0  0  0  0  0  0  0
   -8.5134   -4.0199  -23.3433 C   0  0  0  0  0  0  0  0  0  0  0  0
   -6.4479   -3.4516  -23.6017 H   0  0  0  0  0  0  0  0  0  0  0  0
   -7.7982   -6.5905  -26.1767 H   0  0  0  0  0  0  0  0  0  0  0  0
  -10.0980   -6.4546  -25.1072 H   0  0  0  0  0  0  0  0  0  0  0  0
  -10.3279   -2.5856  -20.8418 H   0  0  0  0  0  0  0  0  0  0  0  0
   -9.5682   -4.1699  -20.7356 H   0  0  0  0  0  0  0  0  0  0  0  0
   -9.1341   -0.1696  -21.2092 H   0  0  0  0  0  0  0  0  0  0  0  0
   -7.9311    0.3052  -22.4139 H   0  0  0  0  0  0  0  0  0  0  0  0
   -8.4375   -1.4950  -23.8452 H   0  0  0  0  0  0  0  0  0  0  0  0
  -10.5547   -0.2391  -23.7399 H   0  0  0  0  0  0  0  0  0  0  0  0
  -10.9533   -1.9670  -23.8483 H   0  0  0  0  0  0  0  0  0  0  0  0
  -11.0632   -1.1204  -22.3030 H   0  0  0  0  0  0  0  0  0  0  0  0
  1  2  1  0
  2  3  1  0
  3  4  1  0
  4  5  1  0
  5  6  2  0
  6  7  1  0
  7  8  2  0
  8  9  1  0
  9 10  2  0
 10 11  1  0
 11 12  2  0
 12 13  1  0
 13 14  2  0
 13 15  1  0
 12 16  1  0
 11 17  1  0
 10 18  1  0
  8 19  1  0
  6 20  1  0
  4 21  1  0
 21 22  2  0
 21 23  1  0
 23 24  1  1
 24 25  1  0
 25 26  1  0
 26 27  1  0
 27 28  1  0
 28 29  2  0
 29 30  1  0
 30 31  1  0
 30 32  1  0
 28 33  1  0
 26 34  1  0
 26 35  1  0
 25 36  1  0
 36 37  2  0
 36 38  1  0
 38 39  2  0
 39 40  1  0
 40 41  2  0
 41 42  1  0
 41 43  1  0
 43 44  2  0
 43 45  1  0
 40 46  1  0
 39 47  1  0
 24 48  1  0
 24 49  1  0
  3 50  1  0
  3 51  1  0
  2 52  1  6
  1 53  1  0
  1 54  1  0
  1 55  1  0
 23  2  1  0
 31 27  2  0
 44 38  1  0
 14  5  1  0
 44 23  1  0
 14  9  1  0
M  END
>  <cnnaffinities>  (29) 
[6.89146]

>  <score>  (29) 
6.89146

>  <index>  (29) 
29

>  <Smiles>  (29) 
C([C@]1(C(N(c2c(nc(c3c(c(c(c(c23)[H])[H])[H])[H])[H])[H])C(=O)[C@]21C(N(C(c1c(nn(n1)[H])[H])([H])[H])C(=O)c1c(c(c(F)c(c21)[H])[H])[H])([H])[H])([H])[H])[H])([H])([H])[H]

>  <h>  (29) 
<NA>

>  <Training>  (29) 
True

>  <Success>  (29) 
True

>  <enamine_searched>  (29) 
False

>  <enamine_id>  (29) 
nan

$$$$

     RDKit          3D

 58 63  0  0  0  0  0  0  0  0999 V2000
  -10.4380   -1.0279  -23.3567 C   0  0  0  0  0  0  0  0  0  0  0  0
   -9.0044   -1.3943  -22.9819 C   0  0  1  0  0  0  0  0  0  0  0  0
   -8.3996   -0.4785  -21.9021 C   0  0  0  0  0  0  0  0  0  0  0  0
   -7.4117   -1.3228  -21.2578 N   0  0  0  0  0  0  0  0  0  0  0  0
   -6.5867   -0.8513  -20.2095 C   0  0  0  0  0  0  0  0  0  0  0  0
   -6.8896   -1.1277  -18.9002 C   0  0  0  0  0  0  0  0  0  0  0  0
   -6.2208   -0.5989  -17.8464 N   0  0  0  0  0  0  0  0  0  0  0  0
   -5.2162    0.2041  -18.0951 C   0  0  0  0  0  0  0  0  0  0  0  0
   -4.7665    0.5343  -19.4067 C   0  0  0  0  0  0  0  0  0  0  0  0
   -3.6433    1.3717  -19.6375 C   0  0  0  0  0  0  0  0  0  0  0  0
   -3.2350    1.6405  -20.9157 C   0  0  0  0  0  0  0  0  0  0  0  0
   -3.9306    1.0924  -22.0173 C   0  0  0  0  0  0  0  0  0  0  0  0
   -5.0216    0.2812  -21.8198 C   0  0  0  0  0  0  0  0  0  0  0  0
   -5.4676   -0.0102  -20.5039 C   0  0  0  0  0  0  0  0  0  0  0  0
   -5.5446   -0.1602  -22.6621 H   0  0  0  0  0  0  0  0  0  0  0  0
   -3.5928    1.3015  -23.0281 H   0  0  0  0  0  0  0  0  0  0  0  0
   -2.3705    2.2745  -21.0933 H   0  0  0  0  0  0  0  0  0  0  0  0
   -3.1231    1.7863  -18.7779 H   0  0  0  0  0  0  0  0  0  0  0  0
   -4.6927    0.6307  -17.2374 H   0  0  0  0  0  0  0  0  0  0  0  0
   -7.7141   -1.7926  -18.6489 H   0  0  0  0  0  0  0  0  0  0  0  0
   -7.6108   -2.6682  -21.4757 C   0  0  0  0  0  0  0  0  0  0  0  0
   -6.9094   -3.5386  -21.0032 O   0  0  0  0  0  0  0  0  0  0  0  0
   -8.8106   -2.8516  -22.4263 C   0  0  1  0  0  0  0  0  0  0  0  0
  -10.0368   -3.2978  -21.5885 C   0  0  0  0  0  0  0  0  0  0  0  0
  -11.1570   -3.7910  -22.3921 N   0  0  0  0  0  0  0  0  0  0  0  0
  -12.5310   -3.7830  -21.8670 C   0  0  0  0  0  0  0  0  0  0  0  0
  -13.4774   -2.8554  -22.6034 C   0  0  0  0  0  0  0  0  0  0  0  0
  -13.9453   -1.6769  -22.0936 C   0  0  0  0  0  0  0  0  0  0  0  0
  -14.7918   -0.8291  -22.9122 C   0  0  0  0  0  0  0  0  0  0  0  0
  -15.3941    0.1768  -22.5956 O   0  0  0  0  0  0  0  0  0  0  0  0
  -14.8896   -1.2907  -24.2339 N   0  0  0  0  0  0  0  0  0  0  0  0
  -14.5326   -2.5382  -24.6043 C   0  0  0  0  0  0  0  0  0  0  0  0
  -13.8843   -3.3389  -23.8293 N   0  0  0  0  0  0  0  0  0  0  0  0
  -14.7925   -2.8484  -25.6098 H   0  0  0  0  0  0  0  0  0  0  0  0
  -15.5006   -0.7514  -24.8246 H   0  0  0  0  0  0  0  0  0  0  0  0
  -13.7524   -1.3449  -21.0801 H   0  0  0  0  0  0  0  0  0  0  0  0
  -12.9349   -4.7736  -22.0733 H   0  0  0  0  0  0  0  0  0  0  0  0
  -12.5128   -3.5895  -20.7876 H   0  0  0  0  0  0  0  0  0  0  0  0
  -10.9183   -4.6637  -23.4235 C   0  0  0  0  0  0  0  0  0  0  0  0
  -11.8033   -5.3267  -23.9406 O   0  0  0  0  0  0  0  0  0  0  0  0
   -9.5173   -4.7553  -23.9235 C   0  0  0  0  0  0  0  0  0  0  0  0
   -9.2612   -5.7417  -24.8741 C   0  0  0  0  0  0  0  0  0  0  0  0
   -8.0016   -5.8927  -25.4154 C   0  0  0  0  0  0  0  0  0  0  0  0
   -7.0033   -5.0282  -24.9784 C   0  0  0  0  0  0  0  0  0  0  0  0
   -5.7710   -5.1671  -25.4933 F   0  0  0  0  0  0  0  0  0  0  0  0
   -7.2183   -4.0564  -24.0187 C   0  0  0  0  0  0  0  0  0  0  0  0
   -8.5046   -3.9047  -23.4729 C   0  0  0  0  0  0  0  0  0  0  0  0
   -6.3650   -3.4785  -23.6721 H   0  0  0  0  0  0  0  0  0  0  0  0
   -7.7794   -6.6656  -26.1446 H   0  0  0  0  0  0  0  0  0  0  0  0
  -10.0804   -6.3915  -25.1625 H   0  0  0  0  0  0  0  0  0  0  0  0
   -9.7041   -4.0576  -20.8788 H   0  0  0  0  0  0  0  0  0  0  0  0
  -10.3600   -2.4437  -20.9906 H   0  0  0  0  0  0  0  0  0  0  0  0
   -9.1594   -0.1402  -21.1814 H   0  0  0  0  0  0  0  0  0  0  0  0
   -7.9362    0.4257  -22.3100 H   0  0  0  0  0  0  0  0  0  0  0  0
   -8.3691   -1.3309  -23.8732 H   0  0  0  0  0  0  0  0  0  0  0  0
  -11.0812   -1.0077  -22.4715 H   0  0  0  0  0  0  0  0  0  0  0  0
  -10.8544   -1.7699  -24.0424 H   0  0  0  0  0  0  0  0  0  0  0  0
  -10.5029   -0.0419  -23.8218 H   0  0  0  0  0  0  0  0  0  0  0  0
  1  2  1  0
  2  3  1  0
  3  4  1  0
  4  5  1  0
  5  6  2  0
  6  7  1  0
  7  8  2  0
  8  9  1  0
  9 10  2  0
 10 11  1  0
 11 12  2  0
 12 13  1  0
 13 14  2  0
 13 15  1  0
 12 16  1  0
 11 17  1  0
 10 18  1  0
  8 19  1  0
  6 20  1  0
  4 21  1  0
 21 22  2  0
 21 23  1  0
 23 24  1  1
 24 25  1  0
 25 26  1  0
 26 27  1  0
 27 28  2  0
 28 29  1  0
 29 30  2  0
 29 31  1  0
 31 32  1  0
 32 33  2  0
 32 34  1  0
 31 35  1  0
 28 36  1  0
 26 37  1  0
 26 38  1  0
 25 39  1  0
 39 40  2  0
 39 41  1  0
 41 42  2  0
 42 43  1  0
 43 44  2  0
 44 45  1  0
 44 46  1  0
 46 47  2  0
 46 48  1  0
 43 49  1  0
 42 50  1  0
 24 51  1  0
 24 52  1  0
  3 53  1  0
  3 54  1  0
  2 55  1  6
  1 56  1  0
  1 57  1  0
  1 58  1  0
 23  2  1  0
 33 27  1  0
 47 41  1  0
 14  5  1  0
 47 23  1  0
 14  9  1  0
M  END
>  <cnnaffinities>  (30) 
[6.78693]

>  <score>  (30) 
6.78693

>  <index>  (30) 
30

>  <Smiles>  (30) 
C([C@]1(C(N(c2c(nc(c3c(c(c(c(c23)[H])[H])[H])[H])[H])[H])C(=O)[C@]21C(N(C(c1c(c(=O)n(c(n1)[H])[H])[H])([H])[H])C(=O)c1c(c(c(F)c(c21)[H])[H])[H])([H])[H])([H])[H])[H])([H])([H])[H]

>  <h>  (30) 
<NA>

>  <Training>  (30) 
True

>  <Success>  (30) 
True

>  <enamine_searched>  (30) 
False

>  <enamine_id>  (30) 
nan

$$$$

     RDKit          3D

 66 71  0  0  0  0  0  0  0  0999 V2000
  -14.3506   -1.4896  -23.6813 C   0  0  0  0  0  0  0  0  0  0  0  0
  -13.5847   -2.6758  -23.3481 N   0  0  0  0  0  0  0  0  0  0  0  0
  -13.2543   -2.9573  -22.0611 C   0  0  0  0  0  0  0  0  0  0  0  0
  -13.7465   -2.3647  -21.1125 O   0  0  0  0  0  0  0  0  0  0  0  0
  -12.2597   -4.1047  -21.8646 C   0  0  0  0  0  0  0  0  0  0  0  0
  -10.9473   -3.9701  -22.4680 N   0  0  0  0  0  0  0  0  0  0  0  0
   -9.8261   -3.5144  -21.6648 C   0  0  0  0  0  0  0  0  0  0  0  0
   -8.6623   -2.9235  -22.5002 C   0  0  2  0  0  0  0  0  0  0  0  0
   -7.5054   -2.6950  -21.5213 C   0  0  0  0  0  0  0  0  0  0  0  0
   -6.7793   -3.5468  -21.0464 O   0  0  0  0  0  0  0  0  0  0  0  0
   -7.4219   -1.3455  -21.2435 N   0  0  0  0  0  0  0  0  0  0  0  0
   -6.5976   -0.8495  -20.2042 C   0  0  0  0  0  0  0  0  0  0  0  0
   -6.8891   -1.1246  -18.8928 C   0  0  0  0  0  0  0  0  0  0  0  0
   -6.2208   -0.5906  -17.8410 N   0  0  0  0  0  0  0  0  0  0  0  0
   -5.2201    0.2161  -18.0938 C   0  0  0  0  0  0  0  0  0  0  0  0
   -4.7759    0.5407  -19.4071 C   0  0  0  0  0  0  0  0  0  0  0  0
   -3.6488    1.3721  -19.6374 C   0  0  0  0  0  0  0  0  0  0  0  0
   -3.2426    1.6405  -20.9166 C   0  0  0  0  0  0  0  0  0  0  0  0
   -3.9405    1.0923  -22.0162 C   0  0  0  0  0  0  0  0  0  0  0  0
   -5.0312    0.2819  -21.8183 C   0  0  0  0  0  0  0  0  0  0  0  0
   -5.4796   -0.0060  -20.5021 C   0  0  0  0  0  0  0  0  0  0  0  0
   -5.5481   -0.1639  -22.6617 H   0  0  0  0  0  0  0  0  0  0  0  0
   -3.6058    1.3020  -23.0283 H   0  0  0  0  0  0  0  0  0  0  0  0
   -2.3797    2.2747  -21.0969 H   0  0  0  0  0  0  0  0  0  0  0  0
   -3.1240    1.7838  -18.7796 H   0  0  0  0  0  0  0  0  0  0  0  0
   -4.6948    0.6468  -17.2397 H   0  0  0  0  0  0  0  0  0  0  0  0
   -7.7095   -1.7935  -18.6406 H   0  0  0  0  0  0  0  0  0  0  0  0
   -8.4209   -0.5328  -21.9263 C   0  0  0  0  0  0  0  0  0  0  0  0
   -8.9042   -1.4741  -23.0402 C   0  0  2  0  0  0  0  0  0  0  0  0
  -10.3380   -1.2155  -23.5052 C   0  0  0  0  0  0  0  0  0  0  0  0
  -10.5277    0.0002  -24.2546 N   0  0  0  0  0  0  0  0  0  0  0  0
  -11.0404    1.1223  -23.6983 C   0  0  0  0  0  0  0  0  0  0  0  0
  -11.0653    2.3292  -24.4246 C   0  0  0  0  0  0  0  0  0  0  0  0
  -11.5561    3.4181  -23.7471 C   0  0  0  0  0  0  0  0  0  0  0  0
  -12.0343    3.3680  -22.4925 N   0  0  0  0  0  0  0  0  0  0  0  0
  -11.9920    2.1750  -21.9265 C   0  0  0  0  0  0  0  0  0  0  0  0
  -11.5285    1.0389  -22.4537 N   0  0  0  0  0  0  0  0  0  0  0  0
  -12.3776    2.1173  -20.9080 H   0  0  0  0  0  0  0  0  0  0  0  0
  -11.5627    4.3925  -24.2287 H   0  0  0  0  0  0  0  0  0  0  0  0
  -10.7073    2.3661  -25.4521 H   0  0  0  0  0  0  0  0  0  0  0  0
  -10.0993    0.0729  -25.1629 H   0  0  0  0  0  0  0  0  0  0  0  0
  -10.6712   -2.0635  -24.1095 H   0  0  0  0  0  0  0  0  0  0  0  0
  -10.9771   -1.1271  -22.6278 H   0  0  0  0  0  0  0  0  0  0  0  0
   -8.2209   -1.3625  -23.8925 H   0  0  0  0  0  0  0  0  0  0  0  0
   -7.9787    0.3973  -22.3014 H   0  0  0  0  0  0  0  0  0  0  0  0
   -9.2413   -0.2375  -21.2537 H   0  0  0  0  0  0  0  0  0  0  0  0
   -8.3287   -3.9337  -23.5758 C   0  0  0  0  0  0  0  0  0  0  0  0
   -7.0275   -4.0751  -24.0735 C   0  0  0  0  0  0  0  0  0  0  0  0
   -6.7536   -5.0446  -25.0234 C   0  0  0  0  0  0  0  0  0  0  0  0
   -5.1363   -5.1978  -25.6597 Cl  0  0  0  0  0  0  0  0  0  0  0  0
   -7.7381   -5.9369  -25.4440 C   0  0  0  0  0  0  0  0  0  0  0  0
   -9.0361   -5.7699  -24.9948 C   0  0  0  0  0  0  0  0  0  0  0  0
   -9.3421   -4.7469  -24.1006 C   0  0  0  0  0  0  0  0  0  0  0  0
  -10.7654   -4.5428  -23.6900 C   0  0  0  0  0  0  0  0  0  0  0  0
  -11.7261   -4.8486  -24.3952 O   0  0  0  0  0  0  0  0  0  0  0  0
   -9.8354   -6.4339  -25.3141 H   0  0  0  0  0  0  0  0  0  0  0  0
   -7.4823   -6.7592  -26.1060 H   0  0  0  0  0  0  0  0  0  0  0  0
   -6.2146   -3.4813  -23.6685 H   0  0  0  0  0  0  0  0  0  0  0  0
  -10.1698   -2.7579  -20.9556 H   0  0  0  0  0  0  0  0  0  0  0  0
   -9.4114   -4.3557  -21.1017 H   0  0  0  0  0  0  0  0  0  0  0  0
  -12.1604   -4.2689  -20.7901 H   0  0  0  0  0  0  0  0  0  0  0  0
  -12.7076   -4.9677  -22.3393 H   0  0  0  0  0  0  0  0  0  0  0  0
  -13.1690   -3.2112  -24.0973 H   0  0  0  0  0  0  0  0  0  0  0  0
  -13.7596   -0.5728  -23.5486 H   0  0  0  0  0  0  0  0  0  0  0  0
  -15.2223   -1.3999  -23.0307 H   0  0  0  0  0  0  0  0  0  0  0  0
  -14.6935   -1.5738  -24.7170 H   0  0  0  0  0  0  0  0  0  0  0  0
  1  2  1  0
  2  3  1  0
  3  4  2  0
  3  5  1  0
  5  6  1  0
  6  7  1  0
  8  7  1  1
  8  9  1  0
  9 10  2  0
  9 11  1  0
 11 12  1  0
 12 13  2  0
 13 14  1  0
 14 15  2  0
 15 16  1  0
 16 17  2  0
 17 18  1  0
 18 19  2  0
 19 20  1  0
 20 21  2  0
 20 22  1  0
 19 23  1  0
 18 24  1  0
 17 25  1  0
 15 26  1  0
 13 27  1  0
 11 28  1  0
 28 29  1  0
 29 30  1  0
 30 31  1  0
 31 32  1  0
 32 33  2  0
 33 34  1  0
 34 35  2  0
 35 36  1  0
 36 37  2  0
 36 38  1  0
 34 39  1  0
 33 40  1  0
 31 41  1  0
 30 42  1  0
 30 43  1  0
 29 44  1  6
 28 45  1  0
 28 46  1  0
  8 47  1  0
 47 48  2  0
 48 49  1  0
 49 50  1  0
 49 51  2  0
 51 52  1  0
 52 53  2  0
 53 54  1  0
 54 55  2  0
 52 56  1  0
 51 57  1  0
 48 58  1  0
  7 59  1  0
  7 60  1  0
  5 61  1  0
  5 62  1  0
  2 63  1  0
  1 64  1  0
  1 65  1  0
  1 66  1  0
 54  6  1  0
 29  8  1  0
 37 32  1  0
 53 47  1  0
 21 12  1  0
 21 16  1  0
M  END
>  <cnnaffinities>  (31) 
[7.0865, 6.93092, 6.86366]

>  <score>  (31) 
7.0865

>  <index>  (31) 
31

>  <Smiles>  (31) 
C(N(C(=O)C(N1C([C@@]2(C(=O)N(c3c(nc(c4c(c(c(c(c34)[H])[H])[H])[H])[H])[H])C([C@@]2(C(N(c2c(c(nc(n2)[H])[H])[H])[H])([H])[H])[H])([H])[H])c2c(c(Cl)c(c(c2C1=O)[H])[H])[H])([H])[H])([H])[H])[H])([H])([H])[H]

>  <h>  (31) 
<NA>

>  <Training>  (31) 
True

>  <Success>  (31) 
True

>  <enamine_searched>  (31) 
False

>  <enamine_id>  (31) 
nan

$$$$

     RDKit          3D

 57 62  0  0  0  0  0  0  0  0999 V2000
  -10.1065   -0.9254  -23.7301 C   0  0  0  0  0  0  0  0  0  0  0  0
   -8.7693   -1.3331  -23.1327 C   0  0  1  0  0  0  0  0  0  0  0  0
   -8.2595   -0.4254  -22.0078 C   0  0  0  0  0  0  0  0  0  0  0  0
   -7.2854   -1.2769  -21.3346 N   0  0  0  0  0  0  0  0  0  0  0  0
   -6.4899   -0.8075  -20.2586 C   0  0  0  0  0  0  0  0  0  0  0  0
   -6.7919   -1.1299  -18.9578 C   0  0  0  0  0  0  0  0  0  0  0  0
   -6.1553   -0.6106  -17.8775 N   0  0  0  0  0  0  0  0  0  0  0  0
   -5.1784    0.2356  -18.0944 C   0  0  0  0  0  0  0  0  0  0  0  0
   -4.7314    0.6214  -19.3888 C   0  0  0  0  0  0  0  0  0  0  0  0
   -3.6440    1.5125  -19.5686 C   0  0  0  0  0  0  0  0  0  0  0  0
   -3.2173    1.8356  -20.8289 C   0  0  0  0  0  0  0  0  0  0  0  0
   -3.8688    1.2925  -21.9584 C   0  0  0  0  0  0  0  0  0  0  0  0
   -4.9346    0.4428  -21.8077 C   0  0  0  0  0  0  0  0  0  0  0  0
   -5.3973    0.0865  -20.5129 C   0  0  0  0  0  0  0  0  0  0  0  0
   -5.4267    0.0199  -22.6773 H   0  0  0  0  0  0  0  0  0  0  0  0
   -3.5204    1.5453  -22.9559 H   0  0  0  0  0  0  0  0  0  0  0  0
   -2.3813    2.5115  -20.9668 H   0  0  0  0  0  0  0  0  0  0  0  0
   -3.1689    1.9295  -18.6856 H   0  0  0  0  0  0  0  0  0  0  0  0
   -4.6737    0.6528  -17.2231 H   0  0  0  0  0  0  0  0  0  0  0  0
   -7.5992   -1.8259  -18.7329 H   0  0  0  0  0  0  0  0  0  0  0  0
   -7.5340   -2.6242  -21.5377 C   0  0  0  0  0  0  0  0  0  0  0  0
   -6.8956   -3.5221  -21.0347 O   0  0  0  0  0  0  0  0  0  0  0  0
   -8.7233   -2.7712  -22.5093 C   0  0  1  0  0  0  0  0  0  0  0  0
   -9.9597   -3.1269  -21.6582 C   0  0  0  0  0  0  0  0  0  0  0  0
  -11.0757   -3.6549  -22.4286 N   0  0  0  0  0  0  0  0  0  0  0  0
  -12.4111   -3.5959  -21.8338 C   0  0  0  0  0  0  0  0  0  0  0  0
  -13.3485   -2.7990  -22.6626 C   0  0  0  0  0  0  0  0  0  0  0  0
  -13.8994   -3.2921  -23.7622 N   0  0  0  0  0  0  0  0  0  0  0  0
  -13.6890   -1.5115  -22.4566 N   0  0  0  0  0  0  0  0  0  0  0  0
  -14.4671   -1.1764  -23.4558 N   0  0  0  0  0  0  0  0  0  0  0  0
  -14.5565   -2.2459  -24.2121 N   0  0  0  0  0  0  0  0  0  0  0  0
  -15.1908   -2.3150  -25.5032 C   0  0  0  0  0  0  0  0  0  0  0  0
  -16.1519   -2.8092  -25.3886 H   0  0  0  0  0  0  0  0  0  0  0  0
  -15.2774   -1.3071  -25.8860 H   0  0  0  0  0  0  0  0  0  0  0  0
  -14.5682   -2.9207  -26.1612 H   0  0  0  0  0  0  0  0  0  0  0  0
  -12.3523   -3.1700  -20.8307 H   0  0  0  0  0  0  0  0  0  0  0  0
  -12.8075   -4.6127  -21.8205 H   0  0  0  0  0  0  0  0  0  0  0  0
  -10.8926   -4.5727  -23.4379 C   0  0  0  0  0  0  0  0  0  0  0  0
  -11.8061   -5.2640  -23.8635 O   0  0  0  0  0  0  0  0  0  0  0  0
   -9.5278   -4.6510  -24.0224 C   0  0  0  0  0  0  0  0  0  0  0  0
   -9.3034   -5.5678  -25.0556 C   0  0  0  0  0  0  0  0  0  0  0  0
   -8.0451   -5.7019  -25.6120 C   0  0  0  0  0  0  0  0  0  0  0  0
   -7.0128   -4.9320  -25.0888 C   0  0  0  0  0  0  0  0  0  0  0  0
   -5.7729   -5.0767  -25.5829 F   0  0  0  0  0  0  0  0  0  0  0  0
   -7.2064   -4.0418  -24.0539 C   0  0  0  0  0  0  0  0  0  0  0  0
   -8.4869   -3.8607  -23.5292 C   0  0  0  0  0  0  0  0  0  0  0  0
   -6.3600   -3.5102  -23.6365 H   0  0  0  0  0  0  0  0  0  0  0  0
   -7.8391   -6.3909  -26.4251 H   0  0  0  0  0  0  0  0  0  0  0  0
  -10.1285   -6.1726  -25.4227 H   0  0  0  0  0  0  0  0  0  0  0  0
  -10.3037   -2.2353  -21.1213 H   0  0  0  0  0  0  0  0  0  0  0  0
   -9.6555   -3.8509  -20.8956 H   0  0  0  0  0  0  0  0  0  0  0  0
   -9.0773   -0.1456  -21.3233 H   0  0  0  0  0  0  0  0  0  0  0  0
   -7.7967    0.5032  -22.3598 H   0  0  0  0  0  0  0  0  0  0  0  0
   -7.9942   -1.3403  -23.9104 H   0  0  0  0  0  0  0  0  0  0  0  0
  -10.8760   -0.8947  -22.9537 H   0  0  0  0  0  0  0  0  0  0  0  0
  -10.0694    0.0598  -24.2054 H   0  0  0  0  0  0  0  0  0  0  0  0
  -10.4222   -1.6569  -24.4794 H   0  0  0  0  0  0  0  0  0  0  0  0
  1  2  1  0
  2  3  1  0
  3  4  1  0
  4  5  1  0
  5  6  2  0
  6  7  1  0
  7  8  2  0
  8  9  1  0
  9 10  2  0
 10 11  1  0
 11 12  2  0
 12 13  1  0
 13 14  2  0
 13 15  1  0
 12 16  1  0
 11 17  1  0
 10 18  1  0
  8 19  1  0
  6 20  1  0
  4 21  1  0
 21 22  2  0
 21 23  1  0
 23 24  1  1
 24 25  1  0
 25 26  1  0
 26 27  1  0
 27 28  2  0
 28 29  1  0
 29 30  2  0
 30 31  1  0
 31 32  1  0
 32 33  1  0
 32 34  1  0
 32 35  1  0
 26 36  1  0
 26 37  1  0
 25 38  1  0
 38 39  2  0
 38 40  1  0
 40 41  2  0
 41 42  1  0
 42 43  2  0
 43 44  1  0
 43 45  1  0
 45 46  2  0
 45 47  1  0
 42 48  1  0
 41 49  1  0
 24 50  1  0
 24 51  1  0
  3 52  1  0
  3 53  1  0
  2 54  1  6
  1 55  1  0
  1 56  1  0
  1 57  1  0
 23  2  1  0
 31 27  1  0
 46 40  1  0
 14  5  1  0
 46 23  1  0
 14  9  1  0
M  END
>  <cnnaffinities>  (32) 
[6.93674]

>  <score>  (32) 
6.93674

>  <index>  (32) 
32

>  <Smiles>  (32) 
C([C@]1(C(N(c2c(nc(c3c(c(c(c(c23)[H])[H])[H])[H])[H])[H])C(=O)[C@]21C(N(C(c1nnnn1C([H])([H])[H])([H])[H])C(=O)c1c(c(c(F)c(c21)[H])[H])[H])([H])[H])([H])[H])[H])([H])([H])[H]

>  <h>  (32) 
<NA>

>  <Training>  (32) 
True

>  <Success>  (32) 
True

>  <enamine_searched>  (32) 
False

>  <enamine_id>  (32) 
nan

$$$$

     RDKit          3D

 66 70  0  0  0  0  0  0  0  0999 V2000
   -7.4506    3.3392  -21.7599 C   0  0  0  0  0  0  0  0  0  0  0  0
   -8.3685    2.8980  -22.7954 N   0  0  0  0  0  0  0  0  0  0  0  0
   -7.8308    2.1984  -23.8222 C   0  0  0  0  0  0  0  0  0  0  0  0
   -6.6193    2.0801  -23.9628 O   0  0  0  0  0  0  0  0  0  0  0  0
   -8.8058    1.5769  -24.8267 C   0  0  0  0  0  0  0  0  0  0  0  0
   -9.5072    0.4133  -24.3187 N   0  0  0  0  0  0  0  0  0  0  0  0
   -8.7727   -0.8293  -24.1767 C   0  0  0  0  0  0  0  0  0  0  0  0
   -9.1167   -1.5484  -22.8483 C   0  0  2  0  0  0  0  0  0  0  0  0
   -8.5486   -0.7469  -21.6437 C   0  0  0  0  0  0  0  0  0  0  0  0
   -9.0056    0.2635  -21.1519 O   0  0  0  0  0  0  0  0  0  0  0  0
   -7.4055   -1.3775  -21.2008 N   0  0  0  0  0  0  0  0  0  0  0  0
   -6.6053   -0.8077  -20.1739 C   0  0  0  0  0  0  0  0  0  0  0  0
   -6.9074   -1.0422  -18.8574 C   0  0  0  0  0  0  0  0  0  0  0  0
   -6.1978   -0.5506  -17.8136 N   0  0  0  0  0  0  0  0  0  0  0  0
   -5.1651    0.2084  -18.0811 C   0  0  0  0  0  0  0  0  0  0  0  0
   -4.7293    0.5317  -19.3960 C   0  0  0  0  0  0  0  0  0  0  0  0
   -3.6054    1.3683  -19.6422 C   0  0  0  0  0  0  0  0  0  0  0  0
   -3.2221    1.6632  -20.9208 C   0  0  0  0  0  0  0  0  0  0  0  0
   -3.9473    1.1356  -22.0133 C   0  0  0  0  0  0  0  0  0  0  0  0
   -5.0376    0.3245  -21.8013 C   0  0  0  0  0  0  0  0  0  0  0  0
   -5.4665    0.0034  -20.4863 C   0  0  0  0  0  0  0  0  0  0  0  0
   -5.5931   -0.0608  -22.6521 H   0  0  0  0  0  0  0  0  0  0  0  0
   -3.6556    1.3742  -23.0299 H   0  0  0  0  0  0  0  0  0  0  0  0
   -2.3713    2.3142  -21.1017 H   0  0  0  0  0  0  0  0  0  0  0  0
   -3.0783    1.7781  -18.7837 H   0  0  0  0  0  0  0  0  0  0  0  0
   -4.6180    0.6135  -17.2292 H   0  0  0  0  0  0  0  0  0  0  0  0
   -7.7580   -1.6665  -18.5963 H   0  0  0  0  0  0  0  0  0  0  0  0
   -7.0694   -2.5895  -21.9238 C   0  0  0  0  0  0  0  0  0  0  0  0
   -8.3546   -2.9009  -22.7206 C   0  0  2  0  0  0  0  0  0  0  0  0
   -8.0580   -3.6710  -24.0139 C   0  0  0  0  0  0  0  0  0  0  0  0
   -7.4880   -4.9324  -23.7268 O   0  0  0  0  0  0  0  0  0  0  0  0
   -8.4265   -6.0012  -23.6066 C   0  0  0  0  0  0  0  0  0  0  0  0
   -7.9266   -6.9300  -22.5112 C   0  0  0  0  0  0  0  0  0  0  0  0
   -7.8658   -6.3938  -21.5593 H   0  0  0  0  0  0  0  0  0  0  0  0
   -6.9316   -7.3103  -22.7580 H   0  0  0  0  0  0  0  0  0  0  0  0
   -8.6009   -7.7868  -22.4097 H   0  0  0  0  0  0  0  0  0  0  0  0
   -8.5636   -6.7369  -24.9374 C   0  0  0  0  0  0  0  0  0  0  0  0
   -8.9085   -6.0668  -25.7331 H   0  0  0  0  0  0  0  0  0  0  0  0
   -9.2835   -7.5591  -24.8455 H   0  0  0  0  0  0  0  0  0  0  0  0
   -7.5915   -7.1492  -25.2271 H   0  0  0  0  0  0  0  0  0  0  0  0
   -9.4110   -5.5831  -23.3274 H   0  0  0  0  0  0  0  0  0  0  0  0
   -8.9728   -3.7785  -24.6217 H   0  0  0  0  0  0  0  0  0  0  0  0
   -7.3143   -3.1308  -24.6165 H   0  0  0  0  0  0  0  0  0  0  0  0
   -8.9766   -3.5555  -22.1050 H   0  0  0  0  0  0  0  0  0  0  0  0
   -6.7966   -3.3976  -21.2345 H   0  0  0  0  0  0  0  0  0  0  0  0
   -6.2083   -2.4292  -22.5920 H   0  0  0  0  0  0  0  0  0  0  0  0
  -10.6305   -1.6189  -22.7399 C   0  0  0  0  0  0  0  0  0  0  0  0
  -11.2336   -2.5279  -21.8631 C   0  0  0  0  0  0  0  0  0  0  0  0
  -12.6096   -2.5627  -21.7367 C   0  0  0  0  0  0  0  0  0  0  0  0
  -13.3469   -3.6868  -20.6327 Cl  0  0  0  0  0  0  0  0  0  0  0  0
  -13.4288   -1.6965  -22.4596 C   0  0  0  0  0  0  0  0  0  0  0  0
  -12.8411   -0.7579  -23.2831 C   0  0  0  0  0  0  0  0  0  0  0  0
  -11.4532   -0.6954  -23.4027 C   0  0  0  0  0  0  0  0  0  0  0  0
  -10.8701    0.4418  -24.1872 C   0  0  0  0  0  0  0  0  0  0  0  0
  -11.5669    1.3399  -24.6421 O   0  0  0  0  0  0  0  0  0  0  0  0
  -13.4252   -0.0299  -23.8376 H   0  0  0  0  0  0  0  0  0  0  0  0
  -14.5047   -1.7508  -22.3479 H   0  0  0  0  0  0  0  0  0  0  0  0
  -10.6357   -3.1924  -21.2515 H   0  0  0  0  0  0  0  0  0  0  0  0
   -8.9970   -1.5072  -25.0168 H   0  0  0  0  0  0  0  0  0  0  0  0
   -7.7084   -0.5743  -24.1952 H   0  0  0  0  0  0  0  0  0  0  0  0
   -9.5905    2.2769  -25.1241 H   0  0  0  0  0  0  0  0  0  0  0  0
   -8.1908    1.3142  -25.6969 H   0  0  0  0  0  0  0  0  0  0  0  0
   -9.3593    2.8130  -22.6101 H   0  0  0  0  0  0  0  0  0  0  0  0
   -6.7732    4.1073  -22.1505 H   0  0  0  0  0  0  0  0  0  0  0  0
   -6.8416    2.4851  -21.4246 H   0  0  0  0  0  0  0  0  0  0  0  0
   -8.0184    3.7656  -20.9345 H   0  0  0  0  0  0  0  0  0  0  0  0
  1  2  1  0
  2  3  1  0
  3  4  2  0
  3  5  1  0
  5  6  1  0
  6  7  1  0
  8  7  1  6
  8  9  1  0
  9 10  2  0
  9 11  1  0
 11 12  1  0
 12 13  2  0
 13 14  1  0
 14 15  2  0
 15 16  1  0
 16 17  2  0
 17 18  1  0
 18 19  2  0
 19 20  1  0
 20 21  2  0
 20 22  1  0
 19 23  1  0
 18 24  1  0
 17 25  1  0
 15 26  1  0
 13 27  1  0
 11 28  1  0
 28 29  1  0
 29 30  1  0
 30 31  1  0
 31 32  1  0
 32 33  1  0
 33 34  1  0
 33 35  1  0
 33 36  1  0
 32 37  1  0
 37 38  1  0
 37 39  1  0
 37 40  1  0
 32 41  1  0
 30 42  1  0
 30 43  1  0
 29 44  1  1
 28 45  1  0
 28 46  1  0
  8 47  1  0
 47 48  2  0
 48 49  1  0
 49 50  1  0
 49 51  2  0
 51 52  1  0
 52 53  2  0
 53 54  1  0
 54 55  2  0
 52 56  1  0
 51 57  1  0
 48 58  1  0
  7 59  1  0
  7 60  1  0
  5 61  1  0
  5 62  1  0
  2 63  1  0
  1 64  1  0
  1 65  1  0
  1 66  1  0
 54  6  1  0
 29  8  1  0
 53 47  1  0
 21 12  1  0
 21 16  1  0
M  END
>  <cnnaffinities>  (33) 
[6.36287, 6.38168, 6.49668, 6.64597, 6.56986, 6.38923]

>  <score>  (33) 
6.36287

>  <index>  (33) 
34

>  <Smiles>  (33) 
C(N(C(=O)C(N1C([C@@]2(C(=O)N(c3c(nc(c4c(c(c(c(c34)[H])[H])[H])[H])[H])[H])C([C@@]2(C(OC(C([H])([H])[H])(C([H])([H])[H])[H])([H])[H])[H])([H])[H])c2c(c(Cl)c(c(c2C1=O)[H])[H])[H])([H])[H])([H])[H])[H])([H])([H])[H]

>  <h>  (33) 
<NA>

>  <Training>  (33) 
True

>  <Success>  (33) 
True

>  <enamine_searched>  (33) 
False

>  <enamine_id>  (33) 
nan

$$$$

     RDKit          3D

 40 42  0  0  0  0  0  0  0  0999 V2000
   -9.1436   -1.8018  -22.6713 O   0  0  0  0  0  0  0  0  0  0  0  0
   -8.2365   -1.0332  -22.3699 C   0  0  0  0  0  0  0  0  0  0  0  0
   -6.8566   -1.5370  -21.9779 C   0  0  0  0  0  0  0  0  0  0  0  0
   -6.3042   -0.8768  -20.7294 C   0  0  0  0  0  0  0  0  0  0  0  0
   -6.9435   -1.0470  -19.5250 C   0  0  0  0  0  0  0  0  0  0  0  0
   -6.5697   -0.4712  -18.3545 N   0  0  0  0  0  0  0  0  0  0  0  0
   -5.5210    0.3150  -18.3725 C   0  0  0  0  0  0  0  0  0  0  0  0
   -4.7440    0.5722  -19.5346 C   0  0  0  0  0  0  0  0  0  0  0  0
   -3.6181    1.4352  -19.5322 C   0  0  0  0  0  0  0  0  0  0  0  0
   -2.9433    1.7112  -20.6914 C   0  0  0  0  0  0  0  0  0  0  0  0
   -3.3677    1.1396  -21.9048 C   0  0  0  0  0  0  0  0  0  0  0  0
   -4.4395    0.2809  -21.9292 C   0  0  0  0  0  0  0  0  0  0  0  0
   -5.1513   -0.0357  -20.7487 C   0  0  0  0  0  0  0  0  0  0  0  0
   -4.7488   -0.1356  -22.8830 H   0  0  0  0  0  0  0  0  0  0  0  0
   -2.8485    1.3774  -22.8270 H   0  0  0  0  0  0  0  0  0  0  0  0
   -2.0807    2.3683  -20.6816 H   0  0  0  0  0  0  0  0  0  0  0  0
   -3.3204    1.8824  -18.5878 H   0  0  0  0  0  0  0  0  0  0  0  0
   -5.2400    0.7951  -17.4340 H   0  0  0  0  0  0  0  0  0  0  0  0
   -7.8301   -1.6843  -19.4545 H   0  0  0  0  0  0  0  0  0  0  0  0
   -7.0036   -2.6078  -21.8374 H   0  0  0  0  0  0  0  0  0  0  0  0
   -6.1742   -1.4282  -22.8206 H   0  0  0  0  0  0  0  0  0  0  0  0
   -8.3221    0.3326  -22.3449 N   0  0  0  0  0  0  0  0  0  0  0  0
   -9.5302    0.9486  -21.7430 C   0  0  0  0  0  0  0  0  0  0  0  0
   -9.5152    1.1006  -21.9231 C   0  0  0  0  0  0  0  0  0  0  0  0
   -9.1961    2.8782  -23.6616 C   0  0  0  0  0  0  0  0  0  0  0  0
   -8.5410    5.5398  -22.8764 C   0  0  0  0  0  0  0  0  0  0  0  0
   -7.6821    6.2200  -23.6082 F   0  0  0  0  0  0  0  0  0  0  0  0
   -9.5953    6.2788  -22.5825 F   0  0  0  0  0  0  0  0  0  0  0  0
   -7.9557    5.0990  -21.7789 F   0  0  0  0  0  0  0  0  0  0  0  0
   -7.9303    2.4744  -23.6319 C   0  0  0  0  0  0  0  0  0  0  0  0
   -7.3493    1.2079  -23.0688 C   0  0  0  0  0  0  0  0  0  0  0  0
   -6.8705    0.6306  -23.8674 H   0  0  0  0  0  0  0  0  0  0  0  0
   -6.5631    1.5080  -22.3657 H   0  0  0  0  0  0  0  0  0  0  0  0
  -10.0292    2.2203  -23.5060 H   0  0  0  0  0  0  0  0  0  0  0  0
   -7.1562    3.1406  -24.0097 H   0  0  0  0  0  0  0  0  0  0  0  0
   -9.3507    3.9433  -23.8551 H   0  0  0  0  0  0  0  0  0  0  0  0
  -10.4485    1.8431  -21.6835 H   0  0  0  0  0  0  0  0  0  0  0  0
   -8.8312    1.9749  -21.4091 H   0  0  0  0  0  0  0  0  0  0  0  0
   -9.8219    0.1442  -20.4347 H   0  0  0  0  0  0  0  0  0  0  0  0
  -10.2784    0.5713  -22.7142 H   0  0  0  0  0  0  0  0  0  0  0  0
  1  2  2  0
  2  3  1  0
  3  4  1  0
  4  5  2  0
  5  6  1  0
  6  7  2  0
  7  8  1  0
  8  9  2  0
  9 10  1  0
 10 11  2  0
 11 12  1  0
 12 13  2  0
 12 14  1  0
 11 15  1  0
 10 16  1  0
  9 17  1  0
  7 18  1  0
  5 19  1  0
  3 20  1  0
  3 21  1  0
  2 22  1  0
 22 23  1  0
 23 24  1  0
 24 25  1  0
 25 26  1  0
 26 27  1  0
 26 28  1  0
 26 29  1  0
 25 30  1  0
 30 31  1  0
 31 32  1  0
 31 33  1  0
 30 34  1  0
 30 35  1  0
 25 36  1  0
 24 37  1  0
 24 38  1  0
 23 39  1  0
 23 40  1  0
 13  4  1  0
 31 22  1  0
 13  8  1  0
M  END
>  <cnnaffinities>  (34) 
[4.75686]

>  <score>  (34) 
4.75686

>  <index>  (34) 
35

>  <Smiles>  (34) 
O=C(C(c1c(nc(c2c(c(c(c(c12)[H])[H])[H])[H])[H])[H])([H])[H])N1C(C(C(C(F)(F)F)(C(C1([H])[H])([H])[H])[H])([H])[H])([H])[H]

>  <h>  (34) 
<NA>

>  <Training>  (34) 
True

>  <Success>  (34) 
True

>  <enamine_searched>  (34) 
False

>  <enamine_id>  (34) 
nan

$$$$

     RDKit          3D

 47 50  0  0  0  0  0  0  0  0999 V2000
   -8.6866    0.6155  -21.3603 O   0  0  0  0  0  0  0  0  0  0  0  0
   -8.3367   -0.3829  -21.9603 C   0  0  0  0  0  0  0  0  0  0  0  0
   -7.4341   -1.4322  -21.2730 C   0  0  0  0  0  0  0  0  0  0  0  0
   -6.5775   -0.8315  -20.1815 C   0  0  0  0  0  0  0  0  0  0  0  0
   -6.8774   -1.0391  -18.8615 C   0  0  0  0  0  0  0  0  0  0  0  0
   -6.1881   -0.5355  -17.8033 N   0  0  0  0  0  0  0  0  0  0  0  0
   -5.1552    0.2238  -18.0673 C   0  0  0  0  0  0  0  0  0  0  0  0
   -4.7219    0.5345  -19.3832 C   0  0  0  0  0  0  0  0  0  0  0  0
   -3.5959    1.3636  -19.6229 C   0  0  0  0  0  0  0  0  0  0  0  0
   -3.2064    1.6570  -20.9012 C   0  0  0  0  0  0  0  0  0  0  0  0
   -3.9322    1.1299  -21.9924 C   0  0  0  0  0  0  0  0  0  0  0  0
   -5.0231    0.3220  -21.7871 C   0  0  0  0  0  0  0  0  0  0  0  0
   -5.4525   -0.0014  -20.4735 C   0  0  0  0  0  0  0  0  0  0  0  0
   -5.5628   -0.0734  -22.6432 H   0  0  0  0  0  0  0  0  0  0  0  0
   -3.6181    1.3621  -23.0048 H   0  0  0  0  0  0  0  0  0  0  0  0
   -2.3500    2.2997  -21.0868 H   0  0  0  0  0  0  0  0  0  0  0  0
   -3.0614    1.7749  -18.7699 H   0  0  0  0  0  0  0  0  0  0  0  0
   -4.6029    0.6275  -17.2157 H   0  0  0  0  0  0  0  0  0  0  0  0
   -7.7282   -1.6583  -18.5827 H   0  0  0  0  0  0  0  0  0  0  0  0
   -6.8075   -1.9517  -22.0110 H   0  0  0  0  0  0  0  0  0  0  0  0
   -8.0861   -2.1985  -20.8320 H   0  0  0  0  0  0  0  0  0  0  0  0
   -8.6807   -0.6044  -23.2871 N   0  0  0  0  0  0  0  0  0  0  0  0
   -9.1593    0.5342  -24.0697 C   0  0  0  0  0  0  0  0  0  0  0  0
  -10.6771    0.5443  -24.2197 C   0  0  0  0  0  0  0  0  0  0  0  0
  -11.1724   -0.7911  -24.7658 C   0  0  0  0  0  0  0  0  0  0  0  0
  -10.6202   -1.9446  -23.9323 C   0  0  0  0  0  0  0  0  0  0  0  0
   -9.0817   -1.9140  -23.8220 C   0  0  1  0  0  0  0  0  0  0  0  0
   -8.3320   -2.2535  -25.1139 C   0  0  0  0  0  0  0  0  0  0  0  0
   -8.9057   -2.9414  -26.1872 C   0  0  0  0  0  0  0  0  0  0  0  0
   -8.1571   -3.2566  -27.3203 C   0  0  0  0  0  0  0  0  0  0  0  0
   -6.8156   -2.9046  -27.4072 C   0  0  0  0  0  0  0  0  0  0  0  0
   -6.2259   -2.2413  -26.3380 C   0  0  0  0  0  0  0  0  0  0  0  0
   -6.9748   -1.9272  -25.2105 C   0  0  0  0  0  0  0  0  0  0  0  0
   -6.4797   -1.4147  -24.3907 H   0  0  0  0  0  0  0  0  0  0  0  0
   -5.1767   -1.9644  -26.3803 H   0  0  0  0  0  0  0  0  0  0  0  0
   -6.2351   -3.1498  -28.2928 H   0  0  0  0  0  0  0  0  0  0  0  0
   -8.6290   -3.7883  -28.1421 H   0  0  0  0  0  0  0  0  0  0  0  0
   -9.9463   -3.2521  -26.1590 H   0  0  0  0  0  0  0  0  0  0  0  0
   -8.7906   -2.6570  -23.0738 H   0  0  0  0  0  0  0  0  0  0  0  0
  -11.0258   -1.8740  -22.9169 H   0  0  0  0  0  0  0  0  0  0  0  0
  -10.9598   -2.9115  -24.3151 H   0  0  0  0  0  0  0  0  0  0  0  0
  -12.2677   -0.8159  -24.7722 H   0  0  0  0  0  0  0  0  0  0  0  0
  -10.8487   -0.9071  -25.8064 H   0  0  0  0  0  0  0  0  0  0  0  0
  -11.1159    0.7410  -23.2369 H   0  0  0  0  0  0  0  0  0  0  0  0
  -10.9889    1.3653  -24.8782 H   0  0  0  0  0  0  0  0  0  0  0  0
   -8.8053    1.4514  -23.5992 H   0  0  0  0  0  0  0  0  0  0  0  0
   -8.7004    0.4724  -25.0635 H   0  0  0  0  0  0  0  0  0  0  0  0
  1  2  2  0
  2  3  1  0
  3  4  1  0
  4  5  2  0
  5  6  1  0
  6  7  2  0
  7  8  1  0
  8  9  2  0
  9 10  1  0
 10 11  2  0
 11 12  1  0
 12 13  2  0
 12 14  1  0
 11 15  1  0
 10 16  1  0
  9 17  1  0
  7 18  1  0
  5 19  1  0
  3 20  1  0
  3 21  1  0
  2 22  1  0
 22 23  1  0
 23 24  1  0
 24 25  1  0
 25 26  1  0
 26 27  1  0
 27 28  1  0
 28 29  2  0
 29 30  1  0
 30 31  2  0
 31 32  1  0
 32 33  2  0
 33 34  1  0
 32 35  1  0
 31 36  1  0
 30 37  1  0
 29 38  1  0
 27 39  1  1
 26 40  1  0
 26 41  1  0
 25 42  1  0
 25 43  1  0
 24 44  1  0
 24 45  1  0
 23 46  1  0
 23 47  1  0
 13  4  1  0
 27 22  1  0
 33 28  1  0
 13  8  1  0
M  END
>  <cnnaffinities>  (35) 
[5.23527, 5.23534, 5.65056, 5.6488, 5.35692, 5.35743]

>  <score>  (35) 
5.23527

>  <index>  (35) 
36

>  <Smiles>  (35) 
O=C(C(c1c(nc(c2c(c(c(c(c12)[H])[H])[H])[H])[H])[H])([H])[H])N1C(C(C(C([C@]1(c1c(c(c(c(c1[H])[H])[H])[H])[H])[H])([H])[H])([H])[H])([H])[H])([H])[H]

>  <h>  (35) 
<NA>

>  <Training>  (35) 
True

>  <Success>  (35) 
True

>  <enamine_searched>  (35) 
False

>  <enamine_id>  (35) 
nan

$$$$

     RDKit          3D

 56 60  0  0  0  0  0  0  0  0999 V2000
  -14.4782   -1.5867  -23.7399 C   0  0  0  0  0  0  0  0  0  0  0  0
  -13.7406   -2.7441  -23.2820 N   0  0  0  0  0  0  0  0  0  0  0  0
  -13.3537   -2.7970  -21.9823 C   0  0  0  0  0  0  0  0  0  0  0  0
  -13.7096   -1.9710  -21.1591 O   0  0  0  0  0  0  0  0  0  0  0  0
  -12.4522   -3.9709  -21.6358 C   0  0  0  0  0  0  0  0  0  0  0  0
  -11.1301   -3.8950  -22.2348 N   0  0  0  0  0  0  0  0  0  0  0  0
  -10.0061   -3.3749  -21.4595 C   0  0  0  0  0  0  0  0  0  0  0  0
   -8.8112   -2.9174  -22.3384 C   0  0  2  0  0  0  0  0  0  0  0  0
   -7.5749   -2.7015  -21.4460 C   0  0  0  0  0  0  0  0  0  0  0  0
   -6.8358   -3.5628  -21.0126 O   0  0  0  0  0  0  0  0  0  0  0  0
   -7.4064   -1.3487  -21.2356 N   0  0  0  0  0  0  0  0  0  0  0  0
   -6.5852   -0.8505  -20.1938 C   0  0  0  0  0  0  0  0  0  0  0  0
   -6.8894   -1.1000  -18.8794 C   0  0  0  0  0  0  0  0  0  0  0  0
   -6.2139   -0.5734  -17.8278 N   0  0  0  0  0  0  0  0  0  0  0  0
   -5.1980    0.2096  -18.0916 C   0  0  0  0  0  0  0  0  0  0  0  0
   -4.7537    0.5212  -19.4081 C   0  0  0  0  0  0  0  0  0  0  0  0
   -3.6279    1.3507  -19.6401 C   0  0  0  0  0  0  0  0  0  0  0  0
   -3.2231    1.6195  -20.9181 C   0  0  0  0  0  0  0  0  0  0  0  0
   -3.9259    1.0787  -22.0174 C   0  0  0  0  0  0  0  0  0  0  0  0
   -5.0195    0.2727  -21.8193 C   0  0  0  0  0  0  0  0  0  0  0  0
   -5.4649   -0.0180  -20.5023 C   0  0  0  0  0  0  0  0  0  0  0  0
   -5.5395   -0.1566  -22.6695 H   0  0  0  0  0  0  0  0  0  0  0  0
   -3.5924    1.2976  -23.0273 H   0  0  0  0  0  0  0  0  0  0  0  0
   -2.3643    2.2582  -21.0960 H   0  0  0  0  0  0  0  0  0  0  0  0
   -3.1093    1.7669  -18.7807 H   0  0  0  0  0  0  0  0  0  0  0  0
   -4.6577    0.6330  -17.2435 H   0  0  0  0  0  0  0  0  0  0  0  0
   -7.7305   -1.7431  -18.6309 H   0  0  0  0  0  0  0  0  0  0  0  0
   -8.3975   -0.5248  -21.9069 C   0  0  0  0  0  0  0  0  0  0  0  0
   -9.0221   -1.4794  -22.9370 C   0  0  2  0  0  0  0  0  0  0  0  0
  -10.4651   -1.1341  -23.2715 C   0  0  0  0  0  0  0  0  0  0  0  0
  -10.8876   -1.8962  -23.9305 H   0  0  0  0  0  0  0  0  0  0  0  0
  -10.5415   -0.1632  -23.7653 H   0  0  0  0  0  0  0  0  0  0  0  0
  -11.0724   -1.1050  -22.3599 H   0  0  0  0  0  0  0  0  0  0  0  0
   -8.4125   -1.4431  -23.8527 H   0  0  0  0  0  0  0  0  0  0  0  0
   -9.1502   -0.1546  -21.1918 H   0  0  0  0  0  0  0  0  0  0  0  0
   -7.9270    0.3463  -22.3783 H   0  0  0  0  0  0  0  0  0  0  0  0
   -8.5410   -3.9757  -23.3814 C   0  0  0  0  0  0  0  0  0  0  0  0
   -7.2705   -4.1134  -23.9487 C   0  0  0  0  0  0  0  0  0  0  0  0
   -7.0375   -5.0485  -24.9431 C   0  0  0  0  0  0  0  0  0  0  0  0
   -8.0592   -5.8934  -25.3773 C   0  0  0  0  0  0  0  0  0  0  0  0
   -9.3218   -5.7655  -24.8273 C   0  0  0  0  0  0  0  0  0  0  0  0
   -9.5700   -4.7853  -23.8669 C   0  0  0  0  0  0  0  0  0  0  0  0
  -10.9686   -4.5752  -23.4045 C   0  0  0  0  0  0  0  0  0  0  0  0
  -11.9384   -4.9714  -24.0594 O   0  0  0  0  0  0  0  0  0  0  0  0
  -10.1374   -6.4152  -25.1281 H   0  0  0  0  0  0  0  0  0  0  0  0
   -7.8711   -6.6299  -26.1548 H   0  0  0  0  0  0  0  0  0  0  0  0
   -6.0578   -5.1080  -25.4027 H   0  0  0  0  0  0  0  0  0  0  0  0
   -6.4523   -3.4901  -23.5995 H   0  0  0  0  0  0  0  0  0  0  0  0
  -10.3455   -2.5049  -20.8834 H   0  0  0  0  0  0  0  0  0  0  0  0
   -9.6770   -4.1568  -20.7695 H   0  0  0  0  0  0  0  0  0  0  0  0
  -12.4061   -4.0986  -20.5529 H   0  0  0  0  0  0  0  0  0  0  0  0
  -12.9343   -4.8339  -22.0866 H   0  0  0  0  0  0  0  0  0  0  0  0
  -13.4657   -3.4910  -23.9073 H   0  0  0  0  0  0  0  0  0  0  0  0
  -13.8542   -0.6848  -23.7322 H   0  0  0  0  0  0  0  0  0  0  0  0
  -15.3266   -1.4037  -23.0775 H   0  0  0  0  0  0  0  0  0  0  0  0
  -14.8429   -1.7452  -24.7557 H   0  0  0  0  0  0  0  0  0  0  0  0
  1  2  1  0
  2  3  1  0
  3  4  2  0
  3  5  1  0
  5  6  1  0
  6  7  1  0
  8  7  1  1
  8  9  1  0
  9 10  2  0
  9 11  1  0
 11 12  1  0
 12 13  2  0
 13 14  1  0
 14 15  2  0
 15 16  1  0
 16 17  2  0
 17 18  1  0
 18 19  2  0
 19 20  1  0
 20 21  2  0
 20 22  1  0
 19 23  1  0
 18 24  1  0
 17 25  1  0
 15 26  1  0
 13 27  1  0
 11 28  1  0
 28 29  1  0
 29 30  1  0
 30 31  1  0
 30 32  1  0
 30 33  1  0
 29 34  1  6
 28 35  1  0
 28 36  1  0
  8 37  1  0
 37 38  2  0
 38 39  1  0
 39 40  2  0
 40 41  1  0
 41 42  2  0
 42 43  1  0
 43 44  2  0
 41 45  1  0
 40 46  1  0
 39 47  1  0
 38 48  1  0
  7 49  1  0
  7 50  1  0
  5 51  1  0
  5 52  1  0
  2 53  1  0
  1 54  1  0
  1 55  1  0
  1 56  1  0
 43  6  1  0
 29  8  1  0
 42 37  1  0
 21 12  1  0
 21 16  1  0
M  END
>  <cnnaffinities>  (36) 
[6.40416]

>  <score>  (36) 
6.40416

>  <index>  (36) 
37

>  <Smiles>  (36) 
C(N(C(=O)C(N1C([C@@]2(C(=O)N(c3c(nc(c4c(c(c(c(c34)[H])[H])[H])[H])[H])[H])C([C@@]2(C([H])([H])[H])[H])([H])[H])c2c(c(c(c(c2C1=O)[H])[H])[H])[H])([H])[H])([H])[H])[H])([H])([H])[H]

>  <h>  (36) 
<NA>

>  <Training>  (36) 
True

>  <Success>  (36) 
True

>  <enamine_searched>  (36) 
False

>  <enamine_id>  (36) 
nan

$$$$

     RDKit          3D

 46 48  0  0  0  0  0  0  0  0999 V2000
   -8.1584   -4.6947  -26.5428 C   0  0  0  0  0  0  0  0  0  0  0  0
   -8.6538   -4.9599  -25.1190 C   0  0  1  0  0  0  0  0  0  0  0  0
   -7.5894   -5.5252  -24.1818 C   0  0  0  0  0  0  0  0  0  0  0  0
   -6.6146   -4.5188  -23.5536 C   0  0  1  0  0  0  0  0  0  0  0  0
   -5.4117   -4.1595  -24.4400 C   0  0  0  0  0  0  0  0  0  0  0  0
   -4.6074   -3.7377  -23.8292 H   0  0  0  0  0  0  0  0  0  0  0  0
   -5.6631   -3.4317  -25.2145 H   0  0  0  0  0  0  0  0  0  0  0  0
   -5.0162   -5.0546  -24.9376 H   0  0  0  0  0  0  0  0  0  0  0  0
   -7.3241   -3.3377  -23.0138 N   0  0  0  0  0  0  0  0  0  0  0  0
   -6.7228   -2.7038  -21.9370 C   0  0  0  0  0  0  0  0  0  0  0  0
   -5.6780   -3.1214  -21.4634 O   0  0  0  0  0  0  0  0  0  0  0  0
   -7.4071   -1.4706  -21.2815 C   0  0  0  0  0  0  0  0  0  0  0  0
   -6.5778   -0.8345  -20.1863 C   0  0  0  0  0  0  0  0  0  0  0  0
   -6.8716   -1.0478  -18.8650 C   0  0  0  0  0  0  0  0  0  0  0  0
   -6.1846   -0.5422  -17.8054 N   0  0  0  0  0  0  0  0  0  0  0  0
   -5.1563    0.2239  -18.0680 C   0  0  0  0  0  0  0  0  0  0  0  0
   -4.7198    0.5311  -19.3830 C   0  0  0  0  0  0  0  0  0  0  0  0
   -3.5917    1.3570  -19.6236 C   0  0  0  0  0  0  0  0  0  0  0  0
   -3.1917    1.6355  -20.9020 C   0  0  0  0  0  0  0  0  0  0  0  0
   -3.9076    1.0963  -21.9928 C   0  0  0  0  0  0  0  0  0  0  0  0
   -5.0012    0.2915  -21.7863 C   0  0  0  0  0  0  0  0  0  0  0  0
   -5.4450   -0.0134  -20.4741 C   0  0  0  0  0  0  0  0  0  0  0  0
   -5.5314   -0.1234  -22.6380 H   0  0  0  0  0  0  0  0  0  0  0  0
   -3.5819    1.3143  -23.0052 H   0  0  0  0  0  0  0  0  0  0  0  0
   -2.3308    2.2728  -21.0875 H   0  0  0  0  0  0  0  0  0  0  0  0
   -3.0594    1.7735  -18.7711 H   0  0  0  0  0  0  0  0  0  0  0  0
   -4.6035    0.6286  -17.2165 H   0  0  0  0  0  0  0  0  0  0  0  0
   -7.7195   -1.6705  -18.5848 H   0  0  0  0  0  0  0  0  0  0  0  0
   -7.6712   -0.7134  -22.0317 H   0  0  0  0  0  0  0  0  0  0  0  0
   -8.3590   -1.8080  -20.8476 H   0  0  0  0  0  0  0  0  0  0  0  0
   -8.4099   -2.7192  -23.7937 C   0  0  1  0  0  0  0  0  0  0  0  0
   -7.9394   -1.6591  -24.8007 C   0  0  0  0  0  0  0  0  0  0  0  0
   -7.4432   -2.0881  -25.6754 H   0  0  0  0  0  0  0  0  0  0  0  0
   -8.7984   -1.0844  -25.1701 H   0  0  0  0  0  0  0  0  0  0  0  0
   -7.2436   -0.9499  -24.3424 H   0  0  0  0  0  0  0  0  0  0  0  0
   -9.3296   -3.7773  -24.4251 C   0  0  0  0  0  0  0  0  0  0  0  0
   -9.9791   -4.1701  -23.6356 H   0  0  0  0  0  0  0  0  0  0  0  0
   -9.9962   -3.2779  -25.1360 H   0  0  0  0  0  0  0  0  0  0  0  0
   -9.0328   -2.1948  -23.0633 H   0  0  0  0  0  0  0  0  0  0  0  0
   -6.1942   -5.0186  -22.6795 H   0  0  0  0  0  0  0  0  0  0  0  0
   -8.0927   -6.0556  -23.3658 H   0  0  0  0  0  0  0  0  0  0  0  0
   -7.0112   -6.2884  -24.7145 H   0  0  0  0  0  0  0  0  0  0  0  0
   -9.4276   -5.7357  -25.2236 H   0  0  0  0  0  0  0  0  0  0  0  0
   -7.9241   -5.6405  -27.0468 H   0  0  0  0  0  0  0  0  0  0  0  0
   -8.9308   -4.1943  -27.1382 H   0  0  0  0  0  0  0  0  0  0  0  0
   -7.2551   -4.0807  -26.5815 H   0  0  0  0  0  0  0  0  0  0  0  0
  1  2  1  0
  2  3  1  0
  3  4  1  0
  4  5  1  0
  5  6  1  0
  5  7  1  0
  5  8  1  0
  4  9  1  0
  9 10  1  0
 10 11  2  0
 10 12  1  0
 12 13  1  0
 13 14  2  0
 14 15  1  0
 15 16  2  0
 16 17  1  0
 17 18  2  0
 18 19  1  0
 19 20  2  0
 20 21  1  0
 21 22  2  0
 21 23  1  0
 20 24  1  0
 19 25  1  0
 18 26  1  0
 16 27  1  0
 14 28  1  0
 12 29  1  0
 12 30  1  0
  9 31  1  0
 31 32  1  0
 32 33  1  0
 32 34  1  0
 32 35  1  0
 31 36  1  0
 36 37  1  0
 36 38  1  0
 31 39  1  1
  4 40  1  1
  3 41  1  0
  3 42  1  0
  2 43  1  6
  1 44  1  0
  1 45  1  0
  1 46  1  0
 36  2  1  0
 22 13  1  0
 22 17  1  0
M  END
>  <cnnaffinities>  (37) 
[5.31199]

>  <score>  (37) 
5.31199

>  <index>  (37) 
38

>  <Smiles>  (37) 
C([C@]1(C([C@@](C([H])([H])[H])(N(C(=O)C(c2c(nc(c3c(c(c(c(c23)[H])[H])[H])[H])[H])[H])([H])[H])[C@@](C([H])([H])[H])(C1([H])[H])[H])[H])([H])[H])[H])([H])([H])[H]

>  <h>  (37) 
<NA>

>  <Training>  (37) 
True

>  <Success>  (37) 
True

>  <enamine_searched>  (37) 
False

>  <enamine_id>  (37) 
nan

$$$$

     RDKit          3D

 40 44  0  0  0  0  0  0  0  0999 V2000
   -5.1683   -0.4460  -25.7334 C   0  0  0  0  0  0  0  0  0  0  0  0
   -6.6429   -0.3497  -25.3745 C   0  0  0  0  0  0  0  0  0  0  0  0
   -7.2426    0.7168  -25.3710 O   0  0  0  0  0  0  0  0  0  0  0  0
   -7.2808   -1.5223  -25.0862 N   0  0  0  0  0  0  0  0  0  0  0  0
   -6.6517   -2.8107  -24.7275 C   0  0  0  0  0  0  0  0  0  0  0  0
   -7.8286   -3.5189  -24.0265 C   0  0  2  0  0  0  0  0  0  0  0  0
   -9.0228   -2.9962  -24.8403 C   0  0  0  0  0  0  0  0  0  0  0  0
   -8.6700   -1.5256  -24.5542 C   0  0  1  0  0  0  0  0  0  0  0  0
   -8.5540   -1.5731  -23.0870 C   0  0  0  0  0  0  0  0  0  0  0  0
   -8.1585   -0.6215  -22.0905 C   0  0  0  0  0  0  0  0  0  0  0  0
   -8.3509    0.5659  -21.9946 O   0  0  0  0  0  1  0  0  0  0  0  0
   -7.3916   -1.3985  -21.1850 N   0  0  0  0  0  0  0  0  0  0  0  0
   -6.5771   -0.8291  -20.1722 C   0  0  0  0  0  0  0  0  0  0  0  0
   -6.8875   -1.0591  -18.8584 C   0  0  0  0  0  0  0  0  0  0  0  0
   -6.1906   -0.5447  -17.8175 N   0  0  0  0  0  0  0  0  0  0  0  0
   -5.1628    0.2173  -18.0850 C   0  0  0  0  0  0  0  0  0  0  0  0
   -4.7217    0.5290  -19.4001 C   0  0  0  0  0  0  0  0  0  0  0  0
   -3.5882    1.3540  -19.6328 C   0  0  0  0  0  0  0  0  0  0  0  0
   -3.1779    1.6274  -20.9081 C   0  0  0  0  0  0  0  0  0  0  0  0
   -3.8858    1.0769  -22.0016 C   0  0  0  0  0  0  0  0  0  0  0  0
   -4.9782    0.2719  -21.8038 C   0  0  0  0  0  0  0  0  0  0  0  0
   -5.4426   -0.0128  -20.4890 C   0  0  0  0  0  0  0  0  0  0  0  0
   -5.4957   -0.1454  -22.6653 H   0  0  0  0  0  0  0  0  0  0  0  0
   -3.5611    1.2943  -23.0150 H   0  0  0  0  0  0  0  0  0  0  0  0
   -2.3195    2.2677  -21.0912 H   0  0  0  0  0  0  0  0  0  0  0  0
   -3.0724    1.7693  -18.7711 H   0  0  0  0  0  0  0  0  0  0  0  0
   -4.6217    0.6231  -17.2293 H   0  0  0  0  0  0  0  0  0  0  0  0
   -7.7375   -1.6813  -18.5963 H   0  0  0  0  0  0  0  0  0  0  0  0
   -7.2467   -2.7210  -21.6275 C   0  0  0  0  0  0  0  0  0  0  0  0
   -6.5211   -3.5641  -21.1623 O   0  0  0  0  0  0  0  0  0  0  0  0
   -8.0671   -2.8076  -22.7487 N   0  0  0  0  0  0  0  0  0  0  0  0
   -9.2564   -0.7112  -24.9817 H   0  0  0  0  0  0  0  0  0  0  0  0
   -8.9630   -3.2425  -25.9050 H   0  0  0  0  0  0  0  0  0  0  0  0
   -9.9838   -3.3019  -24.4280 H   0  0  0  0  0  0  0  0  0  0  0  0
   -7.7199   -4.5861  -23.8794 H   0  0  0  0  0  0  0  0  0  0  0  0
   -5.8050   -2.7077  -24.0364 H   0  0  0  0  0  0  0  0  0  0  0  0
   -6.3308   -3.3507  -25.6223 H   0  0  0  0  0  0  0  0  0  0  0  0
   -4.9793   -1.1837  -26.5225 H   0  0  0  0  0  0  0  0  0  0  0  0
   -4.8801    0.5473  -26.0773 H   0  0  0  0  0  0  0  0  0  0  0  0
   -4.5356   -0.7252  -24.8792 H   0  0  0  0  0  0  0  0  0  0  0  0
  1  2  1  0
  2  3  2  0
  2  4  1  0
  4  5  1  0
  5  6  1  0
  6  7  1  0
  7  8  1  0
  8  9  1  0
  9 10  2  0
 10 11  1  0
 10 12  1  0
 12 13  1  0
 13 14  2  0
 14 15  1  0
 15 16  2  0
 16 17  1  0
 17 18  2  0
 18 19  1  0
 19 20  2  0
 20 21  1  0
 21 22  2  0
 21 23  1  0
 20 24  1  0
 19 25  1  0
 18 26  1  0
 16 27  1  0
 14 28  1  0
 12 29  1  0
 29 30  2  0
 29 31  1  0
  8 32  1  1
  7 33  1  0
  7 34  1  0
  6 35  1  1
  5 36  1  0
  5 37  1  0
  1 38  1  0
  1 39  1  0
  1 40  1  0
  8  4  1  0
 31  9  1  0
 31  6  1  0
 22 13  1  0
 22 17  1  0
M  CHG  1  11  -1
M  END
>  <cnnaffinities>  (38) 
[5.44403, 5.46133, 5.28397]

>  <score>  (38) 
5.44403

>  <index>  (38) 
39

>  <Smiles>  (38) 
C(C(=O)N1C([C@@]2(C([C@]1(c1c([O-])n(c3c(nc(c4c(c(c(c(c34)[H])[H])[H])[H])[H])[H])c(=O)n21)[H])([H])[H])[H])([H])[H])([H])([H])[H]

>  <h>  (38) 
<NA>

>  <Training>  (38) 
True

>  <Success>  (38) 
True

>  <enamine_searched>  (38) 
False

>  <enamine_id>  (38) 
nan

$$$$

     RDKit          3D

 40 42  0  0  0  0  0  0  0  0999 V2000
   -9.3052   -6.6305  -25.1077 C   0  0  0  0  0  0  0  0  0  0  0  0
   -8.9994   -5.8141  -23.8549 C   0  0  0  0  0  0  0  0  0  0  0  0
   -7.5575   -5.9909  -23.4020 C   0  0  0  0  0  0  0  0  0  0  0  0
   -7.2584   -5.1703  -22.1597 C   0  0  0  0  0  0  0  0  0  0  0  0
   -7.6217   -3.7628  -22.3160 N   0  0  0  0  0  0  0  0  0  0  0  0
   -6.7874   -2.8023  -21.7709 C   0  0  0  0  0  0  0  0  0  0  0  0
   -5.5887   -2.9886  -21.6717 O   0  0  0  0  0  0  0  0  0  0  0  0
   -7.4209   -1.4843  -21.2562 C   0  0  0  0  0  0  0  0  0  0  0  0
   -6.5815   -0.8259  -20.1827 C   0  0  0  0  0  0  0  0  0  0  0  0
   -6.8725   -1.0423  -18.8622 C   0  0  0  0  0  0  0  0  0  0  0  0
   -6.1823   -0.5418  -17.8060 N   0  0  0  0  0  0  0  0  0  0  0  0
   -5.1543    0.2245  -18.0695 C   0  0  0  0  0  0  0  0  0  0  0  0
   -4.7196    0.5324  -19.3837 C   0  0  0  0  0  0  0  0  0  0  0  0
   -3.5907    1.3575  -19.6208 C   0  0  0  0  0  0  0  0  0  0  0  0
   -3.1885    1.6350  -20.8987 C   0  0  0  0  0  0  0  0  0  0  0  0
   -3.9031    1.0938  -21.9901 C   0  0  0  0  0  0  0  0  0  0  0  0
   -4.9974    0.2896  -21.7858 C   0  0  0  0  0  0  0  0  0  0  0  0
   -5.4450   -0.0105  -20.4746 C   0  0  0  0  0  0  0  0  0  0  0  0
   -5.5161   -0.1408  -22.6359 H   0  0  0  0  0  0  0  0  0  0  0  0
   -3.5748    1.3082  -23.0031 H   0  0  0  0  0  0  0  0  0  0  0  0
   -2.3272    2.2726  -21.0831 H   0  0  0  0  0  0  0  0  0  0  0  0
   -3.0615    1.7743  -18.7667 H   0  0  0  0  0  0  0  0  0  0  0  0
   -4.6044    0.6283  -17.2165 H   0  0  0  0  0  0  0  0  0  0  0  0
   -7.7180   -1.6681  -18.5811 H   0  0  0  0  0  0  0  0  0  0  0  0
   -7.5633   -0.7945  -22.0994 H   0  0  0  0  0  0  0  0  0  0  0  0
   -8.4235   -1.6905  -20.8503 H   0  0  0  0  0  0  0  0  0  0  0  0
   -8.9718   -3.5138  -22.7990 C   0  0  0  0  0  0  0  0  0  0  0  0
   -9.2782   -4.3315  -24.0512 C   0  0  0  0  0  0  0  0  0  0  0  0
  -10.3254   -4.1838  -24.3328 H   0  0  0  0  0  0  0  0  0  0  0  0
   -8.6799   -3.9650  -24.8911 H   0  0  0  0  0  0  0  0  0  0  0  0
   -9.0721   -2.4529  -23.0289 H   0  0  0  0  0  0  0  0  0  0  0  0
   -9.7175   -3.7532  -22.0248 H   0  0  0  0  0  0  0  0  0  0  0  0
   -7.8202   -5.6254  -21.3335 H   0  0  0  0  0  0  0  0  0  0  0  0
   -6.2027   -5.2166  -21.8971 H   0  0  0  0  0  0  0  0  0  0  0  0
   -6.8821   -5.6982  -24.2096 H   0  0  0  0  0  0  0  0  0  0  0  0
   -7.3609   -7.0499  -23.1960 H   0  0  0  0  0  0  0  0  0  0  0  0
   -9.6504   -6.1667  -23.0509 H   0  0  0  0  0  0  0  0  0  0  0  0
   -9.1217   -7.7004  -24.9477 H   0  0  0  0  0  0  0  0  0  0  0  0
  -10.3492   -6.5115  -25.4228 H   0  0  0  0  0  0  0  0  0  0  0  0
   -8.6687   -6.3071  -25.9404 H   0  0  0  0  0  0  0  0  0  0  0  0
  1  2  1  0
  2  3  1  0
  3  4  1  0
  4  5  1  0
  5  6  1  0
  6  7  2  0
  6  8  1  0
  8  9  1  0
  9 10  2  0
 10 11  1  0
 11 12  2  0
 12 13  1  0
 13 14  2  0
 14 15  1  0
 15 16  2  0
 16 17  1  0
 17 18  2  0
 17 19  1  0
 16 20  1  0
 15 21  1  0
 14 22  1  0
 12 23  1  0
 10 24  1  0
  8 25  1  0
  8 26  1  0
  5 27  1  0
 27 28  1  0
 28 29  1  0
 28 30  1  0
 27 31  1  0
 27 32  1  0
  4 33  1  0
  4 34  1  0
  3 35  1  0
  3 36  1  0
  2 37  1  0
  1 38  1  0
  1 39  1  0
  1 40  1  0
 28  2  1  0
 18  9  1  0
 18 13  1  0
M  END
>  <cnnaffinities>  (39) 
[4.48385, 4.48345]

>  <score>  (39) 
4.48385

>  <index>  (39) 
40

>  <Smiles>  (39) 
C(C1(C(C(N(C(=O)C(c2c(nc(c3c(c(c(c(c23)[H])[H])[H])[H])[H])[H])([H])[H])C(C1([H])[H])([H])[H])([H])[H])([H])[H])[H])([H])([H])[H]

>  <h>  (39) 
<NA>

>  <Training>  (39) 
True

>  <Success>  (39) 
True

>  <enamine_searched>  (39) 
False

>  <enamine_id>  (39) 
nan

$$$$

     RDKit          3D

 67 71  0  0  0  0  0  0  0  0999 V2000
   -7.6197    3.0423  -21.9389 C   0  0  0  0  0  0  0  0  0  0  0  0
   -8.7933    2.5494  -22.6456 N   0  0  0  0  0  0  0  0  0  0  0  0
   -8.5374    1.7423  -23.7159 C   0  0  0  0  0  0  0  0  0  0  0  0
   -7.3909    1.4762  -24.0546 O   0  0  0  0  0  0  0  0  0  0  0  0
   -9.7070    1.1563  -24.4979 C   0  0  0  0  0  0  0  0  0  0  0  0
  -10.1392   -0.0842  -23.8970 N   0  0  0  0  0  0  0  0  0  0  0  0
   -9.2389   -1.2297  -23.8958 C   0  0  0  0  0  0  0  0  0  0  0  0
   -9.2976   -1.9723  -22.5322 C   0  0  2  0  0  0  0  0  0  0  0  0
   -8.6985   -1.0293  -21.4515 C   0  0  0  0  0  0  0  0  0  0  0  0
   -9.2336   -0.0528  -20.9603 O   0  0  0  0  0  0  0  0  0  0  0  0
   -7.4078   -1.4411  -21.1735 N   0  0  0  0  0  0  0  0  0  0  0  0
   -6.6214   -0.8329  -20.1653 C   0  0  0  0  0  0  0  0  0  0  0  0
   -6.9307   -1.0466  -18.8428 C   0  0  0  0  0  0  0  0  0  0  0  0
   -6.2199   -0.5507  -17.8059 N   0  0  0  0  0  0  0  0  0  0  0  0
   -5.1826    0.1975  -18.0876 C   0  0  0  0  0  0  0  0  0  0  0  0
   -4.7570    0.5104  -19.4085 C   0  0  0  0  0  0  0  0  0  0  0  0
   -3.6386    1.3511  -19.6482 C   0  0  0  0  0  0  0  0  0  0  0  0
   -3.2619    1.6521  -20.9280 C   0  0  0  0  0  0  0  0  0  0  0  0
   -3.9936    1.1408  -22.0208 C   0  0  0  0  0  0  0  0  0  0  0  0
   -5.0918    0.3345  -21.8152 C   0  0  0  0  0  0  0  0  0  0  0  0
   -5.4943   -0.0158  -20.4953 C   0  0  0  0  0  0  0  0  0  0  0  0
   -5.6779    0.0148  -22.6713 H   0  0  0  0  0  0  0  0  0  0  0  0
   -3.6887    1.3846  -23.0338 H   0  0  0  0  0  0  0  0  0  0  0  0
   -2.4075    2.2982  -21.1064 H   0  0  0  0  0  0  0  0  0  0  0  0
   -3.1100    1.7558  -18.7897 H   0  0  0  0  0  0  0  0  0  0  0  0
   -4.6197    0.6044  -17.2481 H   0  0  0  0  0  0  0  0  0  0  0  0
   -7.7864   -1.6669  -18.5891 H   0  0  0  0  0  0  0  0  0  0  0  0
   -6.9679   -2.5718  -21.9665 C   0  0  0  0  0  0  0  0  0  0  0  0
   -8.3046   -3.1686  -22.4506 C   0  0  2  0  0  0  0  0  0  0  0  0
   -8.1981   -3.9761  -23.7421 C   0  0  0  0  0  0  0  0  0  0  0  0
   -7.2496   -5.4756  -23.5271 S   0  0  0  0  0  0  0  0  0  0  0  0
   -5.8508   -5.1154  -23.3710 O   0  0  0  0  0  0  0  0  0  0  0  0
   -7.8958   -6.2934  -22.5107 O   0  0  0  0  0  0  0  0  0  0  0  0
   -7.4212   -6.2388  -24.9934 N   0  0  0  0  0  0  0  0  0  0  0  0
   -8.6766   -6.9386  -25.2452 C   0  0  0  0  0  0  0  0  0  0  0  0
   -9.5127   -6.2793  -25.5374 H   0  0  0  0  0  0  0  0  0  0  0  0
   -8.5001   -7.6414  -26.0641 H   0  0  0  0  0  0  0  0  0  0  0  0
   -8.9492   -7.5029  -24.3487 H   0  0  0  0  0  0  0  0  0  0  0  0
   -6.7523   -5.6423  -26.1451 C   0  0  0  0  0  0  0  0  0  0  0  0
   -7.2974   -4.7924  -26.5926 H   0  0  0  0  0  0  0  0  0  0  0  0
   -6.6602   -6.4208  -26.9072 H   0  0  0  0  0  0  0  0  0  0  0  0
   -5.7481   -5.3229  -25.8493 H   0  0  0  0  0  0  0  0  0  0  0  0
   -9.1943   -4.2714  -24.0880 H   0  0  0  0  0  0  0  0  0  0  0  0
   -7.7011   -3.3963  -24.5287 H   0  0  0  0  0  0  0  0  0  0  0  0
   -8.6458   -3.8414  -21.6559 H   0  0  0  0  0  0  0  0  0  0  0  0
   -6.3361   -2.2557  -22.8137 H   0  0  0  0  0  0  0  0  0  0  0  0
   -6.3938   -3.2907  -21.3733 H   0  0  0  0  0  0  0  0  0  0  0  0
  -10.7688   -2.3054  -22.2953 C   0  0  0  0  0  0  0  0  0  0  0  0
  -11.1944   -3.4166  -21.5593 C   0  0  0  0  0  0  0  0  0  0  0  0
  -12.5164   -3.5025  -21.1619 C   0  0  0  0  0  0  0  0  0  0  0  0
  -12.8661   -4.4086  -20.2373 F   0  0  0  0  0  0  0  0  0  0  0  0
  -13.5037   -2.6392  -21.6093 C   0  0  0  0  0  0  0  0  0  0  0  0
  -13.1116   -1.5929  -22.4105 C   0  0  0  0  0  0  0  0  0  0  0  0
  -11.7648   -1.4079  -22.7108 C   0  0  0  0  0  0  0  0  0  0  0  0
  -11.4263   -0.1665  -23.4576 C   0  0  0  0  0  0  0  0  0  0  0  0
  -12.2591    0.7097  -23.6504 O   0  0  0  0  0  0  0  0  0  0  0  0
  -13.8199   -0.8775  -22.8121 H   0  0  0  0  0  0  0  0  0  0  0  0
  -14.5281   -2.7753  -21.2904 H   0  0  0  0  0  0  0  0  0  0  0  0
  -10.5152   -4.1880  -21.2218 H   0  0  0  0  0  0  0  0  0  0  0  0
   -9.5206   -1.9237  -24.7028 H   0  0  0  0  0  0  0  0  0  0  0  0
   -8.2273   -0.8549  -24.0862 H   0  0  0  0  0  0  0  0  0  0  0  0
   -9.3670    0.9673  -25.5213 H   0  0  0  0  0  0  0  0  0  0  0  0
  -10.5844    1.8036  -24.5348 H   0  0  0  0  0  0  0  0  0  0  0  0
   -9.6325    2.4114  -22.0866 H   0  0  0  0  0  0  0  0  0  0  0  0
   -7.9020    3.7576  -21.1639 H   0  0  0  0  0  0  0  0  0  0  0  0
   -7.0566    2.2136  -21.4847 H   0  0  0  0  0  0  0  0  0  0  0  0
   -6.9640    3.5652  -22.6411 H   0  0  0  0  0  0  0  0  0  0  0  0
  1  2  1  0
  2  3  1  0
  3  4  2  0
  3  5  1  0
  5  6  1  0
  6  7  1  0
  8  7  1  6
  8  9  1  0
  9 10  2  0
  9 11  1  0
 11 12  1  0
 12 13  2  0
 13 14  1  0
 14 15  2  0
 15 16  1  0
 16 17  2  0
 17 18  1  0
 18 19  2  0
 19 20  1  0
 20 21  2  0
 20 22  1  0
 19 23  1  0
 18 24  1  0
 17 25  1  0
 15 26  1  0
 13 27  1  0
 11 28  1  0
 28 29  1  0
 29 30  1  0
 30 31  1  0
 31 32  2  0
 31 33  2  0
 31 34  1  0
 34 35  1  0
 35 36  1  0
 35 37  1  0
 35 38  1  0
 34 39  1  0
 39 40  1  0
 39 41  1  0
 39 42  1  0
 30 43  1  0
 30 44  1  0
 29 45  1  1
 28 46  1  0
 28 47  1  0
  8 48  1  0
 48 49  2  0
 49 50  1  0
 50 51  1  0
 50 52  2  0
 52 53  1  0
 53 54  2  0
 54 55  1  0
 55 56  2  0
 53 57  1  0
 52 58  1  0
 49 59  1  0
  7 60  1  0
  7 61  1  0
  5 62  1  0
  5 63  1  0
  2 64  1  0
  1 65  1  0
  1 66  1  0
  1 67  1  0
 55  6  1  0
 29  8  1  0
 54 48  1  0
 21 12  1  0
 21 16  1  0
M  END
>  <cnnaffinities>  (40) 
[7.08892, 6.79013]

>  <score>  (40) 
7.08892

>  <index>  (40) 
41

>  <Smiles>  (40) 
C(N(C(=O)C(N1C([C@@]2(C(=O)N(c3c(nc(c4c(c(c(c(c34)[H])[H])[H])[H])[H])[H])C([C@@]2(C(S(=O)(=O)N(C([H])([H])[H])C([H])([H])[H])([H])[H])[H])([H])[H])c2c(c(F)c(c(c2C1=O)[H])[H])[H])([H])[H])([H])[H])[H])([H])([H])[H]

>  <h>  (40) 
<NA>

>  <Training>  (40) 
True

>  <Success>  (40) 
True

>  <enamine_searched>  (40) 
False

>  <enamine_id>  (40) 
nan

$$$$

     RDKit          3D

 67 72  0  0  0  0  0  0  0  0999 V2000
   -7.3912    3.3846  -21.7611 C   0  0  0  0  0  0  0  0  0  0  0  0
   -8.2596    2.9347  -22.8348 N   0  0  0  0  0  0  0  0  0  0  0  0
   -7.6909    2.2584  -23.8573 C   0  0  0  0  0  0  0  0  0  0  0  0
   -6.4757    2.1559  -23.9743 O   0  0  0  0  0  0  0  0  0  0  0  0
   -8.6404    1.6416  -24.8912 C   0  0  0  0  0  0  0  0  0  0  0  0
   -9.3629    0.4802  -24.4017 N   0  0  0  0  0  0  0  0  0  0  0  0
   -8.6415   -0.7711  -24.2468 C   0  0  0  0  0  0  0  0  0  0  0  0
   -9.0339   -1.5047  -22.9376 C   0  0  2  0  0  0  0  0  0  0  0  0
   -8.4967   -0.7231  -21.7089 C   0  0  0  0  0  0  0  0  0  0  0  0
   -8.9443    0.3047  -21.2424 O   0  0  0  0  0  0  0  0  0  0  0  0
   -7.4001   -1.3860  -21.2055 N   0  0  0  0  0  0  0  0  0  0  0  0
   -6.6025   -0.8107  -20.1783 C   0  0  0  0  0  0  0  0  0  0  0  0
   -6.9059   -1.0430  -18.8617 C   0  0  0  0  0  0  0  0  0  0  0  0
   -6.1993   -0.5499  -17.8167 N   0  0  0  0  0  0  0  0  0  0  0  0
   -5.1660    0.2093  -18.0803 C   0  0  0  0  0  0  0  0  0  0  0  0
   -4.7284    0.5311  -19.3956 C   0  0  0  0  0  0  0  0  0  0  0  0
   -3.6022    1.3655  -19.6400 C   0  0  0  0  0  0  0  0  0  0  0  0
   -3.2163    1.6568  -20.9190 C   0  0  0  0  0  0  0  0  0  0  0  0
   -3.9407    1.1297  -22.0115 C   0  0  0  0  0  0  0  0  0  0  0  0
   -5.0332    0.3229  -21.8011 C   0  0  0  0  0  0  0  0  0  0  0  0
   -5.4643    0.0035  -20.4856 C   0  0  0  0  0  0  0  0  0  0  0  0
   -5.5876   -0.0660  -22.6512 H   0  0  0  0  0  0  0  0  0  0  0  0
   -3.6468    1.3664  -23.0285 H   0  0  0  0  0  0  0  0  0  0  0  0
   -2.3624    2.3049  -21.1001 H   0  0  0  0  0  0  0  0  0  0  0  0
   -3.0747    1.7761  -18.7824 H   0  0  0  0  0  0  0  0  0  0  0  0
   -4.6184    0.6142  -17.2284 H   0  0  0  0  0  0  0  0  0  0  0  0
   -7.7578   -1.6674  -18.6029 H   0  0  0  0  0  0  0  0  0  0  0  0
   -7.0440   -2.5884  -21.9296 C   0  0  0  0  0  0  0  0  0  0  0  0
   -8.2891   -2.8718  -22.7934 C   0  0  2  0  0  0  0  0  0  0  0  0
   -7.9206   -3.6309  -24.0882 C   0  0  0  0  0  0  0  0  0  0  0  0
   -7.3796   -4.9375  -23.8006 N   0  0  0  0  0  0  0  0  0  0  0  0
   -6.0596   -5.2847  -23.8085 C   0  0  0  0  0  0  0  0  0  0  0  0
   -4.8015   -4.2325  -24.4222 S   0  0  0  0  0  0  0  0  0  0  0  0
   -3.6510   -5.4724  -23.9956 C   0  0  0  0  0  0  0  0  0  0  0  0
   -4.1441   -6.5396  -23.4689 N   0  0  0  0  0  0  0  0  0  0  0  0
   -5.5214   -6.4597  -23.3636 C   0  0  0  0  0  0  0  0  0  0  0  0
   -6.3050   -7.6051  -22.7847 C   0  0  0  0  0  0  0  0  0  0  0  0
   -7.0261   -8.0156  -23.5051 H   0  0  0  0  0  0  0  0  0  0  0  0
   -6.8649   -7.3009  -21.8897 H   0  0  0  0  0  0  0  0  0  0  0  0
   -5.6178   -8.4066  -22.4997 H   0  0  0  0  0  0  0  0  0  0  0  0
   -2.5928   -5.3144  -24.1812 H   0  0  0  0  0  0  0  0  0  0  0  0
   -8.0175   -5.6618  -23.5063 H   0  0  0  0  0  0  0  0  0  0  0  0
   -8.8144   -3.7756  -24.7045 H   0  0  0  0  0  0  0  0  0  0  0  0
   -7.1781   -3.0708  -24.6750 H   0  0  0  0  0  0  0  0  0  0  0  0
   -8.9554   -3.5255  -22.2216 H   0  0  0  0  0  0  0  0  0  0  0  0
   -6.1498   -2.4325  -22.5525 H   0  0  0  0  0  0  0  0  0  0  0  0
   -6.8136   -3.4117  -21.2427 H   0  0  0  0  0  0  0  0  0  0  0  0
  -10.5532   -1.5511  -22.8645 C   0  0  0  0  0  0  0  0  0  0  0  0
  -11.1912   -2.4336  -21.9838 C   0  0  0  0  0  0  0  0  0  0  0  0
  -12.5713   -2.4574  -21.9008 C   0  0  0  0  0  0  0  0  0  0  0  0
  -13.3470   -3.5685  -20.8088 Cl  0  0  0  0  0  0  0  0  0  0  0  0
  -13.3616   -1.5958  -22.6612 C   0  0  0  0  0  0  0  0  0  0  0  0
  -12.7391   -0.6703  -23.4739 C   0  0  0  0  0  0  0  0  0  0  0  0
  -11.3470   -0.6216  -23.5540 C   0  0  0  0  0  0  0  0  0  0  0  0
  -10.7304    0.5137  -24.3219 C   0  0  0  0  0  0  0  0  0  0  0  0
  -11.4064    1.4086  -24.8031 O   0  0  0  0  0  0  0  0  0  0  0  0
  -13.3050    0.0568  -24.0473 H   0  0  0  0  0  0  0  0  0  0  0  0
  -14.4415   -1.6407  -22.5828 H   0  0  0  0  0  0  0  0  0  0  0  0
  -10.6235   -3.0874  -21.3320 H   0  0  0  0  0  0  0  0  0  0  0  0
   -7.5750   -0.5262  -24.2258 H   0  0  0  0  0  0  0  0  0  0  0  0
   -8.8410   -1.4336  -25.1054 H   0  0  0  0  0  0  0  0  0  0  0  0
   -8.0055    1.3792  -25.7451 H   0  0  0  0  0  0  0  0  0  0  0  0
   -9.4076    2.3514  -25.2132 H   0  0  0  0  0  0  0  0  0  0  0  0
   -9.2562    2.8577  -22.6812 H   0  0  0  0  0  0  0  0  0  0  0  0
   -6.7869    2.5403  -21.3947 H   0  0  0  0  0  0  0  0  0  0  0  0
   -6.7070    4.1632  -22.1159 H   0  0  0  0  0  0  0  0  0  0  0  0
   -8.0019    3.8023  -20.9627 H   0  0  0  0  0  0  0  0  0  0  0  0
  1  2  1  0
  2  3  1  0
  3  4  2  0
  3  5  1  0
  5  6  1  0
  6  7  1  0
  8  7  1  6
  8  9  1  0
  9 10  2  0
  9 11  1  0
 11 12  1  0
 12 13  2  0
 13 14  1  0
 14 15  2  0
 15 16  1  0
 16 17  2  0
 17 18  1  0
 18 19  2  0
 19 20  1  0
 20 21  2  0
 20 22  1  0
 19 23  1  0
 18 24  1  0
 17 25  1  0
 15 26  1  0
 13 27  1  0
 11 28  1  0
 28 29  1  0
 29 30  1  0
 30 31  1  0
 31 32  1  0
 32 33  1  0
 33 34  1  0
 34 35  2  0
 35 36  1  0
 36 37  1  0
 37 38  1  0
 37 39  1  0
 37 40  1  0
 34 41  1  0
 31 42  1  0
 30 43  1  0
 30 44  1  0
 29 45  1  1
 28 46  1  0
 28 47  1  0
  8 48  1  0
 48 49  2  0
 49 50  1  0
 50 51  1  0
 50 52  2  0
 52 53  1  0
 53 54  2  0
 54 55  1  0
 55 56  2  0
 53 57  1  0
 52 58  1  0
 49 59  1  0
  7 60  1  0
  7 61  1  0
  5 62  1  0
  5 63  1  0
  2 64  1  0
  1 65  1  0
  1 66  1  0
  1 67  1  0
 55  6  1  0
 29  8  1  0
 36 32  2  0
 54 48  1  0
 21 12  1  0
 21 16  1  0
M  END
>  <cnnaffinities>  (41) 
[7.1688]

>  <score>  (41) 
7.1688

>  <index>  (41) 
43

>  <Smiles>  (41) 
C(N(C(=O)C(N1C([C@@]2(C(=O)N(c3c(nc(c4c(c(c(c(c34)[H])[H])[H])[H])[H])[H])C([C@@]2(C(N(c2sc(nc2C([H])([H])[H])[H])[H])([H])[H])[H])([H])[H])c2c(c(Cl)c(c(c2C1=O)[H])[H])[H])([H])[H])([H])[H])[H])([H])([H])[H]

>  <h>  (41) 
<NA>

>  <Training>  (41) 
True

>  <Success>  (41) 
True

>  <enamine_searched>  (41) 
False

>  <enamine_id>  (41) 
nan

$$$$

     RDKit          3D

 60 64  0  0  0  0  0  0  0  0999 V2000
  -14.9211   -2.2812  -23.8684 C   0  0  0  0  0  0  0  0  0  0  0  0
  -14.0462   -3.2241  -23.2260 N   0  0  0  0  0  0  0  0  0  0  0  0
  -13.2654   -2.8224  -22.1939 C   0  0  0  0  0  0  0  0  0  0  0  0
  -13.2419   -1.6775  -21.7619 O   0  0  0  0  0  0  0  0  0  0  0  0
  -12.3928   -3.9469  -21.6677 C   0  0  0  0  0  0  0  0  0  0  0  0
  -11.0629   -3.9254  -22.2388 N   0  0  0  0  0  0  0  0  0  0  0  0
   -9.9450   -3.4112  -21.4685 C   0  0  0  0  0  0  0  0  0  0  0  0
   -8.7641   -2.9318  -22.3475 C   0  0  2  0  0  0  0  0  0  0  0  0
   -7.5407   -2.6988  -21.4523 C   0  0  0  0  0  0  0  0  0  0  0  0
   -6.7950   -3.5459  -21.0064 O   0  0  0  0  0  0  0  0  0  0  0  0
   -7.4070   -1.3420  -21.2295 N   0  0  0  0  0  0  0  0  0  0  0  0
   -6.5856   -0.8427  -20.1925 C   0  0  0  0  0  0  0  0  0  0  0  0
   -6.8889   -1.0994  -18.8790 C   0  0  0  0  0  0  0  0  0  0  0  0
   -6.2133   -0.5721  -17.8290 N   0  0  0  0  0  0  0  0  0  0  0  0
   -5.1988    0.2103  -18.0930 C   0  0  0  0  0  0  0  0  0  0  0  0
   -4.7541    0.5250  -19.4083 C   0  0  0  0  0  0  0  0  0  0  0  0
   -3.6271    1.3516  -19.6424 C   0  0  0  0  0  0  0  0  0  0  0  0
   -3.2234    1.6193  -20.9180 C   0  0  0  0  0  0  0  0  0  0  0  0
   -3.9263    1.0802  -22.0178 C   0  0  0  0  0  0  0  0  0  0  0  0
   -5.0224    0.2751  -21.8199 C   0  0  0  0  0  0  0  0  0  0  0  0
   -5.4647   -0.0135  -20.5021 C   0  0  0  0  0  0  0  0  0  0  0  0
   -5.5419   -0.1561  -22.6695 H   0  0  0  0  0  0  0  0  0  0  0  0
   -3.5929    1.2977  -23.0264 H   0  0  0  0  0  0  0  0  0  0  0  0
   -2.3646    2.2595  -21.0961 H   0  0  0  0  0  0  0  0  0  0  0  0
   -3.1111    1.7670  -18.7814 H   0  0  0  0  0  0  0  0  0  0  0  0
   -4.6599    0.6317  -17.2443 H   0  0  0  0  0  0  0  0  0  0  0  0
   -7.7286   -1.7430  -18.6294 H   0  0  0  0  0  0  0  0  0  0  0  0
   -8.4059   -0.5252  -21.9013 C   0  0  0  0  0  0  0  0  0  0  0  0
   -8.9977   -1.5022  -22.9298 C   0  0  2  0  0  0  0  0  0  0  0  0
  -10.4432   -1.2050  -23.2613 C   0  0  0  0  0  0  0  0  0  0  0  0
  -10.5231    0.0307  -23.9199 O   0  0  0  0  0  0  0  0  0  0  0  0
  -11.8615    0.3000  -24.2473 C   0  0  0  0  0  0  0  0  0  0  0  0
  -12.4927    0.3373  -23.3478 H   0  0  0  0  0  0  0  0  0  0  0  0
  -12.2615   -0.4969  -24.8925 H   0  0  0  0  0  0  0  0  0  0  0  0
  -11.8858    1.2538  -24.7790 H   0  0  0  0  0  0  0  0  0  0  0  0
  -10.8374   -2.0029  -23.9045 H   0  0  0  0  0  0  0  0  0  0  0  0
  -11.0644   -1.1911  -22.3524 H   0  0  0  0  0  0  0  0  0  0  0  0
   -8.4219   -1.4261  -23.8615 H   0  0  0  0  0  0  0  0  0  0  0  0
   -9.1642   -0.1540  -21.1901 H   0  0  0  0  0  0  0  0  0  0  0  0
   -7.9505    0.3479  -22.3822 H   0  0  0  0  0  0  0  0  0  0  0  0
   -8.5038   -3.9740  -23.4019 C   0  0  0  0  0  0  0  0  0  0  0  0
   -7.2349   -4.0995  -23.9656 C   0  0  0  0  0  0  0  0  0  0  0  0
   -7.0166   -5.0397  -24.9533 C   0  0  0  0  0  0  0  0  0  0  0  0
   -5.4500   -5.1229  -25.6869 Cl  0  0  0  0  0  0  0  0  0  0  0  0
   -8.0220   -5.8939  -25.4000 C   0  0  0  0  0  0  0  0  0  0  0  0
   -9.2785   -5.7650  -24.8417 C   0  0  0  0  0  0  0  0  0  0  0  0
   -9.5279   -4.7938  -23.8789 C   0  0  0  0  0  0  0  0  0  0  0  0
  -10.9209   -4.6131  -23.4006 C   0  0  0  0  0  0  0  0  0  0  0  0
  -11.9007   -5.0428  -24.0141 O   0  0  0  0  0  0  0  0  0  0  0  0
  -10.0915   -6.4149  -25.1386 H   0  0  0  0  0  0  0  0  0  0  0  0
   -7.8173   -6.6316  -26.1695 H   0  0  0  0  0  0  0  0  0  0  0  0
   -6.4214   -3.4731  -23.6182 H   0  0  0  0  0  0  0  0  0  0  0  0
   -9.6106   -4.1983  -20.7908 H   0  0  0  0  0  0  0  0  0  0  0  0
  -10.3011   -2.5479  -20.8951 H   0  0  0  0  0  0  0  0  0  0  0  0
  -12.8570   -4.8618  -22.0186 H   0  0  0  0  0  0  0  0  0  0  0  0
  -12.3473   -3.9649  -20.5821 H   0  0  0  0  0  0  0  0  0  0  0  0
  -13.7122   -4.0264  -23.7457 H   0  0  0  0  0  0  0  0  0  0  0  0
  -15.5459   -1.8256  -23.0983 H   0  0  0  0  0  0  0  0  0  0  0  0
  -15.5362   -2.8149  -24.5947 H   0  0  0  0  0  0  0  0  0  0  0  0
  -14.3657   -1.4826  -24.3759 H   0  0  0  0  0  0  0  0  0  0  0  0
  1  2  1  0
  2  3  1  0
  3  4  2  0
  3  5  1  0
  5  6  1  0
  6  7  1  0
  8  7  1  1
  8  9  1  0
  9 10  2  0
  9 11  1  0
 11 12  1  0
 12 13  2  0
 13 14  1  0
 14 15  2  0
 15 16  1  0
 16 17  2  0
 17 18  1  0
 18 19  2  0
 19 20  1  0
 20 21  2  0
 20 22  1  0
 19 23  1  0
 18 24  1  0
 17 25  1  0
 15 26  1  0
 13 27  1  0
 11 28  1  0
 28 29  1  0
 29 30  1  0
 30 31  1  0
 31 32  1  0
 32 33  1  0
 32 34  1  0
 32 35  1  0
 30 36  1  0
 30 37  1  0
 29 38  1  6
 28 39  1  0
 28 40  1  0
  8 41  1  0
 41 42  2  0
 42 43  1  0
 43 44  1  0
 43 45  2  0
 45 46  1  0
 46 47  2  0
 47 48  1  0
 48 49  2  0
 46 50  1  0
 45 51  1  0
 42 52  1  0
  7 53  1  0
  7 54  1  0
  5 55  1  0
  5 56  1  0
  2 57  1  0
  1 58  1  0
  1 59  1  0
  1 60  1  0
 48  6  1  0
 29  8  1  0
 47 41  1  0
 21 12  1  0
 21 16  1  0
M  END
>  <cnnaffinities>  (42) 
[6.57426, 6.64698, 6.70429]

>  <score>  (42) 
6.57426

>  <index>  (42) 
44

>  <Smiles>  (42) 
C(N(C(=O)C(N1C([C@@]2(C(=O)N(c3c(nc(c4c(c(c(c(c34)[H])[H])[H])[H])[H])[H])C([C@@]2(C(OC([H])([H])[H])([H])[H])[H])([H])[H])c2c(c(Cl)c(c(c2C1=O)[H])[H])[H])([H])[H])([H])[H])[H])([H])([H])[H]

>  <h>  (42) 
<NA>

>  <Training>  (42) 
True

>  <Success>  (42) 
True

>  <enamine_searched>  (42) 
False

>  <enamine_id>  (42) 
nan

$$$$

     RDKit          3D

 66 71  0  0  0  0  0  0  0  0999 V2000
   -7.4282    3.3534  -21.7587 C   0  0  0  0  0  0  0  0  0  0  0  0
   -8.3201    2.9052  -22.8166 N   0  0  0  0  0  0  0  0  0  0  0  0
   -7.7577    2.2235  -23.8383 C   0  0  0  0  0  0  0  0  0  0  0  0
   -6.5436    2.1198  -23.9635 O   0  0  0  0  0  0  0  0  0  0  0  0
   -8.7032    1.5948  -24.8660 C   0  0  0  0  0  0  0  0  0  0  0  0
   -9.4190    0.4371  -24.3643 N   0  0  0  0  0  0  0  0  0  0  0  0
   -8.6908   -0.8080  -24.2052 C   0  0  0  0  0  0  0  0  0  0  0  0
   -9.0733   -1.5298  -22.8879 C   0  0  2  0  0  0  0  0  0  0  0  0
   -8.5246   -0.7430  -21.6701 C   0  0  0  0  0  0  0  0  0  0  0  0
   -8.9874    0.2720  -21.1836 O   0  0  0  0  0  0  0  0  0  0  0  0
   -7.3988   -1.3818  -21.2037 N   0  0  0  0  0  0  0  0  0  0  0  0
   -6.6009   -0.8111  -20.1757 C   0  0  0  0  0  0  0  0  0  0  0  0
   -6.9064   -1.0429  -18.8583 C   0  0  0  0  0  0  0  0  0  0  0  0
   -6.2007   -0.5499  -17.8144 N   0  0  0  0  0  0  0  0  0  0  0  0
   -5.1666    0.2087  -18.0801 C   0  0  0  0  0  0  0  0  0  0  0  0
   -4.7294    0.5310  -19.3962 C   0  0  0  0  0  0  0  0  0  0  0  0
   -3.6045    1.3665  -19.6406 C   0  0  0  0  0  0  0  0  0  0  0  0
   -3.2199    1.6578  -20.9206 C   0  0  0  0  0  0  0  0  0  0  0  0
   -3.9431    1.1321  -22.0118 C   0  0  0  0  0  0  0  0  0  0  0  0
   -5.0356    0.3237  -21.8024 C   0  0  0  0  0  0  0  0  0  0  0  0
   -5.4646    0.0027  -20.4857 C   0  0  0  0  0  0  0  0  0  0  0  0
   -5.5911   -0.0618  -22.6530 H   0  0  0  0  0  0  0  0  0  0  0  0
   -3.6499    1.3703  -23.0301 H   0  0  0  0  0  0  0  0  0  0  0  0
   -2.3656    2.3079  -21.1002 H   0  0  0  0  0  0  0  0  0  0  0  0
   -3.0770    1.7761  -18.7826 H   0  0  0  0  0  0  0  0  0  0  0  0
   -4.6178    0.6136  -17.2294 H   0  0  0  0  0  0  0  0  0  0  0  0
   -7.7601   -1.6664  -18.6014 H   0  0  0  0  0  0  0  0  0  0  0  0
   -7.0550   -2.5873  -21.9311 C   0  0  0  0  0  0  0  0  0  0  0  0
   -8.3248   -2.8942  -22.7507 C   0  0  2  0  0  0  0  0  0  0  0  0
   -8.0180   -3.6736  -24.0487 C   0  0  0  0  0  0  0  0  0  0  0  0
   -7.4767   -5.0626  -23.7769 C   0  0  0  0  0  0  0  0  0  0  0  0
   -8.3519   -6.1166  -23.5010 C   0  0  0  0  0  0  0  0  0  0  0  0
   -7.8734   -7.3926  -23.2115 C   0  0  0  0  0  0  0  0  0  0  0  0
   -6.5025   -7.6356  -23.1924 C   0  0  0  0  0  0  0  0  0  0  0  0
   -5.6176   -6.5970  -23.4689 C   0  0  0  0  0  0  0  0  0  0  0  0
   -6.1029   -5.3215  -23.7563 C   0  0  0  0  0  0  0  0  0  0  0  0
   -5.4027   -4.5126  -23.9683 H   0  0  0  0  0  0  0  0  0  0  0  0
   -4.5441   -6.7809  -23.4619 H   0  0  0  0  0  0  0  0  0  0  0  0
   -6.1248   -8.6329  -22.9675 H   0  0  0  0  0  0  0  0  0  0  0  0
   -8.5791   -8.1955  -23.0035 H   0  0  0  0  0  0  0  0  0  0  0  0
   -9.4269   -5.9325  -23.5145 H   0  0  0  0  0  0  0  0  0  0  0  0
   -8.9365   -3.7534  -24.6481 H   0  0  0  0  0  0  0  0  0  0  0  0
   -7.2892   -3.1132  -24.6511 H   0  0  0  0  0  0  0  0  0  0  0  0
   -8.9685   -3.5360  -22.1430 H   0  0  0  0  0  0  0  0  0  0  0  0
   -6.7958   -3.4027  -21.2445 H   0  0  0  0  0  0  0  0  0  0  0  0
   -6.1814   -2.4227  -22.5842 H   0  0  0  0  0  0  0  0  0  0  0  0
  -10.5904   -1.5911  -22.8106 C   0  0  0  0  0  0  0  0  0  0  0  0
  -11.2167   -2.4935  -21.9408 C   0  0  0  0  0  0  0  0  0  0  0  0
  -12.5966   -2.5217  -21.8476 C   0  0  0  0  0  0  0  0  0  0  0  0
  -13.3612   -3.6412  -20.7554 Cl  0  0  0  0  0  0  0  0  0  0  0  0
  -13.3934   -1.6558  -22.5962 C   0  0  0  0  0  0  0  0  0  0  0  0
  -12.7839   -0.7209  -23.4091 C   0  0  0  0  0  0  0  0  0  0  0  0
  -11.3931   -0.6655  -23.4943 C   0  0  0  0  0  0  0  0  0  0  0  0
  -10.7847    0.4688  -24.2654 C   0  0  0  0  0  0  0  0  0  0  0  0
  -11.4707    1.3672  -24.7372 O   0  0  0  0  0  0  0  0  0  0  0  0
  -13.3526    0.0085  -23.9794 H   0  0  0  0  0  0  0  0  0  0  0  0
  -14.4719   -1.7054  -22.5112 H   0  0  0  0  0  0  0  0  0  0  0  0
  -10.6377   -3.1585  -21.3115 H   0  0  0  0  0  0  0  0  0  0  0  0
   -8.9017   -1.4825  -25.0527 H   0  0  0  0  0  0  0  0  0  0  0  0
   -7.6247   -0.5604  -24.1994 H   0  0  0  0  0  0  0  0  0  0  0  0
   -9.4780    2.2977  -25.1817 H   0  0  0  0  0  0  0  0  0  0  0  0
   -8.0685    1.3246  -25.7190 H   0  0  0  0  0  0  0  0  0  0  0  0
   -9.3089    2.8052  -22.6420 H   0  0  0  0  0  0  0  0  0  0  0  0
   -6.7553    4.1318  -22.1337 H   0  0  0  0  0  0  0  0  0  0  0  0
   -8.0154    3.7591  -20.9379 H   0  0  0  0  0  0  0  0  0  0  0  0
   -6.8132    2.5079  -21.4188 H   0  0  0  0  0  0  0  0  0  0  0  0
  1  2  1  0
  2  3  1  0
  3  4  2  0
  3  5  1  0
  5  6  1  0
  6  7  1  0
  8  7  1  6
  8  9  1  0
  9 10  2  0
  9 11  1  0
 11 12  1  0
 12 13  2  0
 13 14  1  0
 14 15  2  0
 15 16  1  0
 16 17  2  0
 17 18  1  0
 18 19  2  0
 19 20  1  0
 20 21  2  0
 20 22  1  0
 19 23  1  0
 18 24  1  0
 17 25  1  0
 15 26  1  0
 13 27  1  0
 11 28  1  0
 28 29  1  0
 29 30  1  0
 30 31  1  0
 31 32  2  0
 32 33  1  0
 33 34  2  0
 34 35  1  0
 35 36  2  0
 36 37  1  0
 35 38  1  0
 34 39  1  0
 33 40  1  0
 32 41  1  0
 30 42  1  0
 30 43  1  0
 29 44  1  1
 28 45  1  0
 28 46  1  0
  8 47  1  0
 47 48  2  0
 48 49  1  0
 49 50  1  0
 49 51  2  0
 51 52  1  0
 52 53  2  0
 53 54  1  0
 54 55  2  0
 52 56  1  0
 51 57  1  0
 48 58  1  0
  7 59  1  0
  7 60  1  0
  5 61  1  0
  5 62  1  0
  2 63  1  0
  1 64  1  0
  1 65  1  0
  1 66  1  0
 54  6  1  0
 29  8  1  0
 36 31  1  0
 53 47  1  0
 21 12  1  0
 21 16  1  0
M  END
>  <cnnaffinities>  (43) 
[6.71272, 6.69627, 6.73749]

>  <score>  (43) 
6.71272

>  <index>  (43) 
45

>  <Smiles>  (43) 
C(N(C(=O)C(N1C([C@@]2(C(=O)N(c3c(nc(c4c(c(c(c(c34)[H])[H])[H])[H])[H])[H])C([C@@]2(C(c2c(c(c(c(c2[H])[H])[H])[H])[H])([H])[H])[H])([H])[H])c2c(c(Cl)c(c(c2C1=O)[H])[H])[H])([H])[H])([H])[H])[H])([H])([H])[H]

>  <h>  (43) 
<NA>

>  <Training>  (43) 
True

>  <Success>  (43) 
True

>  <enamine_searched>  (43) 
False

>  <enamine_id>  (43) 
nan

$$$$

     RDKit          3D

 50 54  0  0  0  0  0  0  0  0999 V2000
  -10.4547   -1.1644  -23.2688 C   0  0  0  0  0  0  0  0  0  0  0  0
   -9.0056   -1.4960  -22.9393 C   0  0  1  0  0  0  0  0  0  0  0  0
   -8.3893   -0.5333  -21.9136 C   0  0  0  0  0  0  0  0  0  0  0  0
   -7.3979   -1.3426  -21.2309 N   0  0  0  0  0  0  0  0  0  0  0  0
   -6.5839   -0.8411  -20.1904 C   0  0  0  0  0  0  0  0  0  0  0  0
   -6.8897   -1.0918  -18.8787 C   0  0  0  0  0  0  0  0  0  0  0  0
   -6.2111   -0.5686  -17.8271 N   0  0  0  0  0  0  0  0  0  0  0  0
   -5.1923    0.2111  -18.0873 C   0  0  0  0  0  0  0  0  0  0  0  0
   -4.7499    0.5245  -19.4050 C   0  0  0  0  0  0  0  0  0  0  0  0
   -3.6223    1.3506  -19.6413 C   0  0  0  0  0  0  0  0  0  0  0  0
   -3.2189    1.6196  -20.9181 C   0  0  0  0  0  0  0  0  0  0  0  0
   -3.9215    1.0797  -22.0171 C   0  0  0  0  0  0  0  0  0  0  0  0
   -5.0162    0.2753  -21.8180 C   0  0  0  0  0  0  0  0  0  0  0  0
   -5.4623   -0.0138  -20.5001 C   0  0  0  0  0  0  0  0  0  0  0  0
   -5.5373   -0.1548  -22.6687 H   0  0  0  0  0  0  0  0  0  0  0  0
   -3.5904    1.2988  -23.0277 H   0  0  0  0  0  0  0  0  0  0  0  0
   -2.3616    2.2585  -21.0966 H   0  0  0  0  0  0  0  0  0  0  0  0
   -3.1056    1.7666  -18.7806 H   0  0  0  0  0  0  0  0  0  0  0  0
   -4.6487    0.6381  -17.2393 H   0  0  0  0  0  0  0  0  0  0  0  0
   -7.7276   -1.7361  -18.6265 H   0  0  0  0  0  0  0  0  0  0  0  0
   -7.5408   -2.6942  -21.4464 C   0  0  0  0  0  0  0  0  0  0  0  0
   -6.7814   -3.5449  -21.0247 O   0  0  0  0  0  0  0  0  0  0  0  0
   -8.7774   -2.9234  -22.3318 C   0  0  1  0  0  0  0  0  0  0  0  0
   -9.9623   -3.3775  -21.4516 C   0  0  0  0  0  0  0  0  0  0  0  0
  -11.1020   -3.8316  -22.2342 N   0  0  0  0  0  0  0  0  0  0  0  0
  -12.4636   -3.6359  -21.7868 C   0  0  0  0  0  0  0  0  0  0  0  0
  -13.3259   -2.7967  -22.6463 C   0  0  0  0  0  0  0  0  0  0  0  0
  -14.1122   -2.1896  -23.2374 N   0  0  0  0  0  0  0  0  0  0  0  0
  -12.4691   -3.2007  -20.7885 H   0  0  0  0  0  0  0  0  0  0  0  0
  -12.9624   -4.6026  -21.7596 H   0  0  0  0  0  0  0  0  0  0  0  0
  -10.9578   -4.6097  -23.3501 C   0  0  0  0  0  0  0  0  0  0  0  0
  -11.9338   -5.0441  -23.9462 O   0  0  0  0  0  0  0  0  0  0  0  0
   -9.5579   -4.8241  -23.8177 C   0  0  0  0  0  0  0  0  0  0  0  0
   -9.3121   -5.8098  -24.7706 C   0  0  0  0  0  0  0  0  0  0  0  0
   -8.0623   -5.9452  -25.3386 C   0  0  0  0  0  0  0  0  0  0  0  0
   -7.0681   -5.0790  -24.9098 C   0  0  0  0  0  0  0  0  0  0  0  0
   -5.8680   -5.1572  -25.4951 F   0  0  0  0  0  0  0  0  0  0  0  0
   -7.2631   -4.1272  -23.9337 C   0  0  0  0  0  0  0  0  0  0  0  0
   -8.5273   -3.9941  -23.3645 C   0  0  0  0  0  0  0  0  0  0  0  0
   -6.4410   -3.4957  -23.6192 H   0  0  0  0  0  0  0  0  0  0  0  0
   -7.8531   -6.6742  -26.1123 H   0  0  0  0  0  0  0  0  0  0  0  0
  -10.1316   -6.4595  -25.0483 H   0  0  0  0  0  0  0  0  0  0  0  0
   -9.6158   -4.1618  -20.7767 H   0  0  0  0  0  0  0  0  0  0  0  0
  -10.2790   -2.5244  -20.8508 H   0  0  0  0  0  0  0  0  0  0  0  0
   -9.1489   -0.1655  -21.2093 H   0  0  0  0  0  0  0  0  0  0  0  0
   -7.9312    0.3407  -22.3872 H   0  0  0  0  0  0  0  0  0  0  0  0
   -8.4008   -1.4582  -23.8561 H   0  0  0  0  0  0  0  0  0  0  0  0
  -10.5370   -0.1879  -23.7467 H   0  0  0  0  0  0  0  0  0  0  0  0
  -11.0480   -1.1470  -22.3497 H   0  0  0  0  0  0  0  0  0  0  0  0
  -10.8851   -1.9250  -23.9250 H   0  0  0  0  0  0  0  0  0  0  0  0
  1  2  1  0
  2  3  1  0
  3  4  1  0
  4  5  1  0
  5  6  2  0
  6  7  1  0
  7  8  2  0
  8  9  1  0
  9 10  2  0
 10 11  1  0
 11 12  2  0
 12 13  1  0
 13 14  2  0
 13 15  1  0
 12 16  1  0
 11 17  1  0
 10 18  1  0
  8 19  1  0
  6 20  1  0
  4 21  1  0
 21 22  2  0
 21 23  1  0
 23 24  1  1
 24 25  1  0
 25 26  1  0
 26 27  1  0
 27 28  3  0
 26 29  1  0
 26 30  1  0
 25 31  1  0
 31 32  2  0
 31 33  1  0
 33 34  2  0
 34 35  1  0
 35 36  2  0
 36 37  1  0
 36 38  1  0
 38 39  2  0
 38 40  1  0
 35 41  1  0
 34 42  1  0
 24 43  1  0
 24 44  1  0
  3 45  1  0
  3 46  1  0
  2 47  1  6
  1 48  1  0
  1 49  1  0
  1 50  1  0
 23  2  1  0
 39 33  1  0
 14  5  1  0
 39 23  1  0
 14  9  1  0
M  END
>  <cnnaffinities>  (44) 
[6.47993]

>  <score>  (44) 
6.47993

>  <index>  (44) 
46

>  <Smiles>  (44) 
C([C@]1(C(N(c2c(nc(c3c(c(c(c(c23)[H])[H])[H])[H])[H])[H])C(=O)[C@]21C(N(C(C#N)([H])[H])C(=O)c1c(c(c(F)c(c21)[H])[H])[H])([H])[H])([H])[H])[H])([H])([H])[H]

>  <h>  (44) 
<NA>

>  <Training>  (44) 
True

>  <Success>  (44) 
True

>  <enamine_searched>  (44) 
False

>  <enamine_id>  (44) 
nan

$$$$

     RDKit          3D

 58 63  0  0  0  0  0  0  0  0999 V2000
   -8.5051    0.7138  -21.4027 O   0  0  0  0  0  0  0  0  0  0  0  0
   -8.4548   -0.4135  -21.8507 C   0  0  0  0  0  0  0  0  0  0  0  0
   -7.4449   -1.4286  -21.2630 C   0  0  0  0  0  0  0  0  0  0  0  0
   -6.5780   -0.8302  -20.1805 C   0  0  0  0  0  0  0  0  0  0  0  0
   -6.8761   -1.0390  -18.8613 C   0  0  0  0  0  0  0  0  0  0  0  0
   -6.1875   -0.5364  -17.8023 N   0  0  0  0  0  0  0  0  0  0  0  0
   -5.1551    0.2231  -18.0663 C   0  0  0  0  0  0  0  0  0  0  0  0
   -4.7233    0.5366  -19.3822 C   0  0  0  0  0  0  0  0  0  0  0  0
   -3.5980    1.3686  -19.6226 C   0  0  0  0  0  0  0  0  0  0  0  0
   -3.2127    1.6632  -20.9010 C   0  0  0  0  0  0  0  0  0  0  0  0
   -3.9380    1.1376  -21.9922 C   0  0  0  0  0  0  0  0  0  0  0  0
   -5.0273    0.3282  -21.7866 C   0  0  0  0  0  0  0  0  0  0  0  0
   -5.4544    0.0021  -20.4722 C   0  0  0  0  0  0  0  0  0  0  0  0
   -5.5741   -0.0612  -22.6407 H   0  0  0  0  0  0  0  0  0  0  0  0
   -3.6239    1.3754  -23.0048 H   0  0  0  0  0  0  0  0  0  0  0  0
   -2.3568    2.3081  -21.0864 H   0  0  0  0  0  0  0  0  0  0  0  0
   -3.0602    1.7787  -18.7705 H   0  0  0  0  0  0  0  0  0  0  0  0
   -4.6004    0.6290  -17.2164 H   0  0  0  0  0  0  0  0  0  0  0  0
   -7.7301   -1.6589  -18.5858 H   0  0  0  0  0  0  0  0  0  0  0  0
   -6.8289   -1.8586  -22.0638 H   0  0  0  0  0  0  0  0  0  0  0  0
   -8.0183   -2.2624  -20.8344 H   0  0  0  0  0  0  0  0  0  0  0  0
   -9.3039   -0.8272  -22.8744 N   0  0  0  0  0  0  0  0  0  0  0  0
   -9.2701   -2.1309  -23.5269 C   0  0  0  0  0  0  0  0  0  0  0  0
   -8.5438   -2.1606  -24.8617 C   0  0  0  0  0  0  0  0  0  0  0  0
   -7.4421   -1.3434  -25.1030 C   0  0  0  0  0  0  0  0  0  0  0  0
   -6.7669   -1.4066  -26.3156 C   0  0  0  0  0  0  0  0  0  0  0  0
   -7.1746   -2.2827  -27.3138 C   0  0  0  0  0  0  0  0  0  0  0  0
   -8.2699   -3.1004  -27.0662 C   0  0  0  0  0  0  0  0  0  0  0  0
   -8.7982   -4.2183  -28.2940 Cl  0  0  0  0  0  0  0  0  0  0  0  0
   -8.9537   -3.0512  -25.8555 C   0  0  0  0  0  0  0  0  0  0  0  0
   -9.8016   -3.7165  -25.7000 H   0  0  0  0  0  0  0  0  0  0  0  0
   -6.6513   -2.3324  -28.2641 H   0  0  0  0  0  0  0  0  0  0  0  0
   -5.9099   -0.7619  -26.4841 H   0  0  0  0  0  0  0  0  0  0  0  0
   -7.0944   -0.6510  -24.3388 H   0  0  0  0  0  0  0  0  0  0  0  0
  -10.3025   -2.4529  -23.6856 H   0  0  0  0  0  0  0  0  0  0  0  0
   -8.8309   -2.8623  -22.8429 H   0  0  0  0  0  0  0  0  0  0  0  0
  -10.2372    0.1524  -23.4014 C   0  0  2  0  0  0  0  0  0  0  0  0
  -11.3911    0.6154  -22.4934 C   0  0  0  0  0  0  0  0  0  0  0  0
  -12.0738    1.5929  -23.4163 N   0  0  1  0  0  4  0  0  0  0  0  0
  -12.2528    2.9511  -22.8889 C   0  0  0  0  0  0  0  0  0  0  0  0
  -13.5244    3.2815  -22.1812 C   0  0  0  0  0  0  0  0  0  0  0  0
  -13.2589    3.8355  -23.5516 C   0  0  0  0  0  0  0  0  0  0  0  0
  -13.0470    4.8953  -23.6423 H   0  0  0  0  0  0  0  0  0  0  0  0
  -13.8107    3.3981  -24.3781 H   0  0  0  0  0  0  0  0  0  0  0  0
  -13.4766    3.9704  -21.3495 H   0  0  0  0  0  0  0  0  0  0  0  0
  -14.2427    2.4738  -22.0857 H   0  0  0  0  0  0  0  0  0  0  0  0
  -11.3465    3.4133  -22.5211 H   0  0  0  0  0  0  0  0  0  0  0  0
  -11.1666    1.4898  -24.6137 C   0  0  2  0  0  0  0  0  0  0  0  0
  -11.0160   -0.0316  -24.7284 C   0  0  0  0  0  0  0  0  0  0  0  0
  -10.4043   -0.3296  -25.5732 H   0  0  0  0  0  0  0  0  0  0  0  0
  -11.9467   -0.6103  -24.6701 H   0  0  0  0  0  0  0  0  0  0  0  0
   -9.7718    1.5167  -23.9723 C   0  0  0  0  0  0  0  0  0  0  0  0
   -8.9690    1.4217  -24.6988 H   0  0  0  0  0  0  0  0  0  0  0  0
   -9.5642    2.2921  -23.2294 H   0  0  0  0  0  0  0  0  0  0  0  0
  -11.4559    2.1241  -25.4446 H   0  0  0  0  0  0  0  0  0  0  0  0
  -13.0183    1.2491  -23.6612 H   0  0  0  0  0  0  0  0  0  0  0  0
  -11.0338    1.1623  -21.6272 H   0  0  0  0  0  0  0  0  0  0  0  0
  -12.0812   -0.1787  -22.2023 H   0  0  0  0  0  0  0  0  0  0  0  0
  1  2  2  0
  2  3  1  0
  3  4  1  0
  4  5  2  0
  5  6  1  0
  6  7  2  0
  7  8  1  0
  8  9  2  0
  9 10  1  0
 10 11  2  0
 11 12  1  0
 12 13  2  0
 12 14  1  0
 11 15  1  0
 10 16  1  0
  9 17  1  0
  7 18  1  0
  5 19  1  0
  3 20  1  0
  3 21  1  0
  2 22  1  0
 22 23  1  0
 23 24  1  0
 24 25  2  0
 25 26  1  0
 26 27  2  0
 27 28  1  0
 28 29  1  0
 28 30  2  0
 30 31  1  0
 27 32  1  0
 26 33  1  0
 25 34  1  0
 23 35  1  0
 23 36  1  0
 37 22  1  1
 37 38  1  0
 38 39  1  0
 39 40  1  0
 40 41  1  0
 41 42  1  0
 42 43  1  0
 42 44  1  0
 41 45  1  0
 41 46  1  0
 40 47  1  0
 39 48  1  0
 48 49  1  0
 49 50  1  0
 49 51  1  0
 48 52  1  0
 52 53  1  0
 52 54  1  0
 48 55  1  6
 39 56  1  6
 38 57  1  0
 38 58  1  0
 13  4  1  0
 30 24  1  0
 49 37  1  0
 13  8  1  0
 52 37  1  0
 42 40  1  0
M  CHG  1  39   1
M  END
>  <cnnaffinities>  (45) 
[5.88516, 6.31297]

>  <score>  (45) 
5.88516

>  <index>  (45) 
47

>  <Smiles>  (45) 
O=C(C(c1c(nc(c2c(c(c(c(c12)[H])[H])[H])[H])[H])[H])([H])[H])N(C(c1c(c(c(c(Cl)c1[H])[H])[H])[H])([H])[H])[C@]12C([N@@+](C3(C(C3([H])[H])([H])[H])[H])([C@](C1([H])[H])(C2([H])[H])[H])[H])([H])[H]

>  <h>  (45) 
<NA>

>  <Training>  (45) 
True

>  <Success>  (45) 
True

>  <enamine_searched>  (45) 
False

>  <enamine_id>  (45) 
nan

$$$$

     RDKit          3D

 46 48  0  0  0  0  0  0  0  0999 V2000
  -14.6672   -2.0464  -23.9177 C   0  0  0  0  0  0  0  0  0  0  0  0
  -13.2901   -2.7239  -23.8589 C   0  0  0  0  0  0  0  0  0  0  0  0
  -13.2559   -3.7654  -22.7308 C   0  0  0  0  0  0  0  0  0  0  0  0
  -13.4729   -3.3045  -21.7577 H   0  0  0  0  0  0  0  0  0  0  0  0
  -12.2823   -4.2701  -22.6584 H   0  0  0  0  0  0  0  0  0  0  0  0
  -14.0178   -4.5406  -22.9051 H   0  0  0  0  0  0  0  0  0  0  0  0
  -12.1295   -1.6947  -23.8417 C   0  0  0  0  0  0  0  0  0  0  0  0
  -10.7474   -2.3599  -24.0453 C   0  0  0  0  0  0  0  0  0  0  0  0
   -9.8520   -2.3248  -22.8015 C   0  0  0  0  0  0  0  0  0  0  0  0
   -9.6623   -0.9541  -22.3648 N   0  0  0  0  0  0  0  0  0  0  0  0
   -8.5345   -0.4432  -21.7804 C   0  0  0  0  0  0  0  0  0  0  0  0
   -8.3851    0.7637  -21.6500 O   0  0  0  0  0  0  0  0  0  0  0  0
   -7.4682   -1.4332  -21.2639 C   0  0  0  0  0  0  0  0  0  0  0  0
   -6.5924   -0.8260  -20.1888 C   0  0  0  0  0  0  0  0  0  0  0  0
   -6.8825   -1.0417  -18.8665 C   0  0  0  0  0  0  0  0  0  0  0  0
   -6.1925   -0.5359  -17.8129 N   0  0  0  0  0  0  0  0  0  0  0  0
   -5.1610    0.2222  -18.0779 C   0  0  0  0  0  0  0  0  0  0  0  0
   -4.7291    0.5331  -19.3923 C   0  0  0  0  0  0  0  0  0  0  0  0
   -3.6025    1.3614  -19.6249 C   0  0  0  0  0  0  0  0  0  0  0  0
   -3.2119    1.6560  -20.9016 C   0  0  0  0  0  0  0  0  0  0  0  0
   -3.9393    1.1343  -21.9939 C   0  0  0  0  0  0  0  0  0  0  0  0
   -5.0370    0.3325  -21.7927 C   0  0  0  0  0  0  0  0  0  0  0  0
   -5.4639    0.0032  -20.4804 C   0  0  0  0  0  0  0  0  0  0  0  0
   -5.5976   -0.0486  -22.6397 H   0  0  0  0  0  0  0  0  0  0  0  0
   -3.6272    1.3689  -23.0080 H   0  0  0  0  0  0  0  0  0  0  0  0
   -2.3566    2.3043  -21.0783 H   0  0  0  0  0  0  0  0  0  0  0  0
   -3.0816    1.7635  -18.7595 H   0  0  0  0  0  0  0  0  0  0  0  0
   -4.6142    0.6240  -17.2233 H   0  0  0  0  0  0  0  0  0  0  0  0
   -7.7284   -1.6651  -18.5768 H   0  0  0  0  0  0  0  0  0  0  0  0
   -7.9724   -2.3220  -20.8553 H   0  0  0  0  0  0  0  0  0  0  0  0
   -6.8561   -1.7888  -22.1079 H   0  0  0  0  0  0  0  0  0  0  0  0
  -10.7540   -0.0199  -22.6079 C   0  0  0  0  0  0  0  0  0  0  0  0
  -12.0826   -0.7651  -22.6189 C   0  0  0  0  0  0  0  0  0  0  0  0
  -12.2081   -1.3839  -21.7239 H   0  0  0  0  0  0  0  0  0  0  0  0
  -12.9156   -0.0570  -22.6455 H   0  0  0  0  0  0  0  0  0  0  0  0
  -10.5983    0.4818  -23.5728 H   0  0  0  0  0  0  0  0  0  0  0  0
  -10.6491    0.7582  -21.8550 H   0  0  0  0  0  0  0  0  0  0  0  0
   -8.8759   -2.7510  -23.0472 H   0  0  0  0  0  0  0  0  0  0  0  0
  -10.2875   -2.9497  -22.0025 H   0  0  0  0  0  0  0  0  0  0  0  0
  -10.2278   -1.8340  -24.8557 H   0  0  0  0  0  0  0  0  0  0  0  0
  -10.8768   -3.4005  -24.3676 H   0  0  0  0  0  0  0  0  0  0  0  0
  -12.3173   -1.0606  -24.7224 H   0  0  0  0  0  0  0  0  0  0  0  0
  -13.1662   -3.2766  -24.8018 H   0  0  0  0  0  0  0  0  0  0  0  0
  -15.4496   -2.7994  -24.0848 H   0  0  0  0  0  0  0  0  0  0  0  0
  -14.9006   -1.5295  -22.9762 H   0  0  0  0  0  0  0  0  0  0  0  0
  -14.7340   -1.3089  -24.7305 H   0  0  0  0  0  0  0  0  0  0  0  0
  1  2  1  0
  2  3  1  0
  3  4  1  0
  3  5  1  0
  3  6  1  0
  2  7  1  0
  7  8  1  0
  8  9  1  0
  9 10  1  0
 10 11  1  0
 11 12  2  0
 11 13  1  0
 13 14  1  0
 14 15  2  0
 15 16  1  0
 16 17  2  0
 17 18  1  0
 18 19  2  0
 19 20  1  0
 20 21  2  0
 21 22  1  0
 22 23  2  0
 22 24  1  0
 21 25  1  0
 20 26  1  0
 19 27  1  0
 17 28  1  0
 15 29  1  0
 13 30  1  0
 13 31  1  0
 10 32  1  0
 32 33  1  0
 33 34  1  0
 33 35  1  0
 32 36  1  0
 32 37  1  0
  9 38  1  0
  9 39  1  0
  8 40  1  0
  8 41  1  0
  7 42  1  0
  2 43  1  0
  1 44  1  0
  1 45  1  0
  1 46  1  0
 33  7  1  0
 23 14  1  0
 23 18  1  0
M  END
>  <cnnaffinities>  (46) 
[4.91664, 4.91602, 4.91711, 5.08066, 5.12116, 5.12164, 5.12406, 4.99505, 4.9757, 4.97588, 4.97575]

>  <score>  (46) 
4.91664

>  <index>  (46) 
48

>  <Smiles>  (46) 
C(C(C([H])([H])[H])(C1(C(C(N(C(=O)C(c2c(nc(c3c(c(c(c(c23)[H])[H])[H])[H])[H])[H])([H])[H])C(C1([H])[H])([H])[H])([H])[H])([H])[H])[H])[H])([H])([H])[H]

>  <h>  (46) 
<NA>

>  <Training>  (46) 
True

>  <Success>  (46) 
True

>  <enamine_searched>  (46) 
False

>  <enamine_id>  (46) 
nan

$$$$

     RDKit          3D

 67 72  0  0  0  0  0  0  0  0999 V2000
   -7.4129    3.3661  -21.7681 C   0  0  0  0  0  0  0  0  0  0  0  0
   -8.2805    2.9034  -22.8388 N   0  0  0  0  0  0  0  0  0  0  0  0
   -7.6990    2.2298  -23.8625 C   0  0  0  0  0  0  0  0  0  0  0  0
   -6.4841    2.1442  -23.9762 O   0  0  0  0  0  0  0  0  0  0  0  0
   -8.6481    1.6043  -24.8944 C   0  0  0  0  0  0  0  0  0  0  0  0
   -9.3724    0.4437  -24.4028 N   0  0  0  0  0  0  0  0  0  0  0  0
   -8.6549   -0.8083  -24.2407 C   0  0  0  0  0  0  0  0  0  0  0  0
   -9.0463   -1.5288  -22.9244 C   0  0  2  0  0  0  0  0  0  0  0  0
   -8.5064   -0.7379  -21.7022 C   0  0  0  0  0  0  0  0  0  0  0  0
   -8.9561    0.2852  -21.2350 O   0  0  0  0  0  0  0  0  0  0  0  0
   -7.3943   -1.3910  -21.2097 N   0  0  0  0  0  0  0  0  0  0  0  0
   -6.6009   -0.8116  -20.1804 C   0  0  0  0  0  0  0  0  0  0  0  0
   -6.9046   -1.0431  -18.8623 C   0  0  0  0  0  0  0  0  0  0  0  0
   -6.1977   -0.5497  -17.8181 N   0  0  0  0  0  0  0  0  0  0  0  0
   -5.1637    0.2103  -18.0803 C   0  0  0  0  0  0  0  0  0  0  0  0
   -4.7266    0.5316  -19.3952 C   0  0  0  0  0  0  0  0  0  0  0  0
   -3.6007    1.3655  -19.6389 C   0  0  0  0  0  0  0  0  0  0  0  0
   -3.2149    1.6583  -20.9191 C   0  0  0  0  0  0  0  0  0  0  0  0
   -3.9398    1.1304  -22.0110 C   0  0  0  0  0  0  0  0  0  0  0  0
   -5.0325    0.3227  -21.7994 C   0  0  0  0  0  0  0  0  0  0  0  0
   -5.4623    0.0034  -20.4847 C   0  0  0  0  0  0  0  0  0  0  0  0
   -5.5874   -0.0640  -22.6489 H   0  0  0  0  0  0  0  0  0  0  0  0
   -3.6465    1.3657  -23.0278 H   0  0  0  0  0  0  0  0  0  0  0  0
   -2.3618    2.3064  -21.1007 H   0  0  0  0  0  0  0  0  0  0  0  0
   -3.0732    1.7776  -18.7831 H   0  0  0  0  0  0  0  0  0  0  0  0
   -4.6192    0.6152  -17.2274 H   0  0  0  0  0  0  0  0  0  0  0  0
   -7.7547   -1.6683  -18.6004 H   0  0  0  0  0  0  0  0  0  0  0  0
   -7.0419   -2.5964  -21.9312 C   0  0  0  0  0  0  0  0  0  0  0  0
   -8.3003   -2.8946  -22.7699 C   0  0  2  0  0  0  0  0  0  0  0  0
   -7.9608   -3.6783  -24.0577 C   0  0  0  0  0  0  0  0  0  0  0  0
   -7.4513   -5.0039  -23.7792 N   0  0  0  0  0  0  0  0  0  0  0  0
   -6.1206   -5.3124  -23.6642 C   0  0  0  0  0  0  0  0  0  0  0  0
   -5.0167   -4.5892  -24.0130 C   0  0  0  0  0  0  0  0  0  0  0  0
   -3.7974   -5.1938  -23.7901 N   0  0  0  0  0  0  0  0  0  0  0  0
   -3.9377   -6.3816  -23.2927 C   0  0  0  0  0  0  0  0  0  0  0  0
   -2.7939   -7.2978  -22.9858 C   0  0  0  0  0  0  0  0  0  0  0  0
   -3.0192   -7.9334  -22.1272 H   0  0  0  0  0  0  0  0  0  0  0  0
   -2.5834   -7.9506  -23.8424 H   0  0  0  0  0  0  0  0  0  0  0  0
   -1.8948   -6.7065  -22.7908 H   0  0  0  0  0  0  0  0  0  0  0  0
   -5.6003   -6.8625  -23.0352 S   0  0  0  0  0  0  0  0  0  0  0  0
   -5.0513   -3.6039  -24.4611 H   0  0  0  0  0  0  0  0  0  0  0  0
   -8.1099   -5.7227  -23.5133 H   0  0  0  0  0  0  0  0  0  0  0  0
   -8.8651   -3.7928  -24.6671 H   0  0  0  0  0  0  0  0  0  0  0  0
   -7.2144   -3.1314  -24.6548 H   0  0  0  0  0  0  0  0  0  0  0  0
   -8.9553   -3.5394  -22.1755 H   0  0  0  0  0  0  0  0  0  0  0  0
   -6.1543   -2.4482  -22.5700 H   0  0  0  0  0  0  0  0  0  0  0  0
   -6.7903   -3.4167  -21.2493 H   0  0  0  0  0  0  0  0  0  0  0  0
  -10.5641   -1.5789  -22.8511 C   0  0  0  0  0  0  0  0  0  0  0  0
  -11.2026   -2.4618  -21.9712 C   0  0  0  0  0  0  0  0  0  0  0  0
  -12.5828   -2.4855  -21.8891 C   0  0  0  0  0  0  0  0  0  0  0  0
  -13.3603   -3.5951  -20.7975 Cl  0  0  0  0  0  0  0  0  0  0  0  0
  -13.3733   -1.6258  -22.6497 C   0  0  0  0  0  0  0  0  0  0  0  0
  -12.7485   -0.7024  -23.4622 C   0  0  0  0  0  0  0  0  0  0  0  0
  -11.3573   -0.6517  -23.5433 C   0  0  0  0  0  0  0  0  0  0  0  0
  -10.7402    0.4789  -24.3145 C   0  0  0  0  0  0  0  0  0  0  0  0
  -11.4148    1.3813  -24.7966 O   0  0  0  0  0  0  0  0  0  0  0  0
  -13.3154    0.0214  -24.0346 H   0  0  0  0  0  0  0  0  0  0  0  0
  -14.4536   -1.6715  -22.5724 H   0  0  0  0  0  0  0  0  0  0  0  0
  -10.6365   -3.1164  -21.3184 H   0  0  0  0  0  0  0  0  0  0  0  0
   -7.5891   -0.5637  -24.2236 H   0  0  0  0  0  0  0  0  0  0  0  0
   -8.8532   -1.4751  -25.0966 H   0  0  0  0  0  0  0  0  0  0  0  0
   -9.4134    2.3102  -25.2338 H   0  0  0  0  0  0  0  0  0  0  0  0
   -8.0068    1.3370  -25.7409 H   0  0  0  0  0  0  0  0  0  0  0  0
   -9.2818    2.8295  -22.6968 H   0  0  0  0  0  0  0  0  0  0  0  0
   -6.8037    2.5246  -21.3959 H   0  0  0  0  0  0  0  0  0  0  0  0
   -6.7340    4.1497  -22.1274 H   0  0  0  0  0  0  0  0  0  0  0  0
   -8.0276    3.7909  -20.9758 H   0  0  0  0  0  0  0  0  0  0  0  0
  1  2  1  0
  2  3  1  0
  3  4  2  0
  3  5  1  0
  5  6  1  0
  6  7  1  0
  8  7  1  6
  8  9  1  0
  9 10  2  0
  9 11  1  0
 11 12  1  0
 12 13  2  0
 13 14  1  0
 14 15  2  0
 15 16  1  0
 16 17  2  0
 17 18  1  0
 18 19  2  0
 19 20  1  0
 20 21  2  0
 20 22  1  0
 19 23  1  0
 18 24  1  0
 17 25  1  0
 15 26  1  0
 13 27  1  0
 11 28  1  0
 28 29  1  0
 29 30  1  0
 30 31  1  0
 31 32  1  0
 32 33  2  0
 33 34  1  0
 34 35  2  0
 35 36  1  0
 36 37  1  0
 36 38  1  0
 36 39  1  0
 35 40  1  0
 33 41  1  0
 31 42  1  0
 30 43  1  0
 30 44  1  0
 29 45  1  1
 28 46  1  0
 28 47  1  0
  8 48  1  0
 48 49  2  0
 49 50  1  0
 50 51  1  0
 50 52  2  0
 52 53  1  0
 53 54  2  0
 54 55  1  0
 55 56  2  0
 53 57  1  0
 52 58  1  0
 49 59  1  0
  7 60  1  0
  7 61  1  0
  5 62  1  0
  5 63  1  0
  2 64  1  0
  1 65  1  0
  1 66  1  0
  1 67  1  0
 55  6  1  0
 29  8  1  0
 40 32  1  0
 54 48  1  0
 21 12  1  0
 21 16  1  0
M  END
>  <cnnaffinities>  (47) 
[7.07896]

>  <score>  (47) 
7.07896

>  <index>  (47) 
49

>  <Smiles>  (47) 
C(N(C(=O)C(N1C([C@@]2(C(=O)N(c3c(nc(c4c(c(c(c(c34)[H])[H])[H])[H])[H])[H])C([C@@]2(C(N(c2c(nc(C([H])([H])[H])s2)[H])[H])([H])[H])[H])([H])[H])c2c(c(Cl)c(c(c2C1=O)[H])[H])[H])([H])[H])([H])[H])[H])([H])([H])[H]

>  <h>  (47) 
<NA>

>  <Training>  (47) 
True

>  <Success>  (47) 
True

>  <enamine_searched>  (47) 
False

>  <enamine_id>  (47) 
nan

$$$$

     RDKit          3D

 66 70  0  0  0  0  0  0  0  0999 V2000
   -7.4438    3.3501  -21.8128 C   0  0  0  0  0  0  0  0  0  0  0  0
   -8.3563    2.8830  -22.8413 N   0  0  0  0  0  0  0  0  0  0  0  0
   -7.8399    2.1607  -23.8626 C   0  0  0  0  0  0  0  0  0  0  0  0
   -6.6312    2.0220  -24.0142 O   0  0  0  0  0  0  0  0  0  0  0  0
   -8.8451    1.5421  -24.8442 C   0  0  0  0  0  0  0  0  0  0  0  0
   -9.5427    0.3817  -24.3181 N   0  0  0  0  0  0  0  0  0  0  0  0
   -8.8110   -0.8645  -24.1764 C   0  0  0  0  0  0  0  0  0  0  0  0
   -9.1309   -1.5700  -22.8330 C   0  0  2  0  0  0  0  0  0  0  0  0
   -8.5441   -0.7499  -21.6514 C   0  0  0  0  0  0  0  0  0  0  0  0
   -8.9834    0.2779  -21.1826 O   0  0  0  0  0  0  0  0  0  0  0  0
   -7.4066   -1.3834  -21.2010 N   0  0  0  0  0  0  0  0  0  0  0  0
   -6.6072   -0.8069  -20.1754 C   0  0  0  0  0  0  0  0  0  0  0  0
   -6.9072   -1.0397  -18.8579 C   0  0  0  0  0  0  0  0  0  0  0  0
   -6.1962   -0.5485  -17.8144 N   0  0  0  0  0  0  0  0  0  0  0  0
   -5.1634    0.2100  -18.0806 C   0  0  0  0  0  0  0  0  0  0  0  0
   -4.7271    0.5305  -19.3958 C   0  0  0  0  0  0  0  0  0  0  0  0
   -3.5995    1.3622  -19.6424 C   0  0  0  0  0  0  0  0  0  0  0  0
   -3.2133    1.6523  -20.9212 C   0  0  0  0  0  0  0  0  0  0  0  0
   -3.9398    1.1241  -22.0133 C   0  0  0  0  0  0  0  0  0  0  0  0
   -5.0328    0.3177  -21.8000 C   0  0  0  0  0  0  0  0  0  0  0  0
   -5.4654    0.0026  -20.4856 C   0  0  0  0  0  0  0  0  0  0  0  0
   -5.5880   -0.0705  -22.6492 H   0  0  0  0  0  0  0  0  0  0  0  0
   -3.6433    1.3557  -23.0298 H   0  0  0  0  0  0  0  0  0  0  0  0
   -2.3590    2.2975  -21.1041 H   0  0  0  0  0  0  0  0  0  0  0  0
   -3.0717    1.7732  -18.7850 H   0  0  0  0  0  0  0  0  0  0  0  0
   -4.6171    0.6149  -17.2280 H   0  0  0  0  0  0  0  0  0  0  0  0
   -7.7559   -1.6652  -18.5932 H   0  0  0  0  0  0  0  0  0  0  0  0
   -7.0782   -2.6073  -21.9094 C   0  0  0  0  0  0  0  0  0  0  0  0
   -8.3686   -2.9287  -22.6970 C   0  0  2  0  0  0  0  0  0  0  0  0
   -8.0846   -3.6768  -23.9999 C   0  0  0  0  0  0  0  0  0  0  0  0
   -7.4681   -4.9186  -23.7057 O   0  0  0  0  0  0  0  0  0  0  0  0
   -7.3033   -5.7628  -24.8494 C   0  0  0  0  0  0  0  0  0  0  0  0
   -8.4378   -6.7865  -24.9212 C   0  0  0  0  0  0  0  0  0  0  0  0
   -8.4378   -7.4079  -24.0196 H   0  0  0  0  0  0  0  0  0  0  0  0
   -8.3142   -7.4388  -25.7948 H   0  0  0  0  0  0  0  0  0  0  0  0
   -9.4140   -6.2944  -25.0012 H   0  0  0  0  0  0  0  0  0  0  0  0
   -5.9403   -6.4426  -24.7577 C   0  0  0  0  0  0  0  0  0  0  0  0
   -5.8879   -7.0663  -23.8598 H   0  0  0  0  0  0  0  0  0  0  0  0
   -5.7718   -7.0806  -25.6342 H   0  0  0  0  0  0  0  0  0  0  0  0
   -5.1414   -5.6969  -24.7133 H   0  0  0  0  0  0  0  0  0  0  0  0
   -7.3289   -5.1345  -25.7575 H   0  0  0  0  0  0  0  0  0  0  0  0
   -9.0188   -3.8336  -24.5642 H   0  0  0  0  0  0  0  0  0  0  0  0
   -7.4126   -3.0840  -24.6446 H   0  0  0  0  0  0  0  0  0  0  0  0
   -8.9776   -3.5950  -22.0838 H   0  0  0  0  0  0  0  0  0  0  0  0
   -6.8043   -3.3987  -21.2034 H   0  0  0  0  0  0  0  0  0  0  0  0
   -6.2174   -2.4612  -22.5805 H   0  0  0  0  0  0  0  0  0  0  0  0
  -10.6440   -1.6290  -22.6993 C   0  0  0  0  0  0  0  0  0  0  0  0
  -11.2337   -2.5251  -21.8044 C   0  0  0  0  0  0  0  0  0  0  0  0
  -12.6046   -2.5412  -21.6525 C   0  0  0  0  0  0  0  0  0  0  0  0
  -13.1556   -3.3994  -20.7793 F   0  0  0  0  0  0  0  0  0  0  0  0
  -13.4435   -1.6843  -22.3550 C   0  0  0  0  0  0  0  0  0  0  0  0
  -12.8634   -0.7599  -23.1996 C   0  0  0  0  0  0  0  0  0  0  0  0
  -11.4767   -0.7059  -23.3521 C   0  0  0  0  0  0  0  0  0  0  0  0
  -10.9028    0.4201  -24.1604 C   0  0  0  0  0  0  0  0  0  0  0  0
  -11.6016    1.3155  -24.6123 O   0  0  0  0  0  0  0  0  0  0  0  0
  -13.4590   -0.0371  -23.7465 H   0  0  0  0  0  0  0  0  0  0  0  0
  -14.5153   -1.7419  -22.2058 H   0  0  0  0  0  0  0  0  0  0  0  0
  -10.6356   -3.1981  -21.2034 H   0  0  0  0  0  0  0  0  0  0  0  0
   -9.0501   -1.5477  -25.0078 H   0  0  0  0  0  0  0  0  0  0  0  0
   -7.7479   -0.6123  -24.2176 H   0  0  0  0  0  0  0  0  0  0  0  0
   -8.2540    1.2745  -25.7267 H   0  0  0  0  0  0  0  0  0  0  0  0
   -9.6293    2.2460  -25.1394 H   0  0  0  0  0  0  0  0  0  0  0  0
   -9.3524    2.8453  -22.6632 H   0  0  0  0  0  0  0  0  0  0  0  0
   -8.0199    3.8258  -21.0201 H   0  0  0  0  0  0  0  0  0  0  0  0
   -6.8520    2.5053  -21.4234 H   0  0  0  0  0  0  0  0  0  0  0  0
   -6.7470    4.0922  -22.2200 H   0  0  0  0  0  0  0  0  0  0  0  0
  1  2  1  0
  2  3  1  0
  3  4  2  0
  3  5  1  0
  5  6  1  0
  6  7  1  0
  8  7  1  6
  8  9  1  0
  9 10  2  0
  9 11  1  0
 11 12  1  0
 12 13  2  0
 13 14  1  0
 14 15  2  0
 15 16  1  0
 16 17  2  0
 17 18  1  0
 18 19  2  0
 19 20  1  0
 20 21  2  0
 20 22  1  0
 19 23  1  0
 18 24  1  0
 17 25  1  0
 15 26  1  0
 13 27  1  0
 11 28  1  0
 28 29  1  0
 29 30  1  0
 30 31  1  0
 31 32  1  0
 32 33  1  0
 33 34  1  0
 33 35  1  0
 33 36  1  0
 32 37  1  0
 37 38  1  0
 37 39  1  0
 37 40  1  0
 32 41  1  0
 30 42  1  0
 30 43  1  0
 29 44  1  1
 28 45  1  0
 28 46  1  0
  8 47  1  0
 47 48  2  0
 48 49  1  0
 49 50  1  0
 49 51  2  0
 51 52  1  0
 52 53  2  0
 53 54  1  0
 54 55  2  0
 52 56  1  0
 51 57  1  0
 48 58  1  0
  7 59  1  0
  7 60  1  0
  5 61  1  0
  5 62  1  0
  2 63  1  0
  1 64  1  0
  1 65  1  0
  1 66  1  0
 54  6  1  0
 29  8  1  0
 53 47  1  0
 21 12  1  0
 21 16  1  0
M  END
>  <cnnaffinities>  (48) 
[6.52768, 6.31445, 6.29017, 6.54297, 6.80418, 6.8258, 6.49892, 6.79171, 6.43224]

>  <score>  (48) 
6.52768

>  <index>  (48) 
50

>  <Smiles>  (48) 
C(N(C(=O)C(N1C([C@@]2(C(=O)N(c3c(nc(c4c(c(c(c(c34)[H])[H])[H])[H])[H])[H])C([C@@]2(C(OC(C([H])([H])[H])(C([H])([H])[H])[H])([H])[H])[H])([H])[H])c2c(c(F)c(c(c2C1=O)[H])[H])[H])([H])[H])([H])[H])[H])([H])([H])[H]

>  <h>  (48) 
<NA>

>  <Training>  (48) 
True

>  <Success>  (48) 
True

>  <enamine_searched>  (48) 
False

>  <enamine_id>  (48) 
nan

$$$$

     RDKit          3D

 50 52  0  0  0  0  0  0  0  0999 V2000
   -9.7510   -3.8836  -25.5832 C   0  0  0  0  0  0  0  0  0  0  0  0
   -8.7847   -3.5527  -24.7337 C   0  0  0  0  0  0  0  0  0  0  0  0
   -8.7058   -2.1550  -24.1716 C   0  0  0  0  0  0  0  0  0  0  0  0
   -9.4766   -1.9511  -22.9395 N   0  0  0  0  0  0  0  0  0  0  0  0
   -8.8984   -1.3056  -21.8449 C   0  0  0  0  0  0  0  0  0  0  0  0
   -9.4925   -0.5453  -21.1082 O   0  0  0  0  0  0  0  0  0  0  0  0
   -7.5679   -1.6310  -21.6527 N   0  0  0  0  0  0  0  0  0  0  0  0
   -6.9041   -1.0685  -20.5412 C   0  0  0  0  0  0  0  0  0  0  0  0
   -7.3492   -1.2797  -19.2653 C   0  0  0  0  0  0  0  0  0  0  0  0
   -6.7380   -0.8010  -18.1577 N   0  0  0  0  0  0  0  0  0  0  0  0
   -5.6718   -0.0561  -18.3218 C   0  0  0  0  0  0  0  0  0  0  0  0
   -5.1316    0.2827  -19.5906 C   0  0  0  0  0  0  0  0  0  0  0  0
   -4.0010    1.1296  -19.7361 C   0  0  0  0  0  0  0  0  0  0  0  0
   -3.5268    1.4368  -20.9822 C   0  0  0  0  0  0  0  0  0  0  0  0
   -4.1709    0.9407  -22.1386 C   0  0  0  0  0  0  0  0  0  0  0  0
   -5.2803    0.1388  -22.0200 C   0  0  0  0  0  0  0  0  0  0  0  0
   -5.7666   -0.2305  -20.7422 C   0  0  0  0  0  0  0  0  0  0  0  0
   -5.8106   -0.2117  -22.8979 H   0  0  0  0  0  0  0  0  0  0  0  0
   -3.7884    1.1967  -23.1249 H   0  0  0  0  0  0  0  0  0  0  0  0
   -2.6512    2.0705  -21.0980 H   0  0  0  0  0  0  0  0  0  0  0  0
   -3.5392    1.5394  -18.8406 H   0  0  0  0  0  0  0  0  0  0  0  0
   -5.1818    0.3139  -17.4217 H   0  0  0  0  0  0  0  0  0  0  0  0
   -8.2551   -1.8564  -19.0946 H   0  0  0  0  0  0  0  0  0  0  0  0
   -7.1967   -2.4899  -22.0684 H   0  0  0  0  0  0  0  0  0  0  0  0
  -10.8929   -2.1319  -22.8931 C   0  0  0  0  0  0  0  0  0  0  0  0
  -11.7804   -1.5608  -23.8073 C   0  0  0  0  0  0  0  0  0  0  0  0
  -13.1547   -1.7644  -23.6529 C   0  0  0  0  0  0  0  0  0  0  0  0
  -13.6605   -2.5312  -22.6086 C   0  0  0  0  0  0  0  0  0  0  0  0
  -12.7627   -3.0894  -21.7061 C   0  0  0  0  0  0  0  0  0  0  0  0
  -13.3937   -4.0088  -20.3717 Cl  0  0  0  0  0  0  0  0  0  0  0  0
  -11.3971   -2.8940  -21.8414 C   0  0  0  0  0  0  0  0  0  0  0  0
  -10.6817   -3.3533  -21.1664 H   0  0  0  0  0  0  0  0  0  0  0  0
  -14.7259   -2.7361  -22.5109 H   0  0  0  0  0  0  0  0  0  0  0  0
  -13.8449   -1.3166  -24.3622 H   0  0  0  0  0  0  0  0  0  0  0  0
  -11.4076   -0.9522  -24.6278 H   0  0  0  0  0  0  0  0  0  0  0  0
   -7.6668   -1.9213  -23.9465 H   0  0  0  0  0  0  0  0  0  0  0  0
   -9.0271   -1.4377  -24.9386 H   0  0  0  0  0  0  0  0  0  0  0  0
   -7.7232   -4.4876  -24.2256 C   0  0  0  0  0  0  0  0  0  0  0  0
   -7.0073   -4.1805  -23.2733 O   0  0  0  0  0  0  0  0  0  0  0  0
   -7.5664   -5.6618  -24.8903 N   0  0  0  0  0  0  0  0  0  0  0  0
   -6.8564   -6.7663  -24.2783 C   0  0  0  0  0  0  0  0  0  0  0  0
   -7.7704   -7.6075  -23.3929 C   0  0  0  0  0  0  0  0  0  0  0  0
   -8.1306   -7.0012  -22.5577 H   0  0  0  0  0  0  0  0  0  0  0  0
   -7.2466   -8.4765  -22.9855 H   0  0  0  0  0  0  0  0  0  0  0  0
   -8.6425   -7.9548  -23.9593 H   0  0  0  0  0  0  0  0  0  0  0  0
   -6.0467   -6.3296  -23.6942 H   0  0  0  0  0  0  0  0  0  0  0  0
   -6.4104   -7.3638  -25.0782 H   0  0  0  0  0  0  0  0  0  0  0  0
   -8.2239   -5.8790  -25.6176 H   0  0  0  0  0  0  0  0  0  0  0  0
   -9.9187   -4.8834  -25.9740 H   0  0  0  0  0  0  0  0  0  0  0  0
  -10.4745   -3.1382  -25.9094 H   0  0  0  0  0  0  0  0  0  0  0  0
  1  2  2  0
  2  3  1  0
  3  4  1  0
  4  5  1  0
  5  6  2  0
  5  7  1  0
  7  8  1  0
  8  9  2  0
  9 10  1  0
 10 11  2  0
 11 12  1  0
 12 13  2  0
 13 14  1  0
 14 15  2  0
 15 16  1  0
 16 17  2  0
 16 18  1  0
 15 19  1  0
 14 20  1  0
 13 21  1  0
 11 22  1  0
  9 23  1  0
  7 24  1  0
  4 25  1  0
 25 26  2  0
 26 27  1  0
 27 28  2  0
 28 29  1  0
 29 30  1  0
 29 31  2  0
 31 32  1  0
 28 33  1  0
 27 34  1  0
 26 35  1  0
  3 36  1  0
  3 37  1  0
  2 38  1  0
 38 39  2  0
 38 40  1  0
 40 41  1  0
 41 42  1  0
 42 43  1  0
 42 44  1  0
 42 45  1  0
 41 46  1  0
 41 47  1  0
 40 48  1  0
  1 49  1  0
  1 50  1  0
 17  8  1  0
 31 25  1  0
 17 12  1  0
M  END
>  <cnnaffinities>  (49) 
[6.30708, 5.89805]

>  <score>  (49) 
6.30708

>  <index>  (49) 
51

>  <Smiles>  (49) 
C(=C(C(N(C(=O)N(c1c(nc(c2c(c(c(c(c12)[H])[H])[H])[H])[H])[H])[H])c1c(c(c(c(Cl)c1[H])[H])[H])[H])([H])[H])C(=O)N(C(C([H])([H])[H])([H])[H])[H])([H])[H]

>  <h>  (49) 
<NA>

>  <Training>  (49) 
True

>  <Success>  (49) 
True

>  <enamine_searched>  (49) 
False

>  <enamine_id>  (49) 
nan

$$$$

     RDKit          3D

 57 60  0  0  0  0  0  0  0  0999 V2000
   -2.4075   -6.6043  -28.3022 C   0  0  0  0  0  0  0  0  0  0  0  0
   -3.6296   -5.6882  -28.3310 C   0  0  0  0  0  0  0  0  0  0  0  0
   -4.1218   -5.3668  -26.9208 C   0  0  0  0  0  0  0  0  0  0  0  0
   -3.7199   -4.3881  -26.3192 O   0  0  0  0  0  0  0  0  0  0  0  0
   -5.0085   -6.2492  -26.3372 N   0  0  0  0  0  0  0  0  0  0  0  0
   -5.6638   -6.0320  -25.0929 C   0  0  0  0  0  0  0  0  0  0  0  0
   -5.9100   -7.1151  -24.2423 C   0  0  0  0  0  0  0  0  0  0  0  0
   -6.5551   -6.9077  -23.0285 C   0  0  0  0  0  0  0  0  0  0  0  0
   -6.9668   -5.6376  -22.6363 C   0  0  0  0  0  0  0  0  0  0  0  0
   -6.7280   -4.5531  -23.4852 C   0  0  0  0  0  0  0  0  0  0  0  0
   -7.1649   -3.2288  -23.1184 N   0  0  0  0  0  0  0  0  0  0  0  0
   -8.1652   -2.5689  -23.9510 C   0  0  0  0  0  0  0  0  0  0  0  0
   -9.5813   -2.6796  -23.4286 C   0  0  0  0  0  0  0  0  0  0  0  0
  -10.1696   -3.9355  -23.2927 C   0  0  0  0  0  0  0  0  0  0  0  0
  -11.4584   -4.0564  -22.7871 C   0  0  0  0  0  0  0  0  0  0  0  0
  -12.1819   -2.9291  -22.4133 C   0  0  0  0  0  0  0  0  0  0  0  0
  -11.6071   -1.6711  -22.5566 C   0  0  0  0  0  0  0  0  0  0  0  0
  -10.3185   -1.5511  -23.0692 C   0  0  0  0  0  0  0  0  0  0  0  0
   -9.8746   -0.5626  -23.1733 H   0  0  0  0  0  0  0  0  0  0  0  0
  -12.1618   -0.7819  -22.2734 H   0  0  0  0  0  0  0  0  0  0  0  0
  -13.1892   -3.0296  -22.0199 H   0  0  0  0  0  0  0  0  0  0  0  0
  -11.9041   -5.0378  -22.6943 H   0  0  0  0  0  0  0  0  0  0  0  0
   -9.6151   -4.8253  -23.5845 H   0  0  0  0  0  0  0  0  0  0  0  0
   -8.1084   -3.0347  -24.9373 H   0  0  0  0  0  0  0  0  0  0  0  0
   -7.8963   -1.5180  -24.0946 H   0  0  0  0  0  0  0  0  0  0  0  0
   -6.7197   -2.7154  -21.8989 C   0  0  0  0  0  0  0  0  0  0  0  0
   -5.8046   -3.2528  -21.3097 O   0  0  0  0  0  0  0  0  0  0  0  0
   -7.4021   -1.4655  -21.2839 C   0  0  0  0  0  0  0  0  0  0  0  0
   -6.5781   -0.8276  -20.1844 C   0  0  0  0  0  0  0  0  0  0  0  0
   -6.8720   -1.0449  -18.8628 C   0  0  0  0  0  0  0  0  0  0  0  0
   -6.1840   -0.5406  -17.8030 N   0  0  0  0  0  0  0  0  0  0  0  0
   -5.1558    0.2250  -18.0671 C   0  0  0  0  0  0  0  0  0  0  0  0
   -4.7186    0.5341  -19.3809 C   0  0  0  0  0  0  0  0  0  0  0  0
   -3.5909    1.3575  -19.6228 C   0  0  0  0  0  0  0  0  0  0  0  0
   -3.1898    1.6342  -20.9011 C   0  0  0  0  0  0  0  0  0  0  0  0
   -3.9039    1.0939  -21.9919 C   0  0  0  0  0  0  0  0  0  0  0  0
   -4.9985    0.2909  -21.7837 C   0  0  0  0  0  0  0  0  0  0  0  0
   -5.4452   -0.0091  -20.4737 C   0  0  0  0  0  0  0  0  0  0  0  0
   -5.5247   -0.1258  -22.6365 H   0  0  0  0  0  0  0  0  0  0  0  0
   -3.5790    1.3084  -23.0055 H   0  0  0  0  0  0  0  0  0  0  0  0
   -2.3282    2.2709  -21.0881 H   0  0  0  0  0  0  0  0  0  0  0  0
   -3.0574    1.7746  -18.7708 H   0  0  0  0  0  0  0  0  0  0  0  0
   -4.6019    0.6295  -17.2159 H   0  0  0  0  0  0  0  0  0  0  0  0
   -7.7194   -1.6705  -18.5856 H   0  0  0  0  0  0  0  0  0  0  0  0
   -7.6459   -0.7175  -22.0471 H   0  0  0  0  0  0  0  0  0  0  0  0
   -8.3634   -1.7867  -20.8575 H   0  0  0  0  0  0  0  0  0  0  0  0
   -6.1042   -4.7617  -24.7174 C   0  0  0  0  0  0  0  0  0  0  0  0
   -5.9417   -3.9267  -25.3858 H   0  0  0  0  0  0  0  0  0  0  0  0
   -7.4623   -5.4892  -21.6781 H   0  0  0  0  0  0  0  0  0  0  0  0
   -6.7306   -7.7501  -22.3657 H   0  0  0  0  0  0  0  0  0  0  0  0
   -5.5718   -8.1133  -24.5037 H   0  0  0  0  0  0  0  0  0  0  0  0
   -5.1381   -7.1515  -26.7684 H   0  0  0  0  0  0  0  0  0  0  0  0
   -4.4211   -6.1215  -28.9556 H   0  0  0  0  0  0  0  0  0  0  0  0
   -3.3481   -4.7324  -28.7796 H   0  0  0  0  0  0  0  0  0  0  0  0
   -2.0289   -6.7985  -29.3120 H   0  0  0  0  0  0  0  0  0  0  0  0
   -1.5915   -6.1589  -27.7238 H   0  0  0  0  0  0  0  0  0  0  0  0
   -2.6586   -7.5655  -27.8456 H   0  0  0  0  0  0  0  0  0  0  0  0
  1  2  1  0
  2  3  1  0
  3  4  2  0
  3  5  1  0
  5  6  1  0
  6  7  2  0
  7  8  1  0
  8  9  2  0
  9 10  1  0
 10 11  1  0
 11 12  1  0
 12 13  1  0
 13 14  2  0
 14 15  1  0
 15 16  2  0
 16 17  1  0
 17 18  2  0
 18 19  1  0
 17 20  1  0
 16 21  1  0
 15 22  1  0
 14 23  1  0
 12 24  1  0
 12 25  1  0
 11 26  1  0
 26 27  2  0
 26 28  1  0
 28 29  1  0
 29 30  2  0
 30 31  1  0
 31 32  2  0
 32 33  1  0
 33 34  2  0
 34 35  1  0
 35 36  2  0
 36 37  1  0
 37 38  2  0
 37 39  1  0
 36 40  1  0
 35 41  1  0
 34 42  1  0
 32 43  1  0
 30 44  1  0
 28 45  1  0
 28 46  1  0
 10 47  2  0
 47 48  1  0
  9 49  1  0
  8 50  1  0
  7 51  1  0
  5 52  1  0
  2 53  1  0
  2 54  1  0
  1 55  1  0
  1 56  1  0
  1 57  1  0
 47  6  1  0
 18 13  1  0
 38 29  1  0
 38 33  1  0
M  END
>  <cnnaffinities>  (50) 
[6.29517, 6.04361, 5.99765, 6.10075, 5.58832, 5.85683, 6.24669, 6.11629, 6.29952, 6.32122, 5.85583, 6.26881]

>  <score>  (50) 
6.29517

>  <index>  (50) 
52

>  <Smiles>  (50) 
C(C(C(=O)N(c1c(c(c(c(N(C(c2c(c(c(c(c2[H])[H])[H])[H])[H])([H])[H])C(=O)C(c2c(nc(c3c(c(c(c(c23)[H])[H])[H])[H])[H])[H])([H])[H])c1[H])[H])[H])[H])[H])([H])[H])([H])([H])[H]

>  <h>  (50) 
<NA>

>  <Training>  (50) 
True

>  <Success>  (50) 
True

>  <enamine_searched>  (50) 
False

>  <enamine_id>  (50) 
nan

$$$$

     RDKit          3D

 59 63  0  0  0  0  0  0  0  0999 V2000
  -13.9545   -1.0917  -24.5285 C   0  0  0  0  0  0  0  0  0  0  0  0
  -14.8350   -2.1390  -23.8609 C   0  0  0  0  0  0  0  0  0  0  0  0
  -14.0387   -3.1605  -23.2203 N   0  0  0  0  0  0  0  0  0  0  0  0
  -13.3200   -2.8391  -22.1118 C   0  0  0  0  0  0  0  0  0  0  0  0
  -13.3943   -1.7629  -21.5430 O   0  0  0  0  0  0  0  0  0  0  0  0
  -12.4157   -3.9706  -21.6557 C   0  0  0  0  0  0  0  0  0  0  0  0
  -11.0963   -3.8975  -22.2535 N   0  0  0  0  0  0  0  0  0  0  0  0
   -9.9763   -3.3800  -21.4780 C   0  0  0  0  0  0  0  0  0  0  0  0
   -8.7908   -2.9154  -22.3532 C   0  0  2  0  0  0  0  0  0  0  0  0
   -7.5615   -2.7034  -21.4551 C   0  0  0  0  0  0  0  0  0  0  0  0
   -6.8175   -3.5577  -21.0227 O   0  0  0  0  0  0  0  0  0  0  0  0
   -7.4014   -1.3500  -21.2399 N   0  0  0  0  0  0  0  0  0  0  0  0
   -6.5836   -0.8535  -20.1968 C   0  0  0  0  0  0  0  0  0  0  0  0
   -6.8897   -1.1044  -18.8815 C   0  0  0  0  0  0  0  0  0  0  0  0
   -6.2153   -0.5756  -17.8305 N   0  0  0  0  0  0  0  0  0  0  0  0
   -5.2014    0.2093  -18.0951 C   0  0  0  0  0  0  0  0  0  0  0  0
   -4.7556    0.5202  -19.4111 C   0  0  0  0  0  0  0  0  0  0  0  0
   -3.6291    1.3505  -19.6410 C   0  0  0  0  0  0  0  0  0  0  0  0
   -3.2247    1.6198  -20.9188 C   0  0  0  0  0  0  0  0  0  0  0  0
   -3.9260    1.0802  -22.0182 C   0  0  0  0  0  0  0  0  0  0  0  0
   -5.0209    0.2722  -21.8223 C   0  0  0  0  0  0  0  0  0  0  0  0
   -5.4647   -0.0187  -20.5041 C   0  0  0  0  0  0  0  0  0  0  0  0
   -5.5404   -0.1575  -22.6713 H   0  0  0  0  0  0  0  0  0  0  0  0
   -3.5932    1.2984  -23.0283 H   0  0  0  0  0  0  0  0  0  0  0  0
   -2.3650    2.2593  -21.0955 H   0  0  0  0  0  0  0  0  0  0  0  0
   -3.1132    1.7658  -18.7805 H   0  0  0  0  0  0  0  0  0  0  0  0
   -4.6647    0.6319  -17.2461 H   0  0  0  0  0  0  0  0  0  0  0  0
   -7.7290   -1.7491  -18.6321 H   0  0  0  0  0  0  0  0  0  0  0  0
   -8.3974   -0.5253  -21.9042 C   0  0  0  0  0  0  0  0  0  0  0  0
   -9.0108   -1.4763  -22.9440 C   0  0  2  0  0  0  0  0  0  0  0  0
  -10.4556   -1.1341  -23.2739 C   0  0  0  0  0  0  0  0  0  0  0  0
  -10.5411   -0.1683  -23.7773 H   0  0  0  0  0  0  0  0  0  0  0  0
  -11.0617   -1.0976  -22.3611 H   0  0  0  0  0  0  0  0  0  0  0  0
  -10.8882   -1.9004  -23.9243 H   0  0  0  0  0  0  0  0  0  0  0  0
   -8.3993   -1.4333  -23.8576 H   0  0  0  0  0  0  0  0  0  0  0  0
   -7.9330    0.3545  -22.3649 H   0  0  0  0  0  0  0  0  0  0  0  0
   -9.1564   -0.1621  -21.1895 H   0  0  0  0  0  0  0  0  0  0  0  0
   -8.5275   -3.9697  -23.3984 C   0  0  0  0  0  0  0  0  0  0  0  0
   -7.2533   -4.0968  -23.9566 C   0  0  0  0  0  0  0  0  0  0  0  0
   -7.0275   -5.0337  -24.9481 C   0  0  0  0  0  0  0  0  0  0  0  0
   -5.4533   -5.1223  -25.6813 Cl  0  0  0  0  0  0  0  0  0  0  0  0
   -8.0364   -5.8881  -25.3939 C   0  0  0  0  0  0  0  0  0  0  0  0
   -9.2985   -5.7572  -24.8445 C   0  0  0  0  0  0  0  0  0  0  0  0
   -9.5544   -4.7802  -23.8866 C   0  0  0  0  0  0  0  0  0  0  0  0
  -10.9485   -4.5865  -23.4188 C   0  0  0  0  0  0  0  0  0  0  0  0
  -11.9206   -5.0091  -24.0509 O   0  0  0  0  0  0  0  0  0  0  0  0
  -10.1146   -6.4042  -25.1492 H   0  0  0  0  0  0  0  0  0  0  0  0
   -7.8329   -6.6189  -26.1725 H   0  0  0  0  0  0  0  0  0  0  0  0
   -6.4353   -3.4729  -23.6118 H   0  0  0  0  0  0  0  0  0  0  0  0
   -9.6475   -4.1629  -20.7887 H   0  0  0  0  0  0  0  0  0  0  0  0
  -10.3362   -2.5156  -20.9084 H   0  0  0  0  0  0  0  0  0  0  0  0
  -12.8751   -4.8692  -22.0541 H   0  0  0  0  0  0  0  0  0  0  0  0
  -12.3548   -4.0369  -20.5686 H   0  0  0  0  0  0  0  0  0  0  0  0
  -13.6417   -3.8982  -23.7974 H   0  0  0  0  0  0  0  0  0  0  0  0
  -15.4387   -1.6753  -23.0740 H   0  0  0  0  0  0  0  0  0  0  0  0
  -15.5024   -2.6488  -24.5596 H   0  0  0  0  0  0  0  0  0  0  0  0
  -14.5446   -0.3312  -25.0359 H   0  0  0  0  0  0  0  0  0  0  0  0
  -13.2738   -1.5446  -25.2619 H   0  0  0  0  0  0  0  0  0  0  0  0
  -13.3666   -0.5981  -23.7490 H   0  0  0  0  0  0  0  0  0  0  0  0
  1  2  1  0
  2  3  1  0
  3  4  1  0
  4  5  2  0
  4  6  1  0
  6  7  1  0
  7  8  1  0
  9  8  1  1
  9 10  1  0
 10 11  2  0
 10 12  1  0
 12 13  1  0
 13 14  2  0
 14 15  1  0
 15 16  2  0
 16 17  1  0
 17 18  2  0
 18 19  1  0
 19 20  2  0
 20 21  1  0
 21 22  2  0
 21 23  1  0
 20 24  1  0
 19 25  1  0
 18 26  1  0
 16 27  1  0
 14 28  1  0
 12 29  1  0
 29 30  1  0
 30 31  1  0
 31 32  1  0
 31 33  1  0
 31 34  1  0
 30 35  1  6
 29 36  1  0
 29 37  1  0
  9 38  1  0
 38 39  2  0
 39 40  1  0
 40 41  1  0
 40 42  2  0
 42 43  1  0
 43 44  2  0
 44 45  1  0
 45 46  2  0
 43 47  1  0
 42 48  1  0
 39 49  1  0
  8 50  1  0
  8 51  1  0
  6 52  1  0
  6 53  1  0
  3 54  1  0
  2 55  1  0
  2 56  1  0
  1 57  1  0
  1 58  1  0
  1 59  1  0
 45  7  1  0
 30  9  1  0
 44 38  1  0
 22 13  1  0
 22 17  1  0
M  END
>  <cnnaffinities>  (51) 
[6.60811]

>  <score>  (51) 
6.60811

>  <index>  (51) 
53

>  <Smiles>  (51) 
C(C(N(C(=O)C(N1C([C@@]2(C(=O)N(c3c(nc(c4c(c(c(c(c34)[H])[H])[H])[H])[H])[H])C([C@@]2(C([H])([H])[H])[H])([H])[H])c2c(c(Cl)c(c(c2C1=O)[H])[H])[H])([H])[H])([H])[H])[H])([H])[H])([H])([H])[H]

>  <h>  (51) 
<NA>

>  <Training>  (51) 
True

>  <Success>  (51) 
True

>  <enamine_searched>  (51) 
False

>  <enamine_id>  (51) 
nan

$$$$

     RDKit          3D

 40 43  0  0  0  0  0  0  0  0999 V2000
  -10.3204   -2.6558  -22.7796 C   0  0  0  0  0  0  0  0  0  0  0  0
   -8.9710   -2.2753  -22.4188 N   0  0  0  0  0  0  0  0  0  0  0  0
   -7.7679   -2.7049  -22.9007 C   0  0  0  0  0  0  0  0  0  0  0  0
   -7.6553   -3.6321  -24.0555 C   0  0  0  0  0  0  0  0  0  0  0  0
   -7.8708   -5.0469  -23.5789 C   0  0  0  0  0  0  0  0  0  0  0  0
   -6.8860   -5.6427  -22.7901 C   0  0  0  0  0  0  0  0  0  0  0  0
   -7.0480   -6.9514  -22.3505 C   0  0  0  0  0  0  0  0  0  0  0  0
   -8.1709   -7.6716  -22.7488 C   0  0  0  0  0  0  0  0  0  0  0  0
   -9.1456   -7.0875  -23.5483 C   0  0  0  0  0  0  0  0  0  0  0  0
   -9.0301   -5.7481  -23.8985 C   0  0  0  0  0  0  0  0  0  0  0  0
   -9.8530   -5.2394  -24.4093 H   0  0  0  0  0  0  0  0  0  0  0  0
   -9.9825   -7.6903  -23.9066 H   0  0  0  0  0  0  0  0  0  0  0  0
   -8.2960   -8.6978  -22.4389 H   0  0  0  0  0  0  0  0  0  0  0  0
   -6.2801   -7.4257  -21.7401 H   0  0  0  0  0  0  0  0  0  0  0  0
   -5.9825   -5.0755  -22.5632 H   0  0  0  0  0  0  0  0  0  0  0  0
   -6.6645   -3.5234  -24.5103 H   0  0  0  0  0  0  0  0  0  0  0  0
   -8.3900   -3.3892  -24.8329 H   0  0  0  0  0  0  0  0  0  0  0  0
   -6.7708   -2.2623  -22.1931 N   0  0  0  0  0  0  0  0  0  0  0  0
   -7.3366   -1.4405  -21.2540 N   0  0  0  0  0  0  0  0  0  0  0  0
   -6.5761   -0.8566  -20.2063 C   0  0  0  0  0  0  0  0  0  0  0  0
   -6.9004   -1.0733  -18.8858 C   0  0  0  0  0  0  0  0  0  0  0  0
   -6.2103   -0.5573  -17.8437 N   0  0  0  0  0  0  0  0  0  0  0  0
   -5.1789    0.2022  -18.1078 C   0  0  0  0  0  0  0  0  0  0  0  0
   -4.7353    0.5142  -19.4193 C   0  0  0  0  0  0  0  0  0  0  0  0
   -3.6138    1.3573  -19.6377 C   0  0  0  0  0  0  0  0  0  0  0  0
   -3.2273    1.6686  -20.9090 C   0  0  0  0  0  0  0  0  0  0  0  0
   -3.9562    1.1617  -22.0078 C   0  0  0  0  0  0  0  0  0  0  0  0
   -5.0405    0.3428  -21.8252 C   0  0  0  0  0  0  0  0  0  0  0  0
   -5.4524   -0.0241  -20.5127 C   0  0  0  0  0  0  0  0  0  0  0  0
   -5.5927   -0.0527  -22.6704 H   0  0  0  0  0  0  0  0  0  0  0  0
   -3.6423    1.4110  -23.0176 H   0  0  0  0  0  0  0  0  0  0  0  0
   -2.3659    2.3121  -21.0825 H   0  0  0  0  0  0  0  0  0  0  0  0
   -3.0916    1.7515  -18.7696 H   0  0  0  0  0  0  0  0  0  0  0  0
   -4.6355    0.6100  -17.2555 H   0  0  0  0  0  0  0  0  0  0  0  0
   -7.7610   -1.6822  -18.6153 H   0  0  0  0  0  0  0  0  0  0  0  0
   -8.7018   -1.3070  -21.4520 C   0  0  0  0  0  0  0  0  0  0  0  0
   -9.4480   -0.4700  -20.9929 O   0  0  0  0  0  0  0  0  0  0  0  0
  -10.4493   -2.6702  -23.8673 H   0  0  0  0  0  0  0  0  0  0  0  0
  -10.6066   -3.6288  -22.3574 H   0  0  0  0  0  0  0  0  0  0  0  0
  -10.9396   -1.8723  -22.3438 H   0  0  0  0  0  0  0  0  0  0  0  0
  1  2  1  0
  2  3  1  0
  3  4  1  0
  4  5  1  0
  5  6  2  0
  6  7  1  0
  7  8  2  0
  8  9  1  0
  9 10  2  0
 10 11  1  0
  9 12  1  0
  8 13  1  0
  7 14  1  0
  6 15  1  0
  4 16  1  0
  4 17  1  0
  3 18  2  0
 18 19  1  0
 19 20  1  0
 20 21  2  0
 21 22  1  0
 22 23  2  0
 23 24  1  0
 24 25  2  0
 25 26  1  0
 26 27  2  0
 27 28  1  0
 28 29  2  0
 28 30  1  0
 27 31  1  0
 26 32  1  0
 25 33  1  0
 23 34  1  0
 21 35  1  0
 19 36  1  0
 36 37  2  0
  1 38  1  0
  1 39  1  0
  1 40  1  0
 36  2  1  0
 10  5  1  0
 29 20  1  0
 29 24  1  0
M  END
>  <cnnaffinities>  (52) 
[4.49815, 4.49814, 5.49977, 5.49633, 5.47614, 5.4777]

>  <score>  (52) 
4.49815

>  <index>  (52) 
54

>  <Smiles>  (52) 
C(n1c(C(c2c(c(c(c(c2[H])[H])[H])[H])[H])([H])[H])nn(c2c(nc(c3c(c(c(c(c23)[H])[H])[H])[H])[H])[H])c1=O)([H])([H])[H]

>  <h>  (52) 
<NA>

>  <Training>  (52) 
True

>  <Success>  (52) 
True

>  <enamine_searched>  (52) 
False

>  <enamine_id>  (52) 
nan

$$$$

     RDKit          3D

 61 66  0  0  0  0  0  0  0  0999 V2000
   -9.1415   -4.6278  -25.8227 C   0  0  0  0  0  0  0  0  0  0  0  0
   -9.3234   -4.0084  -24.5705 O   0  0  0  0  0  0  0  0  0  0  0  0
   -8.1030   -3.6480  -23.9718 C   0  0  0  0  0  0  0  0  0  0  0  0
   -8.3709   -2.9237  -22.6604 C   0  0  1  0  0  0  0  0  0  0  0  0
   -7.0625   -2.5309  -21.9609 C   0  0  0  0  0  0  0  0  0  0  0  0
   -7.4149   -1.3489  -21.2034 N   0  0  0  0  0  0  0  0  0  0  0  0
   -6.6091   -0.7993  -20.1756 C   0  0  0  0  0  0  0  0  0  0  0  0
   -6.9145   -1.0401  -18.8592 C   0  0  0  0  0  0  0  0  0  0  0  0
   -6.2061   -0.5513  -17.8138 N   0  0  0  0  0  0  0  0  0  0  0  0
   -5.1768    0.2135  -18.0838 C   0  0  0  0  0  0  0  0  0  0  0  0
   -4.7474    0.5371  -19.4016 C   0  0  0  0  0  0  0  0  0  0  0  0
   -3.6256    1.3736  -19.6423 C   0  0  0  0  0  0  0  0  0  0  0  0
   -3.2358    1.6603  -20.9220 C   0  0  0  0  0  0  0  0  0  0  0  0
   -3.9361    1.1153  -22.0188 C   0  0  0  0  0  0  0  0  0  0  0  0
   -5.0148    0.2862  -21.8093 C   0  0  0  0  0  0  0  0  0  0  0  0
   -5.4631   -0.0066  -20.4918 C   0  0  0  0  0  0  0  0  0  0  0  0
   -5.5644   -0.0970  -22.6630 H   0  0  0  0  0  0  0  0  0  0  0  0
   -3.6201    1.3660  -23.0296 H   0  0  0  0  0  0  0  0  0  0  0  0
   -2.3834    2.3076  -21.1014 H   0  0  0  0  0  0  0  0  0  0  0  0
   -3.0913    1.7731  -18.7864 H   0  0  0  0  0  0  0  0  0  0  0  0
   -4.6078    0.6115  -17.2418 H   0  0  0  0  0  0  0  0  0  0  0  0
   -7.7774   -1.6557  -18.6116 H   0  0  0  0  0  0  0  0  0  0  0  0
   -8.6404   -0.8105  -21.5326 C   0  0  0  0  0  0  0  0  0  0  0  0
   -9.1478    0.1446  -20.9873 O   0  0  0  0  0  0  0  0  0  0  0  0
   -9.2231   -1.6247  -22.7137 C   0  0  1  0  0  0  0  0  0  0  0  0
   -9.0027   -0.8618  -24.0395 C   0  0  0  0  0  0  0  0  0  0  0  0
   -9.8190    0.3348  -24.1175 N   0  0  0  0  0  0  0  0  0  0  0  0
   -9.1911    1.5539  -24.5983 C   0  0  0  0  0  0  0  0  0  0  0  0
   -8.3403    2.2291  -23.5609 C   0  0  0  0  0  0  0  0  0  0  0  0
   -6.9959    2.2814  -23.4105 C   0  0  0  0  0  0  0  0  0  0  0  0
   -6.7235    3.0275  -22.2891 N   0  0  0  0  0  4  0  0  0  0  0  0
   -7.8674    3.4425  -21.7548 C   0  0  0  0  0  0  0  0  0  0  0  0
   -8.8754    2.9597  -22.5061 N   0  0  0  0  0  0  0  0  0  0  0  0
   -9.8465    2.9465  -22.2204 H   0  0  0  0  0  0  0  0  0  0  0  0
   -7.9406    4.1056  -20.9030 H   0  0  0  0  0  0  0  0  0  0  0  0
   -5.8062    3.0566  -21.8622 H   0  0  0  0  0  0  0  0  0  0  0  0
   -6.1671    1.8507  -23.9556 H   0  0  0  0  0  0  0  0  0  0  0  0
   -8.5929    1.2999  -25.4858 H   0  0  0  0  0  0  0  0  0  0  0  0
  -10.0031    2.2123  -24.9186 H   0  0  0  0  0  0  0  0  0  0  0  0
  -11.1636    0.3004  -23.8709 C   0  0  0  0  0  0  0  0  0  0  0  0
  -11.9335    1.1835  -24.2253 O   0  0  0  0  0  0  0  0  0  0  0  0
  -11.6345   -0.9008  -23.1102 C   0  0  0  0  0  0  0  0  0  0  0  0
  -13.0089   -1.0362  -22.9122 C   0  0  0  0  0  0  0  0  0  0  0  0
  -13.4967   -2.0385  -22.0987 C   0  0  0  0  0  0  0  0  0  0  0  0
  -12.5876   -2.9025  -21.4921 C   0  0  0  0  0  0  0  0  0  0  0  0
  -13.1747   -4.0716  -20.3524 Cl  0  0  0  0  0  0  0  0  0  0  0  0
  -11.2290   -2.8178  -21.7288 C   0  0  0  0  0  0  0  0  0  0  0  0
  -10.7214   -1.8100  -22.5528 C   0  0  0  0  0  0  0  0  0  0  0  0
  -10.5759   -3.5276  -21.2327 H   0  0  0  0  0  0  0  0  0  0  0  0
  -14.5543   -2.1500  -21.8897 H   0  0  0  0  0  0  0  0  0  0  0  0
  -13.6713   -0.3178  -23.3852 H   0  0  0  0  0  0  0  0  0  0  0  0
   -9.2579   -1.5412  -24.8590 H   0  0  0  0  0  0  0  0  0  0  0  0
   -7.9523   -0.5698  -24.1448 H   0  0  0  0  0  0  0  0  0  0  0  0
   -6.2789   -2.3153  -22.7028 H   0  0  0  0  0  0  0  0  0  0  0  0
   -6.6967   -3.3220  -21.2968 H   0  0  0  0  0  0  0  0  0  0  0  0
   -8.8967   -3.6288  -22.0202 H   0  0  0  0  0  0  0  0  0  0  0  0
   -7.5137   -2.9991  -24.6437 H   0  0  0  0  0  0  0  0  0  0  0  0
   -7.4978   -4.5502  -23.7746 H   0  0  0  0  0  0  0  0  0  0  0  0
   -8.5137   -5.5313  -25.7466 H   0  0  0  0  0  0  0  0  0  0  0  0
  -10.1251   -4.9196  -26.1972 H   0  0  0  0  0  0  0  0  0  0  0  0
   -8.6811   -3.9420  -26.5533 H   0  0  0  0  0  0  0  0  0  0  0  0
  1  2  1  0
  2  3  1  0
  3  4  1  0
  4  5  1  0
  5  6  1  0
  6  7  1  0
  7  8  2  0
  8  9  1  0
  9 10  2  0
 10 11  1  0
 11 12  2  0
 12 13  1  0
 13 14  2  0
 14 15  1  0
 15 16  2  0
 15 17  1  0
 14 18  1  0
 13 19  1  0
 12 20  1  0
 10 21  1  0
  8 22  1  0
  6 23  1  0
 23 24  2  0
 23 25  1  0
 25 26  1  6
 26 27  1  0
 27 28  1  0
 28 29  1  0
 29 30  2  0
 30 31  1  0
 31 32  2  0
 32 33  1  0
 33 34  1  0
 32 35  1  0
 31 36  1  0
 30 37  1  0
 28 38  1  0
 28 39  1  0
 27 40  1  0
 40 41  2  0
 40 42  1  0
 42 43  2  0
 43 44  1  0
 44 45  2  0
 45 46  1  0
 45 47  1  0
 47 48  2  0
 47 49  1  0
 44 50  1  0
 43 51  1  0
 26 52  1  0
 26 53  1  0
  5 54  1  0
  5 55  1  0
  4 56  1  1
  3 57  1  0
  3 58  1  0
  1 59  1  0
  1 60  1  0
  1 61  1  0
 25  4  1  0
 33 29  1  0
 48 42  1  0
 16  7  1  0
 48 25  1  0
 16 11  1  0
M  CHG  1  31   1
M  END
>  <cnnaffinities>  (53) 
[6.71442, 6.59575, 6.79059]

>  <score>  (53) 
6.71442

>  <index>  (53) 
55

>  <Smiles>  (53) 
C(OC([C@]1(C(N(c2c(nc(c3c(c(c(c(c23)[H])[H])[H])[H])[H])[H])C(=O)[C@]21C(N(C(c1c([n+](c(n1[H])[H])[H])[H])([H])[H])C(=O)c1c(c(c(Cl)c(c21)[H])[H])[H])([H])[H])([H])[H])[H])([H])[H])([H])([H])[H]

>  <h>  (53) 
<NA>

>  <Training>  (53) 
True

>  <Success>  (53) 
True

>  <enamine_searched>  (53) 
False

>  <enamine_id>  (53) 
nan

$$$$

     RDKit          3D

 57 62  0  0  0  0  0  0  0  0999 V2000
  -10.4688   -1.1379  -23.2456 C   0  0  0  0  0  0  0  0  0  0  0  0
   -9.0234   -1.4872  -22.9267 C   0  0  1  0  0  0  0  0  0  0  0  0
   -8.3942   -0.5275  -21.9063 C   0  0  0  0  0  0  0  0  0  0  0  0
   -7.4036   -1.3458  -21.2303 N   0  0  0  0  0  0  0  0  0  0  0  0
   -6.5850   -0.8443  -20.1909 C   0  0  0  0  0  0  0  0  0  0  0  0
   -6.8900   -1.0927  -18.8763 C   0  0  0  0  0  0  0  0  0  0  0  0
   -6.2108   -0.5690  -17.8257 N   0  0  0  0  0  0  0  0  0  0  0  0
   -5.1921    0.2112  -18.0880 C   0  0  0  0  0  0  0  0  0  0  0  0
   -4.7505    0.5224  -19.4061 C   0  0  0  0  0  0  0  0  0  0  0  0
   -3.6235    1.3501  -19.6397 C   0  0  0  0  0  0  0  0  0  0  0  0
   -3.2200    1.6197  -20.9183 C   0  0  0  0  0  0  0  0  0  0  0  0
   -3.9238    1.0793  -22.0170 C   0  0  0  0  0  0  0  0  0  0  0  0
   -5.0183    0.2742  -21.8176 C   0  0  0  0  0  0  0  0  0  0  0  0
   -5.4630   -0.0150  -20.4995 C   0  0  0  0  0  0  0  0  0  0  0  0
   -5.5394   -0.1542  -22.6671 H   0  0  0  0  0  0  0  0  0  0  0  0
   -3.5917    1.2984  -23.0278 H   0  0  0  0  0  0  0  0  0  0  0  0
   -2.3612    2.2587  -21.0973 H   0  0  0  0  0  0  0  0  0  0  0  0
   -3.1042    1.7664  -18.7810 H   0  0  0  0  0  0  0  0  0  0  0  0
   -4.6495    0.6351  -17.2403 H   0  0  0  0  0  0  0  0  0  0  0  0
   -7.7305   -1.7356  -18.6248 H   0  0  0  0  0  0  0  0  0  0  0  0
   -7.5668   -2.6973  -21.4362 C   0  0  0  0  0  0  0  0  0  0  0  0
   -6.8178   -3.5536  -21.0058 O   0  0  0  0  0  0  0  0  0  0  0  0
   -8.7961   -2.9209  -22.3315 C   0  0  1  0  0  0  0  0  0  0  0  0
   -9.9848   -3.3958  -21.4655 C   0  0  0  0  0  0  0  0  0  0  0  0
  -11.1003   -3.9177  -22.2479 N   0  0  0  0  0  0  0  0  0  0  0  0
  -12.4544   -3.8757  -21.7026 C   0  0  0  0  0  0  0  0  0  0  0  0
  -13.3249   -2.8411  -22.3678 C   0  0  0  0  0  0  0  0  0  0  0  0
  -13.7793   -3.2231  -23.5765 N   0  0  0  0  0  0  0  0  0  0  0  0
  -14.5049   -2.3522  -24.2484 C   0  0  0  0  0  0  0  0  0  0  0  0
  -14.8054   -1.1130  -23.7091 C   0  0  0  0  0  0  0  0  0  0  0  0
  -14.3719   -0.8561  -22.4342 C   0  0  0  0  0  0  0  0  0  0  0  0
  -13.5976   -1.7033  -21.7436 N   0  0  0  0  0  0  0  0  0  0  0  0
  -14.6568    0.0768  -21.9659 H   0  0  0  0  0  0  0  0  0  0  0  0
  -15.3799   -0.3703  -24.2143 H   0  0  0  0  0  0  0  0  0  0  0  0
  -14.8516   -2.6424  -25.2385 H   0  0  0  0  0  0  0  0  0  0  0  0
  -12.9107   -4.8120  -22.0023 H   0  0  0  0  0  0  0  0  0  0  0  0
  -12.4491   -3.7806  -20.6146 H   0  0  0  0  0  0  0  0  0  0  0  0
  -10.9152   -4.7038  -23.3515 C   0  0  0  0  0  0  0  0  0  0  0  0
  -11.8366   -5.2604  -23.9281 O   0  0  0  0  0  0  0  0  0  0  0  0
   -9.5198   -4.8293  -23.8306 C   0  0  0  0  0  0  0  0  0  0  0  0
   -9.2757   -5.7907  -24.8055 C   0  0  0  0  0  0  0  0  0  0  0  0
   -8.0294   -5.9020  -25.3809 C   0  0  0  0  0  0  0  0  0  0  0  0
   -7.0400   -5.0345  -24.9349 C   0  0  0  0  0  0  0  0  0  0  0  0
   -5.8332   -5.1031  -25.5164 F   0  0  0  0  0  0  0  0  0  0  0  0
   -7.2483   -4.0960  -23.9432 C   0  0  0  0  0  0  0  0  0  0  0  0
   -8.5148   -3.9807  -23.3684 C   0  0  0  0  0  0  0  0  0  0  0  0
   -6.4266   -3.4678  -23.6197 H   0  0  0  0  0  0  0  0  0  0  0  0
   -7.8212   -6.6212  -26.1649 H   0  0  0  0  0  0  0  0  0  0  0  0
  -10.0996   -6.4322  -25.0919 H   0  0  0  0  0  0  0  0  0  0  0  0
   -9.6496   -4.1678  -20.7698 H   0  0  0  0  0  0  0  0  0  0  0  0
  -10.3583   -2.5413  -20.8958 H   0  0  0  0  0  0  0  0  0  0  0  0
   -7.9293    0.3403  -22.3860 H   0  0  0  0  0  0  0  0  0  0  0  0
   -9.1426   -0.1494  -21.1936 H   0  0  0  0  0  0  0  0  0  0  0  0
   -8.4233   -1.4528  -23.8462 H   0  0  0  0  0  0  0  0  0  0  0  0
  -10.5374   -0.1760  -23.7581 H   0  0  0  0  0  0  0  0  0  0  0  0
  -11.0555   -1.0713  -22.3230 H   0  0  0  0  0  0  0  0  0  0  0  0
  -10.9176   -1.9094  -23.8769 H   0  0  0  0  0  0  0  0  0  0  0  0
  1  2  1  0
  2  3  1  0
  3  4  1  0
  4  5  1  0
  5  6  2  0
  6  7  1  0
  7  8  2  0
  8  9  1  0
  9 10  2  0
 10 11  1  0
 11 12  2  0
 12 13  1  0
 13 14  2  0
 13 15  1  0
 12 16  1  0
 11 17  1  0
 10 18  1  0
  8 19  1  0
  6 20  1  0
  4 21  1  0
 21 22  2  0
 21 23  1  0
 23 24  1  1
 24 25  1  0
 25 26  1  0
 26 27  1  0
 27 28  2  0
 28 29  1  0
 29 30  2  0
 30 31  1  0
 31 32  2  0
 31 33  1  0
 30 34  1  0
 29 35  1  0
 26 36  1  0
 26 37  1  0
 25 38  1  0
 38 39  2  0
 38 40  1  0
 40 41  2  0
 41 42  1  0
 42 43  2  0
 43 44  1  0
 43 45  1  0
 45 46  2  0
 45 47  1  0
 42 48  1  0
 41 49  1  0
 24 50  1  0
 24 51  1  0
  3 52  1  0
  3 53  1  0
  2 54  1  6
  1 55  1  0
  1 56  1  0
  1 57  1  0
 23  2  1  0
 32 27  1  0
 46 40  1  0
 14  5  1  0
 46 23  1  0
 14  9  1  0
M  END
>  <cnnaffinities>  (54) 
[6.7696, 6.77135, 6.37423]

>  <score>  (54) 
6.7696

>  <index>  (54) 
56

>  <Smiles>  (54) 
C([C@]1(C(N(c2c(nc(c3c(c(c(c(c23)[H])[H])[H])[H])[H])[H])C(=O)[C@]21C(N(C(c1nc(c(c(n1)[H])[H])[H])([H])[H])C(=O)c1c(c(c(F)c(c21)[H])[H])[H])([H])[H])([H])[H])[H])([H])([H])[H]

>  <h>  (54) 
<NA>

>  <Training>  (54) 
True

>  <Success>  (54) 
True

>  <enamine_searched>  (54) 
False

>  <enamine_id>  (54) 
nan

$$$$

     RDKit          3D

 59 63  0  0  0  0  0  0  0  0999 V2000
  -14.4801   -1.2984  -23.4816 C   0  0  0  0  0  0  0  0  0  0  0  0
  -13.7870   -2.5163  -23.1073 N   0  0  0  0  0  0  0  0  0  0  0  0
  -13.4611   -2.6794  -21.7959 C   0  0  0  0  0  0  0  0  0  0  0  0
  -13.9029   -1.9761  -20.9007 O   0  0  0  0  0  0  0  0  0  0  0  0
  -12.5308   -3.8491  -21.5194 C   0  0  0  0  0  0  0  0  0  0  0  0
  -11.2047   -3.8242  -22.1358 N   0  0  0  0  0  0  0  0  0  0  0  0
  -10.0445   -3.3226  -21.4005 C   0  0  0  0  0  0  0  0  0  0  0  0
   -8.8287   -2.9618  -22.2907 C   0  0  2  0  0  0  0  0  0  0  0  0
   -7.5826   -2.7210  -21.4093 C   0  0  0  0  0  0  0  0  0  0  0  0
   -6.8199   -3.5658  -20.9848 O   0  0  0  0  0  0  0  0  0  0  0  0
   -7.4005   -1.3648  -21.2326 N   0  0  0  0  0  0  0  0  0  0  0  0
   -6.5903   -0.8414  -20.1899 C   0  0  0  0  0  0  0  0  0  0  0  0
   -6.8964   -1.0800  -18.8711 C   0  0  0  0  0  0  0  0  0  0  0  0
   -6.2107   -0.5600  -17.8218 N   0  0  0  0  0  0  0  0  0  0  0  0
   -5.1865    0.2127  -18.0850 C   0  0  0  0  0  0  0  0  0  0  0  0
   -4.7464    0.5235  -19.4040 C   0  0  0  0  0  0  0  0  0  0  0  0
   -3.6172    1.3498  -19.6374 C   0  0  0  0  0  0  0  0  0  0  0  0
   -3.2124    1.6223  -20.9159 C   0  0  0  0  0  0  0  0  0  0  0  0
   -3.9165    1.0818  -22.0149 C   0  0  0  0  0  0  0  0  0  0  0  0
   -5.0143    0.2796  -21.8143 C   0  0  0  0  0  0  0  0  0  0  0  0
   -5.4631   -0.0127  -20.4970 C   0  0  0  0  0  0  0  0  0  0  0  0
   -5.5406   -0.1404  -22.6655 H   0  0  0  0  0  0  0  0  0  0  0  0
   -3.5863    1.2999  -23.0273 H   0  0  0  0  0  0  0  0  0  0  0  0
   -2.3511    2.2595  -21.0955 H   0  0  0  0  0  0  0  0  0  0  0  0
   -3.0967    1.7652  -18.7789 H   0  0  0  0  0  0  0  0  0  0  0  0
   -4.6401    0.6338  -17.2386 H   0  0  0  0  0  0  0  0  0  0  0  0
   -7.7374   -1.7235  -18.6196 H   0  0  0  0  0  0  0  0  0  0  0  0
   -8.4029   -0.5746  -21.9207 C   0  0  0  0  0  0  0  0  0  0  0  0
   -9.0112   -1.5366  -22.9710 C   0  0  0  0  0  0  0  0  0  0  0  0
  -10.4665   -1.1571  -23.2510 C   0  0  0  0  0  0  0  0  0  0  0  0
  -11.0612   -1.1048  -22.3348 H   0  0  0  0  0  0  0  0  0  0  0  0
  -10.9323   -1.8866  -23.9194 H   0  0  0  0  0  0  0  0  0  0  0  0
  -10.5147   -0.1723  -23.7206 H   0  0  0  0  0  0  0  0  0  0  0  0
   -8.2335   -1.4609  -24.2903 C   0  0  0  0  0  0  0  0  0  0  0  0
   -8.6481   -2.1810  -25.0022 H   0  0  0  0  0  0  0  0  0  0  0  0
   -8.3206   -0.4635  -24.7279 H   0  0  0  0  0  0  0  0  0  0  0  0
   -7.1692   -1.6875  -24.1612 H   0  0  0  0  0  0  0  0  0  0  0  0
   -7.9601    0.3151  -22.3791 H   0  0  0  0  0  0  0  0  0  0  0  0
   -9.1695   -0.2227  -21.2146 H   0  0  0  0  0  0  0  0  0  0  0  0
   -8.5980   -4.1402  -23.2184 C   0  0  0  0  0  0  0  0  0  0  0  0
   -7.3161   -4.4675  -23.6781 C   0  0  0  0  0  0  0  0  0  0  0  0
   -7.1481   -5.4585  -24.6292 C   0  0  0  0  0  0  0  0  0  0  0  0
   -5.5458   -5.7894  -25.2373 Cl  0  0  0  0  0  0  0  0  0  0  0  0
   -8.2301   -6.1864  -25.1239 C   0  0  0  0  0  0  0  0  0  0  0  0
   -9.4977   -5.8933  -24.6514 C   0  0  0  0  0  0  0  0  0  0  0  0
   -9.6785   -4.8731  -23.7177 C   0  0  0  0  0  0  0  0  0  0  0  0
  -11.0669   -4.5730  -23.2701 C   0  0  0  0  0  0  0  0  0  0  0  0
  -12.0495   -4.9758  -23.8895 O   0  0  0  0  0  0  0  0  0  0  0  0
  -10.3760   -6.4372  -24.9951 H   0  0  0  0  0  0  0  0  0  0  0  0
   -8.0719   -6.9392  -25.8879 H   0  0  0  0  0  0  0  0  0  0  0  0
   -6.4523   -3.9354  -23.3032 H   0  0  0  0  0  0  0  0  0  0  0  0
  -10.3334   -2.4404  -20.8252 H   0  0  0  0  0  0  0  0  0  0  0  0
   -9.7124   -4.0828  -20.7010 H   0  0  0  0  0  0  0  0  0  0  0  0
  -12.4964   -3.9503  -20.4384 H   0  0  0  0  0  0  0  0  0  0  0  0
  -13.0351   -4.7101  -21.9574 H   0  0  0  0  0  0  0  0  0  0  0  0
  -13.6051   -3.2691  -23.7551 H   0  0  0  0  0  0  0  0  0  0  0  0
  -13.7942   -0.4412  -23.4534 H   0  0  0  0  0  0  0  0  0  0  0  0
  -14.8807   -1.3737  -24.4933 H   0  0  0  0  0  0  0  0  0  0  0  0
  -15.2972   -1.1108  -22.7790 H   0  0  0  0  0  0  0  0  0  0  0  0
  1  2  1  0
  2  3  1  0
  3  4  2  0
  3  5  1  0
  5  6  1  0
  6  7  1  0
  8  7  1  1
  8  9  1  0
  9 10  2  0
  9 11  1  0
 11 12  1  0
 12 13  2  0
 13 14  1  0
 14 15  2  0
 15 16  1  0
 16 17  2  0
 17 18  1  0
 18 19  2  0
 19 20  1  0
 20 21  2  0
 20 22  1  0
 19 23  1  0
 18 24  1  0
 17 25  1  0
 15 26  1  0
 13 27  1  0
 11 28  1  0
 28 29  1  0
 29 30  1  0
 30 31  1  0
 30 32  1  0
 30 33  1  0
 29 34  1  0
 34 35  1  0
 34 36  1  0
 34 37  1  0
 28 38  1  0
 28 39  1  0
  8 40  1  0
 40 41  2  0
 41 42  1  0
 42 43  1  0
 42 44  2  0
 44 45  1  0
 45 46  2  0
 46 47  1  0
 47 48  2  0
 45 49  1  0
 44 50  1  0
 41 51  1  0
  7 52  1  0
  7 53  1  0
  5 54  1  0
  5 55  1  0
  2 56  1  0
  1 57  1  0
  1 58  1  0
  1 59  1  0
 47  6  1  0
 29  8  1  0
 46 40  1  0
 21 12  1  0
 21 16  1  0
M  END
>  <cnnaffinities>  (55) 
[6.67056, 6.05609]

>  <score>  (55) 
6.67056

>  <index>  (55) 
57

>  <Smiles>  (55) 
C(N(C(=O)C(N1C([C@@]2(C(=O)N(c3c(nc(c4c(c(c(c(c34)[H])[H])[H])[H])[H])[H])C(C2(C([H])([H])[H])C([H])([H])[H])([H])[H])c2c(c(Cl)c(c(c2C1=O)[H])[H])[H])([H])[H])([H])[H])[H])([H])([H])[H]

>  <h>  (55) 
<NA>

>  <Training>  (55) 
True

>  <Success>  (55) 
True

>  <enamine_searched>  (55) 
False

>  <enamine_id>  (55) 
nan

$$$$

     RDKit          3D

 42 45  0  0  0  0  0  0  0  0999 V2000
  -11.0123   -5.0257  -23.5507 C   0  0  0  0  0  0  0  0  0  0  0  0
  -10.1018   -3.8990  -23.6598 N   0  0  0  0  0  0  0  0  0  0  0  0
   -9.4246   -3.3955  -22.4667 C   0  0  0  0  0  0  0  0  0  0  0  0
   -9.4102   -1.8634  -22.5120 C   0  0  1  0  0  0  0  0  0  0  0  0
   -8.6582   -1.1540  -21.3892 C   0  0  0  0  0  0  0  0  0  0  0  0
   -9.1809   -0.2455  -20.7746 O   0  0  0  0  0  0  0  0  0  0  0  0
   -7.3280   -1.4727  -21.2013 N   0  0  0  0  0  0  0  0  0  0  0  0
   -6.5695   -0.8536  -20.1802 C   0  0  0  0  0  0  0  0  0  0  0  0
   -6.8969   -1.0578  -18.8671 C   0  0  0  0  0  0  0  0  0  0  0  0
   -6.2041   -0.5467  -17.8236 N   0  0  0  0  0  0  0  0  0  0  0  0
   -5.1689    0.2112  -18.0886 C   0  0  0  0  0  0  0  0  0  0  0  0
   -4.7301    0.5252  -19.4033 C   0  0  0  0  0  0  0  0  0  0  0  0
   -3.6084    1.3620  -19.6391 C   0  0  0  0  0  0  0  0  0  0  0  0
   -3.2273    1.6577  -20.9193 C   0  0  0  0  0  0  0  0  0  0  0  0
   -3.9575    1.1376  -22.0130 C   0  0  0  0  0  0  0  0  0  0  0  0
   -5.0462    0.3239  -21.8088 C   0  0  0  0  0  0  0  0  0  0  0  0
   -5.4508   -0.0143  -20.4914 C   0  0  0  0  0  0  0  0  0  0  0  0
   -5.6110   -0.0569  -22.6570 H   0  0  0  0  0  0  0  0  0  0  0  0
   -3.6515    1.3794  -23.0269 H   0  0  0  0  0  0  0  0  0  0  0  0
   -2.3723    2.3048  -21.0997 H   0  0  0  0  0  0  0  0  0  0  0  0
   -3.0783    1.7679  -18.7822 H   0  0  0  0  0  0  0  0  0  0  0  0
   -4.6247    0.6157  -17.2364 H   0  0  0  0  0  0  0  0  0  0  0  0
   -7.7516   -1.6781  -18.6066 H   0  0  0  0  0  0  0  0  0  0  0  0
   -6.8156   -1.9073  -21.9576 H   0  0  0  0  0  0  0  0  0  0  0  0
   -8.9100   -1.3784  -23.8560 C   0  0  0  0  0  0  0  0  0  0  0  0
   -8.3589   -0.1025  -23.9702 C   0  0  0  0  0  0  0  0  0  0  0  0
   -7.8819    0.3289  -25.1940 C   0  0  0  0  0  0  0  0  0  0  0  0
   -7.1333    1.8991  -25.3011 Cl  0  0  0  0  0  0  0  0  0  0  0  0
   -7.9765   -0.4773  -26.3243 C   0  0  0  0  0  0  0  0  0  0  0  0
   -8.5730   -1.7232  -26.2212 C   0  0  0  0  0  0  0  0  0  0  0  0
   -9.0497   -2.1756  -24.9921 C   0  0  0  0  0  0  0  0  0  0  0  0
   -9.7576   -3.4954  -24.9245 C   0  0  0  0  0  0  0  0  0  0  0  0
  -10.0450   -4.1514  -25.9147 O   0  0  0  0  0  0  0  0  0  0  0  0
   -8.6894   -2.3700  -27.0863 H   0  0  0  0  0  0  0  0  0  0  0  0
   -7.5963   -0.1127  -27.2701 H   0  0  0  0  0  0  0  0  0  0  0  0
   -8.2926    0.5430  -23.1016 H   0  0  0  0  0  0  0  0  0  0  0  0
  -10.4497   -1.5338  -22.3932 H   0  0  0  0  0  0  0  0  0  0  0  0
   -8.4117   -3.8201  -22.3604 H   0  0  0  0  0  0  0  0  0  0  0  0
  -10.0190   -3.7285  -21.6100 H   0  0  0  0  0  0  0  0  0  0  0  0
  -11.9874   -4.8130  -24.0094 H   0  0  0  0  0  0  0  0  0  0  0  0
  -10.6125   -5.9239  -24.0423 H   0  0  0  0  0  0  0  0  0  0  0  0
  -11.1613   -5.2032  -22.4838 H   0  0  0  0  0  0  0  0  0  0  0  0
  1  2  1  0
  2  3  1  0
  3  4  1  0
  4  5  1  0
  5  6  2  0
  5  7  1  0
  7  8  1  0
  8  9  2  0
  9 10  1  0
 10 11  2  0
 11 12  1  0
 12 13  2  0
 13 14  1  0
 14 15  2  0
 15 16  1  0
 16 17  2  0
 16 18  1  0
 15 19  1  0
 14 20  1  0
 13 21  1  0
 11 22  1  0
  9 23  1  0
  7 24  1  0
  4 25  1  0
 25 26  2  0
 26 27  1  0
 27 28  1  0
 27 29  2  0
 29 30  1  0
 30 31  2  0
 31 32  1  0
 32 33  2  0
 30 34  1  0
 29 35  1  0
 26 36  1  0
  4 37  1  1
  3 38  1  0
  3 39  1  0
  1 40  1  0
  1 41  1  0
  1 42  1  0
 32  2  1  0
 17  8  1  0
 31 25  1  0
 17 12  1  0
M  END
>  <cnnaffinities>  (56) 
[5.04854, 5.16401, 5.33968]

>  <score>  (56) 
5.04854

>  <index>  (56) 
58

>  <Smiles>  (56) 
C(N1C([C@@](C(=O)N(c2c(nc(c3c(c(c(c(c23)[H])[H])[H])[H])[H])[H])[H])(c2c(c(Cl)c(c(c2C1=O)[H])[H])[H])[H])([H])[H])([H])([H])[H]

>  <h>  (56) 
<NA>

>  <Training>  (56) 
True

>  <Success>  (56) 
True

>  <enamine_searched>  (56) 
False

>  <enamine_id>  (56) 
nan

$$$$

     RDKit          3D

 60 65  0  0  0  0  0  0  0  0999 V2000
   -7.3925    3.3840  -21.7814 C   0  0  0  0  0  0  0  0  0  0  0  0
   -8.2653    2.9297  -22.8515 N   0  0  0  0  0  0  0  0  0  0  0  0
   -7.7008    2.2423  -23.8710 C   0  0  0  0  0  0  0  0  0  0  0  0
   -6.4866    2.1327  -23.9900 O   0  0  0  0  0  0  0  0  0  0  0  0
   -8.6531    1.6220  -24.8991 C   0  0  0  0  0  0  0  0  0  0  0  0
   -9.3780    0.4664  -24.4026 N   0  0  0  0  0  0  0  0  0  0  0  0
   -8.6582   -0.7833  -24.2338 C   0  0  0  0  0  0  0  0  0  0  0  0
   -9.0507   -1.5010  -22.9165 C   0  0  2  0  0  0  0  0  0  0  0  0
   -8.4982   -0.7205  -21.6977 C   0  0  0  0  0  0  0  0  0  0  0  0
   -8.9376    0.3110  -21.2267 O   0  0  0  0  0  0  0  0  0  0  0  0
   -7.3973   -1.3865  -21.2077 N   0  0  0  0  0  0  0  0  0  0  0  0
   -6.5995   -0.8142  -20.1781 C   0  0  0  0  0  0  0  0  0  0  0  0
   -6.9060   -1.0436  -18.8613 C   0  0  0  0  0  0  0  0  0  0  0  0
   -6.2002   -0.5501  -17.8162 N   0  0  0  0  0  0  0  0  0  0  0  0
   -5.1660    0.2085  -18.0807 C   0  0  0  0  0  0  0  0  0  0  0  0
   -4.7288    0.5312  -19.3960 C   0  0  0  0  0  0  0  0  0  0  0  0
   -3.6025    1.3654  -19.6404 C   0  0  0  0  0  0  0  0  0  0  0  0
   -3.2165    1.6562  -20.9200 C   0  0  0  0  0  0  0  0  0  0  0  0
   -3.9406    1.1294  -22.0122 C   0  0  0  0  0  0  0  0  0  0  0  0
   -5.0335    0.3223  -21.8019 C   0  0  0  0  0  0  0  0  0  0  0  0
   -5.4643    0.0032  -20.4861 C   0  0  0  0  0  0  0  0  0  0  0  0
   -5.5876   -0.0672  -22.6515 H   0  0  0  0  0  0  0  0  0  0  0  0
   -3.6466    1.3662  -23.0295 H   0  0  0  0  0  0  0  0  0  0  0  0
   -2.3624    2.3047  -21.1003 H   0  0  0  0  0  0  0  0  0  0  0  0
   -3.0745    1.7754  -18.7829 H   0  0  0  0  0  0  0  0  0  0  0  0
   -4.6182    0.6127  -17.2287 H   0  0  0  0  0  0  0  0  0  0  0  0
   -7.7595   -1.6660  -18.6022 H   0  0  0  0  0  0  0  0  0  0  0  0
   -7.0706   -2.6069  -21.9200 C   0  0  0  0  0  0  0  0  0  0  0  0
   -8.3214   -2.8759  -22.7793 C   0  0  2  0  0  0  0  0  0  0  0  0
   -7.9813   -3.6295  -24.0846 C   0  0  0  0  0  0  0  0  0  0  0  0
   -7.4415   -4.9926  -23.7962 C   0  0  0  0  0  0  0  0  0  0  0  0
   -6.1504   -5.2843  -23.7100 N   0  0  0  0  0  0  0  0  0  0  0  0
   -6.1123   -6.5752  -23.3916 N   0  0  0  0  0  0  0  0  0  0  0  0
   -7.3345   -7.0334  -23.2968 N   0  0  0  0  0  2  0  0  0  0  0  0
   -8.1956   -6.0534  -23.5483 N   0  0  0  0  0  0  0  0  0  0  0  0
   -7.2168   -3.0980  -24.6599 H   0  0  0  0  0  0  0  0  0  0  0  0
   -8.8755   -3.7588  -24.7009 H   0  0  0  0  0  0  0  0  0  0  0  0
   -8.9863   -3.5329  -22.2125 H   0  0  0  0  0  0  0  0  0  0  0  0
   -6.8570   -3.4306  -21.2285 H   0  0  0  0  0  0  0  0  0  0  0  0
   -6.1759   -2.4800  -22.5502 H   0  0  0  0  0  0  0  0  0  0  0  0
  -10.5685   -1.5413  -22.8389 C   0  0  0  0  0  0  0  0  0  0  0  0
  -11.2019   -2.4197  -21.9516 C   0  0  0  0  0  0  0  0  0  0  0  0
  -12.5817   -2.4402  -21.8606 C   0  0  0  0  0  0  0  0  0  0  0  0
  -13.3554   -3.5378  -20.7537 Cl  0  0  0  0  0  0  0  0  0  0  0  0
  -13.3724   -1.5816  -22.6241 C   0  0  0  0  0  0  0  0  0  0  0  0
  -12.7542   -0.6641  -23.4499 C   0  0  0  0  0  0  0  0  0  0  0  0
  -11.3627   -0.6189  -23.5357 C   0  0  0  0  0  0  0  0  0  0  0  0
  -10.7449    0.5031  -24.3173 C   0  0  0  0  0  0  0  0  0  0  0  0
  -11.4230    1.3982  -24.8073 O   0  0  0  0  0  0  0  0  0  0  0  0
  -13.3186    0.0600  -24.0294 H   0  0  0  0  0  0  0  0  0  0  0  0
  -14.4517   -1.6218  -22.5385 H   0  0  0  0  0  0  0  0  0  0  0  0
  -10.6263   -3.0709  -21.3046 H   0  0  0  0  0  0  0  0  0  0  0  0
   -7.5914   -0.5404  -24.2188 H   0  0  0  0  0  0  0  0  0  0  0  0
   -8.8607   -1.4620  -25.0792 H   0  0  0  0  0  0  0  0  0  0  0  0
   -8.0207    1.3504  -25.7524 H   0  0  0  0  0  0  0  0  0  0  0  0
   -9.4218    2.3292  -25.2205 H   0  0  0  0  0  0  0  0  0  0  0  0
   -9.2588    2.8512  -22.6951 H   0  0  0  0  0  0  0  0  0  0  0  0
   -6.7922    2.5407  -21.4104 H   0  0  0  0  0  0  0  0  0  0  0  0
   -6.7057    4.1550  -22.1455 H   0  0  0  0  0  0  0  0  0  0  0  0
   -8.0019    3.8089  -20.9855 H   0  0  0  0  0  0  0  0  0  0  0  0
  1  2  1  0
  2  3  1  0
  3  4  2  0
  3  5  1  0
  5  6  1  0
  6  7  1  0
  8  7  1  6
  8  9  1  0
  9 10  2  0
  9 11  1  0
 11 12  1  0
 12 13  2  0
 13 14  1  0
 14 15  2  0
 15 16  1  0
 16 17  2  0
 17 18  1  0
 18 19  2  0
 19 20  1  0
 20 21  2  0
 20 22  1  0
 19 23  1  0
 18 24  1  0
 17 25  1  0
 15 26  1  0
 13 27  1  0
 11 28  1  0
 28 29  1  0
 29 30  1  0
 30 31  1  0
 31 32  1  0
 32 33  2  0
 33 34  1  0
 34 35  1  0
 30 36  1  0
 30 37  1  0
 29 38  1  1
 28 39  1  0
 28 40  1  0
  8 41  1  0
 41 42  2  0
 42 43  1  0
 43 44  1  0
 43 45  2  0
 45 46  1  0
 46 47  2  0
 47 48  1  0
 48 49  2  0
 46 50  1  0
 45 51  1  0
 42 52  1  0
  7 53  1  0
  7 54  1  0
  5 55  1  0
  5 56  1  0
  2 57  1  0
  1 58  1  0
  1 59  1  0
  1 60  1  0
 48  6  1  0
 29  8  1  0
 35 31  2  0
 47 41  1  0
 21 12  1  0
 21 16  1  0
M  CHG  1  34  -1
M  END
>  <cnnaffinities>  (57) 
[6.76894, 6.75503, 6.87433, 6.92019]

>  <score>  (57) 
6.76894

>  <index>  (57) 
59

>  <Smiles>  (57) 
C(N(C(=O)C(N1C([C@@]2(C(=O)N(c3c(nc(c4c(c(c(c(c34)[H])[H])[H])[H])[H])[H])C([C@@]2(C(c2nn[n-]n2)([H])[H])[H])([H])[H])c2c(c(Cl)c(c(c2C1=O)[H])[H])[H])([H])[H])([H])[H])[H])([H])([H])[H]

>  <h>  (57) 
<NA>

>  <Training>  (57) 
True

>  <Success>  (57) 
True

>  <enamine_searched>  (57) 
False

>  <enamine_id>  (57) 
nan

$$$$

     RDKit          3D

 62 67  0  0  0  0  0  0  0  0999 V2000
  -11.3177    4.3028  -25.2303 C   0  0  0  0  0  0  0  0  0  0  0  0
   -9.8240    4.1722  -25.5273 C   0  0  0  0  0  0  0  0  0  0  0  0
   -9.0687    3.5901  -24.4246 N   0  0  0  0  0  0  0  0  0  0  0  0
   -8.4880    4.4129  -23.5371 N   0  0  0  0  0  0  0  0  0  0  0  0
   -7.9035    3.6197  -22.6502 C   0  0  0  0  0  0  0  0  0  0  0  0
   -8.1113    2.2645  -22.9706 C   0  0  0  0  0  0  0  0  0  0  0  0
   -8.8911    2.2768  -24.1051 C   0  0  0  0  0  0  0  0  0  0  0  0
   -9.3914    1.1051  -24.9082 C   0  0  0  0  0  0  0  0  0  0  0  0
   -9.8533    0.0020  -24.0863 N   0  0  0  0  0  0  0  0  0  0  0  0
   -9.0378   -1.1935  -23.9802 C   0  0  0  0  0  0  0  0  0  0  0  0
   -9.2229   -1.9099  -22.6167 C   0  0  2  0  0  0  0  0  0  0  0  0
   -8.6613   -1.0276  -21.4694 C   0  0  0  0  0  0  0  0  0  0  0  0
   -9.2300   -0.1074  -20.9092 O   0  0  0  0  0  0  0  0  0  0  0  0
   -7.3767   -1.4346  -21.1922 N   0  0  0  0  0  0  0  0  0  0  0  0
   -6.5997   -0.8245  -20.1686 C   0  0  0  0  0  0  0  0  0  0  0  0
   -6.9049   -1.0485  -18.8496 C   0  0  0  0  0  0  0  0  0  0  0  0
   -6.1936   -0.5483  -17.8106 N   0  0  0  0  0  0  0  0  0  0  0  0
   -5.1640    0.2085  -18.0830 C   0  0  0  0  0  0  0  0  0  0  0  0
   -4.7311    0.5281  -19.3991 C   0  0  0  0  0  0  0  0  0  0  0  0
   -3.6076    1.3641  -19.6421 C   0  0  0  0  0  0  0  0  0  0  0  0
   -3.2277    1.6636  -20.9177 C   0  0  0  0  0  0  0  0  0  0  0  0
   -3.9576    1.1405  -22.0104 C   0  0  0  0  0  0  0  0  0  0  0  0
   -5.0493    0.3291  -21.8007 C   0  0  0  0  0  0  0  0  0  0  0  0
   -5.4670   -0.0036  -20.4870 C   0  0  0  0  0  0  0  0  0  0  0  0
   -5.5979   -0.0625  -22.6534 H   0  0  0  0  0  0  0  0  0  0  0  0
   -3.6550    1.3824  -23.0239 H   0  0  0  0  0  0  0  0  0  0  0  0
   -2.3760    2.3142  -21.1024 H   0  0  0  0  0  0  0  0  0  0  0  0
   -3.0786    1.7726  -18.7827 H   0  0  0  0  0  0  0  0  0  0  0  0
   -4.6152    0.6175  -17.2319 H   0  0  0  0  0  0  0  0  0  0  0  0
   -7.7529   -1.6731  -18.5794 H   0  0  0  0  0  0  0  0  0  0  0  0
   -6.9628   -2.6133  -21.9351 C   0  0  0  0  0  0  0  0  0  0  0  0
   -8.2909   -3.1583  -22.5105 C   0  0  2  0  0  0  0  0  0  0  0  0
   -8.0939   -3.9859  -23.7845 C   0  0  0  0  0  0  0  0  0  0  0  0
   -7.5540   -3.4112  -24.5486 H   0  0  0  0  0  0  0  0  0  0  0  0
   -7.5058   -4.8896  -23.5813 H   0  0  0  0  0  0  0  0  0  0  0  0
   -9.0501   -4.2992  -24.2207 H   0  0  0  0  0  0  0  0  0  0  0  0
   -8.7278   -3.7971  -21.7363 H   0  0  0  0  0  0  0  0  0  0  0  0
   -6.4622   -3.3256  -21.2697 H   0  0  0  0  0  0  0  0  0  0  0  0
   -6.2533   -2.3608  -22.7391 H   0  0  0  0  0  0  0  0  0  0  0  0
  -10.7128   -2.1403  -22.4344 C   0  0  0  0  0  0  0  0  0  0  0  0
  -11.2257   -3.2190  -21.7059 C   0  0  0  0  0  0  0  0  0  0  0  0
  -12.5805   -3.2770  -21.4523 C   0  0  0  0  0  0  0  0  0  0  0  0
  -13.0680   -4.2345  -20.6497 F   0  0  0  0  0  0  0  0  0  0  0  0
  -13.4810   -2.3423  -21.9433 C   0  0  0  0  0  0  0  0  0  0  0  0
  -12.9853   -1.2714  -22.6530 C   0  0  0  0  0  0  0  0  0  0  0  0
  -11.6159   -1.1632  -22.8900 C   0  0  0  0  0  0  0  0  0  0  0  0
  -11.1427    0.0427  -23.6446 C   0  0  0  0  0  0  0  0  0  0  0  0
  -11.8794    0.9936  -23.8679 O   0  0  0  0  0  0  0  0  0  0  0  0
  -13.6339   -0.4833  -23.0203 H   0  0  0  0  0  0  0  0  0  0  0  0
  -14.5322   -2.4784  -21.7240 H   0  0  0  0  0  0  0  0  0  0  0  0
  -10.5963   -3.9852  -21.2663 H   0  0  0  0  0  0  0  0  0  0  0  0
   -9.2953   -1.9076  -24.7807 H   0  0  0  0  0  0  0  0  0  0  0  0
   -7.9921   -0.8926  -24.0900 H   0  0  0  0  0  0  0  0  0  0  0  0
  -10.2047    1.4084  -25.5773 H   0  0  0  0  0  0  0  0  0  0  0  0
   -8.5749    0.7064  -25.5184 H   0  0  0  0  0  0  0  0  0  0  0  0
   -7.7785    1.3711  -22.4632 H   0  0  0  0  0  0  0  0  0  0  0  0
   -7.3653    4.0659  -21.8189 H   0  0  0  0  0  0  0  0  0  0  0  0
   -9.3665    5.1518  -25.7084 H   0  0  0  0  0  0  0  0  0  0  0  0
   -9.6522    3.5484  -26.4138 H   0  0  0  0  0  0  0  0  0  0  0  0
  -11.7707    3.3214  -25.0411 H   0  0  0  0  0  0  0  0  0  0  0  0
  -11.4847    4.9450  -24.3585 H   0  0  0  0  0  0  0  0  0  0  0  0
  -11.8196    4.7597  -26.0899 H   0  0  0  0  0  0  0  0  0  0  0  0
  1  2  1  0
  2  3  1  0
  3  4  1  0
  4  5  2  0
  5  6  1  0
  6  7  2  0
  7  8  1  0
  8  9  1  0
  9 10  1  0
 11 10  1  6
 11 12  1  0
 12 13  2  0
 12 14  1  0
 14 15  1  0
 15 16  2  0
 16 17  1  0
 17 18  2  0
 18 19  1  0
 19 20  2  0
 20 21  1  0
 21 22  2  0
 22 23  1  0
 23 24  2  0
 23 25  1  0
 22 26  1  0
 21 27  1  0
 20 28  1  0
 18 29  1  0
 16 30  1  0
 14 31  1  0
 31 32  1  0
 32 33  1  0
 33 34  1  0
 33 35  1  0
 33 36  1  0
 32 37  1  1
 31 38  1  0
 31 39  1  0
 11 40  1  0
 40 41  2  0
 41 42  1  0
 42 43  1  0
 42 44  2  0
 44 45  1  0
 45 46  2  0
 46 47  1  0
 47 48  2  0
 45 49  1  0
 44 50  1  0
 41 51  1  0
 10 52  1  0
 10 53  1  0
  8 54  1  0
  8 55  1  0
  6 56  1  0
  5 57  1  0
  2 58  1  0
  2 59  1  0
  1 60  1  0
  1 61  1  0
  1 62  1  0
  7  3  1  0
 47  9  1  0
 32 11  1  0
 46 40  1  0
 24 15  1  0
 24 19  1  0
M  END
>  <cnnaffinities>  (58) 
[6.84153]

>  <score>  (58) 
6.84153

>  <index>  (58) 
60

>  <Smiles>  (58) 
C(C(n1nc(c(c1C(N1C([C@@]2(C(=O)N(c3c(nc(c4c(c(c(c(c34)[H])[H])[H])[H])[H])[H])C([C@@]2(C([H])([H])[H])[H])([H])[H])c2c(c(F)c(c(c2C1=O)[H])[H])[H])([H])[H])([H])[H])[H])[H])([H])[H])([H])([H])[H]

>  <h>  (58) 
<NA>

>  <Training>  (58) 
True

>  <Success>  (58) 
True

>  <enamine_searched>  (58) 
False

>  <enamine_id>  (58) 
nan

$$$$

     RDKit          3D

 44 47  0  0  0  0  0  0  0  0999 V2000
   -8.3357    0.7597  -21.6810 O   0  0  0  0  0  0  0  0  0  0  0  0
   -8.5092   -0.4438  -21.7946 C   0  0  0  0  0  0  0  0  0  0  0  0
   -7.4552   -1.4398  -21.2556 C   0  0  0  0  0  0  0  0  0  0  0  0
   -6.5808   -0.8295  -20.1808 C   0  0  0  0  0  0  0  0  0  0  0  0
   -6.8748   -1.0418  -18.8615 C   0  0  0  0  0  0  0  0  0  0  0  0
   -6.1883   -0.5347  -17.8058 N   0  0  0  0  0  0  0  0  0  0  0  0
   -5.1545    0.2236  -18.0697 C   0  0  0  0  0  0  0  0  0  0  0  0
   -4.7227    0.5363  -19.3837 C   0  0  0  0  0  0  0  0  0  0  0  0
   -3.5969    1.3656  -19.6215 C   0  0  0  0  0  0  0  0  0  0  0  0
   -3.2099    1.6613  -20.8999 C   0  0  0  0  0  0  0  0  0  0  0  0
   -3.9364    1.1380  -21.9905 C   0  0  0  0  0  0  0  0  0  0  0  0
   -5.0275    0.3300  -21.7868 C   0  0  0  0  0  0  0  0  0  0  0  0
   -5.4543    0.0007  -20.4746 C   0  0  0  0  0  0  0  0  0  0  0  0
   -5.5828   -0.0487  -22.6389 H   0  0  0  0  0  0  0  0  0  0  0  0
   -3.6250    1.3774  -23.0050 H   0  0  0  0  0  0  0  0  0  0  0  0
   -2.3525    2.3062  -21.0838 H   0  0  0  0  0  0  0  0  0  0  0  0
   -3.0602    1.7743  -18.7675 H   0  0  0  0  0  0  0  0  0  0  0  0
   -4.6025    0.6279  -17.2175 H   0  0  0  0  0  0  0  0  0  0  0  0
   -7.7279   -1.6606  -18.5815 H   0  0  0  0  0  0  0  0  0  0  0  0
   -6.8322   -1.7988  -22.0888 H   0  0  0  0  0  0  0  0  0  0  0  0
   -7.9632   -2.3277  -20.8476 H   0  0  0  0  0  0  0  0  0  0  0  0
   -9.6475   -0.9464  -22.3841 N   0  0  0  0  0  0  0  0  0  0  0  0
   -9.7766   -2.3191  -22.8744 C   0  0  0  0  0  0  0  0  0  0  0  0
  -10.8461   -2.4168  -23.9634 C   0  0  0  0  0  0  0  0  0  0  0  0
  -12.2286   -1.9402  -23.5206 C   0  0  0  0  0  0  0  0  0  0  0  0
  -13.2080   -1.6807  -24.6880 C   0  0  0  0  0  0  0  0  0  0  0  0
  -14.1402   -2.8061  -24.1900 C   0  0  0  0  0  0  0  0  0  0  0  0
  -13.1732   -3.0712  -23.0148 C   0  0  0  0  0  0  0  0  0  0  0  0
  -13.6091   -2.8940  -22.0241 H   0  0  0  0  0  0  0  0  0  0  0  0
  -12.7192   -4.0686  -23.0035 H   0  0  0  0  0  0  0  0  0  0  0  0
  -15.1398   -2.4729  -23.8899 H   0  0  0  0  0  0  0  0  0  0  0  0
  -14.2473   -3.6416  -24.8898 H   0  0  0  0  0  0  0  0  0  0  0  0
  -13.6463   -0.6774  -24.6734 H   0  0  0  0  0  0  0  0  0  0  0  0
  -12.7637   -1.8506  -25.6714 H   0  0  0  0  0  0  0  0  0  0  0  0
  -12.0931   -0.7861  -22.5300 C   0  0  0  0  0  0  0  0  0  0  0  0
  -10.7690   -0.0308  -22.6275 C   0  0  0  0  0  0  0  0  0  0  0  0
  -10.7048    0.7786  -21.8966 H   0  0  0  0  0  0  0  0  0  0  0  0
  -10.6863    0.4578  -23.6087 H   0  0  0  0  0  0  0  0  0  0  0  0
  -12.9415   -0.0946  -22.6063 H   0  0  0  0  0  0  0  0  0  0  0  0
  -12.1586   -1.2481  -21.5505 H   0  0  0  0  0  0  0  0  0  0  0  0
  -10.5259   -1.8316  -24.8349 H   0  0  0  0  0  0  0  0  0  0  0  0
  -10.9116   -3.4522  -24.3065 H   0  0  0  0  0  0  0  0  0  0  0  0
   -8.8157   -2.6356  -23.2958 H   0  0  0  0  0  0  0  0  0  0  0  0
  -10.0053   -3.0109  -22.0486 H   0  0  0  0  0  0  0  0  0  0  0  0
  1  2  2  0
  2  3  1  0
  3  4  1  0
  4  5  2  0
  5  6  1  0
  6  7  2  0
  7  8  1  0
  8  9  2  0
  9 10  1  0
 10 11  2  0
 11 12  1  0
 12 13  2  0
 12 14  1  0
 11 15  1  0
 10 16  1  0
  9 17  1  0
  7 18  1  0
  5 19  1  0
  3 20  1  0
  3 21  1  0
  2 22  1  0
 22 23  1  0
 23 24  1  0
 24 25  1  0
 25 26  1  0
 26 27  1  0
 27 28  1  0
 28 29  1  0
 28 30  1  0
 27 31  1  0
 27 32  1  0
 26 33  1  0
 26 34  1  0
 25 35  1  0
 35 36  1  0
 36 37  1  0
 36 38  1  0
 35 39  1  0
 35 40  1  0
 24 41  1  0
 24 42  1  0
 23 43  1  0
 23 44  1  0
 13  4  1  0
 36 22  1  0
 13  8  1  0
 28 25  1  0
M  END
>  <cnnaffinities>  (59) 
[5.46596, 5.46597, 5.47108, 5.20418, 5.20698, 5.20673, 5.20775, 4.86651, 4.86658, 4.86657, 4.86659, 4.95589, 4.95531, 4.95474]

>  <score>  (59) 
5.46596

>  <index>  (59) 
61

>  <Smiles>  (59) 
O=C(C(c1c(nc(c2c(c(c(c(c12)[H])[H])[H])[H])[H])[H])([H])[H])N1C(C(C2(C(C(C2([H])[H])([H])[H])([H])[H])C(C1([H])[H])([H])[H])([H])[H])([H])[H]

>  <h>  (59) 
<NA>

>  <Training>  (59) 
True

>  <Success>  (59) 
True

>  <enamine_searched>  (59) 
False

>  <enamine_id>  (59) 
nan

$$$$

     RDKit          3D

 44 47  0  0  0  0  0  0  0  0999 V2000
   -5.5875   -2.9834  -21.6735 O   0  0  0  0  0  0  0  0  0  0  0  0
   -6.7898   -2.8023  -21.7690 C   0  0  0  0  0  0  0  0  0  0  0  0
   -7.4207   -1.4820  -21.2560 C   0  0  0  0  0  0  0  0  0  0  0  0
   -6.5808   -0.8251  -20.1806 C   0  0  0  0  0  0  0  0  0  0  0  0
   -6.8725   -1.0424  -18.8613 C   0  0  0  0  0  0  0  0  0  0  0  0
   -6.1825   -0.5412  -17.8048 N   0  0  0  0  0  0  0  0  0  0  0  0
   -5.1542    0.2238  -18.0692 C   0  0  0  0  0  0  0  0  0  0  0  0
   -4.7192    0.5332  -19.3826 C   0  0  0  0  0  0  0  0  0  0  0  0
   -3.5903    1.3580  -19.6212 C   0  0  0  0  0  0  0  0  0  0  0  0
   -3.1893    1.6348  -20.8986 C   0  0  0  0  0  0  0  0  0  0  0  0
   -3.9030    1.0935  -21.9900 C   0  0  0  0  0  0  0  0  0  0  0  0
   -4.9969    0.2899  -21.7857 C   0  0  0  0  0  0  0  0  0  0  0  0
   -5.4448   -0.0097  -20.4743 C   0  0  0  0  0  0  0  0  0  0  0  0
   -5.5154   -0.1398  -22.6372 H   0  0  0  0  0  0  0  0  0  0  0  0
   -3.5741    1.3084  -23.0037 H   0  0  0  0  0  0  0  0  0  0  0  0
   -2.3269    2.2724  -21.0834 H   0  0  0  0  0  0  0  0  0  0  0  0
   -3.0599    1.7746  -18.7669 H   0  0  0  0  0  0  0  0  0  0  0  0
   -4.6033    0.6290  -17.2167 H   0  0  0  0  0  0  0  0  0  0  0  0
   -7.7196   -1.6696  -18.5824 H   0  0  0  0  0  0  0  0  0  0  0  0
   -7.5642   -0.7931  -22.1005 H   0  0  0  0  0  0  0  0  0  0  0  0
   -8.4232   -1.6898  -20.8501 H   0  0  0  0  0  0  0  0  0  0  0  0
   -7.6228   -3.7676  -22.3092 N   0  0  0  0  0  0  0  0  0  0  0  0
   -7.2627   -5.1765  -22.1499 C   0  0  0  0  0  0  0  0  0  0  0  0
   -7.5329   -5.9921  -23.4024 C   0  0  0  0  0  0  0  0  0  0  0  0
   -8.9757   -5.8199  -23.8805 C   0  0  0  0  0  0  0  0  0  0  0  0
   -9.2340   -6.6959  -25.1082 C   0  0  0  0  0  0  0  0  0  0  0  0
   -8.4866   -6.4585  -26.3931 C   0  0  0  0  0  0  0  0  0  0  0  0
   -9.9730   -6.2345  -26.3355 C   0  0  0  0  0  0  0  0  0  0  0  0
  -10.6143   -6.9388  -26.8644 H   0  0  0  0  0  0  0  0  0  0  0  0
  -10.3366   -5.2106  -26.3784 H   0  0  0  0  0  0  0  0  0  0  0  0
   -7.8542   -5.5737  -26.4448 H   0  0  0  0  0  0  0  0  0  0  0  0
   -8.1119   -7.3072  -26.9656 H   0  0  0  0  0  0  0  0  0  0  0  0
   -9.3755   -7.7509  -24.8694 H   0  0  0  0  0  0  0  0  0  0  0  0
   -9.2651   -4.3329  -24.0708 C   0  0  0  0  0  0  0  0  0  0  0  0
   -8.9714   -3.5281  -22.8074 C   0  0  0  0  0  0  0  0  0  0  0  0
   -9.7217   -3.7780  -22.0408 H   0  0  0  0  0  0  0  0  0  0  0  0
   -9.0768   -2.4655  -23.0284 H   0  0  0  0  0  0  0  0  0  0  0  0
  -10.3140   -4.1864  -24.3440 H   0  0  0  0  0  0  0  0  0  0  0  0
   -8.6718   -3.9369  -24.9015 H   0  0  0  0  0  0  0  0  0  0  0  0
   -9.6347   -6.1762  -23.0820 H   0  0  0  0  0  0  0  0  0  0  0  0
   -6.8470   -5.6865  -24.1980 H   0  0  0  0  0  0  0  0  0  0  0  0
   -7.3279   -7.0502  -23.1992 H   0  0  0  0  0  0  0  0  0  0  0  0
   -7.8457   -5.6307  -21.3367 H   0  0  0  0  0  0  0  0  0  0  0  0
   -6.2114   -5.2247  -21.8653 H   0  0  0  0  0  0  0  0  0  0  0  0
  1  2  2  0
  2  3  1  0
  3  4  1  0
  4  5  2  0
  5  6  1  0
  6  7  2  0
  7  8  1  0
  8  9  2  0
  9 10  1  0
 10 11  2  0
 11 12  1  0
 12 13  2  0
 12 14  1  0
 11 15  1  0
 10 16  1  0
  9 17  1  0
  7 18  1  0
  5 19  1  0
  3 20  1  0
  3 21  1  0
  2 22  1  0
 22 23  1  0
 23 24  1  0
 24 25  1  0
 25 26  1  0
 26 27  1  0
 27 28  1  0
 28 29  1  0
 28 30  1  0
 27 31  1  0
 27 32  1  0
 26 33  1  0
 25 34  1  0
 34 35  1  0
 35 36  1  0
 35 37  1  0
 34 38  1  0
 34 39  1  0
 25 40  1  0
 24 41  1  0
 24 42  1  0
 23 43  1  0
 23 44  1  0
 13  4  1  0
 35 22  1  0
 13  8  1  0
 28 26  1  0
M  END
>  <cnnaffinities>  (60) 
[4.89017, 5.31489, 4.58259, 5.23792, 4.75999]

>  <score>  (60) 
4.89017

>  <index>  (60) 
62

>  <Smiles>  (60) 
O=C(C(c1c(nc(c2c(c(c(c(c12)[H])[H])[H])[H])[H])[H])([H])[H])N1C(C(C(C2(C(C2([H])[H])([H])[H])[H])(C(C1([H])[H])([H])[H])[H])([H])[H])([H])[H]

>  <h>  (60) 
<NA>

>  <Training>  (60) 
True

>  <Success>  (60) 
True

>  <enamine_searched>  (60) 
False

>  <enamine_id>  (60) 
nan

$$$$

     RDKit          3D

 57 61  0  0  0  0  0  0  0  0999 V2000
  -14.5616   -1.6873  -23.7330 C   0  0  0  0  0  0  0  0  0  0  0  0
  -13.6108   -2.7025  -23.3498 N   0  0  0  0  0  0  0  0  0  0  0  0
  -13.3029   -2.8889  -22.0400 C   0  0  0  0  0  0  0  0  0  0  0  0
  -13.8223   -2.2528  -21.1397 O   0  0  0  0  0  0  0  0  0  0  0  0
  -12.3119   -4.0263  -21.7937 C   0  0  0  0  0  0  0  0  0  0  0  0
  -11.0037   -3.9139  -22.4109 N   0  0  0  0  0  0  0  0  0  0  0  0
   -9.8952   -3.3938  -21.6248 C   0  0  0  0  0  0  0  0  0  0  0  0
   -8.7141   -2.8653  -22.4713 C   0  0  2  0  0  0  0  0  0  0  0  0
   -7.5346   -2.6723  -21.5042 C   0  0  0  0  0  0  0  0  0  0  0  0
   -6.8393   -3.5419  -21.0169 O   0  0  0  0  0  0  0  0  0  0  0  0
   -7.3638   -1.3254  -21.2707 N   0  0  0  0  0  0  0  0  0  0  0  0
   -6.5597   -0.8516  -20.2098 C   0  0  0  0  0  0  0  0  0  0  0  0
   -6.8777   -1.1256  -18.9049 C   0  0  0  0  0  0  0  0  0  0  0  0
   -6.2190   -0.5906  -17.8480 N   0  0  0  0  0  0  0  0  0  0  0  0
   -5.2152    0.2139  -18.0929 C   0  0  0  0  0  0  0  0  0  0  0  0
   -4.7560    0.5478  -19.3993 C   0  0  0  0  0  0  0  0  0  0  0  0
   -3.6321    1.3847  -19.6290 C   0  0  0  0  0  0  0  0  0  0  0  0
   -3.2240    1.6538  -20.9064 C   0  0  0  0  0  0  0  0  0  0  0  0
   -3.9195    1.1080  -22.0109 C   0  0  0  0  0  0  0  0  0  0  0  0
   -5.0097    0.2971  -21.8137 C   0  0  0  0  0  0  0  0  0  0  0  0
   -5.4506    0.0009  -20.4988 C   0  0  0  0  0  0  0  0  0  0  0  0
   -5.5373   -0.1455  -22.6534 H   0  0  0  0  0  0  0  0  0  0  0  0
   -3.5822    1.3147  -23.0221 H   0  0  0  0  0  0  0  0  0  0  0  0
   -2.3567    2.2840  -21.0848 H   0  0  0  0  0  0  0  0  0  0  0  0
   -3.1095    1.7972  -18.7689 H   0  0  0  0  0  0  0  0  0  0  0  0
   -4.6993    0.6346  -17.2296 H   0  0  0  0  0  0  0  0  0  0  0  0
   -7.7056   -1.7890  -18.6588 H   0  0  0  0  0  0  0  0  0  0  0  0
   -8.3662   -0.4882  -21.9064 C   0  0  0  0  0  0  0  0  0  0  0  0
   -8.9167   -1.4009  -23.0100 C   0  0  2  0  0  0  0  0  0  0  0  0
  -10.3287   -1.0340  -23.4670 C   0  0  0  0  0  0  0  0  0  0  0  0
  -11.2089   -0.8940  -22.3622 O   0  0  0  0  0  0  0  0  0  0  0  0
  -11.4358    0.0350  -22.2491 H   0  0  0  0  0  0  0  0  0  0  0  0
  -10.6997   -1.8394  -24.1109 H   0  0  0  0  0  0  0  0  0  0  0  0
  -10.3262   -0.1149  -24.0689 H   0  0  0  0  0  0  0  0  0  0  0  0
   -8.2483   -1.3259  -23.8791 H   0  0  0  0  0  0  0  0  0  0  0  0
   -9.1468   -0.1936  -21.1888 H   0  0  0  0  0  0  0  0  0  0  0  0
   -7.9179    0.4377  -22.2821 H   0  0  0  0  0  0  0  0  0  0  0  0
   -8.4012   -3.8775  -23.5527 C   0  0  0  0  0  0  0  0  0  0  0  0
   -7.1076   -3.9992  -24.0816 C   0  0  0  0  0  0  0  0  0  0  0  0
   -6.8512   -4.9402  -25.0628 C   0  0  0  0  0  0  0  0  0  0  0  0
   -5.2439   -5.0783  -25.7284 Cl  0  0  0  0  0  0  0  0  0  0  0  0
   -7.8477   -5.8148  -25.4976 C   0  0  0  0  0  0  0  0  0  0  0  0
   -9.1372   -5.6718  -25.0134 C   0  0  0  0  0  0  0  0  0  0  0  0
   -9.4198   -4.6862  -24.0715 C   0  0  0  0  0  0  0  0  0  0  0  0
  -10.8310   -4.5066  -23.6248 C   0  0  0  0  0  0  0  0  0  0  0  0
  -11.7994   -4.8591  -24.3055 O   0  0  0  0  0  0  0  0  0  0  0  0
   -9.9440   -6.3182  -25.3543 H   0  0  0  0  0  0  0  0  0  0  0  0
   -7.6069   -6.5935  -26.2095 H   0  0  0  0  0  0  0  0  0  0  0  0
   -6.2890   -3.4056  -23.6879 H   0  0  0  0  0  0  0  0  0  0  0  0
   -9.5025   -4.1634  -20.9561 H   0  0  0  0  0  0  0  0  0  0  0  0
  -10.2670   -2.5636  -21.0274 H   0  0  0  0  0  0  0  0  0  0  0  0
  -12.7706   -4.9050  -22.2463 H   0  0  0  0  0  0  0  0  0  0  0  0
  -12.2200   -4.1506  -20.7137 H   0  0  0  0  0  0  0  0  0  0  0  0
  -13.2355   -3.3273  -24.0505 H   0  0  0  0  0  0  0  0  0  0  0  0
  -14.1420   -0.6791  -23.6723 H   0  0  0  0  0  0  0  0  0  0  0  0
  -15.4199   -1.6926  -23.0635 H   0  0  0  0  0  0  0  0  0  0  0  0
  -14.8933   -1.8804  -24.7551 H   0  0  0  0  0  0  0  0  0  0  0  0
  1  2  1  0
  2  3  1  0
  3  4  2  0
  3  5  1  0
  5  6  1  0
  6  7  1  0
  8  7  1  1
  8  9  1  0
  9 10  2  0
  9 11  1  0
 11 12  1  0
 12 13  2  0
 13 14  1  0
 14 15  2  0
 15 16  1  0
 16 17  2  0
 17 18  1  0
 18 19  2  0
 19 20  1  0
 20 21  2  0
 20 22  1  0
 19 23  1  0
 18 24  1  0
 17 25  1  0
 15 26  1  0
 13 27  1  0
 11 28  1  0
 28 29  1  0
 29 30  1  0
 30 31  1  0
 31 32  1  0
 30 33  1  0
 30 34  1  0
 29 35  1  6
 28 36  1  0
 28 37  1  0
  8 38  1  0
 38 39  2  0
 39 40  1  0
 40 41  1  0
 40 42  2  0
 42 43  1  0
 43 44  2  0
 44 45  1  0
 45 46  2  0
 43 47  1  0
 42 48  1  0
 39 49  1  0
  7 50  1  0
  7 51  1  0
  5 52  1  0
  5 53  1  0
  2 54  1  0
  1 55  1  0
  1 56  1  0
  1 57  1  0
 45  6  1  0
 29  8  1  0
 44 38  1  0
 21 12  1  0
 21 16  1  0
M  END
>  <cnnaffinities>  (61) 
[6.26261, 6.34251]

>  <score>  (61) 
6.26261

>  <index>  (61) 
63

>  <Smiles>  (61) 
C(N(C(=O)C(N1C([C@@]2(C(=O)N(c3c(nc(c4c(c(c(c(c34)[H])[H])[H])[H])[H])[H])C([C@@]2(C(O[H])([H])[H])[H])([H])[H])c2c(c(Cl)c(c(c2C1=O)[H])[H])[H])([H])[H])([H])[H])[H])([H])([H])[H]

>  <h>  (61) 
<NA>

>  <Training>  (61) 
True

>  <Success>  (61) 
True

>  <enamine_searched>  (61) 
False

>  <enamine_id>  (61) 
nan

$$$$

     RDKit          3D

 55 60  0  0  0  0  0  0  0  0999 V2000
  -10.4742   -1.1683  -23.2374 C   0  0  0  0  0  0  0  0  0  0  0  0
   -9.0234   -1.5115  -22.9217 C   0  0  1  0  0  0  0  0  0  0  0  0
   -8.3904   -0.5397  -21.9142 C   0  0  0  0  0  0  0  0  0  0  0  0
   -7.4022   -1.3465  -21.2270 N   0  0  0  0  0  0  0  0  0  0  0  0
   -6.5870   -0.8377  -20.1872 C   0  0  0  0  0  0  0  0  0  0  0  0
   -6.8939   -1.0851  -18.8724 C   0  0  0  0  0  0  0  0  0  0  0  0
   -6.2092   -0.5654  -17.8215 N   0  0  0  0  0  0  0  0  0  0  0  0
   -5.1880    0.2094  -18.0855 C   0  0  0  0  0  0  0  0  0  0  0  0
   -4.7465    0.5209  -19.4033 C   0  0  0  0  0  0  0  0  0  0  0  0
   -3.6197    1.3474  -19.6403 C   0  0  0  0  0  0  0  0  0  0  0  0
   -3.2168    1.6190  -20.9173 C   0  0  0  0  0  0  0  0  0  0  0  0
   -3.9186    1.0778  -22.0188 C   0  0  0  0  0  0  0  0  0  0  0  0
   -5.0140    0.2723  -21.8181 C   0  0  0  0  0  0  0  0  0  0  0  0
   -5.4599   -0.0155  -20.4992 C   0  0  0  0  0  0  0  0  0  0  0  0
   -5.5379   -0.1538  -22.6697 H   0  0  0  0  0  0  0  0  0  0  0  0
   -3.5888    1.2987  -23.0304 H   0  0  0  0  0  0  0  0  0  0  0  0
   -2.3568    2.2574  -21.0978 H   0  0  0  0  0  0  0  0  0  0  0  0
   -3.1033    1.7639  -18.7798 H   0  0  0  0  0  0  0  0  0  0  0  0
   -4.6431    0.6373  -17.2402 H   0  0  0  0  0  0  0  0  0  0  0  0
   -7.7335   -1.7306  -18.6206 H   0  0  0  0  0  0  0  0  0  0  0  0
   -7.5583   -2.7003  -21.4263 C   0  0  0  0  0  0  0  0  0  0  0  0
   -6.7863   -3.5398  -21.0077 O   0  0  0  0  0  0  0  0  0  0  0  0
   -8.7936   -2.9354  -22.3145 C   0  0  1  0  0  0  0  0  0  0  0  0
   -9.9763   -3.4009  -21.4425 C   0  0  0  0  0  0  0  0  0  0  0  0
  -11.0930   -3.9396  -22.2027 N   0  0  0  0  0  0  0  0  0  0  0  0
  -12.4476   -3.8010  -21.7005 C   0  0  0  0  0  0  0  0  0  0  0  0
  -13.2861   -2.7670  -22.4043 C   0  0  0  0  0  0  0  0  0  0  0  0
  -13.7188   -1.5951  -21.8600 N   0  0  0  0  0  0  0  0  0  0  0  0
  -14.5249   -1.1159  -22.7914 C   0  0  0  0  0  0  0  0  0  0  0  0
  -14.5761   -1.9654  -23.8286 N   0  0  0  0  0  0  0  0  0  0  0  0
  -13.7946   -3.0356  -23.5956 N   0  0  0  0  0  0  0  0  0  0  0  0
  -15.1044   -1.9221  -24.6860 H   0  0  0  0  0  0  0  0  0  0  0  0
  -15.1069   -0.2067  -22.7398 H   0  0  0  0  0  0  0  0  0  0  0  0
  -12.9332   -4.7449  -21.9245 H   0  0  0  0  0  0  0  0  0  0  0  0
  -12.4461   -3.6525  -20.6202 H   0  0  0  0  0  0  0  0  0  0  0  0
  -10.9335   -4.6936  -23.3315 C   0  0  0  0  0  0  0  0  0  0  0  0
  -11.8800   -5.1833  -23.9311 O   0  0  0  0  0  0  0  0  0  0  0  0
   -9.5365   -4.8420  -23.8060 C   0  0  0  0  0  0  0  0  0  0  0  0
   -9.2984   -5.8043  -24.7817 C   0  0  0  0  0  0  0  0  0  0  0  0
   -8.0471   -5.9206  -25.3529 C   0  0  0  0  0  0  0  0  0  0  0  0
   -7.0540   -5.0498  -24.9169 C   0  0  0  0  0  0  0  0  0  0  0  0
   -5.8499   -5.1073  -25.5058 F   0  0  0  0  0  0  0  0  0  0  0  0
   -7.2576   -4.1133  -23.9237 C   0  0  0  0  0  0  0  0  0  0  0  0
   -8.5220   -4.0004  -23.3466 C   0  0  0  0  0  0  0  0  0  0  0  0
   -6.4477   -3.4664  -23.6068 H   0  0  0  0  0  0  0  0  0  0  0  0
   -7.8336   -6.6244  -26.1501 H   0  0  0  0  0  0  0  0  0  0  0  0
  -10.1250   -6.4478  -25.0650 H   0  0  0  0  0  0  0  0  0  0  0  0
  -10.3477   -2.5554  -20.8623 H   0  0  0  0  0  0  0  0  0  0  0  0
   -9.6080   -4.1475  -20.7452 H   0  0  0  0  0  0  0  0  0  0  0  0
   -9.1365   -0.1541  -21.2057 H   0  0  0  0  0  0  0  0  0  0  0  0
   -7.9296    0.3263  -22.4022 H   0  0  0  0  0  0  0  0  0  0  0  0
   -8.4318   -1.4693  -23.8458 H   0  0  0  0  0  0  0  0  0  0  0  0
  -10.5472   -0.2039  -23.7446 H   0  0  0  0  0  0  0  0  0  0  0  0
  -11.0613   -1.0982  -22.3156 H   0  0  0  0  0  0  0  0  0  0  0  0
  -10.9379   -1.9338  -23.8682 H   0  0  0  0  0  0  0  0  0  0  0  0
  1  2  1  0
  2  3  1  0
  3  4  1  0
  4  5  1  0
  5  6  2  0
  6  7  1  0
  7  8  2  0
  8  9  1  0
  9 10  2  0
 10 11  1  0
 11 12  2  0
 12 13  1  0
 13 14  2  0
 13 15  1  0
 12 16  1  0
 11 17  1  0
 10 18  1  0
  8 19  1  0
  6 20  1  0
  4 21  1  0
 21 22  2  0
 21 23  1  0
 23 24  1  1
 24 25  1  0
 25 26  1  0
 26 27  1  0
 27 28  1  0
 28 29  2  0
 29 30  1  0
 30 31  1  0
 30 32  1  0
 29 33  1  0
 26 34  1  0
 26 35  1  0
 25 36  1  0
 36 37  2  0
 36 38  1  0
 38 39  2  0
 39 40  1  0
 40 41  2  0
 41 42  1  0
 41 43  1  0
 43 44  2  0
 43 45  1  0
 40 46  1  0
 39 47  1  0
 24 48  1  0
 24 49  1  0
  3 50  1  0
  3 51  1  0
  2 52  1  6
  1 53  1  0
  1 54  1  0
  1 55  1  0
 23  2  1  0
 31 27  2  0
 44 38  1  0
 14  5  1  0
 44 23  1  0
 14  9  1  0
M  END
>  <cnnaffinities>  (62) 
[6.72864, 6.8112]

>  <score>  (62) 
6.72864

>  <index>  (62) 
64

>  <Smiles>  (62) 
C([C@]1(C(N(c2c(nc(c3c(c(c(c(c23)[H])[H])[H])[H])[H])[H])C(=O)[C@]21C(N(C(c1nc(n(n1)[H])[H])([H])[H])C(=O)c1c(c(c(F)c(c21)[H])[H])[H])([H])[H])([H])[H])[H])([H])([H])[H]

>  <h>  (62) 
<NA>

>  <Training>  (62) 
True

>  <Success>  (62) 
True

>  <enamine_searched>  (62) 
False

>  <enamine_id>  (62) 
nan

$$$$

     RDKit          3D

 55 60  0  0  0  0  0  0  0  0999 V2000
  -10.4783   -1.2286  -23.2342 C   0  0  0  0  0  0  0  0  0  0  0  0
   -9.0230   -1.5539  -22.9157 C   0  0  1  0  0  0  0  0  0  0  0  0
   -8.3920   -0.5724  -21.9166 C   0  0  0  0  0  0  0  0  0  0  0  0
   -7.3916   -1.3633  -21.2274 N   0  0  0  0  0  0  0  0  0  0  0  0
   -6.5836   -0.8429  -20.1852 C   0  0  0  0  0  0  0  0  0  0  0  0
   -6.8934   -1.0794  -18.8682 C   0  0  0  0  0  0  0  0  0  0  0  0
   -6.2063   -0.5595  -17.8188 N   0  0  0  0  0  0  0  0  0  0  0  0
   -5.1828    0.2122  -18.0843 C   0  0  0  0  0  0  0  0  0  0  0  0
   -4.7410    0.5199  -19.4031 C   0  0  0  0  0  0  0  0  0  0  0  0
   -3.6142    1.3486  -19.6385 C   0  0  0  0  0  0  0  0  0  0  0  0
   -3.2126    1.6212  -20.9170 C   0  0  0  0  0  0  0  0  0  0  0  0
   -3.9164    1.0790  -22.0167 C   0  0  0  0  0  0  0  0  0  0  0  0
   -5.0112    0.2726  -21.8152 C   0  0  0  0  0  0  0  0  0  0  0  0
   -5.4572   -0.0169  -20.4966 C   0  0  0  0  0  0  0  0  0  0  0  0
   -5.5392   -0.1530  -22.6634 H   0  0  0  0  0  0  0  0  0  0  0  0
   -3.5878    1.2977  -23.0300 H   0  0  0  0  0  0  0  0  0  0  0  0
   -2.3514    2.2583  -21.0993 H   0  0  0  0  0  0  0  0  0  0  0  0
   -3.0948    1.7657  -18.7791 H   0  0  0  0  0  0  0  0  0  0  0  0
   -4.6374    0.6355  -17.2378 H   0  0  0  0  0  0  0  0  0  0  0  0
   -7.7349   -1.7212  -18.6113 H   0  0  0  0  0  0  0  0  0  0  0  0
   -7.5406   -2.7198  -21.4087 C   0  0  0  0  0  0  0  0  0  0  0  0
   -6.7662   -3.5430  -20.9595 O   0  0  0  0  0  0  0  0  0  0  0  0
   -8.7674   -2.9726  -22.3093 C   0  0  1  0  0  0  0  0  0  0  0  0
   -9.9379   -3.4618  -21.4420 C   0  0  0  0  0  0  0  0  0  0  0  0
  -11.0445   -4.0365  -22.1845 N   0  0  0  0  0  0  0  0  0  0  0  0
  -12.3989   -3.9540  -21.6589 C   0  0  0  0  0  0  0  0  0  0  0  0
  -13.2492   -2.8453  -22.2029 C   0  0  0  0  0  0  0  0  0  0  0  0
  -13.8800   -2.9247  -23.3963 C   0  0  0  0  0  0  0  0  0  0  0  0
  -14.6288   -1.7976  -23.5636 O   0  0  0  0  0  0  0  0  0  0  0  0
  -14.4058   -1.0943  -22.4359 C   0  0  0  0  0  0  0  0  0  0  0  0
  -13.6077   -1.6539  -21.5865 N   0  0  0  0  0  0  0  0  0  0  0  0
  -14.9462   -0.1609  -22.3504 H   0  0  0  0  0  0  0  0  0  0  0  0
  -13.8744   -3.7008  -24.1523 H   0  0  0  0  0  0  0  0  0  0  0  0
  -12.3894   -3.9996  -20.5678 H   0  0  0  0  0  0  0  0  0  0  0  0
  -12.8781   -4.8455  -22.0412 H   0  0  0  0  0  0  0  0  0  0  0  0
  -10.8925   -4.7116  -23.3632 C   0  0  0  0  0  0  0  0  0  0  0  0
  -11.8488   -5.1276  -24.0074 O   0  0  0  0  0  0  0  0  0  0  0  0
   -9.4909   -4.8676  -23.8349 C   0  0  0  0  0  0  0  0  0  0  0  0
   -9.2265   -5.8179  -24.8209 C   0  0  0  0  0  0  0  0  0  0  0  0
   -7.9624   -5.9016  -25.3786 C   0  0  0  0  0  0  0  0  0  0  0  0
   -6.9832   -5.0194  -24.9304 C   0  0  0  0  0  0  0  0  0  0  0  0
   -5.7706   -5.0520  -25.5087 F   0  0  0  0  0  0  0  0  0  0  0  0
   -7.2147   -4.1050  -23.9229 C   0  0  0  0  0  0  0  0  0  0  0  0
   -8.4824   -4.0309  -23.3469 C   0  0  0  0  0  0  0  0  0  0  0  0
   -6.4215   -3.4425  -23.5969 H   0  0  0  0  0  0  0  0  0  0  0  0
   -7.7308   -6.5854  -26.1879 H   0  0  0  0  0  0  0  0  0  0  0  0
  -10.0413   -6.4711  -25.1290 H   0  0  0  0  0  0  0  0  0  0  0  0
  -10.3126   -2.6242  -20.8571 H   0  0  0  0  0  0  0  0  0  0  0  0
   -9.5447   -4.1978  -20.7553 H   0  0  0  0  0  0  0  0  0  0  0  0
   -9.1361   -0.1824  -21.2096 H   0  0  0  0  0  0  0  0  0  0  0  0
   -7.9401    0.2906  -22.4146 H   0  0  0  0  0  0  0  0  0  0  0  0
   -8.4371   -1.5100  -23.8426 H   0  0  0  0  0  0  0  0  0  0  0  0
  -10.5530   -0.2679  -23.7449 H   0  0  0  0  0  0  0  0  0  0  0  0
  -10.9381   -1.9938  -23.8691 H   0  0  0  0  0  0  0  0  0  0  0  0
  -11.0846   -1.1558  -22.3263 H   0  0  0  0  0  0  0  0  0  0  0  0
  1  2  1  0
  2  3  1  0
  3  4  1  0
  4  5  1  0
  5  6  2  0
  6  7  1  0
  7  8  2  0
  8  9  1  0
  9 10  2  0
 10 11  1  0
 11 12  2  0
 12 13  1  0
 13 14  2  0
 13 15  1  0
 12 16  1  0
 11 17  1  0
 10 18  1  0
  8 19  1  0
  6 20  1  0
  4 21  1  0
 21 22  2  0
 21 23  1  0
 23 24  1  1
 24 25  1  0
 25 26  1  0
 26 27  1  0
 27 28  2  0
 28 29  1  0
 29 30  1  0
 30 31  2  0
 30 32  1  0
 28 33  1  0
 26 34  1  0
 26 35  1  0
 25 36  1  0
 36 37  2  0
 36 38  1  0
 38 39  2  0
 39 40  1  0
 40 41  2  0
 41 42  1  0
 41 43  1  0
 43 44  2  0
 43 45  1  0
 40 46  1  0
 39 47  1  0
 24 48  1  0
 24 49  1  0
  3 50  1  0
  3 51  1  0
  2 52  1  6
  1 53  1  0
  1 54  1  0
  1 55  1  0
 23  2  1  0
 31 27  1  0
 44 38  1  0
 14  5  1  0
 44 23  1  0
 14  9  1  0
M  END
>  <cnnaffinities>  (63) 
[6.67778]

>  <score>  (63) 
6.67778

>  <index>  (63) 
65

>  <Smiles>  (63) 
C([C@]1(C(N(c2c(nc(c3c(c(c(c(c23)[H])[H])[H])[H])[H])[H])C(=O)[C@]21C(N(C(c1c(oc(n1)[H])[H])([H])[H])C(=O)c1c(c(c(F)c(c21)[H])[H])[H])([H])[H])([H])[H])[H])([H])([H])[H]

>  <h>  (63) 
<NA>

>  <Training>  (63) 
True

>  <Success>  (63) 
True

>  <enamine_searched>  (63) 
False

>  <enamine_id>  (63) 
nan

$$$$

     RDKit          3D

 44 47  0  0  0  0  0  0  0  0999 V2000
   -7.8633   -0.6308  -24.9373 C   0  0  0  0  0  0  0  0  0  0  0  0
   -8.3877   -2.0413  -25.1100 C   0  0  0  0  0  0  0  0  0  0  0  0
   -8.3383   -2.8841  -23.8286 C   0  0  1  0  0  0  0  0  0  0  0  0
   -8.8951   -4.2631  -24.0851 C   0  0  0  0  0  0  0  0  0  0  0  0
  -10.2758   -4.5719  -24.2946 C   0  0  0  0  0  0  0  0  0  0  0  0
  -10.4767   -5.8939  -24.5541 C   0  0  0  0  0  0  0  0  0  0  0  0
   -8.9967   -6.7819  -24.5507 S   0  0  0  0  0  0  0  0  0  0  0  0
   -8.0876   -5.3551  -24.1814 C   0  0  0  0  0  0  0  0  0  0  0  0
   -6.6072   -5.3361  -23.9387 C   0  0  0  0  0  0  0  0  0  0  0  0
   -6.0939   -3.8950  -23.9608 C   0  0  0  0  0  0  0  0  0  0  0  0
   -6.9915   -2.9814  -23.2487 N   0  0  0  0  0  0  0  0  0  0  0  0
   -6.6852   -2.6710  -21.9318 C   0  0  0  0  0  0  0  0  0  0  0  0
   -5.8394   -3.2893  -21.3107 O   0  0  0  0  0  0  0  0  0  0  0  0
   -7.4051   -1.4672  -21.2754 C   0  0  0  0  0  0  0  0  0  0  0  0
   -6.5815   -0.8268  -20.1801 C   0  0  0  0  0  0  0  0  0  0  0  0
   -6.8718   -1.0458  -18.8577 C   0  0  0  0  0  0  0  0  0  0  0  0
   -6.1834   -0.5408  -17.7997 N   0  0  0  0  0  0  0  0  0  0  0  0
   -5.1554    0.2259  -18.0642 C   0  0  0  0  0  0  0  0  0  0  0  0
   -4.7201    0.5338  -19.3826 C   0  0  0  0  0  0  0  0  0  0  0  0
   -3.5906    1.3604  -19.6221 C   0  0  0  0  0  0  0  0  0  0  0  0
   -3.1926    1.6393  -20.9017 C   0  0  0  0  0  0  0  0  0  0  0  0
   -3.9099    1.1005  -21.9924 C   0  0  0  0  0  0  0  0  0  0  0  0
   -5.0041    0.2962  -21.7853 C   0  0  0  0  0  0  0  0  0  0  0  0
   -5.4470   -0.0073  -20.4705 C   0  0  0  0  0  0  0  0  0  0  0  0
   -5.5324   -0.1126  -22.6410 H   0  0  0  0  0  0  0  0  0  0  0  0
   -3.5861    1.3193  -23.0047 H   0  0  0  0  0  0  0  0  0  0  0  0
   -2.3327    2.2757  -21.0887 H   0  0  0  0  0  0  0  0  0  0  0  0
   -3.0549    1.7758  -18.7720 H   0  0  0  0  0  0  0  0  0  0  0  0
   -4.6001    0.6295  -17.2157 H   0  0  0  0  0  0  0  0  0  0  0  0
   -7.7199   -1.6713  -18.5851 H   0  0  0  0  0  0  0  0  0  0  0  0
   -7.6865   -0.7147  -22.0253 H   0  0  0  0  0  0  0  0  0  0  0  0
   -8.3431   -1.8358  -20.8396 H   0  0  0  0  0  0  0  0  0  0  0  0
   -6.0013   -3.5645  -25.0014 H   0  0  0  0  0  0  0  0  0  0  0  0
   -5.0979   -3.8285  -23.5202 H   0  0  0  0  0  0  0  0  0  0  0  0
   -6.3973   -5.7705  -22.9552 H   0  0  0  0  0  0  0  0  0  0  0  0
   -6.0681   -5.9546  -24.6679 H   0  0  0  0  0  0  0  0  0  0  0  0
  -11.4152   -6.4011  -24.7302 H   0  0  0  0  0  0  0  0  0  0  0  0
  -11.0777   -3.8381  -24.2526 H   0  0  0  0  0  0  0  0  0  0  0  0
   -8.9904   -2.4014  -23.0923 H   0  0  0  0  0  0  0  0  0  0  0  0
   -7.8388   -2.5689  -25.8935 H   0  0  0  0  0  0  0  0  0  0  0  0
   -9.4259   -2.0169  -25.4592 H   0  0  0  0  0  0  0  0  0  0  0  0
   -7.9250   -0.0751  -25.8751 H   0  0  0  0  0  0  0  0  0  0  0  0
   -6.8182   -0.6402  -24.6158 H   0  0  0  0  0  0  0  0  0  0  0  0
   -8.4461   -0.0851  -24.1891 H   0  0  0  0  0  0  0  0  0  0  0  0
  1  2  1  0
  2  3  1  0
  3  4  1  0
  4  5  1  0
  5  6  2  0
  6  7  1  0
  7  8  1  0
  8  9  1  0
  9 10  1  0
 10 11  1  0
 11 12  1  0
 12 13  2  0
 12 14  1  0
 14 15  1  0
 15 16  2  0
 16 17  1  0
 17 18  2  0
 18 19  1  0
 19 20  2  0
 20 21  1  0
 21 22  2  0
 22 23  1  0
 23 24  2  0
 23 25  1  0
 22 26  1  0
 21 27  1  0
 20 28  1  0
 18 29  1  0
 16 30  1  0
 14 31  1  0
 14 32  1  0
 10 33  1  0
 10 34  1  0
  9 35  1  0
  9 36  1  0
  6 37  1  0
  5 38  1  0
  3 39  1  1
  2 40  1  0
  2 41  1  0
  1 42  1  0
  1 43  1  0
  1 44  1  0
 11  3  1  0
 24 15  1  0
  8  4  2  0
 24 19  1  0
M  END
>  <cnnaffinities>  (64) 
[5.22499, 5.3974, 5.48845]

>  <score>  (64) 
5.22499

>  <index>  (64) 
66

>  <Smiles>  (64) 
C(C([C@]1(c2c(c(sc2C(C(N1C(=O)C(c1c(nc(c2c(c(c(c(c12)[H])[H])[H])[H])[H])[H])([H])[H])([H])[H])([H])[H])[H])[H])[H])([H])[H])([H])([H])[H]

>  <h>  (64) 
<NA>

>  <Training>  (64) 
True

>  <Success>  (64) 
True

>  <enamine_searched>  (64) 
False

>  <enamine_id>  (64) 
nan

$$$$

     RDKit          3D

 58 63  0  0  0  0  0  0  0  0999 V2000
   -5.7390    4.0650  -22.3611 C   0  0  0  0  0  0  0  0  0  0  0  0
   -6.8358    3.5315  -23.2245 C   0  0  0  0  0  0  0  0  0  0  0  0
   -6.7722    2.4137  -24.1002 C   0  0  0  0  0  0  0  0  0  0  0  0
   -8.0282    2.3128  -24.6051 C   0  0  0  0  0  0  0  0  0  0  0  0
   -8.6755    1.3036  -25.5072 C   0  0  0  0  0  0  0  0  0  0  0  0
   -9.3924    0.2866  -24.7580 N   0  0  0  0  0  0  0  0  0  0  0  0
   -8.7511   -0.9835  -24.4705 C   0  0  0  0  0  0  0  0  0  0  0  0
   -8.9629   -1.4511  -23.0127 C   0  0  2  0  0  0  0  0  0  0  0  0
   -8.2021   -0.5514  -22.0150 C   0  0  0  0  0  0  0  0  0  0  0  0
   -8.3231    0.6441  -21.8892 O   0  0  0  0  0  0  0  0  0  0  0  0
   -7.3685   -1.3385  -21.2504 N   0  0  0  0  0  0  0  0  0  0  0  0
   -6.5872   -0.8066  -20.2005 C   0  0  0  0  0  0  0  0  0  0  0  0
   -6.8878   -1.0691  -18.8866 C   0  0  0  0  0  0  0  0  0  0  0  0
   -6.2045   -0.5629  -17.8322 N   0  0  0  0  0  0  0  0  0  0  0  0
   -5.1792    0.2147  -18.0884 C   0  0  0  0  0  0  0  0  0  0  0  0
   -4.7376    0.5339  -19.4053 C   0  0  0  0  0  0  0  0  0  0  0  0
   -3.6059    1.3599  -19.6357 C   0  0  0  0  0  0  0  0  0  0  0  0
   -3.1892    1.6262  -20.9139 C   0  0  0  0  0  0  0  0  0  0  0  0
   -3.8880    1.0884  -22.0148 C   0  0  0  0  0  0  0  0  0  0  0  0
   -4.9872    0.2897  -21.8210 C   0  0  0  0  0  0  0  0  0  0  0  0
   -5.4491    0.0038  -20.5027 C   0  0  0  0  0  0  0  0  0  0  0  0
   -5.5073   -0.1335  -22.6736 H   0  0  0  0  0  0  0  0  0  0  0  0
   -3.5448    1.3036  -23.0255 H   0  0  0  0  0  0  0  0  0  0  0  0
   -2.3218    2.2568  -21.0863 H   0  0  0  0  0  0  0  0  0  0  0  0
   -3.0825    1.7700  -18.7787 H   0  0  0  0  0  0  0  0  0  0  0  0
   -4.6237    0.6202  -17.2406 H   0  0  0  0  0  0  0  0  0  0  0  0
   -7.7510   -1.6881  -18.6396 H   0  0  0  0  0  0  0  0  0  0  0  0
   -7.6412   -2.7485  -21.3868 C   0  0  0  0  0  0  0  0  0  0  0  0
   -8.3718   -2.8716  -22.7389 C   0  0  2  0  0  0  0  0  0  0  0  0
   -7.4657   -3.4602  -23.8227 C   0  0  0  0  0  0  0  0  0  0  0  0
   -7.1239   -4.4540  -23.5169 H   0  0  0  0  0  0  0  0  0  0  0  0
   -6.5823   -2.8416  -24.0058 H   0  0  0  0  0  0  0  0  0  0  0  0
   -8.0050   -3.5912  -24.7654 H   0  0  0  0  0  0  0  0  0  0  0  0
   -9.1949   -3.5836  -22.6536 H   0  0  0  0  0  0  0  0  0  0  0  0
   -8.2780   -3.0966  -20.5676 H   0  0  0  0  0  0  0  0  0  0  0  0
   -6.7069   -3.3155  -21.3555 H   0  0  0  0  0  0  0  0  0  0  0  0
  -10.4639   -1.3638  -22.7522 C   0  0  0  0  0  0  0  0  0  0  0  0
  -11.0845   -2.2337  -21.8514 C   0  0  0  0  0  0  0  0  0  0  0  0
  -12.4505   -2.1578  -21.6738 C   0  0  0  0  0  0  0  0  0  0  0  0
  -13.0440   -3.1203  -20.9455 F   0  0  0  0  0  0  0  0  0  0  0  0
  -13.2299   -1.1402  -22.2098 C   0  0  0  0  0  0  0  0  0  0  0  0
  -12.6066   -0.2280  -23.0441 C   0  0  0  0  0  0  0  0  0  0  0  0
  -11.2552   -0.3876  -23.3679 C   0  0  0  0  0  0  0  0  0  0  0  0
  -10.6765    0.5598  -24.3686 C   0  0  0  0  0  0  0  0  0  0  0  0
  -11.3155    1.5145  -24.7862 O   0  0  0  0  0  0  0  0  0  0  0  0
  -13.1423    0.6108  -23.4771 H   0  0  0  0  0  0  0  0  0  0  0  0
  -14.2820   -1.0710  -21.9458 H   0  0  0  0  0  0  0  0  0  0  0  0
  -10.5281   -2.9612  -21.2706 H   0  0  0  0  0  0  0  0  0  0  0  0
   -7.6858   -0.9006  -24.6973 H   0  0  0  0  0  0  0  0  0  0  0  0
   -9.1825   -1.7509  -25.1234 H   0  0  0  0  0  0  0  0  0  0  0  0
   -9.3966    1.7865  -26.1682 H   0  0  0  0  0  0  0  0  0  0  0  0
   -7.9127    0.8069  -26.1165 H   0  0  0  0  0  0  0  0  0  0  0  0
   -8.7888    3.2915  -24.0996 O   0  0  0  0  0  0  0  0  0  0  0  0
   -8.0346    4.0712  -23.2479 N   0  0  0  0  0  0  0  0  0  0  0  0
   -5.9295    1.7743  -24.2988 H   0  0  0  0  0  0  0  0  0  0  0  0
   -5.7015    3.5075  -21.4190 H   0  0  0  0  0  0  0  0  0  0  0  0
   -4.7674    3.9478  -22.8538 H   0  0  0  0  0  0  0  0  0  0  0  0
   -5.8899    5.1186  -22.1274 H   0  0  0  0  0  0  0  0  0  0  0  0
  1  2  1  0
  2  3  1  0
  3  4  2  0
  4  5  1  0
  5  6  1  0
  6  7  1  0
  8  7  1  6
  8  9  1  0
  9 10  2  0
  9 11  1  0
 11 12  1  0
 12 13  2  0
 13 14  1  0
 14 15  2  0
 15 16  1  0
 16 17  2  0
 17 18  1  0
 18 19  2  0
 19 20  1  0
 20 21  2  0
 20 22  1  0
 19 23  1  0
 18 24  1  0
 17 25  1  0
 15 26  1  0
 13 27  1  0
 11 28  1  0
 28 29  1  0
 29 30  1  0
 30 31  1  0
 30 32  1  0
 30 33  1  0
 29 34  1  1
 28 35  1  0
 28 36  1  0
  8 37  1  0
 37 38  2  0
 38 39  1  0
 39 40  1  0
 39 41  2  0
 41 42  1  0
 42 43  2  0
 43 44  1  0
 44 45  2  0
 42 46  1  0
 41 47  1  0
 38 48  1  0
  7 49  1  0
  7 50  1  0
  5 51  1  0
  5 52  1  0
  4 53  1  0
 53 54  1  0
  3 55  1  0
  1 56  1  0
  1 57  1  0
  1 58  1  0
 54  2  2  0
 44  6  1  0
 29  8  1  0
 43 37  1  0
 21 12  1  0
 21 16  1  0
M  END
>  <cnnaffinities>  (65) 
[6.35868, 6.37147, 6.77295]

>  <score>  (65) 
6.35868

>  <index>  (65) 
67

>  <Smiles>  (65) 
C(c1c(c(C(N2C([C@@]3(C(=O)N(c4c(nc(c5c(c(c(c(c45)[H])[H])[H])[H])[H])[H])C([C@@]3(C([H])([H])[H])[H])([H])[H])c3c(c(F)c(c(c3C2=O)[H])[H])[H])([H])[H])([H])[H])on1)[H])([H])([H])[H]

>  <h>  (65) 
<NA>

>  <Training>  (65) 
True

>  <Success>  (65) 
True

>  <enamine_searched>  (65) 
False

>  <enamine_id>  (65) 
nan

$$$$

     RDKit          3D

 65 70  0  0  0  0  0  0  0  0999 V2000
   -9.2348    0.0755  -20.8364 O   0  0  0  0  0  0  0  0  0  0  0  0
   -8.4716   -0.3527  -21.6878 C   0  0  0  0  0  0  0  0  0  0  0  0
   -7.4462   -1.4136  -21.2769 C   0  0  0  0  0  0  0  0  0  0  0  0
   -6.5627   -0.8491  -20.1837 C   0  0  0  0  0  0  0  0  0  0  0  0
   -6.8825   -1.0454  -18.8647 C   0  0  0  0  0  0  0  0  0  0  0  0
   -6.1983   -0.5357  -17.8092 N   0  0  0  0  0  0  0  0  0  0  0  0
   -5.1651    0.2201  -18.0760 C   0  0  0  0  0  0  0  0  0  0  0  0
   -4.7199    0.5259  -19.3909 C   0  0  0  0  0  0  0  0  0  0  0  0
   -3.5982    1.3619  -19.6268 C   0  0  0  0  0  0  0  0  0  0  0  0
   -3.1990    1.6449  -20.9021 C   0  0  0  0  0  0  0  0  0  0  0  0
   -3.9098    1.1108  -21.9981 C   0  0  0  0  0  0  0  0  0  0  0  0
   -5.0037    0.3000  -21.7946 C   0  0  0  0  0  0  0  0  0  0  0  0
   -5.4418   -0.0185  -20.4820 C   0  0  0  0  0  0  0  0  0  0  0  0
   -5.5441   -0.0698  -22.6607 H   0  0  0  0  0  0  0  0  0  0  0  0
   -3.5877    1.3356  -23.0104 H   0  0  0  0  0  0  0  0  0  0  0  0
   -2.3415    2.2874  -21.0818 H   0  0  0  0  0  0  0  0  0  0  0  0
   -3.0767    1.7771  -18.7677 H   0  0  0  0  0  0  0  0  0  0  0  0
   -4.6164    0.6339  -17.2271 H   0  0  0  0  0  0  0  0  0  0  0  0
   -7.7514   -1.6494  -18.6062 H   0  0  0  0  0  0  0  0  0  0  0  0
   -6.8470   -1.7579  -22.1221 H   0  0  0  0  0  0  0  0  0  0  0  0
   -8.0128   -2.2655  -20.8782 H   0  0  0  0  0  0  0  0  0  0  0  0
   -8.4454    0.1518  -22.9807 N   0  0  0  0  0  0  0  0  0  0  0  0
   -8.2399   -0.7007  -24.1538 C   0  0  0  0  0  0  0  0  0  0  0  0
   -9.3624   -1.7086  -24.3365 C   0  0  0  0  0  0  0  0  0  0  0  0
   -9.2153   -3.0107  -23.8593 C   0  0  0  0  0  0  0  0  0  0  0  0
  -10.2644   -3.9207  -23.9409 C   0  0  0  0  0  0  0  0  0  0  0  0
  -11.4857   -3.5369  -24.4747 C   0  0  0  0  0  0  0  0  0  0  0  0
  -11.6348   -2.2374  -24.9415 C   0  0  0  0  0  0  0  0  0  0  0  0
  -13.2002   -1.7499  -25.5311 Cl  0  0  0  0  0  0  0  0  0  0  0  0
  -10.5812   -1.3292  -24.9076 C   0  0  0  0  0  0  0  0  0  0  0  0
  -10.7349   -0.3386  -25.3348 H   0  0  0  0  0  0  0  0  0  0  0  0
  -12.3166   -4.2325  -24.5333 H   0  0  0  0  0  0  0  0  0  0  0  0
  -10.1367   -4.9378  -23.5793 H   0  0  0  0  0  0  0  0  0  0  0  0
   -8.2710   -3.3274  -23.4204 H   0  0  0  0  0  0  0  0  0  0  0  0
   -8.1723   -0.0582  -25.0345 H   0  0  0  0  0  0  0  0  0  0  0  0
   -7.2798   -1.2254  -24.0660 H   0  0  0  0  0  0  0  0  0  0  0  0
   -8.8300    1.5536  -23.1138 C   0  0  2  0  0  0  0  0  0  0  0  0
  -10.3042    1.9157  -22.8104 C   0  0  0  0  0  0  0  0  0  0  0  0
  -10.4513    3.3211  -23.4433 C   0  0  0  0  0  0  0  0  0  0  0  0
   -9.0666    3.5898  -24.0229 C   0  0  2  0  0  0  0  0  0  0  0  0
   -8.6195    2.2096  -24.4886 C   0  0  0  0  0  0  0  0  0  0  0  0
   -7.5708    2.1695  -24.8106 H   0  0  0  0  0  0  0  0  0  0  0  0
   -9.2759    1.8095  -25.2695 H   0  0  0  0  0  0  0  0  0  0  0  0
   -8.1043    3.8432  -22.8372 N   0  0  2  0  0  4  0  0  0  0  0  0
   -6.8264    4.4531  -23.3152 C   0  0  0  0  0  0  0  0  0  0  0  0
   -6.9499    5.9532  -23.2345 C   0  0  0  0  0  0  0  0  0  0  0  0
   -5.7695    6.8723  -23.5261 C   0  0  0  0  0  0  0  0  0  0  0  0
   -6.0000    7.6001  -22.3034 O   0  0  0  0  0  0  0  0  0  0  0  0
   -6.8164    6.5185  -21.8232 C   0  0  0  0  0  0  0  0  0  0  0  0
   -6.2332    5.8466  -21.1743 H   0  0  0  0  0  0  0  0  0  0  0  0
   -7.7416    6.8102  -21.3152 H   0  0  0  0  0  0  0  0  0  0  0  0
   -5.8378    7.5314  -24.3966 H   0  0  0  0  0  0  0  0  0  0  0  0
   -4.8093    6.3309  -23.5056 H   0  0  0  0  0  0  0  0  0  0  0  0
   -7.8747    6.3062  -23.6910 H   0  0  0  0  0  0  0  0  0  0  0  0
   -6.6044    4.0920  -24.3202 H   0  0  0  0  0  0  0  0  0  0  0  0
   -5.9911    4.1372  -22.6858 H   0  0  0  0  0  0  0  0  0  0  0  0
   -7.9684    2.4764  -22.2120 C   0  0  0  0  0  0  0  0  0  0  0  0
   -8.3409    2.5093  -21.1873 H   0  0  0  0  0  0  0  0  0  0  0  0
   -6.9202    2.1708  -22.1940 H   0  0  0  0  0  0  0  0  0  0  0  0
   -8.5037    4.5005  -22.1486 H   0  0  0  0  0  0  0  0  0  0  0  0
   -9.0123    4.4057  -24.7386 H   0  0  0  0  0  0  0  0  0  0  0  0
  -10.7389    4.0935  -22.7229 H   0  0  0  0  0  0  0  0  0  0  0  0
  -11.1921    3.3161  -24.2466 H   0  0  0  0  0  0  0  0  0  0  0  0
  -10.5052    1.9092  -21.7395 H   0  0  0  0  0  0  0  0  0  0  0  0
  -10.9598    1.1830  -23.2910 H   0  0  0  0  0  0  0  0  0  0  0  0
  1  2  2  0
  2  3  1  0
  3  4  1  0
  4  5  2  0
  5  6  1  0
  6  7  2  0
  7  8  1  0
  8  9  2  0
  9 10  1  0
 10 11  2  0
 11 12  1  0
 12 13  2  0
 12 14  1  0
 11 15  1  0
 10 16  1  0
  9 17  1  0
  7 18  1  0
  5 19  1  0
  3 20  1  0
  3 21  1  0
  2 22  1  0
 22 23  1  0
 23 24  1  0
 24 25  2  0
 25 26  1  0
 26 27  2  0
 27 28  1  0
 28 29  1  0
 28 30  2  0
 30 31  1  0
 27 32  1  0
 26 33  1  0
 25 34  1  0
 23 35  1  0
 23 36  1  0
 37 22  1  6
 37 38  1  0
 38 39  1  0
 39 40  1  0
 40 41  1  0
 41 42  1  0
 41 43  1  0
 40 44  1  0
 44 45  1  0
 45 46  1  0
 46 47  1  0
 47 48  1  0
 48 49  1  0
 49 50  1  0
 49 51  1  0
 47 52  1  0
 47 53  1  0
 46 54  1  0
 45 55  1  0
 45 56  1  0
 44 57  1  0
 57 58  1  0
 57 59  1  0
 44 60  1  1
 40 61  1  6
 39 62  1  0
 39 63  1  0
 38 64  1  0
 38 65  1  0
 13  4  1  0
 30 24  1  0
 41 37  1  0
 49 46  1  0
 13  8  1  0
 57 37  1  0
M  CHG  1  44   1
M  END
>  <cnnaffinities>  (66) 
[6.05722, 5.83758, 6.06706]

>  <score>  (66) 
6.05722

>  <index>  (66) 
68

>  <Smiles>  (66) 
O=C(C(c1c(nc(c2c(c(c(c(c12)[H])[H])[H])[H])[H])[H])([H])[H])N(C(c1c(c(c(c(Cl)c1[H])[H])[H])[H])([H])[H])[C@]12C(C([C@](C1([H])[H])([N@+](C(C1(C(OC1([H])[H])([H])[H])[H])([H])[H])(C2([H])[H])[H])[H])([H])[H])([H])[H]

>  <h>  (66) 
<NA>

>  <Training>  (66) 
True

>  <Success>  (66) 
True

>  <enamine_searched>  (66) 
False

>  <enamine_id>  (66) 
nan

$$$$

     RDKit          3D

 63 67  0  0  0  0  0  0  0  0999 V2000
  -10.6742   -5.9953  -28.2264 C   0  0  0  0  0  0  0  0  0  0  0  0
  -10.3063   -5.4719  -27.0608 C   0  0  0  0  0  0  0  0  0  0  0  0
   -9.9978   -4.0166  -27.0128 C   0  0  0  0  0  0  0  0  0  0  0  0
   -9.8110   -3.3907  -28.0434 O   0  0  0  0  0  0  0  0  0  0  0  0
   -9.9575   -3.4282  -25.7543 N   0  0  0  0  0  0  0  0  0  0  0  0
  -10.7273   -3.9990  -24.6469 C   0  0  0  0  0  0  0  0  0  0  0  0
  -11.4390   -2.8865  -23.9076 C   0  0  0  0  0  0  0  0  0  0  0  0
  -10.3799   -1.9869  -23.2997 C   0  0  0  0  0  0  0  0  0  0  0  0
   -9.3274   -1.5618  -24.3105 C   0  0  0  0  0  0  0  0  0  0  0  0
   -9.1473   -2.2887  -25.5095 C   0  0  0  0  0  0  0  0  0  0  0  0
   -8.1298   -1.9284  -26.4112 C   0  0  0  0  0  0  0  0  0  0  0  0
   -7.2836   -0.8707  -26.1358 C   0  0  0  0  0  0  0  0  0  0  0  0
   -7.4430   -0.1475  -24.9601 C   0  0  0  0  0  0  0  0  0  0  0  0
   -8.4476   -0.5085  -24.0718 C   0  0  0  0  0  0  0  0  0  0  0  0
   -8.5530    0.3831  -22.7907 N   0  0  1  0  0  4  0  0  0  0  0  0
   -9.6896    1.4534  -22.8886 C   0  0  0  0  0  0  0  0  0  0  0  0
   -9.4217    2.3529  -24.0533 C   0  0  0  0  0  0  0  0  0  0  0  0
  -10.0922    2.1708  -25.2628 C   0  0  0  0  0  0  0  0  0  0  0  0
   -9.8342    3.0069  -26.3403 C   0  0  0  0  0  0  0  0  0  0  0  0
   -8.9058    4.0353  -26.2222 C   0  0  0  0  0  0  0  0  0  0  0  0
   -8.2384    4.2072  -25.0151 C   0  0  0  0  0  0  0  0  0  0  0  0
   -7.0796    5.4966  -24.8541 Cl  0  0  0  0  0  0  0  0  0  0  0  0
   -8.4774    3.3734  -23.9325 C   0  0  0  0  0  0  0  0  0  0  0  0
   -7.9397    3.5182  -22.9957 H   0  0  0  0  0  0  0  0  0  0  0  0
   -8.6987    4.6953  -27.0574 H   0  0  0  0  0  0  0  0  0  0  0  0
  -10.3584    2.8539  -27.2791 H   0  0  0  0  0  0  0  0  0  0  0  0
  -10.8009    1.3486  -25.3480 H   0  0  0  0  0  0  0  0  0  0  0  0
   -9.7060    1.9974  -21.9425 H   0  0  0  0  0  0  0  0  0  0  0  0
  -10.6355    0.9211  -23.0095 H   0  0  0  0  0  0  0  0  0  0  0  0
   -8.5697   -0.2967  -21.5135 C   0  0  0  0  0  0  0  0  0  0  0  0
   -9.4329   -0.0323  -20.7111 O   0  0  0  0  0  0  0  0  0  0  0  0
   -7.4689   -1.3229  -21.2592 C   0  0  0  0  0  0  0  0  0  0  0  0
   -6.5534   -0.8187  -20.1717 C   0  0  0  0  0  0  0  0  0  0  0  0
   -6.8603   -1.0411  -18.8564 C   0  0  0  0  0  0  0  0  0  0  0  0
   -6.1707   -0.5416  -17.8000 N   0  0  0  0  0  0  0  0  0  0  0  0
   -5.1466    0.2299  -18.0641 C   0  0  0  0  0  0  0  0  0  0  0  0
   -4.7056    0.5436  -19.3772 C   0  0  0  0  0  0  0  0  0  0  0  0
   -3.5928    1.3908  -19.6134 C   0  0  0  0  0  0  0  0  0  0  0  0
   -3.1995    1.6778  -20.8911 C   0  0  0  0  0  0  0  0  0  0  0  0
   -3.8996    1.1258  -21.9872 C   0  0  0  0  0  0  0  0  0  0  0  0
   -4.9779    0.2998  -21.7832 C   0  0  0  0  0  0  0  0  0  0  0  0
   -5.4224   -0.0042  -20.4694 C   0  0  0  0  0  0  0  0  0  0  0  0
   -5.4819   -0.1319  -22.6466 H   0  0  0  0  0  0  0  0  0  0  0  0
   -3.5764    1.3509  -23.0000 H   0  0  0  0  0  0  0  0  0  0  0  0
   -2.3547    2.3352  -21.0733 H   0  0  0  0  0  0  0  0  0  0  0  0
   -3.0731    1.8161  -18.7579 H   0  0  0  0  0  0  0  0  0  0  0  0
   -4.5989    0.6348  -17.2107 H   0  0  0  0  0  0  0  0  0  0  0  0
   -7.7281   -1.6471  -18.5957 H   0  0  0  0  0  0  0  0  0  0  0  0
   -6.9392   -1.5527  -22.1871 H   0  0  0  0  0  0  0  0  0  0  0  0
   -7.9749   -2.2377  -20.9247 H   0  0  0  0  0  0  0  0  0  0  0  0
   -7.6560    0.9351  -22.8364 H   0  0  0  0  0  0  0  0  0  0  0  0
   -6.8065    0.7108  -24.7566 H   0  0  0  0  0  0  0  0  0  0  0  0
   -6.4928   -0.6065  -26.8395 H   0  0  0  0  0  0  0  0  0  0  0  0
   -8.0050   -2.4904  -27.3262 H   0  0  0  0  0  0  0  0  0  0  0  0
  -10.8400   -1.1222  -22.8122 H   0  0  0  0  0  0  0  0  0  0  0  0
   -9.8666   -2.5542  -22.5101 H   0  0  0  0  0  0  0  0  0  0  0  0
  -12.0694   -2.3259  -24.6027 H   0  0  0  0  0  0  0  0  0  0  0  0
  -12.0954   -3.3086  -23.1393 H   0  0  0  0  0  0  0  0  0  0  0  0
  -11.4435   -4.7141  -25.0476 H   0  0  0  0  0  0  0  0  0  0  0  0
  -10.0731   -4.5467  -23.9526 H   0  0  0  0  0  0  0  0  0  0  0  0
  -10.2247   -6.0717  -26.1615 H   0  0  0  0  0  0  0  0  0  0  0  0
  -10.6258   -5.3677  -29.1096 H   0  0  0  0  0  0  0  0  0  0  0  0
  -10.9891   -7.0268  -28.3293 H   0  0  0  0  0  0  0  0  0  0  0  0
  1  2  2  0
  2  3  1  0
  3  4  2  0
  3  5  1  0
  5  6  1  0
  6  7  1  0
  7  8  1  0
  8  9  1  0
  9 10  2  0
 10 11  1  0
 11 12  2  0
 12 13  1  0
 13 14  2  0
 14 15  1  0
 15 16  1  0
 16 17  1  0
 17 18  2  0
 18 19  1  0
 19 20  2  0
 20 21  1  0
 21 22  1  0
 21 23  2  0
 23 24  1  0
 20 25  1  0
 19 26  1  0
 18 27  1  0
 16 28  1  0
 16 29  1  0
 15 30  1  0
 30 31  2  0
 30 32  1  0
 32 33  1  0
 33 34  2  0
 34 35  1  0
 35 36  2  0
 36 37  1  0
 37 38  2  0
 38 39  1  0
 39 40  2  0
 40 41  1  0
 41 42  2  0
 41 43  1  0
 40 44  1  0
 39 45  1  0
 38 46  1  0
 36 47  1  0
 34 48  1  0
 32 49  1  0
 32 50  1  0
 15 51  1  1
 13 52  1  0
 12 53  1  0
 11 54  1  0
  8 55  1  0
  8 56  1  0
  7 57  1  0
  7 58  1  0
  6 59  1  0
  6 60  1  0
  2 61  1  0
  1 62  1  0
  1 63  1  0
 10  5  1  0
 23 17  1  0
 42 33  1  0
 14  9  1  0
 42 37  1  0
M  CHG  1  15   1
M  END
>  <cnnaffinities>  (67) 
[6.63339]

>  <score>  (67) 
6.63339

>  <index>  (67) 
69

>  <Smiles>  (67) 
C(=C(C(=O)N1C(C(C(c2c1c(c(c(c2[N@@+](C(c1c(c(c(c(Cl)c1[H])[H])[H])[H])([H])[H])(C(=O)C(c1c(nc(c2c(c(c(c(c12)[H])[H])[H])[H])[H])[H])([H])[H])[H])[H])[H])[H])([H])[H])([H])[H])([H])[H])[H])([H])[H]

>  <h>  (67) 
<NA>

>  <Training>  (67) 
True

>  <Success>  (67) 
True

>  <enamine_searched>  (67) 
False

>  <enamine_id>  (67) 
nan

$$$$

     RDKit          3D

 52 54  0  0  0  0  0  0  0  0999 V2000
  -14.8171   -2.6936  -24.5272 C   0  0  0  0  0  0  0  0  0  0  0  0
  -13.6744   -1.6727  -24.5884 C   0  0  0  0  0  0  0  0  0  0  0  0
  -14.0502   -0.4123  -23.7954 C   0  0  0  0  0  0  0  0  0  0  0  0
  -14.5368   -0.6477  -22.8340 H   0  0  0  0  0  0  0  0  0  0  0  0
  -14.7726    0.1765  -24.3589 H   0  0  0  0  0  0  0  0  0  0  0  0
  -13.1893    0.2391  -23.6145 H   0  0  0  0  0  0  0  0  0  0  0  0
  -12.2960   -2.3050  -24.3046 C   0  0  0  0  0  0  0  0  0  0  0  0
  -11.7879   -2.5287  -22.8633 C   0  0  0  0  0  0  0  0  0  0  0  0
  -12.7427   -3.4017  -22.0356 C   0  0  0  0  0  0  0  0  0  0  0  0
  -13.6872   -2.8954  -21.8129 H   0  0  0  0  0  0  0  0  0  0  0  0
  -12.9853   -4.3443  -22.5396 H   0  0  0  0  0  0  0  0  0  0  0  0
  -12.2834   -3.6479  -21.0713 H   0  0  0  0  0  0  0  0  0  0  0  0
  -11.5427   -1.2088  -22.1128 C   0  0  0  0  0  0  0  0  0  0  0  0
  -10.4907   -0.3390  -22.8069 C   0  0  0  0  0  0  0  0  0  0  0  0
   -9.2208   -1.0497  -22.7119 N   0  0  0  0  0  0  0  0  0  0  0  0
   -8.5340   -0.8085  -21.5471 C   0  0  0  0  0  0  0  0  0  0  0  0
   -8.9053    0.0441  -20.7622 O   0  0  0  0  0  0  0  0  0  0  0  0
   -7.2957   -1.6529  -21.2559 C   0  0  0  0  0  0  0  0  0  0  0  0
   -6.4869   -1.0119  -20.1788 C   0  0  0  0  0  0  0  0  0  0  0  0
   -6.8314   -1.2038  -18.8675 C   0  0  0  0  0  0  0  0  0  0  0  0
   -6.2108   -0.6307  -17.8088 N   0  0  0  0  0  0  0  0  0  0  0  0
   -5.2164    0.1831  -18.0665 C   0  0  0  0  0  0  0  0  0  0  0  0
   -4.7588    0.4809  -19.3786 C   0  0  0  0  0  0  0  0  0  0  0  0
   -3.6660    1.3530  -19.6141 C   0  0  0  0  0  0  0  0  0  0  0  0
   -3.2811    1.6559  -20.8917 C   0  0  0  0  0  0  0  0  0  0  0  0
   -3.9886    1.1167  -21.9919 C   0  0  0  0  0  0  0  0  0  0  0  0
   -5.0461    0.2640  -21.7925 C   0  0  0  0  0  0  0  0  0  0  0  0
   -5.4384   -0.0988  -20.4761 C   0  0  0  0  0  0  0  0  0  0  0  0
   -5.5949   -0.1164  -22.6496 H   0  0  0  0  0  0  0  0  0  0  0  0
   -3.6863    1.3715  -23.0048 H   0  0  0  0  0  0  0  0  0  0  0  0
   -2.4447    2.3254  -21.0726 H   0  0  0  0  0  0  0  0  0  0  0  0
   -3.1489    1.7760  -18.7563 H   0  0  0  0  0  0  0  0  0  0  0  0
   -4.7178    0.6478  -17.2132 H   0  0  0  0  0  0  0  0  0  0  0  0
   -7.6770   -1.8420  -18.6163 H   0  0  0  0  0  0  0  0  0  0  0  0
   -6.7260   -1.8077  -22.1754 H   0  0  0  0  0  0  0  0  0  0  0  0
   -7.6472   -2.6364  -20.9161 H   0  0  0  0  0  0  0  0  0  0  0  0
   -9.2600   -2.3350  -23.4051 C   0  0  0  0  0  0  0  0  0  0  0  0
  -10.4117   -3.2473  -22.9371 C   0  0  0  0  0  0  0  0  0  0  0  0
  -10.4694   -4.1031  -23.6203 H   0  0  0  0  0  0  0  0  0  0  0  0
  -10.1821   -3.6530  -21.9417 H   0  0  0  0  0  0  0  0  0  0  0  0
   -9.4045   -2.1229  -24.4732 H   0  0  0  0  0  0  0  0  0  0  0  0
   -8.2875   -2.8266  -23.2976 H   0  0  0  0  0  0  0  0  0  0  0  0
  -10.7029   -0.1687  -23.8703 H   0  0  0  0  0  0  0  0  0  0  0  0
  -10.3626    0.6273  -22.3170 H   0  0  0  0  0  0  0  0  0  0  0  0
  -12.4763   -0.6705  -21.9357 H   0  0  0  0  0  0  0  0  0  0  0  0
  -11.1178   -1.4694  -21.1336 H   0  0  0  0  0  0  0  0  0  0  0  0
  -12.2826   -3.2827  -24.8069 H   0  0  0  0  0  0  0  0  0  0  0  0
  -11.5368   -1.7257  -24.8427 H   0  0  0  0  0  0  0  0  0  0  0  0
  -13.5669   -1.3681  -25.6349 H   0  0  0  0  0  0  0  0  0  0  0  0
  -14.4478   -3.7002  -24.7477 H   0  0  0  0  0  0  0  0  0  0  0  0
  -15.5952   -2.4576  -25.2583 H   0  0  0  0  0  0  0  0  0  0  0  0
  -15.2971   -2.7072  -23.5414 H   0  0  0  0  0  0  0  0  0  0  0  0
  1  2  1  0
  2  3  1  0
  3  4  1  0
  3  5  1  0
  3  6  1  0
  2  7  1  0
  7  8  1  0
  8  9  1  0
  9 10  1  0
  9 11  1  0
  9 12  1  0
  8 13  1  0
 13 14  1  0
 14 15  1  0
 15 16  1  0
 16 17  2  0
 16 18  1  0
 18 19  1  0
 19 20  2  0
 20 21  1  0
 21 22  2  0
 22 23  1  0
 23 24  2  0
 24 25  1  0
 25 26  2  0
 26 27  1  0
 27 28  2  0
 27 29  1  0
 26 30  1  0
 25 31  1  0
 24 32  1  0
 22 33  1  0
 20 34  1  0
 18 35  1  0
 18 36  1  0
 15 37  1  0
 37 38  1  0
 38 39  1  0
 38 40  1  0
 37 41  1  0
 37 42  1  0
 14 43  1  0
 14 44  1  0
 13 45  1  0
 13 46  1  0
  7 47  1  0
  7 48  1  0
  2 49  1  0
  1 50  1  0
  1 51  1  0
  1 52  1  0
 38  8  1  0
 28 19  1  0
 28 23  1  0
M  END
>  <cnnaffinities>  (68) 
[5.80458, 5.62101, 5.61501, 5.45919, 5.45891, 4.70508, 4.60159, 4.60069, 4.70262, 4.661]

>  <score>  (68) 
5.80458

>  <index>  (68) 
70

>  <Smiles>  (68) 
C(C(C([H])([H])[H])(C(C1(C([H])([H])[H])C(C(N(C(=O)C(c2c(nc(c3c(c(c(c(c23)[H])[H])[H])[H])[H])[H])([H])[H])C(C1([H])[H])([H])[H])([H])[H])([H])[H])([H])[H])[H])([H])([H])[H]

>  <h>  (68) 
<NA>

>  <Training>  (68) 
True

>  <Success>  (68) 
True

>  <enamine_searched>  (68) 
False

>  <enamine_id>  (68) 
nan

$$$$

     RDKit          3D

 50 54  0  0  0  0  0  0  0  0999 V2000
  -10.4547   -1.1644  -23.2687 C   0  0  0  0  0  0  0  0  0  0  0  0
   -9.0056   -1.4961  -22.9393 C   0  0  1  0  0  0  0  0  0  0  0  0
   -8.3893   -0.5333  -21.9136 C   0  0  0  0  0  0  0  0  0  0  0  0
   -7.3979   -1.3426  -21.2309 N   0  0  0  0  0  0  0  0  0  0  0  0
   -6.5839   -0.8411  -20.1903 C   0  0  0  0  0  0  0  0  0  0  0  0
   -6.8897   -1.0918  -18.8787 C   0  0  0  0  0  0  0  0  0  0  0  0
   -6.2111   -0.5686  -17.8271 N   0  0  0  0  0  0  0  0  0  0  0  0
   -5.1923    0.2111  -18.0873 C   0  0  0  0  0  0  0  0  0  0  0  0
   -4.7498    0.5245  -19.4050 C   0  0  0  0  0  0  0  0  0  0  0  0
   -3.6223    1.3506  -19.6413 C   0  0  0  0  0  0  0  0  0  0  0  0
   -3.2189    1.6196  -20.9181 C   0  0  0  0  0  0  0  0  0  0  0  0
   -3.9215    1.0797  -22.0171 C   0  0  0  0  0  0  0  0  0  0  0  0
   -5.0162    0.2753  -21.8180 C   0  0  0  0  0  0  0  0  0  0  0  0
   -5.4623   -0.0138  -20.5001 C   0  0  0  0  0  0  0  0  0  0  0  0
   -5.5373   -0.1548  -22.6687 H   0  0  0  0  0  0  0  0  0  0  0  0
   -3.5904    1.2988  -23.0277 H   0  0  0  0  0  0  0  0  0  0  0  0
   -2.3616    2.2585  -21.0966 H   0  0  0  0  0  0  0  0  0  0  0  0
   -3.1056    1.7666  -18.7806 H   0  0  0  0  0  0  0  0  0  0  0  0
   -4.6487    0.6381  -17.2393 H   0  0  0  0  0  0  0  0  0  0  0  0
   -7.7276   -1.7360  -18.6265 H   0  0  0  0  0  0  0  0  0  0  0  0
   -7.5408   -2.6942  -21.4464 C   0  0  0  0  0  0  0  0  0  0  0  0
   -6.7814   -3.5449  -21.0247 O   0  0  0  0  0  0  0  0  0  0  0  0
   -8.7774   -2.9234  -22.3318 C   0  0  1  0  0  0  0  0  0  0  0  0
   -9.9623   -3.3776  -21.4516 C   0  0  0  0  0  0  0  0  0  0  0  0
  -11.1019   -3.8317  -22.2341 N   0  0  0  0  0  0  0  0  0  0  0  0
  -12.4636   -3.6359  -21.7867 C   0  0  0  0  0  0  0  0  0  0  0  0
  -13.3259   -2.7967  -22.6462 C   0  0  0  0  0  0  0  0  0  0  0  0
  -14.1122   -2.1897  -23.2374 N   0  0  0  0  0  0  0  0  0  0  0  0
  -12.4690   -3.2007  -20.7885 H   0  0  0  0  0  0  0  0  0  0  0  0
  -12.9625   -4.6027  -21.7595 H   0  0  0  0  0  0  0  0  0  0  0  0
  -10.9577   -4.6098  -23.3501 C   0  0  0  0  0  0  0  0  0  0  0  0
  -11.9338   -5.0442  -23.9462 O   0  0  0  0  0  0  0  0  0  0  0  0
   -9.5579   -4.8241  -23.8176 C   0  0  0  0  0  0  0  0  0  0  0  0
   -9.3121   -5.8098  -24.7706 C   0  0  0  0  0  0  0  0  0  0  0  0
   -8.0623   -5.9452  -25.3386 C   0  0  0  0  0  0  0  0  0  0  0  0
   -7.0681   -5.0790  -24.9098 C   0  0  0  0  0  0  0  0  0  0  0  0
   -5.8680   -5.1572  -25.4951 F   0  0  0  0  0  0  0  0  0  0  0  0
   -7.2631   -4.1271  -23.9336 C   0  0  0  0  0  0  0  0  0  0  0  0
   -8.5273   -3.9941  -23.3644 C   0  0  0  0  0  0  0  0  0  0  0  0
   -6.4411   -3.4957  -23.6191 H   0  0  0  0  0  0  0  0  0  0  0  0
   -7.8531   -6.6742  -26.1123 H   0  0  0  0  0  0  0  0  0  0  0  0
  -10.1316   -6.4595  -25.0483 H   0  0  0  0  0  0  0  0  0  0  0  0
   -9.6158   -4.1618  -20.7767 H   0  0  0  0  0  0  0  0  0  0  0  0
  -10.2790   -2.5244  -20.8508 H   0  0  0  0  0  0  0  0  0  0  0  0
   -9.1489   -0.1655  -21.2093 H   0  0  0  0  0  0  0  0  0  0  0  0
   -7.9312    0.3407  -22.3872 H   0  0  0  0  0  0  0  0  0  0  0  0
   -8.4008   -1.4583  -23.8561 H   0  0  0  0  0  0  0  0  0  0  0  0
  -10.5370   -0.1879  -23.7467 H   0  0  0  0  0  0  0  0  0  0  0  0
  -11.0480   -1.1470  -22.3497 H   0  0  0  0  0  0  0  0  0  0  0  0
  -10.8851   -1.9250  -23.9249 H   0  0  0  0  0  0  0  0  0  0  0  0
  1  2  1  0
  2  3  1  0
  3  4  1  0
  4  5  1  0
  5  6  2  0
  6  7  1  0
  7  8  2  0
  8  9  1  0
  9 10  2  0
 10 11  1  0
 11 12  2  0
 12 13  1  0
 13 14  2  0
 13 15  1  0
 12 16  1  0
 11 17  1  0
 10 18  1  0
  8 19  1  0
  6 20  1  0
  4 21  1  0
 21 22  2  0
 21 23  1  0
 23 24  1  1
 24 25  1  0
 25 26  1  0
 26 27  1  0
 27 28  3  0
 26 29  1  0
 26 30  1  0
 25 31  1  0
 31 32  2  0
 31 33  1  0
 33 34  2  0
 34 35  1  0
 35 36  2  0
 36 37  1  0
 36 38  1  0
 38 39  2  0
 38 40  1  0
 35 41  1  0
 34 42  1  0
 24 43  1  0
 24 44  1  0
  3 45  1  0
  3 46  1  0
  2 47  1  6
  1 48  1  0
  1 49  1  0
  1 50  1  0
 23  2  1  0
 39 33  1  0
 14  5  1  0
 39 23  1  0
 14  9  1  0
M  END
>  <cnnaffinities>  (69) 
[6.4799]

>  <score>  (69) 
6.4799

>  <index>  (69) 
71

>  <Smiles>  (69) 
C([C@]1(C(N(c2c(nc(c3c(c(c(c(c23)[H])[H])[H])[H])[H])[H])C(=O)[C@]21C(N(C(C#N)([H])[H])C(=O)c1c(c(c(F)c(c21)[H])[H])[H])([H])[H])([H])[H])[H])([H])([H])[H]

>  <h>  (69) 
<NA>

>  <Training>  (69) 
True

>  <Success>  (69) 
True

>  <enamine_searched>  (69) 
False

>  <enamine_id>  (69) 
nan

$$$$

     RDKit          3D

 41 44  0  0  0  0  0  0  0  0999 V2000
   -8.4858    0.7240  -21.4269 O   0  0  0  0  0  0  0  0  0  0  0  0
   -8.3530   -0.3891  -21.9056 C   0  0  0  0  0  0  0  0  0  0  0  0
   -7.4249   -1.4200  -21.2678 C   0  0  0  0  0  0  0  0  0  0  0  0
   -6.5770   -0.8351  -20.1806 C   0  0  0  0  0  0  0  0  0  0  0  0
   -6.8904   -1.0447  -18.8670 C   0  0  0  0  0  0  0  0  0  0  0  0
   -6.2106   -0.5410  -17.8058 N   0  0  0  0  0  0  0  0  0  0  0  0
   -5.1744    0.2176  -18.0731 C   0  0  0  0  0  0  0  0  0  0  0  0
   -4.7381    0.5332  -19.3882 C   0  0  0  0  0  0  0  0  0  0  0  0
   -3.6131    1.3631  -19.6231 C   0  0  0  0  0  0  0  0  0  0  0  0
   -3.2202    1.6542  -20.9024 C   0  0  0  0  0  0  0  0  0  0  0  0
   -3.9385    1.1279  -22.0009 C   0  0  0  0  0  0  0  0  0  0  0  0
   -5.0314    0.3215  -21.7989 C   0  0  0  0  0  0  0  0  0  0  0  0
   -5.4583   -0.0021  -20.4811 C   0  0  0  0  0  0  0  0  0  0  0  0
   -5.5775   -0.0689  -22.6538 H   0  0  0  0  0  0  0  0  0  0  0  0
   -3.6182    1.3611  -23.0147 H   0  0  0  0  0  0  0  0  0  0  0  0
   -2.3614    2.2954  -21.0819 H   0  0  0  0  0  0  0  0  0  0  0  0
   -3.0827    1.7664  -18.7629 H   0  0  0  0  0  0  0  0  0  0  0  0
   -4.6166    0.6251  -17.2285 H   0  0  0  0  0  0  0  0  0  0  0  0
   -7.7518   -1.6669  -18.6108 H   0  0  0  0  0  0  0  0  0  0  0  0
   -6.8082   -1.8756  -22.0518 H   0  0  0  0  0  0  0  0  0  0  0  0
   -8.0709   -2.2088  -20.8602 H   0  0  0  0  0  0  0  0  0  0  0  0
   -8.9920   -0.7867  -23.0618 N   0  0  0  0  0  0  0  0  0  0  0  0
   -9.3074   -2.1711  -23.3995 C   0  0  0  0  0  0  0  0  0  0  0  0
  -10.5770   -2.7099  -22.7378 C   0  0  0  0  0  0  0  0  0  0  0  0
  -11.8810   -2.0949  -23.2723 C   0  0  0  0  0  0  0  0  0  0  0  0
  -12.0719   -0.6208  -22.9891 C   0  0  0  0  0  0  0  0  0  0  0  0
  -13.6059   -0.0317  -22.4503 S   0  0  0  0  0  0  0  0  0  0  0  0
  -12.9626    1.5279  -22.0933 C   0  0  0  0  0  0  0  0  0  0  0  0
  -11.6713    1.6246  -22.5061 C   0  0  0  0  0  0  0  0  0  0  0  0
  -11.1694    0.4027  -23.0673 C   0  0  0  0  0  0  0  0  0  0  0  0
   -9.8126    0.2239  -23.7143 C   0  0  0  0  0  0  0  0  0  0  0  0
   -9.2422    1.1548  -23.7032 H   0  0  0  0  0  0  0  0  0  0  0  0
   -9.9221   -0.0679  -24.7678 H   0  0  0  0  0  0  0  0  0  0  0  0
  -11.0616    2.5213  -22.4224 H   0  0  0  0  0  0  0  0  0  0  0  0
  -13.5379    2.2513  -21.5251 H   0  0  0  0  0  0  0  0  0  0  0  0
  -12.7321   -2.6445  -22.8523 H   0  0  0  0  0  0  0  0  0  0  0  0
  -11.9209   -2.2388  -24.3627 H   0  0  0  0  0  0  0  0  0  0  0  0
  -10.6189   -3.7873  -22.9282 H   0  0  0  0  0  0  0  0  0  0  0  0
  -10.5281   -2.5920  -21.6484 H   0  0  0  0  0  0  0  0  0  0  0  0
   -8.4502   -2.8147  -23.1790 H   0  0  0  0  0  0  0  0  0  0  0  0
   -9.4290   -2.2352  -24.4876 H   0  0  0  0  0  0  0  0  0  0  0  0
  1  2  2  0
  2  3  1  0
  3  4  1  0
  4  5  2  0
  5  6  1  0
  6  7  2  0
  7  8  1  0
  8  9  2  0
  9 10  1  0
 10 11  2  0
 11 12  1  0
 12 13  2  0
 12 14  1  0
 11 15  1  0
 10 16  1  0
  9 17  1  0
  7 18  1  0
  5 19  1  0
  3 20  1  0
  3 21  1  0
  2 22  1  0
 22 23  1  0
 23 24  1  0
 24 25  1  0
 25 26  1  0
 26 27  1  0
 27 28  1  0
 28 29  2  0
 29 30  1  0
 30 31  1  0
 31 32  1  0
 31 33  1  0
 29 34  1  0
 28 35  1  0
 25 36  1  0
 25 37  1  0
 24 38  1  0
 24 39  1  0
 23 40  1  0
 23 41  1  0
 13  4  1  0
 31 22  1  0
 13  8  1  0
 30 26  2  0
M  END
>  <cnnaffinities>  (70) 
[5.1344, 5.366, 5.436, 5.16271, 4.93353, 5.64412, 4.7485]

>  <score>  (70) 
5.1344

>  <index>  (70) 
72

>  <Smiles>  (70) 
O=C(C(c1c(nc(c2c(c(c(c(c12)[H])[H])[H])[H])[H])[H])([H])[H])N1C(C(C(c2sc(c(c2C1([H])[H])[H])[H])([H])[H])([H])[H])([H])[H]

>  <h>  (70) 
<NA>

>  <Training>  (70) 
True

>  <Success>  (70) 
True

>  <enamine_searched>  (70) 
False

>  <enamine_id>  (70) 
nan

$$$$

     RDKit          3D

 50 53  0  0  0  0  0  0  0  0999 V2000
   -5.6004   -3.0324  -21.5763 O   0  0  0  0  0  0  0  0  0  0  0  0
   -6.7570   -2.7540  -21.8598 C   0  0  0  0  0  0  0  0  0  0  0  0
   -7.4143   -1.4796  -21.2694 C   0  0  0  0  0  0  0  0  0  0  0  0
   -6.5808   -0.8309  -20.1852 C   0  0  0  0  0  0  0  0  0  0  0  0
   -6.8725   -1.0451  -18.8654 C   0  0  0  0  0  0  0  0  0  0  0  0
   -6.1827   -0.5422  -17.8064 N   0  0  0  0  0  0  0  0  0  0  0  0
   -5.1572    0.2243  -18.0692 C   0  0  0  0  0  0  0  0  0  0  0  0
   -4.7195    0.5311  -19.3829 C   0  0  0  0  0  0  0  0  0  0  0  0
   -3.5910    1.3561  -19.6235 C   0  0  0  0  0  0  0  0  0  0  0  0
   -3.1887    1.6338  -20.8990 C   0  0  0  0  0  0  0  0  0  0  0  0
   -3.9053    1.0924  -21.9916 C   0  0  0  0  0  0  0  0  0  0  0  0
   -4.9994    0.2897  -21.7855 C   0  0  0  0  0  0  0  0  0  0  0  0
   -5.4456   -0.0138  -20.4763 C   0  0  0  0  0  0  0  0  0  0  0  0
   -5.5228   -0.1332  -22.6377 H   0  0  0  0  0  0  0  0  0  0  0  0
   -3.5770    1.3073  -23.0033 H   0  0  0  0  0  0  0  0  0  0  0  0
   -2.3275    2.2704  -21.0861 H   0  0  0  0  0  0  0  0  0  0  0  0
   -3.0591    1.7740  -18.7692 H   0  0  0  0  0  0  0  0  0  0  0  0
   -4.6036    0.6281  -17.2162 H   0  0  0  0  0  0  0  0  0  0  0  0
   -7.7182   -1.6682  -18.5829 H   0  0  0  0  0  0  0  0  0  0  0  0
   -7.6147   -0.7497  -22.0659 H   0  0  0  0  0  0  0  0  0  0  0  0
   -8.3949   -1.7474  -20.8489 H   0  0  0  0  0  0  0  0  0  0  0  0
   -7.5200   -3.5823  -22.6620 N   0  0  0  0  0  0  0  0  0  0  0  0
   -8.6629   -3.1255  -23.4509 C   0  0  0  0  0  0  0  0  0  0  0  0
   -9.7340   -4.2018  -23.5640 C   0  0  0  0  0  0  0  0  0  0  0  0
   -9.1639   -5.5037  -24.1039 C   0  0  0  0  0  0  0  0  0  0  0  0
   -7.9848   -5.9348  -23.2431 C   0  0  0  0  0  0  0  0  0  0  0  0
   -6.9124   -4.8511  -23.1013 C   0  0  1  0  0  0  0  0  0  0  0  0
   -6.0430   -4.6963  -24.3698 C   0  0  0  0  0  0  0  0  0  0  0  0
   -5.2086   -5.9202  -24.6880 C   0  0  0  0  0  0  0  0  0  0  0  0
   -4.0473   -6.1895  -23.9578 C   0  0  0  0  0  0  0  0  0  0  0  0
   -3.2848   -7.3205  -24.2199 C   0  0  0  0  0  0  0  0  0  0  0  0
   -3.6700   -8.2115  -25.2177 C   0  0  0  0  0  0  0  0  0  0  0  0
   -4.8265   -7.9596  -25.9508 C   0  0  0  0  0  0  0  0  0  0  0  0
   -5.5850   -6.8245  -25.6836 C   0  0  0  0  0  0  0  0  0  0  0  0
   -6.4942   -6.6401  -26.2529 H   0  0  0  0  0  0  0  0  0  0  0  0
   -5.1404   -8.6454  -26.7328 H   0  0  0  0  0  0  0  0  0  0  0  0
   -3.0715   -9.0919  -25.4261 H   0  0  0  0  0  0  0  0  0  0  0  0
   -2.3830   -7.5093  -23.6433 H   0  0  0  0  0  0  0  0  0  0  0  0
   -3.7437   -5.4991  -23.1740 H   0  0  0  0  0  0  0  0  0  0  0  0
   -6.6853   -4.4573  -25.2241 H   0  0  0  0  0  0  0  0  0  0  0  0
   -5.3822   -3.8374  -24.2152 H   0  0  0  0  0  0  0  0  0  0  0  0
   -6.2403   -5.1511  -22.2982 H   0  0  0  0  0  0  0  0  0  0  0  0
   -8.3464   -6.1898  -22.2446 H   0  0  0  0  0  0  0  0  0  0  0  0
   -7.5384   -6.8524  -23.6378 H   0  0  0  0  0  0  0  0  0  0  0  0
   -9.9334   -6.2846  -24.1228 H   0  0  0  0  0  0  0  0  0  0  0  0
   -8.8406   -5.3767  -25.1445 H   0  0  0  0  0  0  0  0  0  0  0  0
  -10.1658   -4.3764  -22.5762 H   0  0  0  0  0  0  0  0  0  0  0  0
  -10.5509   -3.8485  -24.1993 H   0  0  0  0  0  0  0  0  0  0  0  0
   -9.0836   -2.2324  -22.9916 H   0  0  0  0  0  0  0  0  0  0  0  0
   -8.3543   -2.8304  -24.4653 H   0  0  0  0  0  0  0  0  0  0  0  0
  1  2  2  0
  2  3  1  0
  3  4  1  0
  4  5  2  0
  5  6  1  0
  6  7  2  0
  7  8  1  0
  8  9  2  0
  9 10  1  0
 10 11  2  0
 11 12  1  0
 12 13  2  0
 12 14  1  0
 11 15  1  0
 10 16  1  0
  9 17  1  0
  7 18  1  0
  5 19  1  0
  3 20  1  0
  3 21  1  0
  2 22  1  0
 22 23  1  0
 23 24  1  0
 24 25  1  0
 25 26  1  0
 26 27  1  0
 27 28  1  0
 28 29  1  0
 29 30  2  0
 30 31  1  0
 31 32  2  0
 32 33  1  0
 33 34  2  0
 34 35  1  0
 33 36  1  0
 32 37  1  0
 31 38  1  0
 30 39  1  0
 28 40  1  0
 28 41  1  0
 27 42  1  1
 26 43  1  0
 26 44  1  0
 25 45  1  0
 25 46  1  0
 24 47  1  0
 24 48  1  0
 23 49  1  0
 23 50  1  0
 13  4  1  0
 27 22  1  0
 34 29  1  0
 13  8  1  0
M  END
>  <cnnaffinities>  (71) 
[5.72751]

>  <score>  (71) 
5.72751

>  <index>  (71) 
73

>  <Smiles>  (71) 
O=C(C(c1c(nc(c2c(c(c(c(c12)[H])[H])[H])[H])[H])[H])([H])[H])N1C(C(C(C([C@]1(C(c1c(c(c(c(c1[H])[H])[H])[H])[H])([H])[H])[H])([H])[H])([H])[H])([H])[H])([H])[H]

>  <h>  (71) 
<NA>

>  <Training>  (71) 
True

>  <Success>  (71) 
True

>  <enamine_searched>  (71) 
False

>  <enamine_id>  (71) 
nan

$$$$

     RDKit          3D

 43 47  0  0  0  0  0  0  0  0999 V2000
   -9.4297   -0.4549  -20.9876 O   0  0  0  0  0  0  0  0  0  0  0  0
   -8.7456   -1.3652  -21.3798 C   0  0  0  0  0  0  0  0  0  0  0  0
   -9.1372   -2.4526  -22.1143 N   0  0  0  0  0  0  0  0  0  0  0  0
   -8.0407   -3.1478  -22.7405 C   0  0  1  0  0  0  0  0  0  0  0  0
   -8.1055   -4.6904  -22.7168 C   0  0  0  0  0  0  0  0  0  0  0  0
   -8.2238   -4.7229  -24.2751 C   0  0  2  0  0  0  0  0  0  0  0  0
   -7.1765   -5.5229  -24.9868 C   0  0  0  0  0  0  0  0  0  0  0  0
   -5.8204   -5.2781  -24.7416 C   0  0  0  0  0  0  0  0  0  0  0  0
   -4.8310   -6.0114  -25.3856 C   0  0  0  0  0  0  0  0  0  0  0  0
   -5.1806   -7.0132  -26.2899 C   0  0  0  0  0  0  0  0  0  0  0  0
   -6.5204   -7.2772  -26.5447 C   0  0  0  0  0  0  0  0  0  0  0  0
   -7.4980   -6.5342  -25.8933 C   0  0  0  0  0  0  0  0  0  0  0  0
   -9.1674   -6.9165  -26.2485 Cl  0  0  0  0  0  0  0  0  0  0  0  0
   -6.8271   -8.0530  -27.2414 H   0  0  0  0  0  0  0  0  0  0  0  0
   -4.4110   -7.5877  -26.7979 H   0  0  0  0  0  0  0  0  0  0  0  0
   -3.7868   -5.7959  -25.1798 H   0  0  0  0  0  0  0  0  0  0  0  0
   -5.5484   -4.4955  -24.0302 H   0  0  0  0  0  0  0  0  0  0  0  0
   -8.0350   -3.1708  -24.2983 C   0  0  0  0  0  0  0  0  0  0  0  0
   -8.8568   -2.6044  -24.7512 H   0  0  0  0  0  0  0  0  0  0  0  0
   -7.0979   -2.8275  -24.7556 H   0  0  0  0  0  0  0  0  0  0  0  0
   -9.2252   -5.0188  -24.6016 H   0  0  0  0  0  0  0  0  0  0  0  0
   -8.9696   -5.0693  -22.1640 H   0  0  0  0  0  0  0  0  0  0  0  0
   -7.1943   -5.1498  -22.3155 H   0  0  0  0  0  0  0  0  0  0  0  0
   -6.8409   -2.5177  -22.0517 C   0  0  0  0  0  0  0  0  0  0  0  0
   -5.6802   -2.8140  -22.2230 O   0  0  0  0  0  0  0  0  0  0  0  0
   -7.3410   -1.5158  -21.2079 N   0  0  0  0  0  0  0  0  0  0  0  0
   -6.5842   -0.8578  -20.1892 C   0  0  0  0  0  0  0  0  0  0  0  0
   -6.9064   -1.0598  -18.8690 C   0  0  0  0  0  0  0  0  0  0  0  0
   -6.2083   -0.5449  -17.8303 N   0  0  0  0  0  0  0  0  0  0  0  0
   -5.1749    0.2089  -18.0993 C   0  0  0  0  0  0  0  0  0  0  0  0
   -4.7438    0.5256  -19.4140 C   0  0  0  0  0  0  0  0  0  0  0  0
   -3.6144    1.3581  -19.6394 C   0  0  0  0  0  0  0  0  0  0  0  0
   -3.2249    1.6616  -20.9129 C   0  0  0  0  0  0  0  0  0  0  0  0
   -3.9571    1.1477  -22.0069 C   0  0  0  0  0  0  0  0  0  0  0  0
   -5.0500    0.3390  -21.8141 C   0  0  0  0  0  0  0  0  0  0  0  0
   -5.4695   -0.0103  -20.5008 C   0  0  0  0  0  0  0  0  0  0  0  0
   -5.5945   -0.0518  -22.6674 H   0  0  0  0  0  0  0  0  0  0  0  0
   -3.6461    1.3906  -23.0169 H   0  0  0  0  0  0  0  0  0  0  0  0
   -2.3671    2.3058  -21.0917 H   0  0  0  0  0  0  0  0  0  0  0  0
   -3.0855    1.7563  -18.7783 H   0  0  0  0  0  0  0  0  0  0  0  0
   -4.6262    0.6112  -17.2491 H   0  0  0  0  0  0  0  0  0  0  0  0
   -7.7532   -1.6835  -18.5954 H   0  0  0  0  0  0  0  0  0  0  0  0
  -10.1009   -2.6050  -22.3672 H   0  0  0  0  0  0  0  0  0  0  0  0
  1  2  2  0
  2  3  1  0
  4  3  1  6
  4  5  1  0
  5  6  1  0
  6  7  1  0
  7  8  2  0
  8  9  1  0
  9 10  2  0
 10 11  1  0
 11 12  2  0
 12 13  1  0
 11 14  1  0
 10 15  1  0
  9 16  1  0
  8 17  1  0
  6 18  1  0
 18 19  1  0
 18 20  1  0
  6 21  1  1
  5 22  1  0
  5 23  1  0
  4 24  1  0
 24 25  2  0
 24 26  1  0
 26 27  1  0
 27 28  2  0
 28 29  1  0
 29 30  2  0
 30 31  1  0
 31 32  2  0
 32 33  1  0
 33 34  2  0
 34 35  1  0
 35 36  2  0
 35 37  1  0
 34 38  1  0
 33 39  1  0
 32 40  1  0
 30 41  1  0
 28 42  1  0
  3 43  1  0
 26  2  1  0
 36 27  1  0
 18  4  1  0
 36 31  1  0
 12  7  1  0
M  END
>  <cnnaffinities>  (72) 
[5.81763]

>  <score>  (72) 
5.81763

>  <index>  (72) 
74

>  <Smiles>  (72) 
O=C1N([C@]2(C([C@](c3c(c(c(c(c3Cl)[H])[H])[H])[H])(C2([H])[H])[H])([H])[H])C(=O)N1c1c(nc(c2c(c(c(c(c12)[H])[H])[H])[H])[H])[H])[H]

>  <h>  (72) 
<NA>

>  <Training>  (72) 
True

>  <Success>  (72) 
True

>  <enamine_searched>  (72) 
False

>  <enamine_id>  (72) 
nan

$$$$

     RDKit          3D

 66 71  0  0  0  0  0  0  0  0999 V2000
   -7.4753    3.2818  -21.8513 C   0  0  0  0  0  0  0  0  0  0  0  0
   -8.5640    2.8272  -22.7022 N   0  0  0  0  0  0  0  0  0  0  0  0
   -8.2233    2.0598  -23.7753 C   0  0  0  0  0  0  0  0  0  0  0  0
   -7.0603    1.7812  -24.0299 O   0  0  0  0  0  0  0  0  0  0  0  0
   -9.3434    1.5178  -24.6589 C   0  0  0  0  0  0  0  0  0  0  0  0
   -9.8935    0.3178  -24.0558 N   0  0  0  0  0  0  0  0  0  0  0  0
   -9.0768   -0.8887  -24.0253 C   0  0  0  0  0  0  0  0  0  0  0  0
   -9.2789   -1.6696  -22.6998 C   0  0  2  0  0  0  0  0  0  0  0  0
   -8.6686   -0.8403  -21.5346 C   0  0  0  0  0  0  0  0  0  0  0  0
   -9.1470    0.1432  -21.0069 O   0  0  0  0  0  0  0  0  0  0  0  0
   -7.4475   -1.3887  -21.2022 N   0  0  0  0  0  0  0  0  0  0  0  0
   -6.6296   -0.8200  -20.1924 C   0  0  0  0  0  0  0  0  0  0  0  0
   -6.9343   -1.0464  -18.8719 C   0  0  0  0  0  0  0  0  0  0  0  0
   -6.2228   -0.5640  -17.8279 N   0  0  0  0  0  0  0  0  0  0  0  0
   -5.1863    0.1888  -18.0980 C   0  0  0  0  0  0  0  0  0  0  0  0
   -4.7608    0.5122  -19.4162 C   0  0  0  0  0  0  0  0  0  0  0  0
   -3.6403    1.3530  -19.6464 C   0  0  0  0  0  0  0  0  0  0  0  0
   -3.2527    1.6551  -20.9222 C   0  0  0  0  0  0  0  0  0  0  0  0
   -3.9719    1.1403  -22.0218 C   0  0  0  0  0  0  0  0  0  0  0  0
   -5.0718    0.3336  -21.8259 C   0  0  0  0  0  0  0  0  0  0  0  0
   -5.4932   -0.0092  -20.5109 C   0  0  0  0  0  0  0  0  0  0  0  0
   -5.6389   -0.0024  -22.6881 H   0  0  0  0  0  0  0  0  0  0  0  0
   -3.6536    1.3795  -23.0323 H   0  0  0  0  0  0  0  0  0  0  0  0
   -2.3934    2.2966  -21.0954 H   0  0  0  0  0  0  0  0  0  0  0  0
   -3.1148    1.7539  -18.7837 H   0  0  0  0  0  0  0  0  0  0  0  0
   -4.6197    0.5887  -17.2557 H   0  0  0  0  0  0  0  0  0  0  0  0
   -7.7957   -1.6609  -18.6243 H   0  0  0  0  0  0  0  0  0  0  0  0
   -7.0993   -2.5607  -21.9812 C   0  0  0  0  0  0  0  0  0  0  0  0
   -8.4271   -2.9667  -22.6324 C   0  0  2  0  0  0  0  0  0  0  0  0
   -8.1948   -3.7425  -23.9266 C   0  0  0  0  0  0  0  0  0  0  0  0
   -9.4200   -4.2547  -24.4776 N   0  0  0  0  0  0  0  0  0  0  0  0
   -9.4816   -4.9697  -25.6402 C   0  0  0  0  0  0  0  0  0  0  0  0
   -8.3550   -5.2136  -26.4678 C   0  0  0  0  0  0  0  0  0  0  0  0
   -8.4580   -5.8154  -27.6415 N   0  0  0  0  0  0  0  0  0  0  0  0
   -9.6804   -6.2132  -28.0099 C   0  0  0  0  0  0  0  0  0  0  0  0
  -10.7685   -6.0412  -27.1683 C   0  0  0  0  0  0  0  0  0  0  0  0
  -10.6814   -5.4327  -25.9866 N   0  0  0  0  0  0  0  0  0  0  0  0
  -11.7584   -6.3877  -27.4576 H   0  0  0  0  0  0  0  0  0  0  0  0
   -9.7836   -6.6667  -28.9918 H   0  0  0  0  0  0  0  0  0  0  0  0
   -7.3562   -4.9030  -26.1740 H   0  0  0  0  0  0  0  0  0  0  0  0
  -10.3142   -4.0906  -24.0309 H   0  0  0  0  0  0  0  0  0  0  0  0
   -7.5139   -4.5803  -23.7189 H   0  0  0  0  0  0  0  0  0  0  0  0
   -7.6903   -3.0960  -24.6646 H   0  0  0  0  0  0  0  0  0  0  0  0
   -8.9371   -3.6356  -21.9336 H   0  0  0  0  0  0  0  0  0  0  0  0
   -6.3348   -2.3336  -22.7417 H   0  0  0  0  0  0  0  0  0  0  0  0
   -6.7090   -3.3598  -21.3436 H   0  0  0  0  0  0  0  0  0  0  0  0
  -10.7763   -1.8746  -22.5109 C   0  0  0  0  0  0  0  0  0  0  0  0
  -11.3061   -2.9241  -21.7467 C   0  0  0  0  0  0  0  0  0  0  0  0
  -12.6580   -2.9540  -21.4472 C   0  0  0  0  0  0  0  0  0  0  0  0
  -13.2618   -4.1199  -20.3197 Cl  0  0  0  0  0  0  0  0  0  0  0  0
  -13.5510   -2.0068  -21.9329 C   0  0  0  0  0  0  0  0  0  0  0  0
  -13.0478   -0.9886  -22.7097 C   0  0  0  0  0  0  0  0  0  0  0  0
  -11.6854   -0.9198  -22.9937 C   0  0  0  0  0  0  0  0  0  0  0  0
  -11.2284    0.2728  -23.7743 C   0  0  0  0  0  0  0  0  0  0  0  0
  -12.0082    1.1548  -24.1184 O   0  0  0  0  0  0  0  0  0  0  0  0
  -13.6751   -0.1847  -23.0747 H   0  0  0  0  0  0  0  0  0  0  0  0
  -14.5961   -2.0473  -21.6504 H   0  0  0  0  0  0  0  0  0  0  0  0
  -10.6943   -3.6994  -21.2997 H   0  0  0  0  0  0  0  0  0  0  0  0
   -8.0288   -0.5948  -24.1463 H   0  0  0  0  0  0  0  0  0  0  0  0
   -9.3542   -1.5392  -24.8677 H   0  0  0  0  0  0  0  0  0  0  0  0
  -10.1638    2.2271  -24.7923 H   0  0  0  0  0  0  0  0  0  0  0  0
   -8.9228    1.2862  -25.6481 H   0  0  0  0  0  0  0  0  0  0  0  0
   -9.4776    2.7291  -22.2740 H   0  0  0  0  0  0  0  0  0  0  0  0
   -7.8928    3.8326  -21.0082 H   0  0  0  0  0  0  0  0  0  0  0  0
   -6.8880    2.4148  -21.5144 H   0  0  0  0  0  0  0  0  0  0  0  0
   -6.8251    3.9628  -22.4107 H   0  0  0  0  0  0  0  0  0  0  0  0
  1  2  1  0
  2  3  1  0
  3  4  2  0
  3  5  1  0
  5  6  1  0
  6  7  1  0
  8  7  1  6
  8  9  1  0
  9 10  2  0
  9 11  1  0
 11 12  1  0
 12 13  2  0
 13 14  1  0
 14 15  2  0
 15 16  1  0
 16 17  2  0
 17 18  1  0
 18 19  2  0
 19 20  1  0
 20 21  2  0
 20 22  1  0
 19 23  1  0
 18 24  1  0
 17 25  1  0
 15 26  1  0
 13 27  1  0
 11 28  1  0
 28 29  1  0
 29 30  1  0
 30 31  1  0
 31 32  1  0
 32 33  2  0
 33 34  1  0
 34 35  2  0
 35 36  1  0
 36 37  2  0
 36 38  1  0
 35 39  1  0
 33 40  1  0
 31 41  1  0
 30 42  1  0
 30 43  1  0
 29 44  1  1
 28 45  1  0
 28 46  1  0
  8 47  1  0
 47 48  2  0
 48 49  1  0
 49 50  1  0
 49 51  2  0
 51 52  1  0
 52 53  2  0
 53 54  1  0
 54 55  2  0
 52 56  1  0
 51 57  1  0
 48 58  1  0
  7 59  1  0
  7 60  1  0
  5 61  1  0
  5 62  1  0
  2 63  1  0
  1 64  1  0
  1 65  1  0
  1 66  1  0
 54  6  1  0
 29  8  1  0
 37 32  1  0
 53 47  1  0
 21 12  1  0
 21 16  1  0
M  END
>  <cnnaffinities>  (73) 
[6.29901, 6.59958, 7.03585]

>  <score>  (73) 
6.29901

>  <index>  (73) 
75

>  <Smiles>  (73) 
C(N(C(=O)C(N1C([C@@]2(C(=O)N(c3c(nc(c4c(c(c(c(c34)[H])[H])[H])[H])[H])[H])C([C@@]2(C(N(c2c(nc(c(n2)[H])[H])[H])[H])([H])[H])[H])([H])[H])c2c(c(Cl)c(c(c2C1=O)[H])[H])[H])([H])[H])([H])[H])[H])([H])([H])[H]

>  <h>  (73) 
<NA>

>  <Training>  (73) 
True

>  <Success>  (73) 
True

>  <enamine_searched>  (73) 
False

>  <enamine_id>  (73) 
nan

$$$$

     RDKit          3D

 66 71  0  0  0  0  0  0  0  0999 V2000
   -8.1945   -3.4712  -24.1027 C   0  0  0  0  0  0  0  0  0  0  0  0
   -8.4677   -2.7339  -22.7826 C   0  0  1  0  0  0  0  0  0  0  0  0
   -7.1831   -2.5236  -21.9495 C   0  0  0  0  0  0  0  0  0  0  0  0
   -7.4560   -1.3152  -21.1909 N   0  0  0  0  0  0  0  0  0  0  0  0
   -6.6159   -0.7925  -20.1694 C   0  0  0  0  0  0  0  0  0  0  0  0
   -6.9113   -1.0378  -18.8526 C   0  0  0  0  0  0  0  0  0  0  0  0
   -6.1939   -0.5578  -17.8112 N   0  0  0  0  0  0  0  0  0  0  0  0
   -5.1648    0.2080  -18.0818 C   0  0  0  0  0  0  0  0  0  0  0  0
   -4.7384    0.5399  -19.3996 C   0  0  0  0  0  0  0  0  0  0  0  0
   -3.6188    1.3835  -19.6425 C   0  0  0  0  0  0  0  0  0  0  0  0
   -3.2364    1.6815  -20.9247 C   0  0  0  0  0  0  0  0  0  0  0  0
   -3.9485    1.1393  -22.0160 C   0  0  0  0  0  0  0  0  0  0  0  0
   -5.0316    0.3157  -21.8053 C   0  0  0  0  0  0  0  0  0  0  0  0
   -5.4726    0.0103  -20.4852 C   0  0  0  0  0  0  0  0  0  0  0  0
   -5.5583   -0.0995  -22.6577 H   0  0  0  0  0  0  0  0  0  0  0  0
   -3.6429    1.3781  -23.0305 H   0  0  0  0  0  0  0  0  0  0  0  0
   -2.3943    2.3447  -21.1048 H   0  0  0  0  0  0  0  0  0  0  0  0
   -3.0942    1.7961  -18.7873 H   0  0  0  0  0  0  0  0  0  0  0  0
   -4.6187    0.6132  -17.2311 H   0  0  0  0  0  0  0  0  0  0  0  0
   -7.7656   -1.6592  -18.5933 H   0  0  0  0  0  0  0  0  0  0  0  0
   -8.5343   -0.5940  -21.6470 C   0  0  0  0  0  0  0  0  0  0  0  0
   -8.9215    0.4506  -21.1562 O   0  0  0  0  0  0  0  0  0  0  0  0
   -9.1343   -1.3215  -22.8753 C   0  0  1  0  0  0  0  0  0  0  0  0
   -8.7142   -0.5890  -24.1706 C   0  0  0  0  0  0  0  0  0  0  0  0
   -9.3151    0.7261  -24.2635 N   0  0  0  0  0  0  0  0  0  0  0  0
   -8.5153    1.7870  -24.8499 C   0  0  0  0  0  0  0  0  0  0  0  0
   -7.5562    2.4188  -23.8481 C   0  0  0  0  0  0  0  0  0  0  0  0
   -8.2827    3.2239  -22.8112 N   0  0  0  0  0  4  0  0  0  0  0  0
   -7.4856    3.3220  -21.5504 C   0  0  0  0  0  0  0  0  0  0  0  0
   -6.3317    4.3014  -21.6375 C   0  0  0  0  0  0  0  0  0  0  0  0
   -6.8010    5.5949  -21.9485 O   0  0  0  0  0  0  0  0  0  0  0  0
   -7.4379    5.5905  -23.2074 C   0  0  0  0  0  0  0  0  0  0  0  0
   -8.6438    4.6427  -23.2416 C   0  0  0  0  0  0  0  0  0  0  0  0
   -9.4028    5.0061  -22.5448 H   0  0  0  0  0  0  0  0  0  0  0  0
   -9.0630    4.6074  -24.2500 H   0  0  0  0  0  0  0  0  0  0  0  0
   -6.7134    5.3043  -23.9851 H   0  0  0  0  0  0  0  0  0  0  0  0
   -7.7628    6.6183  -23.3901 H   0  0  0  0  0  0  0  0  0  0  0  0
   -5.8547    4.3662  -20.6628 H   0  0  0  0  0  0  0  0  0  0  0  0
   -5.5842    3.9580  -22.3734 H   0  0  0  0  0  0  0  0  0  0  0  0
   -7.1347    2.3140  -21.3111 H   0  0  0  0  0  0  0  0  0  0  0  0
   -8.1588    3.6691  -20.7647 H   0  0  0  0  0  0  0  0  0  0  0  0
   -9.1447    2.7004  -22.5587 H   0  0  0  0  0  0  0  0  0  0  0  0
   -6.9890    1.6442  -23.3182 H   0  0  0  0  0  0  0  0  0  0  0  0
   -6.8385    3.0579  -24.3671 H   0  0  0  0  0  0  0  0  0  0  0  0
   -7.9308    1.3811  -25.6843 H   0  0  0  0  0  0  0  0  0  0  0  0
   -9.2128    2.5322  -25.2312 H   0  0  0  0  0  0  0  0  0  0  0  0
  -10.6636    0.8891  -24.0990 C   0  0  0  0  0  0  0  0  0  0  0  0
  -11.2630    1.8915  -24.4605 O   0  0  0  0  0  0  0  0  0  0  0  0
  -11.3667   -0.2373  -23.3922 C   0  0  0  0  0  0  0  0  0  0  0  0
  -12.7550   -0.1738  -23.2903 C   0  0  0  0  0  0  0  0  0  0  0  0
  -13.4440   -1.1162  -22.5540 C   0  0  0  0  0  0  0  0  0  0  0  0
  -12.7274   -2.1150  -21.8979 C   0  0  0  0  0  0  0  0  0  0  0  0
  -13.5799   -3.2480  -20.8893 Cl  0  0  0  0  0  0  0  0  0  0  0  0
  -11.3507   -2.1994  -21.9979 C   0  0  0  0  0  0  0  0  0  0  0  0
  -10.6504   -1.2839  -22.7925 C   0  0  0  0  0  0  0  0  0  0  0  0
  -10.8380   -2.9584  -21.4177 H   0  0  0  0  0  0  0  0  0  0  0  0
  -14.5212   -1.0687  -22.4525 H   0  0  0  0  0  0  0  0  0  0  0  0
  -13.2574    0.6497  -23.7853 H   0  0  0  0  0  0  0  0  0  0  0  0
   -7.6267   -0.4578  -24.1806 H   0  0  0  0  0  0  0  0  0  0  0  0
   -9.0074   -1.2078  -25.0343 H   0  0  0  0  0  0  0  0  0  0  0  0
   -6.9749   -3.3639  -21.2751 H   0  0  0  0  0  0  0  0  0  0  0  0
   -6.3015   -2.4025  -22.5993 H   0  0  0  0  0  0  0  0  0  0  0  0
   -9.1455   -3.3481  -22.1850 H   0  0  0  0  0  0  0  0  0  0  0  0
   -9.1006   -3.5778  -24.7123 H   0  0  0  0  0  0  0  0  0  0  0  0
   -7.4468   -2.9411  -24.7084 H   0  0  0  0  0  0  0  0  0  0  0  0
   -7.8013   -4.4790  -23.9159 H   0  0  0  0  0  0  0  0  0  0  0  0
  1  2  1  0
  2  3  1  0
  3  4  1  0
  4  5  1  0
  5  6  2  0
  6  7  1  0
  7  8  2  0
  8  9  1  0
  9 10  2  0
 10 11  1  0
 11 12  2  0
 12 13  1  0
 13 14  2  0
 13 15  1  0
 12 16  1  0
 11 17  1  0
 10 18  1  0
  8 19  1  0
  6 20  1  0
  4 21  1  0
 21 22  2  0
 21 23  1  0
 23 24  1  6
 24 25  1  0
 25 26  1  0
 26 27  1  0
 27 28  1  0
 28 29  1  0
 29 30  1  0
 30 31  1  0
 31 32  1  0
 32 33  1  0
 33 34  1  0
 33 35  1  0
 32 36  1  0
 32 37  1  0
 30 38  1  0
 30 39  1  0
 29 40  1  0
 29 41  1  0
 28 42  1  0
 27 43  1  0
 27 44  1  0
 26 45  1  0
 26 46  1  0
 25 47  1  0
 47 48  2  0
 47 49  1  0
 49 50  2  0
 50 51  1  0
 51 52  2  0
 52 53  1  0
 52 54  1  0
 54 55  2  0
 54 56  1  0
 51 57  1  0
 50 58  1  0
 24 59  1  0
 24 60  1  0
  3 61  1  0
  3 62  1  0
  2 63  1  1
  1 64  1  0
  1 65  1  0
  1 66  1  0
 23  2  1  0
 33 28  1  0
 55 49  1  0
 14  5  1  0
 55 23  1  0
 14  9  1  0
M  CHG  1  28   1
M  END
>  <cnnaffinities>  (74) 
[6.46653]

>  <score>  (74) 
6.46653

>  <index>  (74) 
76

>  <Smiles>  (74) 
C([C@]1(C(N(c2c(nc(c3c(c(c(c(c23)[H])[H])[H])[H])[H])[H])C(=O)[C@]21C(N(C(C([N+]1(C(C(OC(C1([H])[H])([H])[H])([H])[H])([H])[H])[H])([H])[H])([H])[H])C(=O)c1c(c(c(Cl)c(c21)[H])[H])[H])([H])[H])([H])[H])[H])([H])([H])[H]

>  <h>  (74) 
<NA>

>  <Training>  (74) 
True

>  <Success>  (74) 
True

>  <enamine_searched>  (74) 
False

>  <enamine_id>  (74) 
nan

$$$$

     RDKit          3D

 55 60  0  0  0  0  0  0  0  0999 V2000
  -10.4783   -1.2286  -23.2342 C   0  0  0  0  0  0  0  0  0  0  0  0
   -9.0230   -1.5539  -22.9157 C   0  0  1  0  0  0  0  0  0  0  0  0
   -8.3920   -0.5724  -21.9166 C   0  0  0  0  0  0  0  0  0  0  0  0
   -7.3916   -1.3633  -21.2274 N   0  0  0  0  0  0  0  0  0  0  0  0
   -6.5836   -0.8429  -20.1852 C   0  0  0  0  0  0  0  0  0  0  0  0
   -6.8934   -1.0794  -18.8682 C   0  0  0  0  0  0  0  0  0  0  0  0
   -6.2063   -0.5595  -17.8188 N   0  0  0  0  0  0  0  0  0  0  0  0
   -5.1828    0.2122  -18.0843 C   0  0  0  0  0  0  0  0  0  0  0  0
   -4.7410    0.5199  -19.4031 C   0  0  0  0  0  0  0  0  0  0  0  0
   -3.6142    1.3486  -19.6385 C   0  0  0  0  0  0  0  0  0  0  0  0
   -3.2126    1.6212  -20.9170 C   0  0  0  0  0  0  0  0  0  0  0  0
   -3.9164    1.0790  -22.0167 C   0  0  0  0  0  0  0  0  0  0  0  0
   -5.0112    0.2726  -21.8152 C   0  0  0  0  0  0  0  0  0  0  0  0
   -5.4572   -0.0169  -20.4966 C   0  0  0  0  0  0  0  0  0  0  0  0
   -5.5392   -0.1530  -22.6634 H   0  0  0  0  0  0  0  0  0  0  0  0
   -3.5878    1.2977  -23.0300 H   0  0  0  0  0  0  0  0  0  0  0  0
   -2.3514    2.2583  -21.0993 H   0  0  0  0  0  0  0  0  0  0  0  0
   -3.0948    1.7657  -18.7791 H   0  0  0  0  0  0  0  0  0  0  0  0
   -4.6374    0.6355  -17.2378 H   0  0  0  0  0  0  0  0  0  0  0  0
   -7.7349   -1.7212  -18.6113 H   0  0  0  0  0  0  0  0  0  0  0  0
   -7.5406   -2.7198  -21.4087 C   0  0  0  0  0  0  0  0  0  0  0  0
   -6.7662   -3.5430  -20.9595 O   0  0  0  0  0  0  0  0  0  0  0  0
   -8.7674   -2.9726  -22.3093 C   0  0  1  0  0  0  0  0  0  0  0  0
   -9.9379   -3.4618  -21.4420 C   0  0  0  0  0  0  0  0  0  0  0  0
  -11.0445   -4.0365  -22.1845 N   0  0  0  0  0  0  0  0  0  0  0  0
  -12.3988   -3.9540  -21.6589 C   0  0  0  0  0  0  0  0  0  0  0  0
  -13.2493   -2.8453  -22.2029 C   0  0  0  0  0  0  0  0  0  0  0  0
  -13.8800   -2.9247  -23.3963 C   0  0  0  0  0  0  0  0  0  0  0  0
  -14.6288   -1.7977  -23.5636 O   0  0  0  0  0  0  0  0  0  0  0  0
  -14.4058   -1.0943  -22.4358 C   0  0  0  0  0  0  0  0  0  0  0  0
  -13.6077   -1.6539  -21.5865 N   0  0  0  0  0  0  0  0  0  0  0  0
  -14.9461   -0.1609  -22.3504 H   0  0  0  0  0  0  0  0  0  0  0  0
  -13.8744   -3.7008  -24.1522 H   0  0  0  0  0  0  0  0  0  0  0  0
  -12.3894   -3.9996  -20.5678 H   0  0  0  0  0  0  0  0  0  0  0  0
  -12.8781   -4.8455  -22.0412 H   0  0  0  0  0  0  0  0  0  0  0  0
  -10.8925   -4.7116  -23.3632 C   0  0  0  0  0  0  0  0  0  0  0  0
  -11.8488   -5.1276  -24.0074 O   0  0  0  0  0  0  0  0  0  0  0  0
   -9.4909   -4.8676  -23.8349 C   0  0  0  0  0  0  0  0  0  0  0  0
   -9.2265   -5.8179  -24.8209 C   0  0  0  0  0  0  0  0  0  0  0  0
   -7.9624   -5.9016  -25.3786 C   0  0  0  0  0  0  0  0  0  0  0  0
   -6.9832   -5.0194  -24.9304 C   0  0  0  0  0  0  0  0  0  0  0  0
   -5.7706   -5.0520  -25.5087 F   0  0  0  0  0  0  0  0  0  0  0  0
   -7.2147   -4.1050  -23.9229 C   0  0  0  0  0  0  0  0  0  0  0  0
   -8.4824   -4.0309  -23.3469 C   0  0  0  0  0  0  0  0  0  0  0  0
   -6.4215   -3.4425  -23.5969 H   0  0  0  0  0  0  0  0  0  0  0  0
   -7.7308   -6.5854  -26.1879 H   0  0  0  0  0  0  0  0  0  0  0  0
  -10.0413   -6.4711  -25.1290 H   0  0  0  0  0  0  0  0  0  0  0  0
  -10.3126   -2.6242  -20.8571 H   0  0  0  0  0  0  0  0  0  0  0  0
   -9.5447   -4.1978  -20.7553 H   0  0  0  0  0  0  0  0  0  0  0  0
   -9.1361   -0.1824  -21.2096 H   0  0  0  0  0  0  0  0  0  0  0  0
   -7.9401    0.2906  -22.4146 H   0  0  0  0  0  0  0  0  0  0  0  0
   -8.4371   -1.5101  -23.8426 H   0  0  0  0  0  0  0  0  0  0  0  0
  -10.5530   -0.2679  -23.7449 H   0  0  0  0  0  0  0  0  0  0  0  0
  -10.9381   -1.9938  -23.8691 H   0  0  0  0  0  0  0  0  0  0  0  0
  -11.0846   -1.1558  -22.3263 H   0  0  0  0  0  0  0  0  0  0  0  0
  1  2  1  0
  2  3  1  0
  3  4  1  0
  4  5  1  0
  5  6  2  0
  6  7  1  0
  7  8  2  0
  8  9  1  0
  9 10  2  0
 10 11  1  0
 11 12  2  0
 12 13  1  0
 13 14  2  0
 13 15  1  0
 12 16  1  0
 11 17  1  0
 10 18  1  0
  8 19  1  0
  6 20  1  0
  4 21  1  0
 21 22  2  0
 21 23  1  0
 23 24  1  1
 24 25  1  0
 25 26  1  0
 26 27  1  0
 27 28  2  0
 28 29  1  0
 29 30  1  0
 30 31  2  0
 30 32  1  0
 28 33  1  0
 26 34  1  0
 26 35  1  0
 25 36  1  0
 36 37  2  0
 36 38  1  0
 38 39  2  0
 39 40  1  0
 40 41  2  0
 41 42  1  0
 41 43  1  0
 43 44  2  0
 43 45  1  0
 40 46  1  0
 39 47  1  0
 24 48  1  0
 24 49  1  0
  3 50  1  0
  3 51  1  0
  2 52  1  6
  1 53  1  0
  1 54  1  0
  1 55  1  0
 23  2  1  0
 31 27  1  0
 44 38  1  0
 14  5  1  0
 44 23  1  0
 14  9  1  0
M  END
>  <cnnaffinities>  (75) 
[6.67777]

>  <score>  (75) 
6.67777

>  <index>  (75) 
77

>  <Smiles>  (75) 
C([C@]1(C(N(c2c(nc(c3c(c(c(c(c23)[H])[H])[H])[H])[H])[H])C(=O)[C@]21C(N(C(c1c(oc(n1)[H])[H])([H])[H])C(=O)c1c(c(c(F)c(c21)[H])[H])[H])([H])[H])([H])[H])[H])([H])([H])[H]

>  <h>  (75) 
<NA>

>  <Training>  (75) 
True

>  <Success>  (75) 
True

>  <enamine_searched>  (75) 
False

>  <enamine_id>  (75) 
nan

$$$$

     RDKit          3D

 56 60  0  0  0  0  0  0  0  0999 V2000
  -14.4612   -1.6300  -23.7695 C   0  0  0  0  0  0  0  0  0  0  0  0
  -13.7156   -2.7830  -23.3095 N   0  0  0  0  0  0  0  0  0  0  0  0
  -13.3159   -2.8193  -22.0125 C   0  0  0  0  0  0  0  0  0  0  0  0
  -13.6615   -1.9874  -21.1901 O   0  0  0  0  0  0  0  0  0  0  0  0
  -12.4214   -4.0005  -21.6685 C   0  0  0  0  0  0  0  0  0  0  0  0
  -11.0996   -3.9198  -22.2643 N   0  0  0  0  0  0  0  0  0  0  0  0
   -9.9827   -3.4020  -21.4754 C   0  0  0  0  0  0  0  0  0  0  0  0
   -8.7879   -2.9297  -22.3470 C   0  0  2  0  0  0  0  0  0  0  0  0
   -7.5586   -2.7074  -21.4481 C   0  0  0  0  0  0  0  0  0  0  0  0
   -6.8184   -3.5667  -21.0127 O   0  0  0  0  0  0  0  0  0  0  0  0
   -7.3997   -1.3552  -21.2340 N   0  0  0  0  0  0  0  0  0  0  0  0
   -6.5826   -0.8532  -20.1933 C   0  0  0  0  0  0  0  0  0  0  0  0
   -6.8888   -1.1017  -18.8800 C   0  0  0  0  0  0  0  0  0  0  0  0
   -6.2152   -0.5725  -17.8282 N   0  0  0  0  0  0  0  0  0  0  0  0
   -5.1983    0.2093  -18.0912 C   0  0  0  0  0  0  0  0  0  0  0  0
   -4.7536    0.5209  -19.4078 C   0  0  0  0  0  0  0  0  0  0  0  0
   -3.6277    1.3502  -19.6407 C   0  0  0  0  0  0  0  0  0  0  0  0
   -3.2232    1.6188  -20.9183 C   0  0  0  0  0  0  0  0  0  0  0  0
   -3.9260    1.0782  -22.0178 C   0  0  0  0  0  0  0  0  0  0  0  0
   -5.0191    0.2720  -21.8200 C   0  0  0  0  0  0  0  0  0  0  0  0
   -5.4629   -0.0197  -20.5015 C   0  0  0  0  0  0  0  0  0  0  0  0
   -5.5388   -0.1567  -22.6705 H   0  0  0  0  0  0  0  0  0  0  0  0
   -3.5929    1.2985  -23.0269 H   0  0  0  0  0  0  0  0  0  0  0  0
   -2.3652    2.2582  -21.0956 H   0  0  0  0  0  0  0  0  0  0  0  0
   -3.1111    1.7661  -18.7811 H   0  0  0  0  0  0  0  0  0  0  0  0
   -4.6590    0.6353  -17.2440 H   0  0  0  0  0  0  0  0  0  0  0  0
   -7.7296   -1.7442  -18.6307 H   0  0  0  0  0  0  0  0  0  0  0  0
   -8.3937   -0.5359  -21.9060 C   0  0  0  0  0  0  0  0  0  0  0  0
   -9.0081   -1.4911  -22.9420 C   0  0  2  0  0  0  0  0  0  0  0  0
  -10.4539   -1.1540  -23.2790 C   0  0  0  0  0  0  0  0  0  0  0  0
  -11.0628   -1.1324  -22.3673 H   0  0  0  0  0  0  0  0  0  0  0  0
  -10.5338   -0.1816  -23.7702 H   0  0  0  0  0  0  0  0  0  0  0  0
  -10.8676   -1.9190  -23.9410 H   0  0  0  0  0  0  0  0  0  0  0  0
   -8.3960   -1.4456  -23.8558 H   0  0  0  0  0  0  0  0  0  0  0  0
   -7.9281    0.3405  -22.3734 H   0  0  0  0  0  0  0  0  0  0  0  0
   -9.1517   -0.1732  -21.1920 H   0  0  0  0  0  0  0  0  0  0  0  0
   -8.5087   -3.9796  -23.3965 C   0  0  0  0  0  0  0  0  0  0  0  0
   -7.2327   -4.0967  -23.9524 C   0  0  0  0  0  0  0  0  0  0  0  0
   -6.9951   -5.0290  -24.9431 C   0  0  0  0  0  0  0  0  0  0  0  0
   -5.4264   -5.0949  -25.6766 Cl  0  0  0  0  0  0  0  0  0  0  0  0
   -7.9939   -5.8878  -25.3957 C   0  0  0  0  0  0  0  0  0  0  0  0
   -9.2570   -5.7684  -24.8495 C   0  0  0  0  0  0  0  0  0  0  0  0
   -9.5277   -4.7964  -23.8887 C   0  0  0  0  0  0  0  0  0  0  0  0
  -10.9315   -4.5975  -23.4356 C   0  0  0  0  0  0  0  0  0  0  0  0
  -11.8948   -4.9974  -24.0911 O   0  0  0  0  0  0  0  0  0  0  0  0
  -10.0628   -6.4244  -25.1575 H   0  0  0  0  0  0  0  0  0  0  0  0
   -7.7861   -6.6126  -26.1762 H   0  0  0  0  0  0  0  0  0  0  0  0
   -6.4250   -3.4603  -23.6113 H   0  0  0  0  0  0  0  0  0  0  0  0
   -9.6527   -4.1937  -20.7970 H   0  0  0  0  0  0  0  0  0  0  0  0
  -10.3325   -2.5412  -20.8916 H   0  0  0  0  0  0  0  0  0  0  0  0
  -12.9025   -4.8584  -22.1306 H   0  0  0  0  0  0  0  0  0  0  0  0
  -12.3748   -4.1351  -20.5863 H   0  0  0  0  0  0  0  0  0  0  0  0
  -13.4411   -3.5347  -23.9429 H   0  0  0  0  0  0  0  0  0  0  0  0
  -13.8437   -0.7192  -23.7554 H   0  0  0  0  0  0  0  0  0  0  0  0
  -14.8204   -1.7858  -24.7897 H   0  0  0  0  0  0  0  0  0  0  0  0
  -15.3175   -1.4569  -23.1094 H   0  0  0  0  0  0  0  0  0  0  0  0
  1  2  1  0
  2  3  1  0
  3  4  2  0
  3  5  1  0
  5  6  1  0
  6  7  1  0
  8  7  1  1
  8  9  1  0
  9 10  2  0
  9 11  1  0
 11 12  1  0
 12 13  2  0
 13 14  1  0
 14 15  2  0
 15 16  1  0
 16 17  2  0
 17 18  1  0
 18 19  2  0
 19 20  1  0
 20 21  2  0
 20 22  1  0
 19 23  1  0
 18 24  1  0
 17 25  1  0
 15 26  1  0
 13 27  1  0
 11 28  1  0
 28 29  1  0
 29 30  1  0
 30 31  1  0
 30 32  1  0
 30 33  1  0
 29 34  1  6
 28 35  1  0
 28 36  1  0
  8 37  1  0
 37 38  2  0
 38 39  1  0
 39 40  1  0
 39 41  2  0
 41 42  1  0
 42 43  2  0
 43 44  1  0
 44 45  2  0
 42 46  1  0
 41 47  1  0
 38 48  1  0
  7 49  1  0
  7 50  1  0
  5 51  1  0
  5 52  1  0
  2 53  1  0
  1 54  1  0
  1 55  1  0
  1 56  1  0
 44  6  1  0
 29  8  1  0
 43 37  1  0
 21 12  1  0
 21 16  1  0
M  END
>  <cnnaffinities>  (76) 
[6.52828, 6.58869]

>  <score>  (76) 
6.52828

>  <index>  (76) 
78

>  <Smiles>  (76) 
C(N(C(=O)C(N1C([C@@]2(C(=O)N(c3c(nc(c4c(c(c(c(c34)[H])[H])[H])[H])[H])[H])C([C@@]2(C([H])([H])[H])[H])([H])[H])c2c(c(Cl)c(c(c2C1=O)[H])[H])[H])([H])[H])([H])[H])[H])([H])([H])[H]

>  <h>  (76) 
<NA>

>  <Training>  (76) 
True

>  <Success>  (76) 
True

>  <enamine_searched>  (76) 
False

>  <enamine_id>  (76) 
nan

$$$$

     RDKit          3D

 45 49  0  0  0  0  0  0  0  0999 V2000
   -9.4296   -4.0794  -22.3475 C   0  0  0  0  0  0  0  0  0  0  0  0
   -8.7353   -2.8218  -22.1628 N   0  0  0  0  0  0  0  0  0  0  0  0
   -7.5682   -2.7208  -21.4505 C   0  0  0  0  0  0  0  0  0  0  0  0
   -6.8613   -3.6191  -21.0603 O   0  0  0  0  0  0  0  0  0  0  0  0
   -7.3321   -1.3421  -21.2761 N   0  0  0  0  0  0  0  0  0  0  0  0
   -6.5374   -0.8148  -20.2217 C   0  0  0  0  0  0  0  0  0  0  0  0
   -6.8764   -1.0576  -18.9149 C   0  0  0  0  0  0  0  0  0  0  0  0
   -6.2101   -0.5457  -17.8522 N   0  0  0  0  0  0  0  0  0  0  0  0
   -5.1787    0.2241  -18.0965 C   0  0  0  0  0  0  0  0  0  0  0  0
   -4.7130    0.5396  -19.4047 C   0  0  0  0  0  0  0  0  0  0  0  0
   -3.5866    1.3757  -19.6227 C   0  0  0  0  0  0  0  0  0  0  0  0
   -3.1688    1.6475  -20.8966 C   0  0  0  0  0  0  0  0  0  0  0  0
   -3.8565    1.1096  -22.0081 C   0  0  0  0  0  0  0  0  0  0  0  0
   -4.9513    0.3029  -21.8250 C   0  0  0  0  0  0  0  0  0  0  0  0
   -5.4079    0.0054  -20.5106 C   0  0  0  0  0  0  0  0  0  0  0  0
   -5.4833   -0.1076  -22.6792 H   0  0  0  0  0  0  0  0  0  0  0  0
   -3.5146    1.3306  -23.0156 H   0  0  0  0  0  0  0  0  0  0  0  0
   -2.3069    2.2863  -21.0655 H   0  0  0  0  0  0  0  0  0  0  0  0
   -3.0803    1.7951  -18.7576 H   0  0  0  0  0  0  0  0  0  0  0  0
   -4.6516    0.6362  -17.2352 H   0  0  0  0  0  0  0  0  0  0  0  0
   -7.7396   -1.6794  -18.6850 H   0  0  0  0  0  0  0  0  0  0  0  0
   -8.2424   -0.5714  -21.9932 C   0  0  0  0  0  0  0  0  0  0  0  0
   -8.2736    0.6338  -22.0541 O   0  0  0  0  0  0  0  0  0  0  0  0
   -9.1958   -1.5466  -22.6424 C   0  0  0  0  0  0  0  0  0  0  0  0
  -10.6728   -1.1659  -22.4744 C   0  0  0  0  0  0  0  0  0  0  0  0
  -10.8627   -1.1476  -23.9553 N   0  0  0  0  0  0  0  0  0  0  0  0
  -11.8973   -2.2912  -24.6397 S   0  0  0  0  0  0  0  0  0  0  0  0
  -11.1713   -2.7824  -25.8022 O   0  0  0  0  0  0  0  0  0  0  0  0
  -12.3961   -3.1610  -23.5831 O   0  0  0  0  0  0  0  0  0  0  0  0
  -13.2952   -1.3730  -25.1753 C   0  0  0  0  0  0  0  0  0  0  0  0
  -13.7089   -0.1310  -24.3770 C   0  0  0  0  0  0  0  0  0  0  0  0
  -13.7786   -0.4250  -24.3102 C   0  0  0  0  0  0  0  0  0  0  0  0
  -14.4806    0.7938  -24.5628 H   0  0  0  0  0  0  0  0  0  0  0  0
  -12.8295    1.0844  -24.9060 H   0  0  0  0  0  0  0  0  0  0  0  0
  -14.6647   -0.9419  -23.6516 H   0  0  0  0  0  0  0  0  0  0  0  0
  -13.0900   -0.1759  -23.3098 H   0  0  0  0  0  0  0  0  0  0  0  0
  -14.0385   -2.0338  -25.5788 H   0  0  0  0  0  0  0  0  0  0  0  0
   -9.3941   -1.3895  -24.1614 C   0  0  0  0  0  0  0  0  0  0  0  0
   -9.1525   -2.2717  -24.7592 H   0  0  0  0  0  0  0  0  0  0  0  0
   -8.8953   -0.5069  -24.5639 H   0  0  0  0  0  0  0  0  0  0  0  0
  -10.7648   -0.1423  -22.1070 H   0  0  0  0  0  0  0  0  0  0  0  0
  -11.2996   -1.8663  -21.9217 H   0  0  0  0  0  0  0  0  0  0  0  0
   -9.5675   -4.3141  -23.4089 H   0  0  0  0  0  0  0  0  0  0  0  0
   -8.8107   -4.8522  -21.8917 H   0  0  0  0  0  0  0  0  0  0  0  0
  -10.4119   -4.0655  -21.8607 H   0  0  0  0  0  0  0  0  0  0  0  0
  1  2  1  0
  2  3  1  0
  3  4  2  0
  3  5  1  0
  5  6  1  0
  6  7  2  0
  7  8  1  0
  8  9  2  0
  9 10  1  0
 10 11  2  0
 11 12  1  0
 12 13  2  0
 13 14  1  0
 14 15  2  0
 14 16  1  0
 13 17  1  0
 12 18  1  0
 11 19  1  0
  9 20  1  0
  7 21  1  0
  5 22  1  0
 22 23  2  0
 22 24  1  0
 24 25  1  0
 25 26  1  0
 26 27  1  0
 27 28  2  0
 27 29  2  0
 27 30  1  0
 30 31  1  0
 31 32  1  0
 32 33  1  0
 32 34  1  0
 31 35  1  0
 31 36  1  0
 30 37  1  0
 26 38  1  0
 38 39  1  0
 38 40  1  0
 25 41  1  0
 25 42  1  0
  1 43  1  0
  1 44  1  0
  1 45  1  0
 24  2  1  0
 32 30  1  0
 15  6  1  0
 38 24  1  0
 15 10  1  0
M  END
>  <cnnaffinities>  (77) 
[5.52569]

>  <score>  (77) 
5.52569

>  <index>  (77) 
79

>  <Smiles>  (77) 
C(N1C(=O)N(c2c(nc(c3c(c(c(c(c23)[H])[H])[H])[H])[H])[H])C(=O)C21C(N(S(=O)(=O)C1(C(C1([H])[H])([H])[H])[H])C2([H])[H])([H])[H])([H])([H])[H]

>  <h>  (77) 
<NA>

>  <Training>  (77) 
True

>  <Success>  (77) 
True

>  <enamine_searched>  (77) 
False

>  <enamine_id>  (77) 
nan

$$$$

     RDKit          3D

 60 65  0  0  0  0  0  0  0  0999 V2000
   -8.4908    2.1999  -28.9508 C   0  0  0  0  0  0  0  0  0  0  0  0
   -8.7262    2.2378  -27.5119 N   0  0  0  0  0  0  0  0  0  0  0  0
   -7.9126    1.5372  -26.6788 C   0  0  0  0  0  0  0  0  0  0  0  0
   -6.9279    0.9332  -27.0863 O   0  0  0  0  0  0  0  0  0  0  0  0
   -8.2767    1.5942  -25.1922 C   0  0  0  0  0  0  0  0  0  0  0  0
   -9.0428    0.4986  -24.6568 N   0  0  0  0  0  0  0  0  0  0  0  0
   -8.3832   -0.7663  -24.3812 C   0  0  0  0  0  0  0  0  0  0  0  0
   -8.8888   -1.4217  -23.0684 C   0  0  2  0  0  0  0  0  0  0  0  0
   -8.3668   -0.6325  -21.8427 C   0  0  0  0  0  0  0  0  0  0  0  0
   -8.7083    0.4786  -21.4818 O   0  0  0  0  0  0  0  0  0  0  0  0
   -7.4141   -1.3853  -21.1950 N   0  0  0  0  0  0  0  0  0  0  0  0
   -6.6051   -0.8135  -20.1731 C   0  0  0  0  0  0  0  0  0  0  0  0
   -6.9029   -1.0503  -18.8586 C   0  0  0  0  0  0  0  0  0  0  0  0
   -6.1937   -0.5551  -17.8153 N   0  0  0  0  0  0  0  0  0  0  0  0
   -5.1657    0.2079  -18.0860 C   0  0  0  0  0  0  0  0  0  0  0  0
   -4.7347    0.5302  -19.4032 C   0  0  0  0  0  0  0  0  0  0  0  0
   -3.6058    1.3604  -19.6431 C   0  0  0  0  0  0  0  0  0  0  0  0
   -3.2101    1.6447  -20.9200 C   0  0  0  0  0  0  0  0  0  0  0  0
   -3.9234    1.1033  -22.0133 C   0  0  0  0  0  0  0  0  0  0  0  0
   -5.0123    0.2909  -21.8066 C   0  0  0  0  0  0  0  0  0  0  0  0
   -5.4664   -0.0033  -20.4899 C   0  0  0  0  0  0  0  0  0  0  0  0
   -5.5326   -0.1327  -22.6613 H   0  0  0  0  0  0  0  0  0  0  0  0
   -3.6149    1.3330  -23.0296 H   0  0  0  0  0  0  0  0  0  0  0  0
   -2.3562    2.2936  -21.1001 H   0  0  0  0  0  0  0  0  0  0  0  0
   -3.0837    1.7717  -18.7820 H   0  0  0  0  0  0  0  0  0  0  0  0
   -4.6198    0.6153  -17.2336 H   0  0  0  0  0  0  0  0  0  0  0  0
   -7.7530   -1.6738  -18.5903 H   0  0  0  0  0  0  0  0  0  0  0  0
   -7.1023   -2.6402  -21.8477 C   0  0  0  0  0  0  0  0  0  0  0  0
   -8.2663   -2.8463  -22.8404 C   0  0  2  0  0  0  0  0  0  0  0  0
   -7.8285   -3.6340  -24.0821 C   0  0  0  0  0  0  0  0  0  0  0  0
   -8.6472   -3.7753  -24.7966 H   0  0  0  0  0  0  0  0  0  0  0  0
   -7.0122   -3.1216  -24.6059 H   0  0  0  0  0  0  0  0  0  0  0  0
   -7.4594   -4.6276  -23.8025 H   0  0  0  0  0  0  0  0  0  0  0  0
   -9.0401   -3.4234  -22.3304 H   0  0  0  0  0  0  0  0  0  0  0  0
   -7.0192   -3.4436  -21.1050 H   0  0  0  0  0  0  0  0  0  0  0  0
   -6.1385   -2.5865  -22.3783 H   0  0  0  0  0  0  0  0  0  0  0  0
  -10.4105   -1.3765  -23.0716 C   0  0  0  0  0  0  0  0  0  0  0  0
  -11.1295   -2.1648  -22.1597 C   0  0  0  0  0  0  0  0  0  0  0  0
  -12.5108   -2.1224  -22.1454 C   0  0  0  0  0  0  0  0  0  0  0  0
  -13.3917   -3.1141  -21.0185 Cl  0  0  0  0  0  0  0  0  0  0  0  0
  -13.2166   -1.2870  -23.0108 C   0  0  0  0  0  0  0  0  0  0  0  0
  -12.5146   -0.4550  -23.8613 C   0  0  0  0  0  0  0  0  0  0  0  0
  -11.1194   -0.4669  -23.8756 C   0  0  0  0  0  0  0  0  0  0  0  0
  -10.4124    0.5642  -24.7035 C   0  0  0  0  0  0  0  0  0  0  0  0
  -10.9962    1.4331  -25.3429 O   0  0  0  0  0  0  0  0  0  0  0  0
  -13.0162    0.2485  -24.5177 H   0  0  0  0  0  0  0  0  0  0  0  0
  -14.2994   -1.2796  -22.9834 H   0  0  0  0  0  0  0  0  0  0  0  0
  -10.6321   -2.7971  -21.4310 H   0  0  0  0  0  0  0  0  0  0  0  0
   -8.5695   -1.4623  -25.2128 H   0  0  0  0  0  0  0  0  0  0  0  0
   -7.3155   -0.5571  -24.3164 H   0  0  0  0  0  0  0  0  0  0  0  0
   -8.4389    2.9445  -24.5491 C   0  0  0  0  0  0  0  0  0  0  0  0
   -7.1890    2.1461  -24.3061 C   0  0  0  0  0  0  0  0  0  0  0  0
   -6.2631    2.4348  -24.8001 H   0  0  0  0  0  0  0  0  0  0  0  0
   -7.0781    1.6643  -23.3374 H   0  0  0  0  0  0  0  0  0  0  0  0
   -8.4047    3.8250  -25.1879 H   0  0  0  0  0  0  0  0  0  0  0  0
   -9.1575    3.0165  -23.7376 H   0  0  0  0  0  0  0  0  0  0  0  0
   -9.6026    2.5809  -27.1389 H   0  0  0  0  0  0  0  0  0  0  0  0
   -9.2797    2.7712  -29.4480 H   0  0  0  0  0  0  0  0  0  0  0  0
   -8.4864    1.1707  -29.3339 H   0  0  0  0  0  0  0  0  0  0  0  0
   -7.5151    2.6355  -29.2042 H   0  0  0  0  0  0  0  0  0  0  0  0
  1  2  1  0
  2  3  1  0
  3  4  2  0
  3  5  1  0
  5  6  1  0
  6  7  1  0
  8  7  1  6
  8  9  1  0
  9 10  2  0
  9 11  1  0
 11 12  1  0
 12 13  2  0
 13 14  1  0
 14 15  2  0
 15 16  1  0
 16 17  2  0
 17 18  1  0
 18 19  2  0
 19 20  1  0
 20 21  2  0
 20 22  1  0
 19 23  1  0
 18 24  1  0
 17 25  1  0
 15 26  1  0
 13 27  1  0
 11 28  1  0
 28 29  1  0
 29 30  1  0
 30 31  1  0
 30 32  1  0
 30 33  1  0
 29 34  1  1
 28 35  1  0
 28 36  1  0
  8 37  1  0
 37 38  2  0
 38 39  1  0
 39 40  1  0
 39 41  2  0
 41 42  1  0
 42 43  2  0
 43 44  1  0
 44 45  2  0
 42 46  1  0
 41 47  1  0
 38 48  1  0
  7 49  1  0
  7 50  1  0
  5 51  1  0
 51 52  1  0
 52 53  1  0
 52 54  1  0
 51 55  1  0
 51 56  1  0
  2 57  1  0
  1 58  1  0
  1 59  1  0
  1 60  1  0
 52  5  1  0
 44  6  1  0
 29  8  1  0
 43 37  1  0
 21 12  1  0
 21 16  1  0
M  END
>  <cnnaffinities>  (78) 
[6.72269, 5.90309]

>  <score>  (78) 
6.72269

>  <index>  (78) 
80

>  <Smiles>  (78) 
C(N(C(=O)C1(N2C([C@@]3(C(=O)N(c4c(nc(c5c(c(c(c(c45)[H])[H])[H])[H])[H])[H])C([C@@]3(C([H])([H])[H])[H])([H])[H])c3c(c(Cl)c(c(c3C2=O)[H])[H])[H])([H])[H])C(C1([H])[H])([H])[H])[H])([H])([H])[H]

>  <h>  (78) 
<NA>

>  <Training>  (78) 
True

>  <Success>  (78) 
True

>  <enamine_searched>  (78) 
False

>  <enamine_id>  (78) 
nan

$$$$

     RDKit          3D

 36 38  0  0  0  0  0  0  0  0999 V2000
   -8.5050    0.7116  -21.4642 O   0  0  0  0  0  0  0  0  0  0  0  0
   -8.3855   -0.4018  -21.9334 C   0  0  0  0  0  0  0  0  0  0  0  0
   -7.4388   -1.4330  -21.2758 C   0  0  0  0  0  0  0  0  0  0  0  0
   -6.5820   -0.8279  -20.1852 C   0  0  0  0  0  0  0  0  0  0  0  0
   -6.8780   -1.0391  -18.8632 C   0  0  0  0  0  0  0  0  0  0  0  0
   -6.1885   -0.5362  -17.8052 N   0  0  0  0  0  0  0  0  0  0  0  0
   -5.1551    0.2238  -18.0674 C   0  0  0  0  0  0  0  0  0  0  0  0
   -4.7232    0.5357  -19.3836 C   0  0  0  0  0  0  0  0  0  0  0  0
   -3.5970    1.3653  -19.6221 C   0  0  0  0  0  0  0  0  0  0  0  0
   -3.2090    1.6594  -20.9017 C   0  0  0  0  0  0  0  0  0  0  0  0
   -3.9357    1.1334  -21.9926 C   0  0  0  0  0  0  0  0  0  0  0  0
   -5.0279    0.3247  -21.7868 C   0  0  0  0  0  0  0  0  0  0  0  0
   -5.4549    0.0017  -20.4732 C   0  0  0  0  0  0  0  0  0  0  0  0
   -5.5738   -0.0677  -22.6378 H   0  0  0  0  0  0  0  0  0  0  0  0
   -3.6227    1.3679  -23.0049 H   0  0  0  0  0  0  0  0  0  0  0  0
   -2.3529    2.3023  -21.0874 H   0  0  0  0  0  0  0  0  0  0  0  0
   -3.0597    1.7761  -18.7707 H   0  0  0  0  0  0  0  0  0  0  0  0
   -4.6020    0.6275  -17.2167 H   0  0  0  0  0  0  0  0  0  0  0  0
   -7.7277   -1.6588  -18.5836 H   0  0  0  0  0  0  0  0  0  0  0  0
   -6.8021   -1.8991  -22.0403 H   0  0  0  0  0  0  0  0  0  0  0  0
   -8.0409   -2.2450  -20.8444 H   0  0  0  0  0  0  0  0  0  0  0  0
   -9.0623   -0.7716  -23.0888 N   0  0  0  0  0  0  0  0  0  0  0  0
  -10.0069    0.1958  -23.6424 C   0  0  0  0  0  0  0  0  0  0  0  0
  -11.3806    0.2155  -23.0206 C   0  0  0  0  0  0  0  0  0  0  0  0
  -12.0210   -0.7914  -22.4170 C   0  0  0  0  0  0  0  0  0  0  0  0
  -11.5702   -2.1750  -22.1563 C   0  0  0  0  0  0  0  0  0  0  0  0
  -10.4468   -2.7806  -22.5513 C   0  0  0  0  0  0  0  0  0  0  0  0
   -9.3680   -2.1604  -23.4045 C   0  0  0  0  0  0  0  0  0  0  0  0
   -8.4502   -2.7534  -23.3598 H   0  0  0  0  0  0  0  0  0  0  0  0
   -9.6846   -2.1769  -24.4539 H   0  0  0  0  0  0  0  0  0  0  0  0
  -10.2825   -3.8154  -22.2473 H   0  0  0  0  0  0  0  0  0  0  0  0
  -12.2759   -2.7638  -21.5735 H   0  0  0  0  0  0  0  0  0  0  0  0
  -13.0200   -0.5787  -22.0392 H   0  0  0  0  0  0  0  0  0  0  0  0
  -11.8929    1.1789  -23.0817 H   0  0  0  0  0  0  0  0  0  0  0  0
  -10.1139   -0.0406  -24.7079 H   0  0  0  0  0  0  0  0  0  0  0  0
   -9.5584    1.1916  -23.5957 H   0  0  0  0  0  0  0  0  0  0  0  0
  1  2  2  0
  2  3  1  0
  3  4  1  0
  4  5  2  0
  5  6  1  0
  6  7  2  0
  7  8  1  0
  8  9  2  0
  9 10  1  0
 10 11  2  0
 11 12  1  0
 12 13  2  0
 12 14  1  0
 11 15  1  0
 10 16  1  0
  9 17  1  0
  7 18  1  0
  5 19  1  0
  3 20  1  0
  3 21  1  0
  2 22  1  0
 22 23  1  0
 23 24  1  0
 24 25  2  0
 25 26  1  0
 26 27  2  0
 27 28  1  0
 28 29  1  0
 28 30  1  0
 27 31  1  0
 26 32  1  0
 25 33  1  0
 24 34  1  0
 23 35  1  0
 23 36  1  0
 13  4  1  0
 28 22  1  0
 13  8  1  0
M  END
>  <cnnaffinities>  (79) 
[4.51933, 4.51933, 5.23935, 5.23936, 5.01642]

>  <score>  (79) 
4.51933

>  <index>  (79) 
81

>  <Smiles>  (79) 
O=C(C(c1c(nc(c2c(c(c(c(c12)[H])[H])[H])[H])[H])[H])([H])[H])N1C(C(=C(C(=C(C1([H])[H])[H])[H])[H])[H])([H])[H]

>  <h>  (79) 
<NA>

>  <Training>  (79) 
True

>  <Success>  (79) 
True

>  <enamine_searched>  (79) 
False

>  <enamine_id>  (79) 
nan

$$$$

     RDKit          3D

 54 57  0  0  0  0  0  0  0  0999 V2000
  -10.7227    0.3903  -25.3863 C   0  0  0  0  0  0  0  0  0  0  0  0
   -9.8315   -0.6014  -24.9253 O   0  0  0  0  0  0  0  0  0  0  0  0
   -8.4988   -0.5211  -25.2210 C   0  0  0  0  0  0  0  0  0  0  0  0
   -7.9445    0.5083  -25.9872 C   0  0  0  0  0  0  0  0  0  0  0  0
   -6.5730    0.5267  -26.2376 C   0  0  0  0  0  0  0  0  0  0  0  0
   -5.7486   -0.4654  -25.7282 C   0  0  0  0  0  0  0  0  0  0  0  0
   -6.3151   -1.4742  -24.9548 C   0  0  0  0  0  0  0  0  0  0  0  0
   -7.6778   -1.5430  -24.6900 C   0  0  0  0  0  0  0  0  0  0  0  0
   -8.2980   -2.6711  -23.8512 C   0  0  1  0  0  0  0  0  0  0  0  0
   -9.1406   -3.6540  -24.6928 C   0  0  0  0  0  0  0  0  0  0  0  0
   -8.4102   -4.8645  -25.2727 C   0  0  1  0  0  0  0  0  0  0  0  0
   -7.5084   -4.5372  -26.4631 C   0  0  0  0  0  0  0  0  0  0  0  0
   -6.6824   -3.8744  -26.1904 H   0  0  0  0  0  0  0  0  0  0  0  0
   -7.0752   -5.4494  -26.8903 H   0  0  0  0  0  0  0  0  0  0  0  0
   -8.0723   -4.0326  -27.2552 H   0  0  0  0  0  0  0  0  0  0  0  0
   -7.6722   -5.5501  -24.1298 C   0  0  0  0  0  0  0  0  0  0  0  0
   -6.7088   -4.6184  -23.4098 C   0  0  0  0  0  0  0  0  0  0  0  0
   -7.3477   -3.3686  -22.9696 N   0  0  0  0  0  0  0  0  0  0  0  0
   -6.7437   -2.7418  -21.8864 C   0  0  0  0  0  0  0  0  0  0  0  0
   -5.7289   -3.1955  -21.3865 O   0  0  0  0  0  0  0  0  0  0  0  0
   -7.4021   -1.4739  -21.2826 C   0  0  0  0  0  0  0  0  0  0  0  0
   -6.5764   -0.8348  -20.1870 C   0  0  0  0  0  0  0  0  0  0  0  0
   -6.8706   -1.0486  -18.8659 C   0  0  0  0  0  0  0  0  0  0  0  0
   -6.1842   -0.5419  -17.8060 N   0  0  0  0  0  0  0  0  0  0  0  0
   -5.1566    0.2240  -18.0688 C   0  0  0  0  0  0  0  0  0  0  0  0
   -4.7194    0.5309  -19.3835 C   0  0  0  0  0  0  0  0  0  0  0  0
   -3.5919    1.3562  -19.6240 C   0  0  0  0  0  0  0  0  0  0  0  0
   -3.1932    1.6351  -20.9012 C   0  0  0  0  0  0  0  0  0  0  0  0
   -3.9105    1.0954  -21.9925 C   0  0  0  0  0  0  0  0  0  0  0  0
   -5.0045    0.2894  -21.7898 C   0  0  0  0  0  0  0  0  0  0  0  0
   -5.4448   -0.0139  -20.4771 C   0  0  0  0  0  0  0  0  0  0  0  0
   -5.5366   -0.1212  -22.6460 H   0  0  0  0  0  0  0  0  0  0  0  0
   -3.5860    1.3152  -23.0051 H   0  0  0  0  0  0  0  0  0  0  0  0
   -2.3320    2.2736  -21.0877 H   0  0  0  0  0  0  0  0  0  0  0  0
   -3.0597    1.7734  -18.7706 H   0  0  0  0  0  0  0  0  0  0  0  0
   -4.6042    0.6287  -17.2158 H   0  0  0  0  0  0  0  0  0  0  0  0
   -7.7190   -1.6709  -18.5844 H   0  0  0  0  0  0  0  0  0  0  0  0
   -7.6265   -0.7388  -22.0675 H   0  0  0  0  0  0  0  0  0  0  0  0
   -8.3723   -1.7759  -20.8620 H   0  0  0  0  0  0  0  0  0  0  0  0
   -6.3147   -5.1126  -22.5205 H   0  0  0  0  0  0  0  0  0  0  0  0
   -5.8295   -4.4357  -24.0467 H   0  0  0  0  0  0  0  0  0  0  0  0
   -8.4009   -5.9330  -23.4096 H   0  0  0  0  0  0  0  0  0  0  0  0
   -7.1268   -6.4214  -24.5082 H   0  0  0  0  0  0  0  0  0  0  0  0
   -9.1797   -5.5591  -25.6451 H   0  0  0  0  0  0  0  0  0  0  0  0
   -9.6152   -3.0918  -25.4981 H   0  0  0  0  0  0  0  0  0  0  0  0
   -9.9590   -4.0206  -24.0615 H   0  0  0  0  0  0  0  0  0  0  0  0
   -9.0162   -2.1793  -23.1895 H   0  0  0  0  0  0  0  0  0  0  0  0
   -5.6643   -2.2492  -24.5672 H   0  0  0  0  0  0  0  0  0  0  0  0
   -4.6756   -0.4615  -25.9138 H   0  0  0  0  0  0  0  0  0  0  0  0
   -6.1413    1.3279  -26.8287 H   0  0  0  0  0  0  0  0  0  0  0  0
   -8.5696    1.3015  -26.3915 H   0  0  0  0  0  0  0  0  0  0  0  0
  -11.6941    0.0966  -24.9959 H   0  0  0  0  0  0  0  0  0  0  0  0
  -10.7806    0.4485  -26.4796 H   0  0  0  0  0  0  0  0  0  0  0  0
  -10.5126    1.3987  -25.0103 H   0  0  0  0  0  0  0  0  0  0  0  0
  1  2  1  0
  2  3  1  0
  3  4  2  0
  4  5  1  0
  5  6  2  0
  6  7  1  0
  7  8  2  0
  8  9  1  0
  9 10  1  0
 10 11  1  0
 11 12  1  0
 12 13  1  0
 12 14  1  0
 12 15  1  0
 11 16  1  0
 16 17  1  0
 17 18  1  0
 18 19  1  0
 19 20  2  0
 19 21  1  0
 21 22  1  0
 22 23  2  0
 23 24  1  0
 24 25  2  0
 25 26  1  0
 26 27  2  0
 27 28  1  0
 28 29  2  0
 29 30  1  0
 30 31  2  0
 30 32  1  0
 29 33  1  0
 28 34  1  0
 27 35  1  0
 25 36  1  0
 23 37  1  0
 21 38  1  0
 21 39  1  0
 17 40  1  0
 17 41  1  0
 16 42  1  0
 16 43  1  0
 11 44  1  6
 10 45  1  0
 10 46  1  0
  9 47  1  1
  7 48  1  0
  6 49  1  0
  5 50  1  0
  4 51  1  0
  1 52  1  0
  1 53  1  0
  1 54  1  0
  8  3  1  0
 18  9  1  0
 31 22  1  0
 31 26  1  0
M  END
>  <cnnaffinities>  (80) 
[5.73365, 5.90082, 5.58856]

>  <score>  (80) 
5.73365

>  <index>  (80) 
82

>  <Smiles>  (80) 
C(Oc1c(c(c(c(c1[C@]1(C([C@@](C([H])([H])[H])(C(C(N1C(=O)C(c1c(nc(c2c(c(c(c(c12)[H])[H])[H])[H])[H])[H])([H])[H])([H])[H])([H])[H])[H])([H])[H])[H])[H])[H])[H])[H])([H])([H])[H]

>  <h>  (80) 
<NA>

>  <Training>  (80) 
True

>  <Success>  (80) 
True

>  <enamine_searched>  (80) 
False

>  <enamine_id>  (80) 
nan

$$$$

     RDKit          3D

 46 50  0  0  0  0  0  0  0  0999 V2000
   -3.6353   -1.0710  -25.3742 N   0  0  0  0  0  0  0  0  0  0  0  0
   -4.5341   -2.0117  -26.3777 S   0  0  0  0  0  0  0  0  0  0  0  0
   -4.3129   -3.3704  -25.9184 O   0  0  0  0  0  0  0  0  0  0  0  0
   -4.1990   -1.5786  -27.7212 O   0  0  0  0  0  0  0  0  0  0  0  0
   -6.2379   -1.5875  -26.0932 C   0  0  0  0  0  0  0  0  0  0  0  0
   -6.9830   -0.9827  -27.1017 C   0  0  0  0  0  0  0  0  0  0  0  0
   -8.2930   -0.6213  -26.8499 C   0  0  0  0  0  0  0  0  0  0  0  0
   -8.8574   -0.8485  -25.5926 C   0  0  0  0  0  0  0  0  0  0  0  0
   -8.1077   -1.4501  -24.5787 C   0  0  0  0  0  0  0  0  0  0  0  0
   -6.7883   -1.8066  -24.8406 C   0  0  0  0  0  0  0  0  0  0  0  0
   -6.1898   -2.2783  -24.0671 H   0  0  0  0  0  0  0  0  0  0  0  0
   -8.6925   -1.6765  -23.1965 C   0  0  1  0  0  0  0  0  0  0  0  0
  -10.2261   -1.5917  -23.2579 C   0  0  0  0  0  0  0  0  0  0  0  0
  -10.6720   -0.4110  -24.1051 C   0  0  0  0  0  0  0  0  0  0  0  0
  -10.1584   -0.4871  -25.4365 O   0  0  0  0  0  0  0  0  0  0  0  0
  -10.3636    0.5315  -23.6329 H   0  0  0  0  0  0  0  0  0  0  0  0
  -11.7577   -0.4207  -24.2333 H   0  0  0  0  0  0  0  0  0  0  0  0
  -10.6013   -1.5109  -22.2355 H   0  0  0  0  0  0  0  0  0  0  0  0
  -10.6178   -2.5252  -23.6860 H   0  0  0  0  0  0  0  0  0  0  0  0
   -8.2714   -2.9140  -22.5798 N   0  0  0  0  0  0  0  0  0  0  0  0
   -7.4481   -2.7734  -21.5016 C   0  0  0  0  0  0  0  0  0  0  0  0
   -6.8264   -3.6334  -20.9286 O   0  0  0  0  0  0  0  0  0  0  0  0
   -7.4154   -1.3905  -21.2180 N   0  0  0  0  0  0  0  0  0  0  0  0
   -6.5949   -0.8259  -20.2002 C   0  0  0  0  0  0  0  0  0  0  0  0
   -6.9008   -1.0683  -18.8860 C   0  0  0  0  0  0  0  0  0  0  0  0
   -6.2093   -0.5508  -17.8462 N   0  0  0  0  0  0  0  0  0  0  0  0
   -5.1782    0.2103  -18.1039 C   0  0  0  0  0  0  0  0  0  0  0  0
   -4.7312    0.5188  -19.4148 C   0  0  0  0  0  0  0  0  0  0  0  0
   -3.5971    1.3434  -19.6401 C   0  0  0  0  0  0  0  0  0  0  0  0
   -3.1812    1.6099  -20.9143 C   0  0  0  0  0  0  0  0  0  0  0  0
   -3.8825    1.0548  -22.0094 C   0  0  0  0  0  0  0  0  0  0  0  0
   -4.9784    0.2534  -21.8184 C   0  0  0  0  0  0  0  0  0  0  0  0
   -5.4479   -0.0230  -20.5047 C   0  0  0  0  0  0  0  0  0  0  0  0
   -5.5121   -0.1678  -22.6689 H   0  0  0  0  0  0  0  0  0  0  0  0
   -3.5468    1.2654  -23.0200 H   0  0  0  0  0  0  0  0  0  0  0  0
   -2.3192    2.2486  -21.0891 H   0  0  0  0  0  0  0  0  0  0  0  0
   -3.0826    1.7603  -18.7794 H   0  0  0  0  0  0  0  0  0  0  0  0
   -4.6366    0.6119  -17.2476 H   0  0  0  0  0  0  0  0  0  0  0  0
   -7.7490   -1.6912  -18.6132 H   0  0  0  0  0  0  0  0  0  0  0  0
   -8.1076   -0.6637  -22.1907 C   0  0  0  0  0  0  0  0  0  0  0  0
   -8.2112    0.5377  -22.2313 O   0  0  0  0  0  0  0  0  0  0  0  0
   -8.4474   -3.8190  -22.9859 H   0  0  0  0  0  0  0  0  0  0  0  0
   -8.9123   -0.1691  -27.6127 H   0  0  0  0  0  0  0  0  0  0  0  0
   -6.5250   -0.8152  -28.0695 H   0  0  0  0  0  0  0  0  0  0  0  0
   -3.7412   -0.0808  -25.5581 H   0  0  0  0  0  0  0  0  0  0  0  0
   -3.6642   -1.3518  -24.3979 H   0  0  0  0  0  0  0  0  0  0  0  0
  1  2  1  0
  2  3  2  0
  2  4  2  0
  2  5  1  0
  5  6  2  0
  6  7  1  0
  7  8  2  0
  8  9  1  0
  9 10  2  0
 10 11  1  0
  9 12  1  0
 12 13  1  0
 13 14  1  0
 14 15  1  0
 14 16  1  0
 14 17  1  0
 13 18  1  0
 13 19  1  0
 12 20  1  1
 20 21  1  0
 21 22  2  0
 21 23  1  0
 23 24  1  0
 24 25  2  0
 25 26  1  0
 26 27  2  0
 27 28  1  0
 28 29  2  0
 29 30  1  0
 30 31  2  0
 31 32  1  0
 32 33  2  0
 32 34  1  0
 31 35  1  0
 30 36  1  0
 29 37  1  0
 27 38  1  0
 25 39  1  0
 23 40  1  0
 40 41  2  0
 20 42  1  0
  7 43  1  0
  6 44  1  0
  1 45  1  0
  1 46  1  0
 10  5  1  0
 40 12  1  0
 15  8  1  0
 33 24  1  0
 33 28  1  0
M  END
>  <cnnaffinities>  (81) 
[5.41402]

>  <score>  (81) 
5.41402

>  <index>  (81) 
83

>  <Smiles>  (81) 
N(S(=O)(=O)c1c(c(c2c(c1[H])[C@@]1(C(C(O2)([H])[H])([H])[H])N(C(=O)N(c2c(nc(c3c(c(c(c(c23)[H])[H])[H])[H])[H])[H])C1=O)[H])[H])[H])([H])[H]

>  <h>  (81) 
<NA>

>  <Training>  (81) 
True

>  <Success>  (81) 
True

>  <enamine_searched>  (81) 
False

>  <enamine_id>  (81) 
nan

$$$$

     RDKit          3D

 63 68  0  0  0  0  0  0  0  0999 V2000
   -8.1567   -3.7807  -23.9091 C   0  0  0  0  0  0  0  0  0  0  0  0
   -8.3372   -3.0339  -22.5946 C   0  0  1  0  0  0  0  0  0  0  0  0
   -7.0210   -2.4530  -22.0453 C   0  0  0  0  0  0  0  0  0  0  0  0
   -7.4703   -1.3582  -21.2119 N   0  0  0  0  0  0  0  0  0  0  0  0
   -6.6725   -0.7821  -20.1838 C   0  0  0  0  0  0  0  0  0  0  0  0
   -6.9708   -1.0146  -18.8624 C   0  0  0  0  0  0  0  0  0  0  0  0
   -6.2506   -0.5295  -17.8230 N   0  0  0  0  0  0  0  0  0  0  0  0
   -5.2116    0.2214  -18.0912 C   0  0  0  0  0  0  0  0  0  0  0  0
   -4.7759    0.5303  -19.4095 C   0  0  0  0  0  0  0  0  0  0  0  0
   -3.6565    1.3726  -19.6550 C   0  0  0  0  0  0  0  0  0  0  0  0
   -3.2703    1.6619  -20.9352 C   0  0  0  0  0  0  0  0  0  0  0  0
   -3.9983    1.1413  -22.0250 C   0  0  0  0  0  0  0  0  0  0  0  0
   -5.0906    0.3271  -21.8131 C   0  0  0  0  0  0  0  0  0  0  0  0
   -5.5131    0.0002  -20.4959 C   0  0  0  0  0  0  0  0  0  0  0  0
   -5.6791   -0.0049  -22.6619 H   0  0  0  0  0  0  0  0  0  0  0  0
   -3.7098    1.3977  -23.0401 H   0  0  0  0  0  0  0  0  0  0  0  0
   -2.4251    2.3212  -21.1150 H   0  0  0  0  0  0  0  0  0  0  0  0
   -3.1403    1.8016  -18.8015 H   0  0  0  0  0  0  0  0  0  0  0  0
   -4.6484    0.6274  -17.2477 H   0  0  0  0  0  0  0  0  0  0  0  0
   -7.8216   -1.6376  -18.5953 H   0  0  0  0  0  0  0  0  0  0  0  0
   -8.7502   -0.9393  -21.5073 C   0  0  0  0  0  0  0  0  0  0  0  0
   -9.3085    0.0092  -20.9883 O   0  0  0  0  0  0  0  0  0  0  0  0
   -9.3478   -1.8488  -22.6219 C   0  0  1  0  0  0  0  0  0  0  0  0
   -9.3161   -1.1170  -24.0011 C   0  0  0  0  0  0  0  0  0  0  0  0
  -10.3090   -0.0634  -24.1488 N   0  0  0  0  0  0  0  0  0  0  0  0
   -9.9182    1.1382  -24.8731 C   0  0  0  0  0  0  0  0  0  0  0  0
   -8.6842    1.7215  -24.1699 C   0  0  0  0  0  0  0  0  0  0  0  0
   -7.5521    1.6689  -24.6274 O   0  0  0  0  0  0  0  0  0  0  0  0
   -8.9846    2.2022  -22.9381 N   0  0  0  0  0  0  0  0  0  0  0  0
   -7.9981    2.5211  -21.9315 C   0  0  0  0  0  0  0  0  0  0  0  0
   -7.5094    3.9421  -22.0205 C   0  0  0  0  0  0  0  0  0  0  0  0
   -8.5326    4.8563  -21.9802 F   0  0  0  0  0  0  0  0  0  0  0  0
   -6.3589    4.2846  -22.8957 C   0  0  0  0  0  0  0  0  0  0  0  0
   -6.2308    4.3573  -21.3861 C   0  0  0  0  0  0  0  0  0  0  0  0
   -5.6473    3.5768  -20.8988 H   0  0  0  0  0  0  0  0  0  0  0  0
   -6.2082    5.3452  -20.9326 H   0  0  0  0  0  0  0  0  0  0  0  0
   -5.8786    3.4648  -23.4308 H   0  0  0  0  0  0  0  0  0  0  0  0
   -6.4355    5.2223  -23.4316 H   0  0  0  0  0  0  0  0  0  0  0  0
   -8.4493    2.3178  -20.9583 H   0  0  0  0  0  0  0  0  0  0  0  0
   -7.1411    1.8518  -22.0621 H   0  0  0  0  0  0  0  0  0  0  0  0
   -9.9378    2.1087  -22.6173 H   0  0  0  0  0  0  0  0  0  0  0  0
   -9.7077    0.9241  -25.9248 H   0  0  0  0  0  0  0  0  0  0  0  0
  -10.7617    1.8315  -24.8069 H   0  0  0  0  0  0  0  0  0  0  0  0
  -11.5182   -0.0862  -23.5287 C   0  0  0  0  0  0  0  0  0  0  0  0
  -12.3057    0.8508  -23.6039 O   0  0  0  0  0  0  0  0  0  0  0  0
  -11.8251   -1.3185  -22.7411 C   0  0  0  0  0  0  0  0  0  0  0  0
  -13.1644   -1.5339  -22.4156 C   0  0  0  0  0  0  0  0  0  0  0  0
  -13.5337   -2.5983  -21.6265 C   0  0  0  0  0  0  0  0  0  0  0  0
  -12.5216   -3.4503  -21.2150 C   0  0  0  0  0  0  0  0  0  0  0  0
  -12.8504   -4.3792  -20.3079 F   0  0  0  0  0  0  0  0  0  0  0  0
  -11.2004   -3.3306  -21.6089 C   0  0  0  0  0  0  0  0  0  0  0  0
  -10.8060   -2.2016  -22.3397 C   0  0  0  0  0  0  0  0  0  0  0  0
  -10.5045   -4.0874  -21.2596 H   0  0  0  0  0  0  0  0  0  0  0  0
  -14.5559   -2.7717  -21.3033 H   0  0  0  0  0  0  0  0  0  0  0  0
  -13.9029   -0.8357  -22.7876 H   0  0  0  0  0  0  0  0  0  0  0  0
   -9.4744   -1.8443  -24.8042 H   0  0  0  0  0  0  0  0  0  0  0  0
   -8.3324   -0.6655  -24.1485 H   0  0  0  0  0  0  0  0  0  0  0  0
   -6.3577   -2.1061  -22.8535 H   0  0  0  0  0  0  0  0  0  0  0  0
   -6.4582   -3.1877  -21.4595 H   0  0  0  0  0  0  0  0  0  0  0  0
   -8.6929   -3.7319  -21.8316 H   0  0  0  0  0  0  0  0  0  0  0  0
   -7.7031   -3.1292  -24.6652 H   0  0  0  0  0  0  0  0  0  0  0  0
   -7.5017   -4.6482  -23.7898 H   0  0  0  0  0  0  0  0  0  0  0  0
   -9.1198   -4.1259  -24.2990 H   0  0  0  0  0  0  0  0  0  0  0  0
  1  2  1  0
  2  3  1  0
  3  4  1  0
  4  5  1  0
  5  6  2  0
  6  7  1  0
  7  8  2  0
  8  9  1  0
  9 10  2  0
 10 11  1  0
 11 12  2  0
 12 13  1  0
 13 14  2  0
 13 15  1  0
 12 16  1  0
 11 17  1  0
 10 18  1  0
  8 19  1  0
  6 20  1  0
  4 21  1  0
 21 22  2  0
 21 23  1  0
 23 24  1  6
 24 25  1  0
 25 26  1  0
 26 27  1  0
 27 28  2  0
 27 29  1  0
 29 30  1  0
 30 31  1  0
 31 32  1  0
 31 33  1  0
 33 34  1  0
 34 35  1  0
 34 36  1  0
 33 37  1  0
 33 38  1  0
 30 39  1  0
 30 40  1  0
 29 41  1  0
 26 42  1  0
 26 43  1  0
 25 44  1  0
 44 45  2  0
 44 46  1  0
 46 47  2  0
 47 48  1  0
 48 49  2  0
 49 50  1  0
 49 51  1  0
 51 52  2  0
 51 53  1  0
 48 54  1  0
 47 55  1  0
 24 56  1  0
 24 57  1  0
  3 58  1  0
  3 59  1  0
  2 60  1  1
  1 61  1  0
  1 62  1  0
  1 63  1  0
 23  2  1  0
 34 31  1  0
 52 46  1  0
 14  5  1  0
 52 23  1  0
 14  9  1  0
M  END
>  <cnnaffinities>  (82) 
[6.90552, 6.56209]

>  <score>  (82) 
6.90552

>  <index>  (82) 
84

>  <Smiles>  (82) 
C([C@]1(C(N(c2c(nc(c3c(c(c(c(c23)[H])[H])[H])[H])[H])[H])C(=O)[C@]21C(N(C(C(=O)N(C(C1(F)C(C1([H])[H])([H])[H])([H])[H])[H])([H])[H])C(=O)c1c(c(c(F)c(c21)[H])[H])[H])([H])[H])([H])[H])[H])([H])([H])[H]

>  <h>  (82) 
<NA>

>  <Training>  (82) 
True

>  <Success>  (82) 
True

>  <enamine_searched>  (82) 
False

>  <enamine_id>  (82) 
nan

$$$$

     RDKit          3D

 57 62  0  0  0  0  0  0  0  0999 V2000
   -9.2723    1.0536  -29.3095 C   0  0  0  0  0  0  0  0  0  0  0  0
   -9.1685    1.3753  -27.9021 N   0  0  0  0  0  0  0  0  0  0  0  0
   -8.2878    0.6885  -27.1304 C   0  0  0  0  0  0  0  0  0  0  0  0
   -7.5446   -0.1784  -27.5631 O   0  0  0  0  0  0  0  0  0  0  0  0
   -8.3048    1.0818  -25.6533 C   0  0  0  0  0  0  0  0  0  0  0  0
   -9.1502    0.2033  -24.8741 N   0  0  0  0  0  0  0  0  0  0  0  0
   -8.6581   -1.1152  -24.5186 C   0  0  0  0  0  0  0  0  0  0  0  0
   -8.9693   -1.4758  -23.0460 C   0  0  2  0  0  0  0  0  0  0  0  0
   -8.1596   -0.5647  -22.0949 C   0  0  0  0  0  0  0  0  0  0  0  0
   -8.1728    0.6450  -22.0707 O   0  0  0  0  0  0  0  0  0  0  0  0
   -7.3903   -1.3442  -21.2525 N   0  0  0  0  0  0  0  0  0  0  0  0
   -6.5938   -0.8078  -20.2121 C   0  0  0  0  0  0  0  0  0  0  0  0
   -6.8942   -1.0669  -18.8967 C   0  0  0  0  0  0  0  0  0  0  0  0
   -6.2095   -0.5662  -17.8407 N   0  0  0  0  0  0  0  0  0  0  0  0
   -5.1826    0.2068  -18.0938 C   0  0  0  0  0  0  0  0  0  0  0  0
   -4.7358    0.5228  -19.4072 C   0  0  0  0  0  0  0  0  0  0  0  0
   -3.6054    1.3529  -19.6269 C   0  0  0  0  0  0  0  0  0  0  0  0
   -3.1837    1.6273  -20.8986 C   0  0  0  0  0  0  0  0  0  0  0  0
   -3.8673    1.0795  -22.0055 C   0  0  0  0  0  0  0  0  0  0  0  0
   -4.9583    0.2694  -21.8184 C   0  0  0  0  0  0  0  0  0  0  0  0
   -5.4409   -0.0087  -20.5079 C   0  0  0  0  0  0  0  0  0  0  0  0
   -5.4665   -0.1564  -22.6769 H   0  0  0  0  0  0  0  0  0  0  0  0
   -3.5243    1.2940  -23.0140 H   0  0  0  0  0  0  0  0  0  0  0  0
   -2.3248    2.2696  -21.0676 H   0  0  0  0  0  0  0  0  0  0  0  0
   -3.0972    1.7693  -18.7619 H   0  0  0  0  0  0  0  0  0  0  0  0
   -4.6367    0.6127  -17.2413 H   0  0  0  0  0  0  0  0  0  0  0  0
   -7.7554   -1.6848  -18.6435 H   0  0  0  0  0  0  0  0  0  0  0  0
   -7.6390   -2.7561  -21.3821 C   0  0  0  0  0  0  0  0  0  0  0  0
   -8.4776   -2.8795  -22.6459 C   0  0  0  0  0  0  0  0  0  0  0  0
   -9.3418   -4.0924  -22.8217 C   0  0  0  0  0  0  0  0  0  0  0  0
   -8.0958   -3.9436  -23.6434 C   0  0  0  0  0  0  0  0  0  0  0  0
   -7.2405   -4.5756  -23.4083 H   0  0  0  0  0  0  0  0  0  0  0  0
   -8.1972   -3.7141  -24.7001 H   0  0  0  0  0  0  0  0  0  0  0  0
   -9.3668   -4.8375  -22.0271 H   0  0  0  0  0  0  0  0  0  0  0  0
  -10.2952   -3.9508  -23.3220 H   0  0  0  0  0  0  0  0  0  0  0  0
   -6.6955   -3.3075  -21.4475 H   0  0  0  0  0  0  0  0  0  0  0  0
   -8.1941   -3.1223  -20.5162 H   0  0  0  0  0  0  0  0  0  0  0  0
  -10.4675   -1.2308  -22.8720 C   0  0  0  0  0  0  0  0  0  0  0  0
  -11.2020   -1.9682  -21.9441 C   0  0  0  0  0  0  0  0  0  0  0  0
  -12.5752   -1.8121  -21.8822 C   0  0  0  0  0  0  0  0  0  0  0  0
  -13.4832   -2.9582  -20.9422 Cl  0  0  0  0  0  0  0  0  0  0  0  0
  -13.2248   -0.7557  -22.5183 C   0  0  0  0  0  0  0  0  0  0  0  0
  -12.4827    0.0402  -23.3696 C   0  0  0  0  0  0  0  0  0  0  0  0
  -11.1447   -0.2480  -23.6119 C   0  0  0  0  0  0  0  0  0  0  0  0
  -10.4434    0.5675  -24.6471 C   0  0  0  0  0  0  0  0  0  0  0  0
  -10.9691    1.5113  -25.2323 O   0  0  0  0  0  0  0  0  0  0  0  0
  -12.9083    0.8931  -23.8833 H   0  0  0  0  0  0  0  0  0  0  0  0
  -14.2841   -0.5927  -22.3492 H   0  0  0  0  0  0  0  0  0  0  0  0
  -10.7155   -2.7065  -21.3132 H   0  0  0  0  0  0  0  0  0  0  0  0
   -7.5824   -1.1400  -24.7096 H   0  0  0  0  0  0  0  0  0  0  0  0
   -9.1376   -1.8659  -25.1598 H   0  0  0  0  0  0  0  0  0  0  0  0
   -8.6848    2.0987  -25.5239 H   0  0  0  0  0  0  0  0  0  0  0  0
   -7.2825    1.0053  -25.2621 H   0  0  0  0  0  0  0  0  0  0  0  0
   -9.9121    1.8941  -27.4531 H   0  0  0  0  0  0  0  0  0  0  0  0
   -9.5206   -0.0024  -29.4530 H   0  0  0  0  0  0  0  0  0  0  0  0
  -10.0399    1.6738  -29.7760 H   0  0  0  0  0  0  0  0  0  0  0  0
   -8.3184    1.2399  -29.8096 H   0  0  0  0  0  0  0  0  0  0  0  0
  1  2  1  0
  2  3  1  0
  3  4  2  0
  3  5  1  0
  5  6  1  0
  6  7  1  0
  8  7  1  6
  8  9  1  0
  9 10  2  0
  9 11  1  0
 11 12  1  0
 12 13  2  0
 13 14  1  0
 14 15  2  0
 15 16  1  0
 16 17  2  0
 17 18  1  0
 18 19  2  0
 19 20  1  0
 20 21  2  0
 20 22  1  0
 19 23  1  0
 18 24  1  0
 17 25  1  0
 15 26  1  0
 13 27  1  0
 11 28  1  0
 28 29  1  0
 29 30  1  0
 30 31  1  0
 31 32  1  0
 31 33  1  0
 30 34  1  0
 30 35  1  0
 28 36  1  0
 28 37  1  0
  8 38  1  0
 38 39  2  0
 39 40  1  0
 40 41  1  0
 40 42  2  0
 42 43  1  0
 43 44  2  0
 44 45  1  0
 45 46  2  0
 43 47  1  0
 42 48  1  0
 39 49  1  0
  7 50  1  0
  7 51  1  0
  5 52  1  0
  5 53  1  0
  2 54  1  0
  1 55  1  0
  1 56  1  0
  1 57  1  0
 45  6  1  0
 29  8  1  0
 44 38  1  0
 21 12  1  0
 31 29  1  0
 21 16  1  0
M  END
>  <cnnaffinities>  (83) 
[5.82511]

>  <score>  (83) 
5.82511

>  <index>  (83) 
85

>  <Smiles>  (83) 
C(N(C(=O)C(N1C([C@@]2(C(=O)N(c3c(nc(c4c(c(c(c(c34)[H])[H])[H])[H])[H])[H])C(C32C(C3([H])[H])([H])[H])([H])[H])c2c(c(Cl)c(c(c2C1=O)[H])[H])[H])([H])[H])([H])[H])[H])([H])([H])[H]

>  <h>  (83) 
<NA>

>  <Training>  (83) 
True

>  <Success>  (83) 
True

>  <enamine_searched>  (83) 
False

>  <enamine_id>  (83) 
nan

$$$$

     RDKit          3D

 43 45  0  0  0  0  0  0  0  0999 V2000
   -8.5473   -5.5637  -25.7826 C   0  0  0  0  0  0  0  0  0  0  0  0
   -9.0638   -5.4499  -24.3458 C   0  0  1  0  0  0  0  0  0  0  0  0
   -8.0263   -5.8764  -23.3103 C   0  0  0  0  0  0  0  0  0  0  0  0
   -6.9371   -4.8319  -23.0947 C   0  0  0  0  0  0  0  0  0  0  0  0
   -7.5142   -3.5413  -22.7124 N   0  0  0  0  0  0  0  0  0  0  0  0
   -6.7555   -2.7464  -21.8640 C   0  0  0  0  0  0  0  0  0  0  0  0
   -5.6211   -3.0599  -21.5494 O   0  0  0  0  0  0  0  0  0  0  0  0
   -7.4124   -1.4746  -21.2702 C   0  0  0  0  0  0  0  0  0  0  0  0
   -6.5795   -0.8304  -20.1853 C   0  0  0  0  0  0  0  0  0  0  0  0
   -6.8724   -1.0462  -18.8647 C   0  0  0  0  0  0  0  0  0  0  0  0
   -6.1840   -0.5428  -17.8065 N   0  0  0  0  0  0  0  0  0  0  0  0
   -5.1558    0.2238  -18.0693 C   0  0  0  0  0  0  0  0  0  0  0  0
   -4.7198    0.5311  -19.3837 C   0  0  0  0  0  0  0  0  0  0  0  0
   -3.5915    1.3568  -19.6226 C   0  0  0  0  0  0  0  0  0  0  0  0
   -3.1899    1.6347  -20.9009 C   0  0  0  0  0  0  0  0  0  0  0  0
   -3.9047    1.0941  -21.9919 C   0  0  0  0  0  0  0  0  0  0  0  0
   -4.9988    0.2898  -21.7856 C   0  0  0  0  0  0  0  0  0  0  0  0
   -5.4445   -0.0129  -20.4745 C   0  0  0  0  0  0  0  0  0  0  0  0
   -5.5240   -0.1304  -22.6363 H   0  0  0  0  0  0  0  0  0  0  0  0
   -3.5785    1.3098  -23.0046 H   0  0  0  0  0  0  0  0  0  0  0  0
   -2.3293    2.2720  -21.0860 H   0  0  0  0  0  0  0  0  0  0  0  0
   -3.0609    1.7737  -18.7696 H   0  0  0  0  0  0  0  0  0  0  0  0
   -4.6045    0.6282  -17.2171 H   0  0  0  0  0  0  0  0  0  0  0  0
   -7.7194   -1.6694  -18.5842 H   0  0  0  0  0  0  0  0  0  0  0  0
   -7.6211   -0.7475  -22.0677 H   0  0  0  0  0  0  0  0  0  0  0  0
   -8.3920   -1.7509  -20.8540 H   0  0  0  0  0  0  0  0  0  0  0  0
   -8.5398   -2.9964  -23.6135 C   0  0  1  0  0  0  0  0  0  0  0  0
   -7.9410   -2.2905  -24.8406 C   0  0  0  0  0  0  0  0  0  0  0  0
   -8.7280   -1.9761  -25.5353 H   0  0  0  0  0  0  0  0  0  0  0  0
   -7.2483   -2.9312  -25.3934 H   0  0  0  0  0  0  0  0  0  0  0  0
   -7.3903   -1.3890  -24.5494 H   0  0  0  0  0  0  0  0  0  0  0  0
   -9.5911   -4.0644  -23.9672 C   0  0  0  0  0  0  0  0  0  0  0  0
  -10.2131   -3.6827  -24.7842 H   0  0  0  0  0  0  0  0  0  0  0  0
  -10.2623   -4.1722  -23.1086 H   0  0  0  0  0  0  0  0  0  0  0  0
   -9.0797   -2.2364  -23.0439 H   0  0  0  0  0  0  0  0  0  0  0  0
   -6.2996   -4.7543  -23.9888 H   0  0  0  0  0  0  0  0  0  0  0  0
   -6.2741   -5.1450  -22.2908 H   0  0  0  0  0  0  0  0  0  0  0  0
   -7.5750   -6.8276  -23.6122 H   0  0  0  0  0  0  0  0  0  0  0  0
   -8.5192   -6.0585  -22.3518 H   0  0  0  0  0  0  0  0  0  0  0  0
   -9.9154   -6.1419  -24.2747 H   0  0  0  0  0  0  0  0  0  0  0  0
   -7.6005   -5.0394  -25.9390 H   0  0  0  0  0  0  0  0  0  0  0  0
   -8.3805   -6.6141  -26.0496 H   0  0  0  0  0  0  0  0  0  0  0  0
   -9.2684   -5.1523  -26.4966 H   0  0  0  0  0  0  0  0  0  0  0  0
  1  2  1  0
  2  3  1  0
  3  4  1  0
  4  5  1  0
  5  6  1  0
  6  7  2  0
  6  8  1  0
  8  9  1  0
  9 10  2  0
 10 11  1  0
 11 12  2  0
 12 13  1  0
 13 14  2  0
 14 15  1  0
 15 16  2  0
 16 17  1  0
 17 18  2  0
 17 19  1  0
 16 20  1  0
 15 21  1  0
 14 22  1  0
 12 23  1  0
 10 24  1  0
  8 25  1  0
  8 26  1  0
  5 27  1  0
 27 28  1  0
 28 29  1  0
 28 30  1  0
 28 31  1  0
 27 32  1  0
 32 33  1  0
 32 34  1  0
 27 35  1  1
  4 36  1  0
  4 37  1  0
  3 38  1  0
  3 39  1  0
  2 40  1  6
  1 41  1  0
  1 42  1  0
  1 43  1  0
 32  2  1  0
 18  9  1  0
 18 13  1  0
M  END
>  <cnnaffinities>  (84) 
[5.25598, 4.74815]

>  <score>  (84) 
5.25598

>  <index>  (84) 
86

>  <Smiles>  (84) 
C([C@]1(C(C(N(C(=O)C(c2c(nc(c3c(c(c(c(c23)[H])[H])[H])[H])[H])[H])([H])[H])[C@@](C([H])([H])[H])(C1([H])[H])[H])([H])[H])([H])[H])[H])([H])([H])[H]

>  <h>  (84) 
<NA>

>  <Training>  (84) 
True

>  <Success>  (84) 
True

>  <enamine_searched>  (84) 
False

>  <enamine_id>  (84) 
nan

$$$$

     RDKit          3D

 59 64  0  0  0  0  0  0  0  0999 V2000
   -7.9452   -3.6833  -24.0253 C   0  0  0  0  0  0  0  0  0  0  0  0
   -8.3347   -2.8443  -22.7998 C   0  0  1  0  0  0  0  0  0  0  0  0
   -7.1509   -2.6485  -21.8284 C   0  0  0  0  0  0  0  0  0  0  0  0
   -7.4268   -1.3733  -21.1932 N   0  0  0  0  0  0  0  0  0  0  0  0
   -6.6091   -0.8032  -20.1769 C   0  0  0  0  0  0  0  0  0  0  0  0
   -6.8987   -1.0474  -18.8608 C   0  0  0  0  0  0  0  0  0  0  0  0
   -6.1878   -0.5557  -17.8168 N   0  0  0  0  0  0  0  0  0  0  0  0
   -5.1614    0.2097  -18.0852 C   0  0  0  0  0  0  0  0  0  0  0  0
   -4.7335    0.5334  -19.4028 C   0  0  0  0  0  0  0  0  0  0  0  0
   -3.6029    1.3628  -19.6405 C   0  0  0  0  0  0  0  0  0  0  0  0
   -3.2108    1.6515  -20.9174 C   0  0  0  0  0  0  0  0  0  0  0  0
   -3.9298    1.1194  -22.0123 C   0  0  0  0  0  0  0  0  0  0  0  0
   -5.0244    0.3151  -21.8106 C   0  0  0  0  0  0  0  0  0  0  0  0
   -5.4695    0.0092  -20.4914 C   0  0  0  0  0  0  0  0  0  0  0  0
   -5.5602   -0.0920  -22.6646 H   0  0  0  0  0  0  0  0  0  0  0  0
   -3.6122    1.3512  -23.0254 H   0  0  0  0  0  0  0  0  0  0  0  0
   -2.3566    2.2994  -21.0972 H   0  0  0  0  0  0  0  0  0  0  0  0
   -3.0763    1.7711  -18.7808 H   0  0  0  0  0  0  0  0  0  0  0  0
   -4.6153    0.6156  -17.2316 H   0  0  0  0  0  0  0  0  0  0  0  0
   -7.7464   -1.6736  -18.5910 H   0  0  0  0  0  0  0  0  0  0  0  0
   -8.3545   -0.6079  -21.8609 C   0  0  0  0  0  0  0  0  0  0  0  0
   -8.6533    0.5282  -21.5372 O   0  0  0  0  0  0  0  0  0  0  0  0
   -8.8996   -1.4063  -23.0664 C   0  0  1  0  0  0  0  0  0  0  0  0
   -8.3324   -0.8020  -24.3762 C   0  0  0  0  0  0  0  0  0  0  0  0
   -8.8791    0.5115  -24.6479 N   0  0  0  0  0  0  0  0  0  0  0  0
   -7.9567    1.6186  -24.8524 C   0  0  0  0  0  0  0  0  0  0  0  0
   -6.9982    1.4105  -25.9856 C   0  0  0  0  0  0  0  0  0  0  0  0
   -5.6378    1.1702  -25.9807 C   0  0  0  0  0  0  0  0  0  0  0  0
   -5.3009    0.9750  -27.3340 C   0  0  0  0  0  0  0  0  0  0  0  0
   -6.3658    1.0951  -28.1166 N   0  0  0  0  0  0  0  0  0  0  0  0
   -7.3845    1.3665  -27.2860 N   0  0  0  0  0  0  0  0  0  0  0  0
   -8.7215    1.5346  -27.8170 C   0  0  0  0  0  0  0  0  0  0  0  0
   -9.1873    2.4383  -27.4062 H   0  0  0  0  0  0  0  0  0  0  0  0
   -8.6198    1.6234  -28.9021 H   0  0  0  0  0  0  0  0  0  0  0  0
   -9.3496    0.6700  -27.5712 H   0  0  0  0  0  0  0  0  0  0  0  0
   -4.3431    0.7347  -27.7849 H   0  0  0  0  0  0  0  0  0  0  0  0
   -5.0130    1.1139  -25.0973 H   0  0  0  0  0  0  0  0  0  0  0  0
   -8.5756    2.5094  -24.9966 H   0  0  0  0  0  0  0  0  0  0  0  0
   -7.3664    1.7555  -23.9342 H   0  0  0  0  0  0  0  0  0  0  0  0
  -10.2268    0.7172  -24.6551 C   0  0  0  0  0  0  0  0  0  0  0  0
  -10.7543    1.6770  -25.2115 O   0  0  0  0  0  0  0  0  0  0  0  0
  -11.0351   -0.3025  -23.9096 C   0  0  0  0  0  0  0  0  0  0  0  0
  -12.4251   -0.1851  -23.9519 C   0  0  0  0  0  0  0  0  0  0  0  0
  -13.2191   -0.9958  -23.1667 C   0  0  0  0  0  0  0  0  0  0  0  0
  -12.5930   -1.9000  -22.3170 C   0  0  0  0  0  0  0  0  0  0  0  0
  -13.3548   -2.6535  -21.5064 F   0  0  0  0  0  0  0  0  0  0  0  0
  -11.2212   -2.0480  -22.2660 C   0  0  0  0  0  0  0  0  0  0  0  0
  -10.4150   -1.2816  -23.1159 C   0  0  0  0  0  0  0  0  0  0  0  0
  -10.8122   -2.7389  -21.5373 H   0  0  0  0  0  0  0  0  0  0  0  0
  -14.3008   -0.9233  -23.1667 H   0  0  0  0  0  0  0  0  0  0  0  0
  -12.8502    0.5796  -24.5919 H   0  0  0  0  0  0  0  0  0  0  0  0
   -7.2481   -0.7012  -24.2876 H   0  0  0  0  0  0  0  0  0  0  0  0
   -8.5636   -1.4728  -25.2172 H   0  0  0  0  0  0  0  0  0  0  0  0
   -6.1928   -2.6327  -22.3731 H   0  0  0  0  0  0  0  0  0  0  0  0
   -7.0809   -3.4427  -21.0769 H   0  0  0  0  0  0  0  0  0  0  0  0
   -9.1189   -3.3808  -22.2598 H   0  0  0  0  0  0  0  0  0  0  0  0
   -8.7747   -3.7883  -24.7340 H   0  0  0  0  0  0  0  0  0  0  0  0
   -7.1031   -3.2332  -24.5664 H   0  0  0  0  0  0  0  0  0  0  0  0
   -7.6344   -4.6915  -23.7262 H   0  0  0  0  0  0  0  0  0  0  0  0
  1  2  1  0
  2  3  1  0
  3  4  1  0
  4  5  1  0
  5  6  2  0
  6  7  1  0
  7  8  2  0
  8  9  1  0
  9 10  2  0
 10 11  1  0
 11 12  2  0
 12 13  1  0
 13 14  2  0
 13 15  1  0
 12 16  1  0
 11 17  1  0
 10 18  1  0
  8 19  1  0
  6 20  1  0
  4 21  1  0
 21 22  2  0
 21 23  1  0
 23 24  1  6
 24 25  1  0
 25 26  1  0
 26 27  1  0
 27 28  2  0
 28 29  1  0
 29 30  2  0
 30 31  1  0
 31 32  1  0
 32 33  1  0
 32 34  1  0
 32 35  1  0
 29 36  1  0
 28 37  1  0
 26 38  1  0
 26 39  1  0
 25 40  1  0
 40 41  2  0
 40 42  1  0
 42 43  2  0
 43 44  1  0
 44 45  2  0
 45 46  1  0
 45 47  1  0
 47 48  2  0
 47 49  1  0
 44 50  1  0
 43 51  1  0
 24 52  1  0
 24 53  1  0
  3 54  1  0
  3 55  1  0
  2 56  1  1
  1 57  1  0
  1 58  1  0
  1 59  1  0
 23  2  1  0
 31 27  1  0
 48 42  1  0
 14  5  1  0
 48 23  1  0
 14  9  1  0
M  END
>  <cnnaffinities>  (85) 
[6.64639, 6.78703]

>  <score>  (85) 
6.64639

>  <index>  (85) 
87

>  <Smiles>  (85) 
C([C@]1(C(N(c2c(nc(c3c(c(c(c(c23)[H])[H])[H])[H])[H])[H])C(=O)[C@]21C(N(C(c1c(c(nn1C([H])([H])[H])[H])[H])([H])[H])C(=O)c1c(c(c(F)c(c21)[H])[H])[H])([H])[H])([H])[H])[H])([H])([H])[H]

>  <h>  (85) 
<NA>

>  <Training>  (85) 
True

>  <Success>  (85) 
True

>  <enamine_searched>  (85) 
False

>  <enamine_id>  (85) 
nan

$$$$

     RDKit          3D

 40 42  0  0  0  0  0  0  0  0999 V2000
   -5.5908   -2.9741  -21.6807 O   0  0  0  0  0  0  0  0  0  0  0  0
   -6.7929   -2.7996  -21.7760 C   0  0  0  0  0  0  0  0  0  0  0  0
   -7.4234   -1.4825  -21.2550 C   0  0  0  0  0  0  0  0  0  0  0  0
   -6.5823   -0.8244  -20.1814 C   0  0  0  0  0  0  0  0  0  0  0  0
   -6.8721   -1.0417  -18.8593 C   0  0  0  0  0  0  0  0  0  0  0  0
   -6.1826   -0.5416  -17.8028 N   0  0  0  0  0  0  0  0  0  0  0  0
   -5.1547    0.2257  -18.0661 C   0  0  0  0  0  0  0  0  0  0  0  0
   -4.7191    0.5335  -19.3830 C   0  0  0  0  0  0  0  0  0  0  0  0
   -3.5898    1.3596  -19.6200 C   0  0  0  0  0  0  0  0  0  0  0  0
   -3.1884    1.6358  -20.8990 C   0  0  0  0  0  0  0  0  0  0  0  0
   -3.9021    1.0946  -21.9901 C   0  0  0  0  0  0  0  0  0  0  0  0
   -4.9976    0.2911  -21.7852 C   0  0  0  0  0  0  0  0  0  0  0  0
   -5.4441   -0.0091  -20.4727 C   0  0  0  0  0  0  0  0  0  0  0  0
   -5.5149   -0.1376  -22.6367 H   0  0  0  0  0  0  0  0  0  0  0  0
   -3.5728    1.3083  -23.0027 H   0  0  0  0  0  0  0  0  0  0  0  0
   -2.3268    2.2718  -21.0843 H   0  0  0  0  0  0  0  0  0  0  0  0
   -3.0560    1.7762  -18.7686 H   0  0  0  0  0  0  0  0  0  0  0  0
   -4.6007    0.6291  -17.2163 H   0  0  0  0  0  0  0  0  0  0  0  0
   -7.7183   -1.6693  -18.5838 H   0  0  0  0  0  0  0  0  0  0  0  0
   -8.4251   -1.6853  -20.8466 H   0  0  0  0  0  0  0  0  0  0  0  0
   -7.5639   -0.7899  -22.0956 H   0  0  0  0  0  0  0  0  0  0  0  0
   -7.6214   -3.7653  -22.3130 N   0  0  0  0  0  0  0  0  0  0  0  0
   -7.2607   -5.1765  -22.1562 C   0  0  0  0  0  0  0  0  0  0  0  0
   -7.5509   -6.0022  -23.3991 C   0  0  0  0  0  0  0  0  0  0  0  0
   -8.9936   -5.8079  -23.8480 C   0  0  0  0  0  0  0  0  0  0  0  0
   -9.3389   -6.6194  -25.0800 C   0  0  0  0  0  0  0  0  0  0  0  0
   -8.5092   -6.2792  -26.1091 F   0  0  0  0  0  0  0  0  0  0  0  0
   -9.1549   -7.9514  -24.8519 F   0  0  0  0  0  0  0  0  0  0  0  0
  -10.3724   -6.4839  -25.4270 H   0  0  0  0  0  0  0  0  0  0  0  0
   -9.2784   -4.3291  -24.0575 C   0  0  0  0  0  0  0  0  0  0  0  0
   -8.9718   -3.5173  -22.8030 C   0  0  0  0  0  0  0  0  0  0  0  0
   -9.7205   -3.7517  -22.0321 H   0  0  0  0  0  0  0  0  0  0  0  0
   -9.0779   -2.4581  -23.0376 H   0  0  0  0  0  0  0  0  0  0  0  0
   -8.6823   -3.9648  -24.8975 H   0  0  0  0  0  0  0  0  0  0  0  0
  -10.3276   -4.1846  -24.3395 H   0  0  0  0  0  0  0  0  0  0  0  0
   -9.6550   -6.1846  -23.0691 H   0  0  0  0  0  0  0  0  0  0  0  0
   -6.8754   -5.7054  -24.2021 H   0  0  0  0  0  0  0  0  0  0  0  0
   -7.3568   -7.0619  -23.1962 H   0  0  0  0  0  0  0  0  0  0  0  0
   -6.2059   -5.2361  -21.8921 H   0  0  0  0  0  0  0  0  0  0  0  0
   -7.8196   -5.6293  -21.3287 H   0  0  0  0  0  0  0  0  0  0  0  0
  1  2  2  0
  2  3  1  0
  3  4  1  0
  4  5  2  0
  5  6  1  0
  6  7  2  0
  7  8  1  0
  8  9  2  0
  9 10  1  0
 10 11  2  0
 11 12  1  0
 12 13  2  0
 12 14  1  0
 11 15  1  0
 10 16  1  0
  9 17  1  0
  7 18  1  0
  5 19  1  0
  3 20  1  0
  3 21  1  0
  2 22  1  0
 22 23  1  0
 23 24  1  0
 24 25  1  0
 25 26  1  0
 26 27  1  0
 26 28  1  0
 26 29  1  0
 25 30  1  0
 30 31  1  0
 31 32  1  0
 31 33  1  0
 30 34  1  0
 30 35  1  0
 25 36  1  0
 24 37  1  0
 24 38  1  0
 23 39  1  0
 23 40  1  0
 13  4  1  0
 31 22  1  0
 13  8  1  0
M  END
>  <cnnaffinities>  (86) 
[5.02268, 4.90221, 4.94699, 4.94698, 4.94476]

>  <score>  (86) 
5.02268

>  <index>  (86) 
88

>  <Smiles>  (86) 
O=C(C(c1c(nc(c2c(c(c(c(c12)[H])[H])[H])[H])[H])[H])([H])[H])N1C(C(C(C(F)(F)[H])(C(C1([H])[H])([H])[H])[H])([H])[H])([H])[H]

>  <h>  (86) 
<NA>

>  <Training>  (86) 
True

>  <Success>  (86) 
True

>  <enamine_searched>  (86) 
False

>  <enamine_id>  (86) 
nan

$$$$

     RDKit          3D

 43 45  0  0  0  0  0  0  0  0999 V2000
   -6.6984    0.2996  -26.9332 C   0  0  0  0  0  0  0  0  0  0  0  0
   -8.0231    0.5103  -26.1875 C   0  0  0  0  0  0  0  0  0  0  0  0
   -9.0570    1.0572  -27.1807 C   0  0  0  0  0  0  0  0  0  0  0  0
  -10.0113    1.2811  -26.6898 H   0  0  0  0  0  0  0  0  0  0  0  0
   -8.7029    1.9835  -27.6482 H   0  0  0  0  0  0  0  0  0  0  0  0
   -9.2558    0.3414  -27.9865 H   0  0  0  0  0  0  0  0  0  0  0  0
   -7.8072    1.5158  -25.0349 C   0  0  0  0  0  0  0  0  0  0  0  0
   -8.6334    1.1986  -23.7904 C   0  0  0  0  0  0  0  0  0  0  0  0
   -8.2718   -0.1194  -23.2691 N   0  0  0  0  0  0  0  0  0  0  0  0
   -8.3350   -0.3284  -21.9065 C   0  0  0  0  0  0  0  0  0  0  0  0
   -9.0511    0.3422  -21.1847 O   0  0  0  0  0  0  0  0  0  0  0  0
   -7.4289   -1.4116  -21.2839 C   0  0  0  0  0  0  0  0  0  0  0  0
   -6.5709   -0.8308  -20.1782 C   0  0  0  0  0  0  0  0  0  0  0  0
   -6.8764   -1.0395  -18.8588 C   0  0  0  0  0  0  0  0  0  0  0  0
   -6.1863   -0.5352  -17.8006 N   0  0  0  0  0  0  0  0  0  0  0  0
   -5.1538    0.2239  -18.0660 C   0  0  0  0  0  0  0  0  0  0  0  0
   -4.7181    0.5348  -19.3811 C   0  0  0  0  0  0  0  0  0  0  0  0
   -3.5963    1.3679  -19.6222 C   0  0  0  0  0  0  0  0  0  0  0  0
   -3.2082    1.6612  -20.9004 C   0  0  0  0  0  0  0  0  0  0  0  0
   -3.9305    1.1304  -21.9925 C   0  0  0  0  0  0  0  0  0  0  0  0
   -5.0167    0.3174  -21.7863 C   0  0  0  0  0  0  0  0  0  0  0  0
   -5.4444   -0.0041  -20.4713 C   0  0  0  0  0  0  0  0  0  0  0  0
   -5.5541   -0.0805  -22.6429 H   0  0  0  0  0  0  0  0  0  0  0  0
   -3.6145    1.3624  -23.0046 H   0  0  0  0  0  0  0  0  0  0  0  0
   -2.3537    2.3061  -21.0862 H   0  0  0  0  0  0  0  0  0  0  0  0
   -3.0618    1.7804  -18.7697 H   0  0  0  0  0  0  0  0  0  0  0  0
   -4.6011    0.6291  -17.2153 H   0  0  0  0  0  0  0  0  0  0  0  0
   -7.7289   -1.6597  -18.5839 H   0  0  0  0  0  0  0  0  0  0  0  0
   -8.0911   -2.1684  -20.8455 H   0  0  0  0  0  0  0  0  0  0  0  0
   -6.8067   -1.9199  -22.0300 H   0  0  0  0  0  0  0  0  0  0  0  0
   -7.9667   -1.1681  -24.2368 C   0  0  0  0  0  0  0  0  0  0  0  0
   -8.5343   -0.8268  -25.6164 C   0  0  0  0  0  0  0  0  0  0  0  0
   -9.6291   -0.8197  -25.5577 H   0  0  0  0  0  0  0  0  0  0  0  0
   -8.2887   -1.6334  -26.3129 H   0  0  0  0  0  0  0  0  0  0  0  0
   -6.8835   -1.3435  -24.3078 H   0  0  0  0  0  0  0  0  0  0  0  0
   -8.4146   -2.1045  -23.8929 H   0  0  0  0  0  0  0  0  0  0  0  0
   -9.7069    1.2609  -24.0104 H   0  0  0  0  0  0  0  0  0  0  0  0
   -8.4388    1.9329  -23.0091 H   0  0  0  0  0  0  0  0  0  0  0  0
   -6.7506    1.5343  -24.7418 H   0  0  0  0  0  0  0  0  0  0  0  0
   -8.0314    2.5287  -25.3845 H   0  0  0  0  0  0  0  0  0  0  0  0
   -5.9333   -0.1391  -26.2828 H   0  0  0  0  0  0  0  0  0  0  0  0
   -6.8287   -0.3722  -27.7896 H   0  0  0  0  0  0  0  0  0  0  0  0
   -6.3045    1.2484  -27.3164 H   0  0  0  0  0  0  0  0  0  0  0  0
  1  2  1  0
  2  3  1  0
  3  4  1  0
  3  5  1  0
  3  6  1  0
  2  7  1  0
  7  8  1  0
  8  9  1  0
  9 10  1  0
 10 11  2  0
 10 12  1  0
 12 13  1  0
 13 14  2  0
 14 15  1  0
 15 16  2  0
 16 17  1  0
 17 18  2  0
 18 19  1  0
 19 20  2  0
 20 21  1  0
 21 22  2  0
 21 23  1  0
 20 24  1  0
 19 25  1  0
 18 26  1  0
 16 27  1  0
 14 28  1  0
 12 29  1  0
 12 30  1  0
  9 31  1  0
 31 32  1  0
 32 33  1  0
 32 34  1  0
 31 35  1  0
 31 36  1  0
  8 37  1  0
  8 38  1  0
  7 39  1  0
  7 40  1  0
  1 41  1  0
  1 42  1  0
  1 43  1  0
 32  2  1  0
 22 13  1  0
 22 17  1  0
M  END
>  <cnnaffinities>  (87) 
[4.52949, 4.52949, 4.5295, 5.13939, 4.80223, 4.80224, 4.80219, 4.80231, 4.77813, 4.79626, 4.79625, 4.79624, 5.08032, 5.0803, 5.08028]

>  <score>  (87) 
4.52949

>  <index>  (87) 
89

>  <Smiles>  (87) 
C(C1(C([H])([H])[H])C(C(N(C(=O)C(c2c(nc(c3c(c(c(c(c23)[H])[H])[H])[H])[H])[H])([H])[H])C(C1([H])[H])([H])[H])([H])[H])([H])[H])([H])([H])[H]

>  <h>  (87) 
<NA>

>  <Training>  (87) 
True

>  <Success>  (87) 
True

>  <enamine_searched>  (87) 
False

>  <enamine_id>  (87) 
nan

$$$$

     RDKit          3D

 64 68  0  0  0  0  0  0  0  0999 V2000
   -7.4755    3.3090  -21.8057 C   0  0  0  0  0  0  0  0  0  0  0  0
   -8.5120    2.8292  -22.7081 N   0  0  0  0  0  0  0  0  0  0  0  0
   -8.0903    2.1007  -23.7838 C   0  0  0  0  0  0  0  0  0  0  0  0
   -6.9030    1.9170  -24.0146 O   0  0  0  0  0  0  0  0  0  0  0  0
   -9.1489    1.5057  -24.7129 C   0  0  0  0  0  0  0  0  0  0  0  0
   -9.7217    0.3092  -24.1347 N   0  0  0  0  0  0  0  0  0  0  0  0
   -8.9103   -0.8956  -24.0529 C   0  0  0  0  0  0  0  0  0  0  0  0
   -9.1715   -1.6656  -22.7395 C   0  0  2  0  0  0  0  0  0  0  0  0
   -8.6155   -0.8586  -21.5452 C   0  0  0  0  0  0  0  0  0  0  0  0
   -9.1214    0.1085  -21.0083 O   0  0  0  0  0  0  0  0  0  0  0  0
   -7.4033   -1.4042  -21.1899 N   0  0  0  0  0  0  0  0  0  0  0  0
   -6.6071   -0.8215  -20.1769 C   0  0  0  0  0  0  0  0  0  0  0  0
   -6.9203   -1.0454  -18.8612 C   0  0  0  0  0  0  0  0  0  0  0  0
   -6.2152   -0.5533  -17.8159 N   0  0  0  0  0  0  0  0  0  0  0  0
   -5.1807    0.2015  -18.0851 C   0  0  0  0  0  0  0  0  0  0  0  0
   -4.7466    0.5203  -19.4016 C   0  0  0  0  0  0  0  0  0  0  0  0
   -3.6268    1.3590  -19.6405 C   0  0  0  0  0  0  0  0  0  0  0  0
   -3.2415    1.6591  -20.9153 C   0  0  0  0  0  0  0  0  0  0  0  0
   -3.9620    1.1414  -22.0146 C   0  0  0  0  0  0  0  0  0  0  0  0
   -5.0570    0.3341  -21.8132 C   0  0  0  0  0  0  0  0  0  0  0  0
   -5.4757   -0.0071  -20.4979 C   0  0  0  0  0  0  0  0  0  0  0  0
   -5.6197   -0.0155  -22.6751 H   0  0  0  0  0  0  0  0  0  0  0  0
   -3.6481    1.3795  -23.0263 H   0  0  0  0  0  0  0  0  0  0  0  0
   -2.3865    2.3041  -21.0930 H   0  0  0  0  0  0  0  0  0  0  0  0
   -3.1005    1.7640  -18.7793 H   0  0  0  0  0  0  0  0  0  0  0  0
   -4.6170    0.6008  -17.2393 H   0  0  0  0  0  0  0  0  0  0  0  0
   -7.7835   -1.6588  -18.6143 H   0  0  0  0  0  0  0  0  0  0  0  0
   -7.0158   -2.5674  -21.9565 C   0  0  0  0  0  0  0  0  0  0  0  0
   -8.3272   -2.9708  -22.6507 C   0  0  2  0  0  0  0  0  0  0  0  0
   -8.1195   -3.7525  -23.9461 C   0  0  0  0  0  0  0  0  0  0  0  0
   -7.4439   -5.3742  -23.6161 S   0  0  0  0  0  0  0  0  0  0  0  0
   -6.0611   -5.2443  -23.1838 O   0  0  0  0  0  0  0  0  0  0  0  0
   -8.3958   -6.1112  -22.7906 O   0  0  0  0  0  0  0  0  0  0  0  0
   -7.3547   -5.9959  -25.1624 N   0  0  0  0  0  0  0  0  0  0  0  0
   -8.5591   -6.4532  -25.8493 C   0  0  0  0  0  0  0  0  0  0  0  0
   -9.1496   -5.6022  -26.2013 H   0  0  0  0  0  0  0  0  0  0  0  0
   -8.2479   -7.0059  -26.7398 H   0  0  0  0  0  0  0  0  0  0  0  0
   -9.1876   -7.0995  -25.2302 H   0  0  0  0  0  0  0  0  0  0  0  0
   -6.5917   -6.6615  -25.1752 H   0  0  0  0  0  0  0  0  0  0  0  0
   -7.4242   -3.2621  -24.6314 H   0  0  0  0  0  0  0  0  0  0  0  0
   -9.0631   -3.8983  -24.4778 H   0  0  0  0  0  0  0  0  0  0  0  0
   -8.8477   -3.6521  -21.9783 H   0  0  0  0  0  0  0  0  0  0  0  0
   -6.6410   -3.3571  -21.3018 H   0  0  0  0  0  0  0  0  0  0  0  0
   -6.2207   -2.3361  -22.6816 H   0  0  0  0  0  0  0  0  0  0  0  0
  -10.6707   -1.8350  -22.6056 C   0  0  0  0  0  0  0  0  0  0  0  0
  -11.2166   -2.8389  -21.8056 C   0  0  0  0  0  0  0  0  0  0  0  0
  -12.5831   -2.8945  -21.6235 C   0  0  0  0  0  0  0  0  0  0  0  0
  -13.0787   -3.8408  -20.8128 F   0  0  0  0  0  0  0  0  0  0  0  0
  -13.4757   -2.0160  -22.2237 C   0  0  0  0  0  0  0  0  0  0  0  0
  -12.9388   -1.0196  -23.0066 C   0  0  0  0  0  0  0  0  0  0  0  0
  -11.5608   -0.9093  -23.1713 C   0  0  0  0  0  0  0  0  0  0  0  0
  -11.0688    0.2756  -23.9298 C   0  0  0  0  0  0  0  0  0  0  0  0
  -11.8172    1.1650  -24.3209 O   0  0  0  0  0  0  0  0  0  0  0  0
  -13.5609   -0.2828  -23.4972 H   0  0  0  0  0  0  0  0  0  0  0  0
  -14.5425   -2.1166  -22.0540 H   0  0  0  0  0  0  0  0  0  0  0  0
  -10.6030   -3.5754  -21.2998 H   0  0  0  0  0  0  0  0  0  0  0  0
   -7.8582   -0.6078  -24.1292 H   0  0  0  0  0  0  0  0  0  0  0  0
   -9.1419   -1.5533  -24.8995 H   0  0  0  0  0  0  0  0  0  0  0  0
   -9.9821    2.1884  -24.9162 H   0  0  0  0  0  0  0  0  0  0  0  0
   -8.6423    1.2611  -25.6553 H   0  0  0  0  0  0  0  0  0  0  0  0
   -9.4352    2.6778  -22.3149 H   0  0  0  0  0  0  0  0  0  0  0  0
   -6.8340    4.0306  -22.3224 H   0  0  0  0  0  0  0  0  0  0  0  0
   -6.8682    2.4579  -21.4585 H   0  0  0  0  0  0  0  0  0  0  0  0
   -7.9341    3.8364  -20.9656 H   0  0  0  0  0  0  0  0  0  0  0  0
  1  2  1  0
  2  3  1  0
  3  4  2  0
  3  5  1  0
  5  6  1  0
  6  7  1  0
  8  7  1  6
  8  9  1  0
  9 10  2  0
  9 11  1  0
 11 12  1  0
 12 13  2  0
 13 14  1  0
 14 15  2  0
 15 16  1  0
 16 17  2  0
 17 18  1  0
 18 19  2  0
 19 20  1  0
 20 21  2  0
 20 22  1  0
 19 23  1  0
 18 24  1  0
 17 25  1  0
 15 26  1  0
 13 27  1  0
 11 28  1  0
 28 29  1  0
 29 30  1  0
 30 31  1  0
 31 32  2  0
 31 33  2  0
 31 34  1  0
 34 35  1  0
 35 36  1  0
 35 37  1  0
 35 38  1  0
 34 39  1  0
 30 40  1  0
 30 41  1  0
 29 42  1  1
 28 43  1  0
 28 44  1  0
  8 45  1  0
 45 46  2  0
 46 47  1  0
 47 48  1  0
 47 49  2  0
 49 50  1  0
 50 51  2  0
 51 52  1  0
 52 53  2  0
 50 54  1  0
 49 55  1  0
 46 56  1  0
  7 57  1  0
  7 58  1  0
  5 59  1  0
  5 60  1  0
  2 61  1  0
  1 62  1  0
  1 63  1  0
  1 64  1  0
 52  6  1  0
 29  8  1  0
 51 45  1  0
 21 12  1  0
 21 16  1  0
M  END
>  <cnnaffinities>  (88) 
[6.53498, 6.87494]

>  <score>  (88) 
6.53498

>  <index>  (88) 
90

>  <Smiles>  (88) 
C(N(C(=O)C(N1C([C@@]2(C(=O)N(c3c(nc(c4c(c(c(c(c34)[H])[H])[H])[H])[H])[H])C([C@@]2(C(S(=O)(=O)N(C([H])([H])[H])[H])([H])[H])[H])([H])[H])c2c(c(F)c(c(c2C1=O)[H])[H])[H])([H])[H])([H])[H])[H])([H])([H])[H]

>  <h>  (88) 
<NA>

>  <Training>  (88) 
True

>  <Success>  (88) 
True

>  <enamine_searched>  (88) 
False

>  <enamine_id>  (88) 
nan

$$$$

     RDKit          3D

 66 71  0  0  0  0  0  0  0  0999 V2000
   -7.4754    3.2817  -21.8512 C   0  0  0  0  0  0  0  0  0  0  0  0
   -8.5641    2.8272  -22.7022 N   0  0  0  0  0  0  0  0  0  0  0  0
   -8.2233    2.0599  -23.7752 C   0  0  0  0  0  0  0  0  0  0  0  0
   -7.0602    1.7813  -24.0298 O   0  0  0  0  0  0  0  0  0  0  0  0
   -9.3434    1.5177  -24.6588 C   0  0  0  0  0  0  0  0  0  0  0  0
   -9.8936    0.3178  -24.0558 N   0  0  0  0  0  0  0  0  0  0  0  0
   -9.0768   -0.8887  -24.0253 C   0  0  0  0  0  0  0  0  0  0  0  0
   -9.2789   -1.6696  -22.6998 C   0  0  2  0  0  0  0  0  0  0  0  0
   -8.6686   -0.8403  -21.5346 C   0  0  0  0  0  0  0  0  0  0  0  0
   -9.1469    0.1432  -21.0069 O   0  0  0  0  0  0  0  0  0  0  0  0
   -7.4475   -1.3887  -21.2022 N   0  0  0  0  0  0  0  0  0  0  0  0
   -6.6295   -0.8200  -20.1924 C   0  0  0  0  0  0  0  0  0  0  0  0
   -6.9343   -1.0464  -18.8719 C   0  0  0  0  0  0  0  0  0  0  0  0
   -6.2227   -0.5640  -17.8279 N   0  0  0  0  0  0  0  0  0  0  0  0
   -5.1863    0.1889  -18.0980 C   0  0  0  0  0  0  0  0  0  0  0  0
   -4.7608    0.5122  -19.4162 C   0  0  0  0  0  0  0  0  0  0  0  0
   -3.6403    1.3530  -19.6465 C   0  0  0  0  0  0  0  0  0  0  0  0
   -3.2527    1.6551  -20.9222 C   0  0  0  0  0  0  0  0  0  0  0  0
   -3.9719    1.1403  -22.0217 C   0  0  0  0  0  0  0  0  0  0  0  0
   -5.0718    0.3336  -21.8259 C   0  0  0  0  0  0  0  0  0  0  0  0
   -5.4932   -0.0092  -20.5109 C   0  0  0  0  0  0  0  0  0  0  0  0
   -5.6389   -0.0024  -22.6881 H   0  0  0  0  0  0  0  0  0  0  0  0
   -3.6536    1.3795  -23.0323 H   0  0  0  0  0  0  0  0  0  0  0  0
   -2.3934    2.2966  -21.0954 H   0  0  0  0  0  0  0  0  0  0  0  0
   -3.1147    1.7539  -18.7837 H   0  0  0  0  0  0  0  0  0  0  0  0
   -4.6197    0.5887  -17.2557 H   0  0  0  0  0  0  0  0  0  0  0  0
   -7.7957   -1.6609  -18.6243 H   0  0  0  0  0  0  0  0  0  0  0  0
   -7.0993   -2.5607  -21.9812 C   0  0  0  0  0  0  0  0  0  0  0  0
   -8.4271   -2.9667  -22.6324 C   0  0  2  0  0  0  0  0  0  0  0  0
   -8.1948   -3.7425  -23.9266 C   0  0  0  0  0  0  0  0  0  0  0  0
   -9.4201   -4.2547  -24.4777 N   0  0  0  0  0  0  0  0  0  0  0  0
   -9.4816   -4.9697  -25.6403 C   0  0  0  0  0  0  0  0  0  0  0  0
   -8.3551   -5.2136  -26.4678 C   0  0  0  0  0  0  0  0  0  0  0  0
   -8.4581   -5.8154  -27.6415 N   0  0  0  0  0  0  0  0  0  0  0  0
   -9.6805   -6.2132  -28.0099 C   0  0  0  0  0  0  0  0  0  0  0  0
  -10.7685   -6.0412  -27.1683 C   0  0  0  0  0  0  0  0  0  0  0  0
  -10.6815   -5.4327  -25.9866 N   0  0  0  0  0  0  0  0  0  0  0  0
  -11.7585   -6.3875  -27.4577 H   0  0  0  0  0  0  0  0  0  0  0  0
   -9.7837   -6.6667  -28.9919 H   0  0  0  0  0  0  0  0  0  0  0  0
   -7.3562   -4.9030  -26.1740 H   0  0  0  0  0  0  0  0  0  0  0  0
  -10.3143   -4.0906  -24.0310 H   0  0  0  0  0  0  0  0  0  0  0  0
   -7.5140   -4.5803  -23.7189 H   0  0  0  0  0  0  0  0  0  0  0  0
   -7.6903   -3.0960  -24.6645 H   0  0  0  0  0  0  0  0  0  0  0  0
   -8.9371   -3.6356  -21.9336 H   0  0  0  0  0  0  0  0  0  0  0  0
   -6.3348   -2.3337  -22.7416 H   0  0  0  0  0  0  0  0  0  0  0  0
   -6.7090   -3.3598  -21.3435 H   0  0  0  0  0  0  0  0  0  0  0  0
  -10.7763   -1.8745  -22.5109 C   0  0  0  0  0  0  0  0  0  0  0  0
  -11.3061   -2.9240  -21.7465 C   0  0  0  0  0  0  0  0  0  0  0  0
  -12.6580   -2.9539  -21.4471 C   0  0  0  0  0  0  0  0  0  0  0  0
  -13.2617   -4.1200  -20.3197 Cl  0  0  0  0  0  0  0  0  0  0  0  0
  -13.5510   -2.0068  -21.9328 C   0  0  0  0  0  0  0  0  0  0  0  0
  -13.0478   -0.9886  -22.7097 C   0  0  0  0  0  0  0  0  0  0  0  0
  -11.6854   -0.9198  -22.9937 C   0  0  0  0  0  0  0  0  0  0  0  0
  -11.2284    0.2728  -23.7743 C   0  0  0  0  0  0  0  0  0  0  0  0
  -12.0082    1.1549  -24.1185 O   0  0  0  0  0  0  0  0  0  0  0  0
  -13.6751   -0.1848  -23.0748 H   0  0  0  0  0  0  0  0  0  0  0  0
  -14.5960   -2.0473  -21.6503 H   0  0  0  0  0  0  0  0  0  0  0  0
  -10.6941   -3.6993  -21.2995 H   0  0  0  0  0  0  0  0  0  0  0  0
   -8.0288   -0.5948  -24.1463 H   0  0  0  0  0  0  0  0  0  0  0  0
   -9.3543   -1.5393  -24.8677 H   0  0  0  0  0  0  0  0  0  0  0  0
  -10.1638    2.2271  -24.7922 H   0  0  0  0  0  0  0  0  0  0  0  0
   -8.9227    1.2862  -25.6480 H   0  0  0  0  0  0  0  0  0  0  0  0
   -9.4777    2.7292  -22.2740 H   0  0  0  0  0  0  0  0  0  0  0  0
   -7.8929    3.8325  -21.0081 H   0  0  0  0  0  0  0  0  0  0  0  0
   -6.8881    2.4148  -21.5143 H   0  0  0  0  0  0  0  0  0  0  0  0
   -6.8252    3.9628  -22.4105 H   0  0  0  0  0  0  0  0  0  0  0  0
  1  2  1  0
  2  3  1  0
  3  4  2  0
  3  5  1  0
  5  6  1  0
  6  7  1  0
  8  7  1  6
  8  9  1  0
  9 10  2  0
  9 11  1  0
 11 12  1  0
 12 13  2  0
 13 14  1  0
 14 15  2  0
 15 16  1  0
 16 17  2  0
 17 18  1  0
 18 19  2  0
 19 20  1  0
 20 21  2  0
 20 22  1  0
 19 23  1  0
 18 24  1  0
 17 25  1  0
 15 26  1  0
 13 27  1  0
 11 28  1  0
 28 29  1  0
 29 30  1  0
 30 31  1  0
 31 32  1  0
 32 33  2  0
 33 34  1  0
 34 35  2  0
 35 36  1  0
 36 37  2  0
 36 38  1  0
 35 39  1  0
 33 40  1  0
 31 41  1  0
 30 42  1  0
 30 43  1  0
 29 44  1  1
 28 45  1  0
 28 46  1  0
  8 47  1  0
 47 48  2  0
 48 49  1  0
 49 50  1  0
 49 51  2  0
 51 52  1  0
 52 53  2  0
 53 54  1  0
 54 55  2  0
 52 56  1  0
 51 57  1  0
 48 58  1  0
  7 59  1  0
  7 60  1  0
  5 61  1  0
  5 62  1  0
  2 63  1  0
  1 64  1  0
  1 65  1  0
  1 66  1  0
 54  6  1  0
 29  8  1  0
 37 32  1  0
 53 47  1  0
 21 12  1  0
 21 16  1  0
M  END
>  <cnnaffinities>  (89) 
[6.29904, 6.60022, 7.03588]

>  <score>  (89) 
6.29904

>  <index>  (89) 
91

>  <Smiles>  (89) 
C(N(C(=O)C(N1C([C@@]2(C(=O)N(c3c(nc(c4c(c(c(c(c34)[H])[H])[H])[H])[H])[H])C([C@@]2(C(N(c2c(nc(c(n2)[H])[H])[H])[H])([H])[H])[H])([H])[H])c2c(c(Cl)c(c(c2C1=O)[H])[H])[H])([H])[H])([H])[H])[H])([H])([H])[H]

>  <h>  (89) 
<NA>

>  <Training>  (89) 
True

>  <Success>  (89) 
True

>  <enamine_searched>  (89) 
False

>  <enamine_id>  (89) 
nan

$$$$

     RDKit          3D

 60 65  0  0  0  0  0  0  0  0999 V2000
   -6.7843   -3.4343  -26.0921 C   0  0  0  0  0  0  0  0  0  0  0  0
   -7.0226   -2.8826  -24.8218 O   0  0  0  0  0  0  0  0  0  0  0  0
   -7.9958   -3.5901  -24.0827 C   0  0  0  0  0  0  0  0  0  0  0  0
   -8.3011   -2.8791  -22.7658 C   0  0  1  0  0  0  0  0  0  0  0  0
   -7.0298   -2.5419  -21.9732 C   0  0  0  0  0  0  0  0  0  0  0  0
   -7.3850   -1.3413  -21.2413 N   0  0  0  0  0  0  0  0  0  0  0  0
   -6.5982   -0.7986  -20.1971 C   0  0  0  0  0  0  0  0  0  0  0  0
   -6.9201   -1.0341  -18.8830 C   0  0  0  0  0  0  0  0  0  0  0  0
   -6.2171   -0.5498  -17.8325 N   0  0  0  0  0  0  0  0  0  0  0  0
   -5.1818    0.2101  -18.0917 C   0  0  0  0  0  0  0  0  0  0  0  0
   -4.7407    0.5381  -19.4068 C   0  0  0  0  0  0  0  0  0  0  0  0
   -3.6244    1.3810  -19.6424 C   0  0  0  0  0  0  0  0  0  0  0  0
   -3.2322    1.6683  -20.9204 C   0  0  0  0  0  0  0  0  0  0  0  0
   -3.9229    1.1160  -22.0201 C   0  0  0  0  0  0  0  0  0  0  0  0
   -4.9955    0.2784  -21.8141 C   0  0  0  0  0  0  0  0  0  0  0  0
   -5.4490   -0.0074  -20.4998 C   0  0  0  0  0  0  0  0  0  0  0  0
   -5.5056   -0.1627  -22.6657 H   0  0  0  0  0  0  0  0  0  0  0  0
   -3.5896    1.3475  -23.0270 H   0  0  0  0  0  0  0  0  0  0  0  0
   -2.3770    2.3101  -21.0977 H   0  0  0  0  0  0  0  0  0  0  0  0
   -3.1018    1.7920  -18.7834 H   0  0  0  0  0  0  0  0  0  0  0  0
   -4.6261    0.6074  -17.2422 H   0  0  0  0  0  0  0  0  0  0  0  0
   -7.7844   -1.6478  -18.6415 H   0  0  0  0  0  0  0  0  0  0  0  0
   -8.6075   -0.8044  -21.5759 C   0  0  0  0  0  0  0  0  0  0  0  0
   -9.1515    0.1015  -20.9776 O   0  0  0  0  0  0  0  0  0  0  0  0
   -9.1499   -1.5694  -22.8083 C   0  0  1  0  0  0  0  0  0  0  0  0
   -8.8961   -0.7876  -24.1209 C   0  0  0  0  0  0  0  0  0  0  0  0
   -9.7453    0.3827  -24.2384 N   0  0  0  0  0  0  0  0  0  0  0  0
   -9.1537    1.6144  -24.7474 C   0  0  0  0  0  0  0  0  0  0  0  0
   -8.3501    2.3797  -23.7216 C   0  0  0  0  0  0  0  0  0  0  0  0
   -8.8720    3.2947  -22.7740 C   0  0  0  0  0  0  0  0  0  0  0  0
   -7.9370    3.7672  -21.9515 N   0  0  0  0  0  0  0  0  0  0  0  0
   -6.8145    3.1755  -22.3712 N   0  0  0  0  0  0  0  0  0  0  0  0
   -7.0027    2.3443  -23.4203 C   0  0  0  0  0  0  0  0  0  0  0  0
   -6.1482    1.8042  -23.8102 H   0  0  0  0  0  0  0  0  0  0  0  0
   -5.9292    3.3378  -21.9111 H   0  0  0  0  0  0  0  0  0  0  0  0
   -9.9009    3.6325  -22.6597 H   0  0  0  0  0  0  0  0  0  0  0  0
   -8.5441    1.3551  -25.6200 H   0  0  0  0  0  0  0  0  0  0  0  0
   -9.9847    2.2275  -25.1099 H   0  0  0  0  0  0  0  0  0  0  0  0
  -11.0966    0.3141  -24.0371 C   0  0  0  0  0  0  0  0  0  0  0  0
  -11.8703    1.1658  -24.4556 O   0  0  0  0  0  0  0  0  0  0  0  0
  -11.5635   -0.8612  -23.2372 C   0  0  0  0  0  0  0  0  0  0  0  0
  -12.9357   -0.9957  -23.0288 C   0  0  0  0  0  0  0  0  0  0  0  0
  -13.4266   -1.9846  -22.2039 C   0  0  0  0  0  0  0  0  0  0  0  0
  -12.5137   -2.8293  -21.5794 C   0  0  0  0  0  0  0  0  0  0  0  0
  -13.1102   -4.0232  -20.4765 Cl  0  0  0  0  0  0  0  0  0  0  0  0
  -11.1538   -2.7226  -21.7890 C   0  0  0  0  0  0  0  0  0  0  0  0
  -10.6488   -1.7490  -22.6544 C   0  0  0  0  0  0  0  0  0  0  0  0
  -10.4951   -3.3868  -21.2427 H   0  0  0  0  0  0  0  0  0  0  0  0
  -14.4875   -2.0940  -22.0109 H   0  0  0  0  0  0  0  0  0  0  0  0
  -13.5949   -0.2861  -23.5130 H   0  0  0  0  0  0  0  0  0  0  0  0
   -9.0720   -1.4763  -24.9570 H   0  0  0  0  0  0  0  0  0  0  0  0
   -7.8545   -0.4652  -24.1748 H   0  0  0  0  0  0  0  0  0  0  0  0
   -6.1779   -2.3722  -22.6414 H   0  0  0  0  0  0  0  0  0  0  0  0
   -6.7667   -3.3490  -21.2804 H   0  0  0  0  0  0  0  0  0  0  0  0
   -8.8771   -3.5993  -22.1818 H   0  0  0  0  0  0  0  0  0  0  0  0
   -7.6257   -4.6030  -23.8625 H   0  0  0  0  0  0  0  0  0  0  0  0
   -8.9206   -3.7001  -24.6730 H   0  0  0  0  0  0  0  0  0  0  0  0
   -6.0198   -2.8244  -26.5800 H   0  0  0  0  0  0  0  0  0  0  0  0
   -6.4163   -4.4687  -26.0226 H   0  0  0  0  0  0  0  0  0  0  0  0
   -7.6921   -3.4243  -26.7148 H   0  0  0  0  0  0  0  0  0  0  0  0
  1  2  1  0
  2  3  1  0
  3  4  1  0
  4  5  1  0
  5  6  1  0
  6  7  1  0
  7  8  2  0
  8  9  1  0
  9 10  2  0
 10 11  1  0
 11 12  2  0
 12 13  1  0
 13 14  2  0
 14 15  1  0
 15 16  2  0
 15 17  1  0
 14 18  1  0
 13 19  1  0
 12 20  1  0
 10 21  1  0
  8 22  1  0
  6 23  1  0
 23 24  2  0
 23 25  1  0
 25 26  1  6
 26 27  1  0
 27 28  1  0
 28 29  1  0
 29 30  1  0
 30 31  2  0
 31 32  1  0
 32 33  1  0
 33 34  1  0
 32 35  1  0
 30 36  1  0
 28 37  1  0
 28 38  1  0
 27 39  1  0
 39 40  2  0
 39 41  1  0
 41 42  2  0
 42 43  1  0
 43 44  2  0
 44 45  1  0
 44 46  1  0
 46 47  2  0
 46 48  1  0
 43 49  1  0
 42 50  1  0
 26 51  1  0
 26 52  1  0
  5 53  1  0
  5 54  1  0
  4 55  1  1
  3 56  1  0
  3 57  1  0
  1 58  1  0
  1 59  1  0
  1 60  1  0
 25  4  1  0
 33 29  2  0
 47 41  1  0
 16  7  1  0
 47 25  1  0
 16 11  1  0
M  END
>  <cnnaffinities>  (90) 
[6.54062, 6.56994]

>  <score>  (90) 
6.54062

>  <index>  (90) 
92

>  <Smiles>  (90) 
C(OC([C@]1(C(N(c2c(nc(c3c(c(c(c(c23)[H])[H])[H])[H])[H])[H])C(=O)[C@]21C(N(C(c1c(nn(c1[H])[H])[H])([H])[H])C(=O)c1c(c(c(Cl)c(c21)[H])[H])[H])([H])[H])([H])[H])[H])([H])[H])([H])([H])[H]

>  <h>  (90) 
<NA>

>  <Training>  (90) 
True

>  <Success>  (90) 
True

>  <enamine_searched>  (90) 
False

>  <enamine_id>  (90) 
nan

$$$$

     RDKit          3D

 62 67  0  0  0  0  0  0  0  0999 V2000
  -11.3177    4.3028  -25.2303 C   0  0  0  0  0  0  0  0  0  0  0  0
   -9.8240    4.1722  -25.5273 C   0  0  0  0  0  0  0  0  0  0  0  0
   -9.0687    3.5901  -24.4246 N   0  0  0  0  0  0  0  0  0  0  0  0
   -8.4880    4.4129  -23.5371 N   0  0  0  0  0  0  0  0  0  0  0  0
   -7.9035    3.6197  -22.6502 C   0  0  0  0  0  0  0  0  0  0  0  0
   -8.1113    2.2645  -22.9706 C   0  0  0  0  0  0  0  0  0  0  0  0
   -8.8911    2.2768  -24.1051 C   0  0  0  0  0  0  0  0  0  0  0  0
   -9.3914    1.1051  -24.9082 C   0  0  0  0  0  0  0  0  0  0  0  0
   -9.8533    0.0020  -24.0863 N   0  0  0  0  0  0  0  0  0  0  0  0
   -9.0378   -1.1935  -23.9802 C   0  0  0  0  0  0  0  0  0  0  0  0
   -9.2229   -1.9099  -22.6167 C   0  0  2  0  0  0  0  0  0  0  0  0
   -8.6613   -1.0276  -21.4694 C   0  0  0  0  0  0  0  0  0  0  0  0
   -9.2300   -0.1074  -20.9092 O   0  0  0  0  0  0  0  0  0  0  0  0
   -7.3767   -1.4346  -21.1922 N   0  0  0  0  0  0  0  0  0  0  0  0
   -6.5997   -0.8245  -20.1686 C   0  0  0  0  0  0  0  0  0  0  0  0
   -6.9049   -1.0485  -18.8496 C   0  0  0  0  0  0  0  0  0  0  0  0
   -6.1936   -0.5483  -17.8106 N   0  0  0  0  0  0  0  0  0  0  0  0
   -5.1640    0.2085  -18.0830 C   0  0  0  0  0  0  0  0  0  0  0  0
   -4.7311    0.5281  -19.3991 C   0  0  0  0  0  0  0  0  0  0  0  0
   -3.6076    1.3641  -19.6421 C   0  0  0  0  0  0  0  0  0  0  0  0
   -3.2277    1.6636  -20.9177 C   0  0  0  0  0  0  0  0  0  0  0  0
   -3.9576    1.1405  -22.0104 C   0  0  0  0  0  0  0  0  0  0  0  0
   -5.0493    0.3291  -21.8007 C   0  0  0  0  0  0  0  0  0  0  0  0
   -5.4670   -0.0036  -20.4870 C   0  0  0  0  0  0  0  0  0  0  0  0
   -5.5979   -0.0625  -22.6534 H   0  0  0  0  0  0  0  0  0  0  0  0
   -3.6550    1.3824  -23.0239 H   0  0  0  0  0  0  0  0  0  0  0  0
   -2.3760    2.3142  -21.1024 H   0  0  0  0  0  0  0  0  0  0  0  0
   -3.0786    1.7726  -18.7827 H   0  0  0  0  0  0  0  0  0  0  0  0
   -4.6152    0.6175  -17.2319 H   0  0  0  0  0  0  0  0  0  0  0  0
   -7.7529   -1.6731  -18.5794 H   0  0  0  0  0  0  0  0  0  0  0  0
   -6.9628   -2.6133  -21.9351 C   0  0  0  0  0  0  0  0  0  0  0  0
   -8.2909   -3.1583  -22.5105 C   0  0  2  0  0  0  0  0  0  0  0  0
   -8.0939   -3.9859  -23.7845 C   0  0  0  0  0  0  0  0  0  0  0  0
   -7.5540   -3.4112  -24.5486 H   0  0  0  0  0  0  0  0  0  0  0  0
   -7.5059   -4.8896  -23.5813 H   0  0  0  0  0  0  0  0  0  0  0  0
   -9.0501   -4.2992  -24.2207 H   0  0  0  0  0  0  0  0  0  0  0  0
   -8.7278   -3.7971  -21.7363 H   0  0  0  0  0  0  0  0  0  0  0  0
   -6.4622   -3.3256  -21.2697 H   0  0  0  0  0  0  0  0  0  0  0  0
   -6.2533   -2.3608  -22.7391 H   0  0  0  0  0  0  0  0  0  0  0  0
  -10.7128   -2.1403  -22.4344 C   0  0  0  0  0  0  0  0  0  0  0  0
  -11.2257   -3.2190  -21.7059 C   0  0  0  0  0  0  0  0  0  0  0  0
  -12.5805   -3.2770  -21.4523 C   0  0  0  0  0  0  0  0  0  0  0  0
  -13.0680   -4.2345  -20.6497 F   0  0  0  0  0  0  0  0  0  0  0  0
  -13.4810   -2.3423  -21.9433 C   0  0  0  0  0  0  0  0  0  0  0  0
  -12.9853   -1.2714  -22.6530 C   0  0  0  0  0  0  0  0  0  0  0  0
  -11.6159   -1.1632  -22.8900 C   0  0  0  0  0  0  0  0  0  0  0  0
  -11.1427    0.0427  -23.6446 C   0  0  0  0  0  0  0  0  0  0  0  0
  -11.8794    0.9936  -23.8679 O   0  0  0  0  0  0  0  0  0  0  0  0
  -13.6339   -0.4833  -23.0203 H   0  0  0  0  0  0  0  0  0  0  0  0
  -14.5322   -2.4784  -21.7240 H   0  0  0  0  0  0  0  0  0  0  0  0
  -10.5963   -3.9852  -21.2663 H   0  0  0  0  0  0  0  0  0  0  0  0
   -9.2953   -1.9076  -24.7807 H   0  0  0  0  0  0  0  0  0  0  0  0
   -7.9921   -0.8926  -24.0900 H   0  0  0  0  0  0  0  0  0  0  0  0
  -10.2047    1.4084  -25.5773 H   0  0  0  0  0  0  0  0  0  0  0  0
   -8.5749    0.7064  -25.5184 H   0  0  0  0  0  0  0  0  0  0  0  0
   -7.7785    1.3711  -22.4632 H   0  0  0  0  0  0  0  0  0  0  0  0
   -7.3653    4.0659  -21.8189 H   0  0  0  0  0  0  0  0  0  0  0  0
   -9.3665    5.1518  -25.7084 H   0  0  0  0  0  0  0  0  0  0  0  0
   -9.6522    3.5484  -26.4138 H   0  0  0  0  0  0  0  0  0  0  0  0
  -11.7707    3.3214  -25.0411 H   0  0  0  0  0  0  0  0  0  0  0  0
  -11.4847    4.9450  -24.3585 H   0  0  0  0  0  0  0  0  0  0  0  0
  -11.8196    4.7597  -26.0899 H   0  0  0  0  0  0  0  0  0  0  0  0
  1  2  1  0
  2  3  1  0
  3  4  1  0
  4  5  2  0
  5  6  1  0
  6  7  2  0
  7  8  1  0
  8  9  1  0
  9 10  1  0
 11 10  1  6
 11 12  1  0
 12 13  2  0
 12 14  1  0
 14 15  1  0
 15 16  2  0
 16 17  1  0
 17 18  2  0
 18 19  1  0
 19 20  2  0
 20 21  1  0
 21 22  2  0
 22 23  1  0
 23 24  2  0
 23 25  1  0
 22 26  1  0
 21 27  1  0
 20 28  1  0
 18 29  1  0
 16 30  1  0
 14 31  1  0
 31 32  1  0
 32 33  1  0
 33 34  1  0
 33 35  1  0
 33 36  1  0
 32 37  1  1
 31 38  1  0
 31 39  1  0
 11 40  1  0
 40 41  2  0
 41 42  1  0
 42 43  1  0
 42 44  2  0
 44 45  1  0
 45 46  2  0
 46 47  1  0
 47 48  2  0
 45 49  1  0
 44 50  1  0
 41 51  1  0
 10 52  1  0
 10 53  1  0
  8 54  1  0
  8 55  1  0
  6 56  1  0
  5 57  1  0
  2 58  1  0
  2 59  1  0
  1 60  1  0
  1 61  1  0
  1 62  1  0
  7  3  1  0
 47  9  1  0
 32 11  1  0
 46 40  1  0
 24 15  1  0
 24 19  1  0
M  END
>  <cnnaffinities>  (91) 
[6.84153]

>  <score>  (91) 
6.84153

>  <index>  (91) 
93

>  <Smiles>  (91) 
C(C(n1nc(c(c1C(N1C([C@@]2(C(=O)N(c3c(nc(c4c(c(c(c(c34)[H])[H])[H])[H])[H])[H])C([C@@]2(C([H])([H])[H])[H])([H])[H])c2c(c(F)c(c(c2C1=O)[H])[H])[H])([H])[H])([H])[H])[H])[H])([H])[H])([H])([H])[H]

>  <h>  (91) 
<NA>

>  <Training>  (91) 
True

>  <Success>  (91) 
True

>  <enamine_searched>  (91) 
False

>  <enamine_id>  (91) 
nan

$$$$

     RDKit          3D

 66 71  0  0  0  0  0  0  0  0999 V2000
  -14.3505   -1.4907  -23.6804 C   0  0  0  0  0  0  0  0  0  0  0  0
  -13.5847   -2.6770  -23.3471 N   0  0  0  0  0  0  0  0  0  0  0  0
  -13.2541   -2.9584  -22.0603 C   0  0  0  0  0  0  0  0  0  0  0  0
  -13.7456   -2.3646  -21.1120 O   0  0  0  0  0  0  0  0  0  0  0  0
  -12.2593   -4.1053  -21.8636 C   0  0  0  0  0  0  0  0  0  0  0  0
  -10.9473   -3.9706  -22.4674 N   0  0  0  0  0  0  0  0  0  0  0  0
   -9.8261   -3.5151  -21.6642 C   0  0  0  0  0  0  0  0  0  0  0  0
   -8.6624   -2.9241  -22.4995 C   0  0  2  0  0  0  0  0  0  0  0  0
   -7.5052   -2.6954  -21.5209 C   0  0  0  0  0  0  0  0  0  0  0  0
   -6.7790   -3.5471  -21.0462 O   0  0  0  0  0  0  0  0  0  0  0  0
   -7.4217   -1.3458  -21.2433 N   0  0  0  0  0  0  0  0  0  0  0  0
   -6.5975   -0.8496  -20.2041 C   0  0  0  0  0  0  0  0  0  0  0  0
   -6.8890   -1.1245  -18.8927 C   0  0  0  0  0  0  0  0  0  0  0  0
   -6.2208   -0.5904  -17.8409 N   0  0  0  0  0  0  0  0  0  0  0  0
   -5.2200    0.2161  -18.0938 C   0  0  0  0  0  0  0  0  0  0  0  0
   -4.7757    0.5406  -19.4071 C   0  0  0  0  0  0  0  0  0  0  0  0
   -3.6486    1.3719  -19.6374 C   0  0  0  0  0  0  0  0  0  0  0  0
   -3.2424    1.6403  -20.9166 C   0  0  0  0  0  0  0  0  0  0  0  0
   -3.9405    1.0922  -22.0162 C   0  0  0  0  0  0  0  0  0  0  0  0
   -5.0311    0.2819  -21.8183 C   0  0  0  0  0  0  0  0  0  0  0  0
   -5.4794   -0.0061  -20.5021 C   0  0  0  0  0  0  0  0  0  0  0  0
   -5.5482   -0.1639  -22.6618 H   0  0  0  0  0  0  0  0  0  0  0  0
   -3.6058    1.3020  -23.0283 H   0  0  0  0  0  0  0  0  0  0  0  0
   -2.3796    2.2746  -21.0969 H   0  0  0  0  0  0  0  0  0  0  0  0
   -3.1238    1.7836  -18.7796 H   0  0  0  0  0  0  0  0  0  0  0  0
   -4.6945    0.6468  -17.2398 H   0  0  0  0  0  0  0  0  0  0  0  0
   -7.7097   -1.7931  -18.6404 H   0  0  0  0  0  0  0  0  0  0  0  0
   -8.4207   -0.5332  -21.9261 C   0  0  0  0  0  0  0  0  0  0  0  0
   -8.9044   -1.4748  -23.0397 C   0  0  2  0  0  0  0  0  0  0  0  0
  -10.3384   -1.2161  -23.5041 C   0  0  0  0  0  0  0  0  0  0  0  0
  -10.5282   -0.0005  -24.2536 N   0  0  0  0  0  0  0  0  0  0  0  0
  -11.0408    1.1217  -23.6975 C   0  0  0  0  0  0  0  0  0  0  0  0
  -11.0655    2.3285  -24.4238 C   0  0  0  0  0  0  0  0  0  0  0  0
  -11.5561    3.4174  -23.7465 C   0  0  0  0  0  0  0  0  0  0  0  0
  -12.0340    3.3675  -22.4918 N   0  0  0  0  0  0  0  0  0  0  0  0
  -11.9918    2.1746  -21.9257 C   0  0  0  0  0  0  0  0  0  0  0  0
  -11.5287    1.0384  -22.4528 N   0  0  0  0  0  0  0  0  0  0  0  0
  -12.3770    2.1175  -20.9071 H   0  0  0  0  0  0  0  0  0  0  0  0
  -11.5625    4.3917  -24.2282 H   0  0  0  0  0  0  0  0  0  0  0  0
  -10.7074    2.3652  -25.4514 H   0  0  0  0  0  0  0  0  0  0  0  0
  -10.1001    0.0720  -25.1618 H   0  0  0  0  0  0  0  0  0  0  0  0
  -10.6719   -2.0642  -24.1082 H   0  0  0  0  0  0  0  0  0  0  0  0
  -10.9770   -1.1274  -22.6264 H   0  0  0  0  0  0  0  0  0  0  0  0
   -8.2213   -1.3632  -23.8921 H   0  0  0  0  0  0  0  0  0  0  0  0
   -7.9787    0.3969  -22.3015 H   0  0  0  0  0  0  0  0  0  0  0  0
   -9.2411   -0.2376  -21.2536 H   0  0  0  0  0  0  0  0  0  0  0  0
   -8.3287   -3.9343  -23.5749 C   0  0  0  0  0  0  0  0  0  0  0  0
   -7.0274   -4.0751  -24.0729 C   0  0  0  0  0  0  0  0  0  0  0  0
   -6.7535   -5.0442  -25.0233 C   0  0  0  0  0  0  0  0  0  0  0  0
   -5.1363   -5.1966  -25.6601 Cl  0  0  0  0  0  0  0  0  0  0  0  0
   -7.7378   -5.9369  -25.4438 C   0  0  0  0  0  0  0  0  0  0  0  0
   -9.0358   -5.7705  -24.9939 C   0  0  0  0  0  0  0  0  0  0  0  0
   -9.3420   -4.7476  -24.0996 C   0  0  0  0  0  0  0  0  0  0  0  0
  -10.7650   -4.5437  -23.6891 C   0  0  0  0  0  0  0  0  0  0  0  0
  -11.7261   -4.8501  -24.3944 O   0  0  0  0  0  0  0  0  0  0  0  0
   -9.8348   -6.4349  -25.3132 H   0  0  0  0  0  0  0  0  0  0  0  0
   -7.4820   -6.7588  -26.1062 H   0  0  0  0  0  0  0  0  0  0  0  0
   -6.2146   -3.4815  -23.6678 H   0  0  0  0  0  0  0  0  0  0  0  0
  -10.1695   -2.7585  -20.9549 H   0  0  0  0  0  0  0  0  0  0  0  0
   -9.4119   -4.3565  -21.1011 H   0  0  0  0  0  0  0  0  0  0  0  0
  -12.1598   -4.2699  -20.7895 H   0  0  0  0  0  0  0  0  0  0  0  0
  -12.7076   -4.9683  -22.3390 H   0  0  0  0  0  0  0  0  0  0  0  0
  -13.1697   -3.2132  -24.0963 H   0  0  0  0  0  0  0  0  0  0  0  0
  -13.7596   -0.5739  -23.5481 H   0  0  0  0  0  0  0  0  0  0  0  0
  -15.2225   -1.4007  -23.0306 H   0  0  0  0  0  0  0  0  0  0  0  0
  -14.6932   -1.5749  -24.7161 H   0  0  0  0  0  0  0  0  0  0  0  0
  1  2  1  0
  2  3  1  0
  3  4  2  0
  3  5  1  0
  5  6  1  0
  6  7  1  0
  8  7  1  1
  8  9  1  0
  9 10  2  0
  9 11  1  0
 11 12  1  0
 12 13  2  0
 13 14  1  0
 14 15  2  0
 15 16  1  0
 16 17  2  0
 17 18  1  0
 18 19  2  0
 19 20  1  0
 20 21  2  0
 20 22  1  0
 19 23  1  0
 18 24  1  0
 17 25  1  0
 15 26  1  0
 13 27  1  0
 11 28  1  0
 28 29  1  0
 29 30  1  0
 30 31  1  0
 31 32  1  0
 32 33  2  0
 33 34  1  0
 34 35  2  0
 35 36  1  0
 36 37  2  0
 36 38  1  0
 34 39  1  0
 33 40  1  0
 31 41  1  0
 30 42  1  0
 30 43  1  0
 29 44  1  6
 28 45  1  0
 28 46  1  0
  8 47  1  0
 47 48  2  0
 48 49  1  0
 49 50  1  0
 49 51  2  0
 51 52  1  0
 52 53  2  0
 53 54  1  0
 54 55  2  0
 52 56  1  0
 51 57  1  0
 48 58  1  0
  7 59  1  0
  7 60  1  0
  5 61  1  0
  5 62  1  0
  2 63  1  0
  1 64  1  0
  1 65  1  0
  1 66  1  0
 54  6  1  0
 29  8  1  0
 37 32  1  0
 53 47  1  0
 21 12  1  0
 21 16  1  0
M  END
>  <cnnaffinities>  (92) 
[7.08642, 6.93091, 6.86365]

>  <score>  (92) 
7.08642

>  <index>  (92) 
95

>  <Smiles>  (92) 
C(N(C(=O)C(N1C([C@@]2(C(=O)N(c3c(nc(c4c(c(c(c(c34)[H])[H])[H])[H])[H])[H])C([C@@]2(C(N(c2c(c(nc(n2)[H])[H])[H])[H])([H])[H])[H])([H])[H])c2c(c(Cl)c(c(c2C1=O)[H])[H])[H])([H])[H])([H])[H])[H])([H])([H])[H]

>  <h>  (92) 
<NA>

>  <Training>  (92) 
True

>  <Success>  (92) 
True

>  <enamine_searched>  (92) 
False

>  <enamine_id>  (92) 
nan

$$$$

     RDKit          3D

 66 70  0  0  0  0  0  0  0  0999 V2000
   -7.4506    3.3392  -21.7599 C   0  0  0  0  0  0  0  0  0  0  0  0
   -8.3685    2.8980  -22.7954 N   0  0  0  0  0  0  0  0  0  0  0  0
   -7.8308    2.1984  -23.8222 C   0  0  0  0  0  0  0  0  0  0  0  0
   -6.6193    2.0801  -23.9628 O   0  0  0  0  0  0  0  0  0  0  0  0
   -8.8058    1.5769  -24.8267 C   0  0  0  0  0  0  0  0  0  0  0  0
   -9.5072    0.4133  -24.3187 N   0  0  0  0  0  0  0  0  0  0  0  0
   -8.7727   -0.8293  -24.1767 C   0  0  0  0  0  0  0  0  0  0  0  0
   -9.1167   -1.5484  -22.8483 C   0  0  2  0  0  0  0  0  0  0  0  0
   -8.5486   -0.7469  -21.6437 C   0  0  0  0  0  0  0  0  0  0  0  0
   -9.0056    0.2635  -21.1519 O   0  0  0  0  0  0  0  0  0  0  0  0
   -7.4055   -1.3775  -21.2008 N   0  0  0  0  0  0  0  0  0  0  0  0
   -6.6053   -0.8077  -20.1739 C   0  0  0  0  0  0  0  0  0  0  0  0
   -6.9074   -1.0422  -18.8574 C   0  0  0  0  0  0  0  0  0  0  0  0
   -6.1978   -0.5506  -17.8136 N   0  0  0  0  0  0  0  0  0  0  0  0
   -5.1651    0.2084  -18.0811 C   0  0  0  0  0  0  0  0  0  0  0  0
   -4.7293    0.5317  -19.3960 C   0  0  0  0  0  0  0  0  0  0  0  0
   -3.6054    1.3683  -19.6422 C   0  0  0  0  0  0  0  0  0  0  0  0
   -3.2221    1.6632  -20.9208 C   0  0  0  0  0  0  0  0  0  0  0  0
   -3.9473    1.1356  -22.0133 C   0  0  0  0  0  0  0  0  0  0  0  0
   -5.0376    0.3245  -21.8013 C   0  0  0  0  0  0  0  0  0  0  0  0
   -5.4665    0.0034  -20.4863 C   0  0  0  0  0  0  0  0  0  0  0  0
   -5.5931   -0.0608  -22.6521 H   0  0  0  0  0  0  0  0  0  0  0  0
   -3.6556    1.3742  -23.0299 H   0  0  0  0  0  0  0  0  0  0  0  0
   -2.3713    2.3142  -21.1017 H   0  0  0  0  0  0  0  0  0  0  0  0
   -3.0783    1.7781  -18.7837 H   0  0  0  0  0  0  0  0  0  0  0  0
   -4.6180    0.6135  -17.2292 H   0  0  0  0  0  0  0  0  0  0  0  0
   -7.7580   -1.6665  -18.5963 H   0  0  0  0  0  0  0  0  0  0  0  0
   -7.0694   -2.5895  -21.9238 C   0  0  0  0  0  0  0  0  0  0  0  0
   -8.3546   -2.9009  -22.7206 C   0  0  2  0  0  0  0  0  0  0  0  0
   -8.0580   -3.6710  -24.0139 C   0  0  0  0  0  0  0  0  0  0  0  0
   -7.4880   -4.9324  -23.7268 O   0  0  0  0  0  0  0  0  0  0  0  0
   -8.4265   -6.0012  -23.6066 C   0  0  0  0  0  0  0  0  0  0  0  0
   -7.9266   -6.9300  -22.5112 C   0  0  0  0  0  0  0  0  0  0  0  0
   -7.8658   -6.3938  -21.5593 H   0  0  0  0  0  0  0  0  0  0  0  0
   -6.9316   -7.3103  -22.7580 H   0  0  0  0  0  0  0  0  0  0  0  0
   -8.6009   -7.7868  -22.4097 H   0  0  0  0  0  0  0  0  0  0  0  0
   -8.5636   -6.7369  -24.9374 C   0  0  0  0  0  0  0  0  0  0  0  0
   -8.9085   -6.0668  -25.7331 H   0  0  0  0  0  0  0  0  0  0  0  0
   -9.2835   -7.5591  -24.8455 H   0  0  0  0  0  0  0  0  0  0  0  0
   -7.5915   -7.1492  -25.2271 H   0  0  0  0  0  0  0  0  0  0  0  0
   -9.4110   -5.5831  -23.3274 H   0  0  0  0  0  0  0  0  0  0  0  0
   -8.9728   -3.7785  -24.6217 H   0  0  0  0  0  0  0  0  0  0  0  0
   -7.3143   -3.1308  -24.6165 H   0  0  0  0  0  0  0  0  0  0  0  0
   -8.9766   -3.5555  -22.1050 H   0  0  0  0  0  0  0  0  0  0  0  0
   -6.7966   -3.3976  -21.2345 H   0  0  0  0  0  0  0  0  0  0  0  0
   -6.2083   -2.4292  -22.5920 H   0  0  0  0  0  0  0  0  0  0  0  0
  -10.6305   -1.6189  -22.7399 C   0  0  0  0  0  0  0  0  0  0  0  0
  -11.2336   -2.5279  -21.8631 C   0  0  0  0  0  0  0  0  0  0  0  0
  -12.6096   -2.5627  -21.7367 C   0  0  0  0  0  0  0  0  0  0  0  0
  -13.3469   -3.6868  -20.6327 Cl  0  0  0  0  0  0  0  0  0  0  0  0
  -13.4288   -1.6965  -22.4596 C   0  0  0  0  0  0  0  0  0  0  0  0
  -12.8411   -0.7579  -23.2831 C   0  0  0  0  0  0  0  0  0  0  0  0
  -11.4532   -0.6954  -23.4027 C   0  0  0  0  0  0  0  0  0  0  0  0
  -10.8701    0.4418  -24.1872 C   0  0  0  0  0  0  0  0  0  0  0  0
  -11.5669    1.3399  -24.6421 O   0  0  0  0  0  0  0  0  0  0  0  0
  -13.4252   -0.0299  -23.8376 H   0  0  0  0  0  0  0  0  0  0  0  0
  -14.5047   -1.7508  -22.3479 H   0  0  0  0  0  0  0  0  0  0  0  0
  -10.6357   -3.1924  -21.2515 H   0  0  0  0  0  0  0  0  0  0  0  0
   -8.9970   -1.5072  -25.0168 H   0  0  0  0  0  0  0  0  0  0  0  0
   -7.7084   -0.5743  -24.1952 H   0  0  0  0  0  0  0  0  0  0  0  0
   -9.5905    2.2769  -25.1241 H   0  0  0  0  0  0  0  0  0  0  0  0
   -8.1908    1.3142  -25.6969 H   0  0  0  0  0  0  0  0  0  0  0  0
   -9.3593    2.8130  -22.6101 H   0  0  0  0  0  0  0  0  0  0  0  0
   -6.7732    4.1073  -22.1505 H   0  0  0  0  0  0  0  0  0  0  0  0
   -6.8416    2.4851  -21.4246 H   0  0  0  0  0  0  0  0  0  0  0  0
   -8.0184    3.7656  -20.9345 H   0  0  0  0  0  0  0  0  0  0  0  0
  1  2  1  0
  2  3  1  0
  3  4  2  0
  3  5  1  0
  5  6  1  0
  6  7  1  0
  8  7  1  6
  8  9  1  0
  9 10  2  0
  9 11  1  0
 11 12  1  0
 12 13  2  0
 13 14  1  0
 14 15  2  0
 15 16  1  0
 16 17  2  0
 17 18  1  0
 18 19  2  0
 19 20  1  0
 20 21  2  0
 20 22  1  0
 19 23  1  0
 18 24  1  0
 17 25  1  0
 15 26  1  0
 13 27  1  0
 11 28  1  0
 28 29  1  0
 29 30  1  0
 30 31  1  0
 31 32  1  0
 32 33  1  0
 33 34  1  0
 33 35  1  0
 33 36  1  0
 32 37  1  0
 37 38  1  0
 37 39  1  0
 37 40  1  0
 32 41  1  0
 30 42  1  0
 30 43  1  0
 29 44  1  1
 28 45  1  0
 28 46  1  0
  8 47  1  0
 47 48  2  0
 48 49  1  0
 49 50  1  0
 49 51  2  0
 51 52  1  0
 52 53  2  0
 53 54  1  0
 54 55  2  0
 52 56  1  0
 51 57  1  0
 48 58  1  0
  7 59  1  0
  7 60  1  0
  5 61  1  0
  5 62  1  0
  2 63  1  0
  1 64  1  0
  1 65  1  0
  1 66  1  0
 54  6  1  0
 29  8  1  0
 53 47  1  0
 21 12  1  0
 21 16  1  0
M  END
>  <cnnaffinities>  (93) 
[6.36287, 6.38168, 6.4967, 6.64595, 6.38923]

>  <score>  (93) 
6.36287

>  <index>  (93) 
96

>  <Smiles>  (93) 
C(N(C(=O)C(N1C([C@@]2(C(=O)N(c3c(nc(c4c(c(c(c(c34)[H])[H])[H])[H])[H])[H])C([C@@]2(C(OC(C([H])([H])[H])(C([H])([H])[H])[H])([H])[H])[H])([H])[H])c2c(c(Cl)c(c(c2C1=O)[H])[H])[H])([H])[H])([H])[H])[H])([H])([H])[H]

>  <h>  (93) 
<NA>

>  <Training>  (93) 
True

>  <Success>  (93) 
True

>  <enamine_searched>  (93) 
False

>  <enamine_id>  (93) 
nan

$$$$

     RDKit          3D

 40 43  0  0  0  0  0  0  0  0999 V2000
  -12.6022   -3.8016  -21.2130 C   0  0  0  0  0  0  0  0  0  0  0  0
  -11.5375   -2.8291  -21.7428 C   0  0  2  0  0  0  0  0  0  0  0  0
  -11.9920   -2.3063  -23.0992 C   0  0  0  0  0  0  0  0  0  0  0  0
  -11.1065   -1.3611  -23.6515 O   0  0  0  0  0  0  0  0  0  0  0  0
   -9.8147   -1.8740  -23.8455 C   0  0  0  0  0  0  0  0  0  0  0  0
   -9.1576   -2.3595  -22.5485 C   0  0  1  0  0  0  0  0  0  0  0  0
  -10.1100   -3.3658  -21.8513 C   0  0  0  0  0  0  0  0  0  0  0  0
  -10.1013   -4.2885  -22.4491 H   0  0  0  0  0  0  0  0  0  0  0  0
   -9.6947   -3.5940  -20.8615 H   0  0  0  0  0  0  0  0  0  0  0  0
   -7.8755   -2.9616  -22.8688 N   0  0  0  0  0  0  0  0  0  0  0  0
   -6.8639   -2.5923  -22.0201 C   0  0  0  0  0  0  0  0  0  0  0  0
   -5.7549   -3.0601  -21.9280 O   0  0  0  0  0  0  0  0  0  0  0  0
   -7.3728   -1.5214  -21.2669 N   0  0  0  0  0  0  0  0  0  0  0  0
   -6.6241   -0.8862  -20.2358 C   0  0  0  0  0  0  0  0  0  0  0  0
   -6.9622   -1.0796  -18.9186 C   0  0  0  0  0  0  0  0  0  0  0  0
   -6.2814   -0.5658  -17.8660 N   0  0  0  0  0  0  0  0  0  0  0  0
   -5.2409    0.1777  -18.1353 C   0  0  0  0  0  0  0  0  0  0  0  0
   -4.7867    0.4707  -19.4482 C   0  0  0  0  0  0  0  0  0  0  0  0
   -3.6644    1.3146  -19.6504 C   0  0  0  0  0  0  0  0  0  0  0  0
   -3.2661    1.6288  -20.9180 C   0  0  0  0  0  0  0  0  0  0  0  0
   -3.9765    1.1162  -22.0290 C   0  0  0  0  0  0  0  0  0  0  0  0
   -5.0642    0.2923  -21.8579 C   0  0  0  0  0  0  0  0  0  0  0  0
   -5.4959   -0.0623  -20.5473 C   0  0  0  0  0  0  0  0  0  0  0  0
   -5.6022   -0.0799  -22.7258 H   0  0  0  0  0  0  0  0  0  0  0  0
   -3.6597    1.3859  -23.0324 H   0  0  0  0  0  0  0  0  0  0  0  0
   -2.4189    2.2915  -21.0774 H   0  0  0  0  0  0  0  0  0  0  0  0
   -3.1670    1.7193  -18.7702 H   0  0  0  0  0  0  0  0  0  0  0  0
   -4.6956    0.5978  -17.2908 H   0  0  0  0  0  0  0  0  0  0  0  0
   -7.8214   -1.6929  -18.6697 H   0  0  0  0  0  0  0  0  0  0  0  0
   -8.7032   -1.2431  -21.5904 C   0  0  0  0  0  0  0  0  0  0  0  0
   -9.3362   -0.3088  -21.1596 O   0  0  0  0  0  0  0  0  0  0  0  0
   -7.8447   -3.8832  -23.2781 H   0  0  0  0  0  0  0  0  0  0  0  0
   -9.2262   -1.0759  -24.3043 H   0  0  0  0  0  0  0  0  0  0  0  0
   -9.8378   -2.7411  -24.5287 H   0  0  0  0  0  0  0  0  0  0  0  0
  -12.9591   -1.8007  -22.9906 H   0  0  0  0  0  0  0  0  0  0  0  0
  -12.1224   -3.1764  -23.7729 H   0  0  0  0  0  0  0  0  0  0  0  0
  -11.4725   -1.9846  -21.0670 H   0  0  0  0  0  0  0  0  0  0  0  0
  -12.2549   -4.4118  -20.3715 H   0  0  0  0  0  0  0  0  0  0  0  0
  -12.9609   -4.4684  -22.0081 H   0  0  0  0  0  0  0  0  0  0  0  0
  -13.4612   -3.2236  -20.8549 H   0  0  0  0  0  0  0  0  0  0  0  0
  1  2  1  0
  2  3  1  0
  3  4  1  0
  4  5  1  0
  5  6  1  0
  6  7  1  0
  7  8  1  0
  7  9  1  0
  6 10  1  6
 10 11  1  0
 11 12  2  0
 11 13  1  0
 13 14  1  0
 14 15  2  0
 15 16  1  0
 16 17  2  0
 17 18  1  0
 18 19  2  0
 19 20  1  0
 20 21  2  0
 21 22  1  0
 22 23  2  0
 22 24  1  0
 21 25  1  0
 20 26  1  0
 19 27  1  0
 17 28  1  0
 15 29  1  0
 13 30  1  0
 30 31  2  0
 10 32  1  0
  5 33  1  0
  5 34  1  0
  3 35  1  0
  3 36  1  0
  2 37  1  1
  1 38  1  0
  1 39  1  0
  1 40  1  0
  7  2  1  0
 23 14  1  0
 30  6  1  0
 23 18  1  0
M  END
>  <cnnaffinities>  (94) 
[5.52069]

>  <score>  (94) 
5.52069

>  <index>  (94) 
97

>  <Smiles>  (94) 
C([C@@]1(C(OC([C@@]2(C1([H])[H])N(C(=O)N(c1c(nc(c3c(c(c(c(c13)[H])[H])[H])[H])[H])[H])C2=O)[H])([H])[H])([H])[H])[H])([H])([H])[H]

>  <h>  (94) 
<NA>

>  <Training>  (94) 
True

>  <Success>  (94) 
True

>  <enamine_searched>  (94) 
False

>  <enamine_id>  (94) 
nan

$$$$
