
     RDKit          3D

 66 71  0  0  0  0  0  0  0  0999 V2000
   -6.8131    0.0951  -29.3771 C   0  0  0  0  0  0  0  0  0  0  0  0
   -7.1583    0.6289  -28.0763 N   0  0  0  0  0  0  0  0  0  0  0  0
   -6.6101    0.0536  -26.9756 C   0  0  0  0  0  0  0  0  0  0  0  0
   -5.8123   -0.8719  -27.0220 O   0  0  0  0  0  0  0  0  0  0  0  0
   -7.1040    0.6554  -25.6618 C   0  0  0  0  0  0  0  0  0  0  0  0
   -8.2088   -0.1063  -25.1290 N   0  0  0  0  0  0  0  0  0  0  0  0
   -7.9405   -1.3917  -24.5193 C   0  0  0  0  0  0  0  0  0  0  0  0
   -8.7755   -1.5713  -23.2288 C   0  0  2  0  0  0  0  0  0  0  0  0
   -8.2278   -0.6142  -22.1289 C   0  0  0  0  0  0  0  0  0  0  0  0
   -8.3926    0.5807  -22.0318 O   0  0  0  0  0  0  0  0  0  0  0  0
   -7.4589   -1.3623  -21.2574 N   0  0  0  0  0  0  0  0  0  0  0  0
   -6.6457   -0.8057  -20.2350 C   0  0  0  0  0  0  0  0  0  0  0  0
   -6.9314   -1.0782  -18.9179 C   0  0  0  0  0  0  0  0  0  0  0  0
   -6.2501   -0.5869  -17.8528 N   0  0  0  0  0  0  0  0  0  0  0  0
   -5.2247    0.1902  -18.1106 C   0  0  0  0  0  0  0  0  0  0  0  0
   -4.7787    0.5103  -19.4241 C   0  0  0  0  0  0  0  0  0  0  0  0
   -3.6399    1.3337  -19.6315 C   0  0  0  0  0  0  0  0  0  0  0  0
   -3.2033    1.6059  -20.8988 C   0  0  0  0  0  0  0  0  0  0  0  0
   -3.8769    1.0602  -22.0140 C   0  0  0  0  0  0  0  0  0  0  0  0
   -4.9864    0.2685  -21.8390 C   0  0  0  0  0  0  0  0  0  0  0  0
   -5.4849   -0.0121  -20.5316 C   0  0  0  0  0  0  0  0  0  0  0  0
   -5.4864   -0.1439  -22.7117 H   0  0  0  0  0  0  0  0  0  0  0  0
   -3.5130    1.2703  -23.0157 H   0  0  0  0  0  0  0  0  0  0  0  0
   -2.3378    2.2421  -21.0558 H   0  0  0  0  0  0  0  0  0  0  0  0
   -3.1358    1.7421  -18.7593 H   0  0  0  0  0  0  0  0  0  0  0  0
   -4.6747    0.5965  -17.2617 H   0  0  0  0  0  0  0  0  0  0  0  0
   -7.7805   -1.7173  -18.6812 H   0  0  0  0  0  0  0  0  0  0  0  0
   -7.4064   -2.7676  -21.5908 C   0  0  0  0  0  0  0  0  0  0  0  0
   -8.5586   -2.9575  -22.5748 C   0  0  2  0  0  0  0  0  0  0  0  0
   -8.3330   -4.1300  -23.5165 C   0  0  0  0  0  0  0  0  0  0  0  0
   -9.4534   -4.3514  -24.3885 N   0  0  0  0  0  0  0  0  0  0  0  0
   -9.4428   -5.2747  -25.3746 C   0  0  0  0  0  0  0  0  0  0  0  0
   -8.3714   -6.1661  -25.5775 C   0  0  0  0  0  0  0  0  0  0  0  0
   -8.4940   -7.0391  -26.6371 C   0  0  0  0  0  0  0  0  0  0  0  0
   -9.5549   -7.0711  -27.4493 N   0  0  0  0  0  0  0  0  0  0  0  0
  -10.5064   -6.1992  -27.1444 C   0  0  0  0  0  0  0  0  0  0  0  0
  -10.5241   -5.3067  -26.1623 N   0  0  0  0  0  0  0  0  0  0  0  0
  -11.3894   -6.2040  -27.7771 H   0  0  0  0  0  0  0  0  0  0  0  0
   -7.7040   -7.7519  -26.8623 H   0  0  0  0  0  0  0  0  0  0  0  0
   -7.4892   -6.1744  -24.9504 H   0  0  0  0  0  0  0  0  0  0  0  0
  -10.2573   -3.7397  -24.4013 H   0  0  0  0  0  0  0  0  0  0  0  0
   -7.4265   -3.9519  -24.1149 H   0  0  0  0  0  0  0  0  0  0  0  0
   -8.1617   -5.0423  -22.9347 H   0  0  0  0  0  0  0  0  0  0  0  0
   -9.4513   -3.1802  -21.9878 H   0  0  0  0  0  0  0  0  0  0  0  0
   -7.5335   -3.3524  -20.6845 H   0  0  0  0  0  0  0  0  0  0  0  0
   -6.4391   -3.0539  -22.0295 H   0  0  0  0  0  0  0  0  0  0  0  0
  -10.2198   -1.2991  -23.5911 C   0  0  0  0  0  0  0  0  0  0  0  0
  -11.2697   -1.7901  -22.8034 C   0  0  0  0  0  0  0  0  0  0  0  0
  -12.5666   -1.3855  -23.0549 C   0  0  0  0  0  0  0  0  0  0  0  0
  -13.8099   -1.8861  -21.9496 Cl  0  0  0  0  0  0  0  0  0  0  0  0
  -12.8951   -0.5621  -24.1304 C   0  0  0  0  0  0  0  0  0  0  0  0
  -11.8674   -0.1090  -24.9333 C   0  0  0  0  0  0  0  0  0  0  0  0
  -10.5446   -0.4385  -24.6514 C   0  0  0  0  0  0  0  0  0  0  0  0
   -9.4819    0.2694  -25.4301 C   0  0  0  0  0  0  0  0  0  0  0  0
   -9.7275    1.1487  -26.2558 O   0  0  0  0  0  0  0  0  0  0  0  0
  -12.0494    0.5336  -25.7840 H   0  0  0  0  0  0  0  0  0  0  0  0
  -13.9247   -0.2622  -24.2954 H   0  0  0  0  0  0  0  0  0  0  0  0
  -11.1036   -2.4786  -21.9811 H   0  0  0  0  0  0  0  0  0  0  0  0
   -8.1802   -2.2038  -25.2213 H   0  0  0  0  0  0  0  0  0  0  0  0
   -6.8686   -1.4535  -24.3096 H   0  0  0  0  0  0  0  0  0  0  0  0
   -7.4404    1.6891  -25.7950 H   0  0  0  0  0  0  0  0  0  0  0  0
   -6.2858    0.6189  -24.9371 H   0  0  0  0  0  0  0  0  0  0  0  0
   -7.9966    1.1858  -27.9613 H   0  0  0  0  0  0  0  0  0  0  0  0
   -5.7356    0.1982  -29.5402 H   0  0  0  0  0  0  0  0  0  0  0  0
   -7.3432    0.6524  -30.1519 H   0  0  0  0  0  0  0  0  0  0  0  0
   -7.0708   -0.9690  -29.4466 H   0  0  0  0  0  0  0  0  0  0  0  0
  1  2  1  0
  2  3  1  0
  3  4  2  0
  3  5  1  0
  5  6  1  0
  6  7  1  0
  8  7  1  6
  8  9  1  0
  9 10  2  0
  9 11  1  0
 11 12  1  0
 12 13  2  0
 13 14  1  0
 14 15  2  0
 15 16  1  0
 16 17  2  0
 17 18  1  0
 18 19  2  0
 19 20  1  0
 20 21  2  0
 20 22  1  0
 19 23  1  0
 18 24  1  0
 17 25  1  0
 15 26  1  0
 13 27  1  0
 11 28  1  0
 28 29  1  0
 29 30  1  0
 30 31  1  0
 31 32  1  0
 32 33  2  0
 33 34  1  0
 34 35  2  0
 35 36  1  0
 36 37  2  0
 36 38  1  0
 34 39  1  0
 33 40  1  0
 31 41  1  0
 30 42  1  0
 30 43  1  0
 29 44  1  1
 28 45  1  0
 28 46  1  0
  8 47  1  0
 47 48  2  0
 48 49  1  0
 49 50  1  0
 49 51  2  0
 51 52  1  0
 52 53  2  0
 53 54  1  0
 54 55  2  0
 52 56  1  0
 51 57  1  0
 48 58  1  0
  7 59  1  0
  7 60  1  0
  5 61  1  0
  5 62  1  0
  2 63  1  0
  1 64  1  0
  1 65  1  0
  1 66  1  0
 54  6  1  0
 29  8  1  0
 37 32  1  0
 53 47  1  0
 21 12  1  0
 21 16  1  0
M  END
>  <cnnaffinities>  (1) 
[6.87723, 6.51967, 6.81834]

>  <score>  (1) 
6.87723

>  <index>  (1) 
0

>  <Smiles>  (1) 
C(N(C(=O)C(N1C([C@@]2(C(=O)N(c3c(nc(c4c(c(c(c(c34)[H])[H])[H])[H])[H])[H])C([C@@]2(C(N(c2c(c(nc(n2)[H])[H])[H])[H])([H])[H])[H])([H])[H])c2c(c(Cl)c(c(c2C1=O)[H])[H])[H])([H])[H])([H])[H])[H])([H])([H])[H]

>  <h>  (1) 
<NA>

>  <Training>  (1) 
True

>  <Success>  (1) 
True

>  <enamine_searched>  (1) 
False

>  <enamine_id>  (1) 
nan

$$$$

     RDKit          3D

 68 73  0  0  0  0  0  0  0  0999 V2000
   -9.8587    0.8787  -29.1562 C   0  0  0  0  0  0  0  0  0  0  0  0
   -9.6326   -0.3687  -28.4479 N   0  0  0  0  0  0  0  0  0  0  0  0
   -8.7347   -0.3751  -27.4235 C   0  0  0  0  0  0  0  0  0  0  0  0
   -8.0321    0.5855  -27.1442 O   0  0  0  0  0  0  0  0  0  0  0  0
   -8.6397   -1.6954  -26.6554 C   0  0  0  0  0  0  0  0  0  0  0  0
   -9.3021   -1.6202  -25.3700 N   0  0  0  0  0  0  0  0  0  0  0  0
   -8.6084   -1.0599  -24.2171 C   0  0  0  0  0  0  0  0  0  0  0  0
   -8.9887   -1.7893  -22.9092 C   0  0  2  0  0  0  0  0  0  0  0  0
   -8.4920   -0.8936  -21.7456 C   0  0  0  0  0  0  0  0  0  0  0  0
   -8.9359    0.1786  -21.3873 O   0  0  0  0  0  0  0  0  0  0  0  0
   -7.3731   -1.4801  -21.1972 N   0  0  0  0  0  0  0  0  0  0  0  0
   -6.6142   -0.8383  -20.1850 C   0  0  0  0  0  0  0  0  0  0  0  0
   -6.9402   -1.0456  -18.8717 C   0  0  0  0  0  0  0  0  0  0  0  0
   -6.2533   -0.5424  -17.8146 N   0  0  0  0  0  0  0  0  0  0  0  0
   -5.2100    0.2043  -18.0827 C   0  0  0  0  0  0  0  0  0  0  0  0
   -4.7636    0.5113  -19.4006 C   0  0  0  0  0  0  0  0  0  0  0  0
   -3.6328    1.3378  -19.6283 C   0  0  0  0  0  0  0  0  0  0  0  0
   -3.2279    1.6183  -20.9037 C   0  0  0  0  0  0  0  0  0  0  0  0
   -3.9328    1.0868  -22.0063 C   0  0  0  0  0  0  0  0  0  0  0  0
   -5.0317    0.2856  -21.8115 C   0  0  0  0  0  0  0  0  0  0  0  0
   -5.4768   -0.0252  -20.4968 C   0  0  0  0  0  0  0  0  0  0  0  0
   -5.5727   -0.1082  -22.6663 H   0  0  0  0  0  0  0  0  0  0  0  0
   -3.6007    1.3177  -23.0139 H   0  0  0  0  0  0  0  0  0  0  0  0
   -2.3645    2.2548  -21.0764 H   0  0  0  0  0  0  0  0  0  0  0  0
   -3.1094    1.7427  -18.7659 H   0  0  0  0  0  0  0  0  0  0  0  0
   -4.6547    0.6105  -17.2362 H   0  0  0  0  0  0  0  0  0  0  0  0
   -7.8042   -1.6610  -18.6331 H   0  0  0  0  0  0  0  0  0  0  0  0
   -6.9870   -2.7335  -21.8081 C   0  0  0  0  0  0  0  0  0  0  0  0
   -8.2315   -3.1344  -22.6050 C   0  0  2  0  0  0  0  0  0  0  0  0
   -7.8843   -4.0090  -23.8031 C   0  0  0  0  0  0  0  0  0  0  0  0
   -9.0743   -4.5990  -24.3737 N   0  0  0  0  0  0  0  0  0  0  0  0
   -9.0270   -5.0770  -25.6745 C   0  0  0  0  0  0  0  0  0  0  0  0
  -10.1263   -5.4845  -26.4813 C   0  0  0  0  0  0  0  0  0  0  0  0
   -9.7164   -5.9389  -27.6620 N   0  0  0  0  0  0  0  0  0  0  0  0
   -8.3850   -5.8395  -27.6434 N   0  0  0  0  0  0  0  0  0  0  0  0
   -7.6083   -6.2730  -28.7891 C   0  0  0  0  0  0  0  0  0  0  0  0
   -7.4086   -5.4432  -29.4820 H   0  0  0  0  0  0  0  0  0  0  0  0
   -6.6552   -6.6942  -28.4467 H   0  0  0  0  0  0  0  0  0  0  0  0
   -8.1861   -7.0466  -29.3044 H   0  0  0  0  0  0  0  0  0  0  0  0
   -7.9214   -5.3158  -26.4732 C   0  0  0  0  0  0  0  0  0  0  0  0
   -6.8582   -5.1520  -26.3108 H   0  0  0  0  0  0  0  0  0  0  0  0
  -11.1921   -5.4952  -26.2636 H   0  0  0  0  0  0  0  0  0  0  0  0
   -9.9669   -4.1932  -24.1132 H   0  0  0  0  0  0  0  0  0  0  0  0
   -7.3474   -3.4063  -24.5540 H   0  0  0  0  0  0  0  0  0  0  0  0
   -7.1927   -4.8018  -23.4864 H   0  0  0  0  0  0  0  0  0  0  0  0
   -8.8880   -3.7169  -21.9405 H   0  0  0  0  0  0  0  0  0  0  0  0
   -6.7203   -3.4660  -21.0397 H   0  0  0  0  0  0  0  0  0  0  0  0
   -6.1061   -2.6175  -22.4602 H   0  0  0  0  0  0  0  0  0  0  0  0
  -10.4923   -1.9502  -22.9196 C   0  0  0  0  0  0  0  0  0  0  0  0
  -11.1208   -2.3403  -21.7399 C   0  0  0  0  0  0  0  0  0  0  0  0
  -12.4960   -2.4880  -21.7073 C   0  0  0  0  0  0  0  0  0  0  0  0
  -13.2503   -3.2320  -20.3343 Cl  0  0  0  0  0  0  0  0  0  0  0  0
  -13.3011   -2.0744  -22.7718 C   0  0  0  0  0  0  0  0  0  0  0  0
  -12.6779   -1.6235  -23.9263 C   0  0  0  0  0  0  0  0  0  0  0  0
  -11.2913   -1.7014  -24.0432 C   0  0  0  0  0  0  0  0  0  0  0  0
  -10.6649   -1.6852  -25.3954 C   0  0  0  0  0  0  0  0  0  0  0  0
  -11.2893   -1.7732  -26.4523 O   0  0  0  0  0  0  0  0  0  0  0  0
  -13.2207   -1.2292  -24.7829 H   0  0  0  0  0  0  0  0  0  0  0  0
  -14.3810   -2.1763  -22.7078 H   0  0  0  0  0  0  0  0  0  0  0  0
  -10.4984   -2.4539  -20.8664 H   0  0  0  0  0  0  0  0  0  0  0  0
   -7.5298   -1.1192  -24.3977 H   0  0  0  0  0  0  0  0  0  0  0  0
   -8.8713    0.0029  -24.0807 H   0  0  0  0  0  0  0  0  0  0  0  0
   -7.5873   -1.9026  -26.4640 H   0  0  0  0  0  0  0  0  0  0  0  0
   -9.0787   -2.5245  -27.2190 H   0  0  0  0  0  0  0  0  0  0  0  0
  -10.4043   -1.0169  -28.3521 H   0  0  0  0  0  0  0  0  0  0  0  0
   -8.9365    1.1802  -29.6664 H   0  0  0  0  0  0  0  0  0  0  0  0
  -10.6441    0.7232  -29.9023 H   0  0  0  0  0  0  0  0  0  0  0  0
  -10.1522    1.6847  -28.4679 H   0  0  0  0  0  0  0  0  0  0  0  0
  1  2  1  0
  2  3  1  0
  3  4  2  0
  3  5  1  0
  5  6  1  0
  6  7  1  0
  8  7  1  6
  8  9  1  0
  9 10  2  0
  9 11  1  0
 11 12  1  0
 12 13  2  0
 13 14  1  0
 14 15  2  0
 15 16  1  0
 16 17  2  0
 17 18  1  0
 18 19  2  0
 19 20  1  0
 20 21  2  0
 20 22  1  0
 19 23  1  0
 18 24  1  0
 17 25  1  0
 15 26  1  0
 13 27  1  0
 11 28  1  0
 28 29  1  0
 29 30  1  0
 30 31  1  0
 31 32  1  0
 32 33  1  0
 33 34  2  0
 34 35  1  0
 35 36  1  0
 36 37  1  0
 36 38  1  0
 36 39  1  0
 35 40  1  0
 40 41  1  0
 33 42  1  0
 31 43  1  0
 30 44  1  0
 30 45  1  0
 29 46  1  1
 28 47  1  0
 28 48  1  0
  8 49  1  0
 49 50  2  0
 50 51  1  0
 51 52  1  0
 51 53  2  0
 53 54  1  0
 54 55  2  0
 55 56  1  0
 56 57  2  0
 54 58  1  0
 53 59  1  0
 50 60  1  0
  7 61  1  0
  7 62  1  0
  5 63  1  0
  5 64  1  0
  2 65  1  0
  1 66  1  0
  1 67  1  0
  1 68  1  0
 56  6  1  0
 29  8  1  0
 40 32  2  0
 55 49  1  0
 21 12  1  0
 21 16  1  0
M  END
>  <cnnaffinities>  (2) 
[7.2889, 6.79981]

>  <score>  (2) 
7.2889

>  <index>  (2) 
1

>  <Smiles>  (2) 
C(N(C(=O)C(N1C([C@@]2(C(=O)N(c3c(nc(c4c(c(c(c(c34)[H])[H])[H])[H])[H])[H])C([C@@]2(C(N(c2c(nn(C([H])([H])[H])c2[H])[H])[H])([H])[H])[H])([H])[H])c2c(c(Cl)c(c(c2C1=O)[H])[H])[H])([H])[H])([H])[H])[H])([H])([H])[H]

>  <h>  (2) 
<NA>

>  <Training>  (2) 
True

>  <Success>  (2) 
True

>  <enamine_searched>  (2) 
False

>  <enamine_id>  (2) 
nan

$$$$

     RDKit          3D

 60 65  0  0  0  0  0  0  0  0999 V2000
   -5.1946   -1.4886  -30.4865 C   0  0  0  0  0  0  0  0  0  0  0  0
   -5.6897   -0.8845  -29.2068 C   0  0  0  0  0  0  0  0  0  0  0  0
   -5.1810   -1.2777  -27.9674 C   0  0  0  0  0  0  0  0  0  0  0  0
   -5.6396   -0.7956  -26.8167 N   0  0  0  0  0  0  0  0  0  0  0  0
   -6.5912    0.1378  -26.9020 C   0  0  0  0  0  0  0  0  0  0  0  0
   -7.1283    0.7090  -25.6221 C   0  0  0  0  0  0  0  0  0  0  0  0
   -8.2244   -0.0714  -25.0831 N   0  0  0  0  0  0  0  0  0  0  0  0
   -7.9415   -1.3598  -24.4814 C   0  0  0  0  0  0  0  0  0  0  0  0
   -8.7644   -1.5558  -23.1856 C   0  0  2  0  0  0  0  0  0  0  0  0
   -8.2289   -0.5878  -22.0906 C   0  0  0  0  0  0  0  0  0  0  0  0
   -8.4050    0.6015  -22.0009 O   0  0  0  0  0  0  0  0  0  0  0  0
   -7.4499   -1.3329  -21.2236 N   0  0  0  0  0  0  0  0  0  0  0  0
   -6.6381   -0.7770  -20.2077 C   0  0  0  0  0  0  0  0  0  0  0  0
   -6.9215   -1.0606  -18.8943 C   0  0  0  0  0  0  0  0  0  0  0  0
   -6.2366   -0.5732  -17.8314 N   0  0  0  0  0  0  0  0  0  0  0  0
   -5.2117    0.2019  -18.0947 C   0  0  0  0  0  0  0  0  0  0  0  0
   -4.7708    0.5262  -19.4092 C   0  0  0  0  0  0  0  0  0  0  0  0
   -3.6321    1.3447  -19.6235 C   0  0  0  0  0  0  0  0  0  0  0  0
   -3.1983    1.6108  -20.8922 C   0  0  0  0  0  0  0  0  0  0  0  0
   -3.8746    1.0635  -22.0052 C   0  0  0  0  0  0  0  0  0  0  0  0
   -4.9859    0.2782  -21.8266 C   0  0  0  0  0  0  0  0  0  0  0  0
   -5.4796    0.0073  -20.5150 C   0  0  0  0  0  0  0  0  0  0  0  0
   -5.4858   -0.1390  -22.6986 H   0  0  0  0  0  0  0  0  0  0  0  0
   -3.5068    1.2686  -23.0063 H   0  0  0  0  0  0  0  0  0  0  0  0
   -2.3312    2.2432  -21.0524 H   0  0  0  0  0  0  0  0  0  0  0  0
   -3.1239    1.7514  -18.7538 H   0  0  0  0  0  0  0  0  0  0  0  0
   -4.6569    0.6057  -17.2479 H   0  0  0  0  0  0  0  0  0  0  0  0
   -7.7695   -1.7055  -18.6654 H   0  0  0  0  0  0  0  0  0  0  0  0
   -7.3546   -2.7345  -21.5612 C   0  0  0  0  0  0  0  0  0  0  0  0
   -8.5082   -2.9446  -22.5430 C   0  0  2  0  0  0  0  0  0  0  0  0
   -8.2946   -4.0824  -23.5290 C   0  0  0  0  0  0  0  0  0  0  0  0
   -9.1180   -4.1307  -24.2509 H   0  0  0  0  0  0  0  0  0  0  0  0
   -8.2317   -5.0429  -23.0111 H   0  0  0  0  0  0  0  0  0  0  0  0
   -7.3632   -3.9360  -24.0882 H   0  0  0  0  0  0  0  0  0  0  0  0
   -9.3799   -3.1841  -21.9313 H   0  0  0  0  0  0  0  0  0  0  0  0
   -6.3789   -2.9868  -22.0049 H   0  0  0  0  0  0  0  0  0  0  0  0
   -7.4660   -3.3311  -20.6570 H   0  0  0  0  0  0  0  0  0  0  0  0
  -10.2136   -1.2915  -23.5438 C   0  0  0  0  0  0  0  0  0  0  0  0
  -11.2532   -1.8185  -22.7713 C   0  0  0  0  0  0  0  0  0  0  0  0
  -12.5518   -1.4443  -23.0391 C   0  0  0  0  0  0  0  0  0  0  0  0
  -13.5227   -1.8990  -22.2297 F   0  0  0  0  0  0  0  0  0  0  0  0
  -12.9006   -0.6066  -24.0920 C   0  0  0  0  0  0  0  0  0  0  0  0
  -11.8828   -0.1270  -24.8853 C   0  0  0  0  0  0  0  0  0  0  0  0
  -10.5529   -0.4239  -24.5922 C   0  0  0  0  0  0  0  0  0  0  0  0
   -9.5055    0.2994  -25.3734 C   0  0  0  0  0  0  0  0  0  0  0  0
   -9.7740    1.1775  -26.1826 O   0  0  0  0  0  0  0  0  0  0  0  0
  -12.0791    0.4791  -25.7596 H   0  0  0  0  0  0  0  0  0  0  0  0
  -13.9377   -0.3255  -24.2438 H   0  0  0  0  0  0  0  0  0  0  0  0
  -11.0810   -2.5131  -21.9561 H   0  0  0  0  0  0  0  0  0  0  0  0
   -6.8678   -1.4276  -24.2833 H   0  0  0  0  0  0  0  0  0  0  0  0
   -8.1811   -2.1644  -25.1908 H   0  0  0  0  0  0  0  0  0  0  0  0
   -7.4895    1.7319  -25.7596 H   0  0  0  0  0  0  0  0  0  0  0  0
   -6.3223    0.7139  -24.8808 H   0  0  0  0  0  0  0  0  0  0  0  0
   -7.0889    0.5412  -28.1330 C   0  0  0  0  0  0  0  0  0  0  0  0
   -6.6527    0.0323  -29.2871 N   0  0  0  0  0  0  0  0  0  0  0  0
   -7.8729    1.2903  -28.1765 H   0  0  0  0  0  0  0  0  0  0  0  0
   -4.3676   -1.9943  -27.9064 H   0  0  0  0  0  0  0  0  0  0  0  0
   -5.5015   -2.5381  -30.5518 H   0  0  0  0  0  0  0  0  0  0  0  0
   -4.1010   -1.4629  -30.5469 H   0  0  0  0  0  0  0  0  0  0  0  0
   -5.6206   -0.9415  -31.3294 H   0  0  0  0  0  0  0  0  0  0  0  0
  1  2  1  0
  2  3  2  0
  3  4  1  0
  4  5  2  0
  5  6  1  0
  6  7  1  0
  7  8  1  0
  9  8  1  6
  9 10  1  0
 10 11  2  0
 10 12  1  0
 12 13  1  0
 13 14  2  0
 14 15  1  0
 15 16  2  0
 16 17  1  0
 17 18  2  0
 18 19  1  0
 19 20  2  0
 20 21  1  0
 21 22  2  0
 21 23  1  0
 20 24  1  0
 19 25  1  0
 18 26  1  0
 16 27  1  0
 14 28  1  0
 12 29  1  0
 29 30  1  0
 30 31  1  0
 31 32  1  0
 31 33  1  0
 31 34  1  0
 30 35  1  1
 29 36  1  0
 29 37  1  0
  9 38  1  0
 38 39  2  0
 39 40  1  0
 40 41  1  0
 40 42  2  0
 42 43  1  0
 43 44  2  0
 44 45  1  0
 45 46  2  0
 43 47  1  0
 42 48  1  0
 39 49  1  0
  8 50  1  0
  8 51  1  0
  6 52  1  0
  6 53  1  0
  5 54  1  0
 54 55  2  0
 54 56  1  0
  3 57  1  0
  1 58  1  0
  1 59  1  0
  1 60  1  0
 55  2  1  0
 45  7  1  0
 30  9  1  0
 44 38  1  0
 22 13  1  0
 22 17  1  0
M  END
>  <cnnaffinities>  (3) 
[6.39822, 6.79937, 6.70106]

>  <score>  (3) 
6.39822

>  <index>  (3) 
2

>  <Smiles>  (3) 
C(c1c(nc(C(N2C([C@@]3(C(=O)N(c4c(nc(c5c(c(c(c(c45)[H])[H])[H])[H])[H])[H])C([C@@]3(C([H])([H])[H])[H])([H])[H])c3c(c(F)c(c(c3C2=O)[H])[H])[H])([H])[H])([H])[H])c(n1)[H])[H])([H])([H])[H]

>  <h>  (3) 
<NA>

>  <Training>  (3) 
True

>  <Success>  (3) 
True

>  <enamine_searched>  (3) 
False

>  <enamine_id>  (3) 
nan

$$$$

     RDKit          3D

 66 70  0  0  0  0  0  0  0  0999 V2000
   -6.9458    3.4135  -23.1344 C   0  0  0  0  0  0  0  0  0  0  0  0
   -7.6862    2.6384  -24.1164 N   0  0  0  0  0  0  0  0  0  0  0  0
   -7.0580    1.6298  -24.7770 C   0  0  0  0  0  0  0  0  0  0  0  0
   -5.8578    1.4325  -24.6832 O   0  0  0  0  0  0  0  0  0  0  0  0
   -7.9480    0.7651  -25.6759 C   0  0  0  0  0  0  0  0  0  0  0  0
   -8.8562   -0.0693  -24.9154 N   0  0  0  0  0  0  0  0  0  0  0  0
   -8.3900   -1.3408  -24.3861 C   0  0  0  0  0  0  0  0  0  0  0  0
   -9.0264   -1.6415  -22.9989 C   0  0  2  0  0  0  0  0  0  0  0  0
   -8.4038   -0.6541  -21.9794 C   0  0  0  0  0  0  0  0  0  0  0  0
   -8.6419    0.5269  -21.8736 O   0  0  0  0  0  0  0  0  0  0  0  0
   -7.4869   -1.3519  -21.2161 N   0  0  0  0  0  0  0  0  0  0  0  0
   -6.6735   -0.7708  -20.2103 C   0  0  0  0  0  0  0  0  0  0  0  0
   -6.9465   -1.0499  -18.8943 C   0  0  0  0  0  0  0  0  0  0  0  0
   -6.2484   -0.5703  -17.8382 N   0  0  0  0  0  0  0  0  0  0  0  0
   -5.2211    0.2009  -18.1024 C   0  0  0  0  0  0  0  0  0  0  0  0
   -4.7915    0.5291  -19.4183 C   0  0  0  0  0  0  0  0  0  0  0  0
   -3.6478    1.3421  -19.6382 C   0  0  0  0  0  0  0  0  0  0  0  0
   -3.2265    1.6178  -20.9093 C   0  0  0  0  0  0  0  0  0  0  0  0
   -3.9276    1.0908  -22.0174 C   0  0  0  0  0  0  0  0  0  0  0  0
   -5.0412    0.3054  -21.8316 C   0  0  0  0  0  0  0  0  0  0  0  0
   -5.5188    0.0178  -20.5213 C   0  0  0  0  0  0  0  0  0  0  0  0
   -5.5512   -0.0919  -22.7033 H   0  0  0  0  0  0  0  0  0  0  0  0
   -3.6025    1.3204  -23.0280 H   0  0  0  0  0  0  0  0  0  0  0  0
   -2.3500    2.2383  -21.0744 H   0  0  0  0  0  0  0  0  0  0  0  0
   -3.1248    1.7367  -18.7710 H   0  0  0  0  0  0  0  0  0  0  0  0
   -4.6616    0.6007  -17.2558 H   0  0  0  0  0  0  0  0  0  0  0  0
   -7.7856   -1.7010  -18.6527 H   0  0  0  0  0  0  0  0  0  0  0  0
   -7.3358   -2.7444  -21.5801 C   0  0  0  0  0  0  0  0  0  0  0  0
   -8.5742   -3.0212  -22.4433 C   0  0  2  0  0  0  0  0  0  0  0  0
   -8.3531   -4.0750  -23.5155 C   0  0  0  0  0  0  0  0  0  0  0  0
   -8.1216   -5.3247  -22.9099 O   0  0  0  0  0  0  0  0  0  0  0  0
   -7.6098   -6.2935  -23.8136 C   0  0  0  0  0  0  0  0  0  0  0  0
   -8.1450   -7.6512  -23.4030 C   0  0  0  0  0  0  0  0  0  0  0  0
   -9.2271   -7.7153  -23.4984 H   0  0  0  0  0  0  0  0  0  0  0  0
   -7.8668   -7.8478  -22.3633 H   0  0  0  0  0  0  0  0  0  0  0  0
   -7.7020   -8.4131  -24.0471 H   0  0  0  0  0  0  0  0  0  0  0  0
   -6.0861   -6.3190  -23.7864 C   0  0  0  0  0  0  0  0  0  0  0  0
   -5.7278   -7.0970  -24.4704 H   0  0  0  0  0  0  0  0  0  0  0  0
   -5.7463   -6.5666  -22.7758 H   0  0  0  0  0  0  0  0  0  0  0  0
   -5.6394   -5.3639  -24.0826 H   0  0  0  0  0  0  0  0  0  0  0  0
   -7.9506   -6.0494  -24.8336 H   0  0  0  0  0  0  0  0  0  0  0  0
   -7.4870   -3.7879  -24.1369 H   0  0  0  0  0  0  0  0  0  0  0  0
   -9.2370   -4.1272  -24.1766 H   0  0  0  0  0  0  0  0  0  0  0  0
   -9.3466   -3.4079  -21.7767 H   0  0  0  0  0  0  0  0  0  0  0  0
   -6.3918   -2.9298  -22.1165 H   0  0  0  0  0  0  0  0  0  0  0  0
   -7.3142   -3.3584  -20.6810 H   0  0  0  0  0  0  0  0  0  0  0  0
  -10.5334   -1.4846  -23.1446 C   0  0  0  0  0  0  0  0  0  0  0  0
  -11.4304   -2.1660  -22.3088 C   0  0  0  0  0  0  0  0  0  0  0  0
  -12.7959   -1.9808  -22.4307 C   0  0  0  0  0  0  0  0  0  0  0  0
  -13.8469   -2.7786  -21.2890 Cl  0  0  0  0  0  0  0  0  0  0  0  0
  -13.3345   -1.1979  -23.4520 C   0  0  0  0  0  0  0  0  0  0  0  0
  -12.4608   -0.5367  -24.2954 C   0  0  0  0  0  0  0  0  0  0  0  0
  -11.0789   -0.6251  -24.1082 C   0  0  0  0  0  0  0  0  0  0  0  0
  -10.1905    0.2218  -24.9699 C   0  0  0  0  0  0  0  0  0  0  0  0
  -10.6307    1.1249  -25.6723 O   0  0  0  0  0  0  0  0  0  0  0  0
  -12.8311    0.0972  -25.0951 H   0  0  0  0  0  0  0  0  0  0  0  0
  -14.4073   -1.1044  -23.5791 H   0  0  0  0  0  0  0  0  0  0  0  0
  -11.0823   -2.8497  -21.5462 H   0  0  0  0  0  0  0  0  0  0  0  0
   -7.3008   -1.2934  -24.2861 H   0  0  0  0  0  0  0  0  0  0  0  0
   -8.6370   -2.1435  -25.0967 H   0  0  0  0  0  0  0  0  0  0  0  0
   -7.3069    0.1472  -26.3098 H   0  0  0  0  0  0  0  0  0  0  0  0
   -8.5689    1.3929  -26.3211 H   0  0  0  0  0  0  0  0  0  0  0  0
   -8.6917    2.6102  -24.0376 H   0  0  0  0  0  0  0  0  0  0  0  0
   -6.5110    2.7572  -22.3669 H   0  0  0  0  0  0  0  0  0  0  0  0
   -7.6190    4.1315  -22.6612 H   0  0  0  0  0  0  0  0  0  0  0  0
   -6.1339    3.9624  -23.6228 H   0  0  0  0  0  0  0  0  0  0  0  0
  1  2  1  0
  2  3  1  0
  3  4  2  0
  3  5  1  0
  5  6  1  0
  6  7  1  0
  8  7  1  6
  8  9  1  0
  9 10  2  0
  9 11  1  0
 11 12  1  0
 12 13  2  0
 13 14  1  0
 14 15  2  0
 15 16  1  0
 16 17  2  0
 17 18  1  0
 18 19  2  0
 19 20  1  0
 20 21  2  0
 20 22  1  0
 19 23  1  0
 18 24  1  0
 17 25  1  0
 15 26  1  0
 13 27  1  0
 11 28  1  0
 28 29  1  0
 29 30  1  0
 30 31  1  0
 31 32  1  0
 32 33  1  0
 33 34  1  0
 33 35  1  0
 33 36  1  0
 32 37  1  0
 37 38  1  0
 37 39  1  0
 37 40  1  0
 32 41  1  0
 30 42  1  0
 30 43  1  0
 29 44  1  1
 28 45  1  0
 28 46  1  0
  8 47  1  0
 47 48  2  0
 48 49  1  0
 49 50  1  0
 49 51  2  0
 51 52  1  0
 52 53  2  0
 53 54  1  0
 54 55  2  0
 52 56  1  0
 51 57  1  0
 48 58  1  0
  7 59  1  0
  7 60  1  0
  5 61  1  0
  5 62  1  0
  2 63  1  0
  1 64  1  0
  1 65  1  0
  1 66  1  0
 54  6  1  0
 29  8  1  0
 53 47  1  0
 21 12  1  0
 21 16  1  0
M  END
>  <cnnaffinities>  (4) 
[7.02196, 7.03611, 6.63175]

>  <score>  (4) 
7.02196

>  <index>  (4) 
3

>  <Smiles>  (4) 
C(N(C(=O)C(N1C([C@@]2(C(=O)N(c3c(nc(c4c(c(c(c(c34)[H])[H])[H])[H])[H])[H])C([C@@]2(C(OC(C([H])([H])[H])(C([H])([H])[H])[H])([H])[H])[H])([H])[H])c2c(c(Cl)c(c(c2C1=O)[H])[H])[H])([H])[H])([H])[H])[H])([H])([H])[H]

>  <h>  (4) 
<NA>

>  <Training>  (4) 
True

>  <Success>  (4) 
True

>  <enamine_searched>  (4) 
False

>  <enamine_id>  (4) 
nan

$$$$

     RDKit          3D

 59 64  0  0  0  0  0  0  0  0999 V2000
   -8.0858   -3.8435  -23.8376 C   0  0  0  0  0  0  0  0  0  0  0  0
   -8.3924   -2.8673  -22.7092 C   0  0  1  0  0  0  0  0  0  0  0  0
   -7.2364   -2.6872  -21.7197 C   0  0  0  0  0  0  0  0  0  0  0  0
   -7.4587   -1.3603  -21.1923 N   0  0  0  0  0  0  0  0  0  0  0  0
   -6.6318   -0.7999  -20.1912 C   0  0  0  0  0  0  0  0  0  0  0  0
   -6.9124   -1.0670  -18.8762 C   0  0  0  0  0  0  0  0  0  0  0  0
   -6.2178   -0.5705  -17.8232 N   0  0  0  0  0  0  0  0  0  0  0  0
   -5.1967    0.2069  -18.0981 C   0  0  0  0  0  0  0  0  0  0  0  0
   -4.7741    0.5305  -19.4190 C   0  0  0  0  0  0  0  0  0  0  0  0
   -3.6404    1.3532  -19.6498 C   0  0  0  0  0  0  0  0  0  0  0  0
   -3.2258    1.6314  -20.9219 C   0  0  0  0  0  0  0  0  0  0  0  0
   -3.9244    1.0964  -22.0293 C   0  0  0  0  0  0  0  0  0  0  0  0
   -5.0310    0.3050  -21.8356 C   0  0  0  0  0  0  0  0  0  0  0  0
   -5.4953    0.0094  -20.5166 C   0  0  0  0  0  0  0  0  0  0  0  0
   -5.5374   -0.1037  -22.7082 H   0  0  0  0  0  0  0  0  0  0  0  0
   -3.5891    1.3062  -23.0421 H   0  0  0  0  0  0  0  0  0  0  0  0
   -2.3572    2.2630  -21.0880 H   0  0  0  0  0  0  0  0  0  0  0  0
   -3.1127    1.7495  -18.7868 H   0  0  0  0  0  0  0  0  0  0  0  0
   -4.6245    0.6074  -17.2599 H   0  0  0  0  0  0  0  0  0  0  0  0
   -7.7654   -1.7010  -18.6346 H   0  0  0  0  0  0  0  0  0  0  0  0
   -8.2756   -0.5783  -21.9807 C   0  0  0  0  0  0  0  0  0  0  0  0
   -8.5092    0.5864  -21.7648 O   0  0  0  0  0  0  0  0  0  0  0  0
   -8.7769   -1.4366  -23.1632 C   0  0  1  0  0  0  0  0  0  0  0  0
   -8.0242   -1.0235  -24.4511 C   0  0  0  0  0  0  0  0  0  0  0  0
   -8.4422    0.2789  -24.9313 N   0  0  0  0  0  0  0  0  0  0  0  0
   -7.4400    1.3296  -25.0137 C   0  0  0  0  0  0  0  0  0  0  0  0
   -6.3299    0.9511  -25.9455 C   0  0  0  0  0  0  0  0  0  0  0  0
   -5.0870    0.7113  -25.5828 N   0  0  0  0  0  0  0  0  0  0  0  0
   -4.4423    0.3548  -26.7387 C   0  0  0  0  0  0  0  0  0  0  0  0
   -5.3072    0.3676  -27.7964 C   0  0  0  0  0  0  0  0  0  0  0  0
   -6.5229    0.7442  -27.2783 N   0  0  0  0  0  0  0  0  0  0  0  0
   -7.7576    0.9100  -28.0161 C   0  0  0  0  0  0  0  0  0  0  0  0
   -8.4775    0.1277  -27.7630 H   0  0  0  0  0  0  0  0  0  0  0  0
   -8.1929    1.8885  -27.8023 H   0  0  0  0  0  0  0  0  0  0  0  0
   -7.5424    0.8570  -29.0851 H   0  0  0  0  0  0  0  0  0  0  0  0
   -5.2004    0.1555  -28.8490 H   0  0  0  0  0  0  0  0  0  0  0  0
   -3.3916    0.1148  -26.7533 H   0  0  0  0  0  0  0  0  0  0  0  0
   -7.9629    2.2380  -25.3341 H   0  0  0  0  0  0  0  0  0  0  0  0
   -7.0015    1.4924  -24.0176 H   0  0  0  0  0  0  0  0  0  0  0  0
   -9.7654    0.5780  -25.0819 C   0  0  0  0  0  0  0  0  0  0  0  0
  -10.1662    1.5614  -25.6960 O   0  0  0  0  0  0  0  0  0  0  0  0
  -10.7110   -0.3587  -24.3990 C   0  0  0  0  0  0  0  0  0  0  0  0
  -12.0725   -0.1827  -24.6518 C   0  0  0  0  0  0  0  0  0  0  0  0
  -13.0104   -0.7804  -23.8361 C   0  0  0  0  0  0  0  0  0  0  0  0
  -12.5461   -1.6197  -22.8251 C   0  0  0  0  0  0  0  0  0  0  0  0
  -13.4379   -2.1621  -21.9798 F   0  0  0  0  0  0  0  0  0  0  0  0
  -11.2115   -1.9144  -22.6393 C   0  0  0  0  0  0  0  0  0  0  0  0
  -10.2566   -1.2611  -23.4288 C   0  0  0  0  0  0  0  0  0  0  0  0
  -10.9362   -2.5739  -21.8186 H   0  0  0  0  0  0  0  0  0  0  0  0
  -14.0736   -0.5841  -23.9246 H   0  0  0  0  0  0  0  0  0  0  0  0
  -12.3602    0.4983  -25.4469 H   0  0  0  0  0  0  0  0  0  0  0  0
   -6.9426   -1.0097  -24.2832 H   0  0  0  0  0  0  0  0  0  0  0  0
   -8.2362   -1.7672  -25.2277 H   0  0  0  0  0  0  0  0  0  0  0  0
   -7.2524   -3.4176  -20.9074 H   0  0  0  0  0  0  0  0  0  0  0  0
   -6.2625   -2.7625  -22.2298 H   0  0  0  0  0  0  0  0  0  0  0  0
   -9.2365   -3.2584  -22.1384 H   0  0  0  0  0  0  0  0  0  0  0  0
   -7.9063   -4.8532  -23.4545 H   0  0  0  0  0  0  0  0  0  0  0  0
   -8.9116   -3.8900  -24.5589 H   0  0  0  0  0  0  0  0  0  0  0  0
   -7.1846   -3.5239  -24.3765 H   0  0  0  0  0  0  0  0  0  0  0  0
  1  2  1  0
  2  3  1  0
  3  4  1  0
  4  5  1  0
  5  6  2  0
  6  7  1  0
  7  8  2  0
  8  9  1  0
  9 10  2  0
 10 11  1  0
 11 12  2  0
 12 13  1  0
 13 14  2  0
 13 15  1  0
 12 16  1  0
 11 17  1  0
 10 18  1  0
  8 19  1  0
  6 20  1  0
  4 21  1  0
 21 22  2  0
 21 23  1  0
 23 24  1  6
 24 25  1  0
 25 26  1  0
 26 27  1  0
 27 28  2  0
 28 29  1  0
 29 30  2  0
 30 31  1  0
 31 32  1  0
 32 33  1  0
 32 34  1  0
 32 35  1  0
 30 36  1  0
 29 37  1  0
 26 38  1  0
 26 39  1  0
 25 40  1  0
 40 41  2  0
 40 42  1  0
 42 43  2  0
 43 44  1  0
 44 45  2  0
 45 46  1  0
 45 47  1  0
 47 48  2  0
 47 49  1  0
 44 50  1  0
 43 51  1  0
 24 52  1  0
 24 53  1  0
  3 54  1  0
  3 55  1  0
  2 56  1  1
  1 57  1  0
  1 58  1  0
  1 59  1  0
 23  2  1  0
 31 27  1  0
 48 42  1  0
 14  5  1  0
 48 23  1  0
 14  9  1  0
M  END
>  <cnnaffinities>  (5) 
[6.62006, 6.88448, 6.64589]

>  <score>  (5) 
6.62006

>  <index>  (5) 
4

>  <Smiles>  (5) 
C([C@]1(C(N(c2c(nc(c3c(c(c(c(c23)[H])[H])[H])[H])[H])[H])C(=O)[C@]21C(N(C(c1nc(c(n1C([H])([H])[H])[H])[H])([H])[H])C(=O)c1c(c(c(F)c(c21)[H])[H])[H])([H])[H])([H])[H])[H])([H])([H])[H]

>  <h>  (5) 
<NA>

>  <Training>  (5) 
True

>  <Success>  (5) 
True

>  <enamine_searched>  (5) 
False

>  <enamine_id>  (5) 
nan

$$$$

     RDKit          3D

 58 61  0  0  0  0  0  0  0  0999 V2000
   -5.1408   -3.2855  -22.2826 C   0  0  0  0  0  0  0  0  0  0  0  0
   -6.4499   -3.3998  -22.4647 C   0  0  0  0  0  0  0  0  0  0  0  0
   -7.4286   -2.9172  -21.4310 C   0  0  0  0  0  0  0  0  0  0  0  0
   -7.4439   -1.4598  -21.2823 N   0  0  0  0  0  0  0  0  0  0  0  0
   -8.3158   -0.6041  -21.9649 C   0  0  0  0  0  0  0  0  0  0  0  0
   -8.5795    0.4890  -21.5055 O   0  0  0  0  0  0  0  0  0  0  0  0
   -8.8418   -1.0671  -23.3331 C   0  0  2  0  0  0  0  0  0  0  0  0
   -8.4304   -0.0174  -24.3868 C   0  0  0  0  0  0  0  0  0  0  0  0
   -9.0661   -0.2660  -25.6703 N   0  0  0  0  0  0  0  0  0  0  0  0
   -8.2524   -0.3555  -26.8816 C   0  0  0  0  0  0  0  0  0  0  0  0
   -7.5760   -1.7323  -26.9957 C   0  0  0  0  0  0  0  0  0  0  0  0
   -6.4014   -1.8893  -26.7027 O   0  0  0  0  0  0  0  0  0  0  0  0
   -8.3724   -2.7598  -27.3888 N   0  0  0  0  0  0  0  0  0  0  0  0
   -7.9268   -4.1241  -27.1452 C   0  0  0  0  0  0  0  0  0  0  0  0
   -8.7123   -4.8115  -27.4633 H   0  0  0  0  0  0  0  0  0  0  0  0
   -7.6935   -4.2770  -26.0730 H   0  0  0  0  0  0  0  0  0  0  0  0
   -7.0236   -4.3229  -27.7276 H   0  0  0  0  0  0  0  0  0  0  0  0
   -9.3500   -2.5731  -27.5608 H   0  0  0  0  0  0  0  0  0  0  0  0
   -7.4483    0.3858  -26.8413 H   0  0  0  0  0  0  0  0  0  0  0  0
   -8.9110   -0.1598  -27.7345 H   0  0  0  0  0  0  0  0  0  0  0  0
  -10.3855   -0.6210  -25.7682 C   0  0  0  0  0  0  0  0  0  0  0  0
  -10.9309   -0.7341  -26.8623 O   0  0  0  0  0  0  0  0  0  0  0  0
  -11.0768   -0.9412  -24.4841 C   0  0  0  0  0  0  0  0  0  0  0  0
  -12.4700   -0.9710  -24.4643 C   0  0  0  0  0  0  0  0  0  0  0  0
  -13.1295   -1.5354  -23.3877 C   0  0  0  0  0  0  0  0  0  0  0  0
  -12.3729   -2.0799  -22.3440 C   0  0  0  0  0  0  0  0  0  0  0  0
  -13.2143   -2.8054  -21.0017 Cl  0  0  0  0  0  0  0  0  0  0  0  0
  -10.9819   -2.0197  -22.3365 C   0  0  0  0  0  0  0  0  0  0  0  0
  -10.3379   -1.3236  -23.3646 C   0  0  0  0  0  0  0  0  0  0  0  0
  -10.3911   -2.4654  -21.5354 H   0  0  0  0  0  0  0  0  0  0  0  0
  -14.2170   -1.5712  -23.3621 H   0  0  0  0  0  0  0  0  0  0  0  0
  -13.0219   -0.5805  -25.3178 H   0  0  0  0  0  0  0  0  0  0  0  0
   -7.3442   -0.0820  -24.5398 H   0  0  0  0  0  0  0  0  0  0  0  0
   -8.6896    0.9772  -24.0035 H   0  0  0  0  0  0  0  0  0  0  0  0
   -8.3795   -2.0164  -23.6058 H   0  0  0  0  0  0  0  0  0  0  0  0
   -6.6749   -0.8804  -20.2278 C   0  0  0  0  0  0  0  0  0  0  0  0
   -7.0143   -1.0879  -18.9123 C   0  0  0  0  0  0  0  0  0  0  0  0
   -6.3432   -0.5762  -17.8509 N   0  0  0  0  0  0  0  0  0  0  0  0
   -5.2957    0.1704  -18.1090 C   0  0  0  0  0  0  0  0  0  0  0  0
   -4.8335    0.4757  -19.4208 C   0  0  0  0  0  0  0  0  0  0  0  0
   -3.6974    1.3000  -19.6443 C   0  0  0  0  0  0  0  0  0  0  0  0
   -3.2713    1.5598  -20.9168 C   0  0  0  0  0  0  0  0  0  0  0  0
   -3.9534    1.0061  -22.0224 C   0  0  0  0  0  0  0  0  0  0  0  0
   -5.0549    0.2062  -21.8316 C   0  0  0  0  0  0  0  0  0  0  0  0
   -5.5348   -0.0671  -20.5216 C   0  0  0  0  0  0  0  0  0  0  0  0
   -5.5668   -0.2216  -22.6885 H   0  0  0  0  0  0  0  0  0  0  0  0
   -3.6037    1.2149  -23.0283 H   0  0  0  0  0  0  0  0  0  0  0  0
   -2.4064    2.1955  -21.0845 H   0  0  0  0  0  0  0  0  0  0  0  0
   -3.1853    1.7188  -18.7810 H   0  0  0  0  0  0  0  0  0  0  0  0
   -4.7526    0.5753  -17.2560 H   0  0  0  0  0  0  0  0  0  0  0  0
   -7.8876   -1.6902  -18.6645 H   0  0  0  0  0  0  0  0  0  0  0  0
   -8.4263   -3.2960  -21.6649 H   0  0  0  0  0  0  0  0  0  0  0  0
   -7.1115   -3.3079  -20.4592 H   0  0  0  0  0  0  0  0  0  0  0  0
   -6.9821   -4.0237  -23.7661 C   0  0  0  0  0  0  0  0  0  0  0  0
   -6.1147   -4.4295  -24.5675 O   0  0  0  0  0  0  0  0  0  0  0  0
   -8.2253   -4.0546  -23.9135 O   0  0  0  0  0  1  0  0  0  0  0  0
   -4.4255   -3.6428  -23.0160 H   0  0  0  0  0  0  0  0  0  0  0  0
   -4.7674   -2.7877  -21.3860 H   0  0  0  0  0  0  0  0  0  0  0  0
  1  2  2  0
  2  3  1  0
  3  4  1  0
  4  5  1  0
  5  6  2  0
  5  7  1  0
  7  8  1  0
  8  9  1  0
  9 10  1  0
 10 11  1  0
 11 12  2  0
 11 13  1  0
 13 14  1  0
 14 15  1  0
 14 16  1  0
 14 17  1  0
 13 18  1  0
 10 19  1  0
 10 20  1  0
  9 21  1  0
 21 22  2  0
 21 23  1  0
 23 24  2  0
 24 25  1  0
 25 26  2  0
 26 27  1  0
 26 28  1  0
 28 29  2  0
 28 30  1  0
 25 31  1  0
 24 32  1  0
  8 33  1  0
  8 34  1  0
  7 35  1  6
  4 36  1  0
 36 37  2  0
 37 38  1  0
 38 39  2  0
 39 40  1  0
 40 41  2  0
 41 42  1  0
 42 43  2  0
 43 44  1  0
 44 45  2  0
 44 46  1  0
 43 47  1  0
 42 48  1  0
 41 49  1  0
 39 50  1  0
 37 51  1  0
  3 52  1  0
  3 53  1  0
  2 54  1  0
 54 55  2  0
 54 56  1  0
  1 57  1  0
  1 58  1  0
 29  7  1  0
 45 36  1  0
 29 23  1  0
 45 40  1  0
M  CHG  1  56  -1
M  END
>  <cnnaffinities>  (6) 
[6.35849]

>  <score>  (6) 
6.35849

>  <index>  (6) 
5

>  <Smiles>  (6) 
C(=C(C(N(C(=O)[C@@]1(C(N(C(C(=O)N(C([H])([H])[H])[H])([H])[H])C(=O)c2c(c(c(Cl)c(c12)[H])[H])[H])([H])[H])[H])c1c(nc(c2c(c(c(c(c12)[H])[H])[H])[H])[H])[H])([H])[H])C(=O)[O-])([H])[H]

>  <h>  (6) 
<NA>

>  <Training>  (6) 
True

>  <Success>  (6) 
True

>  <enamine_searched>  (6) 
False

>  <enamine_id>  (6) 
nan

$$$$

     RDKit          3D

 43 45  0  0  0  0  0  0  0  0999 V2000
   -8.9364   -7.9584  -25.1519 C   0  0  0  0  0  0  0  0  0  0  0  0
   -9.2276   -6.4661  -25.3385 C   0  0  0  0  0  0  0  0  0  0  0  0
   -8.8229   -5.6118  -24.1268 C   0  0  0  0  0  0  0  0  0  0  0  0
   -7.3988   -5.8649  -23.6218 C   0  0  0  0  0  0  0  0  0  0  0  0
   -7.2054   -5.1317  -22.3060 C   0  0  0  0  0  0  0  0  0  0  0  0
   -7.5585   -3.7202  -22.3979 N   0  0  0  0  0  0  0  0  0  0  0  0
   -6.7484   -2.8502  -21.7080 C   0  0  0  0  0  0  0  0  0  0  0  0
   -5.5963   -3.1312  -21.4219 O   0  0  0  0  0  0  0  0  0  0  0  0
   -7.3809   -1.5264  -21.2656 C   0  0  0  0  0  0  0  0  0  0  0  0
   -6.5826   -0.8567  -20.1838 C   0  0  0  0  0  0  0  0  0  0  0  0
   -6.8988   -1.0660  -18.8688 C   0  0  0  0  0  0  0  0  0  0  0  0
   -6.2318   -0.5549  -17.8001 N   0  0  0  0  0  0  0  0  0  0  0  0
   -5.1967    0.2074  -18.0669 C   0  0  0  0  0  0  0  0  0  0  0  0
   -4.7449    0.5049  -19.3796 C   0  0  0  0  0  0  0  0  0  0  0  0
   -3.6239    1.3389  -19.6142 C   0  0  0  0  0  0  0  0  0  0  0  0
   -3.2153    1.6134  -20.8899 C   0  0  0  0  0  0  0  0  0  0  0  0
   -3.9083    1.0582  -21.9894 C   0  0  0  0  0  0  0  0  0  0  0  0
   -4.9906    0.2391  -21.7892 C   0  0  0  0  0  0  0  0  0  0  0  0
   -5.4458   -0.0500  -20.4767 C   0  0  0  0  0  0  0  0  0  0  0  0
   -5.5016   -0.1971  -22.6425 H   0  0  0  0  0  0  0  0  0  0  0  0
   -3.5819    1.2875  -22.9995 H   0  0  0  0  0  0  0  0  0  0  0  0
   -2.3601    2.2584  -21.0696 H   0  0  0  0  0  0  0  0  0  0  0  0
   -3.1064    1.7621  -18.7566 H   0  0  0  0  0  0  0  0  0  0  0  0
   -4.6502    0.6288  -17.2216 H   0  0  0  0  0  0  0  0  0  0  0  0
   -7.7558   -1.6890  -18.6092 H   0  0  0  0  0  0  0  0  0  0  0  0
   -7.5043   -0.8831  -22.1471 H   0  0  0  0  0  0  0  0  0  0  0  0
   -8.3849   -1.7566  -20.8820 H   0  0  0  0  0  0  0  0  0  0  0  0
   -8.9172   -3.4490  -22.8732 C   0  0  0  0  0  0  0  0  0  0  0  0
   -9.1405   -4.1078  -24.2424 C   0  0  0  0  0  0  0  0  0  0  0  0
   -8.5443   -3.5987  -25.0132 H   0  0  0  0  0  0  0  0  0  0  0  0
  -10.1943   -3.9651  -24.5204 H   0  0  0  0  0  0  0  0  0  0  0  0
   -9.6730   -3.8600  -22.1760 H   0  0  0  0  0  0  0  0  0  0  0  0
   -9.0841   -2.3680  -22.9162 H   0  0  0  0  0  0  0  0  0  0  0  0
   -7.8405   -5.6254  -21.5506 H   0  0  0  0  0  0  0  0  0  0  0  0
   -6.1803   -5.1749  -21.9419 H   0  0  0  0  0  0  0  0  0  0  0  0
   -6.6378   -5.5999  -24.3663 H   0  0  0  0  0  0  0  0  0  0  0  0
   -7.2666   -6.9317  -23.4088 H   0  0  0  0  0  0  0  0  0  0  0  0
   -9.4401   -5.9285  -23.2814 H   0  0  0  0  0  0  0  0  0  0  0  0
  -10.3075   -6.3429  -25.4729 H   0  0  0  0  0  0  0  0  0  0  0  0
   -8.7403   -6.0933  -26.2559 H   0  0  0  0  0  0  0  0  0  0  0  0
   -9.3787   -8.3565  -24.2264 H   0  0  0  0  0  0  0  0  0  0  0  0
   -7.8581   -8.1445  -25.0869 H   0  0  0  0  0  0  0  0  0  0  0  0
   -9.3347   -8.5443  -25.9882 H   0  0  0  0  0  0  0  0  0  0  0  0
  1  2  1  0
  2  3  1  0
  3  4  1  0
  4  5  1  0
  5  6  1  0
  6  7  1  0
  7  8  2  0
  7  9  1  0
  9 10  1  0
 10 11  2  0
 11 12  1  0
 12 13  2  0
 13 14  1  0
 14 15  2  0
 15 16  1  0
 16 17  2  0
 17 18  1  0
 18 19  2  0
 18 20  1  0
 17 21  1  0
 16 22  1  0
 15 23  1  0
 13 24  1  0
 11 25  1  0
  9 26  1  0
  9 27  1  0
  6 28  1  0
 28 29  1  0
 29 30  1  0
 29 31  1  0
 28 32  1  0
 28 33  1  0
  5 34  1  0
  5 35  1  0
  4 36  1  0
  4 37  1  0
  3 38  1  0
  2 39  1  0
  2 40  1  0
  1 41  1  0
  1 42  1  0
  1 43  1  0
 29  3  1  0
 19 10  1  0
 19 14  1  0
M  END
>  <cnnaffinities>  (7) 
[4.75351, 4.74701, 5.14599, 5.05249, 5.05249]

>  <score>  (7) 
4.75351

>  <index>  (7) 
6

>  <Smiles>  (7) 
C(C(C1(C(C(N(C(=O)C(c2c(nc(c3c(c(c(c(c23)[H])[H])[H])[H])[H])[H])([H])[H])C(C1([H])[H])([H])[H])([H])[H])([H])[H])[H])([H])[H])([H])([H])[H]

>  <h>  (7) 
<NA>

>  <Training>  (7) 
True

>  <Success>  (7) 
True

>  <enamine_searched>  (7) 
False

>  <enamine_id>  (7) 
nan

$$$$

     RDKit          3D

 44 47  0  0  0  0  0  0  0  0999 V2000
  -10.0906   -5.9844  -27.5640 C   0  0  0  0  0  0  0  0  0  0  0  0
   -8.9720   -5.2952  -26.7815 C   0  0  0  0  0  0  0  0  0  0  0  0
   -9.2606   -5.5293  -25.0283 S   0  0  0  0  0  0  0  0  0  0  0  0
   -9.0655   -6.9322  -24.7065 O   0  0  0  0  0  0  0  0  0  0  0  0
  -10.5240   -4.8642  -24.7242 O   0  0  0  0  0  0  0  0  0  0  0  0
   -8.0056   -4.6930  -24.2657 N   0  0  0  0  0  0  0  0  0  0  0  0
   -8.0712   -4.6907  -22.7777 C   0  0  0  0  0  0  0  0  0  0  0  0
   -8.0300   -3.1478  -22.7707 C   0  0  0  0  0  0  0  0  0  0  0  0
   -7.9831   -3.2143  -24.3178 C   0  0  0  0  0  0  0  0  0  0  0  0
   -7.0532   -2.8392  -24.7506 H   0  0  0  0  0  0  0  0  0  0  0  0
   -8.8435   -2.7639  -24.8175 H   0  0  0  0  0  0  0  0  0  0  0  0
   -6.7960   -2.5901  -22.0894 C   0  0  0  0  0  0  0  0  0  0  0  0
   -5.6588   -2.9495  -22.2616 O   0  0  0  0  0  0  0  0  0  0  0  0
   -7.2448   -1.6035  -21.2159 N   0  0  0  0  0  0  0  0  0  0  0  0
   -6.5157   -0.9330  -20.1984 C   0  0  0  0  0  0  0  0  0  0  0  0
   -6.8978   -1.0911  -18.8860 C   0  0  0  0  0  0  0  0  0  0  0  0
   -6.2407   -0.5519  -17.8316 N   0  0  0  0  0  0  0  0  0  0  0  0
   -5.2026    0.2021  -18.1022 C   0  0  0  0  0  0  0  0  0  0  0  0
   -4.7520    0.5055  -19.4176 C   0  0  0  0  0  0  0  0  0  0  0  0
   -3.6349    1.3515  -19.6363 C   0  0  0  0  0  0  0  0  0  0  0  0
   -3.2425    1.6584  -20.9098 C   0  0  0  0  0  0  0  0  0  0  0  0
   -3.9558    1.1485  -22.0189 C   0  0  0  0  0  0  0  0  0  0  0  0
   -5.0395    0.3231  -21.8347 C   0  0  0  0  0  0  0  0  0  0  0  0
   -5.4404   -0.0467  -20.5170 C   0  0  0  0  0  0  0  0  0  0  0  0
   -5.5856   -0.0536  -22.6957 H   0  0  0  0  0  0  0  0  0  0  0  0
   -3.6372    1.4035  -23.0266 H   0  0  0  0  0  0  0  0  0  0  0  0
   -2.3787    2.2970  -21.0783 H   0  0  0  0  0  0  0  0  0  0  0  0
   -3.1123    1.7399  -18.7669 H   0  0  0  0  0  0  0  0  0  0  0  0
   -4.6497    0.6138  -17.2593 H   0  0  0  0  0  0  0  0  0  0  0  0
   -7.7727   -1.6906  -18.6375 H   0  0  0  0  0  0  0  0  0  0  0  0
   -8.6156   -1.3752  -21.3779 C   0  0  0  0  0  0  0  0  0  0  0  0
   -9.1849   -0.4215  -20.9047 O   0  0  0  0  0  0  0  0  0  0  0  0
   -9.0966   -2.3986  -22.1551 N   0  0  0  0  0  0  0  0  0  0  0  0
  -10.4925   -2.6435  -22.4506 C   0  0  0  0  0  0  0  0  0  0  0  0
  -10.7497   -3.6840  -22.2346 H   0  0  0  0  0  0  0  0  0  0  0  0
  -10.7110   -2.4579  -23.5062 H   0  0  0  0  0  0  0  0  0  0  0  0
  -11.1078   -1.9930  -21.8318 H   0  0  0  0  0  0  0  0  0  0  0  0
   -7.1811   -5.1530  -22.3498 H   0  0  0  0  0  0  0  0  0  0  0  0
   -8.9688   -5.1492  -22.3611 H   0  0  0  0  0  0  0  0  0  0  0  0
   -8.9647   -4.2123  -26.9551 H   0  0  0  0  0  0  0  0  0  0  0  0
   -7.9833   -5.7078  -27.0059 H   0  0  0  0  0  0  0  0  0  0  0  0
   -9.9526   -5.8520  -28.6409 H   0  0  0  0  0  0  0  0  0  0  0  0
  -11.0666   -5.5731  -27.2908 H   0  0  0  0  0  0  0  0  0  0  0  0
  -10.1082   -7.0573  -27.3502 H   0  0  0  0  0  0  0  0  0  0  0  0
  1  2  1  0
  2  3  1  0
  3  4  2  0
  3  5  2  0
  3  6  1  0
  6  7  1  0
  7  8  1  0
  8  9  1  0
  9 10  1  0
  9 11  1  0
  8 12  1  0
 12 13  2  0
 12 14  1  0
 14 15  1  0
 15 16  2  0
 16 17  1  0
 17 18  2  0
 18 19  1  0
 19 20  2  0
 20 21  1  0
 21 22  2  0
 22 23  1  0
 23 24  2  0
 23 25  1  0
 22 26  1  0
 21 27  1  0
 20 28  1  0
 18 29  1  0
 16 30  1  0
 14 31  1  0
 31 32  2  0
 31 33  1  0
 33 34  1  0
 34 35  1  0
 34 36  1  0
 34 37  1  0
  7 38  1  0
  7 39  1  0
  2 40  1  0
  2 41  1  0
  1 42  1  0
  1 43  1  0
  1 44  1  0
  9  6  1  0
 24 15  1  0
 33  8  1  0
 24 19  1  0
M  END
>  <cnnaffinities>  (8) 
[5.53024, 5.52782, 5.52968, 5.36386, 5.34077]

>  <score>  (8) 
5.53024

>  <index>  (8) 
7

>  <Smiles>  (8) 
C(C(S(=O)(=O)N1C(C2(C1([H])[H])C(=O)N(c1c(nc(c3c(c(c(c(c13)[H])[H])[H])[H])[H])[H])C(=O)N2C([H])([H])[H])([H])[H])([H])[H])([H])([H])[H]

>  <h>  (8) 
<NA>

>  <Training>  (8) 
True

>  <Success>  (8) 
True

>  <enamine_searched>  (8) 
False

>  <enamine_id>  (8) 
nan

$$$$

     RDKit          3D

 60 64  0  0  0  0  0  0  0  0999 V2000
   -8.4374    4.4880  -23.6601 C   0  0  0  0  0  0  0  0  0  0  0  0
   -8.4531    3.3898  -24.6078 N   0  0  0  0  0  0  0  0  0  0  0  0
   -7.5720    2.3634  -24.4338 C   0  0  0  0  0  0  0  0  0  0  0  0
   -6.6834    2.3737  -23.5949 O   0  0  0  0  0  0  0  0  0  0  0  0
   -7.7743    1.2050  -25.4142 C   0  0  0  0  0  0  0  0  0  0  0  0
   -8.6539    0.1936  -24.8646 N   0  0  0  0  0  0  0  0  0  0  0  0
   -8.1303   -1.0682  -24.3889 C   0  0  0  0  0  0  0  0  0  0  0  0
   -8.8263   -1.5321  -23.0839 C   0  0  2  0  0  0  0  0  0  0  0  0
   -8.3556   -0.6714  -21.8816 C   0  0  0  0  0  0  0  0  0  0  0  0
   -8.7034    0.4420  -21.5662 O   0  0  0  0  0  0  0  0  0  0  0  0
   -7.4098   -1.4086  -21.1954 N   0  0  0  0  0  0  0  0  0  0  0  0
   -6.6103   -0.8347  -20.1797 C   0  0  0  0  0  0  0  0  0  0  0  0
   -6.9153   -1.0829  -18.8681 C   0  0  0  0  0  0  0  0  0  0  0  0
   -6.2367   -0.5775  -17.8083 N   0  0  0  0  0  0  0  0  0  0  0  0
   -5.2114    0.1942  -18.0803 C   0  0  0  0  0  0  0  0  0  0  0  0
   -4.7678    0.5066  -19.3965 C   0  0  0  0  0  0  0  0  0  0  0  0
   -3.6358    1.3319  -19.6222 C   0  0  0  0  0  0  0  0  0  0  0  0
   -3.2207    1.6094  -20.8913 C   0  0  0  0  0  0  0  0  0  0  0  0
   -3.9191    1.0824  -22.0005 C   0  0  0  0  0  0  0  0  0  0  0  0
   -5.0225    0.2875  -21.8115 C   0  0  0  0  0  0  0  0  0  0  0  0
   -5.4767   -0.0223  -20.4990 C   0  0  0  0  0  0  0  0  0  0  0  0
   -5.5621   -0.0760  -22.6828 H   0  0  0  0  0  0  0  0  0  0  0  0
   -3.5864    1.3136  -23.0065 H   0  0  0  0  0  0  0  0  0  0  0  0
   -2.3514    2.2362  -21.0561 H   0  0  0  0  0  0  0  0  0  0  0  0
   -3.1226    1.7380  -18.7542 H   0  0  0  0  0  0  0  0  0  0  0  0
   -4.6562    0.6086  -17.2384 H   0  0  0  0  0  0  0  0  0  0  0  0
   -7.7703   -1.7147  -18.6366 H   0  0  0  0  0  0  0  0  0  0  0  0
   -7.1644   -2.7336  -21.7201 C   0  0  0  0  0  0  0  0  0  0  0  0
   -8.3479   -2.9434  -22.6671 C   0  0  2  0  0  0  0  0  0  0  0  0
   -8.0454   -3.8850  -23.8123 C   0  0  0  0  0  0  0  0  0  0  0  0
   -7.7995   -5.1532  -23.2685 O   0  0  0  0  0  0  0  0  0  0  0  0
   -7.4601   -6.1027  -24.2411 C   0  0  0  0  0  0  0  0  0  0  0  0
   -6.5393   -5.8282  -24.7764 H   0  0  0  0  0  0  0  0  0  0  0  0
   -7.2973   -7.0512  -23.7265 H   0  0  0  0  0  0  0  0  0  0  0  0
   -8.2600   -6.2353  -24.9845 H   0  0  0  0  0  0  0  0  0  0  0  0
   -8.8937   -3.9081  -24.5157 H   0  0  0  0  0  0  0  0  0  0  0  0
   -7.1693   -3.5241  -24.3769 H   0  0  0  0  0  0  0  0  0  0  0  0
   -9.1455   -3.4107  -22.0906 H   0  0  0  0  0  0  0  0  0  0  0  0
   -6.1968   -2.8063  -22.2399 H   0  0  0  0  0  0  0  0  0  0  0  0
   -7.1535   -3.4637  -20.9107 H   0  0  0  0  0  0  0  0  0  0  0  0
  -10.3176   -1.4335  -23.3069 C   0  0  0  0  0  0  0  0  0  0  0  0
  -11.2005   -2.1043  -22.4598 C   0  0  0  0  0  0  0  0  0  0  0  0
  -12.5584   -1.8913  -22.5815 C   0  0  0  0  0  0  0  0  0  0  0  0
  -13.6010   -2.6568  -21.4315 Cl  0  0  0  0  0  0  0  0  0  0  0  0
  -13.1107   -1.0797  -23.5725 C   0  0  0  0  0  0  0  0  0  0  0  0
  -12.2401   -0.4366  -24.4255 C   0  0  0  0  0  0  0  0  0  0  0  0
  -10.8629   -0.5636  -24.2558 C   0  0  0  0  0  0  0  0  0  0  0  0
   -9.9908    0.3924  -24.9984 C   0  0  0  0  0  0  0  0  0  0  0  0
  -10.4408    1.3374  -25.6434 O   0  0  0  0  0  0  0  0  0  0  0  0
  -12.5944    0.2351  -25.1971 H   0  0  0  0  0  0  0  0  0  0  0  0
  -14.1847   -0.9265  -23.6304 H   0  0  0  0  0  0  0  0  0  0  0  0
  -10.8389   -2.7641  -21.6782 H   0  0  0  0  0  0  0  0  0  0  0  0
   -7.0527   -0.9537  -24.2349 H   0  0  0  0  0  0  0  0  0  0  0  0
   -8.2850   -1.8368  -25.1564 H   0  0  0  0  0  0  0  0  0  0  0  0
   -8.2142    1.5724  -26.3482 H   0  0  0  0  0  0  0  0  0  0  0  0
   -6.8079    0.7387  -25.6072 H   0  0  0  0  0  0  0  0  0  0  0  0
   -9.2958    3.2078  -25.1376 H   0  0  0  0  0  0  0  0  0  0  0  0
   -9.1639    5.2421  -23.9699 H   0  0  0  0  0  0  0  0  0  0  0  0
   -7.4439    4.9487  -23.6435 H   0  0  0  0  0  0  0  0  0  0  0  0
   -8.6897    4.1399  -22.6496 H   0  0  0  0  0  0  0  0  0  0  0  0
  1  2  1  0
  2  3  1  0
  3  4  2  0
  3  5  1  0
  5  6  1  0
  6  7  1  0
  8  7  1  6
  8  9  1  0
  9 10  2  0
  9 11  1  0
 11 12  1  0
 12 13  2  0
 13 14  1  0
 14 15  2  0
 15 16  1  0
 16 17  2  0
 17 18  1  0
 18 19  2  0
 19 20  1  0
 20 21  2  0
 20 22  1  0
 19 23  1  0
 18 24  1  0
 17 25  1  0
 15 26  1  0
 13 27  1  0
 11 28  1  0
 28 29  1  0
 29 30  1  0
 30 31  1  0
 31 32  1  0
 32 33  1  0
 32 34  1  0
 32 35  1  0
 30 36  1  0
 30 37  1  0
 29 38  1  1
 28 39  1  0
 28 40  1  0
  8 41  1  0
 41 42  2  0
 42 43  1  0
 43 44  1  0
 43 45  2  0
 45 46  1  0
 46 47  2  0
 47 48  1  0
 48 49  2  0
 46 50  1  0
 45 51  1  0
 42 52  1  0
  7 53  1  0
  7 54  1  0
  5 55  1  0
  5 56  1  0
  2 57  1  0
  1 58  1  0
  1 59  1  0
  1 60  1  0
 48  6  1  0
 29  8  1  0
 47 41  1  0
 21 12  1  0
 21 16  1  0
M  END
>  <cnnaffinities>  (9) 
[6.93905, 6.66284]

>  <score>  (9) 
6.93905

>  <index>  (9) 
8

>  <Smiles>  (9) 
C(N(C(=O)C(N1C([C@@]2(C(=O)N(c3c(nc(c4c(c(c(c(c34)[H])[H])[H])[H])[H])[H])C([C@@]2(C(OC([H])([H])[H])([H])[H])[H])([H])[H])c2c(c(Cl)c(c(c2C1=O)[H])[H])[H])([H])[H])([H])[H])[H])([H])([H])[H]

>  <h>  (9) 
<NA>

>  <Training>  (9) 
True

>  <Success>  (9) 
True

>  <enamine_searched>  (9) 
False

>  <enamine_id>  (9) 
nan

$$$$

     RDKit          3D

 41 43  0  0  0  0  0  0  0  0999 V2000
   -6.3937    1.4646  -26.8791 C   0  0  0  0  0  0  0  0  0  0  0  0
   -7.2185    0.6130  -25.9155 C   0  0  1  0  0  0  0  0  0  0  0  0
   -6.4245   -0.5940  -25.4572 C   0  0  0  0  0  0  0  0  0  0  0  0
   -6.9017   -1.5687  -24.6880 C   0  0  0  0  0  0  0  0  0  0  0  0
   -8.3045   -1.5601  -24.1259 C   0  0  0  0  0  0  0  0  0  0  0  0
   -8.6167   -0.4067  -23.2913 N   0  0  0  0  0  0  0  0  0  0  0  0
   -8.3418   -0.3485  -21.9368 C   0  0  0  0  0  0  0  0  0  0  0  0
   -8.8154    0.5220  -21.2302 O   0  0  0  0  0  0  0  0  0  0  0  0
   -7.4273   -1.4137  -21.2838 C   0  0  0  0  0  0  0  0  0  0  0  0
   -6.5771   -0.8265  -20.1760 C   0  0  0  0  0  0  0  0  0  0  0  0
   -6.8781   -1.0388  -18.8556 C   0  0  0  0  0  0  0  0  0  0  0  0
   -6.1909   -0.5370  -17.7915 N   0  0  0  0  0  0  0  0  0  0  0  0
   -5.1574    0.2232  -18.0615 C   0  0  0  0  0  0  0  0  0  0  0  0
   -4.7229    0.5367  -19.3783 C   0  0  0  0  0  0  0  0  0  0  0  0
   -3.5996    1.3690  -19.6213 C   0  0  0  0  0  0  0  0  0  0  0  0
   -3.2111    1.6602  -20.9002 C   0  0  0  0  0  0  0  0  0  0  0  0
   -3.9321    1.1264  -21.9932 C   0  0  0  0  0  0  0  0  0  0  0  0
   -5.0218    0.3177  -21.7871 C   0  0  0  0  0  0  0  0  0  0  0  0
   -5.4504   -0.0007  -20.4709 C   0  0  0  0  0  0  0  0  0  0  0  0
   -5.5552   -0.0819  -22.6479 H   0  0  0  0  0  0  0  0  0  0  0  0
   -3.6176    1.3610  -23.0062 H   0  0  0  0  0  0  0  0  0  0  0  0
   -2.3550    2.3039  -21.0890 H   0  0  0  0  0  0  0  0  0  0  0  0
   -3.0590    1.7793  -18.7708 H   0  0  0  0  0  0  0  0  0  0  0  0
   -4.6006    0.6301  -17.2144 H   0  0  0  0  0  0  0  0  0  0  0  0
   -7.7313   -1.6608  -18.5845 H   0  0  0  0  0  0  0  0  0  0  0  0
   -6.7954   -1.9301  -22.0162 H   0  0  0  0  0  0  0  0  0  0  0  0
   -8.0911   -2.1710  -20.8462 H   0  0  0  0  0  0  0  0  0  0  0  0
   -8.9276    0.8415  -23.9905 C   0  0  0  0  0  0  0  0  0  0  0  0
   -7.7456    1.4635  -24.7436 C   0  0  0  0  0  0  0  0  0  0  0  0
   -6.9304    1.6436  -24.0338 H   0  0  0  0  0  0  0  0  0  0  0  0
   -8.0464    2.4521  -25.1225 H   0  0  0  0  0  0  0  0  0  0  0  0
   -9.7214    0.6318  -24.7160 H   0  0  0  0  0  0  0  0  0  0  0  0
   -9.3295    1.5428  -23.2564 H   0  0  0  0  0  0  0  0  0  0  0  0
   -9.0236   -1.5569  -24.9541 H   0  0  0  0  0  0  0  0  0  0  0  0
   -8.5066   -2.4707  -23.5593 H   0  0  0  0  0  0  0  0  0  0  0  0
   -6.2634   -2.4189  -24.4384 H   0  0  0  0  0  0  0  0  0  0  0  0
   -5.3823   -0.6452  -25.7727 H   0  0  0  0  0  0  0  0  0  0  0  0
   -8.0977    0.2460  -26.4640 H   0  0  0  0  0  0  0  0  0  0  0  0
   -5.5204    1.8877  -26.3673 H   0  0  0  0  0  0  0  0  0  0  0  0
   -6.9800    2.2986  -27.2837 H   0  0  0  0  0  0  0  0  0  0  0  0
   -6.0327    0.8665  -27.7244 H   0  0  0  0  0  0  0  0  0  0  0  0
  1  2  1  0
  2  3  1  0
  3  4  2  0
  4  5  1  0
  5  6  1  0
  6  7  1  0
  7  8  2  0
  7  9  1  0
  9 10  1  0
 10 11  2  0
 11 12  1  0
 12 13  2  0
 13 14  1  0
 14 15  2  0
 15 16  1  0
 16 17  2  0
 17 18  1  0
 18 19  2  0
 18 20  1  0
 17 21  1  0
 16 22  1  0
 15 23  1  0
 13 24  1  0
 11 25  1  0
  9 26  1  0
  9 27  1  0
  6 28  1  0
 28 29  1  0
 29 30  1  0
 29 31  1  0
 28 32  1  0
 28 33  1  0
  5 34  1  0
  5 35  1  0
  4 36  1  0
  3 37  1  0
  2 38  1  6
  1 39  1  0
  1 40  1  0
  1 41  1  0
 29  2  1  0
 19 10  1  0
 19 14  1  0
M  END
>  <cnnaffinities>  (10) 
[5.04953, 5.17969, 5.17509]

>  <score>  (10) 
5.04953

>  <index>  (10) 
9

>  <Smiles>  (10) 
C([C@]1(C(=C(C(N(C(=O)C(c2c(nc(c3c(c(c(c(c23)[H])[H])[H])[H])[H])[H])([H])[H])C(C1([H])[H])([H])[H])([H])[H])[H])[H])[H])([H])([H])[H]

>  <h>  (10) 
<NA>

>  <Training>  (10) 
True

>  <Success>  (10) 
True

>  <enamine_searched>  (10) 
False

>  <enamine_id>  (10) 
nan

$$$$

     RDKit          3D

 57 62  0  0  0  0  0  0  0  0999 V2000
   -7.3727   -3.7006  -23.7178 C   0  0  0  0  0  0  0  0  0  0  0  0
   -8.3180   -3.0511  -22.6935 C   0  0  1  0  0  0  0  0  0  0  0  0
   -7.6637   -2.7944  -21.3185 C   0  0  0  0  0  0  0  0  0  0  0  0
   -7.4169   -1.3700  -21.2819 N   0  0  0  0  0  0  0  0  0  0  0  0
   -6.6421   -0.7891  -20.2429 C   0  0  0  0  0  0  0  0  0  0  0  0
   -6.9382   -1.0633  -18.9297 C   0  0  0  0  0  0  0  0  0  0  0  0
   -6.2673   -0.5718  -17.8589 N   0  0  0  0  0  0  0  0  0  0  0  0
   -5.2401    0.2059  -18.1018 C   0  0  0  0  0  0  0  0  0  0  0  0
   -4.7862    0.5358  -19.4097 C   0  0  0  0  0  0  0  0  0  0  0  0
   -3.6438    1.3552  -19.6094 C   0  0  0  0  0  0  0  0  0  0  0  0
   -3.1946    1.6150  -20.8748 C   0  0  0  0  0  0  0  0  0  0  0  0
   -3.8574    1.0603  -21.9909 C   0  0  0  0  0  0  0  0  0  0  0  0
   -4.9702    0.2727  -21.8224 C   0  0  0  0  0  0  0  0  0  0  0  0
   -5.4821    0.0099  -20.5222 C   0  0  0  0  0  0  0  0  0  0  0  0
   -5.4610   -0.1660  -22.6847 H   0  0  0  0  0  0  0  0  0  0  0  0
   -3.4826    1.2571  -22.9904 H   0  0  0  0  0  0  0  0  0  0  0  0
   -2.3231    2.2447  -21.0287 H   0  0  0  0  0  0  0  0  0  0  0  0
   -3.1406    1.7609  -18.7358 H   0  0  0  0  0  0  0  0  0  0  0  0
   -4.6995    0.5987  -17.2413 H   0  0  0  0  0  0  0  0  0  0  0  0
   -7.7820   -1.7081  -18.6906 H   0  0  0  0  0  0  0  0  0  0  0  0
   -8.2599   -0.6656  -22.1231 C   0  0  0  0  0  0  0  0  0  0  0  0
   -8.3952    0.5376  -22.1076 O   0  0  0  0  0  0  0  0  0  0  0  0
   -8.9411   -1.6768  -23.1024 C   0  0  1  0  0  0  0  0  0  0  0  0
   -8.5675   -1.2447  -24.5341 C   0  0  0  0  0  0  0  0  0  0  0  0
   -9.3004   -0.0550  -24.9198 N   0  0  0  0  0  0  0  0  0  0  0  0
   -8.6265    1.0079  -25.6545 C   0  0  0  0  0  0  0  0  0  0  0  0
   -8.6223    0.7514  -27.1370 C   0  0  0  0  0  0  0  0  0  0  0  0
   -7.8686   -0.0601  -27.9172 C   0  0  0  0  0  0  0  0  0  0  0  0
   -8.4193   -0.0220  -29.1846 N   0  0  0  0  0  4  0  0  0  0  0  0
   -9.4908    0.7737  -29.1628 C   0  0  0  0  0  0  0  0  0  0  0  0
   -9.6367    1.2654  -27.9283 N   0  0  0  0  0  0  0  0  0  0  0  0
  -10.4791    1.6748  -27.5164 H   0  0  0  0  0  0  0  0  0  0  0  0
  -10.1298    1.0004  -30.0011 H   0  0  0  0  0  0  0  0  0  0  0  0
   -8.1089   -0.5944  -29.9634 H   0  0  0  0  0  0  0  0  0  0  0  0
   -6.9995   -0.6736  -27.6972 H   0  0  0  0  0  0  0  0  0  0  0  0
   -9.1864    1.9294  -25.4383 H   0  0  0  0  0  0  0  0  0  0  0  0
   -7.6152    1.1146  -25.2343 H   0  0  0  0  0  0  0  0  0  0  0  0
  -10.6634   -0.0599  -24.9168 C   0  0  0  0  0  0  0  0  0  0  0  0
  -11.3200    0.6653  -25.6696 O   0  0  0  0  0  0  0  0  0  0  0  0
  -11.2818   -0.9441  -23.8847 C   0  0  0  0  0  0  0  0  0  0  0  0
  -12.6751   -0.9310  -23.7707 C   0  0  0  0  0  0  0  0  0  0  0  0
  -13.3212   -1.6691  -22.8000 C   0  0  0  0  0  0  0  0  0  0  0  0
  -12.5162   -2.3646  -21.9093 C   0  0  0  0  0  0  0  0  0  0  0  0
  -13.1094   -3.0158  -20.8941 F   0  0  0  0  0  0  0  0  0  0  0  0
  -11.1359   -2.4135  -22.0023 C   0  0  0  0  0  0  0  0  0  0  0  0
  -10.4743   -1.6957  -23.0136 C   0  0  0  0  0  0  0  0  0  0  0  0
  -10.6142   -2.9850  -21.2452 H   0  0  0  0  0  0  0  0  0  0  0  0
  -14.4043   -1.7161  -22.7164 H   0  0  0  0  0  0  0  0  0  0  0  0
  -13.2385   -0.3077  -24.4566 H   0  0  0  0  0  0  0  0  0  0  0  0
   -8.7697   -2.0815  -25.2184 H   0  0  0  0  0  0  0  0  0  0  0  0
   -7.4986   -1.0301  -24.5655 H   0  0  0  0  0  0  0  0  0  0  0  0
   -8.3628   -3.0711  -20.5144 H   0  0  0  0  0  0  0  0  0  0  0  0
   -6.7211   -3.3358  -21.1764 H   0  0  0  0  0  0  0  0  0  0  0  0
   -9.1325   -3.7707  -22.5673 H   0  0  0  0  0  0  0  0  0  0  0  0
   -7.8938   -3.8893  -24.6638 H   0  0  0  0  0  0  0  0  0  0  0  0
   -7.0280   -4.6711  -23.3475 H   0  0  0  0  0  0  0  0  0  0  0  0
   -6.4876   -3.0932  -23.9360 H   0  0  0  0  0  0  0  0  0  0  0  0
  1  2  1  0
  2  3  1  0
  3  4  1  0
  4  5  1  0
  5  6  2  0
  6  7  1  0
  7  8  2  0
  8  9  1  0
  9 10  2  0
 10 11  1  0
 11 12  2  0
 12 13  1  0
 13 14  2  0
 13 15  1  0
 12 16  1  0
 11 17  1  0
 10 18  1  0
  8 19  1  0
  6 20  1  0
  4 21  1  0
 21 22  2  0
 21 23  1  0
 23 24  1  6
 24 25  1  0
 25 26  1  0
 26 27  1  0
 27 28  2  0
 28 29  1  0
 29 30  2  0
 30 31  1  0
 31 32  1  0
 30 33  1  0
 29 34  1  0
 28 35  1  0
 26 36  1  0
 26 37  1  0
 25 38  1  0
 38 39  2  0
 38 40  1  0
 40 41  2  0
 41 42  1  0
 42 43  2  0
 43 44  1  0
 43 45  1  0
 45 46  2  0
 45 47  1  0
 42 48  1  0
 41 49  1  0
 24 50  1  0
 24 51  1  0
  3 52  1  0
  3 53  1  0
  2 54  1  1
  1 55  1  0
  1 56  1  0
  1 57  1  0
 23  2  1  0
 31 27  1  0
 46 40  1  0
 14  5  1  0
 46 23  1  0
 14  9  1  0
M  CHG  1  29   1
M  END
>  <cnnaffinities>  (11) 
[6.35681, 6.26183]

>  <score>  (11) 
6.35681

>  <index>  (11) 
10

>  <Smiles>  (11) 
C([C@]1(C(N(c2c(nc(c3c(c(c(c(c23)[H])[H])[H])[H])[H])[H])C(=O)[C@]21C(N(C(c1c([n+](c(n1[H])[H])[H])[H])([H])[H])C(=O)c1c(c(c(F)c(c21)[H])[H])[H])([H])[H])([H])[H])[H])([H])([H])[H]

>  <h>  (11) 
<NA>

>  <Training>  (11) 
True

>  <Success>  (11) 
True

>  <enamine_searched>  (11) 
False

>  <enamine_id>  (11) 
nan

$$$$

     RDKit          3D

 48 52  0  0  0  0  0  0  0  0999 V2000
   -9.6741   -0.9253  -24.0305 C   0  0  0  0  0  0  0  0  0  0  0  0
   -8.6802   -1.3730  -23.0787 N   0  0  0  0  0  0  0  0  0  0  0  0
   -8.4175   -0.7112  -21.9028 C   0  0  0  0  0  0  0  0  0  0  0  0
   -8.9579    0.2790  -21.4673 O   0  0  0  0  0  0  0  0  0  0  0  0
   -7.3635   -1.4005  -21.2761 N   0  0  0  0  0  0  0  0  0  0  0  0
   -6.5866   -0.8293  -20.2170 C   0  0  0  0  0  0  0  0  0  0  0  0
   -6.9091   -1.0619  -18.9060 C   0  0  0  0  0  0  0  0  0  0  0  0
   -6.2190   -0.5577  -17.8483 N   0  0  0  0  0  0  0  0  0  0  0  0
   -5.1825    0.2043  -18.0955 C   0  0  0  0  0  0  0  0  0  0  0  0
   -4.7310    0.5285  -19.4041 C   0  0  0  0  0  0  0  0  0  0  0  0
   -3.6022    1.3599  -19.6327 C   0  0  0  0  0  0  0  0  0  0  0  0
   -3.2071    1.6516  -20.9089 C   0  0  0  0  0  0  0  0  0  0  0  0
   -3.9251    1.1266  -22.0070 C   0  0  0  0  0  0  0  0  0  0  0  0
   -5.0184    0.3253  -21.8083 C   0  0  0  0  0  0  0  0  0  0  0  0
   -5.4502   -0.0001  -20.4976 C   0  0  0  0  0  0  0  0  0  0  0  0
   -5.5686   -0.0667  -22.6558 H   0  0  0  0  0  0  0  0  0  0  0  0
   -3.6166    1.3580  -23.0196 H   0  0  0  0  0  0  0  0  0  0  0  0
   -2.3508    2.2935  -21.0918 H   0  0  0  0  0  0  0  0  0  0  0  0
   -3.0742    1.7632  -18.7735 H   0  0  0  0  0  0  0  0  0  0  0  0
   -4.6409    0.6052  -17.2381 H   0  0  0  0  0  0  0  0  0  0  0  0
   -7.7589   -1.6856  -18.6412 H   0  0  0  0  0  0  0  0  0  0  0  0
   -6.9232   -2.4680  -22.0635 C   0  0  0  0  0  0  0  0  0  0  0  0
   -6.0174   -3.2099  -21.7869 O   0  0  0  0  0  0  0  0  0  0  0  0
   -7.7874   -2.4735  -23.3208 C   0  0  0  0  0  0  0  0  0  0  0  0
   -8.3933   -3.8411  -23.7226 C   0  0  0  0  0  0  0  0  0  0  0  0
   -7.5885   -3.8624  -24.9675 N   0  0  0  0  0  0  0  0  0  0  0  0
   -8.4419   -3.9333  -26.4261 S   0  0  0  0  0  0  0  0  0  0  0  0
   -9.4717   -2.8990  -26.3858 O   0  0  0  0  0  0  0  0  0  0  0  0
   -7.4488   -3.9651  -27.4832 O   0  0  0  0  0  0  0  0  0  0  0  0
   -9.2917   -5.4838  -26.4310 C   0  0  0  0  0  0  0  0  0  0  0  0
  -10.6456   -5.5268  -26.0995 C   0  0  0  0  0  0  0  0  0  0  0  0
  -11.3295   -6.7366  -26.1545 C   0  0  0  0  0  0  0  0  0  0  0  0
  -10.6529   -7.8787  -26.5733 C   0  0  0  0  0  0  0  0  0  0  0  0
   -9.3109   -7.8127  -26.9048 C   0  0  0  0  0  0  0  0  0  0  0  0
   -8.6059   -6.6205  -26.8373 C   0  0  0  0  0  0  0  0  0  0  0  0
   -7.5621   -6.5620  -27.1286 H   0  0  0  0  0  0  0  0  0  0  0  0
   -8.8597   -8.7185  -27.2649 H   0  0  0  0  0  0  0  0  0  0  0  0
  -11.1342   -8.8472  -26.6809 H   0  0  0  0  0  0  0  0  0  0  0  0
  -12.3808   -6.7878  -25.8875 H   0  0  0  0  0  0  0  0  0  0  0  0
  -11.1484   -4.6033  -25.8309 H   0  0  0  0  0  0  0  0  0  0  0  0
   -6.9976   -2.5201  -24.6559 C   0  0  0  0  0  0  0  0  0  0  0  0
   -5.9186   -2.6045  -24.5224 H   0  0  0  0  0  0  0  0  0  0  0  0
   -7.2215   -1.7228  -25.3761 H   0  0  0  0  0  0  0  0  0  0  0  0
   -8.0931   -4.6594  -23.0700 H   0  0  0  0  0  0  0  0  0  0  0  0
   -9.4821   -3.8602  -23.8604 H   0  0  0  0  0  0  0  0  0  0  0  0
  -10.2213   -0.1124  -23.5512 H   0  0  0  0  0  0  0  0  0  0  0  0
   -9.2021   -0.5633  -24.9527 H   0  0  0  0  0  0  0  0  0  0  0  0
  -10.3500   -1.7477  -24.2917 H   0  0  0  0  0  0  0  0  0  0  0  0
  1  2  1  0
  2  3  1  0
  3  4  2  0
  3  5  1  0
  5  6  1  0
  6  7  2  0
  7  8  1  0
  8  9  2  0
  9 10  1  0
 10 11  2  0
 11 12  1  0
 12 13  2  0
 13 14  1  0
 14 15  2  0
 14 16  1  0
 13 17  1  0
 12 18  1  0
 11 19  1  0
  9 20  1  0
  7 21  1  0
  5 22  1  0
 22 23  2  0
 22 24  1  0
 24 25  1  0
 25 26  1  0
 26 27  1  0
 27 28  2  0
 27 29  2  0
 27 30  1  0
 30 31  2  0
 31 32  1  0
 32 33  2  0
 33 34  1  0
 34 35  2  0
 35 36  1  0
 34 37  1  0
 33 38  1  0
 32 39  1  0
 31 40  1  0
 26 41  1  0
 41 42  1  0
 41 43  1  0
 25 44  1  0
 25 45  1  0
  1 46  1  0
  1 47  1  0
  1 48  1  0
 24  2  1  0
 35 30  1  0
 15  6  1  0
 41 24  1  0
 15 10  1  0
M  END
>  <cnnaffinities>  (12) 
[5.68251, 5.66937, 5.68533, 6.00413, 5.69956, 5.70246, 5.70709]

>  <score>  (12) 
5.68251

>  <index>  (12) 
11

>  <Smiles>  (12) 
C(N1C(=O)N(c2c(nc(c3c(c(c(c(c23)[H])[H])[H])[H])[H])[H])C(=O)C21C(N(S(=O)(=O)c1c(c(c(c(c1[H])[H])[H])[H])[H])C2([H])[H])([H])[H])([H])([H])[H]

>  <h>  (12) 
<NA>

>  <Training>  (12) 
True

>  <Success>  (12) 
True

>  <enamine_searched>  (12) 
False

>  <enamine_id>  (12) 
nan

$$$$

     RDKit          3D

 76 82  0  0  0  0  0  0  0  0999 V2000
  -10.3393    1.1642  -25.8792 O   0  0  0  0  0  0  0  0  0  0  0  0
   -9.9894    0.2371  -25.1597 C   0  0  0  0  0  0  0  0  0  0  0  0
  -10.9685   -0.5734  -24.3636 C   0  0  0  0  0  0  0  0  0  0  0  0
  -12.3238   -0.4088  -24.6504 C   0  0  0  0  0  0  0  0  0  0  0  0
  -13.2830   -1.0327  -23.8783 C   0  0  0  0  0  0  0  0  0  0  0  0
  -12.8637   -1.8163  -22.8065 C   0  0  0  0  0  0  0  0  0  0  0  0
  -14.0627   -2.5933  -21.8127 Cl  0  0  0  0  0  0  0  0  0  0  0  0
  -11.5241   -2.0045  -22.5107 C   0  0  0  0  0  0  0  0  0  0  0  0
  -10.5397   -1.4007  -23.3105 C   0  0  0  0  0  0  0  0  0  0  0  0
   -9.0566   -1.5874  -23.0334 C   0  0  1  0  0  0  0  0  0  0  0  0
   -8.2943   -1.3655  -24.3686 C   0  0  0  0  0  0  0  0  0  0  0  0
   -8.6810   -0.1254  -25.0150 N   0  0  0  0  0  0  0  0  0  0  0  0
   -7.6757    0.6744  -25.6815 C   0  0  0  0  0  0  0  0  0  0  0  0
   -7.1935    1.8051  -24.7813 C   0  0  0  0  0  0  0  0  0  0  0  0
   -6.1807    2.6399  -25.4558 N   0  0  0  0  0  4  0  0  0  0  0  0
   -4.9560    1.8574  -25.8784 C   0  0  0  0  0  0  0  0  0  0  0  0
   -3.8289    2.8458  -26.1957 C   0  0  0  0  0  0  0  0  0  0  0  0
   -4.4026    4.0623  -26.6309 O   0  0  0  0  0  0  0  0  0  0  0  0
   -4.9267    4.7701  -25.5212 C   0  0  0  0  0  0  0  0  0  0  0  0
   -5.8050    3.8453  -24.6537 C   0  0  0  0  0  0  0  0  0  0  0  0
   -6.7161    4.3543  -24.3263 H   0  0  0  0  0  0  0  0  0  0  0  0
   -5.2672    3.5195  -23.7545 H   0  0  0  0  0  0  0  0  0  0  0  0
   -5.4971    5.6051  -25.9391 H   0  0  0  0  0  0  0  0  0  0  0  0
   -4.1031    5.1818  -24.9137 H   0  0  0  0  0  0  0  0  0  0  0  0
   -3.2004    3.0174  -25.3063 H   0  0  0  0  0  0  0  0  0  0  0  0
   -3.1902    2.4730  -27.0023 H   0  0  0  0  0  0  0  0  0  0  0  0
   -5.2093    1.2856  -26.7736 H   0  0  0  0  0  0  0  0  0  0  0  0
   -4.6770    1.1562  -25.0845 H   0  0  0  0  0  0  0  0  0  0  0  0
   -6.6001    3.0094  -26.3277 H   0  0  0  0  0  0  0  0  0  0  0  0
   -8.0503    2.4310  -24.5069 H   0  0  0  0  0  0  0  0  0  0  0  0
   -6.7704    1.4133  -23.8471 H   0  0  0  0  0  0  0  0  0  0  0  0
   -8.1272    1.1073  -26.5774 H   0  0  0  0  0  0  0  0  0  0  0  0
   -6.8436    0.0250  -25.9819 H   0  0  0  0  0  0  0  0  0  0  0  0
   -7.2101   -1.3533  -24.1854 H   0  0  0  0  0  0  0  0  0  0  0  0
   -8.5181   -2.2003  -25.0463 H   0  0  0  0  0  0  0  0  0  0  0  0
   -8.4777   -0.6078  -21.9690 C   0  0  0  0  0  0  0  0  0  0  0  0
   -8.7498    0.5532  -21.7743 O   0  0  0  0  0  0  0  0  0  0  0  0
   -7.5198   -1.3047  -21.2638 N   0  0  0  0  0  0  0  0  0  0  0  0
   -6.7402   -0.7440  -20.2361 C   0  0  0  0  0  0  0  0  0  0  0  0
   -7.0431   -1.0378  -18.9315 C   0  0  0  0  0  0  0  0  0  0  0  0
   -6.3535   -0.5723  -17.8648 N   0  0  0  0  0  0  0  0  0  0  0  0
   -5.3172    0.1929  -18.1193 C   0  0  0  0  0  0  0  0  0  0  0  0
   -4.8701    0.5318  -19.4296 C   0  0  0  0  0  0  0  0  0  0  0  0
   -3.7194    1.3346  -19.6452 C   0  0  0  0  0  0  0  0  0  0  0  0
   -3.2726    1.5843  -20.9142 C   0  0  0  0  0  0  0  0  0  0  0  0
   -3.9522    1.0468  -22.0310 C   0  0  0  0  0  0  0  0  0  0  0  0
   -5.0829    0.2839  -21.8520 C   0  0  0  0  0  0  0  0  0  0  0  0
   -5.5801    0.0270  -20.5402 C   0  0  0  0  0  0  0  0  0  0  0  0
   -5.5905   -0.1335  -22.7180 H   0  0  0  0  0  0  0  0  0  0  0  0
   -3.5740    1.2314  -23.0345 H   0  0  0  0  0  0  0  0  0  0  0  0
   -2.3856    2.1922  -21.0664 H   0  0  0  0  0  0  0  0  0  0  0  0
   -3.2080    1.7343  -18.7742 H   0  0  0  0  0  0  0  0  0  0  0  0
   -4.7546    0.5673  -17.2645 H   0  0  0  0  0  0  0  0  0  0  0  0
   -7.8963   -1.6824  -18.7165 H   0  0  0  0  0  0  0  0  0  0  0  0
   -7.3840   -2.6892  -21.6270 C   0  0  0  0  0  0  0  0  0  0  0  0
   -8.6823   -2.9578  -22.3797 C   0  0  2  0  0  0  0  0  0  0  0  0
   -8.5651   -4.1730  -23.2845 C   0  0  0  0  0  0  0  0  0  0  0  0
   -9.7882   -4.4080  -24.0195 N   0  0  0  0  0  0  0  0  0  0  0  0
   -9.8223   -5.2613  -25.0699 C   0  0  0  0  0  0  0  0  0  0  0  0
  -10.9260   -5.2239  -25.8348 N   0  0  0  0  0  0  0  0  0  0  0  0
  -10.9657   -6.0870  -26.8404 C   0  0  0  0  0  0  0  0  0  0  0  0
   -9.9324   -6.9739  -27.1119 C   0  0  0  0  0  0  0  0  0  0  0  0
   -8.8362   -6.9068  -26.2645 C   0  0  0  0  0  0  0  0  0  0  0  0
   -8.7564   -6.0626  -25.2418 N   0  0  0  0  0  0  0  0  0  0  0  0
   -7.9706   -7.5498  -26.4160 H   0  0  0  0  0  0  0  0  0  0  0  0
   -9.9700   -7.6717  -27.9344 H   0  0  0  0  0  0  0  0  0  0  0  0
  -11.8652   -6.0553  -27.4539 H   0  0  0  0  0  0  0  0  0  0  0  0
  -10.5236   -3.7144  -24.0208 H   0  0  0  0  0  0  0  0  0  0  0  0
   -8.3309   -5.0648  -22.6928 H   0  0  0  0  0  0  0  0  0  0  0  0
   -7.7259   -4.0481  -23.9831 H   0  0  0  0  0  0  0  0  0  0  0  0
   -9.4525   -3.1587  -21.6289 H   0  0  0  0  0  0  0  0  0  0  0  0
   -6.5014   -2.8647  -22.2631 H   0  0  0  0  0  0  0  0  0  0  0  0
   -7.2513   -3.3004  -20.7313 H   0  0  0  0  0  0  0  0  0  0  0  0
  -11.2660   -2.5907  -21.6315 H   0  0  0  0  0  0  0  0  0  0  0  0
  -14.3414   -0.8956  -24.0654 H   0  0  0  0  0  0  0  0  0  0  0  0
  -12.6174    0.2465  -25.4618 H   0  0  0  0  0  0  0  0  0  0  0  0
  1  2  2  0
  2  3  1  0
  3  4  2  0
  4  5  1  0
  5  6  2  0
  6  7  1  0
  6  8  1  0
  8  9  2  0
  9 10  1  0
 10 11  1  6
 11 12  1  0
 12 13  1  0
 13 14  1  0
 14 15  1  0
 15 16  1  0
 16 17  1  0
 17 18  1  0
 18 19  1  0
 19 20  1  0
 20 21  1  0
 20 22  1  0
 19 23  1  0
 19 24  1  0
 17 25  1  0
 17 26  1  0
 16 27  1  0
 16 28  1  0
 15 29  1  0
 14 30  1  0
 14 31  1  0
 13 32  1  0
 13 33  1  0
 11 34  1  0
 11 35  1  0
 10 36  1  0
 36 37  2  0
 36 38  1  0
 38 39  1  0
 39 40  2  0
 40 41  1  0
 41 42  2  0
 42 43  1  0
 43 44  2  0
 44 45  1  0
 45 46  2  0
 46 47  1  0
 47 48  2  0
 47 49  1  0
 46 50  1  0
 45 51  1  0
 44 52  1  0
 42 53  1  0
 40 54  1  0
 38 55  1  0
 55 56  1  0
 56 57  1  0
 57 58  1  0
 58 59  1  0
 59 60  2  0
 60 61  1  0
 61 62  2  0
 62 63  1  0
 63 64  2  0
 63 65  1  0
 62 66  1  0
 61 67  1  0
 58 68  1  0
 57 69  1  0
 57 70  1  0
 56 71  1  1
 55 72  1  0
 55 73  1  0
  8 74  1  0
  5 75  1  0
  4 76  1  0
 12  2  1  0
 20 15  1  0
 48 39  1  0
 64 59  1  0
  9  3  1  0
 56 10  1  0
 48 43  1  0
M  CHG  1  15   1
M  END
>  <cnnaffinities>  (13) 
[6.89134]

>  <score>  (13) 
6.89134

>  <index>  (13) 
12

>  <Smiles>  (13) 
O=C1c2c(c(c(Cl)c(c2[C@@]2(C(N1C(C([N+]1(C(C(OC(C1([H])[H])([H])[H])([H])[H])([H])[H])[H])([H])[H])([H])[H])([H])[H])C(=O)N(c1c(nc(c3c(c(c(c(c13)[H])[H])[H])[H])[H])[H])C([C@@]2(C(N(c1nc(c(c(n1)[H])[H])[H])[H])([H])[H])[H])([H])[H])[H])[H])[H]

>  <h>  (13) 
<NA>

>  <Training>  (13) 
True

>  <Success>  (13) 
True

>  <enamine_searched>  (13) 
False

>  <enamine_id>  (13) 
nan

$$$$

     RDKit          3D

 69 74  0  0  0  0  0  0  0  0999 V2000
   -8.1074    4.5442  -24.3078 C   0  0  0  0  0  0  0  0  0  0  0  0
   -8.1465    3.3282  -25.0902 N   0  0  0  0  0  0  0  0  0  0  0  0
   -7.3060    2.3045  -24.7921 C   0  0  0  0  0  0  0  0  0  0  0  0
   -6.4281    2.3743  -23.9439 O   0  0  0  0  0  0  0  0  0  0  0  0
   -7.5325    1.0436  -25.6250 C   0  0  0  0  0  0  0  0  0  0  0  0
   -8.5193    0.1812  -24.9964 N   0  0  0  0  0  0  0  0  0  0  0  0
   -8.0792   -1.0199  -24.3199 C   0  0  0  0  0  0  0  0  0  0  0  0
   -8.8988   -1.3358  -23.0325 C   0  0  2  0  0  0  0  0  0  0  0  0
   -8.4051   -0.4637  -21.8481 C   0  0  0  0  0  0  0  0  0  0  0  0
   -8.7526    0.6519  -21.5514 O   0  0  0  0  0  0  0  0  0  0  0  0
   -7.4634   -1.2064  -21.1506 N   0  0  0  0  0  0  0  0  0  0  0  0
   -6.6450   -0.6840  -20.1208 C   0  0  0  0  0  0  0  0  0  0  0  0
   -6.9101   -0.9955  -18.8127 C   0  0  0  0  0  0  0  0  0  0  0  0
   -6.1955   -0.5359  -17.7567 N   0  0  0  0  0  0  0  0  0  0  0  0
   -5.1639    0.2360  -18.0092 C   0  0  0  0  0  0  0  0  0  0  0  0
   -4.7316    0.5749  -19.3244 C   0  0  0  0  0  0  0  0  0  0  0  0
   -3.5836    1.3780  -19.5697 C   0  0  0  0  0  0  0  0  0  0  0  0
   -3.1773    1.6396  -20.8490 C   0  0  0  0  0  0  0  0  0  0  0  0
   -3.8953    1.1135  -21.9465 C   0  0  0  0  0  0  0  0  0  0  0  0
   -5.0152    0.3486  -21.7378 C   0  0  0  0  0  0  0  0  0  0  0  0
   -5.4739    0.0807  -20.4212 C   0  0  0  0  0  0  0  0  0  0  0  0
   -5.5626   -0.0488  -22.5883 H   0  0  0  0  0  0  0  0  0  0  0  0
   -3.5811    1.3255  -22.9628 H   0  0  0  0  0  0  0  0  0  0  0  0
   -2.3016    2.2563  -21.0345 H   0  0  0  0  0  0  0  0  0  0  0  0
   -3.0369    1.7761  -18.7193 H   0  0  0  0  0  0  0  0  0  0  0  0
   -4.6034    0.6164  -17.1526 H   0  0  0  0  0  0  0  0  0  0  0  0
   -7.7495   -1.6480  -18.5708 H   0  0  0  0  0  0  0  0  0  0  0  0
   -7.2770   -2.5481  -21.6534 C   0  0  0  0  0  0  0  0  0  0  0  0
   -8.5308   -2.7356  -22.5108 C   0  0  2  0  0  0  0  0  0  0  0  0
   -8.4355   -3.7619  -23.6193 C   0  0  0  0  0  0  0  0  0  0  0  0
   -8.5127   -5.0981  -23.0735 N   0  0  0  0  0  0  0  0  0  0  0  0
   -7.9440   -6.1228  -23.7758 C   0  0  0  0  0  0  0  0  0  0  0  0
   -7.7275   -6.0982  -25.1691 C   0  0  0  0  0  0  0  0  0  0  0  0
   -6.9673   -7.1412  -25.6645 C   0  0  0  0  0  0  0  0  0  0  0  0
   -6.4352   -8.0834  -24.8816 N   0  0  0  0  0  0  0  0  0  0  0  0
   -6.7376   -8.0166  -23.5826 C   0  0  0  0  0  0  0  0  0  0  0  0
   -6.1043   -9.0417  -22.7030 C   0  0  0  0  0  0  0  0  0  0  0  0
   -5.3463   -9.5413  -23.3053 H   0  0  0  0  0  0  0  0  0  0  0  0
   -5.6648   -8.5814  -21.8138 H   0  0  0  0  0  0  0  0  0  0  0  0
   -6.8539   -9.7676  -22.3799 H   0  0  0  0  0  0  0  0  0  0  0  0
   -7.5496   -7.1390  -23.0042 N   0  0  0  0  0  0  0  0  0  0  0  0
   -6.6928   -7.1909  -26.7219 H   0  0  0  0  0  0  0  0  0  0  0  0
   -8.0843   -5.3047  -25.8256 H   0  0  0  0  0  0  0  0  0  0  0  0
   -8.2240   -5.1919  -22.1061 H   0  0  0  0  0  0  0  0  0  0  0  0
   -9.2574   -3.6264  -24.3364 H   0  0  0  0  0  0  0  0  0  0  0  0
   -7.4890   -3.6013  -24.1649 H   0  0  0  0  0  0  0  0  0  0  0  0
   -9.3108   -3.0674  -21.8228 H   0  0  0  0  0  0  0  0  0  0  0  0
   -6.3528   -2.6533  -22.2466 H   0  0  0  0  0  0  0  0  0  0  0  0
   -7.2033   -3.2473  -20.8162 H   0  0  0  0  0  0  0  0  0  0  0  0
  -10.3732   -1.2087  -23.3636 C   0  0  0  0  0  0  0  0  0  0  0  0
  -11.3474   -1.8862  -22.6083 C   0  0  0  0  0  0  0  0  0  0  0  0
  -12.6894   -1.7141  -22.8829 C   0  0  0  0  0  0  0  0  0  0  0  0
  -13.8657   -2.5075  -21.8724 Cl  0  0  0  0  0  0  0  0  0  0  0  0
  -13.1156   -0.9112  -23.9373 C   0  0  0  0  0  0  0  0  0  0  0  0
  -12.1662   -0.2610  -24.7015 C   0  0  0  0  0  0  0  0  0  0  0  0
  -10.8056   -0.3943  -24.4177 C   0  0  0  0  0  0  0  0  0  0  0  0
   -9.8381    0.4571  -25.1851 C   0  0  0  0  0  0  0  0  0  0  0  0
  -10.2032    1.3777  -25.9170 O   0  0  0  0  0  0  0  0  0  0  0  0
  -12.4620    0.4061  -25.5026 H   0  0  0  0  0  0  0  0  0  0  0  0
  -14.1762   -0.7959  -24.1253 H   0  0  0  0  0  0  0  0  0  0  0  0
  -11.0780   -2.4944  -21.7519 H   0  0  0  0  0  0  0  0  0  0  0  0
   -7.0192   -0.9023  -24.0648 H   0  0  0  0  0  0  0  0  0  0  0  0
   -8.1678   -1.8625  -25.0153 H   0  0  0  0  0  0  0  0  0  0  0  0
   -6.5856    0.5054  -25.6844 H   0  0  0  0  0  0  0  0  0  0  0  0
   -7.8566    1.2936  -26.6395 H   0  0  0  0  0  0  0  0  0  0  0  0
   -8.9850    3.0993  -25.6096 H   0  0  0  0  0  0  0  0  0  0  0  0
   -7.0709    4.8732  -24.2052 H   0  0  0  0  0  0  0  0  0  0  0  0
   -8.6794    5.3172  -24.8266 H   0  0  0  0  0  0  0  0  0  0  0  0
   -8.5174    4.4031  -23.2995 H   0  0  0  0  0  0  0  0  0  0  0  0
  1  2  1  0
  2  3  1  0
  3  4  2  0
  3  5  1  0
  5  6  1  0
  6  7  1  0
  8  7  1  6
  8  9  1  0
  9 10  2  0
  9 11  1  0
 11 12  1  0
 12 13  2  0
 13 14  1  0
 14 15  2  0
 15 16  1  0
 16 17  2  0
 17 18  1  0
 18 19  2  0
 19 20  1  0
 20 21  2  0
 20 22  1  0
 19 23  1  0
 18 24  1  0
 17 25  1  0
 15 26  1  0
 13 27  1  0
 11 28  1  0
 28 29  1  0
 29 30  1  0
 30 31  1  0
 31 32  1  0
 32 33  2  0
 33 34  1  0
 34 35  2  0
 35 36  1  0
 36 37  1  0
 37 38  1  0
 37 39  1  0
 37 40  1  0
 36 41  2  0
 34 42  1  0
 33 43  1  0
 31 44  1  0
 30 45  1  0
 30 46  1  0
 29 47  1  1
 28 48  1  0
 28 49  1  0
  8 50  1  0
 50 51  2  0
 51 52  1  0
 52 53  1  0
 52 54  2  0
 54 55  1  0
 55 56  2  0
 56 57  1  0
 57 58  2  0
 55 59  1  0
 54 60  1  0
 51 61  1  0
  7 62  1  0
  7 63  1  0
  5 64  1  0
  5 65  1  0
  2 66  1  0
  1 67  1  0
  1 68  1  0
  1 69  1  0
 57  6  1  0
 29  8  1  0
 41 32  1  0
 56 50  1  0
 21 12  1  0
 21 16  1  0
M  END
>  <cnnaffinities>  (14) 
[6.82147, 6.71807]

>  <score>  (14) 
6.82147

>  <index>  (14) 
13

>  <Smiles>  (14) 
C(N(C(=O)C(N1C([C@@]2(C(=O)N(c3c(nc(c4c(c(c(c(c34)[H])[H])[H])[H])[H])[H])C([C@@]2(C(N(c2c(c(nc(C([H])([H])[H])n2)[H])[H])[H])([H])[H])[H])([H])[H])c2c(c(Cl)c(c(c2C1=O)[H])[H])[H])([H])[H])([H])[H])[H])([H])([H])[H]

>  <h>  (14) 
<NA>

>  <Training>  (14) 
True

>  <Success>  (14) 
True

>  <enamine_searched>  (14) 
False

>  <enamine_id>  (14) 
nan

$$$$

     RDKit          3D

 73 78  0  0  0  0  0  0  0  0999 V2000
   -7.9654   -3.7834  -23.9502 C   0  0  0  0  0  0  0  0  0  0  0  0
   -8.2515   -2.9022  -22.7459 C   0  0  1  0  0  0  0  0  0  0  0  0
   -7.0417   -2.6618  -21.8394 C   0  0  0  0  0  0  0  0  0  0  0  0
   -7.3961   -1.4243  -21.1724 N   0  0  0  0  0  0  0  0  0  0  0  0
   -6.6071   -0.8210  -20.1670 C   0  0  0  0  0  0  0  0  0  0  0  0
   -6.9249   -1.0459  -18.8541 C   0  0  0  0  0  0  0  0  0  0  0  0
   -6.2366   -0.5455  -17.8019 N   0  0  0  0  0  0  0  0  0  0  0  0
   -5.2061    0.2188  -18.0798 C   0  0  0  0  0  0  0  0  0  0  0  0
   -4.7778    0.5450  -19.4008 C   0  0  0  0  0  0  0  0  0  0  0  0
   -3.6533    1.3800  -19.6334 C   0  0  0  0  0  0  0  0  0  0  0  0
   -3.2575    1.6750  -20.9103 C   0  0  0  0  0  0  0  0  0  0  0  0
   -3.9734    1.1595  -22.0128 C   0  0  0  0  0  0  0  0  0  0  0  0
   -5.0690    0.3517  -21.8126 C   0  0  0  0  0  0  0  0  0  0  0  0
   -5.4974    0.0159  -20.4936 C   0  0  0  0  0  0  0  0  0  0  0  0
   -5.5946   -0.0420  -22.6755 H   0  0  0  0  0  0  0  0  0  0  0  0
   -3.6635    1.4133  -23.0239 H   0  0  0  0  0  0  0  0  0  0  0  0
   -2.3887    2.3037  -21.0794 H   0  0  0  0  0  0  0  0  0  0  0  0
   -3.1243    1.7712  -18.7707 H   0  0  0  0  0  0  0  0  0  0  0  0
   -4.6443    0.6221  -17.2392 H   0  0  0  0  0  0  0  0  0  0  0  0
   -7.7894   -1.6666  -18.6309 H   0  0  0  0  0  0  0  0  0  0  0  0
   -8.3943   -0.7085  -21.7960 C   0  0  0  0  0  0  0  0  0  0  0  0
   -8.8390    0.3363  -21.3671 O   0  0  0  0  0  0  0  0  0  0  0  0
   -8.7740   -1.4761  -23.0867 C   0  0  1  0  0  0  0  0  0  0  0  0
   -8.0166   -0.8954  -24.3133 C   0  0  0  0  0  0  0  0  0  0  0  0
   -8.5235    0.4032  -24.6990 N   0  0  0  0  0  0  0  0  0  0  0  0
   -7.6435    1.5349  -24.9151 C   0  0  0  0  0  0  0  0  0  0  0  0
   -7.5835    2.4538  -23.6923 C   0  0  0  0  0  0  0  0  0  0  0  0
   -6.4894    3.4843  -23.8322 N   0  0  0  0  0  4  0  0  0  0  0  0
   -6.7969    4.6022  -24.8143 C   0  0  0  0  0  0  0  0  0  0  0  0
   -7.7548    5.6484  -24.2295 C   0  0  0  0  0  0  0  0  0  0  0  0
   -7.2823    6.1697  -22.9450 N   0  0  0  0  0  0  0  0  0  0  0  0
   -6.5497    7.6642  -22.8593 S   0  0  0  0  0  0  0  0  0  0  0  0
   -6.1067    7.8574  -21.4883 O   0  0  0  0  0  0  0  0  0  0  0  0
   -7.4415    8.6180  -23.5045 O   0  0  0  0  0  0  0  0  0  0  0  0
   -5.0988    7.5315  -23.9082 C   0  0  0  0  0  0  0  0  0  0  0  0
   -5.4369    7.4659  -24.9488 H   0  0  0  0  0  0  0  0  0  0  0  0
   -4.5077    6.6545  -23.6251 H   0  0  0  0  0  0  0  0  0  0  0  0
   -4.5078    8.4436  -23.7715 H   0  0  0  0  0  0  0  0  0  0  0  0
   -7.0094    5.1109  -21.9690 C   0  0  0  0  0  0  0  0  0  0  0  0
   -6.0272    4.0760  -22.5202 C   0  0  0  0  0  0  0  0  0  0  0  0
   -5.0589    4.5487  -22.7091 H   0  0  0  0  0  0  0  0  0  0  0  0
   -5.8838    3.2555  -21.8068 H   0  0  0  0  0  0  0  0  0  0  0  0
   -7.9605    4.6064  -21.7511 H   0  0  0  0  0  0  0  0  0  0  0  0
   -6.6387    5.5491  -21.0416 H   0  0  0  0  0  0  0  0  0  0  0  0
   -8.7318    5.1781  -24.0608 H   0  0  0  0  0  0  0  0  0  0  0  0
   -7.9100    6.4713  -24.9303 H   0  0  0  0  0  0  0  0  0  0  0  0
   -7.2211    4.1712  -25.7244 H   0  0  0  0  0  0  0  0  0  0  0  0
   -5.8456    5.0745  -25.0769 H   0  0  0  0  0  0  0  0  0  0  0  0
   -5.6728    2.9667  -24.2043 H   0  0  0  0  0  0  0  0  0  0  0  0
   -7.3811    1.8656  -22.7922 H   0  0  0  0  0  0  0  0  0  0  0  0
   -8.5472    2.9505  -23.5534 H   0  0  0  0  0  0  0  0  0  0  0  0
   -6.6381    1.1644  -25.1383 H   0  0  0  0  0  0  0  0  0  0  0  0
   -8.0066    2.0815  -25.7888 H   0  0  0  0  0  0  0  0  0  0  0  0
   -9.8477    0.5447  -24.9834 C   0  0  0  0  0  0  0  0  0  0  0  0
  -10.2805    1.4433  -25.6920 O   0  0  0  0  0  0  0  0  0  0  0  0
  -10.7505   -0.4565  -24.3089 C   0  0  0  0  0  0  0  0  0  0  0  0
  -12.1214   -0.3384  -24.5319 C   0  0  0  0  0  0  0  0  0  0  0  0
  -13.0260   -1.0801  -23.7949 C   0  0  0  0  0  0  0  0  0  0  0  0
  -12.5258   -1.9966  -22.8688 C   0  0  0  0  0  0  0  0  0  0  0  0
  -13.6257   -2.9558  -21.9193 Cl  0  0  0  0  0  0  0  0  0  0  0  0
  -11.1688   -2.1707  -22.6792 C   0  0  0  0  0  0  0  0  0  0  0  0
  -10.2508   -1.3866  -23.3872 C   0  0  0  0  0  0  0  0  0  0  0  0
  -10.8416   -2.9255  -21.9731 H   0  0  0  0  0  0  0  0  0  0  0  0
  -14.0961   -0.9298  -23.8993 H   0  0  0  0  0  0  0  0  0  0  0  0
  -12.4467    0.3914  -25.2655 H   0  0  0  0  0  0  0  0  0  0  0  0
   -8.1642   -1.5874  -25.1551 H   0  0  0  0  0  0  0  0  0  0  0  0
   -6.9440   -0.8145  -24.1134 H   0  0  0  0  0  0  0  0  0  0  0  0
   -6.1132   -2.5724  -22.4256 H   0  0  0  0  0  0  0  0  0  0  0  0
   -6.8914   -3.4664  -21.1148 H   0  0  0  0  0  0  0  0  0  0  0  0
   -9.0091   -3.3862  -22.1218 H   0  0  0  0  0  0  0  0  0  0  0  0
   -7.1355   -3.3719  -24.5357 H   0  0  0  0  0  0  0  0  0  0  0  0
   -7.6872   -4.7940  -23.6422 H   0  0  0  0  0  0  0  0  0  0  0  0
   -8.8433   -3.8423  -24.6029 H   0  0  0  0  0  0  0  0  0  0  0  0
  1  2  1  0
  2  3  1  0
  3  4  1  0
  4  5  1  0
  5  6  2  0
  6  7  1  0
  7  8  2  0
  8  9  1  0
  9 10  2  0
 10 11  1  0
 11 12  2  0
 12 13  1  0
 13 14  2  0
 13 15  1  0
 12 16  1  0
 11 17  1  0
 10 18  1  0
  8 19  1  0
  6 20  1  0
  4 21  1  0
 21 22  2  0
 21 23  1  0
 23 24  1  6
 24 25  1  0
 25 26  1  0
 26 27  1  0
 27 28  1  0
 28 29  1  0
 29 30  1  0
 30 31  1  0
 31 32  1  0
 32 33  2  0
 32 34  2  0
 32 35  1  0
 35 36  1  0
 35 37  1  0
 35 38  1  0
 31 39  1  0
 39 40  1  0
 40 41  1  0
 40 42  1  0
 39 43  1  0
 39 44  1  0
 30 45  1  0
 30 46  1  0
 29 47  1  0
 29 48  1  0
 28 49  1  0
 27 50  1  0
 27 51  1  0
 26 52  1  0
 26 53  1  0
 25 54  1  0
 54 55  2  0
 54 56  1  0
 56 57  2  0
 57 58  1  0
 58 59  2  0
 59 60  1  0
 59 61  1  0
 61 62  2  0
 61 63  1  0
 58 64  1  0
 57 65  1  0
 24 66  1  0
 24 67  1  0
  3 68  1  0
  3 69  1  0
  2 70  1  1
  1 71  1  0
  1 72  1  0
  1 73  1  0
 23  2  1  0
 40 28  1  0
 62 56  1  0
 14  5  1  0
 62 23  1  0
 14  9  1  0
M  CHG  1  28   1
M  END
>  <cnnaffinities>  (15) 
[7.00919]

>  <score>  (15) 
7.00919

>  <index>  (15) 
14

>  <Smiles>  (15) 
C([C@]1(C(N(c2c(nc(c3c(c(c(c(c23)[H])[H])[H])[H])[H])[H])C(=O)[C@]21C(N(C(C([N+]1(C(C(N(S(=O)(=O)C([H])([H])[H])C(C1([H])[H])([H])[H])([H])[H])([H])[H])[H])([H])[H])([H])[H])C(=O)c1c(c(c(Cl)c(c21)[H])[H])[H])([H])[H])([H])[H])[H])([H])([H])[H]

>  <h>  (15) 
<NA>

>  <Training>  (15) 
True

>  <Success>  (15) 
True

>  <enamine_searched>  (15) 
False

>  <enamine_id>  (15) 
nan

$$$$

     RDKit          3D

 63 68  0  0  0  0  0  0  0  0999 V2000
   -6.8188    3.3272  -22.1013 C   0  0  0  0  0  0  0  0  0  0  0  0
   -6.9833    2.6982  -23.3996 N   0  0  0  0  0  0  0  0  0  0  0  0
   -8.2273    2.4793  -23.8997 C   0  0  0  0  0  0  0  0  0  0  0  0
   -9.2402    2.9430  -23.3995 O   0  0  0  0  0  0  0  0  0  0  0  0
   -8.3208    1.5872  -25.1360 C   0  0  0  0  0  0  0  0  0  0  0  0
   -8.9684    0.3454  -24.7621 N   0  0  0  0  0  0  0  0  0  0  0  0
   -8.2017   -0.7943  -24.3095 C   0  0  0  0  0  0  0  0  0  0  0  0
   -8.8024   -1.4875  -23.0536 C   0  0  2  0  0  0  0  0  0  0  0  0
   -8.3757   -0.7293  -21.7755 C   0  0  0  0  0  0  0  0  0  0  0  0
   -8.8182    0.3085  -21.3289 O   0  0  0  0  0  0  0  0  0  0  0  0
   -7.3451   -1.4228  -21.1856 N   0  0  0  0  0  0  0  0  0  0  0  0
   -6.5838   -0.8183  -20.1610 C   0  0  0  0  0  0  0  0  0  0  0  0
   -6.9293   -1.0260  -18.8517 C   0  0  0  0  0  0  0  0  0  0  0  0
   -6.2491   -0.5124  -17.8003 N   0  0  0  0  0  0  0  0  0  0  0  0
   -5.2095    0.2404  -18.0759 C   0  0  0  0  0  0  0  0  0  0  0  0
   -4.7570    0.5476  -19.3931 C   0  0  0  0  0  0  0  0  0  0  0  0
   -3.6250    1.3715  -19.6326 C   0  0  0  0  0  0  0  0  0  0  0  0
   -3.2079    1.6270  -20.9109 C   0  0  0  0  0  0  0  0  0  0  0  0
   -3.9089    1.0828  -22.0110 C   0  0  0  0  0  0  0  0  0  0  0  0
   -5.0172    0.2937  -21.8068 C   0  0  0  0  0  0  0  0  0  0  0  0
   -5.4655    0.0033  -20.4851 C   0  0  0  0  0  0  0  0  0  0  0  0
   -5.5480   -0.1140  -22.6634 H   0  0  0  0  0  0  0  0  0  0  0  0
   -3.5733    1.2999  -23.0220 H   0  0  0  0  0  0  0  0  0  0  0  0
   -2.3423    2.2595  -21.0867 H   0  0  0  0  0  0  0  0  0  0  0  0
   -3.1071    1.7836  -18.7729 H   0  0  0  0  0  0  0  0  0  0  0  0
   -4.6635    0.6529  -17.2296 H   0  0  0  0  0  0  0  0  0  0  0  0
   -7.7984   -1.6389  -18.6189 H   0  0  0  0  0  0  0  0  0  0  0  0
   -6.9512   -2.6304  -21.8743 C   0  0  0  0  0  0  0  0  0  0  0  0
   -8.1472   -2.8762  -22.8039 C   0  0  2  0  0  0  0  0  0  0  0  0
   -7.7891   -3.6415  -24.0809 C   0  0  0  0  0  0  0  0  0  0  0  0
   -7.3447   -4.9972  -23.8314 N   0  0  0  0  0  0  0  0  0  0  0  0
   -8.0880   -6.1227  -23.7252 C   0  0  0  0  0  0  0  0  0  0  0  0
   -7.2297   -7.1366  -23.3598 C   0  0  0  0  0  0  0  0  0  0  0  0
   -5.9725   -6.5047  -23.2628 C   0  0  0  0  0  0  0  0  0  0  0  0
   -6.0551   -5.2077  -23.5338 N   0  0  0  0  0  0  0  0  0  0  0  0
   -5.0048   -6.9268  -23.0192 H   0  0  0  0  0  0  0  0  0  0  0  0
   -7.4702   -8.1805  -23.2017 H   0  0  0  0  0  0  0  0  0  0  0  0
   -9.1492   -6.1217  -23.9419 H   0  0  0  0  0  0  0  0  0  0  0  0
   -6.9546   -3.1428  -24.5828 H   0  0  0  0  0  0  0  0  0  0  0  0
   -8.6579   -3.6729  -24.7474 H   0  0  0  0  0  0  0  0  0  0  0  0
   -8.8635   -3.4842  -22.2460 H   0  0  0  0  0  0  0  0  0  0  0  0
   -6.0122   -2.4933  -22.4332 H   0  0  0  0  0  0  0  0  0  0  0  0
   -6.7884   -3.4521  -21.1670 H   0  0  0  0  0  0  0  0  0  0  0  0
  -10.3102   -1.5459  -23.1813 C   0  0  0  0  0  0  0  0  0  0  0  0
  -11.0566   -2.3177  -22.2743 C   0  0  0  0  0  0  0  0  0  0  0  0
  -12.4383   -2.2790  -22.2998 C   0  0  0  0  0  0  0  0  0  0  0  0
  -13.3369   -3.2695  -21.1785 Cl  0  0  0  0  0  0  0  0  0  0  0  0
  -13.1361   -1.4825  -23.2114 C   0  0  0  0  0  0  0  0  0  0  0  0
  -12.4081   -0.7445  -24.1267 C   0  0  0  0  0  0  0  0  0  0  0  0
  -11.0121   -0.7544  -24.0992 C   0  0  0  0  0  0  0  0  0  0  0  0
  -10.3139    0.2198  -24.9997 C   0  0  0  0  0  0  0  0  0  0  0  0
  -10.9116    0.8933  -25.8265 O   0  0  0  0  0  0  0  0  0  0  0  0
  -12.8902   -0.1064  -24.8611 H   0  0  0  0  0  0  0  0  0  0  0  0
  -14.2197   -1.4256  -23.1907 H   0  0  0  0  0  0  0  0  0  0  0  0
  -10.5885   -2.9454  -21.5212 H   0  0  0  0  0  0  0  0  0  0  0  0
   -8.1612   -1.5160  -25.1320 H   0  0  0  0  0  0  0  0  0  0  0  0
   -7.1838   -0.4598  -24.0928 H   0  0  0  0  0  0  0  0  0  0  0  0
   -7.3513    1.4159  -25.6183 H   0  0  0  0  0  0  0  0  0  0  0  0
   -8.9859    2.0501  -25.8682 H   0  0  0  0  0  0  0  0  0  0  0  0
   -6.2006    2.2001  -23.7923 H   0  0  0  0  0  0  0  0  0  0  0  0
   -5.8086    3.1213  -21.7347 H   0  0  0  0  0  0  0  0  0  0  0  0
   -7.5660    2.9005  -21.4316 H   0  0  0  0  0  0  0  0  0  0  0  0
   -6.9874    4.4083  -22.1429 H   0  0  0  0  0  0  0  0  0  0  0  0
  1  2  1  0
  2  3  1  0
  3  4  2  0
  3  5  1  0
  5  6  1  0
  6  7  1  0
  8  7  1  6
  8  9  1  0
  9 10  2  0
  9 11  1  0
 11 12  1  0
 12 13  2  0
 13 14  1  0
 14 15  2  0
 15 16  1  0
 16 17  2  0
 17 18  1  0
 18 19  2  0
 19 20  1  0
 20 21  2  0
 20 22  1  0
 19 23  1  0
 18 24  1  0
 17 25  1  0
 15 26  1  0
 13 27  1  0
 11 28  1  0
 28 29  1  0
 29 30  1  0
 30 31  1  0
 31 32  1  0
 32 33  2  0
 33 34  1  0
 34 35  2  0
 34 36  1  0
 33 37  1  0
 32 38  1  0
 30 39  1  0
 30 40  1  0
 29 41  1  1
 28 42  1  0
 28 43  1  0
  8 44  1  0
 44 45  2  0
 45 46  1  0
 46 47  1  0
 46 48  2  0
 48 49  1  0
 49 50  2  0
 50 51  1  0
 51 52  2  0
 49 53  1  0
 48 54  1  0
 45 55  1  0
  7 56  1  0
  7 57  1  0
  5 58  1  0
  5 59  1  0
  2 60  1  0
  1 61  1  0
  1 62  1  0
  1 63  1  0
 51  6  1  0
 29  8  1  0
 35 31  1  0
 50 44  1  0
 21 12  1  0
 21 16  1  0
M  END
>  <cnnaffinities>  (16) 
[7.13557]

>  <score>  (16) 
7.13557

>  <index>  (16) 
15

>  <Smiles>  (16) 
C(N(C(=O)C(N1C([C@@]2(C(=O)N(c3c(nc(c4c(c(c(c(c34)[H])[H])[H])[H])[H])[H])C([C@@]2(C(n2c(c(c(n2)[H])[H])[H])([H])[H])[H])([H])[H])c2c(c(Cl)c(c(c2C1=O)[H])[H])[H])([H])[H])([H])[H])[H])([H])([H])[H]

>  <h>  (16) 
<NA>

>  <Training>  (16) 
True

>  <Success>  (16) 
True

>  <enamine_searched>  (16) 
False

>  <enamine_id>  (16) 
nan

$$$$

     RDKit          3D

 61 66  0  0  0  0  0  0  0  0999 V2000
   -7.5547    2.5037  -22.4855 C   0  0  0  0  0  0  0  0  0  0  0  0
   -8.4609    1.8223  -23.3749 N   0  0  0  0  0  0  0  0  0  0  0  0
   -8.1384    1.5354  -24.6602 C   0  0  0  0  0  0  0  0  0  0  0  0
   -7.1032    1.8683  -25.2123 O   0  0  0  0  0  0  0  0  0  0  0  0
   -9.2374    0.7476  -25.3712 C   0  0  0  0  0  0  0  0  0  0  0  0
   -9.7275   -0.3355  -24.5355 N   0  0  0  0  0  0  0  0  0  0  0  0
   -8.7772   -1.3715  -24.1275 C   0  0  0  0  0  0  0  0  0  0  0  0
   -9.1246   -2.0395  -22.7678 C   0  0  2  0  0  0  0  0  0  0  0  0
   -8.6150   -1.1476  -21.5956 C   0  0  0  0  0  0  0  0  0  0  0  0
   -9.0899   -0.1096  -21.1818 O   0  0  0  0  0  0  0  0  0  0  0  0
   -7.4521   -1.6833  -21.0905 N   0  0  0  0  0  0  0  0  0  0  0  0
   -6.7096   -1.0038  -20.0884 C   0  0  0  0  0  0  0  0  0  0  0  0
   -7.0421   -1.1714  -18.7666 C   0  0  0  0  0  0  0  0  0  0  0  0
   -6.3666   -0.6127  -17.7321 N   0  0  0  0  0  0  0  0  0  0  0  0
   -5.3385    0.1459  -18.0239 C   0  0  0  0  0  0  0  0  0  0  0  0
   -4.8966    0.4169  -19.3510 C   0  0  0  0  0  0  0  0  0  0  0  0
   -3.7782    1.2507  -19.6131 C   0  0  0  0  0  0  0  0  0  0  0  0
   -3.4094    1.5371  -20.8971 C   0  0  0  0  0  0  0  0  0  0  0  0
   -4.1407    1.0054  -21.9807 C   0  0  0  0  0  0  0  0  0  0  0  0
   -5.2136    0.1731  -21.7551 C   0  0  0  0  0  0  0  0  0  0  0  0
   -5.6136   -0.1518  -20.4294 C   0  0  0  0  0  0  0  0  0  0  0  0
   -5.7896   -0.2048  -22.5980 H   0  0  0  0  0  0  0  0  0  0  0  0
   -3.8727    1.2625  -22.9989 H   0  0  0  0  0  0  0  0  0  0  0  0
   -2.5611    2.1871  -21.0911 H   0  0  0  0  0  0  0  0  0  0  0  0
   -3.2345    1.6498  -18.7619 H   0  0  0  0  0  0  0  0  0  0  0  0
   -4.7896    0.5942  -17.1935 H   0  0  0  0  0  0  0  0  0  0  0  0
   -7.8887   -1.8002  -18.5000 H   0  0  0  0  0  0  0  0  0  0  0  0
   -6.9637   -2.8163  -21.8440 C   0  0  0  0  0  0  0  0  0  0  0  0
   -8.2586   -3.3177  -22.4960 C   0  0  2  0  0  0  0  0  0  0  0  0
   -8.0642   -4.3738  -23.5936 C   0  0  0  0  0  0  0  0  0  0  0  0
   -7.0752   -4.1034  -24.6369 N   0  0  0  0  0  0  0  0  0  0  0  0
   -7.3860   -3.8124  -25.8923 N   0  0  0  0  0  0  0  0  0  0  0  0
   -6.1868   -3.7594  -26.4527 C   0  0  0  0  0  0  0  0  0  0  0  0
   -5.1922   -4.0314  -25.5848 N   0  0  0  0  0  0  0  0  0  0  0  0
   -5.7782   -4.2592  -24.4406 N   0  0  0  0  0  0  0  0  0  0  0  0
   -6.0265   -3.5458  -27.4990 H   0  0  0  0  0  0  0  0  0  0  0  0
   -9.0068   -4.5464  -24.1151 H   0  0  0  0  0  0  0  0  0  0  0  0
   -7.7515   -5.3124  -23.1249 H   0  0  0  0  0  0  0  0  0  0  0  0
   -8.8036   -3.8408  -21.7066 H   0  0  0  0  0  0  0  0  0  0  0  0
   -6.2180   -2.5283  -22.5983 H   0  0  0  0  0  0  0  0  0  0  0  0
   -6.4897   -3.5475  -21.1791 H   0  0  0  0  0  0  0  0  0  0  0  0
  -10.6329   -2.2656  -22.7107 C   0  0  0  0  0  0  0  0  0  0  0  0
  -11.2019   -3.1039  -21.7396 C   0  0  0  0  0  0  0  0  0  0  0  0
  -12.5770   -3.1821  -21.5964 C   0  0  0  0  0  0  0  0  0  0  0  0
  -13.2411   -4.1736  -20.3321 Cl  0  0  0  0  0  0  0  0  0  0  0  0
  -13.4551   -2.5145  -22.4448 C   0  0  0  0  0  0  0  0  0  0  0  0
  -12.9136   -1.7332  -23.4404 C   0  0  0  0  0  0  0  0  0  0  0  0
  -11.5310   -1.5864  -23.5534 C   0  0  0  0  0  0  0  0  0  0  0  0
  -11.0711   -0.6037  -24.5745 C   0  0  0  0  0  0  0  0  0  0  0  0
  -11.8412   -0.0297  -25.3323 O   0  0  0  0  0  0  0  0  0  0  0  0
  -13.5474   -1.1911  -24.1350 H   0  0  0  0  0  0  0  0  0  0  0  0
  -14.5259   -2.6301  -22.3228 H   0  0  0  0  0  0  0  0  0  0  0  0
  -10.6008   -3.7384  -21.0979 H   0  0  0  0  0  0  0  0  0  0  0  0
   -7.7852   -0.9144  -24.0683 H   0  0  0  0  0  0  0  0  0  0  0  0
   -8.7320   -2.1532  -24.8885 H   0  0  0  0  0  0  0  0  0  0  0  0
   -8.8778    0.4026  -26.3455 H   0  0  0  0  0  0  0  0  0  0  0  0
  -10.1019    1.3989  -25.5477 H   0  0  0  0  0  0  0  0  0  0  0  0
   -9.2242    1.3083  -22.9600 H   0  0  0  0  0  0  0  0  0  0  0  0
   -6.6446    2.7147  -23.0463 H   0  0  0  0  0  0  0  0  0  0  0  0
   -7.9874    3.4344  -22.1076 H   0  0  0  0  0  0  0  0  0  0  0  0
   -7.3004    1.8684  -21.6304 H   0  0  0  0  0  0  0  0  0  0  0  0
  1  2  1  0
  2  3  1  0
  3  4  2  0
  3  5  1  0
  5  6  1  0
  6  7  1  0
  8  7  1  6
  8  9  1  0
  9 10  2  0
  9 11  1  0
 11 12  1  0
 12 13  2  0
 13 14  1  0
 14 15  2  0
 15 16  1  0
 16 17  2  0
 17 18  1  0
 18 19  2  0
 19 20  1  0
 20 21  2  0
 20 22  1  0
 19 23  1  0
 18 24  1  0
 17 25  1  0
 15 26  1  0
 13 27  1  0
 11 28  1  0
 28 29  1  0
 29 30  1  0
 30 31  1  0
 31 32  1  0
 32 33  2  0
 33 34  1  0
 34 35  2  0
 33 36  1  0
 30 37  1  0
 30 38  1  0
 29 39  1  1
 28 40  1  0
 28 41  1  0
  8 42  1  0
 42 43  2  0
 43 44  1  0
 44 45  1  0
 44 46  2  0
 46 47  1  0
 47 48  2  0
 48 49  1  0
 49 50  2  0
 47 51  1  0
 46 52  1  0
 43 53  1  0
  7 54  1  0
  7 55  1  0
  5 56  1  0
  5 57  1  0
  2 58  1  0
  1 59  1  0
  1 60  1  0
  1 61  1  0
 49  6  1  0
 29  8  1  0
 35 31  1  0
 48 42  1  0
 21 12  1  0
 21 16  1  0
M  END
>  <cnnaffinities>  (17) 
[6.70301, 6.92567, 6.87237]

>  <score>  (17) 
6.70301

>  <index>  (17) 
16

>  <Smiles>  (17) 
C(N(C(=O)C(N1C([C@@]2(C(=O)N(c3c(nc(c4c(c(c(c(c34)[H])[H])[H])[H])[H])[H])C([C@@]2(C(n2nc(nn2)[H])([H])[H])[H])([H])[H])c2c(c(Cl)c(c(c2C1=O)[H])[H])[H])([H])[H])([H])[H])[H])([H])([H])[H]

>  <h>  (17) 
<NA>

>  <Training>  (17) 
True

>  <Success>  (17) 
True

>  <enamine_searched>  (17) 
False

>  <enamine_id>  (17) 
nan

$$$$

     RDKit          3D

 38 41  0  0  0  0  0  0  0  0999 V2000
   -9.3472   -4.9463  -25.6921 C   0  0  0  0  0  0  0  0  0  0  0  0
   -9.3481   -4.2003  -24.3555 C   0  0  2  0  0  0  0  0  0  0  0  0
  -10.3449   -3.0366  -24.3735 C   0  0  0  0  0  0  0  0  0  0  0  0
  -10.4131   -2.3417  -22.9985 C   0  0  0  0  0  0  0  0  0  0  0  0
   -9.0662   -2.0935  -22.4474 C   0  0  0  0  0  0  0  0  0  0  0  0
   -8.6363   -1.1881  -21.4138 C   0  0  0  0  0  0  0  0  0  0  0  0
   -9.1822   -0.2882  -20.8202 O   0  0  0  0  0  1  0  0  0  0  0  0
   -7.2804   -1.5120  -21.2020 N   0  0  0  0  0  0  0  0  0  0  0  0
   -6.5361   -0.8700  -20.1851 C   0  0  0  0  0  0  0  0  0  0  0  0
   -6.8849   -1.0594  -18.8702 C   0  0  0  0  0  0  0  0  0  0  0  0
   -6.1995   -0.5485  -17.8211 N   0  0  0  0  0  0  0  0  0  0  0  0
   -5.1628    0.2120  -18.0773 C   0  0  0  0  0  0  0  0  0  0  0  0
   -4.7268    0.5352  -19.3930 C   0  0  0  0  0  0  0  0  0  0  0  0
   -3.6008    1.3688  -19.6271 C   0  0  0  0  0  0  0  0  0  0  0  0
   -3.2220    1.6706  -20.9063 C   0  0  0  0  0  0  0  0  0  0  0  0
   -3.9528    1.1614  -22.0021 C   0  0  0  0  0  0  0  0  0  0  0  0
   -5.0449    0.3553  -21.8014 C   0  0  0  0  0  0  0  0  0  0  0  0
   -5.4449    0.0033  -20.4849 C   0  0  0  0  0  0  0  0  0  0  0  0
   -5.6001   -0.0332  -22.6482 H   0  0  0  0  0  0  0  0  0  0  0  0
   -3.6514    1.4072  -23.0156 H   0  0  0  0  0  0  0  0  0  0  0  0
   -2.3658    2.3158  -21.0910 H   0  0  0  0  0  0  0  0  0  0  0  0
   -3.0646    1.7677  -18.7709 H   0  0  0  0  0  0  0  0  0  0  0  0
   -4.6170    0.6167  -17.2246 H   0  0  0  0  0  0  0  0  0  0  0  0
   -7.7409   -1.6709  -18.5973 H   0  0  0  0  0  0  0  0  0  0  0  0
   -6.8354   -2.4554  -22.1307 C   0  0  0  0  0  0  0  0  0  0  0  0
   -5.7099   -2.8761  -22.2644 O   0  0  0  0  0  0  0  0  0  0  0  0
   -7.9717   -2.7848  -22.8625 N   0  0  0  0  0  0  0  0  0  0  0  0
   -7.9457   -3.6846  -24.0120 C   0  0  0  0  0  0  0  0  0  0  0  0
   -7.2727   -4.4992  -23.7500 H   0  0  0  0  0  0  0  0  0  0  0  0
   -7.5106   -3.1701  -24.8787 H   0  0  0  0  0  0  0  0  0  0  0  0
  -10.9672   -1.4008  -23.0755 H   0  0  0  0  0  0  0  0  0  0  0  0
  -11.0056   -2.9653  -22.3087 H   0  0  0  0  0  0  0  0  0  0  0  0
  -10.0278   -2.3159  -25.1424 H   0  0  0  0  0  0  0  0  0  0  0  0
  -11.3382   -3.4076  -24.6782 H   0  0  0  0  0  0  0  0  0  0  0  0
   -9.6537   -4.9019  -23.5659 H   0  0  0  0  0  0  0  0  0  0  0  0
  -10.3429   -5.3461  -25.9199 H   0  0  0  0  0  0  0  0  0  0  0  0
   -8.6449   -5.7886  -25.6914 H   0  0  0  0  0  0  0  0  0  0  0  0
   -9.0702   -4.2786  -26.5194 H   0  0  0  0  0  0  0  0  0  0  0  0
  1  2  1  0
  2  3  1  0
  3  4  1  0
  4  5  1  0
  5  6  2  0
  6  7  1  0
  6  8  1  0
  8  9  1  0
  9 10  2  0
 10 11  1  0
 11 12  2  0
 12 13  1  0
 13 14  2  0
 14 15  1  0
 15 16  2  0
 16 17  1  0
 17 18  2  0
 17 19  1  0
 16 20  1  0
 15 21  1  0
 14 22  1  0
 12 23  1  0
 10 24  1  0
  8 25  1  0
 25 26  2  0
 25 27  1  0
 27 28  1  0
 28 29  1  0
 28 30  1  0
  4 31  1  0
  4 32  1  0
  3 33  1  0
  3 34  1  0
  2 35  1  1
  1 36  1  0
  1 37  1  0
  1 38  1  0
 28  2  1  0
 27  5  1  0
 18  9  1  0
 18 13  1  0
M  CHG  1   7  -1
M  END
>  <cnnaffinities>  (18) 
[5.55547]

>  <score>  (18) 
5.55547

>  <index>  (18) 
17

>  <Smiles>  (18) 
C([C@@]1(C(C(c2c([O-])n(c3c(nc(c4c(c(c(c(c34)[H])[H])[H])[H])[H])[H])c(=O)n2C1([H])[H])([H])[H])([H])[H])[H])([H])([H])[H]

>  <h>  (18) 
<NA>

>  <Training>  (18) 
True

>  <Success>  (18) 
True

>  <enamine_searched>  (18) 
False

>  <enamine_id>  (18) 
nan

$$$$

     RDKit          3D

 56 61  0  0  0  0  0  0  0  0999 V2000
  -10.2313   -2.9314  -22.0419 C   0  0  0  0  0  0  0  0  0  0  0  0
   -9.1837   -1.9798  -22.6405 C   0  0  1  0  0  0  0  0  0  0  0  0
   -8.7129   -0.9575  -21.5825 C   0  0  0  0  0  0  0  0  0  0  0  0
   -7.4023   -1.4199  -21.1899 N   0  0  0  0  0  0  0  0  0  0  0  0
   -6.6173   -0.8185  -20.1753 C   0  0  0  0  0  0  0  0  0  0  0  0
   -6.9418   -1.0265  -18.8598 C   0  0  0  0  0  0  0  0  0  0  0  0
   -6.2517   -0.5264  -17.8056 N   0  0  0  0  0  0  0  0  0  0  0  0
   -5.2074    0.2211  -18.0756 C   0  0  0  0  0  0  0  0  0  0  0  0
   -4.7659    0.5270  -19.3947 C   0  0  0  0  0  0  0  0  0  0  0  0
   -3.6342    1.3551  -19.6198 C   0  0  0  0  0  0  0  0  0  0  0  0
   -3.2388    1.6579  -20.8929 C   0  0  0  0  0  0  0  0  0  0  0  0
   -3.9555    1.1442  -21.9985 C   0  0  0  0  0  0  0  0  0  0  0  0
   -5.0501    0.3379  -21.8102 C   0  0  0  0  0  0  0  0  0  0  0  0
   -5.4840    0.0004  -20.4918 C   0  0  0  0  0  0  0  0  0  0  0  0
   -5.5821   -0.0537  -22.6776 H   0  0  0  0  0  0  0  0  0  0  0  0
   -3.6365    1.3940  -23.0068 H   0  0  0  0  0  0  0  0  0  0  0  0
   -2.3789    2.2995  -21.0652 H   0  0  0  0  0  0  0  0  0  0  0  0
   -3.1021    1.7464  -18.7560 H   0  0  0  0  0  0  0  0  0  0  0  0
   -4.6499    0.6280  -17.2302 H   0  0  0  0  0  0  0  0  0  0  0  0
   -7.7962   -1.6553  -18.6139 H   0  0  0  0  0  0  0  0  0  0  0  0
   -6.8731   -2.3802  -22.0152 C   0  0  0  0  0  0  0  0  0  0  0  0
   -5.7820   -2.8778  -21.8716 O   0  0  0  0  0  0  0  0  0  0  0  0
   -7.8793   -2.6731  -23.1478 C   0  0  1  0  0  0  0  0  0  0  0  0
   -8.0584   -4.1959  -23.3650 C   0  0  0  0  0  0  0  0  0  0  0  0
   -6.8660   -4.8386  -23.9074 N   0  0  0  0  0  0  0  0  0  0  0  0
   -6.4769   -6.1890  -23.4841 C   0  0  0  0  0  0  0  0  0  0  0  0
   -5.3549   -6.1779  -22.5370 C   0  0  0  0  0  0  0  0  0  0  0  0
   -3.8528   -5.9687  -22.9203 C   0  0  0  0  0  0  0  0  0  0  0  0
   -3.9631   -6.0903  -23.0493 C   0  0  0  0  0  0  0  0  0  0  0  0
   -4.7773   -5.8283  -20.4642 N   0  0  0  0  0  0  0  0  0  0  0  0
   -5.7448   -6.1074  -21.2272 N   0  0  0  0  0  0  0  0  0  0  0  0
   -5.1860   -5.7092  -19.5277 H   0  0  0  0  0  0  0  0  0  0  0  0
   -1.5760   -5.4414  -23.1100 H   0  0  0  0  0  0  0  0  0  0  0  0
   -2.9365   -6.1894  -23.6716 H   0  0  0  0  0  0  0  0  0  0  0  0
   -7.3291   -6.6452  -22.9699 H   0  0  0  0  0  0  0  0  0  0  0  0
   -6.2673   -6.7670  -24.3987 H   0  0  0  0  0  0  0  0  0  0  0  0
   -6.1036   -4.2537  -24.8816 C   0  0  0  0  0  0  0  0  0  0  0  0
   -5.1686   -4.8336  -25.4150 O   0  0  0  0  0  0  0  0  0  0  0  0
   -6.5299   -2.8649  -25.2910 C   0  0  0  0  0  0  0  0  0  0  0  0
   -6.0495   -2.3524  -26.4981 C   0  0  0  0  0  0  0  0  0  0  0  0
   -6.3004   -1.0409  -26.8531 C   0  0  0  0  0  0  0  0  0  0  0  0
   -7.0278   -0.2559  -25.9669 C   0  0  0  0  0  0  0  0  0  0  0  0
   -7.2346    1.0359  -26.2797 F   0  0  0  0  0  0  0  0  0  0  0  0
   -7.5387   -0.7443  -24.7790 C   0  0  0  0  0  0  0  0  0  0  0  0
   -7.3349   -2.0880  -24.4479 C   0  0  0  0  0  0  0  0  0  0  0  0
   -8.0928   -0.0639  -24.1400 H   0  0  0  0  0  0  0  0  0  0  0  0
   -5.9305   -0.6019  -27.7744 H   0  0  0  0  0  0  0  0  0  0  0  0
   -5.4697   -3.0002  -27.1471 H   0  0  0  0  0  0  0  0  0  0  0  0
   -8.8921   -4.3430  -24.0629 H   0  0  0  0  0  0  0  0  0  0  0  0
   -8.3360   -4.6710  -22.4202 H   0  0  0  0  0  0  0  0  0  0  0  0
   -9.3786   -0.9464  -20.7240 H   0  0  0  0  0  0  0  0  0  0  0  0
   -8.6736    0.0687  -21.9718 H   0  0  0  0  0  0  0  0  0  0  0  0
   -9.6683   -1.4685  -23.4786 H   0  0  0  0  0  0  0  0  0  0  0  0
  -11.0952   -2.3664  -21.6757 H   0  0  0  0  0  0  0  0  0  0  0  0
   -9.8244   -3.4992  -21.1968 H   0  0  0  0  0  0  0  0  0  0  0  0
  -10.6025   -3.6413  -22.7877 H   0  0  0  0  0  0  0  0  0  0  0  0
  1  2  1  0
  2  3  1  0
  3  4  1  0
  4  5  1  0
  5  6  2  0
  6  7  1  0
  7  8  2  0
  8  9  1  0
  9 10  2  0
 10 11  1  0
 11 12  2  0
 12 13  1  0
 13 14  2  0
 13 15  1  0
 12 16  1  0
 11 17  1  0
 10 18  1  0
  8 19  1  0
  6 20  1  0
  4 21  1  0
 21 22  2  0
 21 23  1  0
 23 24  1  6
 24 25  1  0
 25 26  1  0
 26 27  1  0
 27 28  1  0
 28 29  2  0
 29 30  1  0
 30 31  1  0
 30 32  1  0
 29 33  1  0
 28 34  1  0
 26 35  1  0
 26 36  1  0
 25 37  1  0
 37 38  2  0
 37 39  1  0
 39 40  2  0
 40 41  1  0
 41 42  2  0
 42 43  1  0
 42 44  1  0
 44 45  2  0
 44 46  1  0
 41 47  1  0
 40 48  1  0
 24 49  1  0
 24 50  1  0
  3 51  1  0
  3 52  1  0
  2 53  1  6
  1 54  1  0
  1 55  1  0
  1 56  1  0
 23  2  1  0
 31 27  2  0
 45 39  1  0
 14  5  1  0
 45 23  1  0
 14  9  1  0
M  END
>  <cnnaffinities>  (19) 
[5.79529, 6.20494, 6.39024]

>  <score>  (19) 
5.79529

>  <index>  (19) 
18

>  <Smiles>  (19) 
C([C@]1(C(N(c2c(nc(c3c(c(c(c(c23)[H])[H])[H])[H])[H])[H])C(=O)[C@]21C(N(C(c1c(c(n(n1)[H])[H])[H])([H])[H])C(=O)c1c(c(c(F)c(c21)[H])[H])[H])([H])[H])([H])[H])[H])([H])([H])[H]

>  <h>  (19) 
<NA>

>  <Training>  (19) 
True

>  <Success>  (19) 
True

>  <enamine_searched>  (19) 
False

>  <enamine_id>  (19) 
nan

$$$$

     RDKit          3D

 42 45  0  0  0  0  0  0  0  0999 V2000
   -9.0958   -0.1002  -20.6635 O   0  0  0  0  0  0  0  0  0  0  0  0
   -8.6757   -0.9735  -21.3918 C   0  0  0  0  0  0  0  0  0  0  0  0
   -9.5259   -1.5257  -22.5486 C   0  0  1  0  0  0  0  0  0  0  0  0
   -9.7148   -0.4657  -23.6303 C   0  0  0  0  0  0  0  0  0  0  0  0
  -10.8919   -0.4249  -24.3801 C   0  0  0  0  0  0  0  0  0  0  0  0
  -11.0537    0.4864  -25.4165 C   0  0  0  0  0  0  0  0  0  0  0  0
  -10.0388    1.3859  -25.7196 C   0  0  0  0  0  0  0  0  0  0  0  0
  -10.2815    2.5410  -26.9852 Cl  0  0  0  0  0  0  0  0  0  0  0  0
   -8.8505    1.3369  -24.9942 C   0  0  0  0  0  0  0  0  0  0  0  0
   -7.5343    2.3997  -25.3586 Cl  0  0  0  0  0  0  0  0  0  0  0  0
   -8.6961    0.4170  -23.9637 C   0  0  0  0  0  0  0  0  0  0  0  0
   -7.7513    0.3952  -23.4305 H   0  0  0  0  0  0  0  0  0  0  0  0
  -11.9958    0.5639  -25.9448 H   0  0  0  0  0  0  0  0  0  0  0  0
  -11.7201   -1.0783  -24.1332 H   0  0  0  0  0  0  0  0  0  0  0  0
   -9.0010   -2.8460  -23.1056 C   0  0  0  0  0  0  0  0  0  0  0  0
   -7.4901   -2.8327  -23.2404 C   0  0  2  0  0  0  0  0  0  0  0  0
   -7.0005   -4.0114  -23.8393 O   0  0  0  0  0  0  0  0  0  0  0  0
   -7.2967   -4.7426  -23.2767 H   0  0  0  0  0  0  0  0  0  0  0  0
   -6.8641   -2.6139  -21.8748 C   0  0  0  0  0  0  0  0  0  0  0  0
   -7.3724   -1.4120  -21.2399 N   0  0  0  0  0  0  0  0  0  0  0  0
   -6.6067   -0.8127  -20.1889 C   0  0  0  0  0  0  0  0  0  0  0  0
   -6.9020   -1.0497  -18.8676 C   0  0  0  0  0  0  0  0  0  0  0  0
   -6.1932   -0.5557  -17.8176 N   0  0  0  0  0  0  0  0  0  0  0  0
   -5.1625    0.2161  -18.0732 C   0  0  0  0  0  0  0  0  0  0  0  0
   -4.7274    0.5302  -19.3909 C   0  0  0  0  0  0  0  0  0  0  0  0
   -3.6011    1.3630  -19.6317 C   0  0  0  0  0  0  0  0  0  0  0  0
   -3.2132    1.6507  -20.9132 C   0  0  0  0  0  0  0  0  0  0  0  0
   -3.9326    1.1128  -22.0056 C   0  0  0  0  0  0  0  0  0  0  0  0
   -5.0219    0.3021  -21.7944 C   0  0  0  0  0  0  0  0  0  0  0  0
   -5.4556   -0.0060  -20.4805 C   0  0  0  0  0  0  0  0  0  0  0  0
   -5.5702   -0.0987  -22.6402 H   0  0  0  0  0  0  0  0  0  0  0  0
   -3.6230    1.3454  -23.0180 H   0  0  0  0  0  0  0  0  0  0  0  0
   -2.3583    2.2946  -21.1033 H   0  0  0  0  0  0  0  0  0  0  0  0
   -3.0620    1.7767  -18.7831 H   0  0  0  0  0  0  0  0  0  0  0  0
   -4.6113    0.6230  -17.2218 H   0  0  0  0  0  0  0  0  0  0  0  0
   -7.7461   -1.6748  -18.5855 H   0  0  0  0  0  0  0  0  0  0  0  0
   -5.7842   -2.5072  -21.9647 H   0  0  0  0  0  0  0  0  0  0  0  0
   -7.0399   -3.4982  -21.2431 H   0  0  0  0  0  0  0  0  0  0  0  0
   -7.1976   -2.0243  -23.9145 H   0  0  0  0  0  0  0  0  0  0  0  0
   -9.3064   -3.6706  -22.4453 H   0  0  0  0  0  0  0  0  0  0  0  0
   -9.4570   -3.0425  -24.0817 H   0  0  0  0  0  0  0  0  0  0  0  0
  -10.5169   -1.7312  -22.1359 H   0  0  0  0  0  0  0  0  0  0  0  0
  1  2  2  0
  2  3  1  0
  3  4  1  0
  4  5  2  0
  5  6  1  0
  6  7  2  0
  7  8  1  0
  7  9  1  0
  9 10  1  0
  9 11  2  0
 11 12  1  0
  6 13  1  0
  5 14  1  0
  3 15  1  0
 15 16  1  0
 16 17  1  0
 17 18  1  0
 16 19  1  0
 19 20  1  0
 20 21  1  0
 21 22  2  0
 22 23  1  0
 23 24  2  0
 24 25  1  0
 25 26  2  0
 26 27  1  0
 27 28  2  0
 28 29  1  0
 29 30  2  0
 29 31  1  0
 28 32  1  0
 27 33  1  0
 26 34  1  0
 24 35  1  0
 22 36  1  0
 19 37  1  0
 19 38  1  0
 16 39  1  6
 15 40  1  0
 15 41  1  0
  3 42  1  1
 20  2  1  0
 30 21  1  0
 11  4  1  0
 30 25  1  0
M  END
>  <cnnaffinities>  (20) 
[5.98561, 5.37474]

>  <score>  (20) 
5.98561

>  <index>  (20) 
19

>  <Smiles>  (20) 
O=C1[C@@](c2c(c(c(Cl)c(Cl)c2[H])[H])[H])(C([C@](O[H])(C(N1c1c(nc(c2c(c(c(c(c12)[H])[H])[H])[H])[H])[H])([H])[H])[H])([H])[H])[H]

>  <h>  (20) 
<NA>

>  <Training>  (20) 
True

>  <Success>  (20) 
True

>  <enamine_searched>  (20) 
False

>  <enamine_id>  (20) 
nan

$$$$

     RDKit          3D

 66 71  0  0  0  0  0  0  0  0999 V2000
   -8.6391    4.4501  -23.2706 C   0  0  0  0  0  0  0  0  0  0  0  0
   -8.6745    3.4114  -24.2812 N   0  0  0  0  0  0  0  0  0  0  0  0
   -7.7325    2.4318  -24.2585 C   0  0  0  0  0  0  0  0  0  0  0  0
   -6.8364    2.4072  -23.4316 O   0  0  0  0  0  0  0  0  0  0  0  0
   -7.8854    1.3424  -25.3239 C   0  0  0  0  0  0  0  0  0  0  0  0
   -8.7145    0.2602  -24.8138 N   0  0  0  0  0  0  0  0  0  0  0  0
   -8.1293   -0.9861  -24.3490 C   0  0  0  0  0  0  0  0  0  0  0  0
   -8.8233   -1.5417  -23.0676 C   0  0  2  0  0  0  0  0  0  0  0  0
   -8.4009   -0.7328  -21.8110 C   0  0  0  0  0  0  0  0  0  0  0  0
   -8.8489    0.3153  -21.4021 O   0  0  0  0  0  0  0  0  0  0  0  0
   -7.3850   -1.4216  -21.1841 N   0  0  0  0  0  0  0  0  0  0  0  0
   -6.6061   -0.8269  -20.1632 C   0  0  0  0  0  0  0  0  0  0  0  0
   -6.9247   -1.0599  -18.8527 C   0  0  0  0  0  0  0  0  0  0  0  0
   -6.2363   -0.5653  -17.7939 N   0  0  0  0  0  0  0  0  0  0  0  0
   -5.1994    0.1930  -18.0558 C   0  0  0  0  0  0  0  0  0  0  0  0
   -4.7512    0.5056  -19.3701 C   0  0  0  0  0  0  0  0  0  0  0  0
   -3.6220    1.3346  -19.5997 C   0  0  0  0  0  0  0  0  0  0  0  0
   -3.2087    1.6086  -20.8718 C   0  0  0  0  0  0  0  0  0  0  0  0
   -3.9148    1.0780  -21.9768 C   0  0  0  0  0  0  0  0  0  0  0  0
   -5.0240    0.2895  -21.7852 C   0  0  0  0  0  0  0  0  0  0  0  0
   -5.4675   -0.0178  -20.4703 C   0  0  0  0  0  0  0  0  0  0  0  0
   -5.5784   -0.0788  -22.6468 H   0  0  0  0  0  0  0  0  0  0  0  0
   -3.5870    1.3083  -22.9852 H   0  0  0  0  0  0  0  0  0  0  0  0
   -2.3418    2.2408  -21.0463 H   0  0  0  0  0  0  0  0  0  0  0  0
   -3.1039    1.7428  -18.7363 H   0  0  0  0  0  0  0  0  0  0  0  0
   -4.6541    0.6049  -17.2061 H   0  0  0  0  0  0  0  0  0  0  0  0
   -7.7882   -1.6815  -18.6237 H   0  0  0  0  0  0  0  0  0  0  0  0
   -7.0651   -2.6990  -21.7779 C   0  0  0  0  0  0  0  0  0  0  0  0
   -8.2629   -2.9611  -22.7054 C   0  0  2  0  0  0  0  0  0  0  0  0
   -7.9218   -3.8734  -23.9017 C   0  0  0  0  0  0  0  0  0  0  0  0
   -7.5405   -5.2865  -23.5172 C   0  0  0  0  0  0  0  0  0  0  0  0
   -8.5110   -6.2901  -23.5244 C   0  0  0  0  0  0  0  0  0  0  0  0
   -8.2150   -7.5868  -23.1179 C   0  0  0  0  0  0  0  0  0  0  0  0
   -6.9208   -7.9115  -22.7249 C   0  0  0  0  0  0  0  0  0  0  0  0
   -5.9276   -6.9314  -22.7525 C   0  0  0  0  0  0  0  0  0  0  0  0
   -6.2334   -5.6306  -23.1495 C   0  0  0  0  0  0  0  0  0  0  0  0
   -5.4333   -4.8875  -23.2157 H   0  0  0  0  0  0  0  0  0  0  0  0
   -4.9022   -7.1881  -22.4912 H   0  0  0  0  0  0  0  0  0  0  0  0
   -6.6736   -8.9271  -22.4243 H   0  0  0  0  0  0  0  0  0  0  0  0
   -9.0088   -8.3309  -23.1177 H   0  0  0  0  0  0  0  0  0  0  0  0
   -9.5114   -6.0543  -23.8817 H   0  0  0  0  0  0  0  0  0  0  0  0
   -8.8033   -3.8980  -24.5589 H   0  0  0  0  0  0  0  0  0  0  0  0
   -7.0995   -3.4138  -24.4699 H   0  0  0  0  0  0  0  0  0  0  0  0
   -9.0165   -3.4800  -22.1020 H   0  0  0  0  0  0  0  0  0  0  0  0
   -6.9535   -3.4750  -21.0126 H   0  0  0  0  0  0  0  0  0  0  0  0
   -6.1113   -2.6685  -22.3277 H   0  0  0  0  0  0  0  0  0  0  0  0
  -10.3264   -1.4620  -23.2690 C   0  0  0  0  0  0  0  0  0  0  0  0
  -11.1848   -2.1701  -22.4134 C   0  0  0  0  0  0  0  0  0  0  0  0
  -12.5576   -2.0143  -22.5023 C   0  0  0  0  0  0  0  0  0  0  0  0
  -13.5758   -2.8516  -21.3527 Cl  0  0  0  0  0  0  0  0  0  0  0  0
  -13.1308   -1.1984  -23.4803 C   0  0  0  0  0  0  0  0  0  0  0  0
  -12.2931   -0.4982  -24.3292 C   0  0  0  0  0  0  0  0  0  0  0  0
  -10.9037   -0.5851  -24.2020 C   0  0  0  0  0  0  0  0  0  0  0  0
  -10.0613    0.3814  -24.9841 C   0  0  0  0  0  0  0  0  0  0  0  0
  -10.5428    1.2852  -25.6658 O   0  0  0  0  0  0  0  0  0  0  0  0
  -12.7068    0.1487  -25.0959 H   0  0  0  0  0  0  0  0  0  0  0  0
  -14.2100   -1.0908  -23.5418 H   0  0  0  0  0  0  0  0  0  0  0  0
  -10.7994   -2.8246  -21.6385 H   0  0  0  0  0  0  0  0  0  0  0  0
   -7.0621   -0.8186  -24.1543 H   0  0  0  0  0  0  0  0  0  0  0  0
   -8.2281   -1.7280  -25.1539 H   0  0  0  0  0  0  0  0  0  0  0  0
   -8.3472    1.7489  -26.2269 H   0  0  0  0  0  0  0  0  0  0  0  0
   -6.8990    0.9559  -25.5907 H   0  0  0  0  0  0  0  0  0  0  0  0
   -9.5307    3.2244  -24.7826 H   0  0  0  0  0  0  0  0  0  0  0  0
   -7.6756    4.9665  -23.2999 H   0  0  0  0  0  0  0  0  0  0  0  0
   -8.7538    4.0373  -22.2635 H   0  0  0  0  0  0  0  0  0  0  0  0
   -9.4385    5.1649  -23.4721 H   0  0  0  0  0  0  0  0  0  0  0  0
  1  2  1  0
  2  3  1  0
  3  4  2  0
  3  5  1  0
  5  6  1  0
  6  7  1  0
  8  7  1  6
  8  9  1  0
  9 10  2  0
  9 11  1  0
 11 12  1  0
 12 13  2  0
 13 14  1  0
 14 15  2  0
 15 16  1  0
 16 17  2  0
 17 18  1  0
 18 19  2  0
 19 20  1  0
 20 21  2  0
 20 22  1  0
 19 23  1  0
 18 24  1  0
 17 25  1  0
 15 26  1  0
 13 27  1  0
 11 28  1  0
 28 29  1  0
 29 30  1  0
 30 31  1  0
 31 32  2  0
 32 33  1  0
 33 34  2  0
 34 35  1  0
 35 36  2  0
 36 37  1  0
 35 38  1  0
 34 39  1  0
 33 40  1  0
 32 41  1  0
 30 42  1  0
 30 43  1  0
 29 44  1  1
 28 45  1  0
 28 46  1  0
  8 47  1  0
 47 48  2  0
 48 49  1  0
 49 50  1  0
 49 51  2  0
 51 52  1  0
 52 53  2  0
 53 54  1  0
 54 55  2  0
 52 56  1  0
 51 57  1  0
 48 58  1  0
  7 59  1  0
  7 60  1  0
  5 61  1  0
  5 62  1  0
  2 63  1  0
  1 64  1  0
  1 65  1  0
  1 66  1  0
 54  6  1  0
 29  8  1  0
 36 31  1  0
 53 47  1  0
 21 12  1  0
 21 16  1  0
M  END
>  <cnnaffinities>  (21) 
[7.24671]

>  <score>  (21) 
7.24671

>  <index>  (21) 
20

>  <Smiles>  (21) 
C(N(C(=O)C(N1C([C@@]2(C(=O)N(c3c(nc(c4c(c(c(c(c34)[H])[H])[H])[H])[H])[H])C([C@@]2(C(c2c(c(c(c(c2[H])[H])[H])[H])[H])([H])[H])[H])([H])[H])c2c(c(Cl)c(c(c2C1=O)[H])[H])[H])([H])[H])([H])[H])[H])([H])([H])[H]

>  <h>  (21) 
<NA>

>  <Training>  (21) 
True

>  <Success>  (21) 
True

>  <enamine_searched>  (21) 
False

>  <enamine_id>  (21) 
nan

$$$$

     RDKit          3D

 63 68  0  0  0  0  0  0  0  0999 V2000
  -10.2935   -2.7446  -22.1868 C   0  0  0  0  0  0  0  0  0  0  0  0
   -9.0938   -1.9406  -22.7017 C   0  0  1  0  0  0  0  0  0  0  0  0
   -8.6066   -0.9379  -21.6355 C   0  0  0  0  0  0  0  0  0  0  0  0
   -7.3505   -1.4822  -21.1809 N   0  0  0  0  0  0  0  0  0  0  0  0
   -6.5729   -0.8663  -20.1766 C   0  0  0  0  0  0  0  0  0  0  0  0
   -6.9147   -1.0573  -18.8640 C   0  0  0  0  0  0  0  0  0  0  0  0
   -6.2412   -0.5383  -17.8108 N   0  0  0  0  0  0  0  0  0  0  0  0
   -5.2023    0.2141  -18.0888 C   0  0  0  0  0  0  0  0  0  0  0  0
   -4.7557    0.5102  -19.4095 C   0  0  0  0  0  0  0  0  0  0  0  0
   -3.6380    1.3520  -19.6347 C   0  0  0  0  0  0  0  0  0  0  0  0
   -3.2454    1.6526  -20.9083 C   0  0  0  0  0  0  0  0  0  0  0  0
   -3.9503    1.1269  -22.0147 C   0  0  0  0  0  0  0  0  0  0  0  0
   -5.0315    0.2982  -21.8308 C   0  0  0  0  0  0  0  0  0  0  0  0
   -5.4582   -0.0343  -20.5073 C   0  0  0  0  0  0  0  0  0  0  0  0
   -5.5580   -0.0968  -22.7020 H   0  0  0  0  0  0  0  0  0  0  0  0
   -3.6302    1.3894  -23.0191 H   0  0  0  0  0  0  0  0  0  0  0  0
   -2.3971    2.3099  -21.0767 H   0  0  0  0  0  0  0  0  0  0  0  0
   -3.1215    1.7574  -18.7692 H   0  0  0  0  0  0  0  0  0  0  0  0
   -4.6534    0.6383  -17.2486 H   0  0  0  0  0  0  0  0  0  0  0  0
   -7.7737   -1.6848  -18.6299 H   0  0  0  0  0  0  0  0  0  0  0  0
   -6.8554   -2.5252  -21.9252 C   0  0  0  0  0  0  0  0  0  0  0  0
   -5.8247   -3.1116  -21.6775 O   0  0  0  0  0  0  0  0  0  0  0  0
   -7.8314   -2.7816  -23.0899 C   0  0  1  0  0  0  0  0  0  0  0  0
   -8.1379   -4.2900  -23.2030 C   0  0  0  0  0  0  0  0  0  0  0  0
   -7.0205   -5.0427  -23.7494 N   0  0  0  0  0  0  0  0  0  0  0  0
   -6.6813   -6.3286  -23.1695 C   0  0  0  0  0  0  0  0  0  0  0  0
   -7.7318   -7.3873  -23.4960 C   0  0  0  0  0  0  0  0  0  0  0  0
   -8.4390   -7.8974  -22.6433 O   0  0  0  0  0  0  0  0  0  0  0  0
   -7.8442   -7.6572  -24.8359 N   0  0  0  0  0  0  0  0  0  0  0  0
   -9.1565   -7.9809  -25.3725 C   0  0  0  0  0  0  0  0  0  0  0  0
  -10.0007   -6.7526  -25.6428 C   0  0  0  0  0  0  0  0  0  0  0  0
   -9.8678   -5.9025  -26.8750 C   0  0  0  0  0  0  0  0  0  0  0  0
  -11.0556   -6.8064  -26.6962 C   0  0  0  0  0  0  0  0  0  0  0  0
  -12.0408   -6.3776  -26.5100 H   0  0  0  0  0  0  0  0  0  0  0  0
  -11.0583   -7.7185  -27.2813 H   0  0  0  0  0  0  0  0  0  0  0  0
  -10.0720   -4.8387  -26.7748 H   0  0  0  0  0  0  0  0  0  0  0  0
   -9.1512   -6.1439  -27.6548 H   0  0  0  0  0  0  0  0  0  0  0  0
  -10.2322   -6.1710  -24.7461 H   0  0  0  0  0  0  0  0  0  0  0  0
   -9.0362   -8.5632  -26.2917 H   0  0  0  0  0  0  0  0  0  0  0  0
   -9.6593   -8.6290  -24.6515 H   0  0  0  0  0  0  0  0  0  0  0  0
   -7.2211   -7.1601  -25.4592 H   0  0  0  0  0  0  0  0  0  0  0  0
   -6.5996   -6.2114  -22.0878 H   0  0  0  0  0  0  0  0  0  0  0  0
   -5.7141   -6.6220  -23.5859 H   0  0  0  0  0  0  0  0  0  0  0  0
   -6.3825   -4.6535  -24.8857 C   0  0  0  0  0  0  0  0  0  0  0  0
   -5.7078   -5.4368  -25.5518 O   0  0  0  0  0  0  0  0  0  0  0  0
   -6.5326   -3.2155  -25.2485 C   0  0  0  0  0  0  0  0  0  0  0  0
   -5.9499   -2.7957  -26.4422 C   0  0  0  0  0  0  0  0  0  0  0  0
   -6.0115   -1.4753  -26.8292 C   0  0  0  0  0  0  0  0  0  0  0  0
   -6.6573   -0.5868  -25.9792 C   0  0  0  0  0  0  0  0  0  0  0  0
   -6.7291    0.7025  -26.3508 F   0  0  0  0  0  0  0  0  0  0  0  0
   -7.2387   -0.9736  -24.7849 C   0  0  0  0  0  0  0  0  0  0  0  0
   -7.2039   -2.3209  -24.4043 C   0  0  0  0  0  0  0  0  0  0  0  0
   -7.7339   -0.2163  -24.1857 H   0  0  0  0  0  0  0  0  0  0  0  0
   -5.5718   -1.1227  -27.7554 H   0  0  0  0  0  0  0  0  0  0  0  0
   -5.4480   -3.5463  -27.0403 H   0  0  0  0  0  0  0  0  0  0  0  0
   -9.0311   -4.4019  -23.8343 H   0  0  0  0  0  0  0  0  0  0  0  0
   -8.3756   -4.7078  -22.2262 H   0  0  0  0  0  0  0  0  0  0  0  0
   -9.3010   -0.8536  -20.7974 H   0  0  0  0  0  0  0  0  0  0  0  0
   -8.4797    0.0769  -22.0389 H   0  0  0  0  0  0  0  0  0  0  0  0
   -9.4414   -1.4101  -23.5948 H   0  0  0  0  0  0  0  0  0  0  0  0
  -10.0359   -3.3368  -21.3026 H   0  0  0  0  0  0  0  0  0  0  0  0
  -11.1095   -2.0693  -21.9142 H   0  0  0  0  0  0  0  0  0  0  0  0
  -10.6794   -3.4199  -22.9554 H   0  0  0  0  0  0  0  0  0  0  0  0
  1  2  1  0
  2  3  1  0
  3  4  1  0
  4  5  1  0
  5  6  2  0
  6  7  1  0
  7  8  2  0
  8  9  1  0
  9 10  2  0
 10 11  1  0
 11 12  2  0
 12 13  1  0
 13 14  2  0
 13 15  1  0
 12 16  1  0
 11 17  1  0
 10 18  1  0
  8 19  1  0
  6 20  1  0
  4 21  1  0
 21 22  2  0
 21 23  1  0
 23 24  1  6
 24 25  1  0
 25 26  1  0
 26 27  1  0
 27 28  2  0
 27 29  1  0
 29 30  1  0
 30 31  1  0
 31 32  1  0
 32 33  1  0
 33 34  1  0
 33 35  1  0
 32 36  1  0
 32 37  1  0
 31 38  1  0
 30 39  1  0
 30 40  1  0
 29 41  1  0
 26 42  1  0
 26 43  1  0
 25 44  1  0
 44 45  2  0
 44 46  1  0
 46 47  2  0
 47 48  1  0
 48 49  2  0
 49 50  1  0
 49 51  1  0
 51 52  2  0
 51 53  1  0
 48 54  1  0
 47 55  1  0
 24 56  1  0
 24 57  1  0
  3 58  1  0
  3 59  1  0
  2 60  1  6
  1 61  1  0
  1 62  1  0
  1 63  1  0
 23  2  1  0
 33 31  1  0
 52 46  1  0
 14  5  1  0
 52 23  1  0
 14  9  1  0
M  END
>  <cnnaffinities>  (22) 
[7.01856, 6.823]

>  <score>  (22) 
7.01856

>  <index>  (22) 
21

>  <Smiles>  (22) 
C([C@]1(C(N(c2c(nc(c3c(c(c(c(c23)[H])[H])[H])[H])[H])[H])C(=O)[C@]21C(N(C(C(=O)N(C(C1(C(C1([H])[H])([H])[H])[H])([H])[H])[H])([H])[H])C(=O)c1c(c(c(F)c(c21)[H])[H])[H])([H])[H])([H])[H])[H])([H])([H])[H]

>  <h>  (22) 
<NA>

>  <Training>  (22) 
True

>  <Success>  (22) 
True

>  <enamine_searched>  (22) 
False

>  <enamine_id>  (22) 
nan

$$$$

     RDKit          3D

 68 73  0  0  0  0  0  0  0  0999 V2000
  -10.4346    1.6515  -27.0577 C   0  0  0  0  0  0  0  0  0  0  0  0
   -9.7824    0.5180  -26.4360 N   0  0  0  0  0  0  0  0  0  0  0  0
  -10.1813   -0.7473  -26.7402 C   0  0  0  0  0  0  0  0  0  0  0  0
  -11.0862   -0.9610  -27.5289 O   0  0  0  0  0  0  0  0  0  0  0  0
   -9.3888   -1.8667  -26.0462 C   0  0  0  0  0  0  0  0  0  0  0  0
   -9.6871   -2.0109  -24.6250 N   0  0  0  0  0  0  0  0  0  0  0  0
   -8.8987   -1.2784  -23.6276 C   0  0  0  0  0  0  0  0  0  0  0  0
   -8.7533   -2.0213  -22.2586 C   0  0  2  0  0  0  0  0  0  0  0  0
   -8.1304   -1.0644  -21.2503 C   0  0  0  0  0  0  0  0  0  0  0  0
   -8.7041   -0.1422  -20.7067 O   0  0  0  0  0  0  0  0  0  0  0  0
   -6.8156   -1.4137  -21.0523 N   0  0  0  0  0  0  0  0  0  0  0  0
   -6.0736   -0.8241  -20.0012 C   0  0  0  0  0  0  0  0  0  0  0  0
   -6.4238   -1.0773  -18.6998 C   0  0  0  0  0  0  0  0  0  0  0  0
   -5.8096   -0.5325  -17.6234 N   0  0  0  0  0  0  0  0  0  0  0  0
   -4.8299    0.3093  -17.8534 C   0  0  0  0  0  0  0  0  0  0  0  0
   -4.3512    0.6431  -19.1526 C   0  0  0  0  0  0  0  0  0  0  0  0
   -3.2922    1.5660  -19.3538 C   0  0  0  0  0  0  0  0  0  0  0  0
   -2.8595    1.8579  -20.6176 C   0  0  0  0  0  0  0  0  0  0  0  0
   -3.4575    1.2401  -21.7374 C   0  0  0  0  0  0  0  0  0  0  0  0
   -4.4891    0.3484  -21.5694 C   0  0  0  0  0  0  0  0  0  0  0  0
   -4.9687    0.0388  -20.2705 C   0  0  0  0  0  0  0  0  0  0  0  0
   -4.9552   -0.1113  -22.4346 H   0  0  0  0  0  0  0  0  0  0  0  0
   -3.1070    1.4788  -22.7368 H   0  0  0  0  0  0  0  0  0  0  0  0
   -2.0568    2.5733  -20.7724 H   0  0  0  0  0  0  0  0  0  0  0  0
   -2.8500    2.0407  -18.4831 H   0  0  0  0  0  0  0  0  0  0  0  0
   -4.3605    0.7689  -16.9839 H   0  0  0  0  0  0  0  0  0  0  0  0
   -7.2458   -1.7559  -18.4833 H   0  0  0  0  0  0  0  0  0  0  0  0
   -6.4051   -2.5811  -21.8102 C   0  0  0  0  0  0  0  0  0  0  0  0
   -7.7275   -3.2085  -22.2858 C   0  0  2  0  0  0  0  0  0  0  0  0
   -7.4936   -3.9670  -23.5963 C   0  0  0  0  0  0  0  0  0  0  0  0
   -8.5767   -4.8492  -23.9470 N   0  0  0  0  0  0  0  0  0  0  0  0
   -8.7488   -5.3448  -25.2166 C   0  0  0  0  0  0  0  0  0  0  0  0
   -9.9629   -5.9644  -25.5681 C   0  0  0  0  0  0  0  0  0  0  0  0
  -10.1475   -6.4909  -26.8393 C   0  0  0  0  0  0  0  0  0  0  0  0
   -9.1486   -6.4115  -27.8055 C   0  0  0  0  0  0  0  0  0  0  0  0
   -7.9505   -5.7906  -27.4697 C   0  0  0  0  0  0  0  0  0  0  0  0
   -7.7446   -5.2642  -26.1990 C   0  0  0  0  0  0  0  0  0  0  0  0
   -6.7933   -4.7912  -25.9721 H   0  0  0  0  0  0  0  0  0  0  0  0
   -7.1568   -5.7105  -28.2096 H   0  0  0  0  0  0  0  0  0  0  0  0
   -9.3052   -6.8275  -28.7973 H   0  0  0  0  0  0  0  0  0  0  0  0
  -11.0935   -6.9706  -27.0825 H   0  0  0  0  0  0  0  0  0  0  0  0
  -10.7870   -5.9828  -24.8612 H   0  0  0  0  0  0  0  0  0  0  0  0
   -9.3590   -4.9486  -23.3243 H   0  0  0  0  0  0  0  0  0  0  0  0
   -6.5564   -4.5366  -23.5037 H   0  0  0  0  0  0  0  0  0  0  0  0
   -7.3304   -3.2496  -24.4113 H   0  0  0  0  0  0  0  0  0  0  0  0
   -8.0722   -3.9232  -21.5303 H   0  0  0  0  0  0  0  0  0  0  0  0
   -5.8190   -3.2638  -21.1838 H   0  0  0  0  0  0  0  0  0  0  0  0
   -5.7776   -2.2948  -22.6708 H   0  0  0  0  0  0  0  0  0  0  0  0
  -10.1314   -2.3998  -21.7218 C   0  0  0  0  0  0  0  0  0  0  0  0
  -10.5998   -3.6324  -22.0285 C   0  0  0  0  0  0  0  0  0  0  0  0
  -13.1288   -2.6656  -21.4791 C   0  0  0  0  0  0  0  0  0  0  0  0
  -14.3898   -4.7770  -21.3226 Cl  0  0  0  0  0  0  0  0  0  0  0  0
  -13.2753   -2.8870  -21.4699 C   0  0  0  0  0  0  0  0  0  0  0  0
  -12.7038   -2.5605  -22.7777 C   0  0  0  0  0  0  0  0  0  0  0  0
  -11.2409   -2.8794  -22.9424 C   0  0  0  0  0  0  0  0  0  0  0  0
  -10.8012   -2.7678  -24.3352 C   0  0  0  0  0  0  0  0  0  0  0  0
  -11.4027   -3.3558  -25.2179 O   0  0  0  0  0  0  0  0  0  0  0  0
  -13.1581   -1.9691  -23.5855 H   0  0  0  0  0  0  0  0  0  0  0  0
  -13.5033   -2.3911  -20.3435 H   0  0  0  0  0  0  0  0  0  0  0  0
  -10.6968   -1.8557  -20.9474 H   0  0  0  0  0  0  0  0  0  0  0  0
   -7.8948   -1.0960  -24.0301 H   0  0  0  0  0  0  0  0  0  0  0  0
   -9.3425   -0.2950  -23.4210 H   0  0  0  0  0  0  0  0  0  0  0  0
   -8.3141   -1.6840  -26.1635 H   0  0  0  0  0  0  0  0  0  0  0  0
   -9.6485   -2.7996  -26.5498 H   0  0  0  0  0  0  0  0  0  0  0  0
   -9.0670    0.6866  -25.7464 H   0  0  0  0  0  0  0  0  0  0  0  0
  -11.4479    1.7948  -26.6663 H   0  0  0  0  0  0  0  0  0  0  0  0
   -9.8484    2.5523  -26.8630 H   0  0  0  0  0  0  0  0  0  0  0  0
  -10.5056    1.4925  -28.1379 H   0  0  0  0  0  0  0  0  0  0  0  0
  1  2  1  0
  2  3  1  0
  3  4  2  0
  3  5  1  0
  5  6  1  0
  6  7  1  0
  8  7  1  6
  8  9  1  0
  9 10  2  0
  9 11  1  0
 11 12  1  0
 12 13  2  0
 13 14  1  0
 14 15  2  0
 15 16  1  0
 16 17  2  0
 17 18  1  0
 18 19  2  0
 19 20  1  0
 20 21  2  0
 20 22  1  0
 19 23  1  0
 18 24  1  0
 17 25  1  0
 15 26  1  0
 13 27  1  0
 11 28  1  0
 28 29  1  0
 29 30  1  0
 30 31  1  0
 31 32  1  0
 32 33  2  0
 33 34  1  0
 34 35  2  0
 35 36  1  0
 36 37  2  0
 37 38  1  0
 36 39  1  0
 35 40  1  0
 34 41  1  0
 33 42  1  0
 31 43  1  0
 30 44  1  0
 30 45  1  0
 29 46  1  1
 28 47  1  0
 28 48  1  0
  8 49  1  0
 49 50  2  0
 50 51  1  0
 51 52  1  0
 51 53  2  0
 53 54  1  0
 54 55  2  0
 55 56  1  0
 56 57  2  0
 54 58  1  0
 53 59  1  0
 50 60  1  0
  7 61  1  0
  7 62  1  0
  5 63  1  0
  5 64  1  0
  2 65  1  0
  1 66  1  0
  1 67  1  0
  1 68  1  0
 56  6  1  0
 29  8  1  0
 37 32  1  0
 55 49  1  0
 21 12  1  0
 21 16  1  0
M  END
>  <cnnaffinities>  (23) 
[7.32608]

>  <score>  (23) 
7.32608

>  <index>  (23) 
23

>  <Smiles>  (23) 
C(N(C(=O)C(N1C([C@@]2(C(=O)N(c3c(nc(c4c(c(c(c(c34)[H])[H])[H])[H])[H])[H])C([C@@]2(C(N(c2c(c(c(c(c2[H])[H])[H])[H])[H])[H])([H])[H])[H])([H])[H])c2c(c(Cl)c(c(c2C1=O)[H])[H])[H])([H])[H])([H])[H])[H])([H])([H])[H]

>  <h>  (23) 
<NA>

>  <Training>  (23) 
True

>  <Success>  (23) 
True

>  <enamine_searched>  (23) 
False

>  <enamine_id>  (23) 
nan

$$$$

     RDKit          3D

 65 70  0  0  0  0  0  0  0  0999 V2000
   -6.1632   -8.0306  -25.2623 O   0  0  0  0  0  0  0  0  0  0  0  0
   -6.0296   -7.3523  -24.2546 C   0  0  0  0  0  0  0  0  0  0  0  0
   -7.1861   -6.5946  -23.5933 C   0  0  0  0  0  0  0  0  0  0  0  0
   -7.0859   -5.1011  -23.7860 N   0  0  1  0  0  4  0  0  0  0  0  0
   -7.2677   -4.7531  -25.2788 C   0  0  0  0  0  0  0  0  0  0  0  0
   -7.2098   -3.2682  -25.5140 C   0  0  0  0  0  0  0  0  0  0  0  0
   -6.8452   -2.7854  -26.7687 C   0  0  0  0  0  0  0  0  0  0  0  0
   -6.7766   -1.4254  -27.0358 C   0  0  0  0  0  0  0  0  0  0  0  0
   -7.0854   -0.5320  -26.0155 C   0  0  0  0  0  0  0  0  0  0  0  0
   -6.9901    1.1820  -26.3170 Cl  0  0  0  0  0  0  0  0  0  0  0  0
   -7.4674   -0.9865  -24.7632 C   0  0  0  0  0  0  0  0  0  0  0  0
   -7.5452   -2.3612  -24.5054 C   0  0  0  0  0  0  0  0  0  0  0  0
   -7.9442   -2.8151  -23.1131 C   0  0  2  0  0  0  0  0  0  0  0  0
   -9.1881   -2.0942  -22.5687 C   0  0  0  0  0  0  0  0  0  0  0  0
   -8.7209   -1.1434  -21.4591 C   0  0  0  0  0  0  0  0  0  0  0  0
   -7.3213   -1.4877  -21.2382 N   0  0  0  0  0  0  0  0  0  0  0  0
   -6.5535   -0.8870  -20.1971 C   0  0  0  0  0  0  0  0  0  0  0  0
   -6.8942   -1.0640  -18.8768 C   0  0  0  0  0  0  0  0  0  0  0  0
   -6.2165   -0.5400  -17.8227 N   0  0  0  0  0  0  0  0  0  0  0  0
   -5.1771    0.2139  -18.0874 C   0  0  0  0  0  0  0  0  0  0  0  0
   -4.7348    0.5214  -19.4034 C   0  0  0  0  0  0  0  0  0  0  0  0
   -3.6135    1.3635  -19.6341 C   0  0  0  0  0  0  0  0  0  0  0  0
   -3.2270    1.6684  -20.9086 C   0  0  0  0  0  0  0  0  0  0  0  0
   -3.9501    1.1540  -22.0083 C   0  0  0  0  0  0  0  0  0  0  0  0
   -5.0336    0.3349  -21.8156 C   0  0  0  0  0  0  0  0  0  0  0  0
   -5.4464   -0.0244  -20.5010 C   0  0  0  0  0  0  0  0  0  0  0  0
   -5.5788   -0.0474  -22.6773 H   0  0  0  0  0  0  0  0  0  0  0  0
   -3.6411    1.4035  -23.0186 H   0  0  0  0  0  0  0  0  0  0  0  0
   -2.3707    2.3142  -21.0860 H   0  0  0  0  0  0  0  0  0  0  0  0
   -3.0834    1.7622  -18.7713 H   0  0  0  0  0  0  0  0  0  0  0  0
   -4.6284    0.6195  -17.2352 H   0  0  0  0  0  0  0  0  0  0  0  0
   -7.7497   -1.6800  -18.6008 H   0  0  0  0  0  0  0  0  0  0  0  0
   -6.8398   -2.4382  -22.1169 C   0  0  0  0  0  0  0  0  0  0  0  0
   -5.7442   -2.9699  -22.1249 O   0  0  0  0  0  0  0  0  0  0  0  0
   -9.2971   -1.3408  -20.5614 H   0  0  0  0  0  0  0  0  0  0  0  0
   -8.8490   -0.0799  -21.7135 H   0  0  0  0  0  0  0  0  0  0  0  0
   -9.8630   -2.8387  -22.1357 H   0  0  0  0  0  0  0  0  0  0  0  0
   -9.7507   -1.5833  -23.3544 H   0  0  0  0  0  0  0  0  0  0  0  0
   -8.1496   -4.3366  -23.0172 C   0  0  0  0  0  0  0  0  0  0  0  0
   -8.1295   -4.6157  -21.9613 H   0  0  0  0  0  0  0  0  0  0  0  0
   -9.1300   -4.5931  -23.4294 H   0  0  0  0  0  0  0  0  0  0  0  0
   -7.7010   -0.2564  -23.9896 H   0  0  0  0  0  0  0  0  0  0  0  0
   -6.4838   -1.0505  -28.0117 H   0  0  0  0  0  0  0  0  0  0  0  0
   -6.5986   -3.4915  -27.5561 H   0  0  0  0  0  0  0  0  0  0  0  0
   -6.5075   -5.2721  -25.8617 H   0  0  0  0  0  0  0  0  0  0  0  0
   -8.2373   -5.1560  -25.6011 H   0  0  0  0  0  0  0  0  0  0  0  0
   -6.1652   -4.7193  -23.4585 H   0  0  0  0  0  0  0  0  0  0  0  0
   -7.2466   -6.8050  -22.5199 H   0  0  0  0  0  0  0  0  0  0  0  0
   -8.1079   -6.9636  -24.0503 H   0  0  0  0  0  0  0  0  0  0  0  0
   -4.8268   -7.1916  -23.6463 N   0  0  0  0  0  0  0  0  0  0  0  0
   -3.6677   -7.8678  -24.2079 C   0  0  0  0  0  0  0  0  0  0  0  0
   -2.4043   -7.5804  -23.4071 C   0  0  1  0  0  0  0  0  0  0  0  0
   -1.0883   -8.0432  -24.0960 C   0  0  0  0  0  0  0  0  0  0  0  0
   -0.6185   -6.5771  -24.2034 C   0  0  1  0  0  0  0  0  0  0  0  0
   -0.5027   -6.1211  -25.5098 F   0  0  0  0  0  0  0  0  0  0  0  0
   -1.9111   -6.1094  -23.5049 C   0  0  0  0  0  0  0  0  0  0  0  0
   -1.7826   -5.5682  -22.5590 H   0  0  0  0  0  0  0  0  0  0  0  0
   -2.5445   -5.5170  -24.1709 H   0  0  0  0  0  0  0  0  0  0  0  0
    0.3323   -6.3279  -23.7170 H   0  0  0  0  0  0  0  0  0  0  0  0
   -1.2209   -8.5289  -25.0699 H   0  0  0  0  0  0  0  0  0  0  0  0
   -0.4524   -8.6950  -23.4895 H   0  0  0  0  0  0  0  0  0  0  0  0
   -2.5379   -7.9491  -22.3775 H   0  0  0  0  0  0  0  0  0  0  0  0
   -3.5551   -7.5235  -25.2480 H   0  0  0  0  0  0  0  0  0  0  0  0
   -3.8688   -8.9472  -24.2640 H   0  0  0  0  0  0  0  0  0  0  0  0
   -4.7912   -6.7078  -22.7622 H   0  0  0  0  0  0  0  0  0  0  0  0
  1  2  2  0
  2  3  1  0
  3  4  1  0
  4  5  1  0
  5  6  1  0
  6  7  2  0
  7  8  1  0
  8  9  2  0
  9 10  1  0
  9 11  1  0
 11 12  2  0
 12 13  1  0
 13 14  1  1
 14 15  1  0
 15 16  1  0
 16 17  1  0
 17 18  2  0
 18 19  1  0
 19 20  2  0
 20 21  1  0
 21 22  2  0
 22 23  1  0
 23 24  2  0
 24 25  1  0
 25 26  2  0
 25 27  1  0
 24 28  1  0
 23 29  1  0
 22 30  1  0
 20 31  1  0
 18 32  1  0
 16 33  1  0
 33 34  2  0
 15 35  1  0
 15 36  1  0
 14 37  1  0
 14 38  1  0
 13 39  1  0
 39 40  1  0
 39 41  1  0
 11 42  1  0
  8 43  1  0
  7 44  1  0
  5 45  1  0
  5 46  1  0
  4 47  1  1
  3 48  1  0
  3 49  1  0
  2 50  1  0
 50 51  1  0
 51 52  1  0
 52 53  1  0
 53 54  1  0
 54 55  1  0
 54 56  1  0
 56 57  1  0
 56 58  1  0
 54 59  1  1
 53 60  1  0
 53 61  1  0
 52 62  1  1
 51 63  1  0
 51 64  1  0
 50 65  1  0
 39  4  1  0
 56 52  1  0
 12  6  1  0
 33 13  1  0
 26 17  1  0
 26 21  1  0
M  CHG  1   4   1
M  END
>  <cnnaffinities>  (24) 
[6.5381, 6.23262, 6.38326]

>  <score>  (24) 
6.5381

>  <index>  (24) 
24

>  <Smiles>  (24) 
O=C(C([N@+]1(C(c2c(c(c(Cl)c(c2[C@@]2(C(C(N(c3c(nc(c4c(c(c(c(c34)[H])[H])[H])[H])[H])[H])C2=O)([H])[H])([H])[H])C1([H])[H])[H])[H])[H])([H])[H])[H])([H])[H])N(C([C@]1(C([C@@](F)(C1([H])[H])[H])([H])[H])[H])([H])[H])[H]

>  <h>  (24) 
<NA>

>  <Training>  (24) 
True

>  <Success>  (24) 
True

>  <enamine_searched>  (24) 
False

>  <enamine_id>  (24) 
nan

$$$$

     RDKit          3D

 70 75  0  0  0  0  0  0  0  0999 V2000
   -8.1257   -6.6829  -24.3884 O   0  0  0  0  0  0  0  0  0  0  0  0
   -8.0828   -6.0615  -23.3440 C   0  0  0  0  0  0  0  0  0  0  0  0
   -9.1626   -5.0787  -22.9099 C   0  0  0  0  0  0  0  0  0  0  0  0
   -8.7473   -3.6716  -23.1635 N   0  0  1  0  0  4  0  0  0  0  0  0
   -8.4021   -3.4245  -24.6421 C   0  0  0  0  0  0  0  0  0  0  0  0
   -8.0082   -1.9866  -24.8681 C   0  0  0  0  0  0  0  0  0  0  0  0
   -7.2097   -1.6012  -25.9501 C   0  0  0  0  0  0  0  0  0  0  0  0
   -6.9005   -0.2636  -26.1790 C   0  0  0  0  0  0  0  0  0  0  0  0
   -7.3743    0.6989  -25.2921 C   0  0  0  0  0  0  0  0  0  0  0  0
   -6.9983    2.3837  -25.5297 Cl  0  0  0  0  0  0  0  0  0  0  0  0
   -8.1519    0.3344  -24.2079 C   0  0  0  0  0  0  0  0  0  0  0  0
   -8.4819   -1.0048  -24.0055 C   0  0  0  0  0  0  0  0  0  0  0  0
   -9.3400   -1.2841  -22.8020 C   0  0  2  0  0  0  0  0  0  0  0  0
   -8.6325   -0.8391  -21.5187 C   0  0  0  0  0  0  0  0  0  0  0  0
   -9.0881   -0.0204  -20.7474 O   0  0  0  0  0  0  0  0  0  0  0  0
   -7.4257   -1.4527  -21.2481 N   0  0  0  0  0  0  0  0  0  0  0  0
   -6.6138   -0.9148  -20.2177 C   0  0  0  0  0  0  0  0  0  0  0  0
   -6.9450   -1.1287  -18.9087 C   0  0  0  0  0  0  0  0  0  0  0  0
   -6.2622   -0.6220  -17.8533 N   0  0  0  0  0  0  0  0  0  0  0  0
   -5.2287    0.1442  -18.1103 C   0  0  0  0  0  0  0  0  0  0  0  0
   -4.7834    0.4581  -19.4242 C   0  0  0  0  0  0  0  0  0  0  0  0
   -3.6696    1.3082  -19.6457 C   0  0  0  0  0  0  0  0  0  0  0  0
   -3.2856    1.6258  -20.9202 C   0  0  0  0  0  0  0  0  0  0  0  0
   -3.9982    1.1011  -22.0284 C   0  0  0  0  0  0  0  0  0  0  0  0
   -5.0712    0.2657  -21.8381 C   0  0  0  0  0  0  0  0  0  0  0  0
   -5.4881   -0.0817  -20.5231 C   0  0  0  0  0  0  0  0  0  0  0  0
   -5.6110   -0.1283  -22.6960 H   0  0  0  0  0  0  0  0  0  0  0  0
   -3.6935    1.3716  -23.0387 H   0  0  0  0  0  0  0  0  0  0  0  0
   -2.4448    2.2948  -21.0914 H   0  0  0  0  0  0  0  0  0  0  0  0
   -3.1545    1.7164  -18.7783 H   0  0  0  0  0  0  0  0  0  0  0  0
   -4.6856    0.5567  -17.2577 H   0  0  0  0  0  0  0  0  0  0  0  0
   -7.8111   -1.7383  -18.6620 H   0  0  0  0  0  0  0  0  0  0  0  0
   -6.9521   -1.9107  -22.0083 H   0  0  0  0  0  0  0  0  0  0  0  0
   -9.8204   -2.7240  -22.7006 C   0  0  0  0  0  0  0  0  0  0  0  0
  -10.7014   -2.8951  -23.3311 H   0  0  0  0  0  0  0  0  0  0  0  0
  -10.0811   -2.9610  -21.6665 H   0  0  0  0  0  0  0  0  0  0  0  0
  -10.2181   -0.6515  -22.8960 H   0  0  0  0  0  0  0  0  0  0  0  0
   -8.5435    1.0850  -23.5270 H   0  0  0  0  0  0  0  0  0  0  0  0
   -6.2813    0.0351  -27.0208 H   0  0  0  0  0  0  0  0  0  0  0  0
   -6.8393   -2.3536  -26.6430 H   0  0  0  0  0  0  0  0  0  0  0  0
   -7.6087   -4.1105  -24.9336 H   0  0  0  0  0  0  0  0  0  0  0  0
   -9.2861   -3.6944  -25.2280 H   0  0  0  0  0  0  0  0  0  0  0  0
   -7.8847   -3.4924  -22.6099 H   0  0  0  0  0  0  0  0  0  0  0  0
  -10.0825   -5.3180  -23.4490 H   0  0  0  0  0  0  0  0  0  0  0  0
   -9.3650   -5.1832  -21.8377 H   0  0  0  0  0  0  0  0  0  0  0  0
   -7.0493   -6.1450  -22.4535 N   0  0  0  0  0  0  0  0  0  0  0  0
   -5.8225   -6.7543  -22.7595 C   0  0  0  0  0  0  0  0  0  0  0  0
   -5.0802   -7.3507  -21.7448 C   0  0  0  0  0  0  0  0  0  0  0  0
   -3.8447   -7.8960  -22.0218 C   0  0  0  0  0  0  0  0  0  0  0  0
   -3.3286   -7.8393  -23.3157 C   0  0  0  0  0  0  0  0  0  0  0  0
   -2.0815   -8.4158  -23.6166 N   0  0  0  0  0  0  0  0  0  0  0  0
   -1.8902   -8.8492  -24.9903 C   0  0  0  0  0  0  0  0  0  0  0  0
   -0.6474   -9.7073  -25.1410 C   0  0  0  0  0  0  0  0  0  0  0  0
    0.4461   -9.1865  -24.4254 O   0  0  0  0  0  0  0  0  0  0  0  0
    0.1900   -9.1259  -23.0438 C   0  0  0  0  0  0  0  0  0  0  0  0
   -1.0595   -8.3338  -22.7007 C   0  0  0  0  0  0  0  0  0  0  0  0
   -1.1391   -7.6918  -21.6658 O   0  0  0  0  0  0  0  0  0  0  0  0
    1.0275   -8.6200  -22.5650 H   0  0  0  0  0  0  0  0  0  0  0  0
    0.1134  -10.1337  -22.6061 H   0  0  0  0  0  0  0  0  0  0  0  0
   -0.3577   -9.7446  -26.1943 H   0  0  0  0  0  0  0  0  0  0  0  0
   -0.8599  -10.7382  -24.8377 H   0  0  0  0  0  0  0  0  0  0  0  0
   -1.8357   -7.9662  -25.6366 H   0  0  0  0  0  0  0  0  0  0  0  0
   -2.7633   -9.4376  -25.2926 H   0  0  0  0  0  0  0  0  0  0  0  0
   -4.0903   -7.2671  -24.3331 C   0  0  0  0  0  0  0  0  0  0  0  0
   -5.3312   -6.7279  -24.0623 C   0  0  0  0  0  0  0  0  0  0  0  0
   -5.9186   -6.3002  -24.8639 H   0  0  0  0  0  0  0  0  0  0  0  0
   -3.7364   -7.2302  -25.3585 H   0  0  0  0  0  0  0  0  0  0  0  0
   -3.3050   -8.4150  -21.2388 H   0  0  0  0  0  0  0  0  0  0  0  0
   -5.4664   -7.3874  -20.7281 H   0  0  0  0  0  0  0  0  0  0  0  0
   -7.1419   -5.7026  -21.5492 H   0  0  0  0  0  0  0  0  0  0  0  0
  1  2  2  0
  2  3  1  0
  3  4  1  0
  4  5  1  0
  5  6  1  0
  6  7  2  0
  7  8  1  0
  8  9  2  0
  9 10  1  0
  9 11  1  0
 11 12  2  0
 12 13  1  0
 13 14  1  0
 14 15  2  0
 14 16  1  0
 16 17  1  0
 17 18  2  0
 18 19  1  0
 19 20  2  0
 20 21  1  0
 21 22  2  0
 22 23  1  0
 23 24  2  0
 24 25  1  0
 25 26  2  0
 25 27  1  0
 24 28  1  0
 23 29  1  0
 22 30  1  0
 20 31  1  0
 18 32  1  0
 16 33  1  0
 13 34  1  0
 34 35  1  0
 34 36  1  0
 13 37  1  6
 11 38  1  0
  8 39  1  0
  7 40  1  0
  5 41  1  0
  5 42  1  0
  4 43  1  1
  3 44  1  0
  3 45  1  0
  2 46  1  0
 46 47  1  0
 47 48  2  0
 48 49  1  0
 49 50  2  0
 50 51  1  0
 51 52  1  0
 52 53  1  0
 53 54  1  0
 54 55  1  0
 55 56  1  0
 56 57  2  0
 55 58  1  0
 55 59  1  0
 53 60  1  0
 53 61  1  0
 52 62  1  0
 52 63  1  0
 50 64  1  0
 64 65  2  0
 65 66  1  0
 64 67  1  0
 49 68  1  0
 48 69  1  0
 46 70  1  0
 34  4  1  0
 65 47  1  0
 12  6  1  0
 26 17  1  0
 56 51  1  0
 26 21  1  0
M  CHG  1   4   1
M  END
>  <cnnaffinities>  (25) 
[6.60794, 6.01903]

>  <score>  (25) 
6.60794

>  <index>  (25) 
25

>  <Smiles>  (25) 
O=C(C([N@+]1(C(c2c(c(c(Cl)c(c2[C@](C(=O)N(c2c(nc(c3c(c(c(c(c23)[H])[H])[H])[H])[H])[H])[H])(C1([H])[H])[H])[H])[H])[H])([H])[H])[H])([H])[H])N(c1c(c(c(N2C(C(OC(C2=O)([H])[H])([H])[H])([H])[H])c(c1[H])[H])[H])[H])[H]

>  <h>  (25) 
<NA>

>  <Training>  (25) 
True

>  <Success>  (25) 
True

>  <enamine_searched>  (25) 
False

>  <enamine_id>  (25) 
nan

$$$$

     RDKit          3D

 55 60  0  0  0  0  0  0  0  0999 V2000
  -10.2198   -1.0554  -23.6381 C   0  0  0  0  0  0  0  0  0  0  0  0
   -8.8534   -1.3642  -23.0326 C   0  0  1  0  0  0  0  0  0  0  0  0
   -8.3909   -0.4221  -21.9059 C   0  0  0  0  0  0  0  0  0  0  0  0
   -7.3872   -1.2185  -21.2181 N   0  0  0  0  0  0  0  0  0  0  0  0
   -6.5838   -0.7453  -20.1557 C   0  0  0  0  0  0  0  0  0  0  0  0
   -6.8808   -1.0469  -18.8525 C   0  0  0  0  0  0  0  0  0  0  0  0
   -6.2109   -0.5357  -17.7877 N   0  0  0  0  0  0  0  0  0  0  0  0
   -5.1977    0.2640  -18.0285 C   0  0  0  0  0  0  0  0  0  0  0  0
   -4.7436    0.6000  -19.3403 C   0  0  0  0  0  0  0  0  0  0  0  0
   -3.6069    1.4149  -19.5863 C   0  0  0  0  0  0  0  0  0  0  0  0
   -3.1905    1.6547  -20.8684 C   0  0  0  0  0  0  0  0  0  0  0  0
   -3.8823    1.0994  -21.9671 C   0  0  0  0  0  0  0  0  0  0  0  0
   -4.9923    0.3227  -21.7591 C   0  0  0  0  0  0  0  0  0  0  0  0
   -5.4489    0.0690  -20.4404 C   0  0  0  0  0  0  0  0  0  0  0  0
   -5.5159   -0.1299  -22.5945 H   0  0  0  0  0  0  0  0  0  0  0  0
   -3.5366    1.2815  -22.9802 H   0  0  0  0  0  0  0  0  0  0  0  0
   -2.3205    2.2772  -21.0575 H   0  0  0  0  0  0  0  0  0  0  0  0
   -3.0770    1.8421  -18.7408 H   0  0  0  0  0  0  0  0  0  0  0  0
   -4.6656    0.6654  -17.1632 H   0  0  0  0  0  0  0  0  0  0  0  0
   -7.7038   -1.7212  -18.6192 H   0  0  0  0  0  0  0  0  0  0  0  0
   -7.4921   -2.5668  -21.4742 C   0  0  0  0  0  0  0  0  0  0  0  0
   -6.7583   -3.4092  -20.9971 O   0  0  0  0  0  0  0  0  0  0  0  0
   -8.6829   -2.7930  -22.4130 C   0  0  1  0  0  0  0  0  0  0  0  0
   -9.8927   -3.2119  -21.5184 C   0  0  0  0  0  0  0  0  0  0  0  0
  -11.0420   -3.6848  -22.2727 N   0  0  0  0  0  0  0  0  0  0  0  0
  -12.3997   -3.6337  -21.7243 C   0  0  0  0  0  0  0  0  0  0  0  0
  -13.2738   -2.5270  -22.2490 C   0  0  0  0  0  0  0  0  0  0  0  0
  -14.1217   -1.6383  -21.5683 C   0  0  0  0  0  0  0  0  0  0  0  0
  -14.7936   -0.9083  -22.4531 N   0  0  0  0  0  0  0  0  0  0  0  0
  -14.3736   -1.3853  -23.6085 N   0  0  0  0  0  0  0  0  0  0  0  0
  -13.4570   -2.3368  -23.5521 N   0  0  0  0  0  0  0  0  0  0  0  0
  -14.6345   -0.9704  -24.4906 H   0  0  0  0  0  0  0  0  0  0  0  0
  -14.2441   -1.4719  -20.5060 H   0  0  0  0  0  0  0  0  0  0  0  0
  -12.3997   -3.5912  -20.6348 H   0  0  0  0  0  0  0  0  0  0  0  0
  -12.8778   -4.5693  -22.0203 H   0  0  0  0  0  0  0  0  0  0  0  0
  -10.8416   -4.5306  -23.3237 C   0  0  0  0  0  0  0  0  0  0  0  0
  -11.7477   -5.1734  -23.8189 O   0  0  0  0  0  0  0  0  0  0  0  0
   -9.4604   -4.6742  -23.8624 C   0  0  0  0  0  0  0  0  0  0  0  0
   -9.2782   -5.6609  -24.8274 C   0  0  0  0  0  0  0  0  0  0  0  0
   -8.0397   -5.8752  -25.3908 C   0  0  0  0  0  0  0  0  0  0  0  0
   -6.9914   -5.0647  -24.9703 C   0  0  0  0  0  0  0  0  0  0  0  0
   -5.7823   -5.2811  -25.5139 F   0  0  0  0  0  0  0  0  0  0  0  0
   -7.1420   -4.0795  -24.0104 C   0  0  0  0  0  0  0  0  0  0  0  0
   -8.4069   -3.8731  -23.4331 C   0  0  0  0  0  0  0  0  0  0  0  0
   -6.2689   -3.5086  -23.7110 H   0  0  0  0  0  0  0  0  0  0  0  0
   -7.8771   -6.6483  -26.1338 H   0  0  0  0  0  0  0  0  0  0  0  0
  -10.1492   -6.2434  -25.1035 H   0  0  0  0  0  0  0  0  0  0  0  0
   -9.5355   -3.9910  -20.8324 H   0  0  0  0  0  0  0  0  0  0  0  0
  -10.2293   -2.3536  -20.9337 H   0  0  0  0  0  0  0  0  0  0  0  0
   -7.9619    0.5157  -22.2770 H   0  0  0  0  0  0  0  0  0  0  0  0
   -9.2151   -0.1753  -21.2203 H   0  0  0  0  0  0  0  0  0  0  0  0
   -8.1115   -1.2987  -23.8425 H   0  0  0  0  0  0  0  0  0  0  0  0
  -10.2471   -0.0420  -24.0488 H   0  0  0  0  0  0  0  0  0  0  0  0
  -10.4300   -1.7437  -24.4634 H   0  0  0  0  0  0  0  0  0  0  0  0
  -11.0335   -1.1554  -22.9123 H   0  0  0  0  0  0  0  0  0  0  0  0
  1  2  1  0
  2  3  1  0
  3  4  1  0
  4  5  1  0
  5  6  2  0
  6  7  1  0
  7  8  2  0
  8  9  1  0
  9 10  2  0
 10 11  1  0
 11 12  2  0
 12 13  1  0
 13 14  2  0
 13 15  1  0
 12 16  1  0
 11 17  1  0
 10 18  1  0
  8 19  1  0
  6 20  1  0
  4 21  1  0
 21 22  2  0
 21 23  1  0
 23 24  1  1
 24 25  1  0
 25 26  1  0
 26 27  1  0
 27 28  1  0
 28 29  2  0
 29 30  1  0
 30 31  1  0
 30 32  1  0
 28 33  1  0
 26 34  1  0
 26 35  1  0
 25 36  1  0
 36 37  2  0
 36 38  1  0
 38 39  2  0
 39 40  1  0
 40 41  2  0
 41 42  1  0
 41 43  1  0
 43 44  2  0
 43 45  1  0
 40 46  1  0
 39 47  1  0
 24 48  1  0
 24 49  1  0
  3 50  1  0
  3 51  1  0
  2 52  1  6
  1 53  1  0
  1 54  1  0
  1 55  1  0
 23  2  1  0
 31 27  2  0
 44 38  1  0
 14  5  1  0
 44 23  1  0
 14  9  1  0
M  END
>  <cnnaffinities>  (26) 
[6.95636]

>  <score>  (26) 
6.95636

>  <index>  (26) 
26

>  <Smiles>  (26) 
C([C@]1(C(N(c2c(nc(c3c(c(c(c(c23)[H])[H])[H])[H])[H])[H])C(=O)[C@]21C(N(C(c1c(nn(n1)[H])[H])([H])[H])C(=O)c1c(c(c(F)c(c21)[H])[H])[H])([H])[H])([H])[H])[H])([H])([H])[H]

>  <h>  (26) 
<NA>

>  <Training>  (26) 
True

>  <Success>  (26) 
True

>  <enamine_searched>  (26) 
False

>  <enamine_id>  (26) 
nan

$$$$

     RDKit          3D

 58 62  0  0  0  0  0  0  0  0999 V2000
   -9.6049    0.4379  -29.1631 C   0  0  0  0  0  0  0  0  0  0  0  0
   -9.6463    0.8140  -27.7525 N   0  0  0  0  0  4  0  0  0  0  0  0
   -8.3296    0.8250  -27.0686 C   0  0  0  0  0  0  0  0  0  0  0  0
   -8.5779    1.0335  -25.5785 C   0  0  0  0  0  0  0  0  0  0  0  0
   -9.3088   -0.0961  -25.0141 N   0  0  0  0  0  0  0  0  0  0  0  0
   -8.5594   -1.2432  -24.5531 C   0  0  0  0  0  0  0  0  0  0  0  0
   -8.9259   -1.6391  -23.1009 C   0  0  2  0  0  0  0  0  0  0  0  0
   -8.2482   -0.6454  -22.1062 C   0  0  0  0  0  0  0  0  0  0  0  0
   -8.3889    0.5602  -22.0604 O   0  0  0  0  0  0  0  0  0  0  0  0
   -7.4131   -1.3623  -21.2727 N   0  0  0  0  0  0  0  0  0  0  0  0
   -6.6347   -0.7906  -20.2350 C   0  0  0  0  0  0  0  0  0  0  0  0
   -6.9305   -1.0647  -18.9223 C   0  0  0  0  0  0  0  0  0  0  0  0
   -6.2554   -0.5730  -17.8544 N   0  0  0  0  0  0  0  0  0  0  0  0
   -5.2294    0.2060  -18.0982 C   0  0  0  0  0  0  0  0  0  0  0  0
   -4.7795    0.5319  -19.4085 C   0  0  0  0  0  0  0  0  0  0  0  0
   -3.6403    1.3524  -19.6140 C   0  0  0  0  0  0  0  0  0  0  0  0
   -3.1972    1.6146  -20.8808 C   0  0  0  0  0  0  0  0  0  0  0  0
   -3.8618    1.0604  -21.9960 C   0  0  0  0  0  0  0  0  0  0  0  0
   -4.9703    0.2687  -21.8227 C   0  0  0  0  0  0  0  0  0  0  0  0
   -5.4772    0.0069  -20.5196 C   0  0  0  0  0  0  0  0  0  0  0  0
   -5.4608   -0.1732  -22.6838 H   0  0  0  0  0  0  0  0  0  0  0  0
   -3.4920    1.2600  -22.9974 H   0  0  0  0  0  0  0  0  0  0  0  0
   -2.3290    2.2476  -21.0392 H   0  0  0  0  0  0  0  0  0  0  0  0
   -3.1347    1.7596  -18.7430 H   0  0  0  0  0  0  0  0  0  0  0  0
   -4.6835    0.6049  -17.2416 H   0  0  0  0  0  0  0  0  0  0  0  0
   -7.7746   -1.7077  -18.6771 H   0  0  0  0  0  0  0  0  0  0  0  0
   -7.6624   -2.7845  -21.3224 C   0  0  0  0  0  0  0  0  0  0  0  0
   -8.3223   -3.0256  -22.6969 C   0  0  2  0  0  0  0  0  0  0  0  0
   -7.3926   -3.6858  -23.7285 C   0  0  0  0  0  0  0  0  0  0  0  0
   -6.4951   -3.0964  -23.9514 H   0  0  0  0  0  0  0  0  0  0  0  0
   -7.0719   -4.6693  -23.3735 H   0  0  0  0  0  0  0  0  0  0  0  0
   -7.9296   -3.8590  -24.6677 H   0  0  0  0  0  0  0  0  0  0  0  0
   -9.1498   -3.7334  -22.5740 H   0  0  0  0  0  0  0  0  0  0  0  0
   -8.3612   -3.0651  -20.5224 H   0  0  0  0  0  0  0  0  0  0  0  0
   -6.7224   -3.3286  -21.1752 H   0  0  0  0  0  0  0  0  0  0  0  0
  -10.4551   -1.6469  -22.9975 C   0  0  0  0  0  0  0  0  0  0  0  0
  -11.1140   -2.3505  -21.9788 C   0  0  0  0  0  0  0  0  0  0  0  0
  -12.4907   -2.3063  -21.8720 C   0  0  0  0  0  0  0  0  0  0  0  0
  -13.0724   -3.0132  -20.8855 F   0  0  0  0  0  0  0  0  0  0  0  0
  -13.2912   -1.5928  -22.7576 C   0  0  0  0  0  0  0  0  0  0  0  0
  -12.6495   -0.8684  -23.7430 C   0  0  0  0  0  0  0  0  0  0  0  0
  -11.2609   -0.9202  -23.8837 C   0  0  0  0  0  0  0  0  0  0  0  0
  -10.6656   -0.1263  -24.9878 C   0  0  0  0  0  0  0  0  0  0  0  0
  -11.3698    0.4815  -25.7973 O   0  0  0  0  0  0  0  0  0  0  0  0
  -13.1985   -0.2284  -24.4274 H   0  0  0  0  0  0  0  0  0  0  0  0
  -14.3741   -1.6551  -22.6882 H   0  0  0  0  0  0  0  0  0  0  0  0
  -10.5857   -2.9550  -21.2542 H   0  0  0  0  0  0  0  0  0  0  0  0
   -7.4952   -1.0076  -24.6236 H   0  0  0  0  0  0  0  0  0  0  0  0
   -8.7576   -2.1151  -25.1943 H   0  0  0  0  0  0  0  0  0  0  0  0
   -7.6524    1.1390  -24.9957 H   0  0  0  0  0  0  0  0  0  0  0  0
   -9.1746    1.9323  -25.3923 H   0  0  0  0  0  0  0  0  0  0  0  0
   -7.8213   -0.1385  -27.2084 H   0  0  0  0  0  0  0  0  0  0  0  0
   -7.6723    1.6065  -27.4620 H   0  0  0  0  0  0  0  0  0  0  0  0
  -10.0757    1.7524  -27.6399 H   0  0  0  0  0  0  0  0  0  0  0  0
  -10.2870    0.2044  -27.2227 H   0  0  0  0  0  0  0  0  0  0  0  0
   -9.0019    1.1560  -29.7265 H   0  0  0  0  0  0  0  0  0  0  0  0
  -10.6130    0.4185  -29.5735 H   0  0  0  0  0  0  0  0  0  0  0  0
   -9.1613   -0.5553  -29.2892 H   0  0  0  0  0  0  0  0  0  0  0  0
  1  2  1  0
  2  3  1  0
  3  4  1  0
  4  5  1  0
  5  6  1  0
  7  6  1  6
  7  8  1  0
  8  9  2  0
  8 10  1  0
 10 11  1  0
 11 12  2  0
 12 13  1  0
 13 14  2  0
 14 15  1  0
 15 16  2  0
 16 17  1  0
 17 18  2  0
 18 19  1  0
 19 20  2  0
 19 21  1  0
 18 22  1  0
 17 23  1  0
 16 24  1  0
 14 25  1  0
 12 26  1  0
 10 27  1  0
 27 28  1  0
 28 29  1  0
 29 30  1  0
 29 31  1  0
 29 32  1  0
 28 33  1  1
 27 34  1  0
 27 35  1  0
  7 36  1  0
 36 37  2  0
 37 38  1  0
 38 39  1  0
 38 40  2  0
 40 41  1  0
 41 42  2  0
 42 43  1  0
 43 44  2  0
 41 45  1  0
 40 46  1  0
 37 47  1  0
  6 48  1  0
  6 49  1  0
  4 50  1  0
  4 51  1  0
  3 52  1  0
  3 53  1  0
  2 54  1  0
  2 55  1  0
  1 56  1  0
  1 57  1  0
  1 58  1  0
 43  5  1  0
 28  7  1  0
 42 36  1  0
 20 11  1  0
 20 15  1  0
M  CHG  1   2   1
M  END
>  <cnnaffinities>  (27) 
[6.13444, 5.92511]

>  <score>  (27) 
6.13444

>  <index>  (27) 
27

>  <Smiles>  (27) 
C([N+](C(C(N1C([C@@]2(C(=O)N(c3c(nc(c4c(c(c(c(c34)[H])[H])[H])[H])[H])[H])C([C@@]2(C([H])([H])[H])[H])([H])[H])c2c(c(F)c(c(c2C1=O)[H])[H])[H])([H])[H])([H])[H])([H])[H])([H])[H])([H])([H])[H]

>  <h>  (27) 
<NA>

>  <Training>  (27) 
True

>  <Success>  (27) 
True

>  <enamine_searched>  (27) 
False

>  <enamine_id>  (27) 
nan

$$$$

     RDKit          3D

 64 68  0  0  0  0  0  0  0  0999 V2000
   -9.7642    1.1466  -29.2170 C   0  0  0  0  0  0  0  0  0  0  0  0
   -9.5757    1.4570  -27.8156 N   0  0  0  0  0  0  0  0  0  0  0  0
   -8.5715    0.8300  -27.1379 C   0  0  0  0  0  0  0  0  0  0  0  0
   -7.7338    0.1230  -27.6761 O   0  0  0  0  0  0  0  0  0  0  0  0
   -8.6238    1.0453  -25.6185 C   0  0  0  0  0  0  0  0  0  0  0  0
   -9.3064   -0.0715  -24.9971 N   0  0  0  0  0  0  0  0  0  0  0  0
   -8.5699   -1.2481  -24.5802 C   0  0  0  0  0  0  0  0  0  0  0  0
   -8.9443   -1.6485  -23.1356 C   0  0  2  0  0  0  0  0  0  0  0  0
   -8.2709   -0.6394  -22.1542 C   0  0  0  0  0  0  0  0  0  0  0  0
   -8.4136    0.5626  -22.1303 O   0  0  0  0  0  0  0  0  0  0  0  0
   -7.4355   -1.3463  -21.3049 N   0  0  0  0  0  0  0  0  0  0  0  0
   -6.6540   -0.7766  -20.2618 C   0  0  0  0  0  0  0  0  0  0  0  0
   -6.9465   -1.0599  -18.9498 C   0  0  0  0  0  0  0  0  0  0  0  0
   -6.2742   -0.5755  -17.8759 N   0  0  0  0  0  0  0  0  0  0  0  0
   -5.2447    0.2004  -18.1122 C   0  0  0  0  0  0  0  0  0  0  0  0
   -4.7866    0.5321  -19.4178 C   0  0  0  0  0  0  0  0  0  0  0  0
   -3.6438    1.3512  -19.6154 C   0  0  0  0  0  0  0  0  0  0  0  0
   -3.1951    1.6131  -20.8802 C   0  0  0  0  0  0  0  0  0  0  0  0
   -3.8568    1.0604  -21.9976 C   0  0  0  0  0  0  0  0  0  0  0  0
   -4.9689    0.2720  -21.8308 C   0  0  0  0  0  0  0  0  0  0  0  0
   -5.4835    0.0107  -20.5329 C   0  0  0  0  0  0  0  0  0  0  0  0
   -5.4576   -0.1699  -22.6922 H   0  0  0  0  0  0  0  0  0  0  0  0
   -3.4823    1.2582  -22.9966 H   0  0  0  0  0  0  0  0  0  0  0  0
   -2.3238    2.2427  -21.0334 H   0  0  0  0  0  0  0  0  0  0  0  0
   -3.1392    1.7550  -18.7418 H   0  0  0  0  0  0  0  0  0  0  0  0
   -4.7046    0.5867  -17.2482 H   0  0  0  0  0  0  0  0  0  0  0  0
   -7.7924   -1.7007  -18.7082 H   0  0  0  0  0  0  0  0  0  0  0  0
   -7.6323   -2.7741  -21.3676 C   0  0  0  0  0  0  0  0  0  0  0  0
   -8.3493   -3.0209  -22.7081 C   0  0  2  0  0  0  0  0  0  0  0  0
   -7.4787   -3.7405  -23.7532 C   0  0  0  0  0  0  0  0  0  0  0  0
   -7.1251   -5.4235  -23.2467 S   0  0  0  0  0  0  0  0  0  0  0  0
   -5.8174   -5.4702  -22.6091 O   0  0  0  0  0  0  0  0  0  0  0  0
   -8.2908   -5.9476  -22.5436 O   0  0  0  0  0  0  0  0  0  0  0  0
   -7.0198   -6.1824  -24.7462 N   0  0  0  0  0  0  0  0  0  0  0  0
   -6.6489   -7.5997  -24.6282 C   0  0  0  0  0  0  0  0  0  0  0  0
   -5.6686   -7.6662  -24.1539 H   0  0  0  0  0  0  0  0  0  0  0  0
   -7.3745   -8.1807  -24.0447 H   0  0  0  0  0  0  0  0  0  0  0  0
   -6.5850   -8.0019  -25.6402 H   0  0  0  0  0  0  0  0  0  0  0  0
   -7.9236   -6.0945  -25.2131 H   0  0  0  0  0  0  0  0  0  0  0  0
   -8.0376   -3.8612  -24.6859 H   0  0  0  0  0  0  0  0  0  0  0  0
   -6.5297   -3.2466  -23.9815 H   0  0  0  0  0  0  0  0  0  0  0  0
   -9.1721   -3.7182  -22.5492 H   0  0  0  0  0  0  0  0  0  0  0  0
   -8.2805   -3.0952  -20.5426 H   0  0  0  0  0  0  0  0  0  0  0  0
   -6.6743   -3.2986  -21.2750 H   0  0  0  0  0  0  0  0  0  0  0  0
  -10.4772   -1.6487  -23.0454 C   0  0  0  0  0  0  0  0  0  0  0  0
  -11.1416   -2.3719  -22.0398 C   0  0  0  0  0  0  0  0  0  0  0  0
  -12.5233   -2.3486  -21.9489 C   0  0  0  0  0  0  0  0  0  0  0  0
  -13.3048   -3.2647  -20.6839 Cl  0  0  0  0  0  0  0  0  0  0  0  0
  -13.3149   -1.6128  -22.8249 C   0  0  0  0  0  0  0  0  0  0  0  0
  -12.6732   -0.8611  -23.7862 C   0  0  0  0  0  0  0  0  0  0  0  0
  -11.2824   -0.8992  -23.9135 C   0  0  0  0  0  0  0  0  0  0  0  0
  -10.6659   -0.0388  -24.9600 C   0  0  0  0  0  0  0  0  0  0  0  0
  -11.3279    0.7112  -25.6808 O   0  0  0  0  0  0  0  0  0  0  0  0
  -13.2328   -0.2359  -24.4692 H   0  0  0  0  0  0  0  0  0  0  0  0
  -14.3975   -1.6415  -22.7452 H   0  0  0  0  0  0  0  0  0  0  0  0
  -10.6174   -2.9564  -21.2884 H   0  0  0  0  0  0  0  0  0  0  0  0
   -7.5069   -1.0140  -24.6490 H   0  0  0  0  0  0  0  0  0  0  0  0
   -8.7876   -2.0865  -25.2562 H   0  0  0  0  0  0  0  0  0  0  0  0
   -7.6157    1.1339  -25.1913 H   0  0  0  0  0  0  0  0  0  0  0  0
   -9.1778    1.9579  -25.3707 H   0  0  0  0  0  0  0  0  0  0  0  0
  -10.4078    1.6513  -27.2708 H   0  0  0  0  0  0  0  0  0  0  0  0
   -9.9974    0.0861  -29.3789 H   0  0  0  0  0  0  0  0  0  0  0  0
  -10.5819    1.7592  -29.6064 H   0  0  0  0  0  0  0  0  0  0  0  0
   -8.8422    1.3790  -29.7541 H   0  0  0  0  0  0  0  0  0  0  0  0
  1  2  1  0
  2  3  1  0
  3  4  2  0
  3  5  1  0
  5  6  1  0
  6  7  1  0
  8  7  1  6
  8  9  1  0
  9 10  2  0
  9 11  1  0
 11 12  1  0
 12 13  2  0
 13 14  1  0
 14 15  2  0
 15 16  1  0
 16 17  2  0
 17 18  1  0
 18 19  2  0
 19 20  1  0
 20 21  2  0
 20 22  1  0
 19 23  1  0
 18 24  1  0
 17 25  1  0
 15 26  1  0
 13 27  1  0
 11 28  1  0
 28 29  1  0
 29 30  1  0
 30 31  1  0
 31 32  2  0
 31 33  2  0
 31 34  1  0
 34 35  1  0
 35 36  1  0
 35 37  1  0
 35 38  1  0
 34 39  1  0
 30 40  1  0
 30 41  1  0
 29 42  1  1
 28 43  1  0
 28 44  1  0
  8 45  1  0
 45 46  2  0
 46 47  1  0
 47 48  1  0
 47 49  2  0
 49 50  1  0
 50 51  2  0
 51 52  1  0
 52 53  2  0
 50 54  1  0
 49 55  1  0
 46 56  1  0
  7 57  1  0
  7 58  1  0
  5 59  1  0
  5 60  1  0
  2 61  1  0
  1 62  1  0
  1 63  1  0
  1 64  1  0
 52  6  1  0
 29  8  1  0
 51 45  1  0
 21 12  1  0
 21 16  1  0
M  END
>  <cnnaffinities>  (28) 
[6.69446]

>  <score>  (28) 
6.69446

>  <index>  (28) 
28

>  <Smiles>  (28) 
C(N(C(=O)C(N1C([C@@]2(C(=O)N(c3c(nc(c4c(c(c(c(c34)[H])[H])[H])[H])[H])[H])C([C@@]2(C(S(=O)(=O)N(C([H])([H])[H])[H])([H])[H])[H])([H])[H])c2c(c(Cl)c(c(c2C1=O)[H])[H])[H])([H])[H])([H])[H])[H])([H])([H])[H]

>  <h>  (28) 
<NA>

>  <Training>  (28) 
True

>  <Success>  (28) 
True

>  <enamine_searched>  (28) 
False

>  <enamine_id>  (28) 
nan

$$$$

     RDKit          3D

 55 60  0  0  0  0  0  0  0  0999 V2000
  -10.2648   -1.1148  -23.5820 C   0  0  0  0  0  0  0  0  0  0  0  0
   -8.8705   -1.3948  -23.0281 C   0  0  1  0  0  0  0  0  0  0  0  0
   -8.3961   -0.4466  -21.9156 C   0  0  0  0  0  0  0  0  0  0  0  0
   -7.3902   -1.2363  -21.2242 N   0  0  0  0  0  0  0  0  0  0  0  0
   -6.5929   -0.7610  -20.1619 C   0  0  0  0  0  0  0  0  0  0  0  0
   -6.8901   -1.0581  -18.8574 C   0  0  0  0  0  0  0  0  0  0  0  0
   -6.2172   -0.5499  -17.7935 N   0  0  0  0  0  0  0  0  0  0  0  0
   -5.2025    0.2450  -18.0427 C   0  0  0  0  0  0  0  0  0  0  0  0
   -4.7513    0.5791  -19.3558 C   0  0  0  0  0  0  0  0  0  0  0  0
   -3.6154    1.3976  -19.6011 C   0  0  0  0  0  0  0  0  0  0  0  0
   -3.2027    1.6414  -20.8846 C   0  0  0  0  0  0  0  0  0  0  0  0
   -3.8958    1.0865  -21.9856 C   0  0  0  0  0  0  0  0  0  0  0  0
   -5.0039    0.3054  -21.7734 C   0  0  0  0  0  0  0  0  0  0  0  0
   -5.4601    0.0509  -20.4537 C   0  0  0  0  0  0  0  0  0  0  0  0
   -5.5287   -0.1472  -22.6072 H   0  0  0  0  0  0  0  0  0  0  0  0
   -3.5521    1.2736  -23.0006 H   0  0  0  0  0  0  0  0  0  0  0  0
   -2.3316    2.2644  -21.0725 H   0  0  0  0  0  0  0  0  0  0  0  0
   -3.0829    1.8162  -18.7499 H   0  0  0  0  0  0  0  0  0  0  0  0
   -4.6707    0.6500  -17.1804 H   0  0  0  0  0  0  0  0  0  0  0  0
   -7.7121   -1.7323  -18.6259 H   0  0  0  0  0  0  0  0  0  0  0  0
   -7.4811   -2.5848  -21.4636 C   0  0  0  0  0  0  0  0  0  0  0  0
   -6.7248   -3.4090  -20.9887 O   0  0  0  0  0  0  0  0  0  0  0  0
   -8.6723   -2.8160  -22.3973 C   0  0  1  0  0  0  0  0  0  0  0  0
   -9.8734   -3.2317  -21.4949 C   0  0  0  0  0  0  0  0  0  0  0  0
  -11.0374   -3.7019  -22.2425 N   0  0  0  0  0  0  0  0  0  0  0  0
  -12.4116   -3.6603  -21.7035 C   0  0  0  0  0  0  0  0  0  0  0  0
  -13.2870   -2.5461  -22.2340 C   0  0  0  0  0  0  0  0  0  0  0  0
  -14.1130   -1.6084  -21.5821 C   0  0  0  0  0  0  0  0  0  0  0  0
  -14.8136   -0.9342  -22.4915 N   0  0  0  0  0  0  0  0  0  0  0  0
  -14.3803   -1.4379  -23.6274 N   0  0  0  0  0  0  0  0  0  0  0  0
  -13.4784   -2.3989  -23.5441 N   0  0  0  0  0  0  0  0  0  0  0  0
  -14.6981   -1.0826  -24.5178 H   0  0  0  0  0  0  0  0  0  0  0  0
  -14.2581   -1.4077  -20.5277 H   0  0  0  0  0  0  0  0  0  0  0  0
  -12.4299   -3.6483  -20.6109 H   0  0  0  0  0  0  0  0  0  0  0  0
  -12.8834   -4.5914  -22.0349 H   0  0  0  0  0  0  0  0  0  0  0  0
  -10.8453   -4.5423  -23.3037 C   0  0  0  0  0  0  0  0  0  0  0  0
  -11.7736   -5.1623  -23.7977 O   0  0  0  0  0  0  0  0  0  0  0  0
   -9.4627   -4.6899  -23.8467 C   0  0  0  0  0  0  0  0  0  0  0  0
   -9.2738   -5.6778  -24.8062 C   0  0  0  0  0  0  0  0  0  0  0  0
   -8.0368   -5.8806  -25.3743 C   0  0  0  0  0  0  0  0  0  0  0  0
   -6.9915   -5.0700  -24.9564 C   0  0  0  0  0  0  0  0  0  0  0  0
   -5.7953   -5.2488  -25.5374 F   0  0  0  0  0  0  0  0  0  0  0  0
   -7.1405   -4.0953  -23.9891 C   0  0  0  0  0  0  0  0  0  0  0  0
   -8.4038   -3.8947  -23.4140 C   0  0  0  0  0  0  0  0  0  0  0  0
   -6.2788   -3.5029  -23.7035 H   0  0  0  0  0  0  0  0  0  0  0  0
   -7.8792   -6.6346  -26.1338 H   0  0  0  0  0  0  0  0  0  0  0  0
  -10.1358   -6.2706  -25.0825 H   0  0  0  0  0  0  0  0  0  0  0  0
   -9.5188   -4.0239  -20.8285 H   0  0  0  0  0  0  0  0  0  0  0  0
  -10.1685   -2.3796  -20.8728 H   0  0  0  0  0  0  0  0  0  0  0  0
   -7.9672    0.4881  -22.2899 H   0  0  0  0  0  0  0  0  0  0  0  0
   -9.2079   -0.1865  -21.2228 H   0  0  0  0  0  0  0  0  0  0  0  0
   -8.1510   -1.3297  -23.8577 H   0  0  0  0  0  0  0  0  0  0  0  0
  -10.3441   -0.0932  -23.9669 H   0  0  0  0  0  0  0  0  0  0  0  0
  -10.4863   -1.8091  -24.3991 H   0  0  0  0  0  0  0  0  0  0  0  0
  -11.0401   -1.2662  -22.8241 H   0  0  0  0  0  0  0  0  0  0  0  0
  1  2  1  0
  2  3  1  0
  3  4  1  0
  4  5  1  0
  5  6  2  0
  6  7  1  0
  7  8  2  0
  8  9  1  0
  9 10  2  0
 10 11  1  0
 11 12  2  0
 12 13  1  0
 13 14  2  0
 13 15  1  0
 12 16  1  0
 11 17  1  0
 10 18  1  0
  8 19  1  0
  6 20  1  0
  4 21  1  0
 21 22  2  0
 21 23  1  0
 23 24  1  1
 24 25  1  0
 25 26  1  0
 26 27  1  0
 27 28  1  0
 28 29  2  0
 29 30  1  0
 30 31  1  0
 30 32  1  0
 28 33  1  0
 26 34  1  0
 26 35  1  0
 25 36  1  0
 36 37  2  0
 36 38  1  0
 38 39  2  0
 39 40  1  0
 40 41  2  0
 41 42  1  0
 41 43  1  0
 43 44  2  0
 43 45  1  0
 40 46  1  0
 39 47  1  0
 24 48  1  0
 24 49  1  0
  3 50  1  0
  3 51  1  0
  2 52  1  6
  1 53  1  0
  1 54  1  0
  1 55  1  0
 23  2  1  0
 31 27  2  0
 44 38  1  0
 14  5  1  0
 44 23  1  0
 14  9  1  0
M  END
>  <cnnaffinities>  (29) 
[6.94613]

>  <score>  (29) 
6.94613

>  <index>  (29) 
29

>  <Smiles>  (29) 
C([C@]1(C(N(c2c(nc(c3c(c(c(c(c23)[H])[H])[H])[H])[H])[H])C(=O)[C@]21C(N(C(c1c(nn(n1)[H])[H])([H])[H])C(=O)c1c(c(c(F)c(c21)[H])[H])[H])([H])[H])([H])[H])[H])([H])([H])[H]

>  <h>  (29) 
<NA>

>  <Training>  (29) 
True

>  <Success>  (29) 
True

>  <enamine_searched>  (29) 
False

>  <enamine_id>  (29) 
nan

$$$$

     RDKit          3D

 58 63  0  0  0  0  0  0  0  0999 V2000
  -10.2184   -1.0151  -23.6826 C   0  0  0  0  0  0  0  0  0  0  0  0
   -8.8696   -1.3280  -23.0450 C   0  0  1  0  0  0  0  0  0  0  0  0
   -8.4183   -0.3900  -21.9088 C   0  0  0  0  0  0  0  0  0  0  0  0
   -7.4171   -1.1893  -21.2227 N   0  0  0  0  0  0  0  0  0  0  0  0
   -6.6099   -0.7284  -20.1585 C   0  0  0  0  0  0  0  0  0  0  0  0
   -6.8986   -1.0496  -18.8580 C   0  0  0  0  0  0  0  0  0  0  0  0
   -6.2242   -0.5496  -17.7906 N   0  0  0  0  0  0  0  0  0  0  0  0
   -5.2147    0.2552  -18.0314 C   0  0  0  0  0  0  0  0  0  0  0  0
   -4.7609    0.5988  -19.3418 C   0  0  0  0  0  0  0  0  0  0  0  0
   -3.6224    1.4107  -19.5879 C   0  0  0  0  0  0  0  0  0  0  0  0
   -3.2049    1.6478  -20.8703 C   0  0  0  0  0  0  0  0  0  0  0  0
   -3.8939    1.0908  -21.9705 C   0  0  0  0  0  0  0  0  0  0  0  0
   -5.0076    0.3195  -21.7626 C   0  0  0  0  0  0  0  0  0  0  0  0
   -5.4681    0.0751  -20.4434 C   0  0  0  0  0  0  0  0  0  0  0  0
   -5.5327   -0.1361  -22.5960 H   0  0  0  0  0  0  0  0  0  0  0  0
   -3.5457    1.2687  -22.9835 H   0  0  0  0  0  0  0  0  0  0  0  0
   -2.3324    2.2663  -21.0586 H   0  0  0  0  0  0  0  0  0  0  0  0
   -3.0937    1.8365  -18.7410 H   0  0  0  0  0  0  0  0  0  0  0  0
   -4.6858    0.6565  -17.1653 H   0  0  0  0  0  0  0  0  0  0  0  0
   -7.7125   -1.7380  -18.6326 H   0  0  0  0  0  0  0  0  0  0  0  0
   -7.5336   -2.5358  -21.4727 C   0  0  0  0  0  0  0  0  0  0  0  0
   -6.7882   -3.3711  -20.9989 O   0  0  0  0  0  0  0  0  0  0  0  0
   -8.7249   -2.7540  -22.4170 C   0  0  1  0  0  0  0  0  0  0  0  0
   -9.9481   -3.1460  -21.5277 C   0  0  0  0  0  0  0  0  0  0  0  0
  -11.1026   -3.6362  -22.2732 N   0  0  0  0  0  0  0  0  0  0  0  0
  -12.4598   -3.6126  -21.7167 C   0  0  0  0  0  0  0  0  0  0  0  0
  -13.3890   -2.4750  -22.0990 C   0  0  0  0  0  0  0  0  0  0  0  0
  -14.0532   -1.7950  -21.1265 C   0  0  0  0  0  0  0  0  0  0  0  0
  -14.9627   -0.7043  -21.4285 C   0  0  0  0  0  0  0  0  0  0  0  0
  -15.5569    0.0121  -20.6436 O   0  0  0  0  0  0  0  0  0  0  0  0
  -15.1551   -0.5651  -22.8234 N   0  0  0  0  0  0  0  0  0  0  0  0
  -14.4578   -1.3107  -23.7326 C   0  0  0  0  0  0  0  0  0  0  0  0
  -13.5963   -2.2318  -23.4386 N   0  0  0  0  0  0  0  0  0  0  0  0
  -14.6565   -1.0929  -24.7825 H   0  0  0  0  0  0  0  0  0  0  0  0
  -15.7549    0.2069  -23.1198 H   0  0  0  0  0  0  0  0  0  0  0  0
  -13.8789   -2.0333  -20.0868 H   0  0  0  0  0  0  0  0  0  0  0  0
  -12.9463   -4.5258  -22.0612 H   0  0  0  0  0  0  0  0  0  0  0  0
  -12.4412   -3.6366  -20.6307 H   0  0  0  0  0  0  0  0  0  0  0  0
  -10.8920   -4.4966  -23.3106 C   0  0  0  0  0  0  0  0  0  0  0  0
  -11.7898   -5.1620  -23.7880 O   0  0  0  0  0  0  0  0  0  0  0  0
   -9.5115   -4.6315  -23.8581 C   0  0  0  0  0  0  0  0  0  0  0  0
   -9.3271   -5.6228  -24.8195 C   0  0  0  0  0  0  0  0  0  0  0  0
   -8.0836   -5.8538  -25.3715 C   0  0  0  0  0  0  0  0  0  0  0  0
   -7.0259   -5.0562  -24.9471 C   0  0  0  0  0  0  0  0  0  0  0  0
   -5.8119   -5.2749  -25.4835 F   0  0  0  0  0  0  0  0  0  0  0  0
   -7.1796   -4.0680  -23.9899 C   0  0  0  0  0  0  0  0  0  0  0  0
   -8.4495   -3.8418  -23.4275 C   0  0  0  0  0  0  0  0  0  0  0  0
   -6.3091   -3.4991  -23.6790 H   0  0  0  0  0  0  0  0  0  0  0  0
   -7.9178   -6.6275  -26.1142 H   0  0  0  0  0  0  0  0  0  0  0  0
  -10.1955   -6.2066  -25.1044 H   0  0  0  0  0  0  0  0  0  0  0  0
   -9.5776   -3.9065  -20.8302 H   0  0  0  0  0  0  0  0  0  0  0  0
  -10.2753   -2.2765  -20.9536 H   0  0  0  0  0  0  0  0  0  0  0  0
   -9.2395   -0.1419  -21.2204 H   0  0  0  0  0  0  0  0  0  0  0  0
   -7.9911    0.5512  -22.2689 H   0  0  0  0  0  0  0  0  0  0  0  0
   -8.1094   -1.2661  -23.8387 H   0  0  0  0  0  0  0  0  0  0  0  0
  -11.0519   -1.1224  -22.9820 H   0  0  0  0  0  0  0  0  0  0  0  0
  -10.4207   -1.7040  -24.5100 H   0  0  0  0  0  0  0  0  0  0  0  0
  -10.2327    0.0004  -24.0875 H   0  0  0  0  0  0  0  0  0  0  0  0
  1  2  1  0
  2  3  1  0
  3  4  1  0
  4  5  1  0
  5  6  2  0
  6  7  1  0
  7  8  2  0
  8  9  1  0
  9 10  2  0
 10 11  1  0
 11 12  2  0
 12 13  1  0
 13 14  2  0
 13 15  1  0
 12 16  1  0
 11 17  1  0
 10 18  1  0
  8 19  1  0
  6 20  1  0
  4 21  1  0
 21 22  2  0
 21 23  1  0
 23 24  1  1
 24 25  1  0
 25 26  1  0
 26 27  1  0
 27 28  2  0
 28 29  1  0
 29 30  2  0
 29 31  1  0
 31 32  1  0
 32 33  2  0
 32 34  1  0
 31 35  1  0
 28 36  1  0
 26 37  1  0
 26 38  1  0
 25 39  1  0
 39 40  2  0
 39 41  1  0
 41 42  2  0
 42 43  1  0
 43 44  2  0
 44 45  1  0
 44 46  1  0
 46 47  2  0
 46 48  1  0
 43 49  1  0
 42 50  1  0
 24 51  1  0
 24 52  1  0
  3 53  1  0
  3 54  1  0
  2 55  1  6
  1 56  1  0
  1 57  1  0
  1 58  1  0
 23  2  1  0
 33 27  1  0
 47 41  1  0
 14  5  1  0
 47 23  1  0
 14  9  1  0
M  END
>  <cnnaffinities>  (30) 
[7.13243]

>  <score>  (30) 
7.13243

>  <index>  (30) 
30

>  <Smiles>  (30) 
C([C@]1(C(N(c2c(nc(c3c(c(c(c(c23)[H])[H])[H])[H])[H])[H])C(=O)[C@]21C(N(C(c1c(c(=O)n(c(n1)[H])[H])[H])([H])[H])C(=O)c1c(c(c(F)c(c21)[H])[H])[H])([H])[H])([H])[H])[H])([H])([H])[H]

>  <h>  (30) 
<NA>

>  <Training>  (30) 
True

>  <Success>  (30) 
True

>  <enamine_searched>  (30) 
False

>  <enamine_id>  (30) 
nan

$$$$

     RDKit          3D

 66 71  0  0  0  0  0  0  0  0999 V2000
   -6.8131    0.0951  -29.3771 C   0  0  0  0  0  0  0  0  0  0  0  0
   -7.1583    0.6289  -28.0763 N   0  0  0  0  0  0  0  0  0  0  0  0
   -6.6101    0.0537  -26.9756 C   0  0  0  0  0  0  0  0  0  0  0  0
   -5.8123   -0.8719  -27.0220 O   0  0  0  0  0  0  0  0  0  0  0  0
   -7.1040    0.6554  -25.6618 C   0  0  0  0  0  0  0  0  0  0  0  0
   -8.2088   -0.1063  -25.1290 N   0  0  0  0  0  0  0  0  0  0  0  0
   -7.9405   -1.3917  -24.5193 C   0  0  0  0  0  0  0  0  0  0  0  0
   -8.7756   -1.5713  -23.2288 C   0  0  2  0  0  0  0  0  0  0  0  0
   -8.2278   -0.6143  -22.1289 C   0  0  0  0  0  0  0  0  0  0  0  0
   -8.3926    0.5807  -22.0318 O   0  0  0  0  0  0  0  0  0  0  0  0
   -7.4589   -1.3623  -21.2574 N   0  0  0  0  0  0  0  0  0  0  0  0
   -6.6457   -0.8058  -20.2350 C   0  0  0  0  0  0  0  0  0  0  0  0
   -6.9314   -1.0782  -18.9179 C   0  0  0  0  0  0  0  0  0  0  0  0
   -6.2501   -0.5869  -17.8528 N   0  0  0  0  0  0  0  0  0  0  0  0
   -5.2247    0.1902  -18.1106 C   0  0  0  0  0  0  0  0  0  0  0  0
   -4.7787    0.5103  -19.4241 C   0  0  0  0  0  0  0  0  0  0  0  0
   -3.6399    1.3337  -19.6315 C   0  0  0  0  0  0  0  0  0  0  0  0
   -3.2033    1.6059  -20.8988 C   0  0  0  0  0  0  0  0  0  0  0  0
   -3.8769    1.0602  -22.0140 C   0  0  0  0  0  0  0  0  0  0  0  0
   -4.9864    0.2685  -21.8390 C   0  0  0  0  0  0  0  0  0  0  0  0
   -5.4849   -0.0121  -20.5316 C   0  0  0  0  0  0  0  0  0  0  0  0
   -5.4864   -0.1439  -22.7117 H   0  0  0  0  0  0  0  0  0  0  0  0
   -3.5130    1.2703  -23.0157 H   0  0  0  0  0  0  0  0  0  0  0  0
   -2.3378    2.2421  -21.0558 H   0  0  0  0  0  0  0  0  0  0  0  0
   -3.1358    1.7421  -18.7593 H   0  0  0  0  0  0  0  0  0  0  0  0
   -4.6747    0.5965  -17.2617 H   0  0  0  0  0  0  0  0  0  0  0  0
   -7.7805   -1.7173  -18.6812 H   0  0  0  0  0  0  0  0  0  0  0  0
   -7.4064   -2.7676  -21.5908 C   0  0  0  0  0  0  0  0  0  0  0  0
   -8.5586   -2.9575  -22.5748 C   0  0  2  0  0  0  0  0  0  0  0  0
   -8.3330   -4.1300  -23.5165 C   0  0  0  0  0  0  0  0  0  0  0  0
   -9.4534   -4.3514  -24.3885 N   0  0  0  0  0  0  0  0  0  0  0  0
   -9.4428   -5.2747  -25.3746 C   0  0  0  0  0  0  0  0  0  0  0  0
   -8.3714   -6.1661  -25.5775 C   0  0  0  0  0  0  0  0  0  0  0  0
   -8.4940   -7.0392  -26.6371 C   0  0  0  0  0  0  0  0  0  0  0  0
   -9.5549   -7.0711  -27.4493 N   0  0  0  0  0  0  0  0  0  0  0  0
  -10.5064   -6.1992  -27.1444 C   0  0  0  0  0  0  0  0  0  0  0  0
  -10.5241   -5.3067  -26.1623 N   0  0  0  0  0  0  0  0  0  0  0  0
  -11.3894   -6.2041  -27.7772 H   0  0  0  0  0  0  0  0  0  0  0  0
   -7.7040   -7.7519  -26.8623 H   0  0  0  0  0  0  0  0  0  0  0  0
   -7.4892   -6.1744  -24.9504 H   0  0  0  0  0  0  0  0  0  0  0  0
  -10.2573   -3.7397  -24.4013 H   0  0  0  0  0  0  0  0  0  0  0  0
   -7.4265   -3.9519  -24.1149 H   0  0  0  0  0  0  0  0  0  0  0  0
   -8.1617   -5.0423  -22.9347 H   0  0  0  0  0  0  0  0  0  0  0  0
   -9.4513   -3.1802  -21.9878 H   0  0  0  0  0  0  0  0  0  0  0  0
   -7.5335   -3.3524  -20.6845 H   0  0  0  0  0  0  0  0  0  0  0  0
   -6.4391   -3.0539  -22.0295 H   0  0  0  0  0  0  0  0  0  0  0  0
  -10.2198   -1.2991  -23.5910 C   0  0  0  0  0  0  0  0  0  0  0  0
  -11.2697   -1.7901  -22.8033 C   0  0  0  0  0  0  0  0  0  0  0  0
  -12.5666   -1.3855  -23.0549 C   0  0  0  0  0  0  0  0  0  0  0  0
  -13.8099   -1.8861  -21.9496 Cl  0  0  0  0  0  0  0  0  0  0  0  0
  -12.8951   -0.5621  -24.1304 C   0  0  0  0  0  0  0  0  0  0  0  0
  -11.8674   -0.1090  -24.9333 C   0  0  0  0  0  0  0  0  0  0  0  0
  -10.5446   -0.4385  -24.6513 C   0  0  0  0  0  0  0  0  0  0  0  0
   -9.4819    0.2694  -25.4301 C   0  0  0  0  0  0  0  0  0  0  0  0
   -9.7275    1.1487  -26.2558 O   0  0  0  0  0  0  0  0  0  0  0  0
  -12.0495    0.5336  -25.7839 H   0  0  0  0  0  0  0  0  0  0  0  0
  -13.9247   -0.2621  -24.2953 H   0  0  0  0  0  0  0  0  0  0  0  0
  -11.1036   -2.4785  -21.9811 H   0  0  0  0  0  0  0  0  0  0  0  0
   -8.1802   -2.2038  -25.2213 H   0  0  0  0  0  0  0  0  0  0  0  0
   -6.8686   -1.4535  -24.3096 H   0  0  0  0  0  0  0  0  0  0  0  0
   -7.4404    1.6891  -25.7949 H   0  0  0  0  0  0  0  0  0  0  0  0
   -6.2858    0.6189  -24.9371 H   0  0  0  0  0  0  0  0  0  0  0  0
   -7.9966    1.1858  -27.9613 H   0  0  0  0  0  0  0  0  0  0  0  0
   -5.7356    0.1982  -29.5403 H   0  0  0  0  0  0  0  0  0  0  0  0
   -7.3432    0.6524  -30.1519 H   0  0  0  0  0  0  0  0  0  0  0  0
   -7.0708   -0.9690  -29.4466 H   0  0  0  0  0  0  0  0  0  0  0  0
  1  2  1  0
  2  3  1  0
  3  4  2  0
  3  5  1  0
  5  6  1  0
  6  7  1  0
  8  7  1  6
  8  9  1  0
  9 10  2  0
  9 11  1  0
 11 12  1  0
 12 13  2  0
 13 14  1  0
 14 15  2  0
 15 16  1  0
 16 17  2  0
 17 18  1  0
 18 19  2  0
 19 20  1  0
 20 21  2  0
 20 22  1  0
 19 23  1  0
 18 24  1  0
 17 25  1  0
 15 26  1  0
 13 27  1  0
 11 28  1  0
 28 29  1  0
 29 30  1  0
 30 31  1  0
 31 32  1  0
 32 33  2  0
 33 34  1  0
 34 35  2  0
 35 36  1  0
 36 37  2  0
 36 38  1  0
 34 39  1  0
 33 40  1  0
 31 41  1  0
 30 42  1  0
 30 43  1  0
 29 44  1  1
 28 45  1  0
 28 46  1  0
  8 47  1  0
 47 48  2  0
 48 49  1  0
 49 50  1  0
 49 51  2  0
 51 52  1  0
 52 53  2  0
 53 54  1  0
 54 55  2  0
 52 56  1  0
 51 57  1  0
 48 58  1  0
  7 59  1  0
  7 60  1  0
  5 61  1  0
  5 62  1  0
  2 63  1  0
  1 64  1  0
  1 65  1  0
  1 66  1  0
 54  6  1  0
 29  8  1  0
 37 32  1  0
 53 47  1  0
 21 12  1  0
 21 16  1  0
M  END
>  <cnnaffinities>  (31) 
[6.87723, 6.81778, 6.53179]

>  <score>  (31) 
6.87723

>  <index>  (31) 
31

>  <Smiles>  (31) 
C(N(C(=O)C(N1C([C@@]2(C(=O)N(c3c(nc(c4c(c(c(c(c34)[H])[H])[H])[H])[H])[H])C([C@@]2(C(N(c2c(c(nc(n2)[H])[H])[H])[H])([H])[H])[H])([H])[H])c2c(c(Cl)c(c(c2C1=O)[H])[H])[H])([H])[H])([H])[H])[H])([H])([H])[H]

>  <h>  (31) 
<NA>

>  <Training>  (31) 
True

>  <Success>  (31) 
True

>  <enamine_searched>  (31) 
False

>  <enamine_id>  (31) 
nan

$$$$

     RDKit          3D

 57 62  0  0  0  0  0  0  0  0999 V2000
  -10.2224   -2.9754  -22.0742 C   0  0  0  0  0  0  0  0  0  0  0  0
   -9.1494   -2.0278  -22.6326 C   0  0  1  0  0  0  0  0  0  0  0  0
   -8.6782   -1.0461  -21.5401 C   0  0  0  0  0  0  0  0  0  0  0  0
   -7.3390   -1.4699  -21.2055 N   0  0  0  0  0  0  0  0  0  0  0  0
   -6.5669   -0.8627  -20.1862 C   0  0  0  0  0  0  0  0  0  0  0  0
   -6.9052   -1.0564  -18.8707 C   0  0  0  0  0  0  0  0  0  0  0  0
   -6.2243   -0.5433  -17.8168 N   0  0  0  0  0  0  0  0  0  0  0  0
   -5.1844    0.2107  -18.0864 C   0  0  0  0  0  0  0  0  0  0  0  0
   -4.7415    0.5164  -19.4056 C   0  0  0  0  0  0  0  0  0  0  0  0
   -3.6195    1.3564  -19.6340 C   0  0  0  0  0  0  0  0  0  0  0  0
   -3.2323    1.6645  -20.9085 C   0  0  0  0  0  0  0  0  0  0  0  0
   -3.9519    1.1512  -22.0133 C   0  0  0  0  0  0  0  0  0  0  0  0
   -5.0375    0.3331  -21.8229 C   0  0  0  0  0  0  0  0  0  0  0  0
   -5.4515   -0.0206  -20.5028 C   0  0  0  0  0  0  0  0  0  0  0  0
   -5.5832   -0.0495  -22.6867 H   0  0  0  0  0  0  0  0  0  0  0  0
   -3.6404    1.4078  -23.0222 H   0  0  0  0  0  0  0  0  0  0  0  0
   -2.3737    2.3081  -21.0836 H   0  0  0  0  0  0  0  0  0  0  0  0
   -3.0897    1.7537  -18.7719 H   0  0  0  0  0  0  0  0  0  0  0  0
   -4.6330    0.6226  -17.2401 H   0  0  0  0  0  0  0  0  0  0  0  0
   -7.7612   -1.6841  -18.6219 H   0  0  0  0  0  0  0  0  0  0  0  0
   -6.8189   -2.4192  -22.0489 C   0  0  0  0  0  0  0  0  0  0  0  0
   -5.7275   -2.9323  -21.9157 O   0  0  0  0  0  0  0  0  0  0  0  0
   -7.8462   -2.6984  -23.1621 C   0  0  1  0  0  0  0  0  0  0  0  0
   -7.9771   -4.2170  -23.3773 C   0  0  0  0  0  0  0  0  0  0  0  0
   -6.7680   -4.7675  -23.9752 N   0  0  0  0  0  0  0  0  0  0  0  0
   -6.1495   -5.9161  -23.3205 C   0  0  0  0  0  0  0  0  0  0  0  0
   -7.1413   -7.0357  -23.2948 C   0  0  0  0  0  0  0  0  0  0  0  0
   -7.8005   -7.5480  -22.2783 N   0  0  0  0  0  0  0  0  0  0  0  0
   -8.8390   -8.2170  -22.8153 N   0  0  0  0  0  0  0  0  0  0  0  0
   -8.8265   -8.1434  -24.0937 N   0  0  0  0  0  0  0  0  0  0  0  0
   -7.7334   -7.4460  -24.4260 N   0  0  0  0  0  0  0  0  0  0  0  0
   -7.2532   -7.3725  -25.7802 C   0  0  0  0  0  0  0  0  0  0  0  0
   -7.4801   -6.4198  -26.2529 H   0  0  0  0  0  0  0  0  0  0  0  0
   -6.1781   -7.5277  -25.7858 H   0  0  0  0  0  0  0  0  0  0  0  0
   -7.7447   -8.1683  -26.3213 H   0  0  0  0  0  0  0  0  0  0  0  0
   -5.8582   -5.6566  -22.2964 H   0  0  0  0  0  0  0  0  0  0  0  0
   -5.2477   -6.1563  -23.8915 H   0  0  0  0  0  0  0  0  0  0  0  0
   -6.1975   -4.2261  -25.0875 C   0  0  0  0  0  0  0  0  0  0  0  0
   -5.3757   -4.8265  -25.7781 O   0  0  0  0  0  0  0  0  0  0  0  0
   -6.6028   -2.8210  -25.3816 C   0  0  0  0  0  0  0  0  0  0  0  0
   -6.1290   -2.2580  -26.5627 C   0  0  0  0  0  0  0  0  0  0  0  0
   -6.3630   -0.9277  -26.8440 C   0  0  0  0  0  0  0  0  0  0  0  0
   -7.0669   -0.1735  -25.9127 C   0  0  0  0  0  0  0  0  0  0  0  0
   -7.2749    1.1319  -26.1700 F   0  0  0  0  0  0  0  0  0  0  0  0
   -7.5571   -0.7124  -24.7374 C   0  0  0  0  0  0  0  0  0  0  0  0
   -7.3522   -2.0734  -24.4646 C   0  0  0  0  0  0  0  0  0  0  0  0
   -8.0930   -0.0525  -24.0611 H   0  0  0  0  0  0  0  0  0  0  0  0
   -5.9951   -0.4501  -27.7434 H   0  0  0  0  0  0  0  0  0  0  0  0
   -5.5584   -2.8971  -27.2275 H   0  0  0  0  0  0  0  0  0  0  0  0
   -8.8387   -4.4081  -24.0313 H   0  0  0  0  0  0  0  0  0  0  0  0
   -8.1400   -4.7275  -22.4246 H   0  0  0  0  0  0  0  0  0  0  0  0
   -8.6891    0.0017  -21.8689 H   0  0  0  0  0  0  0  0  0  0  0  0
   -9.3238   -1.1105  -20.6694 H   0  0  0  0  0  0  0  0  0  0  0  0
   -9.6250   -1.4846  -23.4557 H   0  0  0  0  0  0  0  0  0  0  0  0
  -10.6057   -3.6548  -22.8415 H   0  0  0  0  0  0  0  0  0  0  0  0
  -11.0755   -2.3990  -21.6970 H   0  0  0  0  0  0  0  0  0  0  0  0
   -9.8360   -3.5766  -21.2437 H   0  0  0  0  0  0  0  0  0  0  0  0
  1  2  1  0
  2  3  1  0
  3  4  1  0
  4  5  1  0
  5  6  2  0
  6  7  1  0
  7  8  2  0
  8  9  1  0
  9 10  2  0
 10 11  1  0
 11 12  2  0
 12 13  1  0
 13 14  2  0
 13 15  1  0
 12 16  1  0
 11 17  1  0
 10 18  1  0
  8 19  1  0
  6 20  1  0
  4 21  1  0
 21 22  2  0
 21 23  1  0
 23 24  1  6
 24 25  1  0
 25 26  1  0
 26 27  1  0
 27 28  2  0
 28 29  1  0
 29 30  2  0
 30 31  1  0
 31 32  1  0
 32 33  1  0
 32 34  1  0
 32 35  1  0
 26 36  1  0
 26 37  1  0
 25 38  1  0
 38 39  2  0
 38 40  1  0
 40 41  2  0
 41 42  1  0
 42 43  2  0
 43 44  1  0
 43 45  1  0
 45 46  2  0
 45 47  1  0
 42 48  1  0
 41 49  1  0
 24 50  1  0
 24 51  1  0
  3 52  1  0
  3 53  1  0
  2 54  1  6
  1 55  1  0
  1 56  1  0
  1 57  1  0
 23  2  1  0
 31 27  1  0
 46 40  1  0
 14  5  1  0
 46 23  1  0
 14  9  1  0
M  END
>  <cnnaffinities>  (32) 
[6.38319, 6.40876]

>  <score>  (32) 
6.38319

>  <index>  (32) 
32

>  <Smiles>  (32) 
C([C@]1(C(N(c2c(nc(c3c(c(c(c(c23)[H])[H])[H])[H])[H])[H])C(=O)[C@]21C(N(C(c1nnnn1C([H])([H])[H])([H])[H])C(=O)c1c(c(c(F)c(c21)[H])[H])[H])([H])[H])([H])[H])[H])([H])([H])[H]

>  <h>  (32) 
<NA>

>  <Training>  (32) 
True

>  <Success>  (32) 
True

>  <enamine_searched>  (32) 
False

>  <enamine_id>  (32) 
nan

$$$$

     RDKit          3D

 66 70  0  0  0  0  0  0  0  0999 V2000
   -6.9458    3.4135  -23.1344 C   0  0  0  0  0  0  0  0  0  0  0  0
   -7.6862    2.6384  -24.1164 N   0  0  0  0  0  0  0  0  0  0  0  0
   -7.0580    1.6298  -24.7770 C   0  0  0  0  0  0  0  0  0  0  0  0
   -5.8578    1.4325  -24.6832 O   0  0  0  0  0  0  0  0  0  0  0  0
   -7.9480    0.7651  -25.6759 C   0  0  0  0  0  0  0  0  0  0  0  0
   -8.8562   -0.0693  -24.9154 N   0  0  0  0  0  0  0  0  0  0  0  0
   -8.3900   -1.3408  -24.3861 C   0  0  0  0  0  0  0  0  0  0  0  0
   -9.0265   -1.6415  -22.9989 C   0  0  2  0  0  0  0  0  0  0  0  0
   -8.4038   -0.6542  -21.9794 C   0  0  0  0  0  0  0  0  0  0  0  0
   -8.6419    0.5269  -21.8736 O   0  0  0  0  0  0  0  0  0  0  0  0
   -7.4869   -1.3519  -21.2161 N   0  0  0  0  0  0  0  0  0  0  0  0
   -6.6735   -0.7708  -20.2103 C   0  0  0  0  0  0  0  0  0  0  0  0
   -6.9465   -1.0499  -18.8943 C   0  0  0  0  0  0  0  0  0  0  0  0
   -6.2484   -0.5703  -17.8382 N   0  0  0  0  0  0  0  0  0  0  0  0
   -5.2211    0.2009  -18.1024 C   0  0  0  0  0  0  0  0  0  0  0  0
   -4.7915    0.5291  -19.4183 C   0  0  0  0  0  0  0  0  0  0  0  0
   -3.6478    1.3421  -19.6381 C   0  0  0  0  0  0  0  0  0  0  0  0
   -3.2265    1.6178  -20.9093 C   0  0  0  0  0  0  0  0  0  0  0  0
   -3.9276    1.0908  -22.0174 C   0  0  0  0  0  0  0  0  0  0  0  0
   -5.0412    0.3054  -21.8316 C   0  0  0  0  0  0  0  0  0  0  0  0
   -5.5188    0.0178  -20.5213 C   0  0  0  0  0  0  0  0  0  0  0  0
   -5.5512   -0.0919  -22.7033 H   0  0  0  0  0  0  0  0  0  0  0  0
   -3.6025    1.3204  -23.0280 H   0  0  0  0  0  0  0  0  0  0  0  0
   -2.3500    2.2383  -21.0744 H   0  0  0  0  0  0  0  0  0  0  0  0
   -3.1248    1.7367  -18.7710 H   0  0  0  0  0  0  0  0  0  0  0  0
   -4.6616    0.6007  -17.2558 H   0  0  0  0  0  0  0  0  0  0  0  0
   -7.7856   -1.7010  -18.6527 H   0  0  0  0  0  0  0  0  0  0  0  0
   -7.3358   -2.7444  -21.5802 C   0  0  0  0  0  0  0  0  0  0  0  0
   -8.5742   -3.0212  -22.4433 C   0  0  2  0  0  0  0  0  0  0  0  0
   -8.3531   -4.0750  -23.5155 C   0  0  0  0  0  0  0  0  0  0  0  0
   -8.1215   -5.3247  -22.9099 O   0  0  0  0  0  0  0  0  0  0  0  0
   -7.6097   -6.2935  -23.8136 C   0  0  0  0  0  0  0  0  0  0  0  0
   -8.1450   -7.6512  -23.4030 C   0  0  0  0  0  0  0  0  0  0  0  0
   -9.2271   -7.7153  -23.4984 H   0  0  0  0  0  0  0  0  0  0  0  0
   -7.8667   -7.8478  -22.3633 H   0  0  0  0  0  0  0  0  0  0  0  0
   -7.7019   -8.4131  -24.0471 H   0  0  0  0  0  0  0  0  0  0  0  0
   -6.0861   -6.3190  -23.7864 C   0  0  0  0  0  0  0  0  0  0  0  0
   -5.7278   -7.0969  -24.4704 H   0  0  0  0  0  0  0  0  0  0  0  0
   -5.7462   -6.5665  -22.7758 H   0  0  0  0  0  0  0  0  0  0  0  0
   -5.6394   -5.3638  -24.0826 H   0  0  0  0  0  0  0  0  0  0  0  0
   -7.9506   -6.0494  -24.8336 H   0  0  0  0  0  0  0  0  0  0  0  0
   -7.4870   -3.7879  -24.1369 H   0  0  0  0  0  0  0  0  0  0  0  0
   -9.2370   -4.1272  -24.1766 H   0  0  0  0  0  0  0  0  0  0  0  0
   -9.3465   -3.4079  -21.7766 H   0  0  0  0  0  0  0  0  0  0  0  0
   -6.3918   -2.9298  -22.1165 H   0  0  0  0  0  0  0  0  0  0  0  0
   -7.3141   -3.3584  -20.6810 H   0  0  0  0  0  0  0  0  0  0  0  0
  -10.5335   -1.4847  -23.1446 C   0  0  0  0  0  0  0  0  0  0  0  0
  -11.4304   -2.1660  -22.3089 C   0  0  0  0  0  0  0  0  0  0  0  0
  -12.7959   -1.9808  -22.4308 C   0  0  0  0  0  0  0  0  0  0  0  0
  -13.8469   -2.7787  -21.2891 Cl  0  0  0  0  0  0  0  0  0  0  0  0
  -13.3345   -1.1980  -23.4521 C   0  0  0  0  0  0  0  0  0  0  0  0
  -12.4608   -0.5367  -24.2954 C   0  0  0  0  0  0  0  0  0  0  0  0
  -11.0789   -0.6251  -24.1083 C   0  0  0  0  0  0  0  0  0  0  0  0
  -10.1905    0.2218  -24.9699 C   0  0  0  0  0  0  0  0  0  0  0  0
  -10.6307    1.1248  -25.6723 O   0  0  0  0  0  0  0  0  0  0  0  0
  -12.8311    0.0971  -25.0952 H   0  0  0  0  0  0  0  0  0  0  0  0
  -14.4073   -1.1045  -23.5792 H   0  0  0  0  0  0  0  0  0  0  0  0
  -11.0823   -2.8498  -21.5463 H   0  0  0  0  0  0  0  0  0  0  0  0
   -7.3008   -1.2935  -24.2860 H   0  0  0  0  0  0  0  0  0  0  0  0
   -8.6370   -2.1435  -25.0967 H   0  0  0  0  0  0  0  0  0  0  0  0
   -7.3069    0.1472  -26.3098 H   0  0  0  0  0  0  0  0  0  0  0  0
   -8.5689    1.3929  -26.3211 H   0  0  0  0  0  0  0  0  0  0  0  0
   -8.6917    2.6102  -24.0376 H   0  0  0  0  0  0  0  0  0  0  0  0
   -6.5110    2.7572  -22.3669 H   0  0  0  0  0  0  0  0  0  0  0  0
   -7.6190    4.1315  -22.6612 H   0  0  0  0  0  0  0  0  0  0  0  0
   -6.1339    3.9624  -23.6228 H   0  0  0  0  0  0  0  0  0  0  0  0
  1  2  1  0
  2  3  1  0
  3  4  2  0
  3  5  1  0
  5  6  1  0
  6  7  1  0
  8  7  1  6
  8  9  1  0
  9 10  2  0
  9 11  1  0
 11 12  1  0
 12 13  2  0
 13 14  1  0
 14 15  2  0
 15 16  1  0
 16 17  2  0
 17 18  1  0
 18 19  2  0
 19 20  1  0
 20 21  2  0
 20 22  1  0
 19 23  1  0
 18 24  1  0
 17 25  1  0
 15 26  1  0
 13 27  1  0
 11 28  1  0
 28 29  1  0
 29 30  1  0
 30 31  1  0
 31 32  1  0
 32 33  1  0
 33 34  1  0
 33 35  1  0
 33 36  1  0
 32 37  1  0
 37 38  1  0
 37 39  1  0
 37 40  1  0
 32 41  1  0
 30 42  1  0
 30 43  1  0
 29 44  1  1
 28 45  1  0
 28 46  1  0
  8 47  1  0
 47 48  2  0
 48 49  1  0
 49 50  1  0
 49 51  2  0
 51 52  1  0
 52 53  2  0
 53 54  1  0
 54 55  2  0
 52 56  1  0
 51 57  1  0
 48 58  1  0
  7 59  1  0
  7 60  1  0
  5 61  1  0
  5 62  1  0
  2 63  1  0
  1 64  1  0
  1 65  1  0
  1 66  1  0
 54  6  1  0
 29  8  1  0
 53 47  1  0
 21 12  1  0
 21 16  1  0
M  END
>  <cnnaffinities>  (33) 
[7.02192, 7.03615, 6.63166]

>  <score>  (33) 
7.02192

>  <index>  (33) 
34

>  <Smiles>  (33) 
C(N(C(=O)C(N1C([C@@]2(C(=O)N(c3c(nc(c4c(c(c(c(c34)[H])[H])[H])[H])[H])[H])C([C@@]2(C(OC(C([H])([H])[H])(C([H])([H])[H])[H])([H])[H])[H])([H])[H])c2c(c(Cl)c(c(c2C1=O)[H])[H])[H])([H])[H])([H])[H])[H])([H])([H])[H]

>  <h>  (33) 
<NA>

>  <Training>  (33) 
True

>  <Success>  (33) 
True

>  <enamine_searched>  (33) 
False

>  <enamine_id>  (33) 
nan

$$$$

     RDKit          3D

 40 42  0  0  0  0  0  0  0  0999 V2000
   -8.9614    0.3598  -21.0190 O   0  0  0  0  0  0  0  0  0  0  0  0
   -8.2760   -0.2698  -21.8007 C   0  0  0  0  0  0  0  0  0  0  0  0
   -7.4116   -1.4230  -21.2848 C   0  0  0  0  0  0  0  0  0  0  0  0
   -6.5513   -0.8575  -20.1774 C   0  0  0  0  0  0  0  0  0  0  0  0
   -6.8728   -1.0502  -18.8586 C   0  0  0  0  0  0  0  0  0  0  0  0
   -6.1952   -0.5360  -17.7977 N   0  0  0  0  0  0  0  0  0  0  0  0
   -5.1623    0.2235  -18.0663 C   0  0  0  0  0  0  0  0  0  0  0  0
   -4.7272    0.5351  -19.3830 C   0  0  0  0  0  0  0  0  0  0  0  0
   -3.6076    1.3673  -19.6248 C   0  0  0  0  0  0  0  0  0  0  0  0
   -3.2146    1.6619  -20.9003 C   0  0  0  0  0  0  0  0  0  0  0  0
   -3.9336    1.1281  -21.9976 C   0  0  0  0  0  0  0  0  0  0  0  0
   -5.0182    0.3161  -21.7882 C   0  0  0  0  0  0  0  0  0  0  0  0
   -5.4467   -0.0057  -20.4741 C   0  0  0  0  0  0  0  0  0  0  0  0
   -5.5482   -0.0955  -22.6419 H   0  0  0  0  0  0  0  0  0  0  0  0
   -3.6177    1.3588  -23.0103 H   0  0  0  0  0  0  0  0  0  0  0  0
   -2.3623    2.3088  -21.0791 H   0  0  0  0  0  0  0  0  0  0  0  0
   -3.0800    1.7728  -18.7651 H   0  0  0  0  0  0  0  0  0  0  0  0
   -4.6125    0.6276  -17.2142 H   0  0  0  0  0  0  0  0  0  0  0  0
   -7.7265   -1.6638  -18.5764 H   0  0  0  0  0  0  0  0  0  0  0  0
   -6.8233   -1.8663  -22.0995 H   0  0  0  0  0  0  0  0  0  0  0  0
   -8.0732   -2.1865  -20.8568 H   0  0  0  0  0  0  0  0  0  0  0  0
   -8.1634    0.0933  -23.1294 N   0  0  0  0  0  0  0  0  0  0  0  0
   -8.2619   -0.8226  -24.2571 C   0  0  0  0  0  0  0  0  0  0  0  0
   -7.2846   -0.4232  -25.3588 C   0  0  0  0  0  0  0  0  0  0  0  0
   -7.4970    1.0382  -25.7575 C   0  0  0  0  0  0  0  0  0  0  0  0
   -6.5032    1.4548  -26.8249 C   0  0  0  0  0  0  0  0  0  0  0  0
   -6.6095    0.6788  -27.9240 F   0  0  0  0  0  0  0  0  0  0  0  0
   -6.6979    2.7314  -27.2139 F   0  0  0  0  0  0  0  0  0  0  0  0
   -5.2286    1.3556  -26.3818 F   0  0  0  0  0  0  0  0  0  0  0  0
   -7.4048    1.9417  -24.5260 C   0  0  0  0  0  0  0  0  0  0  0  0
   -8.3918    1.4942  -23.4493 C   0  0  0  0  0  0  0  0  0  0  0  0
   -8.2632    2.0400  -22.5132 H   0  0  0  0  0  0  0  0  0  0  0  0
   -9.4262    1.6697  -23.7849 H   0  0  0  0  0  0  0  0  0  0  0  0
   -7.5946    2.9788  -24.8096 H   0  0  0  0  0  0  0  0  0  0  0  0
   -6.3846    1.9004  -24.1193 H   0  0  0  0  0  0  0  0  0  0  0  0
   -8.4838    1.1589  -26.2287 H   0  0  0  0  0  0  0  0  0  0  0  0
   -7.4084   -1.0693  -26.2320 H   0  0  0  0  0  0  0  0  0  0  0  0
   -6.2577   -0.5490  -24.9947 H   0  0  0  0  0  0  0  0  0  0  0  0
   -9.2835   -0.8115  -24.6778 H   0  0  0  0  0  0  0  0  0  0  0  0
   -8.0739   -1.8295  -23.8851 H   0  0  0  0  0  0  0  0  0  0  0  0
  1  2  2  0
  2  3  1  0
  3  4  1  0
  4  5  2  0
  5  6  1  0
  6  7  2  0
  7  8  1  0
  8  9  2  0
  9 10  1  0
 10 11  2  0
 11 12  1  0
 12 13  2  0
 12 14  1  0
 11 15  1  0
 10 16  1  0
  9 17  1  0
  7 18  1  0
  5 19  1  0
  3 20  1  0
  3 21  1  0
  2 22  1  0
 22 23  1  0
 23 24  1  0
 24 25  1  0
 25 26  1  0
 26 27  1  0
 26 28  1  0
 26 29  1  0
 25 30  1  0
 30 31  1  0
 31 32  1  0
 31 33  1  0
 30 34  1  0
 30 35  1  0
 25 36  1  0
 24 37  1  0
 24 38  1  0
 23 39  1  0
 23 40  1  0
 13  4  1  0
 31 22  1  0
 13  8  1  0
M  END
>  <cnnaffinities>  (34) 
[5.12395, 5.12399, 5.12399, 5.12397, 5.12396, 5.12398, 5.12395, 5.124, 5.124, 5.12398, 5.12388, 5.14298, 5.14298, 5.14293, 5.1429]

>  <score>  (34) 
5.12395

>  <index>  (34) 
35

>  <Smiles>  (34) 
O=C(C(c1c(nc(c2c(c(c(c(c12)[H])[H])[H])[H])[H])[H])([H])[H])N1C(C(C(C(F)(F)F)(C(C1([H])[H])([H])[H])[H])([H])[H])([H])[H]

>  <h>  (34) 
<NA>

>  <Training>  (34) 
True

>  <Success>  (34) 
True

>  <enamine_searched>  (34) 
False

>  <enamine_id>  (34) 
nan

$$$$

     RDKit          3D

 47 50  0  0  0  0  0  0  0  0999 V2000
   -6.0896   -3.4679  -21.2142 O   0  0  0  0  0  0  0  0  0  0  0  0
   -6.6452   -2.6591  -21.9364 C   0  0  0  0  0  0  0  0  0  0  0  0
   -7.3865   -1.4613  -21.2907 C   0  0  0  0  0  0  0  0  0  0  0  0
   -6.5774   -0.8244  -20.1794 C   0  0  0  0  0  0  0  0  0  0  0  0
   -6.8721   -1.0464  -18.8585 C   0  0  0  0  0  0  0  0  0  0  0  0
   -6.1875   -0.5422  -17.7931 N   0  0  0  0  0  0  0  0  0  0  0  0
   -5.1586    0.2244  -18.0625 C   0  0  0  0  0  0  0  0  0  0  0  0
   -4.7226    0.5357  -19.3786 C   0  0  0  0  0  0  0  0  0  0  0  0
   -3.5934    1.3593  -19.6210 C   0  0  0  0  0  0  0  0  0  0  0  0
   -3.1942    1.6373  -20.9002 C   0  0  0  0  0  0  0  0  0  0  0  0
   -3.9096    1.0968  -21.9928 C   0  0  0  0  0  0  0  0  0  0  0  0
   -5.0059    0.2969  -21.7866 C   0  0  0  0  0  0  0  0  0  0  0  0
   -5.4477   -0.0028  -20.4712 C   0  0  0  0  0  0  0  0  0  0  0  0
   -5.5365   -0.1126  -22.6422 H   0  0  0  0  0  0  0  0  0  0  0  0
   -3.5892    1.3215  -23.0051 H   0  0  0  0  0  0  0  0  0  0  0  0
   -2.3334    2.2744  -21.0876 H   0  0  0  0  0  0  0  0  0  0  0  0
   -3.0574    1.7715  -18.7691 H   0  0  0  0  0  0  0  0  0  0  0  0
   -4.6033    0.6300  -17.2140 H   0  0  0  0  0  0  0  0  0  0  0  0
   -7.7207   -1.6704  -18.5836 H   0  0  0  0  0  0  0  0  0  0  0  0
   -8.3124   -1.8623  -20.8614 H   0  0  0  0  0  0  0  0  0  0  0  0
   -7.6896   -0.7091  -22.0273 H   0  0  0  0  0  0  0  0  0  0  0  0
   -6.6116   -2.7890  -23.3142 N   0  0  0  0  0  0  0  0  0  0  0  0
   -5.5559   -3.6026  -23.9113 C   0  0  0  0  0  0  0  0  0  0  0  0
   -6.0962   -4.6262  -24.9083 C   0  0  0  0  0  0  0  0  0  0  0  0
   -7.0950   -4.0159  -25.9087 C   0  0  0  0  0  0  0  0  0  0  0  0
   -7.2799   -2.5176  -25.6779 C   0  0  0  0  0  0  0  0  0  0  0  0
   -7.5704   -2.1510  -24.2124 C   0  0  1  0  0  0  0  0  0  0  0  0
   -9.0164   -2.4556  -23.8368 C   0  0  0  0  0  0  0  0  0  0  0  0
   -9.4030   -3.7221  -23.4010 C   0  0  0  0  0  0  0  0  0  0  0  0
  -10.7327   -3.9873  -23.0943 C   0  0  0  0  0  0  0  0  0  0  0  0
  -11.7025   -3.0007  -23.2277 C   0  0  0  0  0  0  0  0  0  0  0  0
  -11.3333   -1.7418  -23.6870 C   0  0  0  0  0  0  0  0  0  0  0  0
  -10.0003   -1.4766  -23.9943 C   0  0  0  0  0  0  0  0  0  0  0  0
   -9.7325   -0.4895  -24.3641 H   0  0  0  0  0  0  0  0  0  0  0  0
  -12.0854   -0.9658  -23.7989 H   0  0  0  0  0  0  0  0  0  0  0  0
  -12.7365   -3.2176  -22.9739 H   0  0  0  0  0  0  0  0  0  0  0  0
  -11.0157   -4.9686  -22.7386 H   0  0  0  0  0  0  0  0  0  0  0  0
   -8.6605   -4.5076  -23.2912 H   0  0  0  0  0  0  0  0  0  0  0  0
   -7.4408   -1.0636  -24.1367 H   0  0  0  0  0  0  0  0  0  0  0  0
   -6.4026   -1.9660  -26.0307 H   0  0  0  0  0  0  0  0  0  0  0  0
   -8.1068   -2.1552  -26.2909 H   0  0  0  0  0  0  0  0  0  0  0  0
   -8.0666   -4.5161  -25.8210 H   0  0  0  0  0  0  0  0  0  0  0  0
   -6.7642   -4.1823  -26.9395 H   0  0  0  0  0  0  0  0  0  0  0  0
   -5.2517   -5.0748  -25.4392 H   0  0  0  0  0  0  0  0  0  0  0  0
   -6.5704   -5.4443  -24.3601 H   0  0  0  0  0  0  0  0  0  0  0  0
   -4.8321   -2.9433  -24.4108 H   0  0  0  0  0  0  0  0  0  0  0  0
   -5.0277   -4.0983  -23.1001 H   0  0  0  0  0  0  0  0  0  0  0  0
  1  2  2  0
  2  3  1  0
  3  4  1  0
  4  5  2  0
  5  6  1  0
  6  7  2  0
  7  8  1  0
  8  9  2  0
  9 10  1  0
 10 11  2  0
 11 12  1  0
 12 13  2  0
 12 14  1  0
 11 15  1  0
 10 16  1  0
  9 17  1  0
  7 18  1  0
  5 19  1  0
  3 20  1  0
  3 21  1  0
  2 22  1  0
 22 23  1  0
 23 24  1  0
 24 25  1  0
 25 26  1  0
 26 27  1  0
 27 28  1  0
 28 29  2  0
 29 30  1  0
 30 31  2  0
 31 32  1  0
 32 33  2  0
 33 34  1  0
 32 35  1  0
 31 36  1  0
 30 37  1  0
 29 38  1  0
 27 39  1  6
 26 40  1  0
 26 41  1  0
 25 42  1  0
 25 43  1  0
 24 44  1  0
 24 45  1  0
 23 46  1  0
 23 47  1  0
 13  4  1  0
 27 22  1  0
 33 28  1  0
 13  8  1  0
M  END
>  <cnnaffinities>  (35) 
[5.63591, 5.62641]

>  <score>  (35) 
5.63591

>  <index>  (35) 
36

>  <Smiles>  (35) 
O=C(C(c1c(nc(c2c(c(c(c(c12)[H])[H])[H])[H])[H])[H])([H])[H])N1C(C(C(C([C@]1(c1c(c(c(c(c1[H])[H])[H])[H])[H])[H])([H])[H])([H])[H])([H])[H])([H])[H]

>  <h>  (35) 
<NA>

>  <Training>  (35) 
True

>  <Success>  (35) 
True

>  <enamine_searched>  (35) 
False

>  <enamine_id>  (35) 
nan

$$$$

     RDKit          3D

 56 60  0  0  0  0  0  0  0  0999 V2000
   -8.1785    4.5175  -24.1437 C   0  0  0  0  0  0  0  0  0  0  0  0
   -8.2195    3.3303  -24.9698 N   0  0  0  0  0  0  0  0  0  0  0  0
   -7.4033    2.2842  -24.6741 C   0  0  0  0  0  0  0  0  0  0  0  0
   -6.5696    2.3193  -23.7880 O   0  0  0  0  0  0  0  0  0  0  0  0
   -7.6075    1.0500  -25.5552 C   0  0  0  0  0  0  0  0  0  0  0  0
   -8.5356    0.1168  -24.9375 N   0  0  0  0  0  0  0  0  0  0  0  0
   -8.0666   -1.1548  -24.4081 C   0  0  0  0  0  0  0  0  0  0  0  0
   -8.8219   -1.5520  -23.1061 C   0  0  2  0  0  0  0  0  0  0  0  0
   -8.3598   -0.6579  -21.9234 C   0  0  0  0  0  0  0  0  0  0  0  0
   -8.7168    0.4610  -21.6421 O   0  0  0  0  0  0  0  0  0  0  0  0
   -7.4193   -1.3753  -21.2119 N   0  0  0  0  0  0  0  0  0  0  0  0
   -6.6329   -0.8008  -20.1897 C   0  0  0  0  0  0  0  0  0  0  0  0
   -6.9259   -1.0760  -18.8793 C   0  0  0  0  0  0  0  0  0  0  0  0
   -6.2427   -0.5842  -17.8172 N   0  0  0  0  0  0  0  0  0  0  0  0
   -5.2169    0.1905  -18.0816 C   0  0  0  0  0  0  0  0  0  0  0  0
   -4.7762    0.5155  -19.3959 C   0  0  0  0  0  0  0  0  0  0  0  0
   -3.6388    1.3356  -19.6166 C   0  0  0  0  0  0  0  0  0  0  0  0
   -3.2166    1.6083  -20.8861 C   0  0  0  0  0  0  0  0  0  0  0  0
   -3.9153    1.0840  -21.9976 C   0  0  0  0  0  0  0  0  0  0  0  0
   -5.0271    0.2979  -21.8124 C   0  0  0  0  0  0  0  0  0  0  0  0
   -5.4891   -0.0003  -20.4999 C   0  0  0  0  0  0  0  0  0  0  0  0
   -5.5662   -0.0754  -22.6806 H   0  0  0  0  0  0  0  0  0  0  0  0
   -3.5839    1.3200  -23.0038 H   0  0  0  0  0  0  0  0  0  0  0  0
   -2.3431    2.2330  -21.0479 H   0  0  0  0  0  0  0  0  0  0  0  0
   -3.1239    1.7342  -18.7464 H   0  0  0  0  0  0  0  0  0  0  0  0
   -4.6704    0.6024  -17.2339 H   0  0  0  0  0  0  0  0  0  0  0  0
   -7.7700   -1.7267  -18.6545 H   0  0  0  0  0  0  0  0  0  0  0  0
   -7.1913   -2.7241  -21.6763 C   0  0  0  0  0  0  0  0  0  0  0  0
   -8.3785   -2.9656  -22.6140 C   0  0  2  0  0  0  0  0  0  0  0  0
   -8.1050   -3.9962  -23.6995 C   0  0  0  0  0  0  0  0  0  0  0  0
   -7.9306   -4.9813  -23.2532 H   0  0  0  0  0  0  0  0  0  0  0  0
   -8.9581   -4.0634  -24.3845 H   0  0  0  0  0  0  0  0  0  0  0  0
   -7.2149   -3.7236  -24.2817 H   0  0  0  0  0  0  0  0  0  0  0  0
   -9.1804   -3.3481  -21.9778 H   0  0  0  0  0  0  0  0  0  0  0  0
   -7.1798   -3.4205  -20.8318 H   0  0  0  0  0  0  0  0  0  0  0  0
   -6.2217   -2.8234  -22.1891 H   0  0  0  0  0  0  0  0  0  0  0  0
  -10.3102   -1.3944  -23.3601 C   0  0  0  0  0  0  0  0  0  0  0  0
  -11.2489   -2.0701  -22.5718 C   0  0  0  0  0  0  0  0  0  0  0  0
  -12.6050   -1.8485  -22.7231 C   0  0  0  0  0  0  0  0  0  0  0  0
  -13.0762   -1.0199  -23.7437 C   0  0  0  0  0  0  0  0  0  0  0  0
  -12.1691   -0.3781  -24.5651 C   0  0  0  0  0  0  0  0  0  0  0  0
  -10.7972   -0.5138  -24.3368 C   0  0  0  0  0  0  0  0  0  0  0  0
   -9.8630    0.3783  -25.0962 C   0  0  0  0  0  0  0  0  0  0  0  0
  -10.2578    1.3225  -25.7806 O   0  0  0  0  0  0  0  0  0  0  0  0
  -12.4894    0.2073  -25.4197 H   0  0  0  0  0  0  0  0  0  0  0  0
  -14.1419   -0.8487  -23.8680 H   0  0  0  0  0  0  0  0  0  0  0  0
  -13.2998   -2.3361  -22.0462 H   0  0  0  0  0  0  0  0  0  0  0  0
  -10.9337   -2.7748  -21.8083 H   0  0  0  0  0  0  0  0  0  0  0  0
   -6.9909   -1.0596  -24.2113 H   0  0  0  0  0  0  0  0  0  0  0  0
   -8.2120   -1.9438  -25.1629 H   0  0  0  0  0  0  0  0  0  0  0  0
   -6.6520    0.5437  -25.7093 H   0  0  0  0  0  0  0  0  0  0  0  0
   -8.0037    1.3551  -26.5256 H   0  0  0  0  0  0  0  0  0  0  0  0
   -9.0725    3.0919  -25.4551 H   0  0  0  0  0  0  0  0  0  0  0  0
   -7.1516    4.8890  -24.0932 H   0  0  0  0  0  0  0  0  0  0  0  0
   -8.5237    4.3073  -23.1248 H   0  0  0  0  0  0  0  0  0  0  0  0
   -8.8141    5.2766  -24.6027 H   0  0  0  0  0  0  0  0  0  0  0  0
  1  2  1  0
  2  3  1  0
  3  4  2  0
  3  5  1  0
  5  6  1  0
  6  7  1  0
  8  7  1  6
  8  9  1  0
  9 10  2  0
  9 11  1  0
 11 12  1  0
 12 13  2  0
 13 14  1  0
 14 15  2  0
 15 16  1  0
 16 17  2  0
 17 18  1  0
 18 19  2  0
 19 20  1  0
 20 21  2  0
 20 22  1  0
 19 23  1  0
 18 24  1  0
 17 25  1  0
 15 26  1  0
 13 27  1  0
 11 28  1  0
 28 29  1  0
 29 30  1  0
 30 31  1  0
 30 32  1  0
 30 33  1  0
 29 34  1  1
 28 35  1  0
 28 36  1  0
  8 37  1  0
 37 38  2  0
 38 39  1  0
 39 40  2  0
 40 41  1  0
 41 42  2  0
 42 43  1  0
 43 44  2  0
 41 45  1  0
 40 46  1  0
 39 47  1  0
 38 48  1  0
  7 49  1  0
  7 50  1  0
  5 51  1  0
  5 52  1  0
  2 53  1  0
  1 54  1  0
  1 55  1  0
  1 56  1  0
 43  6  1  0
 29  8  1  0
 42 37  1  0
 21 12  1  0
 21 16  1  0
M  END
>  <cnnaffinities>  (36) 
[6.38072, 6.20627, 5.85036]

>  <score>  (36) 
6.38072

>  <index>  (36) 
37

>  <Smiles>  (36) 
C(N(C(=O)C(N1C([C@@]2(C(=O)N(c3c(nc(c4c(c(c(c(c34)[H])[H])[H])[H])[H])[H])C([C@@]2(C([H])([H])[H])[H])([H])[H])c2c(c(c(c(c2C1=O)[H])[H])[H])[H])([H])[H])([H])[H])[H])([H])([H])[H]

>  <h>  (36) 
<NA>

>  <Training>  (36) 
True

>  <Success>  (36) 
True

>  <enamine_searched>  (36) 
False

>  <enamine_id>  (36) 
nan

$$$$

     RDKit          3D

 46 48  0  0  0  0  0  0  0  0999 V2000
   -8.1582   -4.6950  -26.5425 C   0  0  0  0  0  0  0  0  0  0  0  0
   -8.6539   -4.9602  -25.1187 C   0  0  1  0  0  0  0  0  0  0  0  0
   -7.5895   -5.5253  -24.1815 C   0  0  0  0  0  0  0  0  0  0  0  0
   -6.6147   -4.5189  -23.5537 C   0  0  1  0  0  0  0  0  0  0  0  0
   -5.4119   -4.1594  -24.4401 C   0  0  0  0  0  0  0  0  0  0  0  0
   -4.6104   -3.7369  -23.8270 H   0  0  0  0  0  0  0  0  0  0  0  0
   -5.6630   -3.4312  -25.2143 H   0  0  0  0  0  0  0  0  0  0  0  0
   -5.0158   -5.0545  -24.9372 H   0  0  0  0  0  0  0  0  0  0  0  0
   -7.3246   -3.3383  -23.0137 N   0  0  0  0  0  0  0  0  0  0  0  0
   -6.7223   -2.7037  -21.9373 C   0  0  0  0  0  0  0  0  0  0  0  0
   -5.6796   -3.1242  -21.4621 O   0  0  0  0  0  0  0  0  0  0  0  0
   -7.4064   -1.4701  -21.2810 C   0  0  0  0  0  0  0  0  0  0  0  0
   -6.5778   -0.8345  -20.1840 C   0  0  0  0  0  0  0  0  0  0  0  0
   -6.8723   -1.0481  -18.8625 C   0  0  0  0  0  0  0  0  0  0  0  0
   -6.1897   -0.5435  -17.7969 N   0  0  0  0  0  0  0  0  0  0  0  0
   -5.1596    0.2230  -18.0638 C   0  0  0  0  0  0  0  0  0  0  0  0
   -4.7224    0.5310  -19.3799 C   0  0  0  0  0  0  0  0  0  0  0  0
   -3.5943    1.3579  -19.6221 C   0  0  0  0  0  0  0  0  0  0  0  0
   -3.1928    1.6348  -20.9011 C   0  0  0  0  0  0  0  0  0  0  0  0
   -3.9050    1.0921  -21.9935 C   0  0  0  0  0  0  0  0  0  0  0  0
   -5.0007    0.2900  -21.7860 C   0  0  0  0  0  0  0  0  0  0  0  0
   -5.4453   -0.0132  -20.4727 C   0  0  0  0  0  0  0  0  0  0  0  0
   -5.5310   -0.1254  -22.6378 H   0  0  0  0  0  0  0  0  0  0  0  0
   -3.5807    1.3138  -23.0058 H   0  0  0  0  0  0  0  0  0  0  0  0
   -2.3310    2.2717  -21.0873 H   0  0  0  0  0  0  0  0  0  0  0  0
   -3.0581    1.7719  -18.7704 H   0  0  0  0  0  0  0  0  0  0  0  0
   -4.6039    0.6295  -17.2152 H   0  0  0  0  0  0  0  0  0  0  0  0
   -7.7207   -1.6716  -18.5861 H   0  0  0  0  0  0  0  0  0  0  0  0
   -7.6710   -0.7133  -22.0317 H   0  0  0  0  0  0  0  0  0  0  0  0
   -8.3586   -1.8080  -20.8481 H   0  0  0  0  0  0  0  0  0  0  0  0
   -8.4100   -2.7194  -23.7934 C   0  0  1  0  0  0  0  0  0  0  0  0
   -7.9392   -1.6594  -24.8005 C   0  0  0  0  0  0  0  0  0  0  0  0
   -7.4432   -2.0880  -25.6753 H   0  0  0  0  0  0  0  0  0  0  0  0
   -8.7983   -1.0846  -25.1697 H   0  0  0  0  0  0  0  0  0  0  0  0
   -7.2435   -0.9499  -24.3423 H   0  0  0  0  0  0  0  0  0  0  0  0
   -9.3298   -3.7776  -24.4247 C   0  0  0  0  0  0  0  0  0  0  0  0
   -9.9794   -4.1697  -23.6350 H   0  0  0  0  0  0  0  0  0  0  0  0
   -9.9960   -3.2773  -25.1354 H   0  0  0  0  0  0  0  0  0  0  0  0
   -9.0329   -2.1946  -23.0632 H   0  0  0  0  0  0  0  0  0  0  0  0
   -6.1938   -5.0179  -22.6794 H   0  0  0  0  0  0  0  0  0  0  0  0
   -8.0924   -6.0553  -23.3654 H   0  0  0  0  0  0  0  0  0  0  0  0
   -7.0109   -6.2882  -24.7143 H   0  0  0  0  0  0  0  0  0  0  0  0
   -9.4276   -5.7358  -25.2235 H   0  0  0  0  0  0  0  0  0  0  0  0
   -7.9238   -5.6406  -27.0466 H   0  0  0  0  0  0  0  0  0  0  0  0
   -8.9306   -4.1942  -27.1376 H   0  0  0  0  0  0  0  0  0  0  0  0
   -7.2552   -4.0807  -26.5811 H   0  0  0  0  0  0  0  0  0  0  0  0
  1  2  1  0
  2  3  1  0
  3  4  1  0
  4  5  1  0
  5  6  1  0
  5  7  1  0
  5  8  1  0
  4  9  1  0
  9 10  1  0
 10 11  2  0
 10 12  1  0
 12 13  1  0
 13 14  2  0
 14 15  1  0
 15 16  2  0
 16 17  1  0
 17 18  2  0
 18 19  1  0
 19 20  2  0
 20 21  1  0
 21 22  2  0
 21 23  1  0
 20 24  1  0
 19 25  1  0
 18 26  1  0
 16 27  1  0
 14 28  1  0
 12 29  1  0
 12 30  1  0
  9 31  1  0
 31 32  1  0
 32 33  1  0
 32 34  1  0
 32 35  1  0
 31 36  1  0
 36 37  1  0
 36 38  1  0
 31 39  1  1
  4 40  1  1
  3 41  1  0
  3 42  1  0
  2 43  1  6
  1 44  1  0
  1 45  1  0
  1 46  1  0
 36  2  1  0
 22 13  1  0
 22 17  1  0
M  END
>  <cnnaffinities>  (37) 
[5.35546]

>  <score>  (37) 
5.35546

>  <index>  (37) 
38

>  <Smiles>  (37) 
C([C@]1(C([C@@](C([H])([H])[H])(N(C(=O)C(c2c(nc(c3c(c(c(c(c23)[H])[H])[H])[H])[H])[H])([H])[H])[C@@](C([H])([H])[H])(C1([H])[H])[H])[H])([H])[H])[H])([H])([H])[H]

>  <h>  (37) 
<NA>

>  <Training>  (37) 
True

>  <Success>  (37) 
True

>  <enamine_searched>  (37) 
False

>  <enamine_id>  (37) 
nan

$$$$

     RDKit          3D

 40 44  0  0  0  0  0  0  0  0999 V2000
   -7.2396    0.9292  -25.5957 C   0  0  0  0  0  0  0  0  0  0  0  0
   -6.5128   -0.3946  -25.4088 C   0  0  0  0  0  0  0  0  0  0  0  0
   -5.3031   -0.5111  -25.5528 O   0  0  0  0  0  0  0  0  0  0  0  0
   -7.2739   -1.4750  -25.0819 N   0  0  0  0  0  0  0  0  0  0  0  0
   -6.6392   -2.7657  -24.7366 C   0  0  0  0  0  0  0  0  0  0  0  0
   -7.8112   -3.4855  -24.0460 C   0  0  2  0  0  0  0  0  0  0  0  0
   -9.0041   -2.9601  -24.8622 C   0  0  0  0  0  0  0  0  0  0  0  0
   -8.6624   -1.4869  -24.5553 C   0  0  1  0  0  0  0  0  0  0  0  0
   -8.5653   -1.5553  -23.0861 C   0  0  0  0  0  0  0  0  0  0  0  0
   -8.1663   -0.6128  -22.0828 C   0  0  0  0  0  0  0  0  0  0  0  0
   -8.3490    0.5780  -21.9892 O   0  0  0  0  0  1  0  0  0  0  0  0
   -7.4017   -1.3913  -21.1790 N   0  0  0  0  0  0  0  0  0  0  0  0
   -6.5822   -0.8251  -20.1687 C   0  0  0  0  0  0  0  0  0  0  0  0
   -6.8909   -1.0592  -18.8549 C   0  0  0  0  0  0  0  0  0  0  0  0
   -6.1986   -0.5485  -17.8079 N   0  0  0  0  0  0  0  0  0  0  0  0
   -5.1699    0.2161  -18.0794 C   0  0  0  0  0  0  0  0  0  0  0  0
   -4.7306    0.5305  -19.3970 C   0  0  0  0  0  0  0  0  0  0  0  0
   -3.5964    1.3553  -19.6307 C   0  0  0  0  0  0  0  0  0  0  0  0
   -3.1845    1.6255  -20.9065 C   0  0  0  0  0  0  0  0  0  0  0  0
   -3.8830    1.0714  -22.0047 C   0  0  0  0  0  0  0  0  0  0  0  0
   -4.9769    0.2668  -21.8052 C   0  0  0  0  0  0  0  0  0  0  0  0
   -5.4472   -0.0097  -20.4884 C   0  0  0  0  0  0  0  0  0  0  0  0
   -5.4785   -0.1600  -22.6717 H   0  0  0  0  0  0  0  0  0  0  0  0
   -3.5597    1.2846  -23.0199 H   0  0  0  0  0  0  0  0  0  0  0  0
   -2.3249    2.2669  -21.0858 H   0  0  0  0  0  0  0  0  0  0  0  0
   -3.0766    1.7667  -18.7700 H   0  0  0  0  0  0  0  0  0  0  0  0
   -4.6266    0.6216  -17.2258 H   0  0  0  0  0  0  0  0  0  0  0  0
   -7.7412   -1.6854  -18.5995 H   0  0  0  0  0  0  0  0  0  0  0  0
   -7.2463   -2.7067  -21.6366 C   0  0  0  0  0  0  0  0  0  0  0  0
   -6.5163   -3.5521  -21.1778 O   0  0  0  0  0  0  0  0  0  0  0  0
   -8.0635   -2.7880  -22.7614 N   0  0  0  0  0  0  0  0  0  0  0  0
   -9.2827   -0.6923  -24.9783 H   0  0  0  0  0  0  0  0  0  0  0  0
   -9.9662   -3.2769  -24.4626 H   0  0  0  0  0  0  0  0  0  0  0  0
   -8.9257   -3.1964  -25.9274 H   0  0  0  0  0  0  0  0  0  0  0  0
   -7.7001   -4.5530  -23.9046 H   0  0  0  0  0  0  0  0  0  0  0  0
   -5.7893   -2.6264  -24.0589 H   0  0  0  0  0  0  0  0  0  0  0  0
   -6.2949   -3.2673  -25.6432 H   0  0  0  0  0  0  0  0  0  0  0  0
   -6.4878    1.6579  -25.9019 H   0  0  0  0  0  0  0  0  0  0  0  0
   -7.7266    1.2561  -24.6689 H   0  0  0  0  0  0  0  0  0  0  0  0
   -8.0187    0.8641  -26.3650 H   0  0  0  0  0  0  0  0  0  0  0  0
  1  2  1  0
  2  3  2  0
  2  4  1  0
  4  5  1  0
  5  6  1  0
  6  7  1  0
  7  8  1  0
  8  9  1  0
  9 10  2  0
 10 11  1  0
 10 12  1  0
 12 13  1  0
 13 14  2  0
 14 15  1  0
 15 16  2  0
 16 17  1  0
 17 18  2  0
 18 19  1  0
 19 20  2  0
 20 21  1  0
 21 22  2  0
 21 23  1  0
 20 24  1  0
 19 25  1  0
 18 26  1  0
 16 27  1  0
 14 28  1  0
 12 29  1  0
 29 30  2  0
 29 31  1  0
  8 32  1  1
  7 33  1  0
  7 34  1  0
  6 35  1  1
  5 36  1  0
  5 37  1  0
  1 38  1  0
  1 39  1  0
  1 40  1  0
  8  4  1  0
 31  9  1  0
 31  6  1  0
 22 13  1  0
 22 17  1  0
M  CHG  1  11  -1
M  END
>  <cnnaffinities>  (38) 
[5.40634, 5.5207, 5.36865]

>  <score>  (38) 
5.40634

>  <index>  (38) 
39

>  <Smiles>  (38) 
C(C(=O)N1C([C@@]2(C([C@]1(c1c([O-])n(c3c(nc(c4c(c(c(c(c34)[H])[H])[H])[H])[H])[H])c(=O)n21)[H])([H])[H])[H])([H])[H])([H])([H])[H]

>  <h>  (38) 
<NA>

>  <Training>  (38) 
True

>  <Success>  (38) 
True

>  <enamine_searched>  (38) 
False

>  <enamine_id>  (38) 
nan

$$$$

     RDKit          3D

 40 42  0  0  0  0  0  0  0  0999 V2000
   -6.4973    1.4272  -26.8588 C   0  0  0  0  0  0  0  0  0  0  0  0
   -7.5016    1.0186  -25.7824 C   0  0  0  0  0  0  0  0  0  0  0  0
   -7.4163    1.9179  -24.5541 C   0  0  0  0  0  0  0  0  0  0  0  0
   -8.3903    1.4852  -23.4649 C   0  0  0  0  0  0  0  0  0  0  0  0
   -8.1732    0.0834  -23.1340 N   0  0  0  0  0  0  0  0  0  0  0  0
   -8.3118   -0.2962  -21.8038 C   0  0  0  0  0  0  0  0  0  0  0  0
   -9.0314    0.2968  -21.0304 O   0  0  0  0  0  0  0  0  0  0  0  0
   -7.4207   -1.4248  -21.2798 C   0  0  0  0  0  0  0  0  0  0  0  0
   -6.5615   -0.8446  -20.1746 C   0  0  0  0  0  0  0  0  0  0  0  0
   -6.8739   -1.0435  -18.8563 C   0  0  0  0  0  0  0  0  0  0  0  0
   -6.1917   -0.5360  -17.7943 N   0  0  0  0  0  0  0  0  0  0  0  0
   -5.1587    0.2235  -18.0645 C   0  0  0  0  0  0  0  0  0  0  0  0
   -4.7250    0.5360  -19.3797 C   0  0  0  0  0  0  0  0  0  0  0  0
   -3.6040    1.3683  -19.6234 C   0  0  0  0  0  0  0  0  0  0  0  0
   -3.2136    1.6624  -20.9001 C   0  0  0  0  0  0  0  0  0  0  0  0
   -3.9327    1.1287  -21.9931 C   0  0  0  0  0  0  0  0  0  0  0  0
   -5.0189    0.3169  -21.7851 C   0  0  0  0  0  0  0  0  0  0  0  0
   -5.4492   -0.0036  -20.4720 C   0  0  0  0  0  0  0  0  0  0  0  0
   -5.5491   -0.0917  -22.6391 H   0  0  0  0  0  0  0  0  0  0  0  0
   -3.6169    1.3617  -23.0070 H   0  0  0  0  0  0  0  0  0  0  0  0
   -2.3583    2.3105  -21.0836 H   0  0  0  0  0  0  0  0  0  0  0  0
   -3.0700    1.7774  -18.7683 H   0  0  0  0  0  0  0  0  0  0  0  0
   -4.6060    0.6284  -17.2135 H   0  0  0  0  0  0  0  0  0  0  0  0
   -7.7274   -1.6614  -18.5775 H   0  0  0  0  0  0  0  0  0  0  0  0
   -6.8205   -1.8643  -22.0866 H   0  0  0  0  0  0  0  0  0  0  0  0
   -8.0706   -2.1972  -20.8480 H   0  0  0  0  0  0  0  0  0  0  0  0
   -8.2765   -0.8315  -24.2624 C   0  0  0  0  0  0  0  0  0  0  0  0
   -7.3086   -0.4348  -25.3653 C   0  0  0  0  0  0  0  0  0  0  0  0
   -6.2830   -0.5738  -25.0058 H   0  0  0  0  0  0  0  0  0  0  0  0
   -7.4315   -1.0942  -26.2302 H   0  0  0  0  0  0  0  0  0  0  0  0
   -8.0800   -1.8388  -23.8989 H   0  0  0  0  0  0  0  0  0  0  0  0
   -9.2994   -0.8395  -24.6753 H   0  0  0  0  0  0  0  0  0  0  0  0
   -9.4235    1.6824  -23.7863 H   0  0  0  0  0  0  0  0  0  0  0  0
   -8.2392    2.0555  -22.5483 H   0  0  0  0  0  0  0  0  0  0  0  0
   -6.3948    1.8919  -24.1534 H   0  0  0  0  0  0  0  0  0  0  0  0
   -7.6025    2.9576  -24.8384 H   0  0  0  0  0  0  0  0  0  0  0  0
   -8.5140    1.1190  -26.1978 H   0  0  0  0  0  0  0  0  0  0  0  0
   -5.4702    1.3396  -26.4834 H   0  0  0  0  0  0  0  0  0  0  0  0
   -6.6404    2.4668  -27.1766 H   0  0  0  0  0  0  0  0  0  0  0  0
   -6.5733    0.7873  -27.7462 H   0  0  0  0  0  0  0  0  0  0  0  0
  1  2  1  0
  2  3  1  0
  3  4  1  0
  4  5  1  0
  5  6  1  0
  6  7  2  0
  6  8  1  0
  8  9  1  0
  9 10  2  0
 10 11  1  0
 11 12  2  0
 12 13  1  0
 13 14  2  0
 14 15  1  0
 15 16  2  0
 16 17  1  0
 17 18  2  0
 17 19  1  0
 16 20  1  0
 15 21  1  0
 14 22  1  0
 12 23  1  0
 10 24  1  0
  8 25  1  0
  8 26  1  0
  5 27  1  0
 27 28  1  0
 28 29  1  0
 28 30  1  0
 27 31  1  0
 27 32  1  0
  4 33  1  0
  4 34  1  0
  3 35  1  0
  3 36  1  0
  2 37  1  0
  1 38  1  0
  1 39  1  0
  1 40  1  0
 28  2  1  0
 18  9  1  0
 18 13  1  0
M  END
>  <cnnaffinities>  (39) 
[4.92044, 4.92047, 4.97626, 5.05596, 5.03414, 5.03415, 4.61306, 4.61292, 4.89408]

>  <score>  (39) 
4.92044

>  <index>  (39) 
40

>  <Smiles>  (39) 
C(C1(C(C(N(C(=O)C(c2c(nc(c3c(c(c(c(c23)[H])[H])[H])[H])[H])[H])([H])[H])C(C1([H])[H])([H])[H])([H])[H])([H])[H])[H])([H])([H])[H]

>  <h>  (39) 
<NA>

>  <Training>  (39) 
True

>  <Success>  (39) 
True

>  <enamine_searched>  (39) 
False

>  <enamine_id>  (39) 
nan

$$$$

     RDKit          3D

 67 71  0  0  0  0  0  0  0  0999 V2000
   -7.9379    2.3947  -22.0060 C   0  0  0  0  0  0  0  0  0  0  0  0
   -8.8071    1.9562  -23.0792 N   0  0  0  0  0  0  0  0  0  0  0  0
   -8.3683    1.3786  -24.2192 C   0  0  0  0  0  0  0  0  0  0  0  0
   -7.1904    1.2751  -24.5321 O   0  0  0  0  0  0  0  0  0  0  0  0
   -9.5050    0.7237  -25.0201 C   0  0  0  0  0  0  0  0  0  0  0  0
   -9.9908   -0.4000  -24.2307 N   0  0  0  0  0  0  0  0  0  0  0  0
   -9.0294   -1.4490  -23.9675 C   0  0  0  0  0  0  0  0  0  0  0  0
   -9.2010   -2.0864  -22.5624 C   0  0  2  0  0  0  0  0  0  0  0  0
   -8.6195   -1.1343  -21.4703 C   0  0  0  0  0  0  0  0  0  0  0  0
   -9.1344   -0.1674  -20.9391 O   0  0  0  0  0  0  0  0  0  0  0  0
   -7.3323   -1.5315  -21.1883 N   0  0  0  0  0  0  0  0  0  0  0  0
   -6.5800   -0.9051  -20.1603 C   0  0  0  0  0  0  0  0  0  0  0  0
   -6.9355   -1.0694  -18.8419 C   0  0  0  0  0  0  0  0  0  0  0  0
   -6.2533   -0.5416  -17.7959 N   0  0  0  0  0  0  0  0  0  0  0  0
   -5.2078    0.2013  -18.0678 C   0  0  0  0  0  0  0  0  0  0  0  0
   -4.7522    0.4875  -19.3858 C   0  0  0  0  0  0  0  0  0  0  0  0
   -3.6367    1.3334  -19.6275 C   0  0  0  0  0  0  0  0  0  0  0  0
   -3.2511    1.6276  -20.9062 C   0  0  0  0  0  0  0  0  0  0  0  0
   -3.9547    1.0829  -22.0016 C   0  0  0  0  0  0  0  0  0  0  0  0
   -5.0268    0.2437  -21.7927 C   0  0  0  0  0  0  0  0  0  0  0  0
   -5.4531   -0.0800  -20.4752 C   0  0  0  0  0  0  0  0  0  0  0  0
   -5.5940   -0.1119  -22.6489 H   0  0  0  0  0  0  0  0  0  0  0  0
   -3.6662    1.3427  -23.0157 H   0  0  0  0  0  0  0  0  0  0  0  0
   -2.4124    2.2948  -21.0872 H   0  0  0  0  0  0  0  0  0  0  0  0
   -3.1138    1.7488  -18.7708 H   0  0  0  0  0  0  0  0  0  0  0  0
   -4.6624    0.6240  -17.2228 H   0  0  0  0  0  0  0  0  0  0  0  0
   -7.8032   -1.6717  -18.5793 H   0  0  0  0  0  0  0  0  0  0  0  0
   -6.8881   -2.6601  -21.9841 C   0  0  0  0  0  0  0  0  0  0  0  0
   -8.2252   -3.2939  -22.4222 C   0  0  2  0  0  0  0  0  0  0  0  0
   -8.1888   -4.1380  -23.6947 C   0  0  0  0  0  0  0  0  0  0  0  0
   -7.3998   -5.7144  -23.5394 S   0  0  0  0  0  0  0  0  0  0  0  0
   -7.9272   -6.3810  -22.3587 O   0  0  0  0  0  0  0  0  0  0  0  0
   -7.4787   -6.3634  -24.8403 O   0  0  0  0  0  0  0  0  0  0  0  0
   -5.7987   -5.2915  -23.2327 N   0  0  0  0  0  0  0  0  0  0  0  0
   -5.1174   -4.6649  -24.3676 C   0  0  0  0  0  0  0  0  0  0  0  0
   -5.5119   -3.6594  -24.5557 H   0  0  0  0  0  0  0  0  0  0  0  0
   -4.0713   -4.5576  -24.0781 H   0  0  0  0  0  0  0  0  0  0  0  0
   -5.1893   -5.2634  -25.2857 H   0  0  0  0  0  0  0  0  0  0  0  0
   -5.0454   -6.4109  -22.6584 C   0  0  0  0  0  0  0  0  0  0  0  0
   -4.0796   -6.0143  -22.3327 H   0  0  0  0  0  0  0  0  0  0  0  0
   -4.8835   -7.2354  -23.3700 H   0  0  0  0  0  0  0  0  0  0  0  0
   -5.5972   -6.7845  -21.7941 H   0  0  0  0  0  0  0  0  0  0  0  0
   -7.6829   -3.6240  -24.5175 H   0  0  0  0  0  0  0  0  0  0  0  0
   -9.2080   -4.3742  -24.0269 H   0  0  0  0  0  0  0  0  0  0  0  0
   -8.5747   -3.9261  -21.6009 H   0  0  0  0  0  0  0  0  0  0  0  0
   -6.3056   -2.3322  -22.8631 H   0  0  0  0  0  0  0  0  0  0  0  0
   -6.2638   -3.3328  -21.3947 H   0  0  0  0  0  0  0  0  0  0  0  0
  -10.6798   -2.4168  -22.3970 C   0  0  0  0  0  0  0  0  0  0  0  0
  -11.1287   -3.4432  -21.5525 C   0  0  0  0  0  0  0  0  0  0  0  0
  -12.4672   -3.5025  -21.2057 C   0  0  0  0  0  0  0  0  0  0  0  0
  -12.8705   -4.3772  -20.2683 F   0  0  0  0  0  0  0  0  0  0  0  0
  -13.4339   -2.6615  -21.7344 C   0  0  0  0  0  0  0  0  0  0  0  0
  -13.0220   -1.7682  -22.6998 C   0  0  0  0  0  0  0  0  0  0  0  0
  -11.6731   -1.6531  -23.0397 C   0  0  0  0  0  0  0  0  0  0  0  0
  -11.3324   -0.6292  -24.0810 C   0  0  0  0  0  0  0  0  0  0  0  0
  -12.1846   -0.0129  -24.6999 O   0  0  0  0  0  0  0  0  0  0  0  0
  -13.7284   -1.1183  -23.2002 H   0  0  0  0  0  0  0  0  0  0  0  0
  -14.4531   -2.7239  -21.3659 H   0  0  0  0  0  0  0  0  0  0  0  0
  -10.4608   -4.1830  -21.1236 H   0  0  0  0  0  0  0  0  0  0  0  0
   -8.0370   -1.0018  -24.0462 H   0  0  0  0  0  0  0  0  0  0  0  0
   -9.1217   -2.2201  -24.7456 H   0  0  0  0  0  0  0  0  0  0  0  0
  -10.3509    1.3924  -25.1798 H   0  0  0  0  0  0  0  0  0  0  0  0
   -9.1375    0.4075  -26.0020 H   0  0  0  0  0  0  0  0  0  0  0  0
   -9.7901    1.8750  -22.8764 H   0  0  0  0  0  0  0  0  0  0  0  0
   -8.3988    2.0808  -21.0682 H   0  0  0  0  0  0  0  0  0  0  0  0
   -6.9760    1.8929  -22.1167 H   0  0  0  0  0  0  0  0  0  0  0  0
   -7.7734    3.4791  -22.0118 H   0  0  0  0  0  0  0  0  0  0  0  0
  1  2  1  0
  2  3  1  0
  3  4  2  0
  3  5  1  0
  5  6  1  0
  6  7  1  0
  8  7  1  6
  8  9  1  0
  9 10  2  0
  9 11  1  0
 11 12  1  0
 12 13  2  0
 13 14  1  0
 14 15  2  0
 15 16  1  0
 16 17  2  0
 17 18  1  0
 18 19  2  0
 19 20  1  0
 20 21  2  0
 20 22  1  0
 19 23  1  0
 18 24  1  0
 17 25  1  0
 15 26  1  0
 13 27  1  0
 11 28  1  0
 28 29  1  0
 29 30  1  0
 30 31  1  0
 31 32  2  0
 31 33  2  0
 31 34  1  0
 34 35  1  0
 35 36  1  0
 35 37  1  0
 35 38  1  0
 34 39  1  0
 39 40  1  0
 39 41  1  0
 39 42  1  0
 30 43  1  0
 30 44  1  0
 29 45  1  1
 28 46  1  0
 28 47  1  0
  8 48  1  0
 48 49  2  0
 49 50  1  0
 50 51  1  0
 50 52  2  0
 52 53  1  0
 53 54  2  0
 54 55  1  0
 55 56  2  0
 53 57  1  0
 52 58  1  0
 49 59  1  0
  7 60  1  0
  7 61  1  0
  5 62  1  0
  5 63  1  0
  2 64  1  0
  1 65  1  0
  1 66  1  0
  1 67  1  0
 55  6  1  0
 29  8  1  0
 54 48  1  0
 21 12  1  0
 21 16  1  0
M  END
>  <cnnaffinities>  (40) 
[7.212, 6.275, 6.97604]

>  <score>  (40) 
7.212

>  <index>  (40) 
41

>  <Smiles>  (40) 
C(N(C(=O)C(N1C([C@@]2(C(=O)N(c3c(nc(c4c(c(c(c(c34)[H])[H])[H])[H])[H])[H])C([C@@]2(C(S(=O)(=O)N(C([H])([H])[H])C([H])([H])[H])([H])[H])[H])([H])[H])c2c(c(F)c(c(c2C1=O)[H])[H])[H])([H])[H])([H])[H])[H])([H])([H])[H]

>  <h>  (40) 
<NA>

>  <Training>  (40) 
True

>  <Success>  (40) 
True

>  <enamine_searched>  (40) 
False

>  <enamine_id>  (40) 
nan

$$$$

     RDKit          3D

 67 72  0  0  0  0  0  0  0  0999 V2000
   -7.8494   -3.3429  -29.1148 C   0  0  0  0  0  0  0  0  0  0  0  0
   -8.5192   -2.3929  -28.2559 N   0  0  0  0  0  0  0  0  0  0  0  0
   -7.8587   -1.7398  -27.2713 C   0  0  0  0  0  0  0  0  0  0  0  0
   -6.7089   -1.9901  -26.9402 O   0  0  0  0  0  0  0  0  0  0  0  0
   -8.6837   -0.6267  -26.6242 C   0  0  0  0  0  0  0  0  0  0  0  0
   -9.3132   -1.0490  -25.3905 N   0  0  0  0  0  0  0  0  0  0  0  0
   -8.6232   -0.7254  -24.1564 C   0  0  0  0  0  0  0  0  0  0  0  0
   -9.0398   -1.5676  -22.9360 C   0  0  2  0  0  0  0  0  0  0  0  0
   -8.5233   -0.7784  -21.7082 C   0  0  0  0  0  0  0  0  0  0  0  0
   -8.9571    0.2648  -21.2665 O   0  0  0  0  0  0  0  0  0  0  0  0
   -7.4126   -1.4236  -21.2068 N   0  0  0  0  0  0  0  0  0  0  0  0
   -6.6179   -0.8252  -20.1922 C   0  0  0  0  0  0  0  0  0  0  0  0
   -6.9338   -1.0489  -18.8788 C   0  0  0  0  0  0  0  0  0  0  0  0
   -6.2376   -0.5563  -17.8221 N   0  0  0  0  0  0  0  0  0  0  0  0
   -5.1997    0.2003  -18.0852 C   0  0  0  0  0  0  0  0  0  0  0  0
   -4.7623    0.5210  -19.4031 C   0  0  0  0  0  0  0  0  0  0  0  0
   -3.6328    1.3512  -19.6311 C   0  0  0  0  0  0  0  0  0  0  0  0
   -3.2356    1.6461  -20.9064 C   0  0  0  0  0  0  0  0  0  0  0  0
   -3.9478    1.1260  -22.0106 C   0  0  0  0  0  0  0  0  0  0  0  0
   -5.0448    0.3229  -21.8152 C   0  0  0  0  0  0  0  0  0  0  0  0
   -5.4823   -0.0049  -20.5005 C   0  0  0  0  0  0  0  0  0  0  0  0
   -5.5874   -0.0642  -22.6718 H   0  0  0  0  0  0  0  0  0  0  0  0
   -3.6238    1.3624  -23.0208 H   0  0  0  0  0  0  0  0  0  0  0  0
   -2.3741    2.2850  -21.0818 H   0  0  0  0  0  0  0  0  0  0  0  0
   -3.0985    1.7447  -18.7699 H   0  0  0  0  0  0  0  0  0  0  0  0
   -4.6303    0.5922  -17.2389 H   0  0  0  0  0  0  0  0  0  0  0  0
   -7.8007   -1.6596  -18.6352 H   0  0  0  0  0  0  0  0  0  0  0  0
   -7.0388   -2.6139  -21.9478 C   0  0  0  0  0  0  0  0  0  0  0  0
   -8.2956   -2.9301  -22.7639 C   0  0  2  0  0  0  0  0  0  0  0  0
   -8.0101   -3.7266  -24.0319 C   0  0  0  0  0  0  0  0  0  0  0  0
   -9.2315   -4.2606  -24.5872 N   0  0  0  0  0  0  0  0  0  0  0  0
   -9.3341   -4.9165  -25.7819 C   0  0  0  0  0  0  0  0  0  0  0  0
  -10.8708   -5.0952  -26.6014 S   0  0  0  0  0  0  0  0  0  0  0  0
  -10.0670   -6.0248  -27.8185 C   0  0  0  0  0  0  0  0  0  0  0  0
   -8.7951   -6.1823  -27.6520 N   0  0  0  0  0  0  0  0  0  0  0  0
   -8.3610   -5.5675  -26.5020 C   0  0  0  0  0  0  0  0  0  0  0  0
   -6.9104   -5.6799  -26.1444 C   0  0  0  0  0  0  0  0  0  0  0  0
   -6.3995   -6.2743  -26.9040 H   0  0  0  0  0  0  0  0  0  0  0  0
   -6.7705   -6.1818  -25.1809 H   0  0  0  0  0  0  0  0  0  0  0  0
   -6.4290   -4.6966  -26.0901 H   0  0  0  0  0  0  0  0  0  0  0  0
  -10.6165   -6.3916  -28.6741 H   0  0  0  0  0  0  0  0  0  0  0  0
  -10.1001   -3.9914  -24.1439 H   0  0  0  0  0  0  0  0  0  0  0  0
   -7.3318   -4.5451  -23.7810 H   0  0  0  0  0  0  0  0  0  0  0  0
   -7.4914   -3.1203  -24.7794 H   0  0  0  0  0  0  0  0  0  0  0  0
   -8.9495   -3.5552  -22.1417 H   0  0  0  0  0  0  0  0  0  0  0  0
   -6.1736   -2.4316  -22.6046 H   0  0  0  0  0  0  0  0  0  0  0  0
   -6.7741   -3.4200  -21.2570 H   0  0  0  0  0  0  0  0  0  0  0  0
  -10.5388   -1.7541  -22.9685 C   0  0  0  0  0  0  0  0  0  0  0  0
  -11.2210   -2.1937  -21.8310 C   0  0  0  0  0  0  0  0  0  0  0  0
  -12.5989   -2.3463  -21.8456 C   0  0  0  0  0  0  0  0  0  0  0  0
  -13.3999   -3.0375  -20.4590 Cl  0  0  0  0  0  0  0  0  0  0  0  0
  -13.3589   -1.9555  -22.9471 C   0  0  0  0  0  0  0  0  0  0  0  0
  -12.6837   -1.4861  -24.0593 C   0  0  0  0  0  0  0  0  0  0  0  0
  -11.2954   -1.5344  -24.1206 C   0  0  0  0  0  0  0  0  0  0  0  0
  -10.6248   -1.4202  -25.4428 C   0  0  0  0  0  0  0  0  0  0  0  0
  -11.1991   -1.6347  -26.5088 O   0  0  0  0  0  0  0  0  0  0  0  0
  -13.2193   -1.0701  -24.9053 H   0  0  0  0  0  0  0  0  0  0  0  0
  -14.4409   -2.0276  -22.9114 H   0  0  0  0  0  0  0  0  0  0  0  0
  -10.6588   -2.3529  -20.9239 H   0  0  0  0  0  0  0  0  0  0  0  0
   -8.7840    0.3296  -23.8987 H   0  0  0  0  0  0  0  0  0  0  0  0
   -7.5528   -0.8633  -24.3396 H   0  0  0  0  0  0  0  0  0  0  0  0
   -8.0221    0.2171  -26.4096 H   0  0  0  0  0  0  0  0  0  0  0  0
   -9.4724   -0.3125  -27.3113 H   0  0  0  0  0  0  0  0  0  0  0  0
   -9.5168   -2.2626  -28.3126 H   0  0  0  0  0  0  0  0  0  0  0  0
   -7.1361   -3.8959  -28.5061 H   0  0  0  0  0  0  0  0  0  0  0  0
   -7.3027   -2.8606  -29.9307 H   0  0  0  0  0  0  0  0  0  0  0  0
   -8.5578   -4.0520  -29.5412 H   0  0  0  0  0  0  0  0  0  0  0  0
  1  2  1  0
  2  3  1  0
  3  4  2  0
  3  5  1  0
  5  6  1  0
  6  7  1  0
  8  7  1  6
  8  9  1  0
  9 10  2  0
  9 11  1  0
 11 12  1  0
 12 13  2  0
 13 14  1  0
 14 15  2  0
 15 16  1  0
 16 17  2  0
 17 18  1  0
 18 19  2  0
 19 20  1  0
 20 21  2  0
 20 22  1  0
 19 23  1  0
 18 24  1  0
 17 25  1  0
 15 26  1  0
 13 27  1  0
 11 28  1  0
 28 29  1  0
 29 30  1  0
 30 31  1  0
 31 32  1  0
 32 33  1  0
 33 34  1  0
 34 35  2  0
 35 36  1  0
 36 37  1  0
 37 38  1  0
 37 39  1  0
 37 40  1  0
 34 41  1  0
 31 42  1  0
 30 43  1  0
 30 44  1  0
 29 45  1  1
 28 46  1  0
 28 47  1  0
  8 48  1  0
 48 49  2  0
 49 50  1  0
 50 51  1  0
 50 52  2  0
 52 53  1  0
 53 54  2  0
 54 55  1  0
 55 56  2  0
 53 57  1  0
 52 58  1  0
 49 59  1  0
  7 60  1  0
  7 61  1  0
  5 62  1  0
  5 63  1  0
  2 64  1  0
  1 65  1  0
  1 66  1  0
  1 67  1  0
 55  6  1  0
 29  8  1  0
 36 32  2  0
 54 48  1  0
 21 12  1  0
 21 16  1  0
M  END
>  <cnnaffinities>  (41) 
[7.2115]

>  <score>  (41) 
7.2115

>  <index>  (41) 
43

>  <Smiles>  (41) 
C(N(C(=O)C(N1C([C@@]2(C(=O)N(c3c(nc(c4c(c(c(c(c34)[H])[H])[H])[H])[H])[H])C([C@@]2(C(N(c2sc(nc2C([H])([H])[H])[H])[H])([H])[H])[H])([H])[H])c2c(c(Cl)c(c(c2C1=O)[H])[H])[H])([H])[H])([H])[H])[H])([H])([H])[H]

>  <h>  (41) 
<NA>

>  <Training>  (41) 
True

>  <Success>  (41) 
True

>  <enamine_searched>  (41) 
False

>  <enamine_id>  (41) 
nan

$$$$

     RDKit          3D

 60 64  0  0  0  0  0  0  0  0999 V2000
   -8.4374    4.4880  -23.6601 C   0  0  0  0  0  0  0  0  0  0  0  0
   -8.4531    3.3898  -24.6079 N   0  0  0  0  0  0  0  0  0  0  0  0
   -7.5720    2.3634  -24.4337 C   0  0  0  0  0  0  0  0  0  0  0  0
   -6.6834    2.3737  -23.5949 O   0  0  0  0  0  0  0  0  0  0  0  0
   -7.7743    1.2050  -25.4142 C   0  0  0  0  0  0  0  0  0  0  0  0
   -8.6540    0.1936  -24.8646 N   0  0  0  0  0  0  0  0  0  0  0  0
   -8.1304   -1.0682  -24.3889 C   0  0  0  0  0  0  0  0  0  0  0  0
   -8.8263   -1.5321  -23.0839 C   0  0  2  0  0  0  0  0  0  0  0  0
   -8.3556   -0.6714  -21.8815 C   0  0  0  0  0  0  0  0  0  0  0  0
   -8.7034    0.4420  -21.5661 O   0  0  0  0  0  0  0  0  0  0  0  0
   -7.4098   -1.4086  -21.1954 N   0  0  0  0  0  0  0  0  0  0  0  0
   -6.6103   -0.8347  -20.1797 C   0  0  0  0  0  0  0  0  0  0  0  0
   -6.9153   -1.0829  -18.8681 C   0  0  0  0  0  0  0  0  0  0  0  0
   -6.2367   -0.5775  -17.8083 N   0  0  0  0  0  0  0  0  0  0  0  0
   -5.2114    0.1942  -18.0803 C   0  0  0  0  0  0  0  0  0  0  0  0
   -4.7678    0.5066  -19.3965 C   0  0  0  0  0  0  0  0  0  0  0  0
   -3.6358    1.3319  -19.6223 C   0  0  0  0  0  0  0  0  0  0  0  0
   -3.2207    1.6094  -20.8913 C   0  0  0  0  0  0  0  0  0  0  0  0
   -3.9191    1.0824  -22.0005 C   0  0  0  0  0  0  0  0  0  0  0  0
   -5.0225    0.2875  -21.8115 C   0  0  0  0  0  0  0  0  0  0  0  0
   -5.4767   -0.0223  -20.4990 C   0  0  0  0  0  0  0  0  0  0  0  0
   -5.5621   -0.0759  -22.6828 H   0  0  0  0  0  0  0  0  0  0  0  0
   -3.5864    1.3136  -23.0065 H   0  0  0  0  0  0  0  0  0  0  0  0
   -2.3514    2.2362  -21.0561 H   0  0  0  0  0  0  0  0  0  0  0  0
   -3.1226    1.7380  -18.7542 H   0  0  0  0  0  0  0  0  0  0  0  0
   -4.6562    0.6086  -17.2384 H   0  0  0  0  0  0  0  0  0  0  0  0
   -7.7703   -1.7147  -18.6366 H   0  0  0  0  0  0  0  0  0  0  0  0
   -7.1644   -2.7336  -21.7201 C   0  0  0  0  0  0  0  0  0  0  0  0
   -8.3479   -2.9434  -22.6671 C   0  0  2  0  0  0  0  0  0  0  0  0
   -8.0454   -3.8850  -23.8123 C   0  0  0  0  0  0  0  0  0  0  0  0
   -7.7995   -5.1532  -23.2685 O   0  0  0  0  0  0  0  0  0  0  0  0
   -7.4601   -6.1027  -24.2411 C   0  0  0  0  0  0  0  0  0  0  0  0
   -6.5393   -5.8282  -24.7764 H   0  0  0  0  0  0  0  0  0  0  0  0
   -7.2973   -7.0512  -23.7265 H   0  0  0  0  0  0  0  0  0  0  0  0
   -8.2600   -6.2353  -24.9845 H   0  0  0  0  0  0  0  0  0  0  0  0
   -8.8936   -3.9081  -24.5157 H   0  0  0  0  0  0  0  0  0  0  0  0
   -7.1693   -3.5241  -24.3769 H   0  0  0  0  0  0  0  0  0  0  0  0
   -9.1455   -3.4107  -22.0906 H   0  0  0  0  0  0  0  0  0  0  0  0
   -6.1968   -2.8063  -22.2399 H   0  0  0  0  0  0  0  0  0  0  0  0
   -7.1535   -3.4637  -20.9107 H   0  0  0  0  0  0  0  0  0  0  0  0
  -10.3176   -1.4335  -23.3069 C   0  0  0  0  0  0  0  0  0  0  0  0
  -11.2004   -2.1043  -22.4598 C   0  0  0  0  0  0  0  0  0  0  0  0
  -12.5583   -1.8914  -22.5816 C   0  0  0  0  0  0  0  0  0  0  0  0
  -13.6010   -2.6568  -21.4315 Cl  0  0  0  0  0  0  0  0  0  0  0  0
  -13.1107   -1.0797  -23.5726 C   0  0  0  0  0  0  0  0  0  0  0  0
  -12.2401   -0.4366  -24.4256 C   0  0  0  0  0  0  0  0  0  0  0  0
  -10.8629   -0.5636  -24.2559 C   0  0  0  0  0  0  0  0  0  0  0  0
   -9.9908    0.3924  -24.9984 C   0  0  0  0  0  0  0  0  0  0  0  0
  -10.4408    1.3374  -25.6434 O   0  0  0  0  0  0  0  0  0  0  0  0
  -12.5944    0.2352  -25.1971 H   0  0  0  0  0  0  0  0  0  0  0  0
  -14.1847   -0.9265  -23.6304 H   0  0  0  0  0  0  0  0  0  0  0  0
  -10.8389   -2.7641  -21.6782 H   0  0  0  0  0  0  0  0  0  0  0  0
   -7.0528   -0.9537  -24.2349 H   0  0  0  0  0  0  0  0  0  0  0  0
   -8.2850   -1.8369  -25.1563 H   0  0  0  0  0  0  0  0  0  0  0  0
   -8.2143    1.5724  -26.3481 H   0  0  0  0  0  0  0  0  0  0  0  0
   -6.8079    0.7387  -25.6071 H   0  0  0  0  0  0  0  0  0  0  0  0
   -9.2958    3.2078  -25.1376 H   0  0  0  0  0  0  0  0  0  0  0  0
   -9.1639    5.2421  -23.9699 H   0  0  0  0  0  0  0  0  0  0  0  0
   -7.4439    4.9487  -23.6435 H   0  0  0  0  0  0  0  0  0  0  0  0
   -8.6897    4.1399  -22.6496 H   0  0  0  0  0  0  0  0  0  0  0  0
  1  2  1  0
  2  3  1  0
  3  4  2  0
  3  5  1  0
  5  6  1  0
  6  7  1  0
  8  7  1  6
  8  9  1  0
  9 10  2  0
  9 11  1  0
 11 12  1  0
 12 13  2  0
 13 14  1  0
 14 15  2  0
 15 16  1  0
 16 17  2  0
 17 18  1  0
 18 19  2  0
 19 20  1  0
 20 21  2  0
 20 22  1  0
 19 23  1  0
 18 24  1  0
 17 25  1  0
 15 26  1  0
 13 27  1  0
 11 28  1  0
 28 29  1  0
 29 30  1  0
 30 31  1  0
 31 32  1  0
 32 33  1  0
 32 34  1  0
 32 35  1  0
 30 36  1  0
 30 37  1  0
 29 38  1  1
 28 39  1  0
 28 40  1  0
  8 41  1  0
 41 42  2  0
 42 43  1  0
 43 44  1  0
 43 45  2  0
 45 46  1  0
 46 47  2  0
 47 48  1  0
 48 49  2  0
 46 50  1  0
 45 51  1  0
 42 52  1  0
  7 53  1  0
  7 54  1  0
  5 55  1  0
  5 56  1  0
  2 57  1  0
  1 58  1  0
  1 59  1  0
  1 60  1  0
 48  6  1  0
 29  8  1  0
 47 41  1  0
 21 12  1  0
 21 16  1  0
M  END
>  <cnnaffinities>  (42) 
[6.93902, 6.66295]

>  <score>  (42) 
6.93902

>  <index>  (42) 
44

>  <Smiles>  (42) 
C(N(C(=O)C(N1C([C@@]2(C(=O)N(c3c(nc(c4c(c(c(c(c34)[H])[H])[H])[H])[H])[H])C([C@@]2(C(OC([H])([H])[H])([H])[H])[H])([H])[H])c2c(c(Cl)c(c(c2C1=O)[H])[H])[H])([H])[H])([H])[H])[H])([H])([H])[H]

>  <h>  (42) 
<NA>

>  <Training>  (42) 
True

>  <Success>  (42) 
True

>  <enamine_searched>  (42) 
False

>  <enamine_id>  (42) 
nan

$$$$

     RDKit          3D

 66 71  0  0  0  0  0  0  0  0999 V2000
   -8.6391    4.4501  -23.2706 C   0  0  0  0  0  0  0  0  0  0  0  0
   -8.6745    3.4114  -24.2812 N   0  0  0  0  0  0  0  0  0  0  0  0
   -7.7325    2.4318  -24.2585 C   0  0  0  0  0  0  0  0  0  0  0  0
   -6.8364    2.4072  -23.4317 O   0  0  0  0  0  0  0  0  0  0  0  0
   -7.8854    1.3423  -25.3239 C   0  0  0  0  0  0  0  0  0  0  0  0
   -8.7145    0.2602  -24.8138 N   0  0  0  0  0  0  0  0  0  0  0  0
   -8.1293   -0.9861  -24.3490 C   0  0  0  0  0  0  0  0  0  0  0  0
   -8.8233   -1.5417  -23.0676 C   0  0  2  0  0  0  0  0  0  0  0  0
   -8.4009   -0.7329  -21.8110 C   0  0  0  0  0  0  0  0  0  0  0  0
   -8.8489    0.3152  -21.4021 O   0  0  0  0  0  0  0  0  0  0  0  0
   -7.3850   -1.4217  -21.1842 N   0  0  0  0  0  0  0  0  0  0  0  0
   -6.6061   -0.8269  -20.1632 C   0  0  0  0  0  0  0  0  0  0  0  0
   -6.9248   -1.0599  -18.8527 C   0  0  0  0  0  0  0  0  0  0  0  0
   -6.2363   -0.5653  -17.7939 N   0  0  0  0  0  0  0  0  0  0  0  0
   -5.1994    0.1930  -18.0558 C   0  0  0  0  0  0  0  0  0  0  0  0
   -4.7512    0.5056  -19.3700 C   0  0  0  0  0  0  0  0  0  0  0  0
   -3.6220    1.3346  -19.5997 C   0  0  0  0  0  0  0  0  0  0  0  0
   -3.2087    1.6085  -20.8717 C   0  0  0  0  0  0  0  0  0  0  0  0
   -3.9148    1.0780  -21.9767 C   0  0  0  0  0  0  0  0  0  0  0  0
   -5.0240    0.2895  -21.7852 C   0  0  0  0  0  0  0  0  0  0  0  0
   -5.4675   -0.0178  -20.4703 C   0  0  0  0  0  0  0  0  0  0  0  0
   -5.5784   -0.0788  -22.6468 H   0  0  0  0  0  0  0  0  0  0  0  0
   -3.5870    1.3083  -22.9852 H   0  0  0  0  0  0  0  0  0  0  0  0
   -2.3418    2.2408  -21.0463 H   0  0  0  0  0  0  0  0  0  0  0  0
   -3.1039    1.7428  -18.7363 H   0  0  0  0  0  0  0  0  0  0  0  0
   -4.6541    0.6049  -17.2061 H   0  0  0  0  0  0  0  0  0  0  0  0
   -7.7883   -1.6815  -18.6237 H   0  0  0  0  0  0  0  0  0  0  0  0
   -7.0651   -2.6990  -21.7780 C   0  0  0  0  0  0  0  0  0  0  0  0
   -8.2628   -2.9611  -22.7054 C   0  0  2  0  0  0  0  0  0  0  0  0
   -7.9218   -3.8734  -23.9017 C   0  0  0  0  0  0  0  0  0  0  0  0
   -7.5404   -5.2866  -23.5172 C   0  0  0  0  0  0  0  0  0  0  0  0
   -8.5110   -6.2901  -23.5245 C   0  0  0  0  0  0  0  0  0  0  0  0
   -8.2150   -7.5869  -23.1180 C   0  0  0  0  0  0  0  0  0  0  0  0
   -6.9208   -7.9115  -22.7249 C   0  0  0  0  0  0  0  0  0  0  0  0
   -5.9275   -6.9314  -22.7525 C   0  0  0  0  0  0  0  0  0  0  0  0
   -6.2334   -5.6306  -23.1496 C   0  0  0  0  0  0  0  0  0  0  0  0
   -5.4333   -4.8875  -23.2156 H   0  0  0  0  0  0  0  0  0  0  0  0
   -4.9022   -7.1880  -22.4912 H   0  0  0  0  0  0  0  0  0  0  0  0
   -6.6736   -8.9271  -22.4244 H   0  0  0  0  0  0  0  0  0  0  0  0
   -9.0087   -8.3310  -23.1177 H   0  0  0  0  0  0  0  0  0  0  0  0
   -9.5114   -6.0543  -23.8817 H   0  0  0  0  0  0  0  0  0  0  0  0
   -8.8033   -3.8980  -24.5589 H   0  0  0  0  0  0  0  0  0  0  0  0
   -7.0995   -3.4139  -24.4699 H   0  0  0  0  0  0  0  0  0  0  0  0
   -9.0164   -3.4800  -22.1021 H   0  0  0  0  0  0  0  0  0  0  0  0
   -6.9534   -3.4750  -21.0127 H   0  0  0  0  0  0  0  0  0  0  0  0
   -6.1112   -2.6684  -22.3277 H   0  0  0  0  0  0  0  0  0  0  0  0
  -10.3264   -1.4620  -23.2690 C   0  0  0  0  0  0  0  0  0  0  0  0
  -11.1848   -2.1701  -22.4134 C   0  0  0  0  0  0  0  0  0  0  0  0
  -12.5576   -2.0143  -22.5023 C   0  0  0  0  0  0  0  0  0  0  0  0
  -13.5758   -2.8516  -21.3528 Cl  0  0  0  0  0  0  0  0  0  0  0  0
  -13.1308   -1.1985  -23.4803 C   0  0  0  0  0  0  0  0  0  0  0  0
  -12.2930   -0.4983  -24.3292 C   0  0  0  0  0  0  0  0  0  0  0  0
  -10.9037   -0.5851  -24.2020 C   0  0  0  0  0  0  0  0  0  0  0  0
  -10.0613    0.3814  -24.9841 C   0  0  0  0  0  0  0  0  0  0  0  0
  -10.5428    1.2852  -25.6658 O   0  0  0  0  0  0  0  0  0  0  0  0
  -12.7068    0.1487  -25.0959 H   0  0  0  0  0  0  0  0  0  0  0  0
  -14.2100   -1.0909  -23.5419 H   0  0  0  0  0  0  0  0  0  0  0  0
  -10.7994   -2.8246  -21.6385 H   0  0  0  0  0  0  0  0  0  0  0  0
   -7.0621   -0.8185  -24.1542 H   0  0  0  0  0  0  0  0  0  0  0  0
   -8.2280   -1.7280  -25.1539 H   0  0  0  0  0  0  0  0  0  0  0  0
   -8.3473    1.7488  -26.2269 H   0  0  0  0  0  0  0  0  0  0  0  0
   -6.8990    0.9559  -25.5907 H   0  0  0  0  0  0  0  0  0  0  0  0
   -9.5308    3.2243  -24.7825 H   0  0  0  0  0  0  0  0  0  0  0  0
   -7.6756    4.9665  -23.2999 H   0  0  0  0  0  0  0  0  0  0  0  0
   -8.7537    4.0373  -22.2635 H   0  0  0  0  0  0  0  0  0  0  0  0
   -9.4385    5.1649  -23.4721 H   0  0  0  0  0  0  0  0  0  0  0  0
  1  2  1  0
  2  3  1  0
  3  4  2  0
  3  5  1  0
  5  6  1  0
  6  7  1  0
  8  7  1  6
  8  9  1  0
  9 10  2  0
  9 11  1  0
 11 12  1  0
 12 13  2  0
 13 14  1  0
 14 15  2  0
 15 16  1  0
 16 17  2  0
 17 18  1  0
 18 19  2  0
 19 20  1  0
 20 21  2  0
 20 22  1  0
 19 23  1  0
 18 24  1  0
 17 25  1  0
 15 26  1  0
 13 27  1  0
 11 28  1  0
 28 29  1  0
 29 30  1  0
 30 31  1  0
 31 32  2  0
 32 33  1  0
 33 34  2  0
 34 35  1  0
 35 36  2  0
 36 37  1  0
 35 38  1  0
 34 39  1  0
 33 40  1  0
 32 41  1  0
 30 42  1  0
 30 43  1  0
 29 44  1  1
 28 45  1  0
 28 46  1  0
  8 47  1  0
 47 48  2  0
 48 49  1  0
 49 50  1  0
 49 51  2  0
 51 52  1  0
 52 53  2  0
 53 54  1  0
 54 55  2  0
 52 56  1  0
 51 57  1  0
 48 58  1  0
  7 59  1  0
  7 60  1  0
  5 61  1  0
  5 62  1  0
  2 63  1  0
  1 64  1  0
  1 65  1  0
  1 66  1  0
 54  6  1  0
 29  8  1  0
 36 31  1  0
 53 47  1  0
 21 12  1  0
 21 16  1  0
M  END
>  <cnnaffinities>  (43) 
[7.24668]

>  <score>  (43) 
7.24668

>  <index>  (43) 
45

>  <Smiles>  (43) 
C(N(C(=O)C(N1C([C@@]2(C(=O)N(c3c(nc(c4c(c(c(c(c34)[H])[H])[H])[H])[H])[H])C([C@@]2(C(c2c(c(c(c(c2[H])[H])[H])[H])[H])([H])[H])[H])([H])[H])c2c(c(Cl)c(c(c2C1=O)[H])[H])[H])([H])[H])([H])[H])[H])([H])([H])[H]

>  <h>  (43) 
<NA>

>  <Training>  (43) 
True

>  <Success>  (43) 
True

>  <enamine_searched>  (43) 
False

>  <enamine_id>  (43) 
nan

$$$$

     RDKit          3D

 50 54  0  0  0  0  0  0  0  0999 V2000
  -10.2391   -1.0623  -23.6553 C   0  0  0  0  0  0  0  0  0  0  0  0
   -8.8575   -1.3419  -23.0720 C   0  0  1  0  0  0  0  0  0  0  0  0
   -8.4288   -0.4110  -21.9256 C   0  0  0  0  0  0  0  0  0  0  0  0
   -7.4173   -1.2002  -21.2411 N   0  0  0  0  0  0  0  0  0  0  0  0
   -6.6223   -0.7387  -20.1720 C   0  0  0  0  0  0  0  0  0  0  0  0
   -6.9097   -1.0651  -18.8725 C   0  0  0  0  0  0  0  0  0  0  0  0
   -6.2373   -0.5660  -17.8049 N   0  0  0  0  0  0  0  0  0  0  0  0
   -5.2289    0.2378  -18.0524 C   0  0  0  0  0  0  0  0  0  0  0  0
   -4.7777    0.5875  -19.3604 C   0  0  0  0  0  0  0  0  0  0  0  0
   -3.6385    1.4008  -19.6025 C   0  0  0  0  0  0  0  0  0  0  0  0
   -3.2191    1.6359  -20.8849 C   0  0  0  0  0  0  0  0  0  0  0  0
   -3.9077    1.0793  -21.9885 C   0  0  0  0  0  0  0  0  0  0  0  0
   -5.0219    0.3080  -21.7796 C   0  0  0  0  0  0  0  0  0  0  0  0
   -5.4852    0.0667  -20.4609 C   0  0  0  0  0  0  0  0  0  0  0  0
   -5.5429   -0.1556  -22.6105 H   0  0  0  0  0  0  0  0  0  0  0  0
   -3.5530    1.2541  -23.0014 H   0  0  0  0  0  0  0  0  0  0  0  0
   -2.3427    2.2512  -21.0699 H   0  0  0  0  0  0  0  0  0  0  0  0
   -3.1036    1.8098  -18.7483 H   0  0  0  0  0  0  0  0  0  0  0  0
   -4.7022    0.6369  -17.1873 H   0  0  0  0  0  0  0  0  0  0  0  0
   -7.7223   -1.7550  -18.6501 H   0  0  0  0  0  0  0  0  0  0  0  0
   -7.4841   -2.5461  -21.5092 C   0  0  0  0  0  0  0  0  0  0  0  0
   -6.7446   -3.3721  -21.0118 O   0  0  0  0  0  0  0  0  0  0  0  0
   -8.6686   -2.7706  -22.4476 C   0  0  1  0  0  0  0  0  0  0  0  0
   -9.8538   -3.1488  -21.5200 C   0  0  0  0  0  0  0  0  0  0  0  0
  -11.0237   -3.5592  -22.2670 N   0  0  0  0  0  0  0  0  0  0  0  0
  -12.3876   -3.3742  -21.7945 C   0  0  0  0  0  0  0  0  0  0  0  0
  -13.2176   -2.5081  -22.6587 C   0  0  0  0  0  0  0  0  0  0  0  0
  -13.9059   -1.8475  -23.3121 N   0  0  0  0  0  0  0  0  0  0  0  0
  -12.3938   -2.9580  -20.7898 H   0  0  0  0  0  0  0  0  0  0  0  0
  -12.8777   -4.3477  -21.7747 H   0  0  0  0  0  0  0  0  0  0  0  0
  -10.8837   -4.4700  -23.2750 C   0  0  0  0  0  0  0  0  0  0  0  0
  -11.8545   -5.0642  -23.7061 O   0  0  0  0  0  0  0  0  0  0  0  0
   -9.5177   -4.6639  -23.8487 C   0  0  0  0  0  0  0  0  0  0  0  0
   -9.3421   -5.6698  -24.7984 C   0  0  0  0  0  0  0  0  0  0  0  0
   -8.1063   -5.9233  -25.3618 C   0  0  0  0  0  0  0  0  0  0  0  0
   -7.0395   -5.1312  -24.9497 C   0  0  0  0  0  0  0  0  0  0  0  0
   -5.8368   -5.3498  -25.5097 F   0  0  0  0  0  0  0  0  0  0  0  0
   -7.1717   -4.1293  -24.0040 C   0  0  0  0  0  0  0  0  0  0  0  0
   -8.4362   -3.8784  -23.4434 C   0  0  0  0  0  0  0  0  0  0  0  0
   -6.2925   -3.5559  -23.7189 H   0  0  0  0  0  0  0  0  0  0  0  0
   -7.9572   -6.7005  -26.1112 H   0  0  0  0  0  0  0  0  0  0  0  0
  -10.2071   -6.2516  -25.0873 H   0  0  0  0  0  0  0  0  0  0  0  0
   -9.5040   -3.9516  -20.8640 H   0  0  0  0  0  0  0  0  0  0  0  0
  -10.1101   -2.3055  -20.8740 H   0  0  0  0  0  0  0  0  0  0  0  0
   -9.2599   -0.1850  -21.2445 H   0  0  0  0  0  0  0  0  0  0  0  0
   -8.0363    0.5579  -22.2500 H   0  0  0  0  0  0  0  0  0  0  0  0
   -8.1101   -1.2508  -23.8738 H   0  0  0  0  0  0  0  0  0  0  0  0
  -10.3348   -0.0397  -24.0343 H   0  0  0  0  0  0  0  0  0  0  0  0
  -11.0166   -1.2230  -22.9053 H   0  0  0  0  0  0  0  0  0  0  0  0
  -10.4444   -1.7532  -24.4796 H   0  0  0  0  0  0  0  0  0  0  0  0
  1  2  1  0
  2  3  1  0
  3  4  1  0
  4  5  1  0
  5  6  2  0
  6  7  1  0
  7  8  2  0
  8  9  1  0
  9 10  2  0
 10 11  1  0
 11 12  2  0
 12 13  1  0
 13 14  2  0
 13 15  1  0
 12 16  1  0
 11 17  1  0
 10 18  1  0
  8 19  1  0
  6 20  1  0
  4 21  1  0
 21 22  2  0
 21 23  1  0
 23 24  1  1
 24 25  1  0
 25 26  1  0
 26 27  1  0
 27 28  3  0
 26 29  1  0
 26 30  1  0
 25 31  1  0
 31 32  2  0
 31 33  1  0
 33 34  2  0
 34 35  1  0
 35 36  2  0
 36 37  1  0
 36 38  1  0
 38 39  2  0
 38 40  1  0
 35 41  1  0
 34 42  1  0
 24 43  1  0
 24 44  1  0
  3 45  1  0
  3 46  1  0
  2 47  1  6
  1 48  1  0
  1 49  1  0
  1 50  1  0
 23  2  1  0
 39 33  1  0
 14  5  1  0
 39 23  1  0
 14  9  1  0
M  END
>  <cnnaffinities>  (44) 
[6.4286]

>  <score>  (44) 
6.4286

>  <index>  (44) 
46

>  <Smiles>  (44) 
C([C@]1(C(N(c2c(nc(c3c(c(c(c(c23)[H])[H])[H])[H])[H])[H])C(=O)[C@]21C(N(C(C#N)([H])[H])C(=O)c1c(c(c(F)c(c21)[H])[H])[H])([H])[H])([H])[H])[H])([H])([H])[H]

>  <h>  (44) 
<NA>

>  <Training>  (44) 
True

>  <Success>  (44) 
True

>  <enamine_searched>  (44) 
False

>  <enamine_id>  (44) 
nan

$$$$

     RDKit          3D

 58 63  0  0  0  0  0  0  0  0999 V2000
   -8.7806    0.5122  -21.0325 O   0  0  0  0  0  0  0  0  0  0  0  0
   -8.1425   -0.1777  -21.8135 C   0  0  0  0  0  0  0  0  0  0  0  0
   -7.4068   -1.3973  -21.2957 C   0  0  0  0  0  0  0  0  0  0  0  0
   -6.5272   -0.9081  -20.1742 C   0  0  0  0  0  0  0  0  0  0  0  0
   -6.8693   -1.0987  -18.8627 C   0  0  0  0  0  0  0  0  0  0  0  0
   -6.2148   -0.5658  -17.7989 N   0  0  0  0  0  0  0  0  0  0  0  0
   -5.1907    0.2107  -18.0668 C   0  0  0  0  0  0  0  0  0  0  0  0
   -4.7292    0.5119  -19.3785 C   0  0  0  0  0  0  0  0  0  0  0  0
   -3.6288    1.3734  -19.6165 C   0  0  0  0  0  0  0  0  0  0  0  0
   -3.2297    1.6673  -20.8906 C   0  0  0  0  0  0  0  0  0  0  0  0
   -3.9227    1.1103  -21.9891 C   0  0  0  0  0  0  0  0  0  0  0  0
   -4.9897    0.2716  -21.7847 C   0  0  0  0  0  0  0  0  0  0  0  0
   -5.4229   -0.0565  -20.4710 C   0  0  0  0  0  0  0  0  0  0  0  0
   -5.5188   -0.1197  -22.6489 H   0  0  0  0  0  0  0  0  0  0  0  0
   -3.6163    1.3653  -23.0008 H   0  0  0  0  0  0  0  0  0  0  0  0
   -2.3869    2.3283  -21.0677 H   0  0  0  0  0  0  0  0  0  0  0  0
   -3.1166    1.8004  -18.7577 H   0  0  0  0  0  0  0  0  0  0  0  0
   -4.6670    0.6538  -17.2198 H   0  0  0  0  0  0  0  0  0  0  0  0
   -7.7356   -1.7152  -18.6170 H   0  0  0  0  0  0  0  0  0  0  0  0
   -6.8333   -1.8572  -22.1026 H   0  0  0  0  0  0  0  0  0  0  0  0
   -8.1560   -2.1104  -20.9371 H   0  0  0  0  0  0  0  0  0  0  0  0
   -7.9579    0.1737  -23.1464 N   0  0  0  0  0  0  0  0  0  0  0  0
   -7.9807   -0.7977  -24.2490 C   0  0  0  0  0  0  0  0  0  0  0  0
   -9.0714   -1.8587  -24.1241 C   0  0  0  0  0  0  0  0  0  0  0  0
   -8.7607   -3.2189  -24.0542 C   0  0  0  0  0  0  0  0  0  0  0  0
   -9.7599   -4.1704  -23.8564 C   0  0  0  0  0  0  0  0  0  0  0  0
  -11.0863   -3.7889  -23.7084 C   0  0  0  0  0  0  0  0  0  0  0  0
  -11.3931   -2.4360  -23.8063 C   0  0  0  0  0  0  0  0  0  0  0  0
  -13.0399   -1.9222  -23.5760 Cl  0  0  0  0  0  0  0  0  0  0  0  0
  -10.4148   -1.4841  -24.0657 C   0  0  0  0  0  0  0  0  0  0  0  0
  -10.7406   -0.4587  -24.2412 H   0  0  0  0  0  0  0  0  0  0  0  0
  -11.8669   -4.5212  -23.5243 H   0  0  0  0  0  0  0  0  0  0  0  0
   -9.4923   -5.2225  -23.8169 H   0  0  0  0  0  0  0  0  0  0  0  0
   -7.7245   -3.5436  -24.1094 H   0  0  0  0  0  0  0  0  0  0  0  0
   -7.0021   -1.2930  -24.3332 H   0  0  0  0  0  0  0  0  0  0  0  0
   -8.1429   -0.2250  -25.1666 H   0  0  0  0  0  0  0  0  0  0  0  0
   -8.0540    1.5927  -23.4003 C   0  0  2  0  0  0  0  0  0  0  0  0
   -9.4455    2.1244  -23.7051 C   0  0  0  0  0  0  0  0  0  0  0  0
   -9.1303    3.5822  -23.9008 N   0  0  1  0  0  4  0  0  0  0  0  0
  -10.0200    4.5303  -23.2279 C   0  0  0  0  0  0  0  0  0  0  0  0
  -10.0058    5.9669  -23.6377 C   0  0  0  0  0  0  0  0  0  0  0  0
  -11.1992    5.1048  -23.9619 C   0  0  0  0  0  0  0  0  0  0  0  0
  -12.1087    5.2530  -23.3891 H   0  0  0  0  0  0  0  0  0  0  0  0
  -11.3404    4.8086  -24.9992 H   0  0  0  0  0  0  0  0  0  0  0  0
   -9.3587    6.2385  -24.4669 H   0  0  0  0  0  0  0  0  0  0  0  0
  -10.0963    6.7021  -22.8482 H   0  0  0  0  0  0  0  0  0  0  0  0
  -10.1823    4.3295  -22.1762 H   0  0  0  0  0  0  0  0  0  0  0  0
   -7.6465    3.5695  -23.5048 C   0  0  2  0  0  0  0  0  0  0  0  0
   -7.1714    2.4014  -24.3835 C   0  0  0  0  0  0  0  0  0  0  0  0
   -6.1099    2.1813  -24.2838 H   0  0  0  0  0  0  0  0  0  0  0  0
   -7.4888    2.4505  -25.4333 H   0  0  0  0  0  0  0  0  0  0  0  0
   -7.6081    2.6204  -22.3150 C   0  0  0  0  0  0  0  0  0  0  0  0
   -8.3164    2.8197  -21.5074 H   0  0  0  0  0  0  0  0  0  0  0  0
   -6.6151    2.4037  -21.9203 H   0  0  0  0  0  0  0  0  0  0  0  0
   -7.1881    4.5492  -23.4865 H   0  0  0  0  0  0  0  0  0  0  0  0
   -9.1743    3.7849  -24.9174 H   0  0  0  0  0  0  0  0  0  0  0  0
  -10.0885    2.0087  -22.8333 H   0  0  0  0  0  0  0  0  0  0  0  0
   -9.9172    1.7015  -24.5977 H   0  0  0  0  0  0  0  0  0  0  0  0
  1  2  2  0
  2  3  1  0
  3  4  1  0
  4  5  2  0
  5  6  1  0
  6  7  2  0
  7  8  1  0
  8  9  2  0
  9 10  1  0
 10 11  2  0
 11 12  1  0
 12 13  2  0
 12 14  1  0
 11 15  1  0
 10 16  1  0
  9 17  1  0
  7 18  1  0
  5 19  1  0
  3 20  1  0
  3 21  1  0
  2 22  1  0
 22 23  1  0
 23 24  1  0
 24 25  2  0
 25 26  1  0
 26 27  2  0
 27 28  1  0
 28 29  1  0
 28 30  2  0
 30 31  1  0
 27 32  1  0
 26 33  1  0
 25 34  1  0
 23 35  1  0
 23 36  1  0
 37 22  1  1
 37 38  1  0
 38 39  1  0
 39 40  1  0
 40 41  1  0
 41 42  1  0
 42 43  1  0
 42 44  1  0
 41 45  1  0
 41 46  1  0
 40 47  1  0
 39 48  1  0
 48 49  1  0
 49 50  1  0
 49 51  1  0
 48 52  1  0
 52 53  1  0
 52 54  1  0
 48 55  1  1
 39 56  1  6
 38 57  1  0
 38 58  1  0
 13  4  1  0
 30 24  1  0
 49 37  1  0
 13  8  1  0
 52 37  1  0
 42 40  1  0
M  CHG  1  39   1
M  END
>  <cnnaffinities>  (45) 
[6.16906, 5.93707]

>  <score>  (45) 
6.16906

>  <index>  (45) 
47

>  <Smiles>  (45) 
O=C(C(c1c(nc(c2c(c(c(c(c12)[H])[H])[H])[H])[H])[H])([H])[H])N(C(c1c(c(c(c(Cl)c1[H])[H])[H])[H])([H])[H])[C@]12C([N@@+](C3(C(C3([H])[H])([H])[H])[H])([C@](C1([H])[H])(C2([H])[H])[H])[H])([H])[H]

>  <h>  (45) 
<NA>

>  <Training>  (45) 
True

>  <Success>  (45) 
True

>  <enamine_searched>  (45) 
False

>  <enamine_id>  (45) 
nan

$$$$

     RDKit          3D

 46 48  0  0  0  0  0  0  0  0999 V2000
   -8.3080   -6.5774  -26.1148 C   0  0  0  0  0  0  0  0  0  0  0  0
   -9.3996   -6.5163  -25.0551 C   0  0  0  0  0  0  0  0  0  0  0  0
  -10.7689   -6.4138  -25.7247 C   0  0  0  0  0  0  0  0  0  0  0  0
  -11.5804   -6.3836  -24.9916 H   0  0  0  0  0  0  0  0  0  0  0  0
  -10.9177   -7.2877  -26.3671 H   0  0  0  0  0  0  0  0  0  0  0  0
  -10.8597   -5.5112  -26.3424 H   0  0  0  0  0  0  0  0  0  0  0  0
   -9.2078   -5.4433  -23.9654 C   0  0  0  0  0  0  0  0  0  0  0  0
   -9.0302   -3.9895  -24.4347 C   0  0  0  0  0  0  0  0  0  0  0  0
   -8.7315   -3.1203  -23.2096 C   0  0  0  0  0  0  0  0  0  0  0  0
   -7.4341   -3.5208  -22.6506 N   0  0  0  0  0  0  0  0  0  0  0  0
   -6.7127   -2.7784  -21.7624 C   0  0  0  0  0  0  0  0  0  0  0  0
   -5.6044   -3.1182  -21.3732 O   0  0  0  0  0  0  0  0  0  0  0  0
   -7.3808   -1.4994  -21.2616 C   0  0  0  0  0  0  0  0  0  0  0  0
   -6.5929   -0.8538  -20.1714 C   0  0  0  0  0  0  0  0  0  0  0  0
   -6.9098   -1.0794  -18.8608 C   0  0  0  0  0  0  0  0  0  0  0  0
   -6.2444   -0.5668  -17.7920 N   0  0  0  0  0  0  0  0  0  0  0  0
   -5.2104    0.1974  -18.0626 C   0  0  0  0  0  0  0  0  0  0  0  0
   -4.7504    0.4906  -19.3745 C   0  0  0  0  0  0  0  0  0  0  0  0
   -3.6293    1.3297  -19.6100 C   0  0  0  0  0  0  0  0  0  0  0  0
   -3.2250    1.5994  -20.8895 C   0  0  0  0  0  0  0  0  0  0  0  0
   -3.9106    1.0430  -21.9858 C   0  0  0  0  0  0  0  0  0  0  0  0
   -4.9971    0.2240  -21.7880 C   0  0  0  0  0  0  0  0  0  0  0  0
   -5.4519   -0.0578  -20.4695 C   0  0  0  0  0  0  0  0  0  0  0  0
   -5.5003   -0.2086  -22.6449 H   0  0  0  0  0  0  0  0  0  0  0  0
   -3.5845    1.2740  -22.9971 H   0  0  0  0  0  0  0  0  0  0  0  0
   -2.3746    2.2539  -21.0662 H   0  0  0  0  0  0  0  0  0  0  0  0
   -3.1164    1.7599  -18.7554 H   0  0  0  0  0  0  0  0  0  0  0  0
   -4.6782    0.6229  -17.2118 H   0  0  0  0  0  0  0  0  0  0  0  0
   -7.7632   -1.7126  -18.6176 H   0  0  0  0  0  0  0  0  0  0  0  0
   -8.3802   -1.7634  -20.8941 H   0  0  0  0  0  0  0  0  0  0  0  0
   -7.5045   -0.8046  -22.1012 H   0  0  0  0  0  0  0  0  0  0  0  0
   -6.9194   -4.8396  -23.0008 C   0  0  0  0  0  0  0  0  0  0  0  0
   -8.0770   -5.8241  -22.9802 C   0  0  0  0  0  0  0  0  0  0  0  0
   -7.7005   -6.8331  -23.1710 H   0  0  0  0  0  0  0  0  0  0  0  0
   -8.4740   -5.8301  -21.9579 H   0  0  0  0  0  0  0  0  0  0  0  0
   -6.1665   -5.1115  -22.2589 H   0  0  0  0  0  0  0  0  0  0  0  0
   -6.4134   -4.8124  -23.9790 H   0  0  0  0  0  0  0  0  0  0  0  0
   -8.7230   -2.0567  -23.4784 H   0  0  0  0  0  0  0  0  0  0  0  0
   -9.5406   -3.2232  -22.4610 H   0  0  0  0  0  0  0  0  0  0  0  0
   -9.9322   -3.6190  -24.9338 H   0  0  0  0  0  0  0  0  0  0  0  0
   -8.2120   -3.8847  -25.1601 H   0  0  0  0  0  0  0  0  0  0  0  0
  -10.1410   -5.4126  -23.3875 H   0  0  0  0  0  0  0  0  0  0  0  0
   -9.3381   -7.4817  -24.5335 H   0  0  0  0  0  0  0  0  0  0  0  0
   -7.3074   -6.6967  -25.6866 H   0  0  0  0  0  0  0  0  0  0  0  0
   -8.3251   -5.6801  -26.7402 H   0  0  0  0  0  0  0  0  0  0  0  0
   -8.4855   -7.4445  -26.7604 H   0  0  0  0  0  0  0  0  0  0  0  0
  1  2  1  0
  2  3  1  0
  3  4  1  0
  3  5  1  0
  3  6  1  0
  2  7  1  0
  7  8  1  0
  8  9  1  0
  9 10  1  0
 10 11  1  0
 11 12  2  0
 11 13  1  0
 13 14  1  0
 14 15  2  0
 15 16  1  0
 16 17  2  0
 17 18  1  0
 18 19  2  0
 19 20  1  0
 20 21  2  0
 21 22  1  0
 22 23  2  0
 22 24  1  0
 21 25  1  0
 20 26  1  0
 19 27  1  0
 17 28  1  0
 15 29  1  0
 13 30  1  0
 13 31  1  0
 10 32  1  0
 32 33  1  0
 33 34  1  0
 33 35  1  0
 32 36  1  0
 32 37  1  0
  9 38  1  0
  9 39  1  0
  8 40  1  0
  8 41  1  0
  7 42  1  0
  2 43  1  0
  1 44  1  0
  1 45  1  0
  1 46  1  0
 33  7  1  0
 23 14  1  0
 23 18  1  0
M  END
>  <cnnaffinities>  (46) 
[5.35617, 5.36802]

>  <score>  (46) 
5.35617

>  <index>  (46) 
48

>  <Smiles>  (46) 
C(C(C([H])([H])[H])(C1(C(C(N(C(=O)C(c2c(nc(c3c(c(c(c(c23)[H])[H])[H])[H])[H])[H])([H])[H])C(C1([H])[H])([H])[H])([H])[H])([H])[H])[H])[H])([H])([H])[H]

>  <h>  (46) 
<NA>

>  <Training>  (46) 
True

>  <Success>  (46) 
True

>  <enamine_searched>  (46) 
False

>  <enamine_id>  (46) 
nan

$$$$

     RDKit          3D

 67 72  0  0  0  0  0  0  0  0999 V2000
   -6.8756    0.3595  -29.2873 C   0  0  0  0  0  0  0  0  0  0  0  0
   -7.2671    0.8270  -27.9738 N   0  0  0  0  0  0  0  0  0  0  0  0
   -6.6784    0.2787  -26.8818 C   0  0  0  0  0  0  0  0  0  0  0  0
   -5.8166   -0.5850  -26.9473 O   0  0  0  0  0  0  0  0  0  0  0  0
   -7.2041    0.8095  -25.5485 C   0  0  0  0  0  0  0  0  0  0  0  0
   -8.2770   -0.0235  -25.0505 N   0  0  0  0  0  0  0  0  0  0  0  0
   -7.9659   -1.3225  -24.4802 C   0  0  0  0  0  0  0  0  0  0  0  0
   -8.7763   -1.5491  -23.1744 C   0  0  2  0  0  0  0  0  0  0  0  0
   -8.2390   -0.6178  -22.0544 C   0  0  0  0  0  0  0  0  0  0  0  0
   -8.4517    0.5638  -21.9002 O   0  0  0  0  0  0  0  0  0  0  0  0
   -7.4179   -1.3733  -21.2367 N   0  0  0  0  0  0  0  0  0  0  0  0
   -6.6230   -0.8097  -20.2106 C   0  0  0  0  0  0  0  0  0  0  0  0
   -6.9197   -1.0750  -18.8978 C   0  0  0  0  0  0  0  0  0  0  0  0
   -6.2395   -0.5781  -17.8343 N   0  0  0  0  0  0  0  0  0  0  0  0
   -5.2130    0.1961  -18.0958 C   0  0  0  0  0  0  0  0  0  0  0  0
   -4.7698    0.5192  -19.4090 C   0  0  0  0  0  0  0  0  0  0  0  0
   -3.6349    1.3430  -19.6259 C   0  0  0  0  0  0  0  0  0  0  0  0
   -3.2041    1.6109  -20.8945 C   0  0  0  0  0  0  0  0  0  0  0  0
   -3.8843    1.0652  -22.0067 C   0  0  0  0  0  0  0  0  0  0  0  0
   -4.9917    0.2750  -21.8252 C   0  0  0  0  0  0  0  0  0  0  0  0
   -5.4761   -0.0069  -20.5141 C   0  0  0  0  0  0  0  0  0  0  0  0
   -5.4980   -0.1415  -22.6937 H   0  0  0  0  0  0  0  0  0  0  0  0
   -3.5237    1.2753  -23.0092 H   0  0  0  0  0  0  0  0  0  0  0  0
   -2.3363    2.2437  -21.0564 H   0  0  0  0  0  0  0  0  0  0  0  0
   -3.1243    1.7490  -18.7561 H   0  0  0  0  0  0  0  0  0  0  0  0
   -4.6652    0.6053  -17.2462 H   0  0  0  0  0  0  0  0  0  0  0  0
   -7.7701   -1.7153  -18.6642 H   0  0  0  0  0  0  0  0  0  0  0  0
   -7.3021   -2.7608  -21.6242 C   0  0  0  0  0  0  0  0  0  0  0  0
   -8.5005   -2.9429  -22.5601 C   0  0  2  0  0  0  0  0  0  0  0  0
   -8.3425   -4.0720  -23.5809 C   0  0  0  0  0  0  0  0  0  0  0  0
   -8.3360   -5.3755  -22.9650 N   0  0  0  0  0  0  0  0  0  0  0  0
   -7.1656   -5.9081  -22.5017 C   0  0  0  0  0  0  0  0  0  0  0  0
   -5.8796   -5.5496  -22.8061 C   0  0  0  0  0  0  0  0  0  0  0  0
   -4.8855   -6.2494  -22.1609 N   0  0  0  0  0  0  0  0  0  0  0  0
   -5.3864   -7.1695  -21.4027 C   0  0  0  0  0  0  0  0  0  0  0  0
   -4.6075   -8.1307  -20.5658 C   0  0  0  0  0  0  0  0  0  0  0  0
   -5.0546   -9.1135  -20.6232 H   0  0  0  0  0  0  0  0  0  0  0  0
   -3.5912   -8.2645  -20.9414 H   0  0  0  0  0  0  0  0  0  0  0  0
   -4.6049   -7.8019  -19.5189 H   0  0  0  0  0  0  0  0  0  0  0  0
   -7.1376   -7.2516  -21.3980 S   0  0  0  0  0  0  0  0  0  0  0  0
   -5.6146   -4.7804  -23.5258 H   0  0  0  0  0  0  0  0  0  0  0  0
   -9.2158   -5.7733  -22.6680 H   0  0  0  0  0  0  0  0  0  0  0  0
   -7.3888   -3.9455  -24.1140 H   0  0  0  0  0  0  0  0  0  0  0  0
   -9.1608   -4.0295  -24.3113 H   0  0  0  0  0  0  0  0  0  0  0  0
   -9.3429   -3.1830  -21.9063 H   0  0  0  0  0  0  0  0  0  0  0  0
   -7.3483   -3.4131  -20.7510 H   0  0  0  0  0  0  0  0  0  0  0  0
   -6.3399   -2.9679  -22.1178 H   0  0  0  0  0  0  0  0  0  0  0  0
  -10.2342   -1.2851  -23.5102 C   0  0  0  0  0  0  0  0  0  0  0  0
  -11.2622   -1.8320  -22.7314 C   0  0  0  0  0  0  0  0  0  0  0  0
  -12.5760   -1.4760  -22.9639 C   0  0  0  0  0  0  0  0  0  0  0  0
  -13.7978   -2.0342  -21.8593 Cl  0  0  0  0  0  0  0  0  0  0  0  0
  -12.9384   -0.6651  -24.0390 C   0  0  0  0  0  0  0  0  0  0  0  0
  -11.9361   -0.1594  -24.8413 C   0  0  0  0  0  0  0  0  0  0  0  0
  -10.5981   -0.4242  -24.5588 C   0  0  0  0  0  0  0  0  0  0  0  0
   -9.5636    0.3159  -25.3496 C   0  0  0  0  0  0  0  0  0  0  0  0
   -9.8413    1.1895  -26.1669 O   0  0  0  0  0  0  0  0  0  0  0  0
  -12.1499    0.4731  -25.6955 H   0  0  0  0  0  0  0  0  0  0  0  0
  -13.9767   -0.4075  -24.2084 H   0  0  0  0  0  0  0  0  0  0  0  0
  -11.0659   -2.5190  -21.9176 H   0  0  0  0  0  0  0  0  0  0  0  0
   -6.8837   -1.3661  -24.3083 H   0  0  0  0  0  0  0  0  0  0  0  0
   -8.2124   -2.1137  -25.2073 H   0  0  0  0  0  0  0  0  0  0  0  0
   -6.3949    0.8094  -24.8108 H   0  0  0  0  0  0  0  0  0  0  0  0
   -7.5832    1.8295  -25.6580 H   0  0  0  0  0  0  0  0  0  0  0  0
   -8.1421    1.3173  -27.8404 H   0  0  0  0  0  0  0  0  0  0  0  0
   -7.0533   -0.7184  -29.3913 H   0  0  0  0  0  0  0  0  0  0  0  0
   -7.4459    0.9039  -30.0428 H   0  0  0  0  0  0  0  0  0  0  0  0
   -5.8064    0.5467  -29.4352 H   0  0  0  0  0  0  0  0  0  0  0  0
  1  2  1  0
  2  3  1  0
  3  4  2  0
  3  5  1  0
  5  6  1  0
  6  7  1  0
  8  7  1  6
  8  9  1  0
  9 10  2  0
  9 11  1  0
 11 12  1  0
 12 13  2  0
 13 14  1  0
 14 15  2  0
 15 16  1  0
 16 17  2  0
 17 18  1  0
 18 19  2  0
 19 20  1  0
 20 21  2  0
 20 22  1  0
 19 23  1  0
 18 24  1  0
 17 25  1  0
 15 26  1  0
 13 27  1  0
 11 28  1  0
 28 29  1  0
 29 30  1  0
 30 31  1  0
 31 32  1  0
 32 33  2  0
 33 34  1  0
 34 35  2  0
 35 36  1  0
 36 37  1  0
 36 38  1  0
 36 39  1  0
 35 40  1  0
 33 41  1  0
 31 42  1  0
 30 43  1  0
 30 44  1  0
 29 45  1  1
 28 46  1  0
 28 47  1  0
  8 48  1  0
 48 49  2  0
 49 50  1  0
 50 51  1  0
 50 52  2  0
 52 53  1  0
 53 54  2  0
 54 55  1  0
 55 56  2  0
 53 57  1  0
 52 58  1  0
 49 59  1  0
  7 60  1  0
  7 61  1  0
  5 62  1  0
  5 63  1  0
  2 64  1  0
  1 65  1  0
  1 66  1  0
  1 67  1  0
 55  6  1  0
 29  8  1  0
 40 32  1  0
 54 48  1  0
 21 12  1  0
 21 16  1  0
M  END
>  <cnnaffinities>  (47) 
[6.67528, 7.02652]

>  <score>  (47) 
6.67528

>  <index>  (47) 
49

>  <Smiles>  (47) 
C(N(C(=O)C(N1C([C@@]2(C(=O)N(c3c(nc(c4c(c(c(c(c34)[H])[H])[H])[H])[H])[H])C([C@@]2(C(N(c2c(nc(C([H])([H])[H])s2)[H])[H])([H])[H])[H])([H])[H])c2c(c(Cl)c(c(c2C1=O)[H])[H])[H])([H])[H])([H])[H])[H])([H])([H])[H]

>  <h>  (47) 
<NA>

>  <Training>  (47) 
True

>  <Success>  (47) 
True

>  <enamine_searched>  (47) 
False

>  <enamine_id>  (47) 
nan

$$$$

     RDKit          3D

 66 70  0  0  0  0  0  0  0  0999 V2000
   -6.9466    3.4112  -23.1133 C   0  0  0  0  0  0  0  0  0  0  0  0
   -7.6815    2.6362  -24.0967 N   0  0  0  0  0  0  0  0  0  0  0  0
   -7.0490    1.6386  -24.7636 C   0  0  0  0  0  0  0  0  0  0  0  0
   -5.8484    1.4479  -24.6635 O   0  0  0  0  0  0  0  0  0  0  0  0
   -7.9323    0.7776  -25.6718 C   0  0  0  0  0  0  0  0  0  0  0  0
   -8.8448   -0.0627  -24.9247 N   0  0  0  0  0  0  0  0  0  0  0  0
   -8.3787   -1.3296  -24.3852 C   0  0  0  0  0  0  0  0  0  0  0  0
   -9.0284   -1.6341  -23.0047 C   0  0  2  0  0  0  0  0  0  0  0  0
   -8.4186   -0.6526  -21.9767 C   0  0  0  0  0  0  0  0  0  0  0  0
   -8.6721    0.5276  -21.8504 O   0  0  0  0  0  0  0  0  0  0  0  0
   -7.4919   -1.3439  -21.2232 N   0  0  0  0  0  0  0  0  0  0  0  0
   -6.6856   -0.7619  -20.2143 C   0  0  0  0  0  0  0  0  0  0  0  0
   -6.9579   -1.0474  -18.8990 C   0  0  0  0  0  0  0  0  0  0  0  0
   -6.2573   -0.5732  -17.8417 N   0  0  0  0  0  0  0  0  0  0  0  0
   -5.2292    0.1966  -18.1060 C   0  0  0  0  0  0  0  0  0  0  0  0
   -4.8001    0.5305  -19.4212 C   0  0  0  0  0  0  0  0  0  0  0  0
   -3.6532    1.3398  -19.6389 C   0  0  0  0  0  0  0  0  0  0  0  0
   -3.2276    1.6153  -20.9087 C   0  0  0  0  0  0  0  0  0  0  0  0
   -3.9296    1.0907  -22.0178 C   0  0  0  0  0  0  0  0  0  0  0  0
   -5.0482    0.3112  -21.8345 C   0  0  0  0  0  0  0  0  0  0  0  0
   -5.5289    0.0242  -20.5249 C   0  0  0  0  0  0  0  0  0  0  0  0
   -5.5595   -0.0821  -22.7075 H   0  0  0  0  0  0  0  0  0  0  0  0
   -3.6057    1.3223  -23.0281 H   0  0  0  0  0  0  0  0  0  0  0  0
   -2.3494    2.2353  -21.0704 H   0  0  0  0  0  0  0  0  0  0  0  0
   -3.1326    1.7297  -18.7682 H   0  0  0  0  0  0  0  0  0  0  0  0
   -4.6729    0.5931  -17.2564 H   0  0  0  0  0  0  0  0  0  0  0  0
   -7.7952   -1.7023  -18.6595 H   0  0  0  0  0  0  0  0  0  0  0  0
   -7.3248   -2.7324  -21.5955 C   0  0  0  0  0  0  0  0  0  0  0  0
   -8.5699   -3.0149  -22.4493 C   0  0  2  0  0  0  0  0  0  0  0  0
   -8.3583   -4.0735  -23.5206 C   0  0  0  0  0  0  0  0  0  0  0  0
   -8.1124   -5.3208  -22.9137 O   0  0  0  0  0  0  0  0  0  0  0  0
   -7.5931   -6.2860  -23.8179 C   0  0  0  0  0  0  0  0  0  0  0  0
   -8.1184   -7.6491  -23.4113 C   0  0  0  0  0  0  0  0  0  0  0  0
   -9.2011   -7.7272  -23.5011 H   0  0  0  0  0  0  0  0  0  0  0  0
   -7.8307   -7.8466  -22.3749 H   0  0  0  0  0  0  0  0  0  0  0  0
   -7.6655   -8.4096  -24.0509 H   0  0  0  0  0  0  0  0  0  0  0  0
   -6.0705   -6.3022  -23.7937 C   0  0  0  0  0  0  0  0  0  0  0  0
   -5.7026   -7.0729  -24.4795 H   0  0  0  0  0  0  0  0  0  0  0  0
   -5.7279   -6.5525  -22.7864 H   0  0  0  0  0  0  0  0  0  0  0  0
   -5.6323   -5.3434  -24.0862 H   0  0  0  0  0  0  0  0  0  0  0  0
   -7.9354   -6.0380  -24.8344 H   0  0  0  0  0  0  0  0  0  0  0  0
   -7.5006   -3.7847  -24.1532 H   0  0  0  0  0  0  0  0  0  0  0  0
   -9.2496   -4.1287  -24.1726 H   0  0  0  0  0  0  0  0  0  0  0  0
   -9.3346   -3.3966  -21.7703 H   0  0  0  0  0  0  0  0  0  0  0  0
   -6.3839   -2.8978  -22.1448 H   0  0  0  0  0  0  0  0  0  0  0  0
   -7.2820   -3.3534  -20.6991 H   0  0  0  0  0  0  0  0  0  0  0  0
  -10.5368   -1.4846  -23.1621 C   0  0  0  0  0  0  0  0  0  0  0  0
  -11.4435   -2.1883  -22.3495 C   0  0  0  0  0  0  0  0  0  0  0  0
  -12.8033   -2.0293  -22.5302 C   0  0  0  0  0  0  0  0  0  0  0  0
  -13.6486   -2.7213  -21.7446 F   0  0  0  0  0  0  0  0  0  0  0  0
  -13.3306   -1.2344  -23.5391 C   0  0  0  0  0  0  0  0  0  0  0  0
  -12.4485   -0.5621  -24.3619 C   0  0  0  0  0  0  0  0  0  0  0  0
  -11.0701   -0.6398  -24.1500 C   0  0  0  0  0  0  0  0  0  0  0  0
  -10.1799    0.2235  -24.9938 C   0  0  0  0  0  0  0  0  0  0  0  0
  -10.6208    1.1231  -25.6966 O   0  0  0  0  0  0  0  0  0  0  0  0
  -12.8148    0.0604  -25.1699 H   0  0  0  0  0  0  0  0  0  0  0  0
  -14.4031   -1.1748  -23.6687 H   0  0  0  0  0  0  0  0  0  0  0  0
  -11.1266   -2.8913  -21.5866 H   0  0  0  0  0  0  0  0  0  0  0  0
   -7.2913   -1.2705  -24.2720 H   0  0  0  0  0  0  0  0  0  0  0  0
   -8.6188   -2.1367  -25.0932 H   0  0  0  0  0  0  0  0  0  0  0  0
   -7.2847    0.1707  -26.3086 H   0  0  0  0  0  0  0  0  0  0  0  0
   -8.5613    1.4017  -26.3113 H   0  0  0  0  0  0  0  0  0  0  0  0
   -8.6848    2.5896  -24.0173 H   0  0  0  0  0  0  0  0  0  0  0  0
   -6.5074    2.7556  -22.3480 H   0  0  0  0  0  0  0  0  0  0  0  0
   -7.6288    4.1241  -22.6461 H   0  0  0  0  0  0  0  0  0  0  0  0
   -6.1335    3.9587  -23.6003 H   0  0  0  0  0  0  0  0  0  0  0  0
  1  2  1  0
  2  3  1  0
  3  4  2  0
  3  5  1  0
  5  6  1  0
  6  7  1  0
  8  7  1  6
  8  9  1  0
  9 10  2  0
  9 11  1  0
 11 12  1  0
 12 13  2  0
 13 14  1  0
 14 15  2  0
 15 16  1  0
 16 17  2  0
 17 18  1  0
 18 19  2  0
 19 20  1  0
 20 21  2  0
 20 22  1  0
 19 23  1  0
 18 24  1  0
 17 25  1  0
 15 26  1  0
 13 27  1  0
 11 28  1  0
 28 29  1  0
 29 30  1  0
 30 31  1  0
 31 32  1  0
 32 33  1  0
 33 34  1  0
 33 35  1  0
 33 36  1  0
 32 37  1  0
 37 38  1  0
 37 39  1  0
 37 40  1  0
 32 41  1  0
 30 42  1  0
 30 43  1  0
 29 44  1  1
 28 45  1  0
 28 46  1  0
  8 47  1  0
 47 48  2  0
 48 49  1  0
 49 50  1  0
 49 51  2  0
 51 52  1  0
 52 53  2  0
 53 54  1  0
 54 55  2  0
 52 56  1  0
 51 57  1  0
 48 58  1  0
  7 59  1  0
  7 60  1  0
  5 61  1  0
  5 62  1  0
  2 63  1  0
  1 64  1  0
  1 65  1  0
  1 66  1  0
 54  6  1  0
 29  8  1  0
 53 47  1  0
 21 12  1  0
 21 16  1  0
M  END
>  <cnnaffinities>  (48) 
[6.81864, 6.82331]

>  <score>  (48) 
6.81864

>  <index>  (48) 
50

>  <Smiles>  (48) 
C(N(C(=O)C(N1C([C@@]2(C(=O)N(c3c(nc(c4c(c(c(c(c34)[H])[H])[H])[H])[H])[H])C([C@@]2(C(OC(C([H])([H])[H])(C([H])([H])[H])[H])([H])[H])[H])([H])[H])c2c(c(F)c(c(c2C1=O)[H])[H])[H])([H])[H])([H])[H])[H])([H])([H])[H]

>  <h>  (48) 
<NA>

>  <Training>  (48) 
True

>  <Success>  (48) 
True

>  <enamine_searched>  (48) 
False

>  <enamine_id>  (48) 
nan

$$$$

     RDKit          3D

 50 52  0  0  0  0  0  0  0  0999 V2000
   -9.8200   -3.7765  -25.4333 C   0  0  0  0  0  0  0  0  0  0  0  0
   -8.8048   -3.5033  -24.6217 C   0  0  0  0  0  0  0  0  0  0  0  0
   -8.6463   -2.1287  -24.0323 C   0  0  0  0  0  0  0  0  0  0  0  0
   -9.3251   -1.9911  -22.7431 N   0  0  0  0  0  0  0  0  0  0  0  0
   -8.6480   -1.3641  -21.6987 C   0  0  0  0  0  0  0  0  0  0  0  0
   -9.1206   -0.5128  -20.9760 O   0  0  0  0  0  0  0  0  0  0  0  0
   -7.3340   -1.7807  -21.5444 N   0  0  0  0  0  0  0  0  0  0  0  0
   -6.6278   -1.2317  -20.4459 C   0  0  0  0  0  0  0  0  0  0  0  0
   -7.0582   -1.4570  -19.1611 C   0  0  0  0  0  0  0  0  0  0  0  0
   -6.5013   -0.8965  -18.0612 N   0  0  0  0  0  0  0  0  0  0  0  0
   -5.4913   -0.0777  -18.2436 C   0  0  0  0  0  0  0  0  0  0  0  0
   -4.9474    0.2420  -19.5194 C   0  0  0  0  0  0  0  0  0  0  0  0
   -3.8697    1.1521  -19.6664 C   0  0  0  0  0  0  0  0  0  0  0  0
   -3.4068    1.4676  -20.9160 C   0  0  0  0  0  0  0  0  0  0  0  0
   -4.0082    0.9062  -22.0683 C   0  0  0  0  0  0  0  0  0  0  0  0
   -5.0532    0.0222  -21.9537 C   0  0  0  0  0  0  0  0  0  0  0  0
   -5.5338   -0.3395  -20.6662 C   0  0  0  0  0  0  0  0  0  0  0  0
   -5.5240   -0.4007  -22.8395 H   0  0  0  0  0  0  0  0  0  0  0  0
   -3.6511    1.1926  -23.0536 H   0  0  0  0  0  0  0  0  0  0  0  0
   -2.5949    2.1804  -21.0283 H   0  0  0  0  0  0  0  0  0  0  0  0
   -3.4499    1.5944  -18.7651 H   0  0  0  0  0  0  0  0  0  0  0  0
   -5.0586    0.4057  -17.3653 H   0  0  0  0  0  0  0  0  0  0  0  0
   -7.9280   -2.0872  -18.9723 H   0  0  0  0  0  0  0  0  0  0  0  0
   -7.0611   -2.6823  -21.9394 H   0  0  0  0  0  0  0  0  0  0  0  0
  -10.7498   -2.1249  -22.6584 C   0  0  0  0  0  0  0  0  0  0  0  0
  -11.6369   -1.4310  -23.4854 C   0  0  0  0  0  0  0  0  0  0  0  0
  -13.0100   -1.6392  -23.3521 C   0  0  0  0  0  0  0  0  0  0  0  0
  -13.5106   -2.5476  -22.4266 C   0  0  0  0  0  0  0  0  0  0  0  0
  -12.6183   -3.1967  -21.5793 C   0  0  0  0  0  0  0  0  0  0  0  0
  -13.2532   -4.2416  -20.3445 Cl  0  0  0  0  0  0  0  0  0  0  0  0
  -11.2477   -3.0067  -21.7051 C   0  0  0  0  0  0  0  0  0  0  0  0
  -10.5291   -3.5167  -21.0692 H   0  0  0  0  0  0  0  0  0  0  0  0
  -14.5790   -2.7369  -22.3571 H   0  0  0  0  0  0  0  0  0  0  0  0
  -13.6863   -1.0828  -23.9984 H   0  0  0  0  0  0  0  0  0  0  0  0
  -11.2445   -0.7310  -24.2184 H   0  0  0  0  0  0  0  0  0  0  0  0
   -7.5823   -1.9347  -23.8805 H   0  0  0  0  0  0  0  0  0  0  0  0
   -9.0337   -1.3749  -24.7343 H   0  0  0  0  0  0  0  0  0  0  0  0
   -7.7905   -4.4977  -24.1383 C   0  0  0  0  0  0  0  0  0  0  0  0
   -7.1270   -4.2977  -23.1218 O   0  0  0  0  0  0  0  0  0  0  0  0
   -7.6246   -5.6169  -24.8837 N   0  0  0  0  0  0  0  0  0  0  0  0
   -6.8978   -6.7449  -24.3345 C   0  0  0  0  0  0  0  0  0  0  0  0
   -7.7588   -7.6111  -23.4221 C   0  0  0  0  0  0  0  0  0  0  0  0
   -8.0596   -7.0402  -22.5378 H   0  0  0  0  0  0  0  0  0  0  0  0
   -7.1974   -8.4930  -23.1010 H   0  0  0  0  0  0  0  0  0  0  0  0
   -8.6624   -7.9485  -23.9416 H   0  0  0  0  0  0  0  0  0  0  0  0
   -6.0649   -6.3280  -23.7679 H   0  0  0  0  0  0  0  0  0  0  0  0
   -6.4821   -7.3308  -25.1585 H   0  0  0  0  0  0  0  0  0  0  0  0
   -8.2312   -5.7652  -25.6726 H   0  0  0  0  0  0  0  0  0  0  0  0
  -10.0417   -4.7654  -25.8287 H   0  0  0  0  0  0  0  0  0  0  0  0
  -10.5023   -2.9760  -25.7241 H   0  0  0  0  0  0  0  0  0  0  0  0
  1  2  2  0
  2  3  1  0
  3  4  1  0
  4  5  1  0
  5  6  2  0
  5  7  1  0
  7  8  1  0
  8  9  2  0
  9 10  1  0
 10 11  2  0
 11 12  1  0
 12 13  2  0
 13 14  1  0
 14 15  2  0
 15 16  1  0
 16 17  2  0
 16 18  1  0
 15 19  1  0
 14 20  1  0
 13 21  1  0
 11 22  1  0
  9 23  1  0
  7 24  1  0
  4 25  1  0
 25 26  2  0
 26 27  1  0
 27 28  2  0
 28 29  1  0
 29 30  1  0
 29 31  2  0
 31 32  1  0
 28 33  1  0
 27 34  1  0
 26 35  1  0
  3 36  1  0
  3 37  1  0
  2 38  1  0
 38 39  2  0
 38 40  1  0
 40 41  1  0
 41 42  1  0
 42 43  1  0
 42 44  1  0
 42 45  1  0
 41 46  1  0
 41 47  1  0
 40 48  1  0
  1 49  1  0
  1 50  1  0
 17  8  1  0
 31 25  1  0
 17 12  1  0
M  END
>  <cnnaffinities>  (49) 
[6.68778, 5.75575]

>  <score>  (49) 
6.68778

>  <index>  (49) 
51

>  <Smiles>  (49) 
C(=C(C(N(C(=O)N(c1c(nc(c2c(c(c(c(c12)[H])[H])[H])[H])[H])[H])[H])c1c(c(c(c(Cl)c1[H])[H])[H])[H])([H])[H])C(=O)N(C(C([H])([H])[H])([H])[H])[H])([H])[H]

>  <h>  (49) 
<NA>

>  <Training>  (49) 
True

>  <Success>  (49) 
True

>  <enamine_searched>  (49) 
False

>  <enamine_id>  (49) 
nan

$$$$

     RDKit          3D

 57 60  0  0  0  0  0  0  0  0999 V2000
   -0.4747   -3.2273  -27.8277 C   0  0  0  0  0  0  0  0  0  0  0  0
   -1.3345   -4.4708  -28.0297 C   0  0  0  0  0  0  0  0  0  0  0  0
   -2.0977   -4.8224  -26.7572 C   0  0  0  0  0  0  0  0  0  0  0  0
   -1.6137   -5.5640  -25.9229 O   0  0  0  0  0  0  0  0  0  0  0  0
   -3.3309   -4.2351  -26.5537 N   0  0  0  0  0  0  0  0  0  0  0  0
   -4.2452   -4.5820  -25.5222 C   0  0  0  0  0  0  0  0  0  0  0  0
   -4.3665   -5.9012  -25.0891 C   0  0  0  0  0  0  0  0  0  0  0  0
   -5.2735   -6.2123  -24.0813 C   0  0  0  0  0  0  0  0  0  0  0  0
   -6.0649   -5.2407  -23.4761 C   0  0  0  0  0  0  0  0  0  0  0  0
   -5.9449   -3.9156  -23.8997 C   0  0  0  0  0  0  0  0  0  0  0  0
   -6.7699   -2.8835  -23.3170 N   0  0  0  0  0  0  0  0  0  0  0  0
   -7.7554   -2.2103  -24.1582 C   0  0  0  0  0  0  0  0  0  0  0  0
   -9.1915   -2.5073  -23.7819 C   0  0  0  0  0  0  0  0  0  0  0  0
   -9.6396   -3.8276  -23.7555 C   0  0  0  0  0  0  0  0  0  0  0  0
  -10.9482   -4.1166  -23.3864 C   0  0  0  0  0  0  0  0  0  0  0  0
  -11.8274   -3.0970  -23.0407 C   0  0  0  0  0  0  0  0  0  0  0  0
  -11.3917   -1.7792  -23.0778 C   0  0  0  0  0  0  0  0  0  0  0  0
  -10.0822   -1.4881  -23.4485 C   0  0  0  0  0  0  0  0  0  0  0  0
   -9.7515   -0.4521  -23.4760 H   0  0  0  0  0  0  0  0  0  0  0  0
  -12.0708   -0.9751  -22.8168 H   0  0  0  0  0  0  0  0  0  0  0  0
  -12.8473   -3.3260  -22.7484 H   0  0  0  0  0  0  0  0  0  0  0  0
  -11.2934   -5.1413  -23.3743 H   0  0  0  0  0  0  0  0  0  0  0  0
   -8.9614   -4.6342  -24.0305 H   0  0  0  0  0  0  0  0  0  0  0  0
   -7.5775   -1.1284  -24.1641 H   0  0  0  0  0  0  0  0  0  0  0  0
   -7.5845   -2.5483  -25.1811 H   0  0  0  0  0  0  0  0  0  0  0  0
   -6.6566   -2.6528  -21.9492 C   0  0  0  0  0  0  0  0  0  0  0  0
   -5.9545   -3.3586  -21.2539 O   0  0  0  0  0  0  0  0  0  0  0  0
   -7.3911   -1.4612  -21.2867 C   0  0  0  0  0  0  0  0  0  0  0  0
   -6.5773   -0.8279  -20.1783 C   0  0  0  0  0  0  0  0  0  0  0  0
   -6.8721   -1.0459  -18.8540 C   0  0  0  0  0  0  0  0  0  0  0  0
   -6.1883   -0.5412  -17.7904 N   0  0  0  0  0  0  0  0  0  0  0  0
   -5.1577    0.2252  -18.0607 C   0  0  0  0  0  0  0  0  0  0  0  0
   -4.7214    0.5346  -19.3796 C   0  0  0  0  0  0  0  0  0  0  0  0
   -3.5923    1.3604  -19.6203 C   0  0  0  0  0  0  0  0  0  0  0  0
   -3.1930    1.6381  -20.9018 C   0  0  0  0  0  0  0  0  0  0  0  0
   -3.9078    1.0976  -21.9931 C   0  0  0  0  0  0  0  0  0  0  0  0
   -5.0048    0.2965  -21.7850 C   0  0  0  0  0  0  0  0  0  0  0  0
   -5.4467   -0.0057  -20.4695 C   0  0  0  0  0  0  0  0  0  0  0  0
   -5.5327   -0.1121  -22.6408 H   0  0  0  0  0  0  0  0  0  0  0  0
   -3.5870    1.3198  -23.0059 H   0  0  0  0  0  0  0  0  0  0  0  0
   -2.3315    2.2731  -21.0894 H   0  0  0  0  0  0  0  0  0  0  0  0
   -3.0523    1.7732  -18.7717 H   0  0  0  0  0  0  0  0  0  0  0  0
   -4.5998    0.6303  -17.2154 H   0  0  0  0  0  0  0  0  0  0  0  0
   -7.7211   -1.6717  -18.5867 H   0  0  0  0  0  0  0  0  0  0  0  0
   -8.3202   -1.8535  -20.8566 H   0  0  0  0  0  0  0  0  0  0  0  0
   -7.6859   -0.6972  -22.0123 H   0  0  0  0  0  0  0  0  0  0  0  0
   -5.0659   -3.6020  -24.9439 C   0  0  0  0  0  0  0  0  0  0  0  0
   -5.0164   -2.5659  -25.2680 H   0  0  0  0  0  0  0  0  0  0  0  0
   -6.7547   -5.5121  -22.6784 H   0  0  0  0  0  0  0  0  0  0  0  0
   -5.3454   -7.2406  -23.7420 H   0  0  0  0  0  0  0  0  0  0  0  0
   -3.7667   -6.6821  -25.5419 H   0  0  0  0  0  0  0  0  0  0  0  0
   -3.5907   -3.4569  -27.1368 H   0  0  0  0  0  0  0  0  0  0  0  0
   -0.6829   -5.3201  -28.2504 H   0  0  0  0  0  0  0  0  0  0  0  0
   -2.0046   -4.3421  -28.8864 H   0  0  0  0  0  0  0  0  0  0  0  0
   -1.1011   -2.3644  -27.5940 H   0  0  0  0  0  0  0  0  0  0  0  0
    0.2335   -3.3614  -27.0052 H   0  0  0  0  0  0  0  0  0  0  0  0
    0.1026   -2.9922  -28.7265 H   0  0  0  0  0  0  0  0  0  0  0  0
  1  2  1  0
  2  3  1  0
  3  4  2  0
  3  5  1  0
  5  6  1  0
  6  7  2  0
  7  8  1  0
  8  9  2  0
  9 10  1  0
 10 11  1  0
 11 12  1  0
 12 13  1  0
 13 14  2  0
 14 15  1  0
 15 16  2  0
 16 17  1  0
 17 18  2  0
 18 19  1  0
 17 20  1  0
 16 21  1  0
 15 22  1  0
 14 23  1  0
 12 24  1  0
 12 25  1  0
 11 26  1  0
 26 27  2  0
 26 28  1  0
 28 29  1  0
 29 30  2  0
 30 31  1  0
 31 32  2  0
 32 33  1  0
 33 34  2  0
 34 35  1  0
 35 36  2  0
 36 37  1  0
 37 38  2  0
 37 39  1  0
 36 40  1  0
 35 41  1  0
 34 42  1  0
 32 43  1  0
 30 44  1  0
 28 45  1  0
 28 46  1  0
 10 47  2  0
 47 48  1  0
  9 49  1  0
  8 50  1  0
  7 51  1  0
  5 52  1  0
  2 53  1  0
  2 54  1  0
  1 55  1  0
  1 56  1  0
  1 57  1  0
 47  6  1  0
 18 13  1  0
 38 29  1  0
 38 33  1  0
M  END
>  <cnnaffinities>  (50) 
[5.56925, 5.60465, 6.11298, 6.11293, 6.32514, 6.17652, 6.17689, 5.82797, 6.16841, 6.16672, 6.18222, 6.09833]

>  <score>  (50) 
5.56925

>  <index>  (50) 
52

>  <Smiles>  (50) 
C(C(C(=O)N(c1c(c(c(c(N(C(c2c(c(c(c(c2[H])[H])[H])[H])[H])([H])[H])C(=O)C(c2c(nc(c3c(c(c(c(c23)[H])[H])[H])[H])[H])[H])([H])[H])c1[H])[H])[H])[H])[H])([H])[H])([H])([H])[H]

>  <h>  (50) 
<NA>

>  <Training>  (50) 
True

>  <Success>  (50) 
True

>  <enamine_searched>  (50) 
False

>  <enamine_id>  (50) 
nan

$$$$

     RDKit          3D

 59 63  0  0  0  0  0  0  0  0999 V2000
  -10.5130   -0.5767  -29.2441 C   0  0  0  0  0  0  0  0  0  0  0  0
   -9.9068    0.8256  -29.2196 C   0  0  0  0  0  0  0  0  0  0  0  0
   -9.6546    1.2826  -27.8641 N   0  0  0  0  0  0  0  0  0  0  0  0
   -8.6060    0.7381  -27.1794 C   0  0  0  0  0  0  0  0  0  0  0  0
   -7.7322    0.0504  -27.6888 O   0  0  0  0  0  0  0  0  0  0  0  0
   -8.6497    1.0250  -25.6761 C   0  0  0  0  0  0  0  0  0  0  0  0
   -9.3309   -0.0506  -24.9813 N   0  0  0  0  0  0  0  0  0  0  0  0
   -8.5904   -1.2209  -24.5580 C   0  0  0  0  0  0  0  0  0  0  0  0
   -8.9590   -1.6292  -23.1110 C   0  0  2  0  0  0  0  0  0  0  0  0
   -8.2700   -0.6325  -22.1259 C   0  0  0  0  0  0  0  0  0  0  0  0
   -8.3898    0.5739  -22.1017 O   0  0  0  0  0  0  0  0  0  0  0  0
   -7.4350   -1.3488  -21.2860 N   0  0  0  0  0  0  0  0  0  0  0  0
   -6.6511   -0.7811  -20.2443 C   0  0  0  0  0  0  0  0  0  0  0  0
   -6.9406   -1.0616  -18.9299 C   0  0  0  0  0  0  0  0  0  0  0  0
   -6.2616   -0.5770  -17.8593 N   0  0  0  0  0  0  0  0  0  0  0  0
   -5.2336    0.1987  -18.1051 C   0  0  0  0  0  0  0  0  0  0  0  0
   -4.7838    0.5314  -19.4141 C   0  0  0  0  0  0  0  0  0  0  0  0
   -3.6403    1.3482  -19.6172 C   0  0  0  0  0  0  0  0  0  0  0  0
   -3.1965    1.6117  -20.8836 C   0  0  0  0  0  0  0  0  0  0  0  0
   -3.8639    1.0614  -21.9989 C   0  0  0  0  0  0  0  0  0  0  0  0
   -4.9770    0.2750  -21.8277 C   0  0  0  0  0  0  0  0  0  0  0  0
   -5.4864    0.0121  -20.5260 C   0  0  0  0  0  0  0  0  0  0  0  0
   -5.4690   -0.1627  -22.6900 H   0  0  0  0  0  0  0  0  0  0  0  0
   -3.4940    1.2617  -22.9997 H   0  0  0  0  0  0  0  0  0  0  0  0
   -2.3268    2.2432  -21.0392 H   0  0  0  0  0  0  0  0  0  0  0  0
   -3.1340    1.7509  -18.7442 H   0  0  0  0  0  0  0  0  0  0  0  0
   -4.6873    0.5900  -17.2474 H   0  0  0  0  0  0  0  0  0  0  0  0
   -7.7851   -1.7051  -18.6870 H   0  0  0  0  0  0  0  0  0  0  0  0
   -7.6783   -2.7727  -21.3368 C   0  0  0  0  0  0  0  0  0  0  0  0
   -8.3554   -3.0120  -22.7038 C   0  0  2  0  0  0  0  0  0  0  0  0
   -7.4302   -3.6808  -23.7329 C   0  0  0  0  0  0  0  0  0  0  0  0
   -7.9645   -3.8667  -24.6711 H   0  0  0  0  0  0  0  0  0  0  0  0
   -7.0996   -4.6587  -23.3672 H   0  0  0  0  0  0  0  0  0  0  0  0
   -6.5383   -3.0867  -23.9605 H   0  0  0  0  0  0  0  0  0  0  0  0
   -9.1808   -3.7172  -22.5744 H   0  0  0  0  0  0  0  0  0  0  0  0
   -8.3549   -3.0666  -20.5213 H   0  0  0  0  0  0  0  0  0  0  0  0
   -6.7305   -3.3124  -21.2154 H   0  0  0  0  0  0  0  0  0  0  0  0
  -10.4923   -1.6332  -23.0130 C   0  0  0  0  0  0  0  0  0  0  0  0
  -11.1491   -2.3337  -21.9902 C   0  0  0  0  0  0  0  0  0  0  0  0
  -12.5274   -2.2872  -21.8651 C   0  0  0  0  0  0  0  0  0  0  0  0
  -13.2947   -3.2014  -20.6011 Cl  0  0  0  0  0  0  0  0  0  0  0  0
  -13.3237   -1.5678  -22.7537 C   0  0  0  0  0  0  0  0  0  0  0  0
  -12.6860   -0.8412  -23.7408 C   0  0  0  0  0  0  0  0  0  0  0  0
  -11.3006   -0.8976  -23.8885 C   0  0  0  0  0  0  0  0  0  0  0  0
  -10.6897   -0.0478  -24.9496 C   0  0  0  0  0  0  0  0  0  0  0  0
  -11.3609    0.6652  -25.6997 O   0  0  0  0  0  0  0  0  0  0  0  0
  -13.2148   -0.1678  -24.4085 H   0  0  0  0  0  0  0  0  0  0  0  0
  -14.4058   -1.5837  -22.6634 H   0  0  0  0  0  0  0  0  0  0  0  0
  -10.6004   -2.9072  -21.2561 H   0  0  0  0  0  0  0  0  0  0  0  0
   -7.5262   -1.0014  -24.6622 H   0  0  0  0  0  0  0  0  0  0  0  0
   -8.8101   -2.0628  -25.2244 H   0  0  0  0  0  0  0  0  0  0  0  0
   -7.6395    1.1190  -25.2630 H   0  0  0  0  0  0  0  0  0  0  0  0
   -9.1851    1.9567  -25.4750 H   0  0  0  0  0  0  0  0  0  0  0  0
  -10.4830    1.4527  -27.2970 H   0  0  0  0  0  0  0  0  0  0  0  0
   -8.9503    0.8458  -29.7506 H   0  0  0  0  0  0  0  0  0  0  0  0
  -10.5715    1.5581  -29.6899 H   0  0  0  0  0  0  0  0  0  0  0  0
  -10.7261   -0.9040  -30.2645 H   0  0  0  0  0  0  0  0  0  0  0  0
   -9.8118   -1.2869  -28.7956 H   0  0  0  0  0  0  0  0  0  0  0  0
  -11.4486   -0.6085  -28.6726 H   0  0  0  0  0  0  0  0  0  0  0  0
  1  2  1  0
  2  3  1  0
  3  4  1  0
  4  5  2  0
  4  6  1  0
  6  7  1  0
  7  8  1  0
  9  8  1  6
  9 10  1  0
 10 11  2  0
 10 12  1  0
 12 13  1  0
 13 14  2  0
 14 15  1  0
 15 16  2  0
 16 17  1  0
 17 18  2  0
 18 19  1  0
 19 20  2  0
 20 21  1  0
 21 22  2  0
 21 23  1  0
 20 24  1  0
 19 25  1  0
 18 26  1  0
 16 27  1  0
 14 28  1  0
 12 29  1  0
 29 30  1  0
 30 31  1  0
 31 32  1  0
 31 33  1  0
 31 34  1  0
 30 35  1  1
 29 36  1  0
 29 37  1  0
  9 38  1  0
 38 39  2  0
 39 40  1  0
 40 41  1  0
 40 42  2  0
 42 43  1  0
 43 44  2  0
 44 45  1  0
 45 46  2  0
 43 47  1  0
 42 48  1  0
 39 49  1  0
  8 50  1  0
  8 51  1  0
  6 52  1  0
  6 53  1  0
  3 54  1  0
  2 55  1  0
  2 56  1  0
  1 57  1  0
  1 58  1  0
  1 59  1  0
 45  7  1  0
 30  9  1  0
 44 38  1  0
 22 13  1  0
 22 17  1  0
M  END
>  <cnnaffinities>  (51) 
[6.39333, 6.42415, 6.35828, 6.88378, 6.8784]

>  <score>  (51) 
6.39333

>  <index>  (51) 
53

>  <Smiles>  (51) 
C(C(N(C(=O)C(N1C([C@@]2(C(=O)N(c3c(nc(c4c(c(c(c(c34)[H])[H])[H])[H])[H])[H])C([C@@]2(C([H])([H])[H])[H])([H])[H])c2c(c(Cl)c(c(c2C1=O)[H])[H])[H])([H])[H])([H])[H])[H])([H])[H])([H])([H])[H]

>  <h>  (51) 
<NA>

>  <Training>  (51) 
True

>  <Success>  (51) 
True

>  <enamine_searched>  (51) 
False

>  <enamine_id>  (51) 
nan

$$$$

     RDKit          3D

 40 43  0  0  0  0  0  0  0  0999 V2000
   -9.5749   -1.3386  -24.0572 C   0  0  0  0  0  0  0  0  0  0  0  0
   -8.7820   -1.6246  -22.8764 N   0  0  0  0  0  0  0  0  0  0  0  0
   -8.4644   -2.8429  -22.3330 C   0  0  0  0  0  0  0  0  0  0  0  0
   -8.9105   -4.1509  -22.9024 C   0  0  0  0  0  0  0  0  0  0  0  0
   -8.0827   -4.5388  -24.1091 C   0  0  0  0  0  0  0  0  0  0  0  0
   -8.5953   -4.4430  -25.3996 C   0  0  0  0  0  0  0  0  0  0  0  0
   -7.8116   -4.7744  -26.5010 C   0  0  0  0  0  0  0  0  0  0  0  0
   -6.5005   -5.2001  -26.3162 C   0  0  0  0  0  0  0  0  0  0  0  0
   -5.9776   -5.2878  -25.0291 C   0  0  0  0  0  0  0  0  0  0  0  0
   -6.7631   -4.9518  -23.9322 C   0  0  0  0  0  0  0  0  0  0  0  0
   -6.3517   -5.0116  -22.9273 H   0  0  0  0  0  0  0  0  0  0  0  0
   -4.9535   -5.6193  -24.8826 H   0  0  0  0  0  0  0  0  0  0  0  0
   -5.8879   -5.4616  -27.1740 H   0  0  0  0  0  0  0  0  0  0  0  0
   -8.2281   -4.7035  -27.5012 H   0  0  0  0  0  0  0  0  0  0  0  0
   -9.6183   -4.1031  -25.5458 H   0  0  0  0  0  0  0  0  0  0  0  0
   -9.9754   -4.1078  -23.1625 H   0  0  0  0  0  0  0  0  0  0  0  0
   -8.8081   -4.8951  -22.1070 H   0  0  0  0  0  0  0  0  0  0  0  0
   -7.6572   -2.7298  -21.3202 N   0  0  0  0  0  0  0  0  0  0  0  0
   -7.4048   -1.3858  -21.2120 N   0  0  0  0  0  0  0  0  0  0  0  0
   -6.5810   -0.8349  -20.1826 C   0  0  0  0  0  0  0  0  0  0  0  0
   -6.8873   -1.0595  -18.8625 C   0  0  0  0  0  0  0  0  0  0  0  0
   -6.1968   -0.5430  -17.8149 N   0  0  0  0  0  0  0  0  0  0  0  0
   -5.1630    0.2243  -18.0710 C   0  0  0  0  0  0  0  0  0  0  0  0
   -4.7238    0.5328  -19.3883 C   0  0  0  0  0  0  0  0  0  0  0  0
   -3.5880    1.3575  -19.6247 C   0  0  0  0  0  0  0  0  0  0  0  0
   -3.1797    1.6157  -20.9048 C   0  0  0  0  0  0  0  0  0  0  0  0
   -3.8788    1.0571  -21.9981 C   0  0  0  0  0  0  0  0  0  0  0  0
   -4.9728    0.2564  -21.7939 C   0  0  0  0  0  0  0  0  0  0  0  0
   -5.4405   -0.0131  -20.4787 C   0  0  0  0  0  0  0  0  0  0  0  0
   -5.4952   -0.1772  -22.6389 H   0  0  0  0  0  0  0  0  0  0  0  0
   -3.5455    1.2562  -23.0114 H   0  0  0  0  0  0  0  0  0  0  0  0
   -2.3162    2.2455  -21.0961 H   0  0  0  0  0  0  0  0  0  0  0  0
   -3.0516    1.7752  -18.7752 H   0  0  0  0  0  0  0  0  0  0  0  0
   -4.6055    0.6263  -17.2204 H   0  0  0  0  0  0  0  0  0  0  0  0
   -7.7382   -1.6780  -18.5923 H   0  0  0  0  0  0  0  0  0  0  0  0
   -8.1141   -0.6451  -22.1482 C   0  0  0  0  0  0  0  0  0  0  0  0
   -8.1402    0.5577  -22.3051 O   0  0  0  0  0  0  0  0  0  0  0  0
   -9.0058   -1.4809  -24.9813 H   0  0  0  0  0  0  0  0  0  0  0  0
   -9.8973   -0.2998  -24.0231 H   0  0  0  0  0  0  0  0  0  0  0  0
  -10.4726   -1.9607  -24.1007 H   0  0  0  0  0  0  0  0  0  0  0  0
  1  2  1  0
  2  3  1  0
  3  4  1  0
  4  5  1  0
  5  6  2  0
  6  7  1  0
  7  8  2  0
  8  9  1  0
  9 10  2  0
 10 11  1  0
  9 12  1  0
  8 13  1  0
  7 14  1  0
  6 15  1  0
  4 16  1  0
  4 17  1  0
  3 18  2  0
 18 19  1  0
 19 20  1  0
 20 21  2  0
 21 22  1  0
 22 23  2  0
 23 24  1  0
 24 25  2  0
 25 26  1  0
 26 27  2  0
 27 28  1  0
 28 29  2  0
 28 30  1  0
 27 31  1  0
 26 32  1  0
 25 33  1  0
 23 34  1  0
 21 35  1  0
 19 36  1  0
 36 37  2  0
  1 38  1  0
  1 39  1  0
  1 40  1  0
 36  2  1  0
 10  5  1  0
 29 20  1  0
 29 24  1  0
M  END
>  <cnnaffinities>  (52) 
[5.46095, 5.46183, 5.49178, 5.49045]

>  <score>  (52) 
5.46095

>  <index>  (52) 
54

>  <Smiles>  (52) 
C(n1c(C(c2c(c(c(c(c2[H])[H])[H])[H])[H])([H])[H])nn(c2c(nc(c3c(c(c(c(c23)[H])[H])[H])[H])[H])[H])c1=O)([H])([H])[H]

>  <h>  (52) 
<NA>

>  <Training>  (52) 
True

>  <Success>  (52) 
True

>  <enamine_searched>  (52) 
False

>  <enamine_id>  (52) 
nan

$$$$

     RDKit          3D

 61 66  0  0  0  0  0  0  0  0999 V2000
   -8.1161   -6.3802  -23.6844 C   0  0  0  0  0  0  0  0  0  0  0  0
   -8.3218   -5.2839  -22.8356 O   0  0  0  0  0  0  0  0  0  0  0  0
   -8.3433   -4.0671  -23.5310 C   0  0  0  0  0  0  0  0  0  0  0  0
   -8.5323   -2.9429  -22.5324 C   0  0  1  0  0  0  0  0  0  0  0  0
   -7.3642   -2.7503  -21.5629 C   0  0  0  0  0  0  0  0  0  0  0  0
   -7.4484   -1.3463  -21.2264 N   0  0  0  0  0  0  0  0  0  0  0  0
   -6.6382   -0.7879  -20.2106 C   0  0  0  0  0  0  0  0  0  0  0  0
   -6.9247   -1.0651  -18.8977 C   0  0  0  0  0  0  0  0  0  0  0  0
   -6.2430   -0.5740  -17.8340 N   0  0  0  0  0  0  0  0  0  0  0  0
   -5.2185    0.2018  -18.0991 C   0  0  0  0  0  0  0  0  0  0  0  0
   -4.7754    0.5227  -19.4137 C   0  0  0  0  0  0  0  0  0  0  0  0
   -3.6374    1.3430  -19.6268 C   0  0  0  0  0  0  0  0  0  0  0  0
   -3.2019    1.6095  -20.8940 C   0  0  0  0  0  0  0  0  0  0  0  0
   -3.8762    1.0613  -22.0081 C   0  0  0  0  0  0  0  0  0  0  0  0
   -4.9863    0.2736  -21.8300 C   0  0  0  0  0  0  0  0  0  0  0  0
   -5.4815   -0.0001  -20.5199 C   0  0  0  0  0  0  0  0  0  0  0  0
   -5.4822   -0.1458  -22.7019 H   0  0  0  0  0  0  0  0  0  0  0  0
   -3.5075    1.2659  -23.0088 H   0  0  0  0  0  0  0  0  0  0  0  0
   -2.3348    2.2423  -21.0520 H   0  0  0  0  0  0  0  0  0  0  0  0
   -3.1323    1.7504  -18.7548 H   0  0  0  0  0  0  0  0  0  0  0  0
   -4.6648    0.6081  -17.2526 H   0  0  0  0  0  0  0  0  0  0  0  0
   -7.7745   -1.7069  -18.6686 H   0  0  0  0  0  0  0  0  0  0  0  0
   -8.2462   -0.5984  -22.0726 C   0  0  0  0  0  0  0  0  0  0  0  0
   -8.4299    0.5907  -21.9592 O   0  0  0  0  0  0  0  0  0  0  0  0
   -8.7762   -1.5577  -23.1751 C   0  0  1  0  0  0  0  0  0  0  0  0
   -7.9326   -1.3662  -24.4512 C   0  0  0  0  0  0  0  0  0  0  0  0
   -8.1858   -0.0597  -25.0175 N   0  0  0  0  0  0  0  0  0  0  0  0
   -7.0732    0.6717  -25.5800 C   0  0  0  0  0  0  0  0  0  0  0  0
   -6.6127    0.1022  -26.8865 C   0  0  0  0  0  0  0  0  0  0  0  0
   -5.7143   -0.8671  -27.1799 C   0  0  0  0  0  0  0  0  0  0  0  0
   -5.7061   -1.0011  -28.5562 N   0  0  0  0  0  4  0  0  0  0  0  0
   -6.5875   -0.1402  -29.0804 C   0  0  0  0  0  0  0  0  0  0  0  0
   -7.1713    0.5322  -28.0767 N   0  0  0  0  0  0  0  0  0  0  0  0
   -7.9582    1.1800  -28.1232 H   0  0  0  0  0  0  0  0  0  0  0  0
   -6.7469    0.0183  -30.1334 H   0  0  0  0  0  0  0  0  0  0  0  0
   -5.1517   -1.6785  -29.0639 H   0  0  0  0  0  0  0  0  0  0  0  0
   -5.0769   -1.4853  -26.5535 H   0  0  0  0  0  0  0  0  0  0  0  0
   -6.2673    0.6638  -24.8370 H   0  0  0  0  0  0  0  0  0  0  0  0
   -7.4077    1.7075  -25.7055 H   0  0  0  0  0  0  0  0  0  0  0  0
   -9.4477    0.2656  -25.4210 C   0  0  0  0  0  0  0  0  0  0  0  0
   -9.6686    1.0787  -26.3149 O   0  0  0  0  0  0  0  0  0  0  0  0
  -10.5202   -0.4276  -24.6455 C   0  0  0  0  0  0  0  0  0  0  0  0
  -11.8403   -0.1128  -24.9583 C   0  0  0  0  0  0  0  0  0  0  0  0
  -12.8753   -0.5741  -24.1709 C   0  0  0  0  0  0  0  0  0  0  0  0
  -12.5609   -1.4033  -23.0958 C   0  0  0  0  0  0  0  0  0  0  0  0
  -13.8185   -1.9378  -22.0259 Cl  0  0  0  0  0  0  0  0  0  0  0  0
  -11.2678   -1.8056  -22.8253 C   0  0  0  0  0  0  0  0  0  0  0  0
  -10.2099   -1.2878  -23.5791 C   0  0  0  0  0  0  0  0  0  0  0  0
  -11.1153   -2.5393  -22.0443 H   0  0  0  0  0  0  0  0  0  0  0  0
  -13.9034   -0.2962  -24.3705 H   0  0  0  0  0  0  0  0  0  0  0  0
  -12.0126    0.4961  -25.8363 H   0  0  0  0  0  0  0  0  0  0  0  0
   -6.8637   -1.4627  -24.2378 H   0  0  0  0  0  0  0  0  0  0  0  0
   -8.1949   -2.1543  -25.1731 H   0  0  0  0  0  0  0  0  0  0  0  0
   -7.4765   -3.3439  -20.6606 H   0  0  0  0  0  0  0  0  0  0  0  0
   -6.3947   -3.0136  -22.0104 H   0  0  0  0  0  0  0  0  0  0  0  0
   -9.3970   -3.2041  -21.9226 H   0  0  0  0  0  0  0  0  0  0  0  0
   -9.1600   -4.0470  -24.2729 H   0  0  0  0  0  0  0  0  0  0  0  0
   -7.4026   -3.9160  -24.0881 H   0  0  0  0  0  0  0  0  0  0  0  0
   -7.1444   -6.3215  -24.1964 H   0  0  0  0  0  0  0  0  0  0  0  0
   -8.9022   -6.4606  -24.4497 H   0  0  0  0  0  0  0  0  0  0  0  0
   -8.1342   -7.2792  -23.0665 H   0  0  0  0  0  0  0  0  0  0  0  0
  1  2  1  0
  2  3  1  0
  3  4  1  0
  4  5  1  0
  5  6  1  0
  6  7  1  0
  7  8  2  0
  8  9  1  0
  9 10  2  0
 10 11  1  0
 11 12  2  0
 12 13  1  0
 13 14  2  0
 14 15  1  0
 15 16  2  0
 15 17  1  0
 14 18  1  0
 13 19  1  0
 12 20  1  0
 10 21  1  0
  8 22  1  0
  6 23  1  0
 23 24  2  0
 23 25  1  0
 25 26  1  6
 26 27  1  0
 27 28  1  0
 28 29  1  0
 29 30  2  0
 30 31  1  0
 31 32  2  0
 32 33  1  0
 33 34  1  0
 32 35  1  0
 31 36  1  0
 30 37  1  0
 28 38  1  0
 28 39  1  0
 27 40  1  0
 40 41  2  0
 40 42  1  0
 42 43  2  0
 43 44  1  0
 44 45  2  0
 45 46  1  0
 45 47  1  0
 47 48  2  0
 47 49  1  0
 44 50  1  0
 43 51  1  0
 26 52  1  0
 26 53  1  0
  5 54  1  0
  5 55  1  0
  4 56  1  1
  3 57  1  0
  3 58  1  0
  1 59  1  0
  1 60  1  0
  1 61  1  0
 25  4  1  0
 33 29  1  0
 48 42  1  0
 16  7  1  0
 48 25  1  0
 16 11  1  0
M  CHG  1  31   1
M  END
>  <cnnaffinities>  (53) 
[6.27044, 6.69117]

>  <score>  (53) 
6.27044

>  <index>  (53) 
55

>  <Smiles>  (53) 
C(OC([C@]1(C(N(c2c(nc(c3c(c(c(c(c23)[H])[H])[H])[H])[H])[H])C(=O)[C@]21C(N(C(c1c([n+](c(n1[H])[H])[H])[H])([H])[H])C(=O)c1c(c(c(Cl)c(c21)[H])[H])[H])([H])[H])([H])[H])[H])([H])[H])([H])([H])[H]

>  <h>  (53) 
<NA>

>  <Training>  (53) 
True

>  <Success>  (53) 
True

>  <enamine_searched>  (53) 
False

>  <enamine_id>  (53) 
nan

$$$$

     RDKit          3D

 57 62  0  0  0  0  0  0  0  0999 V2000
  -10.1591   -0.9522  -23.7594 C   0  0  0  0  0  0  0  0  0  0  0  0
   -8.8398   -1.2973  -23.0762 C   0  0  1  0  0  0  0  0  0  0  0  0
   -8.4038   -0.3695  -21.9312 C   0  0  0  0  0  0  0  0  0  0  0  0
   -7.4082   -1.1802  -21.2324 N   0  0  0  0  0  0  0  0  0  0  0  0
   -6.6014   -0.7151  -20.1616 C   0  0  0  0  0  0  0  0  0  0  0  0
   -6.8943   -1.0179  -18.8566 C   0  0  0  0  0  0  0  0  0  0  0  0
   -6.2210   -0.5180  -17.7869 N   0  0  0  0  0  0  0  0  0  0  0  0
   -5.2073    0.2823  -18.0222 C   0  0  0  0  0  0  0  0  0  0  0  0
   -4.7531    0.6291  -19.3292 C   0  0  0  0  0  0  0  0  0  0  0  0
   -3.6118    1.4463  -19.5621 C   0  0  0  0  0  0  0  0  0  0  0  0
   -3.1820    1.6779  -20.8423 C   0  0  0  0  0  0  0  0  0  0  0  0
   -3.8691    1.1208  -21.9449 C   0  0  0  0  0  0  0  0  0  0  0  0
   -4.9871    0.3527  -21.7457 C   0  0  0  0  0  0  0  0  0  0  0  0
   -5.4605    0.1014  -20.4333 C   0  0  0  0  0  0  0  0  0  0  0  0
   -5.5085   -0.0911  -22.5864 H   0  0  0  0  0  0  0  0  0  0  0  0
   -3.5082    1.2949  -22.9550 H   0  0  0  0  0  0  0  0  0  0  0  0
   -2.3031    2.2909  -21.0242 H   0  0  0  0  0  0  0  0  0  0  0  0
   -3.0829    1.8722  -18.7113 H   0  0  0  0  0  0  0  0  0  0  0  0
   -4.6758    0.6762  -17.1537 H   0  0  0  0  0  0  0  0  0  0  0  0
   -7.7119   -1.6956  -18.6218 H   0  0  0  0  0  0  0  0  0  0  0  0
   -7.5329   -2.5313  -21.4965 C   0  0  0  0  0  0  0  0  0  0  0  0
   -6.8200   -3.3978  -21.0358 O   0  0  0  0  0  0  0  0  0  0  0  0
   -8.7125   -2.7301  -22.4576 C   0  0  1  0  0  0  0  0  0  0  0  0
   -9.9372   -3.1056  -21.5759 C   0  0  0  0  0  0  0  0  0  0  0  0
  -11.0852   -3.5531  -22.3514 N   0  0  0  0  0  0  0  0  0  0  0  0
  -12.4031   -3.5789  -21.7102 C   0  0  0  0  0  0  0  0  0  0  0  0
  -13.3392   -2.4475  -22.0579 C   0  0  0  0  0  0  0  0  0  0  0  0
  -13.5299   -2.1569  -23.3427 N   0  0  0  0  0  0  0  0  0  0  0  0
  -14.4391   -1.2011  -23.5849 C   0  0  0  0  0  0  0  0  0  0  0  0
  -15.0854   -0.5115  -22.5763 C   0  0  0  0  0  0  0  0  0  0  0  0
  -14.8043   -0.8976  -21.2773 C   0  0  0  0  0  0  0  0  0  0  0  0
  -13.9762   -1.9002  -21.0112 N   0  0  0  0  0  0  0  0  0  0  0  0
  -15.2586   -0.3966  -20.4167 H   0  0  0  0  0  0  0  0  0  0  0  0
  -15.7700    0.3103  -22.7797 H   0  0  0  0  0  0  0  0  0  0  0  0
  -14.6423   -0.9840  -24.6353 H   0  0  0  0  0  0  0  0  0  0  0  0
  -12.8971   -4.5135  -21.9936 H   0  0  0  0  0  0  0  0  0  0  0  0
  -12.3197   -3.5816  -20.6281 H   0  0  0  0  0  0  0  0  0  0  0  0
  -10.8877   -4.4662  -23.3522 C   0  0  0  0  0  0  0  0  0  0  0  0
  -11.8062   -5.1317  -23.7828 O   0  0  0  0  0  0  0  0  0  0  0  0
   -9.5083   -4.6379  -23.8964 C   0  0  0  0  0  0  0  0  0  0  0  0
   -9.3344   -5.6261  -24.8678 C   0  0  0  0  0  0  0  0  0  0  0  0
   -8.0881   -5.8640  -25.4107 C   0  0  0  0  0  0  0  0  0  0  0  0
   -7.0325   -5.0759  -24.9657 C   0  0  0  0  0  0  0  0  0  0  0  0
   -5.8105   -5.3257  -25.4645 F   0  0  0  0  0  0  0  0  0  0  0  0
   -7.1840   -4.0635  -24.0345 C   0  0  0  0  0  0  0  0  0  0  0  0
   -8.4506   -3.8320  -23.4706 C   0  0  0  0  0  0  0  0  0  0  0  0
   -6.3013   -3.5157  -23.7201 H   0  0  0  0  0  0  0  0  0  0  0  0
   -7.9236   -6.6471  -26.1439 H   0  0  0  0  0  0  0  0  0  0  0  0
  -10.2101   -6.1927  -25.1711 H   0  0  0  0  0  0  0  0  0  0  0  0
   -9.6223   -3.8924  -20.8746 H   0  0  0  0  0  0  0  0  0  0  0  0
  -10.2644   -2.2404  -20.9894 H   0  0  0  0  0  0  0  0  0  0  0  0
   -7.9835    0.5780  -22.2832 H   0  0  0  0  0  0  0  0  0  0  0  0
   -9.2399   -0.1117  -21.2663 H   0  0  0  0  0  0  0  0  0  0  0  0
   -8.0487   -1.2446  -23.8344 H   0  0  0  0  0  0  0  0  0  0  0  0
  -10.1084    0.0403  -24.2159 H   0  0  0  0  0  0  0  0  0  0  0  0
  -11.0066   -0.9404  -23.0716 H   0  0  0  0  0  0  0  0  0  0  0  0
  -10.3772   -1.6789  -24.5518 H   0  0  0  0  0  0  0  0  0  0  0  0
  1  2  1  0
  2  3  1  0
  3  4  1  0
  4  5  1  0
  5  6  2  0
  6  7  1  0
  7  8  2  0
  8  9  1  0
  9 10  2  0
 10 11  1  0
 11 12  2  0
 12 13  1  0
 13 14  2  0
 13 15  1  0
 12 16  1  0
 11 17  1  0
 10 18  1  0
  8 19  1  0
  6 20  1  0
  4 21  1  0
 21 22  2  0
 21 23  1  0
 23 24  1  1
 24 25  1  0
 25 26  1  0
 26 27  1  0
 27 28  2  0
 28 29  1  0
 29 30  2  0
 30 31  1  0
 31 32  2  0
 31 33  1  0
 30 34  1  0
 29 35  1  0
 26 36  1  0
 26 37  1  0
 25 38  1  0
 38 39  2  0
 38 40  1  0
 40 41  2  0
 41 42  1  0
 42 43  2  0
 43 44  1  0
 43 45  1  0
 45 46  2  0
 45 47  1  0
 42 48  1  0
 41 49  1  0
 24 50  1  0
 24 51  1  0
  3 52  1  0
  3 53  1  0
  2 54  1  6
  1 55  1  0
  1 56  1  0
  1 57  1  0
 23  2  1  0
 32 27  1  0
 46 40  1  0
 14  5  1  0
 46 23  1  0
 14  9  1  0
M  END
>  <cnnaffinities>  (54) 
[6.84565, 6.82048]

>  <score>  (54) 
6.84565

>  <index>  (54) 
56

>  <Smiles>  (54) 
C([C@]1(C(N(c2c(nc(c3c(c(c(c(c23)[H])[H])[H])[H])[H])[H])C(=O)[C@]21C(N(C(c1nc(c(c(n1)[H])[H])[H])([H])[H])C(=O)c1c(c(c(F)c(c21)[H])[H])[H])([H])[H])([H])[H])[H])([H])([H])[H]

>  <h>  (54) 
<NA>

>  <Training>  (54) 
True

>  <Success>  (54) 
True

>  <enamine_searched>  (54) 
False

>  <enamine_id>  (54) 
nan

$$$$

     RDKit          3D

 59 63  0  0  0  0  0  0  0  0999 V2000
  -14.4929   -1.2255  -23.5316 C   0  0  0  0  0  0  0  0  0  0  0  0
  -13.6981   -2.3655  -23.0954 N   0  0  0  0  0  0  0  0  0  0  0  0
  -13.4638   -2.6156  -21.7740 C   0  0  0  0  0  0  0  0  0  0  0  0
  -14.0351   -2.0104  -20.8843 O   0  0  0  0  0  0  0  0  0  0  0  0
  -12.4882   -3.7717  -21.4793 C   0  0  0  0  0  0  0  0  0  0  0  0
  -11.1533   -3.7088  -22.0897 N   0  0  0  0  0  0  0  0  0  0  0  0
   -9.9792   -3.2179  -21.3794 C   0  0  0  0  0  0  0  0  0  0  0  0
   -8.7743   -2.9096  -22.3164 C   0  0  2  0  0  0  0  0  0  0  0  0
   -7.5571   -2.6412  -21.4412 C   0  0  0  0  0  0  0  0  0  0  0  0
   -6.7826   -3.4666  -20.9934 O   0  0  0  0  0  0  0  0  0  0  0  0
   -7.4290   -1.2868  -21.2571 N   0  0  0  0  0  0  0  0  0  0  0  0
   -6.6274   -0.7918  -20.2003 C   0  0  0  0  0  0  0  0  0  0  0  0
   -6.9208   -1.0798  -18.8893 C   0  0  0  0  0  0  0  0  0  0  0  0
   -6.2415   -0.5740  -17.8269 N   0  0  0  0  0  0  0  0  0  0  0  0
   -5.2271    0.2160  -18.0832 C   0  0  0  0  0  0  0  0  0  0  0  0
   -4.7827    0.5424  -19.3957 C   0  0  0  0  0  0  0  0  0  0  0  0
   -3.6433    1.3566  -19.6241 C   0  0  0  0  0  0  0  0  0  0  0  0
   -3.2269    1.6158  -20.8999 C   0  0  0  0  0  0  0  0  0  0  0  0
   -3.9184    1.0728  -22.0068 C   0  0  0  0  0  0  0  0  0  0  0  0
   -5.0300    0.2879  -21.8125 C   0  0  0  0  0  0  0  0  0  0  0  0
   -5.4924    0.0188  -20.4969 C   0  0  0  0  0  0  0  0  0  0  0  0
   -5.5489   -0.1431  -22.6622 H   0  0  0  0  0  0  0  0  0  0  0  0
   -3.5691    1.2736  -23.0147 H   0  0  0  0  0  0  0  0  0  0  0  0
   -2.3550    2.2400  -21.0761 H   0  0  0  0  0  0  0  0  0  0  0  0
   -3.1167    1.7609  -18.7637 H   0  0  0  0  0  0  0  0  0  0  0  0
   -4.6833    0.6264  -17.2307 H   0  0  0  0  0  0  0  0  0  0  0  0
   -7.7472   -1.7452  -18.6479 H   0  0  0  0  0  0  0  0  0  0  0  0
   -8.4492   -0.5244  -21.9642 C   0  0  0  0  0  0  0  0  0  0  0  0
   -8.9690   -1.5081  -23.0478 C   0  0  0  0  0  0  0  0  0  0  0  0
  -10.4101   -1.2160  -23.4629 C   0  0  0  0  0  0  0  0  0  0  0  0
  -11.1212   -1.4213  -22.6714 H   0  0  0  0  0  0  0  0  0  0  0  0
  -10.6897   -1.8342  -24.3198 H   0  0  0  0  0  0  0  0  0  0  0  0
  -10.5334   -0.1753  -23.7610 H   0  0  0  0  0  0  0  0  0  0  0  0
   -8.1276   -1.4129  -24.3309 C   0  0  0  0  0  0  0  0  0  0  0  0
   -8.4878   -2.1498  -25.0582 H   0  0  0  0  0  0  0  0  0  0  0  0
   -8.2331   -0.4193  -24.7820 H   0  0  0  0  0  0  0  0  0  0  0  0
   -7.0654   -1.6173  -24.1611 H   0  0  0  0  0  0  0  0  0  0  0  0
   -8.0324    0.3932  -22.3897 H   0  0  0  0  0  0  0  0  0  0  0  0
   -9.2553   -0.2331  -21.2772 H   0  0  0  0  0  0  0  0  0  0  0  0
   -8.5254   -4.0970  -23.2110 C   0  0  0  0  0  0  0  0  0  0  0  0
   -7.2541   -4.4563  -23.6858 C   0  0  0  0  0  0  0  0  0  0  0  0
   -7.1268   -5.4532  -24.6375 C   0  0  0  0  0  0  0  0  0  0  0  0
   -5.5444   -5.8718  -25.2428 Cl  0  0  0  0  0  0  0  0  0  0  0  0
   -8.2384   -6.1317  -25.1385 C   0  0  0  0  0  0  0  0  0  0  0  0
   -9.4874   -5.7901  -24.6623 C   0  0  0  0  0  0  0  0  0  0  0  0
   -9.6210   -4.7998  -23.6907 C   0  0  0  0  0  0  0  0  0  0  0  0
  -10.9847   -4.5187  -23.1748 C   0  0  0  0  0  0  0  0  0  0  0  0
  -11.9494   -5.0346  -23.7064 O   0  0  0  0  0  0  0  0  0  0  0  0
  -10.3901   -6.2663  -25.0333 H   0  0  0  0  0  0  0  0  0  0  0  0
   -8.1235   -6.9151  -25.8781 H   0  0  0  0  0  0  0  0  0  0  0  0
   -6.3662   -3.9666  -23.3093 H   0  0  0  0  0  0  0  0  0  0  0  0
  -10.2273   -2.3062  -20.8301 H   0  0  0  0  0  0  0  0  0  0  0  0
   -9.6740   -3.9681  -20.6552 H   0  0  0  0  0  0  0  0  0  0  0  0
  -12.4506   -3.9568  -20.4041 H   0  0  0  0  0  0  0  0  0  0  0  0
  -12.9661   -4.6386  -21.9386 H   0  0  0  0  0  0  0  0  0  0  0  0
  -13.2690   -2.9473  -23.8012 H   0  0  0  0  0  0  0  0  0  0  0  0
  -13.8937   -0.3038  -23.5945 H   0  0  0  0  0  0  0  0  0  0  0  0
  -14.9128   -1.4534  -24.5177 H   0  0  0  0  0  0  0  0  0  0  0  0
  -15.3080   -1.0374  -22.8250 H   0  0  0  0  0  0  0  0  0  0  0  0
  1  2  1  0
  2  3  1  0
  3  4  2  0
  3  5  1  0
  5  6  1  0
  6  7  1  0
  8  7  1  1
  8  9  1  0
  9 10  2  0
  9 11  1  0
 11 12  1  0
 12 13  2  0
 13 14  1  0
 14 15  2  0
 15 16  1  0
 16 17  2  0
 17 18  1  0
 18 19  2  0
 19 20  1  0
 20 21  2  0
 20 22  1  0
 19 23  1  0
 18 24  1  0
 17 25  1  0
 15 26  1  0
 13 27  1  0
 11 28  1  0
 28 29  1  0
 29 30  1  0
 30 31  1  0
 30 32  1  0
 30 33  1  0
 29 34  1  0
 34 35  1  0
 34 36  1  0
 34 37  1  0
 28 38  1  0
 28 39  1  0
  8 40  1  0
 40 41  2  0
 41 42  1  0
 42 43  1  0
 42 44  2  0
 44 45  1  0
 45 46  2  0
 46 47  1  0
 47 48  2  0
 45 49  1  0
 44 50  1  0
 41 51  1  0
  7 52  1  0
  7 53  1  0
  5 54  1  0
  5 55  1  0
  2 56  1  0
  1 57  1  0
  1 58  1  0
  1 59  1  0
 47  6  1  0
 29  8  1  0
 46 40  1  0
 21 12  1  0
 21 16  1  0
M  END
>  <cnnaffinities>  (55) 
[6.59574]

>  <score>  (55) 
6.59574

>  <index>  (55) 
57

>  <Smiles>  (55) 
C(N(C(=O)C(N1C([C@@]2(C(=O)N(c3c(nc(c4c(c(c(c(c34)[H])[H])[H])[H])[H])[H])C(C2(C([H])([H])[H])C([H])([H])[H])([H])[H])c2c(c(Cl)c(c(c2C1=O)[H])[H])[H])([H])[H])([H])[H])[H])([H])([H])[H]

>  <h>  (55) 
<NA>

>  <Training>  (55) 
True

>  <Success>  (55) 
True

>  <enamine_searched>  (55) 
False

>  <enamine_id>  (55) 
nan

$$$$

     RDKit          3D

 42 45  0  0  0  0  0  0  0  0999 V2000
  -10.7705   -3.7023  -21.7189 C   0  0  0  0  0  0  0  0  0  0  0  0
   -9.7738   -3.2479  -22.6737 N   0  0  0  0  0  0  0  0  0  0  0  0
   -9.9702   -2.0316  -23.4429 C   0  0  0  0  0  0  0  0  0  0  0  0
   -8.6387   -1.2569  -23.5413 C   0  0  1  0  0  0  0  0  0  0  0  0
   -8.1952   -0.6397  -22.1859 C   0  0  0  0  0  0  0  0  0  0  0  0
   -8.5278    0.4866  -21.8771 O   0  0  0  0  0  0  0  0  0  0  0  0
   -7.4045   -1.4101  -21.3538 N   0  0  0  0  0  0  0  0  0  0  0  0
   -6.6558   -0.8480  -20.2793 C   0  0  0  0  0  0  0  0  0  0  0  0
   -6.9929   -1.1028  -18.9747 C   0  0  0  0  0  0  0  0  0  0  0  0
   -6.3420   -0.5962  -17.8932 N   0  0  0  0  0  0  0  0  0  0  0  0
   -5.3108    0.1828  -18.1151 C   0  0  0  0  0  0  0  0  0  0  0  0
   -4.8278    0.5029  -19.4137 C   0  0  0  0  0  0  0  0  0  0  0  0
   -3.6884    1.3296  -19.6047 C   0  0  0  0  0  0  0  0  0  0  0  0
   -3.2196    1.5799  -20.8647 C   0  0  0  0  0  0  0  0  0  0  0  0
   -3.8634    1.0088  -21.9876 C   0  0  0  0  0  0  0  0  0  0  0  0
   -4.9725    0.2157  -21.8294 C   0  0  0  0  0  0  0  0  0  0  0  0
   -5.5014   -0.0385  -20.5324 C   0  0  0  0  0  0  0  0  0  0  0  0
   -5.4467   -0.2441  -22.6926 H   0  0  0  0  0  0  0  0  0  0  0  0
   -3.4719    1.1985  -22.9826 H   0  0  0  0  0  0  0  0  0  0  0  0
   -2.3510    2.2168  -21.0126 H   0  0  0  0  0  0  0  0  0  0  0  0
   -3.2059    1.7507  -18.7254 H   0  0  0  0  0  0  0  0  0  0  0  0
   -4.7829    0.5872  -17.2484 H   0  0  0  0  0  0  0  0  0  0  0  0
   -7.8469   -1.7374  -18.7395 H   0  0  0  0  0  0  0  0  0  0  0  0
   -7.3931   -2.4156  -21.4487 H   0  0  0  0  0  0  0  0  0  0  0  0
   -7.6551   -2.1897  -24.1933 C   0  0  0  0  0  0  0  0  0  0  0  0
   -6.6942   -1.7040  -25.0818 C   0  0  0  0  0  0  0  0  0  0  0  0
   -5.8533   -2.5921  -25.7356 C   0  0  0  0  0  0  0  0  0  0  0  0
   -4.6678   -1.9979  -26.8685 Cl  0  0  0  0  0  0  0  0  0  0  0  0
   -5.9487   -3.9636  -25.5195 C   0  0  0  0  0  0  0  0  0  0  0  0
   -6.8906   -4.4411  -24.6214 C   0  0  0  0  0  0  0  0  0  0  0  0
   -7.7400   -3.5612  -23.9514 C   0  0  0  0  0  0  0  0  0  0  0  0
   -8.7371   -4.0960  -22.9637 C   0  0  0  0  0  0  0  0  0  0  0  0
   -8.6254   -5.2037  -22.4521 O   0  0  0  0  0  0  0  0  0  0  0  0
   -6.9863   -5.5041  -24.4358 H   0  0  0  0  0  0  0  0  0  0  0  0
   -5.2980   -4.6445  -26.0575 H   0  0  0  0  0  0  0  0  0  0  0  0
   -6.6040   -0.6423  -25.2887 H   0  0  0  0  0  0  0  0  0  0  0  0
   -8.7797   -0.3757  -24.1761 H   0  0  0  0  0  0  0  0  0  0  0  0
  -10.7370   -1.4177  -22.9640 H   0  0  0  0  0  0  0  0  0  0  0  0
  -10.3456   -2.2647  -24.4558 H   0  0  0  0  0  0  0  0  0  0  0  0
  -11.4163   -4.4833  -22.1438 H   0  0  0  0  0  0  0  0  0  0  0  0
  -10.2369   -4.1266  -20.8649 H   0  0  0  0  0  0  0  0  0  0  0  0
  -11.3848   -2.8549  -21.3890 H   0  0  0  0  0  0  0  0  0  0  0  0
  1  2  1  0
  2  3  1  0
  3  4  1  0
  4  5  1  0
  5  6  2  0
  5  7  1  0
  7  8  1  0
  8  9  2  0
  9 10  1  0
 10 11  2  0
 11 12  1  0
 12 13  2  0
 13 14  1  0
 14 15  2  0
 15 16  1  0
 16 17  2  0
 16 18  1  0
 15 19  1  0
 14 20  1  0
 13 21  1  0
 11 22  1  0
  9 23  1  0
  7 24  1  0
  4 25  1  0
 25 26  2  0
 26 27  1  0
 27 28  1  0
 27 29  2  0
 29 30  1  0
 30 31  2  0
 31 32  1  0
 32 33  2  0
 30 34  1  0
 29 35  1  0
 26 36  1  0
  4 37  1  6
  3 38  1  0
  3 39  1  0
  1 40  1  0
  1 41  1  0
  1 42  1  0
 32  2  1  0
 17  8  1  0
 31 25  1  0
 17 12  1  0
M  END
>  <cnnaffinities>  (56) 
[5.79117]

>  <score>  (56) 
5.79117

>  <index>  (56) 
58

>  <Smiles>  (56) 
C(N1C([C@@](C(=O)N(c2c(nc(c3c(c(c(c(c23)[H])[H])[H])[H])[H])[H])[H])(c2c(c(Cl)c(c(c2C1=O)[H])[H])[H])[H])([H])[H])([H])([H])[H]

>  <h>  (56) 
<NA>

>  <Training>  (56) 
True

>  <Success>  (56) 
True

>  <enamine_searched>  (56) 
False

>  <enamine_id>  (56) 
nan

$$$$

     RDKit          3D

 60 65  0  0  0  0  0  0  0  0999 V2000
   -7.0864    3.4346  -22.7532 C   0  0  0  0  0  0  0  0  0  0  0  0
   -7.8110    2.7382  -23.8024 N   0  0  0  0  0  0  0  0  0  0  0  0
   -7.1549    1.8298  -24.5715 C   0  0  0  0  0  0  0  0  0  0  0  0
   -5.9412    1.6921  -24.5395 O   0  0  0  0  0  0  0  0  0  0  0  0
   -8.0366    1.0098  -25.5185 C   0  0  0  0  0  0  0  0  0  0  0  0
   -8.9091    0.0892  -24.8193 N   0  0  0  0  0  0  0  0  0  0  0  0
   -8.3718   -1.1814  -24.3665 C   0  0  0  0  0  0  0  0  0  0  0  0
   -8.9776   -1.5928  -23.0031 C   0  0  2  0  0  0  0  0  0  0  0  0
   -8.4147   -0.6638  -21.8995 C   0  0  0  0  0  0  0  0  0  0  0  0
   -8.7001    0.4925  -21.6822 O   0  0  0  0  0  0  0  0  0  0  0  0
   -7.4549   -1.3709  -21.2062 N   0  0  0  0  0  0  0  0  0  0  0  0
   -6.6488   -0.7932  -20.1913 C   0  0  0  0  0  0  0  0  0  0  0  0
   -6.9245   -1.0640  -18.8736 C   0  0  0  0  0  0  0  0  0  0  0  0
   -6.2309   -0.5732  -17.8173 N   0  0  0  0  0  0  0  0  0  0  0  0
   -5.2065    0.2019  -18.0871 C   0  0  0  0  0  0  0  0  0  0  0  0
   -4.7773    0.5289  -19.4054 C   0  0  0  0  0  0  0  0  0  0  0  0
   -3.6367    1.3450  -19.6338 C   0  0  0  0  0  0  0  0  0  0  0  0
   -3.2238    1.6215  -20.9095 C   0  0  0  0  0  0  0  0  0  0  0  0
   -3.9319    1.0967  -22.0142 C   0  0  0  0  0  0  0  0  0  0  0  0
   -5.0380    0.3030  -21.8183 C   0  0  0  0  0  0  0  0  0  0  0  0
   -5.5017    0.0085  -20.5040 C   0  0  0  0  0  0  0  0  0  0  0  0
   -5.5539   -0.1030  -22.6823 H   0  0  0  0  0  0  0  0  0  0  0  0
   -3.6177    1.3315  -23.0265 H   0  0  0  0  0  0  0  0  0  0  0  0
   -2.3489    2.2421  -21.0768 H   0  0  0  0  0  0  0  0  0  0  0  0
   -3.1107    1.7419  -18.7701 H   0  0  0  0  0  0  0  0  0  0  0  0
   -4.6480    0.6035  -17.2424 H   0  0  0  0  0  0  0  0  0  0  0  0
   -7.7665   -1.7091  -18.6275 H   0  0  0  0  0  0  0  0  0  0  0  0
   -7.2501   -2.7286  -21.6627 C   0  0  0  0  0  0  0  0  0  0  0  0
   -8.4587   -2.9934  -22.5761 C   0  0  2  0  0  0  0  0  0  0  0  0
   -8.1561   -3.9368  -23.7501 C   0  0  0  0  0  0  0  0  0  0  0  0
   -7.7189   -5.2800  -23.2868 C   0  0  0  0  0  0  0  0  0  0  0  0
   -6.5520   -5.4925  -22.6842 N   0  0  0  0  0  0  0  0  0  0  0  0
   -6.5234   -6.7974  -22.4479 N   0  0  0  0  0  0  0  0  0  0  0  0
   -7.6279   -7.3378  -22.8957 N   0  0  0  0  0  2  0  0  0  0  0  0
   -8.3962   -6.4032  -23.4454 N   0  0  0  0  0  0  0  0  0  0  0  0
   -7.3410   -3.5376  -24.3661 H   0  0  0  0  0  0  0  0  0  0  0  0
   -9.0422   -4.0635  -24.3789 H   0  0  0  0  0  0  0  0  0  0  0  0
   -9.2288   -3.4913  -21.9772 H   0  0  0  0  0  0  0  0  0  0  0  0
   -6.2919   -2.8483  -22.1903 H   0  0  0  0  0  0  0  0  0  0  0  0
   -7.2067   -3.4101  -20.8114 H   0  0  0  0  0  0  0  0  0  0  0  0
  -10.4821   -1.4916  -23.1299 C   0  0  0  0  0  0  0  0  0  0  0  0
  -11.3220   -2.1748  -22.2465 C   0  0  0  0  0  0  0  0  0  0  0  0
  -12.6906   -2.0097  -22.3255 C   0  0  0  0  0  0  0  0  0  0  0  0
  -13.6736   -2.8654  -21.1741 Cl  0  0  0  0  0  0  0  0  0  0  0  0
  -13.2948   -1.1952  -23.2872 C   0  0  0  0  0  0  0  0  0  0  0  0
  -12.4683   -0.5243  -24.1635 C   0  0  0  0  0  0  0  0  0  0  0  0
  -11.0832   -0.6534  -24.0815 C   0  0  0  0  0  0  0  0  0  0  0  0
  -10.2630    0.2159  -24.9826 C   0  0  0  0  0  0  0  0  0  0  0  0
  -10.7675    1.0184  -25.7600 O   0  0  0  0  0  0  0  0  0  0  0  0
  -12.8534    0.1349  -24.9348 H   0  0  0  0  0  0  0  0  0  0  0  0
  -14.3753   -1.0794  -23.3283 H   0  0  0  0  0  0  0  0  0  0  0  0
  -10.9352   -2.8531  -21.4907 H   0  0  0  0  0  0  0  0  0  0  0  0
   -7.2833   -1.0886  -24.2908 H   0  0  0  0  0  0  0  0  0  0  0  0
   -8.6044   -1.9695  -25.0996 H   0  0  0  0  0  0  0  0  0  0  0  0
   -8.6896    1.6580  -26.1139 H   0  0  0  0  0  0  0  0  0  0  0  0
   -7.3672    0.4584  -26.1836 H   0  0  0  0  0  0  0  0  0  0  0  0
   -8.8065    2.6175  -23.6870 H   0  0  0  0  0  0  0  0  0  0  0  0
   -7.7876    4.0593  -22.1964 H   0  0  0  0  0  0  0  0  0  0  0  0
   -6.3167    4.0805  -23.1892 H   0  0  0  0  0  0  0  0  0  0  0  0
   -6.6029    2.7209  -22.0696 H   0  0  0  0  0  0  0  0  0  0  0  0
  1  2  1  0
  2  3  1  0
  3  4  2  0
  3  5  1  0
  5  6  1  0
  6  7  1  0
  8  7  1  6
  8  9  1  0
  9 10  2  0
  9 11  1  0
 11 12  1  0
 12 13  2  0
 13 14  1  0
 14 15  2  0
 15 16  1  0
 16 17  2  0
 17 18  1  0
 18 19  2  0
 19 20  1  0
 20 21  2  0
 20 22  1  0
 19 23  1  0
 18 24  1  0
 17 25  1  0
 15 26  1  0
 13 27  1  0
 11 28  1  0
 28 29  1  0
 29 30  1  0
 30 31  1  0
 31 32  1  0
 32 33  2  0
 33 34  1  0
 34 35  1  0
 30 36  1  0
 30 37  1  0
 29 38  1  1
 28 39  1  0
 28 40  1  0
  8 41  1  0
 41 42  2  0
 42 43  1  0
 43 44  1  0
 43 45  2  0
 45 46  1  0
 46 47  2  0
 47 48  1  0
 48 49  2  0
 46 50  1  0
 45 51  1  0
 42 52  1  0
  7 53  1  0
  7 54  1  0
  5 55  1  0
  5 56  1  0
  2 57  1  0
  1 58  1  0
  1 59  1  0
  1 60  1  0
 48  6  1  0
 29  8  1  0
 35 31  2  0
 47 41  1  0
 21 12  1  0
 21 16  1  0
M  CHG  1  34  -1
M  END
>  <cnnaffinities>  (57) 
[7.35378, 7.01917]

>  <score>  (57) 
7.35378

>  <index>  (57) 
59

>  <Smiles>  (57) 
C(N(C(=O)C(N1C([C@@]2(C(=O)N(c3c(nc(c4c(c(c(c(c34)[H])[H])[H])[H])[H])[H])C([C@@]2(C(c2nn[n-]n2)([H])[H])[H])([H])[H])c2c(c(Cl)c(c(c2C1=O)[H])[H])[H])([H])[H])([H])[H])[H])([H])([H])[H]

>  <h>  (57) 
<NA>

>  <Training>  (57) 
True

>  <Success>  (57) 
True

>  <enamine_searched>  (57) 
False

>  <enamine_id>  (57) 
nan

$$$$

     RDKit          3D

 62 67  0  0  0  0  0  0  0  0999 V2000
   -4.6103    1.6797  -27.3609 C   0  0  0  0  0  0  0  0  0  0  0  0
   -4.6449    1.2674  -25.8920 C   0  0  0  0  0  0  0  0  0  0  0  0
   -5.6977    1.9161  -25.1300 N   0  0  0  0  0  0  0  0  0  0  0  0
   -5.3864    3.0018  -24.4044 N   0  0  0  0  0  0  0  0  0  0  0  0
   -6.5378    3.4078  -23.8841 C   0  0  0  0  0  0  0  0  0  0  0  0
   -7.6077    2.5778  -24.2822 C   0  0  0  0  0  0  0  0  0  0  0  0
   -7.0241    1.6234  -25.0891 C   0  0  0  0  0  0  0  0  0  0  0  0
   -7.6281    0.4621  -25.8291 C   0  0  0  0  0  0  0  0  0  0  0  0
   -8.6296   -0.2292  -25.0360 N   0  0  0  0  0  0  0  0  0  0  0  0
   -8.2891   -1.4633  -24.3591 C   0  0  0  0  0  0  0  0  0  0  0  0
   -9.0253   -1.6170  -23.0046 C   0  0  2  0  0  0  0  0  0  0  0  0
   -8.4288   -0.6283  -21.9644 C   0  0  0  0  0  0  0  0  0  0  0  0
   -8.6977    0.5413  -21.7812 O   0  0  0  0  0  0  0  0  0  0  0  0
   -7.4596   -1.3148  -21.2671 N   0  0  0  0  0  0  0  0  0  0  0  0
   -6.6877   -0.7370  -20.2357 C   0  0  0  0  0  0  0  0  0  0  0  0
   -6.9982   -1.0147  -18.9273 C   0  0  0  0  0  0  0  0  0  0  0  0
   -6.3144   -0.5465  -17.8568 N   0  0  0  0  0  0  0  0  0  0  0  0
   -5.2705    0.2077  -18.1091 C   0  0  0  0  0  0  0  0  0  0  0  0
   -4.8176    0.5440  -19.4163 C   0  0  0  0  0  0  0  0  0  0  0  0
   -3.6568    1.3349  -19.6183 C   0  0  0  0  0  0  0  0  0  0  0  0
   -3.1979    1.5853  -20.8812 C   0  0  0  0  0  0  0  0  0  0  0  0
   -3.8784    1.0569  -22.0027 C   0  0  0  0  0  0  0  0  0  0  0  0
   -5.0180    0.3093  -21.8350 C   0  0  0  0  0  0  0  0  0  0  0  0
   -5.5246    0.0424  -20.5314 C   0  0  0  0  0  0  0  0  0  0  0  0
   -5.5195   -0.1123  -22.7011 H   0  0  0  0  0  0  0  0  0  0  0  0
   -3.4947    1.2418  -23.0041 H   0  0  0  0  0  0  0  0  0  0  0  0
   -2.3063    2.1880  -21.0277 H   0  0  0  0  0  0  0  0  0  0  0  0
   -3.1455    1.7181  -18.7399 H   0  0  0  0  0  0  0  0  0  0  0  0
   -4.7085    0.5748  -17.2522 H   0  0  0  0  0  0  0  0  0  0  0  0
   -7.8567   -1.6496  -18.7075 H   0  0  0  0  0  0  0  0  0  0  0  0
   -7.3675   -2.7236  -21.5823 C   0  0  0  0  0  0  0  0  0  0  0  0
   -8.6696   -2.9867  -22.3528 C   0  0  2  0  0  0  0  0  0  0  0  0
   -8.6241   -4.2083  -23.2741 C   0  0  0  0  0  0  0  0  0  0  0  0
   -7.7683   -4.1769  -23.9604 H   0  0  0  0  0  0  0  0  0  0  0  0
   -8.5415   -5.1336  -22.6912 H   0  0  0  0  0  0  0  0  0  0  0  0
   -9.5333   -4.2817  -23.8834 H   0  0  0  0  0  0  0  0  0  0  0  0
   -9.4342   -3.1727  -21.5930 H   0  0  0  0  0  0  0  0  0  0  0  0
   -6.4660   -2.9399  -22.1799 H   0  0  0  0  0  0  0  0  0  0  0  0
   -7.2880   -3.2998  -20.6546 H   0  0  0  0  0  0  0  0  0  0  0  0
  -10.5050   -1.4147  -23.2680 C   0  0  0  0  0  0  0  0  0  0  0  0
  -11.5002   -2.0040  -22.4698 C   0  0  0  0  0  0  0  0  0  0  0  0
  -12.8276   -1.7141  -22.7062 C   0  0  0  0  0  0  0  0  0  0  0  0
  -13.7611   -2.1949  -21.8659 F   0  0  0  0  0  0  0  0  0  0  0  0
  -13.2453   -0.9413  -23.7820 C   0  0  0  0  0  0  0  0  0  0  0  0
  -12.2766   -0.3594  -24.5721 C   0  0  0  0  0  0  0  0  0  0  0  0
  -10.9243   -0.5756  -24.3103 C   0  0  0  0  0  0  0  0  0  0  0  0
   -9.9340    0.1512  -25.1728 C   0  0  0  0  0  0  0  0  0  0  0  0
  -10.2656    1.0392  -25.9433 O   0  0  0  0  0  0  0  0  0  0  0  0
  -12.5315    0.2863  -25.4060 H   0  0  0  0  0  0  0  0  0  0  0  0
  -14.3036   -0.7925  -23.9400 H   0  0  0  0  0  0  0  0  0  0  0  0
  -11.2940   -2.7171  -21.6821 H   0  0  0  0  0  0  0  0  0  0  0  0
   -8.5854   -2.3098  -24.9922 H   0  0  0  0  0  0  0  0  0  0  0  0
   -7.2061   -1.5073  -24.2013 H   0  0  0  0  0  0  0  0  0  0  0  0
   -6.8485   -0.2436  -26.1530 H   0  0  0  0  0  0  0  0  0  0  0  0
   -8.1274    0.8241  -26.7338 H   0  0  0  0  0  0  0  0  0  0  0  0
   -8.6530    2.6657  -24.0065 H   0  0  0  0  0  0  0  0  0  0  0  0
   -6.5508    4.2892  -23.2549 H   0  0  0  0  0  0  0  0  0  0  0  0
   -4.7344    0.1784  -25.7879 H   0  0  0  0  0  0  0  0  0  0  0  0
   -3.7229    1.5703  -25.3906 H   0  0  0  0  0  0  0  0  0  0  0  0
   -4.4966    2.7643  -27.4481 H   0  0  0  0  0  0  0  0  0  0  0  0
   -3.7567    1.2016  -27.8522 H   0  0  0  0  0  0  0  0  0  0  0  0
   -5.5224    1.3848  -27.8940 H   0  0  0  0  0  0  0  0  0  0  0  0
  1  2  1  0
  2  3  1  0
  3  4  1  0
  4  5  2  0
  5  6  1  0
  6  7  2  0
  7  8  1  0
  8  9  1  0
  9 10  1  0
 11 10  1  6
 11 12  1  0
 12 13  2  0
 12 14  1  0
 14 15  1  0
 15 16  2  0
 16 17  1  0
 17 18  2  0
 18 19  1  0
 19 20  2  0
 20 21  1  0
 21 22  2  0
 22 23  1  0
 23 24  2  0
 23 25  1  0
 22 26  1  0
 21 27  1  0
 20 28  1  0
 18 29  1  0
 16 30  1  0
 14 31  1  0
 31 32  1  0
 32 33  1  0
 33 34  1  0
 33 35  1  0
 33 36  1  0
 32 37  1  1
 31 38  1  0
 31 39  1  0
 11 40  1  0
 40 41  2  0
 41 42  1  0
 42 43  1  0
 42 44  2  0
 44 45  1  0
 45 46  2  0
 46 47  1  0
 47 48  2  0
 45 49  1  0
 44 50  1  0
 41 51  1  0
 10 52  1  0
 10 53  1  0
  8 54  1  0
  8 55  1  0
  6 56  1  0
  5 57  1  0
  2 58  1  0
  2 59  1  0
  1 60  1  0
  1 61  1  0
  1 62  1  0
  7  3  1  0
 47  9  1  0
 32 11  1  0
 46 40  1  0
 24 15  1  0
 24 19  1  0
M  END
>  <cnnaffinities>  (58) 
[6.90306, 6.58401, 6.63936]

>  <score>  (58) 
6.90306

>  <index>  (58) 
60

>  <Smiles>  (58) 
C(C(n1nc(c(c1C(N1C([C@@]2(C(=O)N(c3c(nc(c4c(c(c(c(c34)[H])[H])[H])[H])[H])[H])C([C@@]2(C([H])([H])[H])[H])([H])[H])c2c(c(F)c(c(c2C1=O)[H])[H])[H])([H])[H])([H])[H])[H])[H])([H])[H])([H])([H])[H]

>  <h>  (58) 
<NA>

>  <Training>  (58) 
True

>  <Success>  (58) 
True

>  <enamine_searched>  (58) 
False

>  <enamine_id>  (58) 
nan

$$$$

     RDKit          3D

 44 47  0  0  0  0  0  0  0  0999 V2000
   -9.0474    0.2921  -21.0407 O   0  0  0  0  0  0  0  0  0  0  0  0
   -8.3239   -0.3058  -21.8103 C   0  0  0  0  0  0  0  0  0  0  0  0
   -7.4253   -1.4231  -21.2769 C   0  0  0  0  0  0  0  0  0  0  0  0
   -6.5651   -0.8420  -20.1739 C   0  0  0  0  0  0  0  0  0  0  0  0
   -6.8757   -1.0429  -18.8540 C   0  0  0  0  0  0  0  0  0  0  0  0
   -6.1908   -0.5364  -17.7921 N   0  0  0  0  0  0  0  0  0  0  0  0
   -5.1572    0.2240  -18.0633 C   0  0  0  0  0  0  0  0  0  0  0  0
   -4.7241    0.5357  -19.3799 C   0  0  0  0  0  0  0  0  0  0  0  0
   -3.6023    1.3693  -19.6223 C   0  0  0  0  0  0  0  0  0  0  0  0
   -3.2121    1.6636  -20.9005 C   0  0  0  0  0  0  0  0  0  0  0  0
   -3.9327    1.1290  -21.9934 C   0  0  0  0  0  0  0  0  0  0  0  0
   -5.0199    0.3169  -21.7848 C   0  0  0  0  0  0  0  0  0  0  0  0
   -5.4491   -0.0029  -20.4699 C   0  0  0  0  0  0  0  0  0  0  0  0
   -5.5488   -0.0913  -22.6385 H   0  0  0  0  0  0  0  0  0  0  0  0
   -3.6162    1.3627  -23.0055 H   0  0  0  0  0  0  0  0  0  0  0  0
   -2.3584    2.3096  -21.0847 H   0  0  0  0  0  0  0  0  0  0  0  0
   -3.0665    1.7788  -18.7697 H   0  0  0  0  0  0  0  0  0  0  0  0
   -4.6039    0.6291  -17.2141 H   0  0  0  0  0  0  0  0  0  0  0  0
   -7.7277   -1.6607  -18.5795 H   0  0  0  0  0  0  0  0  0  0  0  0
   -8.0713   -2.1986  -20.8469 H   0  0  0  0  0  0  0  0  0  0  0  0
   -6.8200   -1.8649  -22.0767 H   0  0  0  0  0  0  0  0  0  0  0  0
   -8.1975    0.0556  -23.1471 N   0  0  0  0  0  0  0  0  0  0  0  0
   -8.3967    1.4547  -23.5009 C   0  0  0  0  0  0  0  0  0  0  0  0
   -7.3911    1.8587  -24.5779 C   0  0  0  0  0  0  0  0  0  0  0  0
   -7.4461    0.9342  -25.7886 C   0  0  0  0  0  0  0  0  0  0  0  0
   -8.6529    1.1932  -26.7352 C   0  0  0  0  0  0  0  0  0  0  0  0
   -7.6901    1.5939  -27.8769 C   0  0  0  0  0  0  0  0  0  0  0  0
   -6.4897    1.3371  -26.9360 C   0  0  0  0  0  0  0  0  0  0  0  0
   -5.8683    2.2096  -26.7196 H   0  0  0  0  0  0  0  0  0  0  0  0
   -5.8088    0.5423  -27.2517 H   0  0  0  0  0  0  0  0  0  0  0  0
   -7.7903    2.6249  -28.2268 H   0  0  0  0  0  0  0  0  0  0  0  0
   -7.7297    0.9529  -28.7618 H   0  0  0  0  0  0  0  0  0  0  0  0
   -9.2697    0.3122  -26.9311 H   0  0  0  0  0  0  0  0  0  0  0  0
   -9.3305    1.9812  -26.3959 H   0  0  0  0  0  0  0  0  0  0  0  0
   -7.2928   -0.5152  -25.3446 C   0  0  0  0  0  0  0  0  0  0  0  0
   -8.2929   -0.8808  -24.2568 C   0  0  0  0  0  0  0  0  0  0  0  0
   -8.1194   -1.8851  -23.8781 H   0  0  0  0  0  0  0  0  0  0  0  0
   -9.3110   -0.8847  -24.6876 H   0  0  0  0  0  0  0  0  0  0  0  0
   -7.4207   -1.1754  -26.2069 H   0  0  0  0  0  0  0  0  0  0  0  0
   -6.2747   -0.6812  -24.9732 H   0  0  0  0  0  0  0  0  0  0  0  0
   -6.3774    1.8547  -24.1548 H   0  0  0  0  0  0  0  0  0  0  0  0
   -7.5772    2.8864  -24.9003 H   0  0  0  0  0  0  0  0  0  0  0  0
   -8.2576    2.0458  -22.5969 H   0  0  0  0  0  0  0  0  0  0  0  0
   -9.4226    1.6563  -23.8454 H   0  0  0  0  0  0  0  0  0  0  0  0
  1  2  2  0
  2  3  1  0
  3  4  1  0
  4  5  2  0
  5  6  1  0
  6  7  2  0
  7  8  1  0
  8  9  2  0
  9 10  1  0
 10 11  2  0
 11 12  1  0
 12 13  2  0
 12 14  1  0
 11 15  1  0
 10 16  1  0
  9 17  1  0
  7 18  1  0
  5 19  1  0
  3 20  1  0
  3 21  1  0
  2 22  1  0
 22 23  1  0
 23 24  1  0
 24 25  1  0
 25 26  1  0
 26 27  1  0
 27 28  1  0
 28 29  1  0
 28 30  1  0
 27 31  1  0
 27 32  1  0
 26 33  1  0
 26 34  1  0
 25 35  1  0
 35 36  1  0
 36 37  1  0
 36 38  1  0
 35 39  1  0
 35 40  1  0
 24 41  1  0
 24 42  1  0
 23 43  1  0
 23 44  1  0
 13  4  1  0
 36 22  1  0
 13  8  1  0
 28 25  1  0
M  END
>  <cnnaffinities>  (59) 
[5.1929, 5.19292, 5.19289, 5.1929, 5.38814, 5.38787, 5.38809, 5.38769, 5.34713, 5.34708, 5.34715, 5.3471, 5.21887]

>  <score>  (59) 
5.1929

>  <index>  (59) 
61

>  <Smiles>  (59) 
O=C(C(c1c(nc(c2c(c(c(c(c12)[H])[H])[H])[H])[H])[H])([H])[H])N1C(C(C2(C(C(C2([H])[H])([H])[H])([H])[H])C(C1([H])[H])([H])[H])([H])[H])([H])[H]

>  <h>  (59) 
<NA>

>  <Training>  (59) 
True

>  <Success>  (59) 
True

>  <enamine_searched>  (59) 
False

>  <enamine_id>  (59) 
nan

$$$$

     RDKit          3D

 44 47  0  0  0  0  0  0  0  0999 V2000
   -5.6168   -3.1950  -21.2555 O   0  0  0  0  0  0  0  0  0  0  0  0
   -6.7326   -2.8919  -21.6526 C   0  0  0  0  0  0  0  0  0  0  0  0
   -7.3743   -1.5560  -21.2645 C   0  0  0  0  0  0  0  0  0  0  0  0
   -6.5937   -0.8728  -20.1876 C   0  0  0  0  0  0  0  0  0  0  0  0
   -6.9231   -1.0804  -18.8757 C   0  0  0  0  0  0  0  0  0  0  0  0
   -6.2665   -0.5625  -17.8064 N   0  0  0  0  0  0  0  0  0  0  0  0
   -5.2275    0.1977  -18.0651 C   0  0  0  0  0  0  0  0  0  0  0  0
   -4.7596    0.4873  -19.3772 C   0  0  0  0  0  0  0  0  0  0  0  0
   -3.6392    1.3278  -19.6076 C   0  0  0  0  0  0  0  0  0  0  0  0
   -3.2286    1.5978  -20.8865 C   0  0  0  0  0  0  0  0  0  0  0  0
   -3.9071    1.0285  -21.9866 C   0  0  0  0  0  0  0  0  0  0  0  0
   -4.9872    0.2028  -21.7898 C   0  0  0  0  0  0  0  0  0  0  0  0
   -5.4540   -0.0701  -20.4747 C   0  0  0  0  0  0  0  0  0  0  0  0
   -5.4827   -0.2471  -22.6438 H   0  0  0  0  0  0  0  0  0  0  0  0
   -3.5773    1.2588  -22.9967 H   0  0  0  0  0  0  0  0  0  0  0  0
   -2.3830    2.2572  -21.0611 H   0  0  0  0  0  0  0  0  0  0  0  0
   -3.1308    1.7620  -18.7505 H   0  0  0  0  0  0  0  0  0  0  0  0
   -4.7018    0.6225  -17.2085 H   0  0  0  0  0  0  0  0  0  0  0  0
   -7.7762   -1.7130  -18.6312 H   0  0  0  0  0  0  0  0  0  0  0  0
   -8.3872   -1.7636  -20.8943 H   0  0  0  0  0  0  0  0  0  0  0  0
   -7.4750   -0.9206  -22.1529 H   0  0  0  0  0  0  0  0  0  0  0  0
   -7.4760   -3.7384  -22.4332 N   0  0  0  0  0  0  0  0  0  0  0  0
   -7.1229   -5.1536  -22.3811 C   0  0  0  0  0  0  0  0  0  0  0  0
   -7.3233   -5.7987  -23.7416 C   0  0  0  0  0  0  0  0  0  0  0  0
   -8.7614   -5.5909  -24.2172 C   0  0  0  0  0  0  0  0  0  0  0  0
   -9.0471   -6.4213  -25.4557 C   0  0  0  0  0  0  0  0  0  0  0  0
  -10.4520   -6.6507  -25.9555 C   0  0  0  0  0  0  0  0  0  0  0  0
   -9.4672   -5.8823  -26.7865 C   0  0  0  0  0  0  0  0  0  0  0  0
   -9.6535   -4.8171  -26.8772 H   0  0  0  0  0  0  0  0  0  0  0  0
   -9.0332   -6.3642  -27.6544 H   0  0  0  0  0  0  0  0  0  0  0  0
  -10.7290   -7.6566  -26.2535 H   0  0  0  0  0  0  0  0  0  0  0  0
  -11.2602   -6.0870  -25.4925 H   0  0  0  0  0  0  0  0  0  0  0  0
   -8.4081   -7.3035  -25.5137 H   0  0  0  0  0  0  0  0  0  0  0  0
   -9.0657   -4.0906  -24.2821 C   0  0  0  0  0  0  0  0  0  0  0  0
   -8.8425   -3.4818  -22.8938 C   0  0  0  0  0  0  0  0  0  0  0  0
   -9.5604   -3.9325  -22.1817 H   0  0  0  0  0  0  0  0  0  0  0  0
   -9.0491   -2.4084  -22.9133 H   0  0  0  0  0  0  0  0  0  0  0  0
   -8.4297   -3.5908  -25.0282 H   0  0  0  0  0  0  0  0  0  0  0  0
  -10.1067   -3.9038  -24.5743 H   0  0  0  0  0  0  0  0  0  0  0  0
   -9.3974   -5.9889  -23.4155 H   0  0  0  0  0  0  0  0  0  0  0  0
   -7.1231   -6.8747  -23.6522 H   0  0  0  0  0  0  0  0  0  0  0  0
   -6.6164   -5.3777  -24.4724 H   0  0  0  0  0  0  0  0  0  0  0  0
   -6.0900   -5.2436  -22.0373 H   0  0  0  0  0  0  0  0  0  0  0  0
   -7.7701   -5.6437  -21.6309 H   0  0  0  0  0  0  0  0  0  0  0  0
  1  2  2  0
  2  3  1  0
  3  4  1  0
  4  5  2  0
  5  6  1  0
  6  7  2  0
  7  8  1  0
  8  9  2  0
  9 10  1  0
 10 11  2  0
 11 12  1  0
 12 13  2  0
 12 14  1  0
 11 15  1  0
 10 16  1  0
  9 17  1  0
  7 18  1  0
  5 19  1  0
  3 20  1  0
  3 21  1  0
  2 22  1  0
 22 23  1  0
 23 24  1  0
 24 25  1  0
 25 26  1  0
 26 27  1  0
 27 28  1  0
 28 29  1  0
 28 30  1  0
 27 31  1  0
 27 32  1  0
 26 33  1  0
 25 34  1  0
 34 35  1  0
 35 36  1  0
 35 37  1  0
 34 38  1  0
 34 39  1  0
 25 40  1  0
 24 41  1  0
 24 42  1  0
 23 43  1  0
 23 44  1  0
 13  4  1  0
 35 22  1  0
 13  8  1  0
 28 26  1  0
M  END
>  <cnnaffinities>  (60) 
[5.0758]

>  <score>  (60) 
5.0758

>  <index>  (60) 
62

>  <Smiles>  (60) 
O=C(C(c1c(nc(c2c(c(c(c(c12)[H])[H])[H])[H])[H])[H])([H])[H])N1C(C(C(C2(C(C2([H])[H])([H])[H])[H])(C(C1([H])[H])([H])[H])[H])([H])[H])([H])[H]

>  <h>  (60) 
<NA>

>  <Training>  (60) 
True

>  <Success>  (60) 
True

>  <enamine_searched>  (60) 
False

>  <enamine_id>  (60) 
nan

$$$$

     RDKit          3D

 57 61  0  0  0  0  0  0  0  0999 V2000
   -8.0393    4.5346  -24.3871 C   0  0  0  0  0  0  0  0  0  0  0  0
   -8.0474    3.3100  -25.1585 N   0  0  0  0  0  0  0  0  0  0  0  0
   -7.2937    2.2567  -24.7445 C   0  0  0  0  0  0  0  0  0  0  0  0
   -6.5235    2.3179  -23.7997 O   0  0  0  0  0  0  0  0  0  0  0  0
   -7.4713    0.9808  -25.5689 C   0  0  0  0  0  0  0  0  0  0  0  0
   -8.4397    0.0919  -24.9466 N   0  0  0  0  0  0  0  0  0  0  0  0
   -8.0274   -1.1960  -24.4074 C   0  0  0  0  0  0  0  0  0  0  0  0
   -8.8226   -1.5566  -23.1180 C   0  0  2  0  0  0  0  0  0  0  0  0
   -8.3625   -0.6561  -21.9419 C   0  0  0  0  0  0  0  0  0  0  0  0
   -8.7185    0.4716  -21.6766 O   0  0  0  0  0  0  0  0  0  0  0  0
   -7.4316   -1.3709  -21.2135 N   0  0  0  0  0  0  0  0  0  0  0  0
   -6.6395   -0.7974  -20.1923 C   0  0  0  0  0  0  0  0  0  0  0  0
   -6.9293   -1.0728  -18.8825 C   0  0  0  0  0  0  0  0  0  0  0  0
   -6.2439   -0.5833  -17.8203 N   0  0  0  0  0  0  0  0  0  0  0  0
   -5.2173    0.1904  -18.0836 C   0  0  0  0  0  0  0  0  0  0  0  0
   -4.7758    0.5146  -19.3964 C   0  0  0  0  0  0  0  0  0  0  0  0
   -3.6388    1.3333  -19.6194 C   0  0  0  0  0  0  0  0  0  0  0  0
   -3.2162    1.6072  -20.8872 C   0  0  0  0  0  0  0  0  0  0  0  0
   -3.9166    1.0823  -21.9997 C   0  0  0  0  0  0  0  0  0  0  0  0
   -5.0272    0.2975  -21.8123 C   0  0  0  0  0  0  0  0  0  0  0  0
   -5.4920   -0.0002  -20.5026 C   0  0  0  0  0  0  0  0  0  0  0  0
   -5.5661   -0.0782  -22.6810 H   0  0  0  0  0  0  0  0  0  0  0  0
   -3.5853    1.3187  -23.0057 H   0  0  0  0  0  0  0  0  0  0  0  0
   -2.3429    2.2319  -21.0514 H   0  0  0  0  0  0  0  0  0  0  0  0
   -3.1209    1.7330  -18.7497 H   0  0  0  0  0  0  0  0  0  0  0  0
   -4.6685    0.6001  -17.2351 H   0  0  0  0  0  0  0  0  0  0  0  0
   -7.7755   -1.7215  -18.6556 H   0  0  0  0  0  0  0  0  0  0  0  0
   -7.2172   -2.7269  -21.6670 C   0  0  0  0  0  0  0  0  0  0  0  0
   -8.4248   -2.9599  -22.5839 C   0  0  2  0  0  0  0  0  0  0  0  0
   -8.2065   -4.0314  -23.6470 C   0  0  0  0  0  0  0  0  0  0  0  0
   -8.1050   -5.3243  -23.0812 O   0  0  0  0  0  0  0  0  0  0  0  0
   -7.2605   -5.3662  -22.6149 H   0  0  0  0  0  0  0  0  0  0  0  0
   -9.0669   -4.0408  -24.3283 H   0  0  0  0  0  0  0  0  0  0  0  0
   -7.3051   -3.7927  -24.2376 H   0  0  0  0  0  0  0  0  0  0  0  0
   -9.2232   -3.3177  -21.9301 H   0  0  0  0  0  0  0  0  0  0  0  0
   -7.1983   -3.4126  -20.8141 H   0  0  0  0  0  0  0  0  0  0  0  0
   -6.2543   -2.8340  -22.1942 H   0  0  0  0  0  0  0  0  0  0  0  0
  -10.2979   -1.3762  -23.4216 C   0  0  0  0  0  0  0  0  0  0  0  0
  -11.2755   -2.0132  -22.6462 C   0  0  0  0  0  0  0  0  0  0  0  0
  -12.6155   -1.7375  -22.8439 C   0  0  0  0  0  0  0  0  0  0  0  0
  -13.7711   -2.4407  -21.7474 Cl  0  0  0  0  0  0  0  0  0  0  0  0
  -13.0487   -0.9168  -23.8872 C   0  0  0  0  0  0  0  0  0  0  0  0
  -12.0904   -0.3139  -24.6802 C   0  0  0  0  0  0  0  0  0  0  0  0
  -10.7316   -0.4884  -24.4168 C   0  0  0  0  0  0  0  0  0  0  0  0
   -9.7561    0.3721  -25.1576 C   0  0  0  0  0  0  0  0  0  0  0  0
  -10.1143    1.3056  -25.8768 O   0  0  0  0  0  0  0  0  0  0  0  0
  -12.3715    0.2842  -25.5393 H   0  0  0  0  0  0  0  0  0  0  0  0
  -14.1050   -0.7366  -24.0523 H   0  0  0  0  0  0  0  0  0  0  0  0
  -11.0240   -2.7330  -21.8778 H   0  0  0  0  0  0  0  0  0  0  0  0
   -8.1962   -1.9759  -25.1668 H   0  0  0  0  0  0  0  0  0  0  0  0
   -6.9517   -1.1442  -24.1928 H   0  0  0  0  0  0  0  0  0  0  0  0
   -6.5157    0.4601  -25.6499 H   0  0  0  0  0  0  0  0  0  0  0  0
   -7.8108    1.2397  -26.5749 H   0  0  0  0  0  0  0  0  0  0  0  0
   -8.8800    3.0679  -25.6797 H   0  0  0  0  0  0  0  0  0  0  0  0
   -8.4722    4.3844  -23.3913 H   0  0  0  0  0  0  0  0  0  0  0  0
   -8.6109    5.2887  -24.9302 H   0  0  0  0  0  0  0  0  0  0  0  0
   -7.0089    4.8808  -24.2690 H   0  0  0  0  0  0  0  0  0  0  0  0
  1  2  1  0
  2  3  1  0
  3  4  2  0
  3  5  1  0
  5  6  1  0
  6  7  1  0
  8  7  1  6
  8  9  1  0
  9 10  2  0
  9 11  1  0
 11 12  1  0
 12 13  2  0
 13 14  1  0
 14 15  2  0
 15 16  1  0
 16 17  2  0
 17 18  1  0
 18 19  2  0
 19 20  1  0
 20 21  2  0
 20 22  1  0
 19 23  1  0
 18 24  1  0
 17 25  1  0
 15 26  1  0
 13 27  1  0
 11 28  1  0
 28 29  1  0
 29 30  1  0
 30 31  1  0
 31 32  1  0
 30 33  1  0
 30 34  1  0
 29 35  1  1
 28 36  1  0
 28 37  1  0
  8 38  1  0
 38 39  2  0
 39 40  1  0
 40 41  1  0
 40 42  2  0
 42 43  1  0
 43 44  2  0
 44 45  1  0
 45 46  2  0
 43 47  1  0
 42 48  1  0
 39 49  1  0
  7 50  1  0
  7 51  1  0
  5 52  1  0
  5 53  1  0
  2 54  1  0
  1 55  1  0
  1 56  1  0
  1 57  1  0
 45  6  1  0
 29  8  1  0
 44 38  1  0
 21 12  1  0
 21 16  1  0
M  END
>  <cnnaffinities>  (61) 
[6.61964, 5.91855, 6.17135]

>  <score>  (61) 
6.61964

>  <index>  (61) 
63

>  <Smiles>  (61) 
C(N(C(=O)C(N1C([C@@]2(C(=O)N(c3c(nc(c4c(c(c(c(c34)[H])[H])[H])[H])[H])[H])C([C@@]2(C(O[H])([H])[H])[H])([H])[H])c2c(c(Cl)c(c(c2C1=O)[H])[H])[H])([H])[H])([H])[H])[H])([H])([H])[H]

>  <h>  (61) 
<NA>

>  <Training>  (61) 
True

>  <Success>  (61) 
True

>  <enamine_searched>  (61) 
False

>  <enamine_id>  (61) 
nan

$$$$

     RDKit          3D

 55 60  0  0  0  0  0  0  0  0999 V2000
  -10.1783   -1.0071  -23.6831 C   0  0  0  0  0  0  0  0  0  0  0  0
   -8.8365   -1.3497  -23.0523 C   0  0  1  0  0  0  0  0  0  0  0  0
   -8.3877   -0.4163  -21.9152 C   0  0  0  0  0  0  0  0  0  0  0  0
   -7.3841   -1.2144  -21.2249 N   0  0  0  0  0  0  0  0  0  0  0  0
   -6.5846   -0.7376  -20.1551 C   0  0  0  0  0  0  0  0  0  0  0  0
   -6.8825   -1.0346  -18.8490 C   0  0  0  0  0  0  0  0  0  0  0  0
   -6.2108   -0.5253  -17.7822 N   0  0  0  0  0  0  0  0  0  0  0  0
   -5.1977    0.2740  -18.0235 C   0  0  0  0  0  0  0  0  0  0  0  0
   -4.7442    0.6150  -19.3337 C   0  0  0  0  0  0  0  0  0  0  0  0
   -3.6060    1.4287  -19.5768 C   0  0  0  0  0  0  0  0  0  0  0  0
   -3.1857    1.6650  -20.8573 C   0  0  0  0  0  0  0  0  0  0  0  0
   -3.8760    1.1090  -21.9553 C   0  0  0  0  0  0  0  0  0  0  0  0
   -4.9888    0.3356  -21.7520 C   0  0  0  0  0  0  0  0  0  0  0  0
   -5.4492    0.0824  -20.4350 C   0  0  0  0  0  0  0  0  0  0  0  0
   -5.5108   -0.1119  -22.5915 H   0  0  0  0  0  0  0  0  0  0  0  0
   -3.5236    1.2863  -22.9655 H   0  0  0  0  0  0  0  0  0  0  0  0
   -2.3125    2.2827  -21.0431 H   0  0  0  0  0  0  0  0  0  0  0  0
   -3.0779    1.8555  -18.7301 H   0  0  0  0  0  0  0  0  0  0  0  0
   -4.6625    0.6726  -17.1596 H   0  0  0  0  0  0  0  0  0  0  0  0
   -7.7041   -1.7092  -18.6113 H   0  0  0  0  0  0  0  0  0  0  0  0
   -7.5223   -2.5646  -21.4657 C   0  0  0  0  0  0  0  0  0  0  0  0
   -6.8141   -3.4195  -20.9699 O   0  0  0  0  0  0  0  0  0  0  0  0
   -8.6930   -2.7806  -22.4317 C   0  0  1  0  0  0  0  0  0  0  0  0
   -9.9131   -3.1691  -21.5524 C   0  0  0  0  0  0  0  0  0  0  0  0
  -11.0442   -3.6486  -22.3182 N   0  0  0  0  0  0  0  0  0  0  0  0
  -12.3872   -3.5953  -21.7603 C   0  0  0  0  0  0  0  0  0  0  0  0
  -13.2555   -2.4741  -22.2473 C   0  0  0  0  0  0  0  0  0  0  0  0
  -13.3368   -2.0945  -23.5532 N   0  0  0  0  0  0  0  0  0  0  0  0
  -14.2387   -1.1297  -23.5231 C   0  0  0  0  0  0  0  0  0  0  0  0
  -14.6871   -0.9538  -22.2711 N   0  0  0  0  0  0  0  0  0  0  0  0
  -14.0595   -1.8189  -21.4323 N   0  0  0  0  0  0  0  0  0  0  0  0
  -15.2271   -0.1869  -21.8889 H   0  0  0  0  0  0  0  0  0  0  0  0
  -14.5969   -0.5641  -24.3716 H   0  0  0  0  0  0  0  0  0  0  0  0
  -12.3706   -3.5314  -20.6763 H   0  0  0  0  0  0  0  0  0  0  0  0
  -12.8858   -4.5265  -22.0321 H   0  0  0  0  0  0  0  0  0  0  0  0
  -10.8380   -4.5205  -23.3449 C   0  0  0  0  0  0  0  0  0  0  0  0
  -11.7499   -5.1648  -23.8282 O   0  0  0  0  0  0  0  0  0  0  0  0
   -9.4609   -4.6848  -23.8745 C   0  0  0  0  0  0  0  0  0  0  0  0
   -9.2825   -5.6704  -24.8477 C   0  0  0  0  0  0  0  0  0  0  0  0
   -8.0402   -5.8880  -25.4067 C   0  0  0  0  0  0  0  0  0  0  0  0
   -6.9928   -5.0799  -24.9742 C   0  0  0  0  0  0  0  0  0  0  0  0
   -5.7722   -5.2953  -25.4953 F   0  0  0  0  0  0  0  0  0  0  0  0
   -7.1497   -4.0844  -24.0244 C   0  0  0  0  0  0  0  0  0  0  0  0
   -8.4131   -3.8741  -23.4451 C   0  0  0  0  0  0  0  0  0  0  0  0
   -6.2775   -3.5160  -23.7147 H   0  0  0  0  0  0  0  0  0  0  0  0
   -7.8588   -6.6570  -26.1534 H   0  0  0  0  0  0  0  0  0  0  0  0
  -10.1442   -6.2573  -25.1505 H   0  0  0  0  0  0  0  0  0  0  0  0
   -9.5796   -3.9307  -20.8391 H   0  0  0  0  0  0  0  0  0  0  0  0
  -10.2516   -2.2979  -20.9878 H   0  0  0  0  0  0  0  0  0  0  0  0
   -7.9676    0.5285  -22.2731 H   0  0  0  0  0  0  0  0  0  0  0  0
   -9.2245   -0.1734  -21.2428 H   0  0  0  0  0  0  0  0  0  0  0  0
   -8.0775   -1.2879  -23.8427 H   0  0  0  0  0  0  0  0  0  0  0  0
  -10.9923   -1.0149  -22.9601 H   0  0  0  0  0  0  0  0  0  0  0  0
  -10.1576   -0.0125  -24.1350 H   0  0  0  0  0  0  0  0  0  0  0  0
  -10.4391   -1.7245  -24.4666 H   0  0  0  0  0  0  0  0  0  0  0  0
  1  2  1  0
  2  3  1  0
  3  4  1  0
  4  5  1  0
  5  6  2  0
  6  7  1  0
  7  8  2  0
  8  9  1  0
  9 10  2  0
 10 11  1  0
 11 12  2  0
 12 13  1  0
 13 14  2  0
 13 15  1  0
 12 16  1  0
 11 17  1  0
 10 18  1  0
  8 19  1  0
  6 20  1  0
  4 21  1  0
 21 22  2  0
 21 23  1  0
 23 24  1  1
 24 25  1  0
 25 26  1  0
 26 27  1  0
 27 28  1  0
 28 29  2  0
 29 30  1  0
 30 31  1  0
 30 32  1  0
 29 33  1  0
 26 34  1  0
 26 35  1  0
 25 36  1  0
 36 37  2  0
 36 38  1  0
 38 39  2  0
 39 40  1  0
 40 41  2  0
 41 42  1  0
 41 43  1  0
 43 44  2  0
 43 45  1  0
 40 46  1  0
 39 47  1  0
 24 48  1  0
 24 49  1  0
  3 50  1  0
  3 51  1  0
  2 52  1  6
  1 53  1  0
  1 54  1  0
  1 55  1  0
 23  2  1  0
 31 27  2  0
 44 38  1  0
 14  5  1  0
 44 23  1  0
 14  9  1  0
M  END
>  <cnnaffinities>  (62) 
[6.892]

>  <score>  (62) 
6.892

>  <index>  (62) 
64

>  <Smiles>  (62) 
C([C@]1(C(N(c2c(nc(c3c(c(c(c(c23)[H])[H])[H])[H])[H])[H])C(=O)[C@]21C(N(C(c1nc(n(n1)[H])[H])([H])[H])C(=O)c1c(c(c(F)c(c21)[H])[H])[H])([H])[H])([H])[H])[H])([H])([H])[H]

>  <h>  (62) 
<NA>

>  <Training>  (62) 
True

>  <Success>  (62) 
True

>  <enamine_searched>  (62) 
False

>  <enamine_id>  (62) 
nan

$$$$

     RDKit          3D

 55 60  0  0  0  0  0  0  0  0999 V2000
  -10.2077   -1.0317  -23.6662 C   0  0  0  0  0  0  0  0  0  0  0  0
   -8.8516   -1.3487  -23.0429 C   0  0  1  0  0  0  0  0  0  0  0  0
   -8.3951   -0.4144  -21.9081 C   0  0  0  0  0  0  0  0  0  0  0  0
   -7.3950   -1.2135  -21.2192 N   0  0  0  0  0  0  0  0  0  0  0  0
   -6.5896   -0.7441  -20.1548 C   0  0  0  0  0  0  0  0  0  0  0  0
   -6.8835   -1.0475  -18.8530 C   0  0  0  0  0  0  0  0  0  0  0  0
   -6.2131   -0.5383  -17.7863 N   0  0  0  0  0  0  0  0  0  0  0  0
   -5.2012    0.2637  -18.0278 C   0  0  0  0  0  0  0  0  0  0  0  0
   -4.7475    0.5995  -19.3388 C   0  0  0  0  0  0  0  0  0  0  0  0
   -3.6107    1.4136  -19.5854 C   0  0  0  0  0  0  0  0  0  0  0  0
   -3.1935    1.6531  -20.8671 C   0  0  0  0  0  0  0  0  0  0  0  0
   -3.8842    1.0973  -21.9662 C   0  0  0  0  0  0  0  0  0  0  0  0
   -4.9949    0.3214  -21.7588 C   0  0  0  0  0  0  0  0  0  0  0  0
   -5.4534    0.0689  -20.4404 C   0  0  0  0  0  0  0  0  0  0  0  0
   -5.5172   -0.1300  -22.5954 H   0  0  0  0  0  0  0  0  0  0  0  0
   -3.5379    1.2798  -22.9790 H   0  0  0  0  0  0  0  0  0  0  0  0
   -2.3239    2.2757  -21.0561 H   0  0  0  0  0  0  0  0  0  0  0  0
   -3.0819    1.8432  -18.7400 H   0  0  0  0  0  0  0  0  0  0  0  0
   -4.6697    0.6672  -17.1623 H   0  0  0  0  0  0  0  0  0  0  0  0
   -7.7048   -1.7256  -18.6218 H   0  0  0  0  0  0  0  0  0  0  0  0
   -7.5069   -2.5618  -21.4753 C   0  0  0  0  0  0  0  0  0  0  0  0
   -6.7827   -3.4083  -20.9969 O   0  0  0  0  0  0  0  0  0  0  0  0
   -8.6905   -2.7806  -22.4247 C   0  0  1  0  0  0  0  0  0  0  0  0
   -9.9105   -3.1989  -21.5427 C   0  0  0  0  0  0  0  0  0  0  0  0
  -11.0530   -3.6636  -22.3152 N   0  0  0  0  0  0  0  0  0  0  0  0
  -12.4107   -3.6384  -21.7646 C   0  0  0  0  0  0  0  0  0  0  0  0
  -13.2878   -2.5099  -22.2235 C   0  0  0  0  0  0  0  0  0  0  0  0
  -14.0587   -1.6826  -21.4801 C   0  0  0  0  0  0  0  0  0  0  0  0
  -14.7689   -0.8840  -22.3302 O   0  0  0  0  0  0  0  0  0  0  0  0
  -14.3708   -1.2642  -23.5576 C   0  0  0  0  0  0  0  0  0  0  0  0
  -13.5157   -2.2340  -23.5652 N   0  0  0  0  0  0  0  0  0  0  0  0
  -14.8121   -0.7481  -24.3999 H   0  0  0  0  0  0  0  0  0  0  0  0
  -14.2109   -1.5240  -20.4193 H   0  0  0  0  0  0  0  0  0  0  0  0
  -12.8848   -4.5672  -22.0925 H   0  0  0  0  0  0  0  0  0  0  0  0
  -12.3958   -3.6382  -20.6729 H   0  0  0  0  0  0  0  0  0  0  0  0
  -10.8363   -4.5281  -23.3500 C   0  0  0  0  0  0  0  0  0  0  0  0
  -11.7290   -5.1883  -23.8345 O   0  0  0  0  0  0  0  0  0  0  0  0
   -9.4532   -4.6628  -23.8807 C   0  0  0  0  0  0  0  0  0  0  0  0
   -9.2641   -5.6527  -24.8399 C   0  0  0  0  0  0  0  0  0  0  0  0
   -8.0240   -5.8709  -25.3945 C   0  0  0  0  0  0  0  0  0  0  0  0
   -6.9781   -5.0605  -24.9680 C   0  0  0  0  0  0  0  0  0  0  0  0
   -5.7650   -5.2775  -25.5022 F   0  0  0  0  0  0  0  0  0  0  0  0
   -7.1364   -4.0720  -24.0120 C   0  0  0  0  0  0  0  0  0  0  0  0
   -8.4049   -3.8590  -23.4455 C   0  0  0  0  0  0  0  0  0  0  0  0
   -6.2658   -3.5039  -23.7035 H   0  0  0  0  0  0  0  0  0  0  0  0
   -7.8552   -6.6496  -26.1297 H   0  0  0  0  0  0  0  0  0  0  0  0
  -10.1340   -6.2371  -25.1164 H   0  0  0  0  0  0  0  0  0  0  0  0
  -10.2586   -2.3398  -20.9660 H   0  0  0  0  0  0  0  0  0  0  0  0
   -9.5679   -3.9783  -20.8456 H   0  0  0  0  0  0  0  0  0  0  0  0
   -9.2219   -0.1735  -21.2242 H   0  0  0  0  0  0  0  0  0  0  0  0
   -7.9632    0.5254  -22.2697 H   0  0  0  0  0  0  0  0  0  0  0  0
   -8.1014   -1.2836  -23.8452 H   0  0  0  0  0  0  0  0  0  0  0  0
  -11.0318   -1.1141  -22.9506 H   0  0  0  0  0  0  0  0  0  0  0  0
  -10.4110   -1.7238  -24.4900 H   0  0  0  0  0  0  0  0  0  0  0  0
  -10.2178   -0.0219  -24.0855 H   0  0  0  0  0  0  0  0  0  0  0  0
  1  2  1  0
  2  3  1  0
  3  4  1  0
  4  5  1  0
  5  6  2  0
  6  7  1  0
  7  8  2  0
  8  9  1  0
  9 10  2  0
 10 11  1  0
 11 12  2  0
 12 13  1  0
 13 14  2  0
 13 15  1  0
 12 16  1  0
 11 17  1  0
 10 18  1  0
  8 19  1  0
  6 20  1  0
  4 21  1  0
 21 22  2  0
 21 23  1  0
 23 24  1  1
 24 25  1  0
 25 26  1  0
 26 27  1  0
 27 28  2  0
 28 29  1  0
 29 30  1  0
 30 31  2  0
 30 32  1  0
 28 33  1  0
 26 34  1  0
 26 35  1  0
 25 36  1  0
 36 37  2  0
 36 38  1  0
 38 39  2  0
 39 40  1  0
 40 41  2  0
 41 42  1  0
 41 43  1  0
 43 44  2  0
 43 45  1  0
 40 46  1  0
 39 47  1  0
 24 48  1  0
 24 49  1  0
  3 50  1  0
  3 51  1  0
  2 52  1  6
  1 53  1  0
  1 54  1  0
  1 55  1  0
 23  2  1  0
 31 27  1  0
 44 38  1  0
 14  5  1  0
 44 23  1  0
 14  9  1  0
M  END
>  <cnnaffinities>  (63) 
[6.72076]

>  <score>  (63) 
6.72076

>  <index>  (63) 
65

>  <Smiles>  (63) 
C([C@]1(C(N(c2c(nc(c3c(c(c(c(c23)[H])[H])[H])[H])[H])[H])C(=O)[C@]21C(N(C(c1c(oc(n1)[H])[H])([H])[H])C(=O)c1c(c(c(F)c(c21)[H])[H])[H])([H])[H])([H])[H])[H])([H])([H])[H]

>  <h>  (63) 
<NA>

>  <Training>  (63) 
True

>  <Success>  (63) 
True

>  <enamine_searched>  (63) 
False

>  <enamine_id>  (63) 
nan

$$$$

     RDKit          3D

 44 47  0  0  0  0  0  0  0  0999 V2000
   -7.8534   -0.5964  -24.9390 C   0  0  0  0  0  0  0  0  0  0  0  0
   -8.3641   -2.0208  -25.0894 C   0  0  0  0  0  0  0  0  0  0  0  0
   -8.3292   -2.8409  -23.7847 C   0  0  1  0  0  0  0  0  0  0  0  0
   -8.8922   -4.2151  -24.0592 C   0  0  0  0  0  0  0  0  0  0  0  0
  -10.2596   -4.4979  -24.3738 C   0  0  0  0  0  0  0  0  0  0  0  0
  -10.4575   -5.7883  -24.7677 C   0  0  0  0  0  0  0  0  0  0  0  0
   -8.9733   -6.6786  -24.7392 S   0  0  0  0  0  0  0  0  0  0  0  0
   -8.0842   -5.3039  -24.1712 C   0  0  0  0  0  0  0  0  0  0  0  0
   -6.6038   -5.3275  -23.8892 C   0  0  0  0  0  0  0  0  0  0  0  0
   -6.0926   -3.8850  -23.9435 C   0  0  0  0  0  0  0  0  0  0  0  0
   -6.9822   -2.9787  -23.2227 N   0  0  0  0  0  0  0  0  0  0  0  0
   -6.6388   -2.6729  -21.9241 C   0  0  0  0  0  0  0  0  0  0  0  0
   -5.7636   -3.2751  -21.3286 O   0  0  0  0  0  0  0  0  0  0  0  0
   -7.3812   -1.4992  -21.2748 C   0  0  0  0  0  0  0  0  0  0  0  0
   -6.5781   -0.8424  -20.1833 C   0  0  0  0  0  0  0  0  0  0  0  0
   -6.8791   -1.0613  -18.8661 C   0  0  0  0  0  0  0  0  0  0  0  0
   -6.2028   -0.5501  -17.8012 N   0  0  0  0  0  0  0  0  0  0  0  0
   -5.1732    0.2150  -18.0698 C   0  0  0  0  0  0  0  0  0  0  0  0
   -4.7308    0.5245  -19.3855 C   0  0  0  0  0  0  0  0  0  0  0  0
   -3.6035    1.3553  -19.6177 C   0  0  0  0  0  0  0  0  0  0  0  0
   -3.1990    1.6304  -20.8962 C   0  0  0  0  0  0  0  0  0  0  0  0
   -3.9056    1.0904  -21.9953 C   0  0  0  0  0  0  0  0  0  0  0  0
   -5.0018    0.2891  -21.7933 C   0  0  0  0  0  0  0  0  0  0  0  0
   -5.4482   -0.0184  -20.4785 C   0  0  0  0  0  0  0  0  0  0  0  0
   -5.5313   -0.1158  -22.6517 H   0  0  0  0  0  0  0  0  0  0  0  0
   -3.5831    1.3170  -23.0085 H   0  0  0  0  0  0  0  0  0  0  0  0
   -2.3404    2.2707  -21.0738 H   0  0  0  0  0  0  0  0  0  0  0  0
   -3.0815    1.7644  -18.7544 H   0  0  0  0  0  0  0  0  0  0  0  0
   -4.6272    0.6288  -17.2199 H   0  0  0  0  0  0  0  0  0  0  0  0
   -7.7309   -1.6891  -18.6022 H   0  0  0  0  0  0  0  0  0  0  0  0
   -7.6506   -0.7833  -22.0594 H   0  0  0  0  0  0  0  0  0  0  0  0
   -8.3239   -1.8802  -20.8587 H   0  0  0  0  0  0  0  0  0  0  0  0
   -6.0471   -3.5517  -24.9921 H   0  0  0  0  0  0  0  0  0  0  0  0
   -5.1063   -3.7938  -23.4814 H   0  0  0  0  0  0  0  0  0  0  0  0
   -6.3958   -5.7693  -22.8990 H   0  0  0  0  0  0  0  0  0  0  0  0
   -6.0870   -5.9376  -24.6413 H   0  0  0  0  0  0  0  0  0  0  0  0
  -11.3934   -6.2740  -25.0281 H   0  0  0  0  0  0  0  0  0  0  0  0
  -11.0562   -3.7697  -24.2860 H   0  0  0  0  0  0  0  0  0  0  0  0
   -8.9566   -2.3320  -23.0334 H   0  0  0  0  0  0  0  0  0  0  0  0
   -7.8078   -2.5660  -25.8667 H   0  0  0  0  0  0  0  0  0  0  0  0
   -9.4113   -2.0358  -25.4195 H   0  0  0  0  0  0  0  0  0  0  0  0
   -7.9153   -0.0476  -25.8817 H   0  0  0  0  0  0  0  0  0  0  0  0
   -6.8064   -0.5754  -24.6156 H   0  0  0  0  0  0  0  0  0  0  0  0
   -8.4449   -0.0407  -24.2030 H   0  0  0  0  0  0  0  0  0  0  0  0
  1  2  1  0
  2  3  1  0
  3  4  1  0
  4  5  1  0
  5  6  2  0
  6  7  1  0
  7  8  1  0
  8  9  1  0
  9 10  1  0
 10 11  1  0
 11 12  1  0
 12 13  2  0
 12 14  1  0
 14 15  1  0
 15 16  2  0
 16 17  1  0
 17 18  2  0
 18 19  1  0
 19 20  2  0
 20 21  1  0
 21 22  2  0
 22 23  1  0
 23 24  2  0
 23 25  1  0
 22 26  1  0
 21 27  1  0
 20 28  1  0
 18 29  1  0
 16 30  1  0
 14 31  1  0
 14 32  1  0
 10 33  1  0
 10 34  1  0
  9 35  1  0
  9 36  1  0
  6 37  1  0
  5 38  1  0
  3 39  1  1
  2 40  1  0
  2 41  1  0
  1 42  1  0
  1 43  1  0
  1 44  1  0
 11  3  1  0
 24 15  1  0
  8  4  2  0
 24 19  1  0
M  END
>  <cnnaffinities>  (64) 
[5.80731, 5.24901]

>  <score>  (64) 
5.80731

>  <index>  (64) 
66

>  <Smiles>  (64) 
C(C([C@]1(c2c(c(sc2C(C(N1C(=O)C(c1c(nc(c2c(c(c(c(c12)[H])[H])[H])[H])[H])[H])([H])[H])([H])[H])([H])[H])[H])[H])[H])([H])[H])([H])([H])[H]

>  <h>  (64) 
<NA>

>  <Training>  (64) 
True

>  <Success>  (64) 
True

>  <enamine_searched>  (64) 
False

>  <enamine_id>  (64) 
nan

$$$$

     RDKit          3D

 58 63  0  0  0  0  0  0  0  0999 V2000
   -6.4703   -0.2754  -30.5965 C   0  0  0  0  0  0  0  0  0  0  0  0
   -6.4128   -0.2514  -29.1029 C   0  0  0  0  0  0  0  0  0  0  0  0
   -7.1274    0.6143  -28.2269 C   0  0  0  0  0  0  0  0  0  0  0  0
   -6.7218    0.2289  -26.9954 C   0  0  0  0  0  0  0  0  0  0  0  0
   -7.1006    0.6723  -25.6142 C   0  0  0  0  0  0  0  0  0  0  0  0
   -8.1955   -0.0921  -25.0586 N   0  0  0  0  0  0  0  0  0  0  0  0
   -7.9435   -1.3940  -24.4737 C   0  0  0  0  0  0  0  0  0  0  0  0
   -8.7763   -1.5656  -23.1758 C   0  0  2  0  0  0  0  0  0  0  0  0
   -8.2399   -0.5914  -22.0915 C   0  0  0  0  0  0  0  0  0  0  0  0
   -8.4237    0.5987  -22.0082 O   0  0  0  0  0  0  0  0  0  0  0  0
   -7.4522   -1.3313  -21.2260 N   0  0  0  0  0  0  0  0  0  0  0  0
   -6.6433   -0.7717  -20.2111 C   0  0  0  0  0  0  0  0  0  0  0  0
   -6.9252   -1.0567  -18.8973 C   0  0  0  0  0  0  0  0  0  0  0  0
   -6.2395   -0.5738  -17.8340 N   0  0  0  0  0  0  0  0  0  0  0  0
   -5.2131    0.2016  -18.0959 C   0  0  0  0  0  0  0  0  0  0  0  0
   -4.7725    0.5268  -19.4105 C   0  0  0  0  0  0  0  0  0  0  0  0
   -3.6322    1.3448  -19.6229 C   0  0  0  0  0  0  0  0  0  0  0  0
   -3.1981    1.6098  -20.8925 C   0  0  0  0  0  0  0  0  0  0  0  0
   -3.8721    1.0616  -22.0050 C   0  0  0  0  0  0  0  0  0  0  0  0
   -4.9853    0.2761  -21.8268 C   0  0  0  0  0  0  0  0  0  0  0  0
   -5.4813    0.0089  -20.5161 C   0  0  0  0  0  0  0  0  0  0  0  0
   -5.4844   -0.1419  -22.6970 H   0  0  0  0  0  0  0  0  0  0  0  0
   -3.5029    1.2646  -23.0056 H   0  0  0  0  0  0  0  0  0  0  0  0
   -2.3296    2.2411  -21.0504 H   0  0  0  0  0  0  0  0  0  0  0  0
   -3.1248    1.7512  -18.7528 H   0  0  0  0  0  0  0  0  0  0  0  0
   -4.6612    0.6035  -17.2474 H   0  0  0  0  0  0  0  0  0  0  0  0
   -7.7710   -1.7028  -18.6687 H   0  0  0  0  0  0  0  0  0  0  0  0
   -7.3689   -2.7390  -21.5460 C   0  0  0  0  0  0  0  0  0  0  0  0
   -8.5324   -2.9508  -22.5174 C   0  0  2  0  0  0  0  0  0  0  0  0
   -8.3394   -4.1025  -23.4929 C   0  0  0  0  0  0  0  0  0  0  0  0
   -8.2890   -5.0605  -22.9667 H   0  0  0  0  0  0  0  0  0  0  0  0
   -7.4107   -3.9705  -24.0612 H   0  0  0  0  0  0  0  0  0  0  0  0
   -9.1704   -4.1375  -24.2068 H   0  0  0  0  0  0  0  0  0  0  0  0
   -9.4009   -3.1690  -21.8921 H   0  0  0  0  0  0  0  0  0  0  0  0
   -7.4812   -3.3165  -20.6286 H   0  0  0  0  0  0  0  0  0  0  0  0
   -6.3943   -3.0086  -21.9855 H   0  0  0  0  0  0  0  0  0  0  0  0
  -10.2187   -1.2857  -23.5418 C   0  0  0  0  0  0  0  0  0  0  0  0
  -11.2765   -1.8295  -22.8045 C   0  0  0  0  0  0  0  0  0  0  0  0
  -12.5649   -1.4308  -23.0860 C   0  0  0  0  0  0  0  0  0  0  0  0
  -13.5617   -1.9038  -22.3187 F   0  0  0  0  0  0  0  0  0  0  0  0
  -12.8939   -0.5957  -24.1498 C   0  0  0  0  0  0  0  0  0  0  0  0
  -11.8569   -0.1229  -24.9224 C   0  0  0  0  0  0  0  0  0  0  0  0
  -10.5336   -0.4129  -24.5955 C   0  0  0  0  0  0  0  0  0  0  0  0
   -9.4701    0.2947  -25.3592 C   0  0  0  0  0  0  0  0  0  0  0  0
   -9.7175    1.1821  -26.1676 O   0  0  0  0  0  0  0  0  0  0  0  0
  -12.0304    0.4822  -25.8022 H   0  0  0  0  0  0  0  0  0  0  0  0
  -13.9266   -0.3028  -24.3216 H   0  0  0  0  0  0  0  0  0  0  0  0
  -11.1283   -2.5301  -21.9935 H   0  0  0  0  0  0  0  0  0  0  0  0
   -8.2007   -2.1953  -25.1855 H   0  0  0  0  0  0  0  0  0  0  0  0
   -6.8701   -1.4858  -24.2767 H   0  0  0  0  0  0  0  0  0  0  0  0
   -6.2387    0.5833  -24.9467 H   0  0  0  0  0  0  0  0  0  0  0  0
   -7.4085    1.7192  -25.6400 H   0  0  0  0  0  0  0  0  0  0  0  0
   -5.8511   -0.7821  -27.0990 O   0  0  0  0  0  0  0  0  0  0  0  0
   -5.6563   -1.0876  -28.4306 N   0  0  0  0  0  0  0  0  0  0  0  0
   -7.8617    1.3726  -28.4734 H   0  0  0  0  0  0  0  0  0  0  0  0
   -7.4901   -0.0511  -30.9247 H   0  0  0  0  0  0  0  0  0  0  0  0
   -6.1712   -1.2580  -30.9736 H   0  0  0  0  0  0  0  0  0  0  0  0
   -5.8132    0.4886  -31.0316 H   0  0  0  0  0  0  0  0  0  0  0  0
  1  2  1  0
  2  3  1  0
  3  4  2  0
  4  5  1  0
  5  6  1  0
  6  7  1  0
  8  7  1  6
  8  9  1  0
  9 10  2  0
  9 11  1  0
 11 12  1  0
 12 13  2  0
 13 14  1  0
 14 15  2  0
 15 16  1  0
 16 17  2  0
 17 18  1  0
 18 19  2  0
 19 20  1  0
 20 21  2  0
 20 22  1  0
 19 23  1  0
 18 24  1  0
 17 25  1  0
 15 26  1  0
 13 27  1  0
 11 28  1  0
 28 29  1  0
 29 30  1  0
 30 31  1  0
 30 32  1  0
 30 33  1  0
 29 34  1  1
 28 35  1  0
 28 36  1  0
  8 37  1  0
 37 38  2  0
 38 39  1  0
 39 40  1  0
 39 41  2  0
 41 42  1  0
 42 43  2  0
 43 44  1  0
 44 45  2  0
 42 46  1  0
 41 47  1  0
 38 48  1  0
  7 49  1  0
  7 50  1  0
  5 51  1  0
  5 52  1  0
  4 53  1  0
 53 54  1  0
  3 55  1  0
  1 56  1  0
  1 57  1  0
  1 58  1  0
 54  2  2  0
 44  6  1  0
 29  8  1  0
 43 37  1  0
 21 12  1  0
 21 16  1  0
M  END
>  <cnnaffinities>  (65) 
[6.31621, 6.51788]

>  <score>  (65) 
6.31621

>  <index>  (65) 
67

>  <Smiles>  (65) 
C(c1c(c(C(N2C([C@@]3(C(=O)N(c4c(nc(c5c(c(c(c(c45)[H])[H])[H])[H])[H])[H])C([C@@]3(C([H])([H])[H])[H])([H])[H])c3c(c(F)c(c(c3C2=O)[H])[H])[H])([H])[H])([H])[H])on1)[H])([H])([H])[H]

>  <h>  (65) 
<NA>

>  <Training>  (65) 
True

>  <Success>  (65) 
True

>  <enamine_searched>  (65) 
False

>  <enamine_id>  (65) 
nan

$$$$

     RDKit          3D

 65 70  0  0  0  0  0  0  0  0999 V2000
   -5.8715   -3.3951  -20.9241 O   0  0  0  0  0  0  0  0  0  0  0  0
   -6.8325   -2.9637  -21.5366 C   0  0  0  0  0  0  0  0  0  0  0  0
   -7.4020   -1.5728  -21.2215 C   0  0  0  0  0  0  0  0  0  0  0  0
   -6.6067   -0.8624  -20.1623 C   0  0  0  0  0  0  0  0  0  0  0  0
   -6.9064   -1.0584  -18.8378 C   0  0  0  0  0  0  0  0  0  0  0  0
   -6.2303   -0.5360  -17.7832 N   0  0  0  0  0  0  0  0  0  0  0  0
   -5.1986    0.2258  -18.0619 C   0  0  0  0  0  0  0  0  0  0  0  0
   -4.7616    0.5201  -19.3837 C   0  0  0  0  0  0  0  0  0  0  0  0
   -3.6348    1.3477  -19.6225 C   0  0  0  0  0  0  0  0  0  0  0  0
   -3.2313    1.6213  -20.9021 C   0  0  0  0  0  0  0  0  0  0  0  0
   -3.9442    1.0763  -21.9944 C   0  0  0  0  0  0  0  0  0  0  0  0
   -5.0437    0.2794  -21.7854 C   0  0  0  0  0  0  0  0  0  0  0  0
   -5.4840   -0.0314  -20.4700 C   0  0  0  0  0  0  0  0  0  0  0  0
   -5.5771   -0.1093  -22.6490 H   0  0  0  0  0  0  0  0  0  0  0  0
   -3.6172    1.2900  -23.0094 H   0  0  0  0  0  0  0  0  0  0  0  0
   -2.3717    2.2596  -21.0818 H   0  0  0  0  0  0  0  0  0  0  0  0
   -3.1048    1.7589  -18.7670 H   0  0  0  0  0  0  0  0  0  0  0  0
   -4.6437    0.6470  -17.2229 H   0  0  0  0  0  0  0  0  0  0  0  0
   -7.7542   -1.6896  -18.5705 H   0  0  0  0  0  0  0  0  0  0  0  0
   -8.4416   -1.6942  -20.8941 H   0  0  0  0  0  0  0  0  0  0  0  0
   -7.4195   -1.0034  -22.1580 H   0  0  0  0  0  0  0  0  0  0  0  0
   -7.3769   -3.6778  -22.6011 N   0  0  0  0  0  0  0  0  0  0  0  0
   -6.4062   -4.5645  -23.2600 C   0  0  0  0  0  0  0  0  0  0  0  0
   -5.7982   -3.9470  -24.5125 C   0  0  0  0  0  0  0  0  0  0  0  0
   -5.7548   -4.6126  -25.7370 C   0  0  0  0  0  0  0  0  0  0  0  0
   -5.1789   -4.0115  -26.8531 C   0  0  0  0  0  0  0  0  0  0  0  0
   -4.6135   -2.7462  -26.7646 C   0  0  0  0  0  0  0  0  0  0  0  0
   -4.6514   -2.0924  -25.5409 C   0  0  0  0  0  0  0  0  0  0  0  0
   -3.9239   -0.5082  -25.4042 Cl  0  0  0  0  0  0  0  0  0  0  0  0
   -5.2522   -2.6644  -24.4292 C   0  0  0  0  0  0  0  0  0  0  0  0
   -5.2801   -2.1056  -23.4960 H   0  0  0  0  0  0  0  0  0  0  0  0
   -4.1536   -2.2694  -27.6248 H   0  0  0  0  0  0  0  0  0  0  0  0
   -5.1893   -4.5299  -27.8074 H   0  0  0  0  0  0  0  0  0  0  0  0
   -6.1807   -5.6116  -25.8335 H   0  0  0  0  0  0  0  0  0  0  0  0
   -5.6274   -4.7190  -22.5101 H   0  0  0  0  0  0  0  0  0  0  0  0
   -6.8671   -5.5337  -23.4648 H   0  0  0  0  0  0  0  0  0  0  0  0
   -8.7790   -3.6574  -23.0413 C   0  0  2  0  0  0  0  0  0  0  0  0
   -9.0596   -4.6603  -24.1927 C   0  0  0  0  0  0  0  0  0  0  0  0
  -10.4344   -4.2489  -24.7477 C   0  0  0  0  0  0  0  0  0  0  0  0
  -10.7685   -3.0194  -23.9031 C   0  0  2  0  0  0  0  0  0  0  0  0
   -9.3993   -2.3810  -23.6399 C   0  0  0  0  0  0  0  0  0  0  0  0
   -9.4725   -1.5429  -22.9390 H   0  0  0  0  0  0  0  0  0  0  0  0
   -8.8995   -2.0578  -24.5589 H   0  0  0  0  0  0  0  0  0  0  0  0
  -11.1664   -3.5753  -22.5309 N   0  0  2  0  0  4  0  0  0  0  0  0
  -11.9908   -2.6806  -21.6515 C   0  0  0  0  0  0  0  0  0  0  0  0
  -13.4460   -2.5557  -22.0990 C   0  0  0  0  0  0  0  0  0  0  0  0
  -14.4129   -1.8323  -21.1170 C   0  0  0  0  0  0  0  0  0  0  0  0
  -15.0938   -3.0533  -20.8056 O   0  0  0  0  0  0  0  0  0  0  0  0
  -14.2630   -3.8039  -21.6942 C   0  0  0  0  0  0  0  0  0  0  0  0
  -13.6698   -4.5466  -21.1344 H   0  0  0  0  0  0  0  0  0  0  0  0
  -14.8329   -4.3047  -22.4847 H   0  0  0  0  0  0  0  0  0  0  0  0
  -13.9999   -1.3874  -20.2054 H   0  0  0  0  0  0  0  0  0  0  0  0
  -15.1049   -1.0961  -21.5476 H   0  0  0  0  0  0  0  0  0  0  0  0
  -13.5150   -2.2355  -23.1460 H   0  0  0  0  0  0  0  0  0  0  0  0
  -11.4969   -1.7122  -21.5036 H   0  0  0  0  0  0  0  0  0  0  0  0
  -12.0501   -3.1565  -20.6740 H   0  0  0  0  0  0  0  0  0  0  0  0
   -9.8204   -3.9844  -21.9387 C   0  0  0  0  0  0  0  0  0  0  0  0
   -9.8270   -5.0439  -21.6896 H   0  0  0  0  0  0  0  0  0  0  0  0
   -9.6468   -3.4157  -21.0252 H   0  0  0  0  0  0  0  0  0  0  0  0
  -11.7522   -4.4204  -22.6580 H   0  0  0  0  0  0  0  0  0  0  0  0
  -11.5549   -2.3820  -24.2923 H   0  0  0  0  0  0  0  0  0  0  0  0
  -11.1770   -5.0394  -24.6038 H   0  0  0  0  0  0  0  0  0  0  0  0
  -10.3889   -4.0040  -25.8134 H   0  0  0  0  0  0  0  0  0  0  0  0
   -8.3000   -4.5455  -24.9673 H   0  0  0  0  0  0  0  0  0  0  0  0
   -9.0427   -5.6934  -23.8315 H   0  0  0  0  0  0  0  0  0  0  0  0
  1  2  2  0
  2  3  1  0
  3  4  1  0
  4  5  2  0
  5  6  1  0
  6  7  2  0
  7  8  1  0
  8  9  2  0
  9 10  1  0
 10 11  2  0
 11 12  1  0
 12 13  2  0
 12 14  1  0
 11 15  1  0
 10 16  1  0
  9 17  1  0
  7 18  1  0
  5 19  1  0
  3 20  1  0
  3 21  1  0
  2 22  1  0
 22 23  1  0
 23 24  1  0
 24 25  2  0
 25 26  1  0
 26 27  2  0
 27 28  1  0
 28 29  1  0
 28 30  2  0
 30 31  1  0
 27 32  1  0
 26 33  1  0
 25 34  1  0
 23 35  1  0
 23 36  1  0
 37 22  1  1
 37 38  1  0
 38 39  1  0
 39 40  1  0
 40 41  1  0
 41 42  1  0
 41 43  1  0
 40 44  1  0
 44 45  1  0
 45 46  1  0
 46 47  1  0
 47 48  1  0
 48 49  1  0
 49 50  1  0
 49 51  1  0
 47 52  1  0
 47 53  1  0
 46 54  1  0
 45 55  1  0
 45 56  1  0
 44 57  1  0
 57 58  1  0
 57 59  1  0
 44 60  1  6
 40 61  1  6
 39 62  1  0
 39 63  1  0
 38 64  1  0
 38 65  1  0
 13  4  1  0
 30 24  1  0
 41 37  1  0
 49 46  1  0
 13  8  1  0
 57 37  1  0
M  CHG  1  44   1
M  END
>  <cnnaffinities>  (66) 
[6.28645]

>  <score>  (66) 
6.28645

>  <index>  (66) 
68

>  <Smiles>  (66) 
O=C(C(c1c(nc(c2c(c(c(c(c12)[H])[H])[H])[H])[H])[H])([H])[H])N(C(c1c(c(c(c(Cl)c1[H])[H])[H])[H])([H])[H])[C@]12C(C([C@](C1([H])[H])([N@+](C(C1(C(OC1([H])[H])([H])[H])[H])([H])[H])(C2([H])[H])[H])[H])([H])[H])([H])[H]

>  <h>  (66) 
<NA>

>  <Training>  (66) 
True

>  <Success>  (66) 
True

>  <enamine_searched>  (66) 
False

>  <enamine_id>  (66) 
nan

$$$$

     RDKit          3D

 63 67  0  0  0  0  0  0  0  0999 V2000
   -9.7794   -6.4728  -28.0904 C   0  0  0  0  0  0  0  0  0  0  0  0
  -10.0853   -5.4576  -27.2829 C   0  0  0  0  0  0  0  0  0  0  0  0
   -9.0296   -4.6142  -26.6365 C   0  0  0  0  0  0  0  0  0  0  0  0
   -7.8467   -4.7736  -26.8864 O   0  0  0  0  0  0  0  0  0  0  0  0
   -9.4792   -3.6513  -25.7339 N   0  0  0  0  0  0  0  0  0  0  0  0
  -10.8281   -3.7887  -25.1748 C   0  0  0  0  0  0  0  0  0  0  0  0
  -11.2072   -2.6434  -24.2537 C   0  0  0  0  0  0  0  0  0  0  0  0
  -10.0366   -2.1585  -23.4090 C   0  0  0  0  0  0  0  0  0  0  0  0
   -8.8988   -1.7444  -24.3185 C   0  0  0  0  0  0  0  0  0  0  0  0
   -8.6929   -2.4939  -25.4946 C   0  0  0  0  0  0  0  0  0  0  0  0
   -7.7750   -2.0516  -26.4539 C   0  0  0  0  0  0  0  0  0  0  0  0
   -7.0569   -0.8911  -26.2464 C   0  0  0  0  0  0  0  0  0  0  0  0
   -7.1725   -0.1966  -25.0503 C   0  0  0  0  0  0  0  0  0  0  0  0
   -8.0750   -0.6479  -24.0962 C   0  0  0  0  0  0  0  0  0  0  0  0
   -8.1821    0.2225  -22.7891 N   0  0  1  0  0  4  0  0  0  0  0  0
   -9.2996    1.3370  -22.8110 C   0  0  0  0  0  0  0  0  0  0  0  0
   -9.1393    2.2420  -23.9940 C   0  0  0  0  0  0  0  0  0  0  0  0
   -8.4563    3.4515  -23.8659 C   0  0  0  0  0  0  0  0  0  0  0  0
   -8.2165    4.2524  -24.9760 C   0  0  0  0  0  0  0  0  0  0  0  0
   -8.6592    3.8533  -26.2312 C   0  0  0  0  0  0  0  0  0  0  0  0
   -9.3937    2.6792  -26.3454 C   0  0  0  0  0  0  0  0  0  0  0  0
   -9.9893    2.2407  -27.9245 Cl  0  0  0  0  0  0  0  0  0  0  0  0
   -9.6484    1.8754  -25.2451 C   0  0  0  0  0  0  0  0  0  0  0  0
  -10.1385    0.9118  -25.3672 H   0  0  0  0  0  0  0  0  0  0  0  0
   -8.4446    4.4286  -27.1251 H   0  0  0  0  0  0  0  0  0  0  0  0
   -7.6775    5.1896  -24.8590 H   0  0  0  0  0  0  0  0  0  0  0  0
   -8.0711    3.7424  -22.8909 H   0  0  0  0  0  0  0  0  0  0  0  0
   -9.2718    1.8877  -21.8667 H   0  0  0  0  0  0  0  0  0  0  0  0
  -10.2489    0.8068  -22.8520 H   0  0  0  0  0  0  0  0  0  0  0  0
   -8.2090   -0.4809  -21.5152 C   0  0  0  0  0  0  0  0  0  0  0  0
   -9.0504   -0.2023  -20.7000 O   0  0  0  0  0  0  0  0  0  0  0  0
   -7.1485   -1.5388  -21.2211 C   0  0  0  0  0  0  0  0  0  0  0  0
   -6.2868   -1.0170  -20.1002 C   0  0  0  0  0  0  0  0  0  0  0  0
   -6.6477   -1.1926  -18.7900 C   0  0  0  0  0  0  0  0  0  0  0  0
   -6.0457   -0.5985  -17.7249 N   0  0  0  0  0  0  0  0  0  0  0  0
   -5.0530    0.2189  -17.9869 C   0  0  0  0  0  0  0  0  0  0  0  0
   -4.5753    0.5010  -19.2972 C   0  0  0  0  0  0  0  0  0  0  0  0
   -3.5214    1.4174  -19.5442 C   0  0  0  0  0  0  0  0  0  0  0  0
   -3.1416    1.7188  -20.8230 C   0  0  0  0  0  0  0  0  0  0  0  0
   -3.7822    1.0959  -21.9198 C   0  0  0  0  0  0  0  0  0  0  0  0
   -4.7781    0.1763  -21.7048 C   0  0  0  0  0  0  0  0  0  0  0  0
   -5.2106   -0.1351  -20.3895 C   0  0  0  0  0  0  0  0  0  0  0  0
   -5.2528   -0.2952  -22.5640 H   0  0  0  0  0  0  0  0  0  0  0  0
   -3.4928    1.3515  -22.9356 H   0  0  0  0  0  0  0  0  0  0  0  0
   -2.3502    2.4398  -21.0090 H   0  0  0  0  0  0  0  0  0  0  0  0
   -3.0359    1.8827  -18.6890 H   0  0  0  0  0  0  0  0  0  0  0  0
   -4.5808    0.7172  -17.1370 H   0  0  0  0  0  0  0  0  0  0  0  0
   -7.4918   -1.8364  -18.5443 H   0  0  0  0  0  0  0  0  0  0  0  0
   -6.5980   -1.7921  -22.1280 H   0  0  0  0  0  0  0  0  0  0  0  0
   -7.6980   -2.4260  -20.8874 H   0  0  0  0  0  0  0  0  0  0  0  0
   -7.2711    0.7428  -22.8364 H   0  0  0  0  0  0  0  0  0  0  0  0
   -6.6254    0.7260  -24.8935 H   0  0  0  0  0  0  0  0  0  0  0  0
   -6.3949   -0.5563  -27.0372 H   0  0  0  0  0  0  0  0  0  0  0  0
   -7.6373   -2.6180  -27.3618 H   0  0  0  0  0  0  0  0  0  0  0  0
   -9.6876   -2.9463  -22.7222 H   0  0  0  0  0  0  0  0  0  0  0  0
  -10.3550   -1.3174  -22.7799 H   0  0  0  0  0  0  0  0  0  0  0  0
  -11.5691   -1.8109  -24.8684 H   0  0  0  0  0  0  0  0  0  0  0  0
  -12.0426   -2.9453  -23.6157 H   0  0  0  0  0  0  0  0  0  0  0  0
  -10.9011   -4.7539  -24.6627 H   0  0  0  0  0  0  0  0  0  0  0  0
  -11.5520   -3.8107  -25.9913 H   0  0  0  0  0  0  0  0  0  0  0  0
  -11.1326   -5.2281  -27.1331 H   0  0  0  0  0  0  0  0  0  0  0  0
   -8.7516   -6.7523  -28.3052 H   0  0  0  0  0  0  0  0  0  0  0  0
  -10.5754   -7.0571  -28.5457 H   0  0  0  0  0  0  0  0  0  0  0  0
  1  2  2  0
  2  3  1  0
  3  4  2  0
  3  5  1  0
  5  6  1  0
  6  7  1  0
  7  8  1  0
  8  9  1  0
  9 10  2  0
 10 11  1  0
 11 12  2  0
 12 13  1  0
 13 14  2  0
 14 15  1  0
 15 16  1  0
 16 17  1  0
 17 18  2  0
 18 19  1  0
 19 20  2  0
 20 21  1  0
 21 22  1  0
 21 23  2  0
 23 24  1  0
 20 25  1  0
 19 26  1  0
 18 27  1  0
 16 28  1  0
 16 29  1  0
 15 30  1  0
 30 31  2  0
 30 32  1  0
 32 33  1  0
 33 34  2  0
 34 35  1  0
 35 36  2  0
 36 37  1  0
 37 38  2  0
 38 39  1  0
 39 40  2  0
 40 41  1  0
 41 42  2  0
 41 43  1  0
 40 44  1  0
 39 45  1  0
 38 46  1  0
 36 47  1  0
 34 48  1  0
 32 49  1  0
 32 50  1  0
 15 51  1  1
 13 52  1  0
 12 53  1  0
 11 54  1  0
  8 55  1  0
  8 56  1  0
  7 57  1  0
  7 58  1  0
  6 59  1  0
  6 60  1  0
  2 61  1  0
  1 62  1  0
  1 63  1  0
 10  5  1  0
 23 17  1  0
 42 33  1  0
 14  9  1  0
 42 37  1  0
M  CHG  1  15   1
M  END
>  <cnnaffinities>  (67) 
[6.18939, 6.36145]

>  <score>  (67) 
6.18939

>  <index>  (67) 
69

>  <Smiles>  (67) 
C(=C(C(=O)N1C(C(C(c2c1c(c(c(c2[N@@+](C(c1c(c(c(c(Cl)c1[H])[H])[H])[H])([H])[H])(C(=O)C(c1c(nc(c2c(c(c(c(c12)[H])[H])[H])[H])[H])[H])([H])[H])[H])[H])[H])[H])([H])[H])([H])[H])([H])[H])[H])([H])[H]

>  <h>  (67) 
<NA>

>  <Training>  (67) 
True

>  <Success>  (67) 
True

>  <enamine_searched>  (67) 
False

>  <enamine_id>  (67) 
nan

$$$$

     RDKit          3D

 52 54  0  0  0  0  0  0  0  0999 V2000
  -10.5442   -4.9045  -27.1567 C   0  0  0  0  0  0  0  0  0  0  0  0
   -9.9798   -6.2229  -26.6347 C   0  0  0  0  0  0  0  0  0  0  0  0
  -11.0470   -7.2988  -26.8320 C   0  0  0  0  0  0  0  0  0  0  0  0
  -11.8784   -7.1016  -26.1472 H   0  0  0  0  0  0  0  0  0  0  0  0
  -10.6781   -8.3070  -26.6175 H   0  0  0  0  0  0  0  0  0  0  0  0
  -11.4503   -7.2859  -27.8507 H   0  0  0  0  0  0  0  0  0  0  0  0
   -9.5805   -6.2028  -25.1537 C   0  0  0  0  0  0  0  0  0  0  0  0
   -8.4327   -5.2935  -24.6694 C   0  0  0  0  0  0  0  0  0  0  0  0
   -7.2889   -5.3816  -25.6889 C   0  0  0  0  0  0  0  0  0  0  0  0
   -6.9930   -6.4247  -25.8518 H   0  0  0  0  0  0  0  0  0  0  0  0
   -6.3876   -4.8346  -25.4065 H   0  0  0  0  0  0  0  0  0  0  0  0
   -7.5934   -4.9952  -26.6623 H   0  0  0  0  0  0  0  0  0  0  0  0
   -8.9289   -3.8294  -24.4389 C   0  0  0  0  0  0  0  0  0  0  0  0
   -8.7894   -3.3850  -22.9747 C   0  0  0  0  0  0  0  0  0  0  0  0
   -7.4338   -3.6328  -22.4864 N   0  0  0  0  0  0  0  0  0  0  0  0
   -6.7081   -2.7943  -21.6877 C   0  0  0  0  0  0  0  0  0  0  0  0
   -5.5759   -3.0707  -21.3158 O   0  0  0  0  0  0  0  0  0  0  0  0
   -7.3904   -1.4956  -21.2478 C   0  0  0  0  0  0  0  0  0  0  0  0
   -6.6061   -0.8303  -20.1695 C   0  0  0  0  0  0  0  0  0  0  0  0
   -6.9237   -1.0627  -18.8551 C   0  0  0  0  0  0  0  0  0  0  0  0
   -6.2488   -0.5600  -17.7888 N   0  0  0  0  0  0  0  0  0  0  0  0
   -5.2152    0.1988  -18.0571 C   0  0  0  0  0  0  0  0  0  0  0  0
   -4.7540    0.4988  -19.3703 C   0  0  0  0  0  0  0  0  0  0  0  0
   -3.6307    1.3315  -19.6081 C   0  0  0  0  0  0  0  0  0  0  0  0
   -3.2230    1.5994  -20.8858 C   0  0  0  0  0  0  0  0  0  0  0  0
   -3.9062    1.0347  -21.9890 C   0  0  0  0  0  0  0  0  0  0  0  0
   -4.9948    0.2210  -21.7874 C   0  0  0  0  0  0  0  0  0  0  0  0
   -5.4615   -0.0447  -20.4679 C   0  0  0  0  0  0  0  0  0  0  0  0
   -5.4910   -0.2291  -22.6432 H   0  0  0  0  0  0  0  0  0  0  0  0
   -3.5755    1.2625  -23.0007 H   0  0  0  0  0  0  0  0  0  0  0  0
   -2.3745    2.2561  -21.0645 H   0  0  0  0  0  0  0  0  0  0  0  0
   -3.1174    1.7604  -18.7487 H   0  0  0  0  0  0  0  0  0  0  0  0
   -4.6765    0.6207  -17.2054 H   0  0  0  0  0  0  0  0  0  0  0  0
   -7.7717   -1.7063  -18.6202 H   0  0  0  0  0  0  0  0  0  0  0  0
   -7.5278   -0.8310  -22.1117 H   0  0  0  0  0  0  0  0  0  0  0  0
   -8.3875   -1.7420  -20.8638 H   0  0  0  0  0  0  0  0  0  0  0  0
   -6.9035   -4.9827  -22.6557 C   0  0  0  0  0  0  0  0  0  0  0  0
   -7.9563   -5.8604  -23.3070 C   0  0  0  0  0  0  0  0  0  0  0  0
   -8.8130   -5.9011  -22.6313 H   0  0  0  0  0  0  0  0  0  0  0  0
   -7.5714   -6.8852  -23.3983 H   0  0  0  0  0  0  0  0  0  0  0  0
   -5.9901   -4.9546  -23.2602 H   0  0  0  0  0  0  0  0  0  0  0  0
   -6.6015   -5.3610  -21.6716 H   0  0  0  0  0  0  0  0  0  0  0  0
   -9.0259   -2.3220  -22.8914 H   0  0  0  0  0  0  0  0  0  0  0  0
   -9.5239   -3.9212  -22.3476 H   0  0  0  0  0  0  0  0  0  0  0  0
   -9.9943   -3.7442  -24.6866 H   0  0  0  0  0  0  0  0  0  0  0  0
   -8.3951   -3.1203  -25.0926 H   0  0  0  0  0  0  0  0  0  0  0  0
  -10.4700   -5.9561  -24.5584 H   0  0  0  0  0  0  0  0  0  0  0  0
   -9.3151   -7.2352  -24.8981 H   0  0  0  0  0  0  0  0  0  0  0  0
   -9.1004   -6.5024  -27.2320 H   0  0  0  0  0  0  0  0  0  0  0  0
   -9.8241   -4.0808  -27.1634 H   0  0  0  0  0  0  0  0  0  0  0  0
  -11.4086   -4.5841  -26.5589 H   0  0  0  0  0  0  0  0  0  0  0  0
  -10.9070   -5.0538  -28.1800 H   0  0  0  0  0  0  0  0  0  0  0  0
  1  2  1  0
  2  3  1  0
  3  4  1  0
  3  5  1  0
  3  6  1  0
  2  7  1  0
  7  8  1  0
  8  9  1  0
  9 10  1  0
  9 11  1  0
  9 12  1  0
  8 13  1  0
 13 14  1  0
 14 15  1  0
 15 16  1  0
 16 17  2  0
 16 18  1  0
 18 19  1  0
 19 20  2  0
 20 21  1  0
 21 22  2  0
 22 23  1  0
 23 24  2  0
 24 25  1  0
 25 26  2  0
 26 27  1  0
 27 28  2  0
 27 29  1  0
 26 30  1  0
 25 31  1  0
 24 32  1  0
 22 33  1  0
 20 34  1  0
 18 35  1  0
 18 36  1  0
 15 37  1  0
 37 38  1  0
 38 39  1  0
 38 40  1  0
 37 41  1  0
 37 42  1  0
 14 43  1  0
 14 44  1  0
 13 45  1  0
 13 46  1  0
  7 47  1  0
  7 48  1  0
  2 49  1  0
  1 50  1  0
  1 51  1  0
  1 52  1  0
 38  8  1  0
 28 19  1  0
 28 23  1  0
M  END
>  <cnnaffinities>  (68) 
[5.16322, 5.16685]

>  <score>  (68) 
5.16322

>  <index>  (68) 
70

>  <Smiles>  (68) 
C(C(C([H])([H])[H])(C(C1(C([H])([H])[H])C(C(N(C(=O)C(c2c(nc(c3c(c(c(c(c23)[H])[H])[H])[H])[H])[H])([H])[H])C(C1([H])[H])([H])[H])([H])[H])([H])[H])([H])[H])[H])([H])([H])[H]

>  <h>  (68) 
<NA>

>  <Training>  (68) 
True

>  <Success>  (68) 
True

>  <enamine_searched>  (68) 
False

>  <enamine_id>  (68) 
nan

$$$$

     RDKit          3D

 50 54  0  0  0  0  0  0  0  0999 V2000
   -8.4343   -4.1113  -23.4315 C   0  0  0  0  0  0  0  0  0  0  0  0
   -8.5705   -2.9154  -22.5029 C   0  0  1  0  0  0  0  0  0  0  0  0
   -7.4057   -2.7223  -21.5344 C   0  0  0  0  0  0  0  0  0  0  0  0
   -7.4539   -1.3059  -21.2408 N   0  0  0  0  0  0  0  0  0  0  0  0
   -6.6474   -0.7588  -20.2200 C   0  0  0  0  0  0  0  0  0  0  0  0
   -6.9322   -1.0529  -18.9093 C   0  0  0  0  0  0  0  0  0  0  0  0
   -6.2468   -0.5752  -17.8437 N   0  0  0  0  0  0  0  0  0  0  0  0
   -5.2191    0.1992  -18.1014 C   0  0  0  0  0  0  0  0  0  0  0  0
   -4.7764    0.5302  -19.4135 C   0  0  0  0  0  0  0  0  0  0  0  0
   -3.6367    1.3489  -19.6247 C   0  0  0  0  0  0  0  0  0  0  0  0
   -3.1996    1.6162  -20.8905 C   0  0  0  0  0  0  0  0  0  0  0  0
   -3.8743    1.0678  -22.0054 C   0  0  0  0  0  0  0  0  0  0  0  0
   -4.9838    0.2802  -21.8305 C   0  0  0  0  0  0  0  0  0  0  0  0
   -5.4822    0.0161  -20.5225 C   0  0  0  0  0  0  0  0  0  0  0  0
   -5.4761   -0.1483  -22.7006 H   0  0  0  0  0  0  0  0  0  0  0  0
   -3.5149    1.2807  -23.0072 H   0  0  0  0  0  0  0  0  0  0  0  0
   -2.3298    2.2480  -21.0467 H   0  0  0  0  0  0  0  0  0  0  0  0
   -3.1302    1.7514  -18.7513 H   0  0  0  0  0  0  0  0  0  0  0  0
   -4.6726    0.5995  -17.2481 H   0  0  0  0  0  0  0  0  0  0  0  0
   -7.7785   -1.7017  -18.6848 H   0  0  0  0  0  0  0  0  0  0  0  0
   -8.2204   -0.5617  -22.1193 C   0  0  0  0  0  0  0  0  0  0  0  0
   -8.4115    0.6304  -22.0238 O   0  0  0  0  0  0  0  0  0  0  0  0
   -8.7356   -1.5420  -23.2119 C   0  0  1  0  0  0  0  0  0  0  0  0
   -7.8218   -1.4487  -24.4645 C   0  0  0  0  0  0  0  0  0  0  0  0
   -7.9798   -0.1661  -25.1278 N   0  0  0  0  0  0  0  0  0  0  0  0
   -6.8506    0.6216  -25.5757 C   0  0  0  0  0  0  0  0  0  0  0  0
   -6.5988    1.8009  -24.7275 C   0  0  0  0  0  0  0  0  0  0  0  0
   -6.3448    2.7392  -24.0989 N   0  0  0  0  0  0  0  0  0  0  0  0
   -5.9524   -0.0012  -25.5863 H   0  0  0  0  0  0  0  0  0  0  0  0
   -7.0541    0.9742  -26.5915 H   0  0  0  0  0  0  0  0  0  0  0  0
   -9.2239    0.2978  -25.4668 C   0  0  0  0  0  0  0  0  0  0  0  0
   -9.3884    1.1805  -26.2976 O   0  0  0  0  0  0  0  0  0  0  0  0
  -10.3622   -0.3285  -24.7298 C   0  0  0  0  0  0  0  0  0  0  0  0
  -11.6516    0.0047  -25.1446 C   0  0  0  0  0  0  0  0  0  0  0  0
  -12.7539   -0.4504  -24.4508 C   0  0  0  0  0  0  0  0  0  0  0  0
  -12.5321   -1.3234  -23.3931 C   0  0  0  0  0  0  0  0  0  0  0  0
  -13.5953   -1.7939  -22.7180 F   0  0  0  0  0  0  0  0  0  0  0  0
  -11.2706   -1.7381  -23.0188 C   0  0  0  0  0  0  0  0  0  0  0  0
  -10.1444   -1.2143  -23.6658 C   0  0  0  0  0  0  0  0  0  0  0  0
  -11.2017   -2.4606  -22.2137 H   0  0  0  0  0  0  0  0  0  0  0  0
  -13.7614   -0.1305  -24.6920 H   0  0  0  0  0  0  0  0  0  0  0  0
  -11.7442    0.6203  -26.0319 H   0  0  0  0  0  0  0  0  0  0  0  0
   -8.0775   -2.2658  -25.1591 H   0  0  0  0  0  0  0  0  0  0  0  0
   -6.7696   -1.5568  -24.1814 H   0  0  0  0  0  0  0  0  0  0  0  0
   -6.4388   -3.0224  -21.9680 H   0  0  0  0  0  0  0  0  0  0  0  0
   -7.5363   -3.2839  -20.6112 H   0  0  0  0  0  0  0  0  0  0  0  0
   -9.4513   -3.0510  -21.8709 H   0  0  0  0  0  0  0  0  0  0  0  0
   -8.4519   -5.0450  -22.8644 H   0  0  0  0  0  0  0  0  0  0  0  0
   -9.2522   -4.1236  -24.1610 H   0  0  0  0  0  0  0  0  0  0  0  0
   -7.4890   -4.0620  -23.9843 H   0  0  0  0  0  0  0  0  0  0  0  0
  1  2  1  0
  2  3  1  0
  3  4  1  0
  4  5  1  0
  5  6  2  0
  6  7  1  0
  7  8  2  0
  8  9  1  0
  9 10  2  0
 10 11  1  0
 11 12  2  0
 12 13  1  0
 13 14  2  0
 13 15  1  0
 12 16  1  0
 11 17  1  0
 10 18  1  0
  8 19  1  0
  6 20  1  0
  4 21  1  0
 21 22  2  0
 21 23  1  0
 23 24  1  6
 24 25  1  0
 25 26  1  0
 26 27  1  0
 27 28  3  0
 26 29  1  0
 26 30  1  0
 25 31  1  0
 31 32  2  0
 31 33  1  0
 33 34  2  0
 34 35  1  0
 35 36  2  0
 36 37  1  0
 36 38  1  0
 38 39  2  0
 38 40  1  0
 35 41  1  0
 34 42  1  0
 24 43  1  0
 24 44  1  0
  3 45  1  0
  3 46  1  0
  2 47  1  1
  1 48  1  0
  1 49  1  0
  1 50  1  0
 23  2  1  0
 39 33  1  0
 14  5  1  0
 39 23  1  0
 14  9  1  0
M  END
>  <cnnaffinities>  (69) 
[6.18789, 5.88968, 6.07287, 6.15776, 5.64929, 6.39721]

>  <score>  (69) 
6.18789

>  <index>  (69) 
71

>  <Smiles>  (69) 
C([C@]1(C(N(c2c(nc(c3c(c(c(c(c23)[H])[H])[H])[H])[H])[H])C(=O)[C@]21C(N(C(C#N)([H])[H])C(=O)c1c(c(c(F)c(c21)[H])[H])[H])([H])[H])([H])[H])[H])([H])([H])[H]

>  <h>  (69) 
<NA>

>  <Training>  (69) 
True

>  <Success>  (69) 
True

>  <enamine_searched>  (69) 
False

>  <enamine_id>  (69) 
nan

$$$$

     RDKit          3D

 41 44  0  0  0  0  0  0  0  0999 V2000
   -5.8564   -3.2961  -21.2681 O   0  0  0  0  0  0  0  0  0  0  0  0
   -6.6995   -2.6981  -21.9101 C   0  0  0  0  0  0  0  0  0  0  0  0
   -7.3975   -1.4605  -21.2839 C   0  0  0  0  0  0  0  0  0  0  0  0
   -6.5775   -0.8286  -20.1813 C   0  0  0  0  0  0  0  0  0  0  0  0
   -6.8706   -1.0468  -18.8572 C   0  0  0  0  0  0  0  0  0  0  0  0
   -6.1882   -0.5422  -17.7924 N   0  0  0  0  0  0  0  0  0  0  0  0
   -5.1582    0.2249  -18.0606 C   0  0  0  0  0  0  0  0  0  0  0  0
   -4.7217    0.5334  -19.3798 C   0  0  0  0  0  0  0  0  0  0  0  0
   -3.5932    1.3610  -19.6209 C   0  0  0  0  0  0  0  0  0  0  0  0
   -3.1938    1.6391  -20.9014 C   0  0  0  0  0  0  0  0  0  0  0  0
   -3.9074    1.0975  -21.9934 C   0  0  0  0  0  0  0  0  0  0  0  0
   -5.0032    0.2963  -21.7853 C   0  0  0  0  0  0  0  0  0  0  0  0
   -5.4452   -0.0077  -20.4698 C   0  0  0  0  0  0  0  0  0  0  0  0
   -5.5315   -0.1123  -22.6405 H   0  0  0  0  0  0  0  0  0  0  0  0
   -3.5862    1.3195  -23.0058 H   0  0  0  0  0  0  0  0  0  0  0  0
   -2.3331    2.2752  -21.0889 H   0  0  0  0  0  0  0  0  0  0  0  0
   -3.0542    1.7742  -18.7718 H   0  0  0  0  0  0  0  0  0  0  0  0
   -4.6005    0.6303  -17.2151 H   0  0  0  0  0  0  0  0  0  0  0  0
   -7.7203   -1.6712  -18.5875 H   0  0  0  0  0  0  0  0  0  0  0  0
   -8.3445   -1.8172  -20.8550 H   0  0  0  0  0  0  0  0  0  0  0  0
   -7.6799   -0.7097  -22.0309 H   0  0  0  0  0  0  0  0  0  0  0  0
   -7.0742   -3.1345  -23.1679 N   0  0  0  0  0  0  0  0  0  0  0  0
   -7.0064   -4.5604  -23.4826 C   0  0  0  0  0  0  0  0  0  0  0  0
   -8.3362   -5.1358  -23.9839 C   0  0  0  0  0  0  0  0  0  0  0  0
   -9.5586   -4.6330  -23.2135 C   0  0  0  0  0  0  0  0  0  0  0  0
   -9.9891   -3.2320  -23.5700 C   0  0  0  0  0  0  0  0  0  0  0  0
  -11.6561   -2.7591  -23.4898 S   0  0  0  0  0  0  0  0  0  0  0  0
  -11.2815   -1.1541  -23.9873 C   0  0  0  0  0  0  0  0  0  0  0  0
   -9.9484   -0.9947  -24.2193 C   0  0  0  0  0  0  0  0  0  0  0  0
   -9.2070   -2.1893  -23.9797 C   0  0  0  0  0  0  0  0  0  0  0  0
   -7.7188   -2.2922  -24.1468 C   0  0  0  0  0  0  0  0  0  0  0  0
   -7.2788   -1.2919  -24.1360 H   0  0  0  0  0  0  0  0  0  0  0  0
   -7.4879   -2.6802  -25.1445 H   0  0  0  0  0  0  0  0  0  0  0  0
   -9.4882   -0.0613  -24.5394 H   0  0  0  0  0  0  0  0  0  0  0  0
  -12.0548   -0.4064  -24.0809 H   0  0  0  0  0  0  0  0  0  0  0  0
   -9.3451   -4.6659  -22.1383 H   0  0  0  0  0  0  0  0  0  0  0  0
  -10.4018   -5.3025  -23.3773 H   0  0  0  0  0  0  0  0  0  0  0  0
   -8.2872   -6.2307  -23.9240 H   0  0  0  0  0  0  0  0  0  0  0  0
   -8.4775   -4.9222  -25.0473 H   0  0  0  0  0  0  0  0  0  0  0  0
   -6.2257   -4.7376  -24.2311 H   0  0  0  0  0  0  0  0  0  0  0  0
   -6.7031   -5.0777  -22.5729 H   0  0  0  0  0  0  0  0  0  0  0  0
  1  2  2  0
  2  3  1  0
  3  4  1  0
  4  5  2  0
  5  6  1  0
  6  7  2  0
  7  8  1  0
  8  9  2  0
  9 10  1  0
 10 11  2  0
 11 12  1  0
 12 13  2  0
 12 14  1  0
 11 15  1  0
 10 16  1  0
  9 17  1  0
  7 18  1  0
  5 19  1  0
  3 20  1  0
  3 21  1  0
  2 22  1  0
 22 23  1  0
 23 24  1  0
 24 25  1  0
 25 26  1  0
 26 27  1  0
 27 28  1  0
 28 29  2  0
 29 30  1  0
 30 31  1  0
 31 32  1  0
 31 33  1  0
 29 34  1  0
 28 35  1  0
 25 36  1  0
 25 37  1  0
 24 38  1  0
 24 39  1  0
 23 40  1  0
 23 41  1  0
 13  4  1  0
 31 22  1  0
 13  8  1  0
 30 26  2  0
M  END
>  <cnnaffinities>  (70) 
[5.40213, 5.52978, 5.29442, 5.36166, 5.2584, 5.27277]

>  <score>  (70) 
5.40213

>  <index>  (70) 
72

>  <Smiles>  (70) 
O=C(C(c1c(nc(c2c(c(c(c(c12)[H])[H])[H])[H])[H])[H])([H])[H])N1C(C(C(c2sc(c(c2C1([H])[H])[H])[H])([H])[H])([H])[H])([H])[H]

>  <h>  (70) 
<NA>

>  <Training>  (70) 
True

>  <Success>  (70) 
True

>  <enamine_searched>  (70) 
False

>  <enamine_id>  (70) 
nan

$$$$

     RDKit          3D

 50 53  0  0  0  0  0  0  0  0999 V2000
   -5.6022   -3.0340  -21.5740 O   0  0  0  0  0  0  0  0  0  0  0  0
   -6.7565   -2.7537  -21.8605 C   0  0  0  0  0  0  0  0  0  0  0  0
   -7.4140   -1.4790  -21.2686 C   0  0  0  0  0  0  0  0  0  0  0  0
   -6.5813   -0.8307  -20.1833 C   0  0  0  0  0  0  0  0  0  0  0  0
   -6.8727   -1.0450  -18.8615 C   0  0  0  0  0  0  0  0  0  0  0  0
   -6.1885   -0.5439  -17.7974 N   0  0  0  0  0  0  0  0  0  0  0  0
   -5.1599    0.2239  -18.0637 C   0  0  0  0  0  0  0  0  0  0  0  0
   -4.7226    0.5307  -19.3811 C   0  0  0  0  0  0  0  0  0  0  0  0
   -3.5935    1.3576  -19.6208 C   0  0  0  0  0  0  0  0  0  0  0  0
   -3.1898    1.6333  -20.8994 C   0  0  0  0  0  0  0  0  0  0  0  0
   -3.9018    1.0885  -21.9920 C   0  0  0  0  0  0  0  0  0  0  0  0
   -4.9993    0.2881  -21.7859 C   0  0  0  0  0  0  0  0  0  0  0  0
   -5.4455   -0.0131  -20.4736 C   0  0  0  0  0  0  0  0  0  0  0  0
   -5.5220   -0.1350  -22.6374 H   0  0  0  0  0  0  0  0  0  0  0  0
   -3.5755    1.3068  -23.0041 H   0  0  0  0  0  0  0  0  0  0  0  0
   -2.3275    2.2694  -21.0861 H   0  0  0  0  0  0  0  0  0  0  0  0
   -3.0571    1.7727  -18.7690 H   0  0  0  0  0  0  0  0  0  0  0  0
   -4.6035    0.6290  -17.2153 H   0  0  0  0  0  0  0  0  0  0  0  0
   -7.7191   -1.6691  -18.5841 H   0  0  0  0  0  0  0  0  0  0  0  0
   -7.6146   -0.7489  -22.0653 H   0  0  0  0  0  0  0  0  0  0  0  0
   -8.3950   -1.7469  -20.8488 H   0  0  0  0  0  0  0  0  0  0  0  0
   -7.5192   -3.5816  -22.6611 N   0  0  0  0  0  0  0  0  0  0  0  0
   -8.6623   -3.1220  -23.4503 C   0  0  0  0  0  0  0  0  0  0  0  0
   -9.7305   -4.1954  -23.5642 C   0  0  0  0  0  0  0  0  0  0  0  0
   -9.1431   -5.4837  -24.1103 C   0  0  0  0  0  0  0  0  0  0  0  0
   -7.9765   -5.9309  -23.2450 C   0  0  0  0  0  0  0  0  0  0  0  0
   -6.9079   -4.8497  -23.1016 C   0  0  1  0  0  0  0  0  0  0  0  0
   -6.0412   -4.6954  -24.3698 C   0  0  0  0  0  0  0  0  0  0  0  0
   -5.2070   -5.9193  -24.6889 C   0  0  0  0  0  0  0  0  0  0  0  0
   -4.0465   -6.1878  -23.9585 C   0  0  0  0  0  0  0  0  0  0  0  0
   -3.2839   -7.3197  -24.2204 C   0  0  0  0  0  0  0  0  0  0  0  0
   -3.6704   -8.2107  -25.2175 C   0  0  0  0  0  0  0  0  0  0  0  0
   -4.8272   -7.9606  -25.9496 C   0  0  0  0  0  0  0  0  0  0  0  0
   -5.5852   -6.8241  -25.6833 C   0  0  0  0  0  0  0  0  0  0  0  0
   -6.4942   -6.6405  -26.2528 H   0  0  0  0  0  0  0  0  0  0  0  0
   -5.1412   -8.6460  -26.7316 H   0  0  0  0  0  0  0  0  0  0  0  0
   -3.0717   -9.0918  -25.4252 H   0  0  0  0  0  0  0  0  0  0  0  0
   -2.3833   -7.5102  -23.6429 H   0  0  0  0  0  0  0  0  0  0  0  0
   -3.7434   -5.4987  -23.1730 H   0  0  0  0  0  0  0  0  0  0  0  0
   -6.6848   -4.4567  -25.2235 H   0  0  0  0  0  0  0  0  0  0  0  0
   -5.3815   -3.8365  -24.2149 H   0  0  0  0  0  0  0  0  0  0  0  0
   -6.2382   -5.1518  -22.2975 H   0  0  0  0  0  0  0  0  0  0  0  0
   -8.3331   -6.1841  -22.2448 H   0  0  0  0  0  0  0  0  0  0  0  0
   -7.5384   -6.8527  -23.6393 H   0  0  0  0  0  0  0  0  0  0  0  0
   -9.9036   -6.2550  -24.1670 H   0  0  0  0  0  0  0  0  0  0  0  0
   -8.8253   -5.3625  -25.1516 H   0  0  0  0  0  0  0  0  0  0  0  0
  -10.1650   -4.3767  -22.5779 H   0  0  0  0  0  0  0  0  0  0  0  0
  -10.5505   -3.8488  -24.1993 H   0  0  0  0  0  0  0  0  0  0  0  0
   -9.0845   -2.2301  -22.9914 H   0  0  0  0  0  0  0  0  0  0  0  0
   -8.3551   -2.8293  -24.4650 H   0  0  0  0  0  0  0  0  0  0  0  0
  1  2  2  0
  2  3  1  0
  3  4  1  0
  4  5  2  0
  5  6  1  0
  6  7  2  0
  7  8  1  0
  8  9  2  0
  9 10  1  0
 10 11  2  0
 11 12  1  0
 12 13  2  0
 12 14  1  0
 11 15  1  0
 10 16  1  0
  9 17  1  0
  7 18  1  0
  5 19  1  0
  3 20  1  0
  3 21  1  0
  2 22  1  0
 22 23  1  0
 23 24  1  0
 24 25  1  0
 25 26  1  0
 26 27  1  0
 27 28  1  0
 28 29  1  0
 29 30  2  0
 30 31  1  0
 31 32  2  0
 32 33  1  0
 33 34  2  0
 34 35  1  0
 33 36  1  0
 32 37  1  0
 31 38  1  0
 30 39  1  0
 28 40  1  0
 28 41  1  0
 27 42  1  1
 26 43  1  0
 26 44  1  0
 25 45  1  0
 25 46  1  0
 24 47  1  0
 24 48  1  0
 23 49  1  0
 23 50  1  0
 13  4  1  0
 27 22  1  0
 34 29  1  0
 13  8  1  0
M  END
>  <cnnaffinities>  (71) 
[5.65271]

>  <score>  (71) 
5.65271

>  <index>  (71) 
73

>  <Smiles>  (71) 
O=C(C(c1c(nc(c2c(c(c(c(c12)[H])[H])[H])[H])[H])[H])([H])[H])N1C(C(C(C([C@]1(C(c1c(c(c(c(c1[H])[H])[H])[H])[H])([H])[H])[H])([H])[H])([H])[H])([H])[H])([H])[H]

>  <h>  (71) 
<NA>

>  <Training>  (71) 
True

>  <Success>  (71) 
True

>  <enamine_searched>  (71) 
False

>  <enamine_id>  (71) 
nan

$$$$

     RDKit          3D

 43 47  0  0  0  0  0  0  0  0999 V2000
   -9.1891   -0.4076  -20.8747 O   0  0  0  0  0  0  0  0  0  0  0  0
   -8.6337   -1.3716  -21.3427 C   0  0  0  0  0  0  0  0  0  0  0  0
   -9.0936   -2.4129  -22.1005 N   0  0  0  0  0  0  0  0  0  0  0  0
   -8.0177   -3.1488  -22.7440 C   0  0  1  0  0  0  0  0  0  0  0  0
   -8.1058   -4.6895  -22.7170 C   0  0  0  0  0  0  0  0  0  0  0  0
   -8.2248   -4.7230  -24.2736 C   0  0  2  0  0  0  0  0  0  0  0  0
   -7.1768   -5.5234  -24.9854 C   0  0  0  0  0  0  0  0  0  0  0  0
   -5.8213   -5.2770  -24.7394 C   0  0  0  0  0  0  0  0  0  0  0  0
   -4.8278   -6.0083  -25.3803 C   0  0  0  0  0  0  0  0  0  0  0  0
   -5.1757   -7.0072  -26.2881 C   0  0  0  0  0  0  0  0  0  0  0  0
   -6.5155   -7.2658  -26.5495 C   0  0  0  0  0  0  0  0  0  0  0  0
   -7.4979   -6.5329  -25.8948 C   0  0  0  0  0  0  0  0  0  0  0  0
   -9.1644   -6.9205  -26.2484 Cl  0  0  0  0  0  0  0  0  0  0  0  0
   -6.8185   -8.0208  -27.2659 H   0  0  0  0  0  0  0  0  0  0  0  0
   -4.4082   -7.5852  -26.7965 H   0  0  0  0  0  0  0  0  0  0  0  0
   -3.7831   -5.7938  -25.1719 H   0  0  0  0  0  0  0  0  0  0  0  0
   -5.5525   -4.4953  -24.0277 H   0  0  0  0  0  0  0  0  0  0  0  0
   -8.0318   -3.1725  -24.2980 C   0  0  0  0  0  0  0  0  0  0  0  0
   -8.8498   -2.5999  -24.7499 H   0  0  0  0  0  0  0  0  0  0  0  0
   -7.0969   -2.8322  -24.7602 H   0  0  0  0  0  0  0  0  0  0  0  0
   -9.2211   -5.0253  -24.6089 H   0  0  0  0  0  0  0  0  0  0  0  0
   -8.9650   -5.0659  -22.1566 H   0  0  0  0  0  0  0  0  0  0  0  0
   -7.1959   -5.1552  -22.3202 H   0  0  0  0  0  0  0  0  0  0  0  0
   -6.7883   -2.5623  -22.0717 C   0  0  0  0  0  0  0  0  0  0  0  0
   -5.6331   -2.8748  -22.2573 O   0  0  0  0  0  0  0  0  0  0  0  0
   -7.2540   -1.5776  -21.2013 N   0  0  0  0  0  0  0  0  0  0  0  0
   -6.5345   -0.8963  -20.1863 C   0  0  0  0  0  0  0  0  0  0  0  0
   -6.8991   -1.0697  -18.8716 C   0  0  0  0  0  0  0  0  0  0  0  0
   -6.2219   -0.5464  -17.8234 N   0  0  0  0  0  0  0  0  0  0  0  0
   -5.1840    0.2083  -18.0977 C   0  0  0  0  0  0  0  0  0  0  0  0
   -4.7438    0.5260  -19.4103 C   0  0  0  0  0  0  0  0  0  0  0  0
   -3.6189    1.3596  -19.6361 C   0  0  0  0  0  0  0  0  0  0  0  0
   -3.2293    1.6601  -20.9122 C   0  0  0  0  0  0  0  0  0  0  0  0
   -3.9545    1.1480  -22.0096 C   0  0  0  0  0  0  0  0  0  0  0  0
   -5.0462    0.3355  -21.8177 C   0  0  0  0  0  0  0  0  0  0  0  0
   -5.4522   -0.0173  -20.5033 C   0  0  0  0  0  0  0  0  0  0  0  0
   -5.5922   -0.0560  -22.6708 H   0  0  0  0  0  0  0  0  0  0  0  0
   -3.6431    1.3935  -23.0188 H   0  0  0  0  0  0  0  0  0  0  0  0
   -2.3698    2.3019  -21.0871 H   0  0  0  0  0  0  0  0  0  0  0  0
   -3.0896    1.7508  -18.7730 H   0  0  0  0  0  0  0  0  0  0  0  0
   -4.6352    0.6098  -17.2493 H   0  0  0  0  0  0  0  0  0  0  0  0
   -7.7579   -1.6830  -18.6045 H   0  0  0  0  0  0  0  0  0  0  0  0
  -10.0653   -2.5595  -22.3355 H   0  0  0  0  0  0  0  0  0  0  0  0
  1  2  2  0
  2  3  1  0
  4  3  1  1
  4  5  1  0
  5  6  1  0
  6  7  1  0
  7  8  2  0
  8  9  1  0
  9 10  2  0
 10 11  1  0
 11 12  2  0
 12 13  1  0
 11 14  1  0
 10 15  1  0
  9 16  1  0
  8 17  1  0
  6 18  1  0
 18 19  1  0
 18 20  1  0
  6 21  1  1
  5 22  1  0
  5 23  1  0
  4 24  1  0
 24 25  2  0
 24 26  1  0
 26 27  1  0
 27 28  2  0
 28 29  1  0
 29 30  2  0
 30 31  1  0
 31 32  2  0
 32 33  1  0
 33 34  2  0
 34 35  1  0
 35 36  2  0
 35 37  1  0
 34 38  1  0
 33 39  1  0
 32 40  1  0
 30 41  1  0
 28 42  1  0
  3 43  1  0
 26  2  1  0
 36 27  1  0
 18  4  1  0
 36 31  1  0
 12  7  1  0
M  END
>  <cnnaffinities>  (72) 
[5.68909]

>  <score>  (72) 
5.68909

>  <index>  (72) 
74

>  <Smiles>  (72) 
O=C1N([C@]2(C([C@](c3c(c(c(c(c3Cl)[H])[H])[H])[H])(C2([H])[H])[H])([H])[H])C(=O)N1c1c(nc(c2c(c(c(c(c12)[H])[H])[H])[H])[H])[H])[H]

>  <h>  (72) 
<NA>

>  <Training>  (72) 
True

>  <Success>  (72) 
True

>  <enamine_searched>  (72) 
False

>  <enamine_id>  (72) 
nan

$$$$

     RDKit          3D

 66 71  0  0  0  0  0  0  0  0999 V2000
   -6.7992    0.0845  -29.3703 C   0  0  0  0  0  0  0  0  0  0  0  0
   -7.1529    0.6189  -28.0735 N   0  0  0  0  0  0  0  0  0  0  0  0
   -6.6001    0.0594  -26.9690 C   0  0  0  0  0  0  0  0  0  0  0  0
   -5.7945   -0.8611  -27.0095 O   0  0  0  0  0  0  0  0  0  0  0  0
   -7.0989    0.6617  -25.6590 C   0  0  0  0  0  0  0  0  0  0  0  0
   -8.2049   -0.1042  -25.1315 N   0  0  0  0  0  0  0  0  0  0  0  0
   -7.9352   -1.3921  -24.5226 C   0  0  0  0  0  0  0  0  0  0  0  0
   -8.7732   -1.5730  -23.2317 C   0  0  2  0  0  0  0  0  0  0  0  0
   -8.2290   -0.6162  -22.1311 C   0  0  0  0  0  0  0  0  0  0  0  0
   -8.4025    0.5752  -22.0339 O   0  0  0  0  0  0  0  0  0  0  0  0
   -7.4583   -1.3652  -21.2610 N   0  0  0  0  0  0  0  0  0  0  0  0
   -6.6473   -0.8070  -20.2382 C   0  0  0  0  0  0  0  0  0  0  0  0
   -6.9341   -1.0801  -18.9224 C   0  0  0  0  0  0  0  0  0  0  0  0
   -6.2542   -0.5886  -17.8563 N   0  0  0  0  0  0  0  0  0  0  0  0
   -5.2284    0.1882  -18.1129 C   0  0  0  0  0  0  0  0  0  0  0  0
   -4.7817    0.5094  -19.4260 C   0  0  0  0  0  0  0  0  0  0  0  0
   -3.6429    1.3331  -19.6320 C   0  0  0  0  0  0  0  0  0  0  0  0
   -3.2049    1.6053  -20.8982 C   0  0  0  0  0  0  0  0  0  0  0  0
   -3.8776    1.0598  -22.0142 C   0  0  0  0  0  0  0  0  0  0  0  0
   -4.9871    0.2686  -21.8409 C   0  0  0  0  0  0  0  0  0  0  0  0
   -5.4870   -0.0135  -20.5348 C   0  0  0  0  0  0  0  0  0  0  0  0
   -5.4858   -0.1443  -22.7144 H   0  0  0  0  0  0  0  0  0  0  0  0
   -3.5114    1.2694  -23.0150 H   0  0  0  0  0  0  0  0  0  0  0  0
   -2.3386    2.2408  -21.0541 H   0  0  0  0  0  0  0  0  0  0  0  0
   -3.1389    1.7408  -18.7585 H   0  0  0  0  0  0  0  0  0  0  0  0
   -4.6779    0.5946  -17.2633 H   0  0  0  0  0  0  0  0  0  0  0  0
   -7.7834   -1.7193  -18.6868 H   0  0  0  0  0  0  0  0  0  0  0  0
   -7.4025   -2.7710  -21.5963 C   0  0  0  0  0  0  0  0  0  0  0  0
   -8.5536   -2.9619  -22.5825 C   0  0  2  0  0  0  0  0  0  0  0  0
   -8.3370   -4.1307  -23.5340 C   0  0  0  0  0  0  0  0  0  0  0  0
   -9.4666   -4.3395  -24.3987 N   0  0  0  0  0  0  0  0  0  0  0  0
   -9.4685   -5.2597  -25.4023 C   0  0  0  0  0  0  0  0  0  0  0  0
   -8.3889   -6.1550  -25.6144 C   0  0  0  0  0  0  0  0  0  0  0  0
   -8.3849   -7.0386  -26.5969 N   0  0  0  0  0  0  0  0  0  0  0  0
   -9.4668   -7.0546  -27.3809 C   0  0  0  0  0  0  0  0  0  0  0  0
  -10.5286   -6.1875  -27.1657 C   0  0  0  0  0  0  0  0  0  0  0  0
  -10.5476   -5.2863  -26.1856 N   0  0  0  0  0  0  0  0  0  0  0  0
  -11.4057   -6.2023  -27.8061 H   0  0  0  0  0  0  0  0  0  0  0  0
   -9.4744   -7.7698  -28.1959 H   0  0  0  0  0  0  0  0  0  0  0  0
   -7.5125   -6.1486  -24.9748 H   0  0  0  0  0  0  0  0  0  0  0  0
  -10.2608   -3.7123  -24.3939 H   0  0  0  0  0  0  0  0  0  0  0  0
   -8.1616   -5.0441  -22.9547 H   0  0  0  0  0  0  0  0  0  0  0  0
   -7.4287   -3.9532  -24.1313 H   0  0  0  0  0  0  0  0  0  0  0  0
   -9.4456   -3.1892  -21.9968 H   0  0  0  0  0  0  0  0  0  0  0  0
   -6.4343   -3.0544  -22.0336 H   0  0  0  0  0  0  0  0  0  0  0  0
   -7.5327   -3.3599  -20.6932 H   0  0  0  0  0  0  0  0  0  0  0  0
  -10.2176   -1.2943  -23.5928 C   0  0  0  0  0  0  0  0  0  0  0  0
  -11.2696   -1.7958  -22.8153 C   0  0  0  0  0  0  0  0  0  0  0  0
  -12.5660   -1.3860  -23.0623 C   0  0  0  0  0  0  0  0  0  0  0  0
  -13.8152   -1.9005  -21.9669 Cl  0  0  0  0  0  0  0  0  0  0  0  0
  -12.8939   -0.5600  -24.1374 C   0  0  0  0  0  0  0  0  0  0  0  0
  -11.8655   -0.1082  -24.9410 C   0  0  0  0  0  0  0  0  0  0  0  0
  -10.5417   -0.4289  -24.6505 C   0  0  0  0  0  0  0  0  0  0  0  0
   -9.4776    0.2699  -25.4354 C   0  0  0  0  0  0  0  0  0  0  0  0
   -9.7243    1.1453  -26.2663 O   0  0  0  0  0  0  0  0  0  0  0  0
  -12.0470    0.5289  -25.7973 H   0  0  0  0  0  0  0  0  0  0  0  0
  -13.9262   -0.2691  -24.3142 H   0  0  0  0  0  0  0  0  0  0  0  0
  -11.1042   -2.4834  -21.9911 H   0  0  0  0  0  0  0  0  0  0  0  0
   -8.1664   -2.2049  -25.2289 H   0  0  0  0  0  0  0  0  0  0  0  0
   -6.8628   -1.4511  -24.3101 H   0  0  0  0  0  0  0  0  0  0  0  0
   -7.4383    1.6935  -25.7977 H   0  0  0  0  0  0  0  0  0  0  0  0
   -6.2867    0.6336  -24.9269 H   0  0  0  0  0  0  0  0  0  0  0  0
   -7.9970    1.1668  -27.9621 H   0  0  0  0  0  0  0  0  0  0  0  0
   -7.3313    0.6330  -30.1492 H   0  0  0  0  0  0  0  0  0  0  0  0
   -5.7229    0.1984  -29.5293 H   0  0  0  0  0  0  0  0  0  0  0  0
   -7.0462   -0.9816  -29.4372 H   0  0  0  0  0  0  0  0  0  0  0  0
  1  2  1  0
  2  3  1  0
  3  4  2  0
  3  5  1  0
  5  6  1  0
  6  7  1  0
  8  7  1  6
  8  9  1  0
  9 10  2  0
  9 11  1  0
 11 12  1  0
 12 13  2  0
 13 14  1  0
 14 15  2  0
 15 16  1  0
 16 17  2  0
 17 18  1  0
 18 19  2  0
 19 20  1  0
 20 21  2  0
 20 22  1  0
 19 23  1  0
 18 24  1  0
 17 25  1  0
 15 26  1  0
 13 27  1  0
 11 28  1  0
 28 29  1  0
 29 30  1  0
 30 31  1  0
 31 32  1  0
 32 33  2  0
 33 34  1  0
 34 35  2  0
 35 36  1  0
 36 37  2  0
 36 38  1  0
 35 39  1  0
 33 40  1  0
 31 41  1  0
 30 42  1  0
 30 43  1  0
 29 44  1  1
 28 45  1  0
 28 46  1  0
  8 47  1  0
 47 48  2  0
 48 49  1  0
 49 50  1  0
 49 51  2  0
 51 52  1  0
 52 53  2  0
 53 54  1  0
 54 55  2  0
 52 56  1  0
 51 57  1  0
 48 58  1  0
  7 59  1  0
  7 60  1  0
  5 61  1  0
  5 62  1  0
  2 63  1  0
  1 64  1  0
  1 65  1  0
  1 66  1  0
 54  6  1  0
 29  8  1  0
 37 32  1  0
 53 47  1  0
 21 12  1  0
 21 16  1  0
M  END
>  <cnnaffinities>  (73) 
[6.93007, 6.44563, 7.06971]

>  <score>  (73) 
6.93007

>  <index>  (73) 
75

>  <Smiles>  (73) 
C(N(C(=O)C(N1C([C@@]2(C(=O)N(c3c(nc(c4c(c(c(c(c34)[H])[H])[H])[H])[H])[H])C([C@@]2(C(N(c2c(nc(c(n2)[H])[H])[H])[H])([H])[H])[H])([H])[H])c2c(c(Cl)c(c(c2C1=O)[H])[H])[H])([H])[H])([H])[H])[H])([H])([H])[H]

>  <h>  (73) 
<NA>

>  <Training>  (73) 
True

>  <Success>  (73) 
True

>  <enamine_searched>  (73) 
False

>  <enamine_id>  (73) 
nan

$$$$

     RDKit          3D

 66 71  0  0  0  0  0  0  0  0999 V2000
   -7.9686   -3.6797  -23.9991 C   0  0  0  0  0  0  0  0  0  0  0  0
   -8.2945   -2.8301  -22.7782 C   0  0  1  0  0  0  0  0  0  0  0  0
   -7.1275   -2.5903  -21.8143 C   0  0  0  0  0  0  0  0  0  0  0  0
   -7.4791   -1.3303  -21.1809 N   0  0  0  0  0  0  0  0  0  0  0  0
   -6.6627   -0.7681  -20.1641 C   0  0  0  0  0  0  0  0  0  0  0  0
   -6.9390   -1.0406  -18.8504 C   0  0  0  0  0  0  0  0  0  0  0  0
   -6.2319   -0.5593  -17.7981 N   0  0  0  0  0  0  0  0  0  0  0  0
   -5.2073    0.2115  -18.0758 C   0  0  0  0  0  0  0  0  0  0  0  0
   -4.7878    0.5459  -19.3951 C   0  0  0  0  0  0  0  0  0  0  0  0
   -3.6596    1.3760  -19.6294 C   0  0  0  0  0  0  0  0  0  0  0  0
   -3.2491    1.6473  -20.9047 C   0  0  0  0  0  0  0  0  0  0  0  0
   -3.9434    1.0986  -22.0066 C   0  0  0  0  0  0  0  0  0  0  0  0
   -5.0426    0.2967  -21.8041 C   0  0  0  0  0  0  0  0  0  0  0  0
   -5.5128    0.0184  -20.4877 C   0  0  0  0  0  0  0  0  0  0  0  0
   -5.5427   -0.1334  -22.6678 H   0  0  0  0  0  0  0  0  0  0  0  0
   -3.6011    1.3094  -23.0155 H   0  0  0  0  0  0  0  0  0  0  0  0
   -2.3822    2.2788  -21.0766 H   0  0  0  0  0  0  0  0  0  0  0  0
   -3.1376    1.7786  -18.7649 H   0  0  0  0  0  0  0  0  0  0  0  0
   -4.6405    0.6104  -17.2346 H   0  0  0  0  0  0  0  0  0  0  0  0
   -7.7855   -1.6806  -18.6092 H   0  0  0  0  0  0  0  0  0  0  0  0
   -8.3972   -0.5776  -21.8840 C   0  0  0  0  0  0  0  0  0  0  0  0
   -8.7237    0.5595  -21.5966 O   0  0  0  0  0  0  0  0  0  0  0  0
   -8.8594   -1.4124  -23.1040 C   0  0  1  0  0  0  0  0  0  0  0  0
   -8.2168   -0.8116  -24.3806 C   0  0  0  0  0  0  0  0  0  0  0  0
   -8.8831    0.4245  -24.7634 N   0  0  0  0  0  0  0  0  0  0  0  0
   -8.0642    1.5199  -25.2490 C   0  0  0  0  0  0  0  0  0  0  0  0
   -7.3708    2.2923  -24.1265 C   0  0  0  0  0  0  0  0  0  0  0  0
   -8.2749    3.1460  -23.2833 N   0  0  0  0  0  4  0  0  0  0  0  0
   -8.8628    4.2874  -24.0904 C   0  0  0  0  0  0  0  0  0  0  0  0
   -9.2165    5.4828  -23.2205 C   0  0  0  0  0  0  0  0  0  0  0  0
   -8.0996    6.0427  -22.5526 O   0  0  0  0  0  0  0  0  0  0  0  0
   -7.0729    5.1206  -22.2293 C   0  0  0  0  0  0  0  0  0  0  0  0
   -7.5728    3.6910  -22.0485 C   0  0  0  0  0  0  0  0  0  0  0  0
   -6.7396    3.0258  -21.8042 H   0  0  0  0  0  0  0  0  0  0  0  0
   -8.2800    3.6536  -21.2193 H   0  0  0  0  0  0  0  0  0  0  0  0
   -6.6313    5.4621  -21.2860 H   0  0  0  0  0  0  0  0  0  0  0  0
   -6.2890    5.1554  -23.0031 H   0  0  0  0  0  0  0  0  0  0  0  0
   -9.6268    6.2737  -23.8586 H   0  0  0  0  0  0  0  0  0  0  0  0
   -9.9900    5.2027  -22.4886 H   0  0  0  0  0  0  0  0  0  0  0  0
   -9.7578    3.9359  -24.6110 H   0  0  0  0  0  0  0  0  0  0  0  0
   -8.1245    4.5963  -24.8414 H   0  0  0  0  0  0  0  0  0  0  0  0
   -9.0295    2.5304  -22.9277 H   0  0  0  0  0  0  0  0  0  0  0  0
   -6.8794    1.5797  -23.4616 H   0  0  0  0  0  0  0  0  0  0  0  0
   -6.5962    2.9256  -24.5757 H   0  0  0  0  0  0  0  0  0  0  0  0
   -8.7143    2.1602  -25.8464 H   0  0  0  0  0  0  0  0  0  0  0  0
   -7.2916    1.1107  -25.9163 H   0  0  0  0  0  0  0  0  0  0  0  0
  -10.2190    0.3718  -25.0763 C   0  0  0  0  0  0  0  0  0  0  0  0
  -10.7460    1.0539  -25.9433 O   0  0  0  0  0  0  0  0  0  0  0  0
  -11.0019   -0.5678  -24.2036 C   0  0  0  0  0  0  0  0  0  0  0  0
  -12.3918   -0.5025  -24.2737 C   0  0  0  0  0  0  0  0  0  0  0  0
  -13.1749   -1.1868  -23.3628 C   0  0  0  0  0  0  0  0  0  0  0  0
  -12.5479   -1.9751  -22.3963 C   0  0  0  0  0  0  0  0  0  0  0  0
  -13.4947   -2.8681  -21.2332 Cl  0  0  0  0  0  0  0  0  0  0  0  0
  -11.1727   -2.1000  -22.3621 C   0  0  0  0  0  0  0  0  0  0  0  0
  -10.3672   -1.3762  -23.2539 C   0  0  0  0  0  0  0  0  0  0  0  0
  -10.7482   -2.7752  -21.6316 H   0  0  0  0  0  0  0  0  0  0  0  0
  -14.2529   -1.0926  -23.3812 H   0  0  0  0  0  0  0  0  0  0  0  0
  -12.8115    0.1102  -25.0648 H   0  0  0  0  0  0  0  0  0  0  0  0
   -7.1538   -0.6022  -24.2078 H   0  0  0  0  0  0  0  0  0  0  0  0
   -8.2865   -1.5470  -25.1990 H   0  0  0  0  0  0  0  0  0  0  0  0
   -7.0326   -3.3823  -21.0643 H   0  0  0  0  0  0  0  0  0  0  0  0
   -6.1627   -2.5290  -22.3413 H   0  0  0  0  0  0  0  0  0  0  0  0
   -9.0558   -3.3635  -22.2034 H   0  0  0  0  0  0  0  0  0  0  0  0
   -7.6850   -4.6964  -23.7159 H   0  0  0  0  0  0  0  0  0  0  0  0
   -8.8484   -3.7346  -24.6508 H   0  0  0  0  0  0  0  0  0  0  0  0
   -7.1435   -3.2436  -24.5739 H   0  0  0  0  0  0  0  0  0  0  0  0
  1  2  1  0
  2  3  1  0
  3  4  1  0
  4  5  1  0
  5  6  2  0
  6  7  1  0
  7  8  2  0
  8  9  1  0
  9 10  2  0
 10 11  1  0
 11 12  2  0
 12 13  1  0
 13 14  2  0
 13 15  1  0
 12 16  1  0
 11 17  1  0
 10 18  1  0
  8 19  1  0
  6 20  1  0
  4 21  1  0
 21 22  2  0
 21 23  1  0
 23 24  1  6
 24 25  1  0
 25 26  1  0
 26 27  1  0
 27 28  1  0
 28 29  1  0
 29 30  1  0
 30 31  1  0
 31 32  1  0
 32 33  1  0
 33 34  1  0
 33 35  1  0
 32 36  1  0
 32 37  1  0
 30 38  1  0
 30 39  1  0
 29 40  1  0
 29 41  1  0
 28 42  1  0
 27 43  1  0
 27 44  1  0
 26 45  1  0
 26 46  1  0
 25 47  1  0
 47 48  2  0
 47 49  1  0
 49 50  2  0
 50 51  1  0
 51 52  2  0
 52 53  1  0
 52 54  1  0
 54 55  2  0
 54 56  1  0
 51 57  1  0
 50 58  1  0
 24 59  1  0
 24 60  1  0
  3 61  1  0
  3 62  1  0
  2 63  1  1
  1 64  1  0
  1 65  1  0
  1 66  1  0
 23  2  1  0
 33 28  1  0
 55 49  1  0
 14  5  1  0
 55 23  1  0
 14  9  1  0
M  CHG  1  28   1
M  END
>  <cnnaffinities>  (74) 
[6.93987, 6.92857]

>  <score>  (74) 
6.93987

>  <index>  (74) 
76

>  <Smiles>  (74) 
C([C@]1(C(N(c2c(nc(c3c(c(c(c(c23)[H])[H])[H])[H])[H])[H])C(=O)[C@]21C(N(C(C([N+]1(C(C(OC(C1([H])[H])([H])[H])([H])[H])([H])[H])[H])([H])[H])([H])[H])C(=O)c1c(c(c(Cl)c(c21)[H])[H])[H])([H])[H])([H])[H])[H])([H])([H])[H]

>  <h>  (74) 
<NA>

>  <Training>  (74) 
True

>  <Success>  (74) 
True

>  <enamine_searched>  (74) 
False

>  <enamine_id>  (74) 
nan

$$$$

     RDKit          3D

 55 60  0  0  0  0  0  0  0  0999 V2000
  -10.2077   -1.0318  -23.6662 C   0  0  0  0  0  0  0  0  0  0  0  0
   -8.8514   -1.3487  -23.0430 C   0  0  1  0  0  0  0  0  0  0  0  0
   -8.3951   -0.4143  -21.9082 C   0  0  0  0  0  0  0  0  0  0  0  0
   -7.3949   -1.2135  -21.2192 N   0  0  0  0  0  0  0  0  0  0  0  0
   -6.5897   -0.7441  -20.1547 C   0  0  0  0  0  0  0  0  0  0  0  0
   -6.8836   -1.0476  -18.8531 C   0  0  0  0  0  0  0  0  0  0  0  0
   -6.2132   -0.5384  -17.7863 N   0  0  0  0  0  0  0  0  0  0  0  0
   -5.2013    0.2636  -18.0279 C   0  0  0  0  0  0  0  0  0  0  0  0
   -4.7476    0.5995  -19.3388 C   0  0  0  0  0  0  0  0  0  0  0  0
   -3.6108    1.4135  -19.5854 C   0  0  0  0  0  0  0  0  0  0  0  0
   -3.1935    1.6531  -20.8672 C   0  0  0  0  0  0  0  0  0  0  0  0
   -3.8844    1.0972  -21.9663 C   0  0  0  0  0  0  0  0  0  0  0  0
   -4.9949    0.3213  -21.7589 C   0  0  0  0  0  0  0  0  0  0  0  0
   -5.4535    0.0688  -20.4405 C   0  0  0  0  0  0  0  0  0  0  0  0
   -5.5173   -0.1301  -22.5954 H   0  0  0  0  0  0  0  0  0  0  0  0
   -3.5380    1.2797  -22.9791 H   0  0  0  0  0  0  0  0  0  0  0  0
   -2.3239    2.2756  -21.0561 H   0  0  0  0  0  0  0  0  0  0  0  0
   -3.0820    1.8431  -18.7401 H   0  0  0  0  0  0  0  0  0  0  0  0
   -4.6698    0.6671  -17.1623 H   0  0  0  0  0  0  0  0  0  0  0  0
   -7.7048   -1.7257  -18.6218 H   0  0  0  0  0  0  0  0  0  0  0  0
   -7.5067   -2.5617  -21.4753 C   0  0  0  0  0  0  0  0  0  0  0  0
   -6.7822   -3.4080  -20.9967 O   0  0  0  0  0  0  0  0  0  0  0  0
   -8.6902   -2.7805  -22.4248 C   0  0  1  0  0  0  0  0  0  0  0  0
   -9.9103   -3.1986  -21.5427 C   0  0  0  0  0  0  0  0  0  0  0  0
  -11.0530   -3.6631  -22.3154 N   0  0  0  0  0  0  0  0  0  0  0  0
  -12.4109   -3.6386  -21.7647 C   0  0  0  0  0  0  0  0  0  0  0  0
  -13.2885   -2.5100  -22.2237 C   0  0  0  0  0  0  0  0  0  0  0  0
  -14.0589   -1.6824  -21.4803 C   0  0  0  0  0  0  0  0  0  0  0  0
  -14.7689   -0.8837  -22.3303 O   0  0  0  0  0  0  0  0  0  0  0  0
  -14.3714   -1.2640  -23.5578 C   0  0  0  0  0  0  0  0  0  0  0  0
  -13.5161   -2.2340  -23.5654 N   0  0  0  0  0  0  0  0  0  0  0  0
  -14.8123   -0.7478  -24.3997 H   0  0  0  0  0  0  0  0  0  0  0  0
  -14.2114   -1.5240  -20.4194 H   0  0  0  0  0  0  0  0  0  0  0  0
  -12.8848   -4.5673  -22.0929 H   0  0  0  0  0  0  0  0  0  0  0  0
  -12.3961   -3.6385  -20.6730 H   0  0  0  0  0  0  0  0  0  0  0  0
  -10.8362   -4.5278  -23.3501 C   0  0  0  0  0  0  0  0  0  0  0  0
  -11.7291   -5.1880  -23.8344 O   0  0  0  0  0  0  0  0  0  0  0  0
   -9.4531   -4.6626  -23.8808 C   0  0  0  0  0  0  0  0  0  0  0  0
   -9.2641   -5.6526  -24.8397 C   0  0  0  0  0  0  0  0  0  0  0  0
   -8.0241   -5.8709  -25.3944 C   0  0  0  0  0  0  0  0  0  0  0  0
   -6.9781   -5.0606  -24.9679 C   0  0  0  0  0  0  0  0  0  0  0  0
   -5.7652   -5.2776  -25.5025 F   0  0  0  0  0  0  0  0  0  0  0  0
   -7.1362   -4.0721  -24.0119 C   0  0  0  0  0  0  0  0  0  0  0  0
   -8.4047   -3.8590  -23.4456 C   0  0  0  0  0  0  0  0  0  0  0  0
   -6.2656   -3.5040  -23.7036 H   0  0  0  0  0  0  0  0  0  0  0  0
   -7.8555   -6.6495  -26.1296 H   0  0  0  0  0  0  0  0  0  0  0  0
  -10.1341   -6.2371  -25.1161 H   0  0  0  0  0  0  0  0  0  0  0  0
  -10.2578   -2.3396  -20.9657 H   0  0  0  0  0  0  0  0  0  0  0  0
   -9.5677   -3.9782  -20.8459 H   0  0  0  0  0  0  0  0  0  0  0  0
   -9.2219   -0.1737  -21.2242 H   0  0  0  0  0  0  0  0  0  0  0  0
   -7.9632    0.5256  -22.2694 H   0  0  0  0  0  0  0  0  0  0  0  0
   -8.1012   -1.2836  -23.8454 H   0  0  0  0  0  0  0  0  0  0  0  0
  -11.0317   -1.1146  -22.9505 H   0  0  0  0  0  0  0  0  0  0  0  0
  -10.4111   -1.7240  -24.4900 H   0  0  0  0  0  0  0  0  0  0  0  0
  -10.2180   -0.0220  -24.0853 H   0  0  0  0  0  0  0  0  0  0  0  0
  1  2  1  0
  2  3  1  0
  3  4  1  0
  4  5  1  0
  5  6  2  0
  6  7  1  0
  7  8  2  0
  8  9  1  0
  9 10  2  0
 10 11  1  0
 11 12  2  0
 12 13  1  0
 13 14  2  0
 13 15  1  0
 12 16  1  0
 11 17  1  0
 10 18  1  0
  8 19  1  0
  6 20  1  0
  4 21  1  0
 21 22  2  0
 21 23  1  0
 23 24  1  1
 24 25  1  0
 25 26  1  0
 26 27  1  0
 27 28  2  0
 28 29  1  0
 29 30  1  0
 30 31  2  0
 30 32  1  0
 28 33  1  0
 26 34  1  0
 26 35  1  0
 25 36  1  0
 36 37  2  0
 36 38  1  0
 38 39  2  0
 39 40  1  0
 40 41  2  0
 41 42  1  0
 41 43  1  0
 43 44  2  0
 43 45  1  0
 40 46  1  0
 39 47  1  0
 24 48  1  0
 24 49  1  0
  3 50  1  0
  3 51  1  0
  2 52  1  6
  1 53  1  0
  1 54  1  0
  1 55  1  0
 23  2  1  0
 31 27  1  0
 44 38  1  0
 14  5  1  0
 44 23  1  0
 14  9  1  0
M  END
>  <cnnaffinities>  (75) 
[6.72085]

>  <score>  (75) 
6.72085

>  <index>  (75) 
77

>  <Smiles>  (75) 
C([C@]1(C(N(c2c(nc(c3c(c(c(c(c23)[H])[H])[H])[H])[H])[H])C(=O)[C@]21C(N(C(c1c(oc(n1)[H])[H])([H])[H])C(=O)c1c(c(c(F)c(c21)[H])[H])[H])([H])[H])([H])[H])[H])([H])([H])[H]

>  <h>  (75) 
<NA>

>  <Training>  (75) 
True

>  <Success>  (75) 
True

>  <enamine_searched>  (75) 
False

>  <enamine_id>  (75) 
nan

$$$$

     RDKit          3D

 56 60  0  0  0  0  0  0  0  0999 V2000
   -8.2023    4.5065  -24.1048 C   0  0  0  0  0  0  0  0  0  0  0  0
   -8.2413    3.3287  -24.9461 N   0  0  0  0  0  0  0  0  0  0  0  0
   -7.4188    2.2842  -24.6624 C   0  0  0  0  0  0  0  0  0  0  0  0
   -6.5708    2.3205  -23.7862 O   0  0  0  0  0  0  0  0  0  0  0  0
   -7.6297    1.0545  -25.5465 C   0  0  0  0  0  0  0  0  0  0  0  0
   -8.5529    0.1182  -24.9284 N   0  0  0  0  0  0  0  0  0  0  0  0
   -8.0835   -1.1546  -24.4037 C   0  0  0  0  0  0  0  0  0  0  0  0
   -8.8352   -1.5549  -23.1025 C   0  0  2  0  0  0  0  0  0  0  0  0
   -8.3701   -0.6575  -21.9217 C   0  0  0  0  0  0  0  0  0  0  0  0
   -8.7181    0.4683  -21.6439 O   0  0  0  0  0  0  0  0  0  0  0  0
   -7.4293   -1.3735  -21.2094 N   0  0  0  0  0  0  0  0  0  0  0  0
   -6.6349   -0.8012  -20.1906 C   0  0  0  0  0  0  0  0  0  0  0  0
   -6.9255   -1.0759  -18.8796 C   0  0  0  0  0  0  0  0  0  0  0  0
   -6.2416   -0.5837  -17.8182 N   0  0  0  0  0  0  0  0  0  0  0  0
   -5.2168    0.1908  -18.0845 C   0  0  0  0  0  0  0  0  0  0  0  0
   -4.7764    0.5143  -19.3988 C   0  0  0  0  0  0  0  0  0  0  0  0
   -3.6391    1.3344  -19.6192 C   0  0  0  0  0  0  0  0  0  0  0  0
   -3.2174    1.6078  -20.8882 C   0  0  0  0  0  0  0  0  0  0  0  0
   -3.9154    1.0827  -21.9992 C   0  0  0  0  0  0  0  0  0  0  0  0
   -5.0257    0.2951  -21.8143 C   0  0  0  0  0  0  0  0  0  0  0  0
   -5.4894   -0.0029  -20.5026 C   0  0  0  0  0  0  0  0  0  0  0  0
   -5.5626   -0.0780  -22.6835 H   0  0  0  0  0  0  0  0  0  0  0  0
   -3.5831    1.3181  -23.0053 H   0  0  0  0  0  0  0  0  0  0  0  0
   -2.3442    2.2329  -21.0496 H   0  0  0  0  0  0  0  0  0  0  0  0
   -3.1253    1.7339  -18.7488 H   0  0  0  0  0  0  0  0  0  0  0  0
   -4.6695    0.6030  -17.2376 H   0  0  0  0  0  0  0  0  0  0  0  0
   -7.7701   -1.7254  -18.6531 H   0  0  0  0  0  0  0  0  0  0  0  0
   -7.2066   -2.7245  -21.6695 C   0  0  0  0  0  0  0  0  0  0  0  0
   -8.3895   -2.9654  -22.6126 C   0  0  2  0  0  0  0  0  0  0  0  0
   -8.1019   -3.9892  -23.7012 C   0  0  0  0  0  0  0  0  0  0  0  0
   -8.9485   -4.0609  -24.3937 H   0  0  0  0  0  0  0  0  0  0  0  0
   -7.9211   -4.9735  -23.2574 H   0  0  0  0  0  0  0  0  0  0  0  0
   -7.2105   -3.7057  -24.2755 H   0  0  0  0  0  0  0  0  0  0  0  0
   -9.1965   -3.3518  -21.9867 H   0  0  0  0  0  0  0  0  0  0  0  0
   -7.2037   -3.4187  -20.8238 H   0  0  0  0  0  0  0  0  0  0  0  0
   -6.2353   -2.8329  -22.1779 H   0  0  0  0  0  0  0  0  0  0  0  0
  -10.3220   -1.4109  -23.3665 C   0  0  0  0  0  0  0  0  0  0  0  0
  -11.2594   -2.0838  -22.5758 C   0  0  0  0  0  0  0  0  0  0  0  0
  -12.6107   -1.8556  -22.7451 C   0  0  0  0  0  0  0  0  0  0  0  0
  -13.7091   -2.6385  -21.6489 Cl  0  0  0  0  0  0  0  0  0  0  0  0
  -13.0980   -1.0315  -23.7604 C   0  0  0  0  0  0  0  0  0  0  0  0
  -12.1785   -0.3842  -24.5629 C   0  0  0  0  0  0  0  0  0  0  0  0
  -10.8094   -0.5294  -24.3406 C   0  0  0  0  0  0  0  0  0  0  0  0
   -9.8791    0.3743  -25.0817 C   0  0  0  0  0  0  0  0  0  0  0  0
  -10.2800    1.3294  -25.7552 O   0  0  0  0  0  0  0  0  0  0  0  0
  -12.4913    0.2299  -25.3998 H   0  0  0  0  0  0  0  0  0  0  0  0
  -14.1623   -0.8816  -23.8980 H   0  0  0  0  0  0  0  0  0  0  0  0
  -10.9670   -2.7937  -21.8134 H   0  0  0  0  0  0  0  0  0  0  0  0
   -8.2332   -1.9438  -25.1570 H   0  0  0  0  0  0  0  0  0  0  0  0
   -7.0082   -1.0581  -24.2085 H   0  0  0  0  0  0  0  0  0  0  0  0
   -6.6764    0.5476  -25.7038 H   0  0  0  0  0  0  0  0  0  0  0  0
   -8.0313    1.3619  -26.5151 H   0  0  0  0  0  0  0  0  0  0  0  0
   -9.0898    3.0955  -25.4368 H   0  0  0  0  0  0  0  0  0  0  0  0
   -8.8550    5.2624  -24.5443 H   0  0  0  0  0  0  0  0  0  0  0  0
   -7.1802    4.8919  -24.0659 H   0  0  0  0  0  0  0  0  0  0  0  0
   -8.5322    4.2782  -23.0847 H   0  0  0  0  0  0  0  0  0  0  0  0
  1  2  1  0
  2  3  1  0
  3  4  2  0
  3  5  1  0
  5  6  1  0
  6  7  1  0
  8  7  1  6
  8  9  1  0
  9 10  2  0
  9 11  1  0
 11 12  1  0
 12 13  2  0
 13 14  1  0
 14 15  2  0
 15 16  1  0
 16 17  2  0
 17 18  1  0
 18 19  2  0
 19 20  1  0
 20 21  2  0
 20 22  1  0
 19 23  1  0
 18 24  1  0
 17 25  1  0
 15 26  1  0
 13 27  1  0
 11 28  1  0
 28 29  1  0
 29 30  1  0
 30 31  1  0
 30 32  1  0
 30 33  1  0
 29 34  1  1
 28 35  1  0
 28 36  1  0
  8 37  1  0
 37 38  2  0
 38 39  1  0
 39 40  1  0
 39 41  2  0
 41 42  1  0
 42 43  2  0
 43 44  1  0
 44 45  2  0
 42 46  1  0
 41 47  1  0
 38 48  1  0
  7 49  1  0
  7 50  1  0
  5 51  1  0
  5 52  1  0
  2 53  1  0
  1 54  1  0
  1 55  1  0
  1 56  1  0
 44  6  1  0
 29  8  1  0
 43 37  1  0
 21 12  1  0
 21 16  1  0
M  END
>  <cnnaffinities>  (76) 
[6.73997, 6.34647]

>  <score>  (76) 
6.73997

>  <index>  (76) 
78

>  <Smiles>  (76) 
C(N(C(=O)C(N1C([C@@]2(C(=O)N(c3c(nc(c4c(c(c(c(c34)[H])[H])[H])[H])[H])[H])C([C@@]2(C([H])([H])[H])[H])([H])[H])c2c(c(Cl)c(c(c2C1=O)[H])[H])[H])([H])[H])([H])[H])[H])([H])([H])[H]

>  <h>  (76) 
<NA>

>  <Training>  (76) 
True

>  <Success>  (76) 
True

>  <enamine_searched>  (76) 
False

>  <enamine_id>  (76) 
nan

$$$$

     RDKit          3D

 45 49  0  0  0  0  0  0  0  0999 V2000
   -9.6462   -0.9263  -24.0659 C   0  0  0  0  0  0  0  0  0  0  0  0
   -8.6594   -1.3723  -23.1011 N   0  0  0  0  0  0  0  0  0  0  0  0
   -8.4064   -0.7089  -21.9233 C   0  0  0  0  0  0  0  0  0  0  0  0
   -8.9455    0.2848  -21.4993 O   0  0  0  0  0  0  0  0  0  0  0  0
   -7.3644   -1.4049  -21.2768 N   0  0  0  0  0  0  0  0  0  0  0  0
   -6.5869   -0.8311  -20.2136 C   0  0  0  0  0  0  0  0  0  0  0  0
   -6.9054   -1.0605  -18.9013 C   0  0  0  0  0  0  0  0  0  0  0  0
   -6.2143   -0.5546  -17.8423 N   0  0  0  0  0  0  0  0  0  0  0  0
   -5.1786    0.2073  -18.0905 C   0  0  0  0  0  0  0  0  0  0  0  0
   -4.7291    0.5298  -19.4003 C   0  0  0  0  0  0  0  0  0  0  0  0
   -3.6000    1.3612  -19.6324 C   0  0  0  0  0  0  0  0  0  0  0  0
   -3.2069    1.6498  -20.9089 C   0  0  0  0  0  0  0  0  0  0  0  0
   -3.9250    1.1231  -22.0062 C   0  0  0  0  0  0  0  0  0  0  0  0
   -5.0173    0.3226  -21.8054 C   0  0  0  0  0  0  0  0  0  0  0  0
   -5.4497   -0.0006  -20.4939 C   0  0  0  0  0  0  0  0  0  0  0  0
   -5.5677   -0.0721  -22.6523 H   0  0  0  0  0  0  0  0  0  0  0  0
   -3.6156    1.3535  -23.0192 H   0  0  0  0  0  0  0  0  0  0  0  0
   -2.3498    2.2904  -21.0942 H   0  0  0  0  0  0  0  0  0  0  0  0
   -3.0688    1.7660  -18.7750 H   0  0  0  0  0  0  0  0  0  0  0  0
   -4.6334    0.6099  -17.2345 H   0  0  0  0  0  0  0  0  0  0  0  0
   -7.7550   -1.6844  -18.6359 H   0  0  0  0  0  0  0  0  0  0  0  0
   -6.9237   -2.4778  -22.0555 C   0  0  0  0  0  0  0  0  0  0  0  0
   -6.0241   -3.2271  -21.7695 O   0  0  0  0  0  0  0  0  0  0  0  0
   -7.7742   -2.4854  -23.3224 C   0  0  0  0  0  0  0  0  0  0  0  0
   -6.9670   -2.5528  -24.6452 C   0  0  0  0  0  0  0  0  0  0  0  0
   -7.5605   -3.8983  -24.9582 N   0  0  0  0  0  0  0  0  0  0  0  0
   -8.3896   -3.9606  -26.4317 S   0  0  0  0  0  0  0  0  0  0  0  0
   -9.4484   -2.9602  -26.3827 O   0  0  0  0  0  0  0  0  0  0  0  0
   -7.3881   -3.9270  -27.4814 O   0  0  0  0  0  0  0  0  0  0  0  0
   -9.2201   -5.5310  -26.4999 C   0  0  0  0  0  0  0  0  0  0  0  0
  -10.3452   -5.6200  -27.5076 C   0  0  0  0  0  0  0  0  0  0  0  0
  -10.6551   -5.5938  -26.0418 C   0  0  0  0  0  0  0  0  0  0  0  0
  -11.0757   -4.6789  -25.6269 H   0  0  0  0  0  0  0  0  0  0  0  0
  -10.9865   -6.5161  -25.5720 H   0  0  0  0  0  0  0  0  0  0  0  0
  -10.5595   -4.7329  -28.1011 H   0  0  0  0  0  0  0  0  0  0  0  0
  -10.4604   -6.5573  -28.0496 H   0  0  0  0  0  0  0  0  0  0  0  0
   -8.5545   -6.3764  -26.3542 H   0  0  0  0  0  0  0  0  0  0  0  0
   -8.3853   -3.8518  -23.7235 C   0  0  0  0  0  0  0  0  0  0  0  0
   -9.4680   -3.8532  -23.8897 H   0  0  0  0  0  0  0  0  0  0  0  0
   -8.1080   -4.6626  -23.0511 H   0  0  0  0  0  0  0  0  0  0  0  0
   -5.8894   -2.6325  -24.4977 H   0  0  0  0  0  0  0  0  0  0  0  0
   -7.1890   -1.7653  -25.3738 H   0  0  0  0  0  0  0  0  0  0  0  0
  -10.1832   -0.0923  -23.6126 H   0  0  0  0  0  0  0  0  0  0  0  0
   -9.1706   -0.5909  -24.9962 H   0  0  0  0  0  0  0  0  0  0  0  0
  -10.3416   -1.7374  -24.3128 H   0  0  0  0  0  0  0  0  0  0  0  0
  1  2  1  0
  2  3  1  0
  3  4  2  0
  3  5  1  0
  5  6  1  0
  6  7  2  0
  7  8  1  0
  8  9  2  0
  9 10  1  0
 10 11  2  0
 11 12  1  0
 12 13  2  0
 13 14  1  0
 14 15  2  0
 14 16  1  0
 13 17  1  0
 12 18  1  0
 11 19  1  0
  9 20  1  0
  7 21  1  0
  5 22  1  0
 22 23  2  0
 22 24  1  0
 24 25  1  0
 25 26  1  0
 26 27  1  0
 27 28  2  0
 27 29  2  0
 27 30  1  0
 30 31  1  0
 31 32  1  0
 32 33  1  0
 32 34  1  0
 31 35  1  0
 31 36  1  0
 30 37  1  0
 26 38  1  0
 38 39  1  0
 38 40  1  0
 25 41  1  0
 25 42  1  0
  1 43  1  0
  1 44  1  0
  1 45  1  0
 24  2  1  0
 32 30  1  0
 15  6  1  0
 38 24  1  0
 15 10  1  0
M  END
>  <cnnaffinities>  (77) 
[5.58447, 5.63211, 5.63217, 5.62639, 5.51782, 5.61848, 5.74746]

>  <score>  (77) 
5.58447

>  <index>  (77) 
79

>  <Smiles>  (77) 
C(N1C(=O)N(c2c(nc(c3c(c(c(c(c23)[H])[H])[H])[H])[H])[H])C(=O)C21C(N(S(=O)(=O)C1(C(C1([H])[H])([H])[H])[H])C2([H])[H])([H])[H])([H])([H])[H]

>  <h>  (77) 
<NA>

>  <Training>  (77) 
True

>  <Success>  (77) 
True

>  <enamine_searched>  (77) 
False

>  <enamine_id>  (77) 
nan

$$$$

     RDKit          3D

 60 65  0  0  0  0  0  0  0  0999 V2000
   -6.9495    3.3164  -23.3718 C   0  0  0  0  0  0  0  0  0  0  0  0
   -7.6874    2.3891  -24.2112 N   0  0  0  0  0  0  0  0  0  0  0  0
   -7.0404    1.4142  -24.8829 C   0  0  0  0  0  0  0  0  0  0  0  0
   -5.8217    1.2808  -24.8520 O   0  0  0  0  0  0  0  0  0  0  0  0
   -7.9146    0.5284  -25.7554 C   0  0  0  0  0  0  0  0  0  0  0  0
   -8.9198   -0.2519  -25.0902 N   0  0  0  0  0  0  0  0  0  0  0  0
   -8.4820   -1.4558  -24.4029 C   0  0  0  0  0  0  0  0  0  0  0  0
   -9.1751   -1.6371  -23.0229 C   0  0  2  0  0  0  0  0  0  0  0  0
   -8.5969   -0.6171  -21.9999 C   0  0  0  0  0  0  0  0  0  0  0  0
   -8.9350    0.5350  -21.8331 O   0  0  0  0  0  0  0  0  0  0  0  0
   -7.6046   -1.2592  -21.2802 N   0  0  0  0  0  0  0  0  0  0  0  0
   -6.8211   -0.6729  -20.2534 C   0  0  0  0  0  0  0  0  0  0  0  0
   -7.1102   -0.9597  -18.9411 C   0  0  0  0  0  0  0  0  0  0  0  0
   -6.3929   -0.5228  -17.8778 N   0  0  0  0  0  0  0  0  0  0  0  0
   -5.3362    0.2138  -18.1270 C   0  0  0  0  0  0  0  0  0  0  0  0
   -4.8986    0.5614  -19.4361 C   0  0  0  0  0  0  0  0  0  0  0  0
   -3.7290    1.3375  -19.6562 C   0  0  0  0  0  0  0  0  0  0  0  0
   -3.3013    1.6076  -20.9266 C   0  0  0  0  0  0  0  0  0  0  0  0
   -4.0311    1.1278  -22.0366 C   0  0  0  0  0  0  0  0  0  0  0  0
   -5.1834    0.4037  -21.8521 C   0  0  0  0  0  0  0  0  0  0  0  0
   -5.6504    0.0991  -20.5442 C   0  0  0  0  0  0  0  0  0  0  0  0
   -5.7409    0.0736  -22.7233 H   0  0  0  0  0  0  0  0  0  0  0  0
   -3.6998    1.3384  -23.0484 H   0  0  0  0  0  0  0  0  0  0  0  0
   -2.4000    2.1908  -21.0910 H   0  0  0  0  0  0  0  0  0  0  0  0
   -3.1901    1.7115  -18.7912 H   0  0  0  0  0  0  0  0  0  0  0  0
   -4.7570    0.5637  -17.2716 H   0  0  0  0  0  0  0  0  0  0  0  0
   -7.9707   -1.5874  -18.7056 H   0  0  0  0  0  0  0  0  0  0  0  0
   -7.4229   -2.6459  -21.6481 C   0  0  0  0  0  0  0  0  0  0  0  0
   -8.7420   -2.9645  -22.3493 C   0  0  2  0  0  0  0  0  0  0  0  0
   -8.6994   -4.1902  -23.2454 C   0  0  0  0  0  0  0  0  0  0  0  0
   -7.8908   -4.1102  -23.9837 H   0  0  0  0  0  0  0  0  0  0  0  0
   -9.6461   -4.2999  -23.7870 H   0  0  0  0  0  0  0  0  0  0  0  0
   -8.5261   -5.0935  -22.6533 H   0  0  0  0  0  0  0  0  0  0  0  0
   -9.4660   -3.1264  -21.5461 H   0  0  0  0  0  0  0  0  0  0  0  0
   -7.2606   -3.2592  -20.7584 H   0  0  0  0  0  0  0  0  0  0  0  0
   -6.5516   -2.7980  -22.3100 H   0  0  0  0  0  0  0  0  0  0  0  0
  -10.6734   -1.4976  -23.2357 C   0  0  0  0  0  0  0  0  0  0  0  0
  -11.6081   -2.1398  -22.4076 C   0  0  0  0  0  0  0  0  0  0  0  0
  -12.9612   -1.9993  -22.6457 C   0  0  0  0  0  0  0  0  0  0  0  0
  -14.0858   -2.9371  -21.6970 Cl  0  0  0  0  0  0  0  0  0  0  0  0
  -13.4489   -1.1621  -23.6430 C   0  0  0  0  0  0  0  0  0  0  0  0
  -12.5426   -0.5179  -24.4645 C   0  0  0  0  0  0  0  0  0  0  0  0
  -11.1659   -0.6828  -24.2687 C   0  0  0  0  0  0  0  0  0  0  0  0
  -10.2367    0.1255  -25.1192 C   0  0  0  0  0  0  0  0  0  0  0  0
  -10.6229    1.0848  -25.7769 O   0  0  0  0  0  0  0  0  0  0  0  0
  -12.8998    0.1275  -25.2606 H   0  0  0  0  0  0  0  0  0  0  0  0
  -14.5244   -1.0399  -23.7205 H   0  0  0  0  0  0  0  0  0  0  0  0
  -11.3099   -2.7990  -21.6027 H   0  0  0  0  0  0  0  0  0  0  0  0
   -7.3998   -1.3722  -24.2874 H   0  0  0  0  0  0  0  0  0  0  0  0
   -8.6969   -2.3260  -25.0379 H   0  0  0  0  0  0  0  0  0  0  0  0
   -7.1722   -0.0997  -26.9100 C   0  0  0  0  0  0  0  0  0  0  0  0
   -8.1221    1.0221  -27.1589 C   0  0  0  0  0  0  0  0  0  0  0  0
   -9.0811    0.8023  -27.6107 H   0  0  0  0  0  0  0  0  0  0  0  0
   -7.7167    1.9954  -27.4076 H   0  0  0  0  0  0  0  0  0  0  0  0
   -7.4906   -1.0954  -27.1997 H   0  0  0  0  0  0  0  0  0  0  0  0
   -6.1111    0.1216  -26.9524 H   0  0  0  0  0  0  0  0  0  0  0  0
   -8.6959    2.3476  -24.1690 H   0  0  0  0  0  0  0  0  0  0  0  0
   -6.5294    2.8106  -22.4906 H   0  0  0  0  0  0  0  0  0  0  0  0
   -6.1174    3.7451  -23.9396 H   0  0  0  0  0  0  0  0  0  0  0  0
   -7.6067    4.1270  -23.0505 H   0  0  0  0  0  0  0  0  0  0  0  0
  1  2  1  0
  2  3  1  0
  3  4  2  0
  3  5  1  0
  5  6  1  0
  6  7  1  0
  8  7  1  6
  8  9  1  0
  9 10  2  0
  9 11  1  0
 11 12  1  0
 12 13  2  0
 13 14  1  0
 14 15  2  0
 15 16  1  0
 16 17  2  0
 17 18  1  0
 18 19  2  0
 19 20  1  0
 20 21  2  0
 20 22  1  0
 19 23  1  0
 18 24  1  0
 17 25  1  0
 15 26  1  0
 13 27  1  0
 11 28  1  0
 28 29  1  0
 29 30  1  0
 30 31  1  0
 30 32  1  0
 30 33  1  0
 29 34  1  1
 28 35  1  0
 28 36  1  0
  8 37  1  0
 37 38  2  0
 38 39  1  0
 39 40  1  0
 39 41  2  0
 41 42  1  0
 42 43  2  0
 43 44  1  0
 44 45  2  0
 42 46  1  0
 41 47  1  0
 38 48  1  0
  7 49  1  0
  7 50  1  0
  5 51  1  0
 51 52  1  0
 52 53  1  0
 52 54  1  0
 51 55  1  0
 51 56  1  0
  2 57  1  0
  1 58  1  0
  1 59  1  0
  1 60  1  0
 52  5  1  0
 44  6  1  0
 29  8  1  0
 43 37  1  0
 21 12  1  0
 21 16  1  0
M  END
>  <cnnaffinities>  (78) 
[7.01579]

>  <score>  (78) 
7.01579

>  <index>  (78) 
80

>  <Smiles>  (78) 
C(N(C(=O)C1(N2C([C@@]3(C(=O)N(c4c(nc(c5c(c(c(c(c45)[H])[H])[H])[H])[H])[H])C([C@@]3(C([H])([H])[H])[H])([H])[H])c3c(c(Cl)c(c(c3C2=O)[H])[H])[H])([H])[H])C(C1([H])[H])([H])[H])[H])([H])([H])[H]

>  <h>  (78) 
<NA>

>  <Training>  (78) 
True

>  <Success>  (78) 
True

>  <enamine_searched>  (78) 
False

>  <enamine_id>  (78) 
nan

$$$$

     RDKit          3D

 36 38  0  0  0  0  0  0  0  0999 V2000
   -6.0260   -3.4258  -21.2225 O   0  0  0  0  0  0  0  0  0  0  0  0
   -6.6647   -2.6709  -21.9293 C   0  0  0  0  0  0  0  0  0  0  0  0
   -7.3877   -1.4607  -21.2854 C   0  0  0  0  0  0  0  0  0  0  0  0
   -6.5727   -0.8292  -20.1788 C   0  0  0  0  0  0  0  0  0  0  0  0
   -6.8710   -1.0476  -18.8575 C   0  0  0  0  0  0  0  0  0  0  0  0
   -6.1879   -0.5415  -17.7929 N   0  0  0  0  0  0  0  0  0  0  0  0
   -5.1579    0.2243  -18.0617 C   0  0  0  0  0  0  0  0  0  0  0  0
   -4.7217    0.5353  -19.3782 C   0  0  0  0  0  0  0  0  0  0  0  0
   -3.5939    1.3604  -19.6205 C   0  0  0  0  0  0  0  0  0  0  0  0
   -3.1948    1.6386  -20.9003 C   0  0  0  0  0  0  0  0  0  0  0  0
   -3.9103    1.0967  -21.9930 C   0  0  0  0  0  0  0  0  0  0  0  0
   -5.0053    0.2954  -21.7861 C   0  0  0  0  0  0  0  0  0  0  0  0
   -5.4451   -0.0052  -20.4703 C   0  0  0  0  0  0  0  0  0  0  0  0
   -5.5336   -0.1167  -22.6420 H   0  0  0  0  0  0  0  0  0  0  0  0
   -3.5898    1.3207  -23.0051 H   0  0  0  0  0  0  0  0  0  0  0  0
   -2.3345    2.2755  -21.0883 H   0  0  0  0  0  0  0  0  0  0  0  0
   -3.0566    1.7730  -18.7699 H   0  0  0  0  0  0  0  0  0  0  0  0
   -4.6024    0.6303  -17.2143 H   0  0  0  0  0  0  0  0  0  0  0  0
   -7.7210   -1.6709  -18.5859 H   0  0  0  0  0  0  0  0  0  0  0  0
   -7.6814   -0.7048  -22.0213 H   0  0  0  0  0  0  0  0  0  0  0  0
   -8.3232   -1.8419  -20.8519 H   0  0  0  0  0  0  0  0  0  0  0  0
   -6.7427   -2.8957  -23.2963 N   0  0  0  0  0  0  0  0  0  0  0  0
   -7.6538   -2.1753  -24.1704 C   0  0  0  0  0  0  0  0  0  0  0  0
   -9.1084   -2.5054  -23.9671 C   0  0  0  0  0  0  0  0  0  0  0  0
   -9.5892   -3.7384  -23.7891 C   0  0  0  0  0  0  0  0  0  0  0  0
   -8.8452   -5.0150  -23.7305 C   0  0  0  0  0  0  0  0  0  0  0  0
   -7.5276   -5.2454  -23.7080 C   0  0  0  0  0  0  0  0  0  0  0  0
   -6.4046   -4.2403  -23.7572 C   0  0  0  0  0  0  0  0  0  0  0  0
   -5.5466   -4.6034  -23.1858 H   0  0  0  0  0  0  0  0  0  0  0  0
   -6.0682   -4.1445  -24.7959 H   0  0  0  0  0  0  0  0  0  0  0  0
   -7.1993   -6.2864  -23.6568 H   0  0  0  0  0  0  0  0  0  0  0  0
   -9.4927   -5.8886  -23.7093 H   0  0  0  0  0  0  0  0  0  0  0  0
  -10.6669   -3.8507  -23.6898 H   0  0  0  0  0  0  0  0  0  0  0  0
   -9.8057   -1.6676  -23.9757 H   0  0  0  0  0  0  0  0  0  0  0  0
   -7.4713   -1.0993  -24.0912 H   0  0  0  0  0  0  0  0  0  0  0  0
   -7.3616   -2.4476  -25.1910 H   0  0  0  0  0  0  0  0  0  0  0  0
  1  2  2  0
  2  3  1  0
  3  4  1  0
  4  5  2  0
  5  6  1  0
  6  7  2  0
  7  8  1  0
  8  9  2  0
  9 10  1  0
 10 11  2  0
 11 12  1  0
 12 13  2  0
 12 14  1  0
 11 15  1  0
 10 16  1  0
  9 17  1  0
  7 18  1  0
  5 19  1  0
  3 20  1  0
  3 21  1  0
  2 22  1  0
 22 23  1  0
 23 24  1  0
 24 25  2  0
 25 26  1  0
 26 27  2  0
 27 28  1  0
 28 29  1  0
 28 30  1  0
 27 31  1  0
 26 32  1  0
 25 33  1  0
 24 34  1  0
 23 35  1  0
 23 36  1  0
 13  4  1  0
 28 22  1  0
 13  8  1  0
M  END
>  <cnnaffinities>  (79) 
[5.09561, 5.01238, 4.88426]

>  <score>  (79) 
5.09561

>  <index>  (79) 
81

>  <Smiles>  (79) 
O=C(C(c1c(nc(c2c(c(c(c(c12)[H])[H])[H])[H])[H])[H])([H])[H])N1C(C(=C(C(=C(C1([H])[H])[H])[H])[H])[H])([H])[H]

>  <h>  (79) 
<NA>

>  <Training>  (79) 
True

>  <Success>  (79) 
True

>  <enamine_searched>  (79) 
False

>  <enamine_id>  (79) 
nan

$$$$

     RDKit          3D

 54 57  0  0  0  0  0  0  0  0999 V2000
  -10.7233    0.3780  -25.4254 C   0  0  0  0  0  0  0  0  0  0  0  0
   -9.8355   -0.6018  -24.9303 O   0  0  0  0  0  0  0  0  0  0  0  0
   -8.5005   -0.5213  -25.2213 C   0  0  0  0  0  0  0  0  0  0  0  0
   -7.9447    0.5082  -25.9869 C   0  0  0  0  0  0  0  0  0  0  0  0
   -6.5730    0.5263  -26.2378 C   0  0  0  0  0  0  0  0  0  0  0  0
   -5.7485   -0.4658  -25.7286 C   0  0  0  0  0  0  0  0  0  0  0  0
   -6.3154   -1.4740  -24.9544 C   0  0  0  0  0  0  0  0  0  0  0  0
   -7.6786   -1.5425  -24.6897 C   0  0  0  0  0  0  0  0  0  0  0  0
   -8.2980   -2.6712  -23.8509 C   0  0  1  0  0  0  0  0  0  0  0  0
   -9.1404   -3.6543  -24.6923 C   0  0  0  0  0  0  0  0  0  0  0  0
   -8.4102   -4.8647  -25.2725 C   0  0  1  0  0  0  0  0  0  0  0  0
   -7.5085   -4.5376  -26.4626 C   0  0  0  0  0  0  0  0  0  0  0  0
   -6.6828   -3.8746  -26.1904 H   0  0  0  0  0  0  0  0  0  0  0  0
   -7.0750   -5.4493  -26.8902 H   0  0  0  0  0  0  0  0  0  0  0  0
   -8.0719   -4.0326  -27.2544 H   0  0  0  0  0  0  0  0  0  0  0  0
   -7.6721   -5.5498  -24.1298 C   0  0  0  0  0  0  0  0  0  0  0  0
   -6.7090   -4.6181  -23.4097 C   0  0  0  0  0  0  0  0  0  0  0  0
   -7.3486   -3.3691  -22.9693 N   0  0  0  0  0  0  0  0  0  0  0  0
   -6.7433   -2.7416  -21.8866 C   0  0  0  0  0  0  0  0  0  0  0  0
   -5.7306   -3.1983  -21.3857 O   0  0  0  0  0  0  0  0  0  0  0  0
   -7.4013   -1.4735  -21.2822 C   0  0  0  0  0  0  0  0  0  0  0  0
   -6.5767   -0.8347  -20.1843 C   0  0  0  0  0  0  0  0  0  0  0  0
   -6.8713   -1.0488  -18.8630 C   0  0  0  0  0  0  0  0  0  0  0  0
   -6.1895   -0.5433  -17.7970 N   0  0  0  0  0  0  0  0  0  0  0  0
   -5.1601    0.2233  -18.0643 C   0  0  0  0  0  0  0  0  0  0  0  0
   -4.7222    0.5308  -19.3800 C   0  0  0  0  0  0  0  0  0  0  0  0
   -3.5949    1.3571  -19.6224 C   0  0  0  0  0  0  0  0  0  0  0  0
   -3.1944    1.6343  -20.9002 C   0  0  0  0  0  0  0  0  0  0  0  0
   -3.9078    1.0912  -21.9931 C   0  0  0  0  0  0  0  0  0  0  0  0
   -5.0040    0.2877  -21.7894 C   0  0  0  0  0  0  0  0  0  0  0  0
   -5.4454   -0.0138  -20.4758 C   0  0  0  0  0  0  0  0  0  0  0  0
   -5.5360   -0.1236  -22.6459 H   0  0  0  0  0  0  0  0  0  0  0  0
   -3.5848    1.3148  -23.0056 H   0  0  0  0  0  0  0  0  0  0  0  0
   -2.3321    2.2725  -21.0875 H   0  0  0  0  0  0  0  0  0  0  0  0
   -3.0583    1.7718  -18.7699 H   0  0  0  0  0  0  0  0  0  0  0  0
   -4.6046    0.6296  -17.2143 H   0  0  0  0  0  0  0  0  0  0  0  0
   -7.7200   -1.6718  -18.5852 H   0  0  0  0  0  0  0  0  0  0  0  0
   -7.6264   -0.7386  -22.0674 H   0  0  0  0  0  0  0  0  0  0  0  0
   -8.3718   -1.7757  -20.8624 H   0  0  0  0  0  0  0  0  0  0  0  0
   -6.3142   -5.1117  -22.5203 H   0  0  0  0  0  0  0  0  0  0  0  0
   -5.8294   -4.4354  -24.0460 H   0  0  0  0  0  0  0  0  0  0  0  0
   -8.4005   -5.9325  -23.4096 H   0  0  0  0  0  0  0  0  0  0  0  0
   -7.1267   -6.4211  -24.5078 H   0  0  0  0  0  0  0  0  0  0  0  0
   -9.1796   -5.5591  -25.6453 H   0  0  0  0  0  0  0  0  0  0  0  0
   -9.6150   -3.0913  -25.4969 H   0  0  0  0  0  0  0  0  0  0  0  0
   -9.9594   -4.0198  -24.0611 H   0  0  0  0  0  0  0  0  0  0  0  0
   -9.0163   -2.1788  -23.1897 H   0  0  0  0  0  0  0  0  0  0  0  0
   -5.6636   -2.2473  -24.5648 H   0  0  0  0  0  0  0  0  0  0  0  0
   -4.6753   -0.4615  -25.9134 H   0  0  0  0  0  0  0  0  0  0  0  0
   -6.1413    1.3281  -26.8283 H   0  0  0  0  0  0  0  0  0  0  0  0
   -8.5692    1.3016  -26.3914 H   0  0  0  0  0  0  0  0  0  0  0  0
  -11.7024    0.1089  -25.0300 H   0  0  0  0  0  0  0  0  0  0  0  0
  -10.7986    0.4129  -26.5173 H   0  0  0  0  0  0  0  0  0  0  0  0
  -10.4665    1.3968  -25.1131 H   0  0  0  0  0  0  0  0  0  0  0  0
  1  2  1  0
  2  3  1  0
  3  4  2  0
  4  5  1  0
  5  6  2  0
  6  7  1  0
  7  8  2  0
  8  9  1  0
  9 10  1  0
 10 11  1  0
 11 12  1  0
 12 13  1  0
 12 14  1  0
 12 15  1  0
 11 16  1  0
 16 17  1  0
 17 18  1  0
 18 19  1  0
 19 20  2  0
 19 21  1  0
 21 22  1  0
 22 23  2  0
 23 24  1  0
 24 25  2  0
 25 26  1  0
 26 27  2  0
 27 28  1  0
 28 29  2  0
 29 30  1  0
 30 31  2  0
 30 32  1  0
 29 33  1  0
 28 34  1  0
 27 35  1  0
 25 36  1  0
 23 37  1  0
 21 38  1  0
 21 39  1  0
 17 40  1  0
 17 41  1  0
 16 42  1  0
 16 43  1  0
 11 44  1  6
 10 45  1  0
 10 46  1  0
  9 47  1  1
  7 48  1  0
  6 49  1  0
  5 50  1  0
  4 51  1  0
  1 52  1  0
  1 53  1  0
  1 54  1  0
  8  3  1  0
 18  9  1  0
 31 22  1  0
 31 26  1  0
M  END
>  <cnnaffinities>  (80) 
[5.78848]

>  <score>  (80) 
5.78848

>  <index>  (80) 
82

>  <Smiles>  (80) 
C(Oc1c(c(c(c(c1[C@]1(C([C@@](C([H])([H])[H])(C(C(N1C(=O)C(c1c(nc(c2c(c(c(c(c12)[H])[H])[H])[H])[H])[H])([H])[H])([H])[H])([H])[H])[H])([H])[H])[H])[H])[H])[H])[H])([H])([H])[H]

>  <h>  (80) 
<NA>

>  <Training>  (80) 
True

>  <Success>  (80) 
True

>  <enamine_searched>  (80) 
False

>  <enamine_id>  (80) 
nan

$$$$

     RDKit          3D

 46 50  0  0  0  0  0  0  0  0999 V2000
   -3.6215   -1.0061  -25.4595 N   0  0  0  0  0  0  0  0  0  0  0  0
   -4.5399   -2.0040  -26.4106 S   0  0  0  0  0  0  0  0  0  0  0  0
   -4.2919   -3.3417  -25.8932 O   0  0  0  0  0  0  0  0  0  0  0  0
   -4.2746   -1.6403  -27.7883 O   0  0  0  0  0  0  0  0  0  0  0  0
   -6.2284   -1.5734  -26.0950 C   0  0  0  0  0  0  0  0  0  0  0  0
   -6.9807   -0.9819  -27.1113 C   0  0  0  0  0  0  0  0  0  0  0  0
   -8.2973   -0.6399  -26.8575 C   0  0  0  0  0  0  0  0  0  0  0  0
   -8.8465   -0.8934  -25.5968 C   0  0  0  0  0  0  0  0  0  0  0  0
   -8.0847   -1.4830  -24.5778 C   0  0  0  0  0  0  0  0  0  0  0  0
   -6.7629   -1.8260  -24.8400 C   0  0  0  0  0  0  0  0  0  0  0  0
   -6.1643   -2.3000  -24.0614 H   0  0  0  0  0  0  0  0  0  0  0  0
   -8.6618   -1.7307  -23.1936 C   0  0  1  0  0  0  0  0  0  0  0  0
  -10.1925   -1.7096  -23.2919 C   0  0  0  0  0  0  0  0  0  0  0  0
  -10.5945   -0.4802  -24.0884 C   0  0  0  0  0  0  0  0  0  0  0  0
  -10.1637   -0.5926  -25.4428 O   0  0  0  0  0  0  0  0  0  0  0  0
  -10.0863    0.3782  -23.6421 H   0  0  0  0  0  0  0  0  0  0  0  0
  -11.6754   -0.3146  -24.1333 H   0  0  0  0  0  0  0  0  0  0  0  0
  -10.6211   -1.7378  -22.2867 H   0  0  0  0  0  0  0  0  0  0  0  0
  -10.4939   -2.6175  -23.8205 H   0  0  0  0  0  0  0  0  0  0  0  0
   -8.1785   -2.9565  -22.5860 N   0  0  0  0  0  0  0  0  0  0  0  0
   -7.3290   -2.7698  -21.5362 C   0  0  0  0  0  0  0  0  0  0  0  0
   -6.6074   -3.5711  -20.9885 O   0  0  0  0  0  0  0  0  0  0  0  0
   -7.4004   -1.3996  -21.2254 N   0  0  0  0  0  0  0  0  0  0  0  0
   -6.6084   -0.8144  -20.2037 C   0  0  0  0  0  0  0  0  0  0  0  0
   -6.9177   -1.0660  -18.8903 C   0  0  0  0  0  0  0  0  0  0  0  0
   -6.2345   -0.5609  -17.8333 N   0  0  0  0  0  0  0  0  0  0  0  0
   -5.2028    0.2039  -18.1010 C   0  0  0  0  0  0  0  0  0  0  0  0
   -4.7547    0.5108  -19.4193 C   0  0  0  0  0  0  0  0  0  0  0  0
   -3.6162    1.3317  -19.6420 C   0  0  0  0  0  0  0  0  0  0  0  0
   -3.1898    1.5928  -20.9164 C   0  0  0  0  0  0  0  0  0  0  0  0
   -3.8731    1.0382  -22.0256 C   0  0  0  0  0  0  0  0  0  0  0  0
   -4.9802    0.2469  -21.8393 C   0  0  0  0  0  0  0  0  0  0  0  0
   -5.4625   -0.0183  -20.5188 C   0  0  0  0  0  0  0  0  0  0  0  0
   -5.5028   -0.1691  -22.7011 H   0  0  0  0  0  0  0  0  0  0  0  0
   -3.5248    1.2561  -23.0348 H   0  0  0  0  0  0  0  0  0  0  0  0
   -2.3299    2.2359  -21.0835 H   0  0  0  0  0  0  0  0  0  0  0  0
   -3.1087    1.7475  -18.7750 H   0  0  0  0  0  0  0  0  0  0  0  0
   -4.6529    0.6187  -17.2549 H   0  0  0  0  0  0  0  0  0  0  0  0
   -7.7648   -1.7072  -18.6590 H   0  0  0  0  0  0  0  0  0  0  0  0
   -8.1320   -0.6975  -22.1786 C   0  0  0  0  0  0  0  0  0  0  0  0
   -8.2809    0.5000  -22.1920 O   0  0  0  0  0  0  0  0  0  0  0  0
   -8.3540   -3.8757  -22.9554 H   0  0  0  0  0  0  0  0  0  0  0  0
   -8.9258   -0.1658  -27.6060 H   0  0  0  0  0  0  0  0  0  0  0  0
   -6.5134   -0.8034  -28.0766 H   0  0  0  0  0  0  0  0  0  0  0  0
   -3.7521   -0.0146  -25.6323 H   0  0  0  0  0  0  0  0  0  0  0  0
   -3.7212   -1.2289  -24.4719 H   0  0  0  0  0  0  0  0  0  0  0  0
  1  2  1  0
  2  3  2  0
  2  4  2  0
  2  5  1  0
  5  6  2  0
  6  7  1  0
  7  8  2  0
  8  9  1  0
  9 10  2  0
 10 11  1  0
  9 12  1  0
 12 13  1  0
 13 14  1  0
 14 15  1  0
 14 16  1  0
 14 17  1  0
 13 18  1  0
 13 19  1  0
 12 20  1  1
 20 21  1  0
 21 22  2  0
 21 23  1  0
 23 24  1  0
 24 25  2  0
 25 26  1  0
 26 27  2  0
 27 28  1  0
 28 29  2  0
 29 30  1  0
 30 31  2  0
 31 32  1  0
 32 33  2  0
 32 34  1  0
 31 35  1  0
 30 36  1  0
 29 37  1  0
 27 38  1  0
 25 39  1  0
 23 40  1  0
 40 41  2  0
 20 42  1  0
  7 43  1  0
  6 44  1  0
  1 45  1  0
  1 46  1  0
 10  5  1  0
 40 12  1  0
 15  8  1  0
 33 24  1  0
 33 28  1  0
M  END
>  <cnnaffinities>  (81) 
[5.38785]

>  <score>  (81) 
5.38785

>  <index>  (81) 
83

>  <Smiles>  (81) 
N(S(=O)(=O)c1c(c(c2c(c1[H])[C@@]1(C(C(O2)([H])[H])([H])[H])N(C(=O)N(c2c(nc(c3c(c(c(c(c23)[H])[H])[H])[H])[H])[H])C1=O)[H])[H])[H])([H])[H]

>  <h>  (81) 
<NA>

>  <Training>  (81) 
True

>  <Success>  (81) 
True

>  <enamine_searched>  (81) 
False

>  <enamine_id>  (81) 
nan

$$$$

     RDKit          3D

 63 68  0  0  0  0  0  0  0  0999 V2000
   -8.0310   -4.0655  -23.8242 C   0  0  0  0  0  0  0  0  0  0  0  0
   -8.1838   -3.2195  -22.5618 C   0  0  1  0  0  0  0  0  0  0  0  0
   -6.8591   -2.6221  -22.0404 C   0  0  0  0  0  0  0  0  0  0  0  0
   -7.3254   -1.5355  -21.2012 N   0  0  0  0  0  0  0  0  0  0  0  0
   -6.5939   -0.8990  -20.1676 C   0  0  0  0  0  0  0  0  0  0  0  0
   -6.9644   -1.0651  -18.8539 C   0  0  0  0  0  0  0  0  0  0  0  0
   -6.2936   -0.5319  -17.8049 N   0  0  0  0  0  0  0  0  0  0  0  0
   -5.2480    0.2164  -18.0713 C   0  0  0  0  0  0  0  0  0  0  0  0
   -4.7837    0.5082  -19.3853 C   0  0  0  0  0  0  0  0  0  0  0  0
   -3.6684    1.3521  -19.6337 C   0  0  0  0  0  0  0  0  0  0  0  0
   -3.2838    1.6369  -20.9149 C   0  0  0  0  0  0  0  0  0  0  0  0
   -3.9981    1.1026  -22.0065 C   0  0  0  0  0  0  0  0  0  0  0  0
   -5.0724    0.2693  -21.7970 C   0  0  0  0  0  0  0  0  0  0  0  0
   -5.4801   -0.0602  -20.4761 C   0  0  0  0  0  0  0  0  0  0  0  0
   -5.6531   -0.0724  -22.6487 H   0  0  0  0  0  0  0  0  0  0  0  0
   -3.7142    1.3612  -23.0206 H   0  0  0  0  0  0  0  0  0  0  0  0
   -2.4420    2.2977  -21.0965 H   0  0  0  0  0  0  0  0  0  0  0  0
   -3.1468    1.7749  -18.7819 H   0  0  0  0  0  0  0  0  0  0  0  0
   -4.7051    0.6363  -17.2241 H   0  0  0  0  0  0  0  0  0  0  0  0
   -7.8351   -1.6663  -18.5977 H   0  0  0  0  0  0  0  0  0  0  0  0
   -8.5991   -1.1127  -21.5087 C   0  0  0  0  0  0  0  0  0  0  0  0
   -9.1136   -0.1517  -20.9736 O   0  0  0  0  0  0  0  0  0  0  0  0
   -9.1687   -2.0086  -22.6493 C   0  0  1  0  0  0  0  0  0  0  0  0
   -8.9901   -1.2892  -24.0177 C   0  0  0  0  0  0  0  0  0  0  0  0
   -9.9622   -0.2337  -24.2475 N   0  0  0  0  0  0  0  0  0  0  0  0
   -9.4674    0.9377  -24.9747 C   0  0  0  0  0  0  0  0  0  0  0  0
   -8.3811    1.5974  -24.1262 C   0  0  0  0  0  0  0  0  0  0  0  0
   -7.1927    1.5332  -24.4125 O   0  0  0  0  0  0  0  0  0  0  0  0
   -8.8439    2.1713  -22.9876 N   0  0  0  0  0  0  0  0  0  0  0  0
   -7.9429    2.5387  -21.9197 C   0  0  0  0  0  0  0  0  0  0  0  0
   -7.4251    3.9575  -21.9720 C   0  0  0  0  0  0  0  0  0  0  0  0
   -8.4274    4.8939  -22.0591 F   0  0  0  0  0  0  0  0  0  0  0  0
   -6.1456    4.3345  -22.6343 C   0  0  0  0  0  0  0  0  0  0  0  0
   -6.2505    4.3294  -21.1213 C   0  0  0  0  0  0  0  0  0  0  0  0
   -5.7462    3.5211  -20.5836 H   0  0  0  0  0  0  0  0  0  0  0  0
   -6.3085    5.2922  -20.6171 H   0  0  0  0  0  0  0  0  0  0  0  0
   -5.5690    3.5489  -23.1170 H   0  0  0  0  0  0  0  0  0  0  0  0
   -6.1130    5.3048  -23.1168 H   0  0  0  0  0  0  0  0  0  0  0  0
   -8.4631    2.3621  -20.9756 H   0  0  0  0  0  0  0  0  0  0  0  0
   -7.0818    1.8634  -21.9498 H   0  0  0  0  0  0  0  0  0  0  0  0
   -9.8275    2.1077  -22.7677 H   0  0  0  0  0  0  0  0  0  0  0  0
   -9.0064    0.6611  -25.9298 H   0  0  0  0  0  0  0  0  0  0  0  0
  -10.2972    1.6237  -25.1638 H   0  0  0  0  0  0  0  0  0  0  0  0
  -11.3000   -0.5231  -24.1559 C   0  0  0  0  0  0  0  0  0  0  0  0
  -12.1577    0.0538  -24.8059 O   0  0  0  0  0  0  0  0  0  0  0  0
  -11.6430   -1.5616  -23.1223 C   0  0  0  0  0  0  0  0  0  0  0  0
  -13.0000   -1.6853  -22.8125 C   0  0  0  0  0  0  0  0  0  0  0  0
  -13.4331   -2.5885  -21.8682 C   0  0  0  0  0  0  0  0  0  0  0  0
  -12.4757   -3.4126  -21.2955 C   0  0  0  0  0  0  0  0  0  0  0  0
  -12.9003   -4.2919  -20.3693 F   0  0  0  0  0  0  0  0  0  0  0  0
  -11.1228   -3.3416  -21.6029 C   0  0  0  0  0  0  0  0  0  0  0  0
  -10.6583   -2.3348  -22.4747 C   0  0  0  0  0  0  0  0  0  0  0  0
  -10.4800   -4.0602  -21.0965 H   0  0  0  0  0  0  0  0  0  0  0  0
  -14.4825   -2.6878  -21.6023 H   0  0  0  0  0  0  0  0  0  0  0  0
  -13.6952   -1.0366  -23.3331 H   0  0  0  0  0  0  0  0  0  0  0  0
   -9.0952   -2.0437  -24.8106 H   0  0  0  0  0  0  0  0  0  0  0  0
   -8.0023   -0.8202  -24.0938 H   0  0  0  0  0  0  0  0  0  0  0  0
   -6.2319   -2.2522  -22.8695 H   0  0  0  0  0  0  0  0  0  0  0  0
   -6.2625   -3.3440  -21.4692 H   0  0  0  0  0  0  0  0  0  0  0  0
   -8.5527   -3.8620  -21.7585 H   0  0  0  0  0  0  0  0  0  0  0  0
   -7.5034   -3.5090  -24.6089 H   0  0  0  0  0  0  0  0  0  0  0  0
   -7.4550   -4.9775  -23.6281 H   0  0  0  0  0  0  0  0  0  0  0  0
   -9.0093   -4.3565  -24.2279 H   0  0  0  0  0  0  0  0  0  0  0  0
  1  2  1  0
  2  3  1  0
  3  4  1  0
  4  5  1  0
  5  6  2  0
  6  7  1  0
  7  8  2  0
  8  9  1  0
  9 10  2  0
 10 11  1  0
 11 12  2  0
 12 13  1  0
 13 14  2  0
 13 15  1  0
 12 16  1  0
 11 17  1  0
 10 18  1  0
  8 19  1  0
  6 20  1  0
  4 21  1  0
 21 22  2  0
 21 23  1  0
 23 24  1  6
 24 25  1  0
 25 26  1  0
 26 27  1  0
 27 28  2  0
 27 29  1  0
 29 30  1  0
 30 31  1  0
 31 32  1  0
 31 33  1  0
 33 34  1  0
 34 35  1  0
 34 36  1  0
 33 37  1  0
 33 38  1  0
 30 39  1  0
 30 40  1  0
 29 41  1  0
 26 42  1  0
 26 43  1  0
 25 44  1  0
 44 45  2  0
 44 46  1  0
 46 47  2  0
 47 48  1  0
 48 49  2  0
 49 50  1  0
 49 51  1  0
 51 52  2  0
 51 53  1  0
 48 54  1  0
 47 55  1  0
 24 56  1  0
 24 57  1  0
  3 58  1  0
  3 59  1  0
  2 60  1  1
  1 61  1  0
  1 62  1  0
  1 63  1  0
 23  2  1  0
 34 31  1  0
 52 46  1  0
 14  5  1  0
 52 23  1  0
 14  9  1  0
M  END
>  <cnnaffinities>  (82) 
[6.88896]

>  <score>  (82) 
6.88896

>  <index>  (82) 
84

>  <Smiles>  (82) 
C([C@]1(C(N(c2c(nc(c3c(c(c(c(c23)[H])[H])[H])[H])[H])[H])C(=O)[C@]21C(N(C(C(=O)N(C(C1(F)C(C1([H])[H])([H])[H])([H])[H])[H])([H])[H])C(=O)c1c(c(c(F)c(c21)[H])[H])[H])([H])[H])([H])[H])[H])([H])([H])[H]

>  <h>  (82) 
<NA>

>  <Training>  (82) 
True

>  <Success>  (82) 
True

>  <enamine_searched>  (82) 
False

>  <enamine_id>  (82) 
nan

$$$$

     RDKit          3D

 57 62  0  0  0  0  0  0  0  0999 V2000
   -9.2681    1.0553  -29.3093 C   0  0  0  0  0  0  0  0  0  0  0  0
   -9.1101    1.4097  -27.9177 N   0  0  0  0  0  0  0  0  0  0  0  0
   -8.2481    0.6779  -27.1619 C   0  0  0  0  0  0  0  0  0  0  0  0
   -7.4971   -0.1707  -27.6142 O   0  0  0  0  0  0  0  0  0  0  0  0
   -8.3205    0.9891  -25.6731 C   0  0  0  0  0  0  0  0  0  0  0  0
   -9.1154   -0.0080  -24.9960 N   0  0  0  0  0  0  0  0  0  0  0  0
   -8.5084   -1.2526  -24.5706 C   0  0  0  0  0  0  0  0  0  0  0  0
   -8.9072   -1.6097  -23.1182 C   0  0  2  0  0  0  0  0  0  0  0  0
   -8.2266   -0.6414  -22.1174 C   0  0  0  0  0  0  0  0  0  0  0  0
   -8.3542    0.5616  -22.0765 O   0  0  0  0  0  0  0  0  0  0  0  0
   -7.4087   -1.3682  -21.2670 N   0  0  0  0  0  0  0  0  0  0  0  0
   -6.6264   -0.8011  -20.2262 C   0  0  0  0  0  0  0  0  0  0  0  0
   -6.9200   -1.0662  -18.9095 C   0  0  0  0  0  0  0  0  0  0  0  0
   -6.2405   -0.5695  -17.8442 N   0  0  0  0  0  0  0  0  0  0  0  0
   -5.2097    0.2022  -18.0954 C   0  0  0  0  0  0  0  0  0  0  0  0
   -4.7598    0.5199  -19.4086 C   0  0  0  0  0  0  0  0  0  0  0  0
   -3.6233    1.3459  -19.6204 C   0  0  0  0  0  0  0  0  0  0  0  0
   -3.1894    1.6146  -20.8899 C   0  0  0  0  0  0  0  0  0  0  0  0
   -3.8626    1.0614  -22.0011 C   0  0  0  0  0  0  0  0  0  0  0  0
   -4.9655    0.2622  -21.8216 C   0  0  0  0  0  0  0  0  0  0  0  0
   -5.4631   -0.0089  -20.5151 C   0  0  0  0  0  0  0  0  0  0  0  0
   -5.4595   -0.1736  -22.6838 H   0  0  0  0  0  0  0  0  0  0  0  0
   -3.5055    1.2721  -23.0051 H   0  0  0  0  0  0  0  0  0  0  0  0
   -2.3272    2.2557  -21.0528 H   0  0  0  0  0  0  0  0  0  0  0  0
   -3.1145    1.7574  -18.7523 H   0  0  0  0  0  0  0  0  0  0  0  0
   -4.6608    0.6070  -17.2434 H   0  0  0  0  0  0  0  0  0  0  0  0
   -7.7745   -1.6927  -18.6584 H   0  0  0  0  0  0  0  0  0  0  0  0
   -7.5981   -2.7919  -21.3765 C   0  0  0  0  0  0  0  0  0  0  0  0
   -8.3712   -2.9800  -22.6683 C   0  0  0  0  0  0  0  0  0  0  0  0
   -9.2172   -4.2091  -22.8222 C   0  0  0  0  0  0  0  0  0  0  0  0
   -7.9761   -4.0554  -23.6448 C   0  0  0  0  0  0  0  0  0  0  0  0
   -7.1174   -4.6883  -23.4373 H   0  0  0  0  0  0  0  0  0  0  0  0
   -8.1035   -3.8341  -24.6988 H   0  0  0  0  0  0  0  0  0  0  0  0
   -9.2420   -4.9244  -22.0041 H   0  0  0  0  0  0  0  0  0  0  0  0
  -10.1735   -4.0813  -23.3180 H   0  0  0  0  0  0  0  0  0  0  0  0
   -6.6376   -3.3104  -21.3667 H   0  0  0  0  0  0  0  0  0  0  0  0
   -8.1862   -3.1612  -20.5346 H   0  0  0  0  0  0  0  0  0  0  0  0
  -10.4308   -1.4870  -23.0753 C   0  0  0  0  0  0  0  0  0  0  0  0
  -11.1436   -2.1634  -22.0868 C   0  0  0  0  0  0  0  0  0  0  0  0
  -12.5245   -2.1256  -22.0608 C   0  0  0  0  0  0  0  0  0  0  0  0
  -13.3076   -3.0965  -20.8468 Cl  0  0  0  0  0  0  0  0  0  0  0  0
  -13.2600   -1.3759  -22.9809 C   0  0  0  0  0  0  0  0  0  0  0  0
  -12.5571   -0.6760  -23.9491 C   0  0  0  0  0  0  0  0  0  0  0  0
  -11.1650   -0.7372  -24.0043 C   0  0  0  0  0  0  0  0  0  0  0  0
  -10.4732    0.0742  -25.0466 C   0  0  0  0  0  0  0  0  0  0  0  0
  -11.0720    0.8069  -25.8349 O   0  0  0  0  0  0  0  0  0  0  0  0
  -13.0460   -0.0196  -24.6621 H   0  0  0  0  0  0  0  0  0  0  0  0
  -14.3458   -1.3524  -22.9416 H   0  0  0  0  0  0  0  0  0  0  0  0
  -10.6076   -2.7815  -21.3790 H   0  0  0  0  0  0  0  0  0  0  0  0
   -7.4289   -1.1817  -24.7026 H   0  0  0  0  0  0  0  0  0  0  0  0
   -8.8627   -2.0427  -25.2419 H   0  0  0  0  0  0  0  0  0  0  0  0
   -8.7380    1.9866  -25.4956 H   0  0  0  0  0  0  0  0  0  0  0  0
   -7.3148    0.9474  -25.2481 H   0  0  0  0  0  0  0  0  0  0  0  0
   -9.9174    1.7796  -27.4322 H   0  0  0  0  0  0  0  0  0  0  0  0
   -9.5348   -0.0025  -29.4235 H   0  0  0  0  0  0  0  0  0  0  0  0
  -10.0451    1.6816  -29.7540 H   0  0  0  0  0  0  0  0  0  0  0  0
   -8.3254    1.2281  -29.8336 H   0  0  0  0  0  0  0  0  0  0  0  0
  1  2  1  0
  2  3  1  0
  3  4  2  0
  3  5  1  0
  5  6  1  0
  6  7  1  0
  8  7  1  6
  8  9  1  0
  9 10  2  0
  9 11  1  0
 11 12  1  0
 12 13  2  0
 13 14  1  0
 14 15  2  0
 15 16  1  0
 16 17  2  0
 17 18  1  0
 18 19  2  0
 19 20  1  0
 20 21  2  0
 20 22  1  0
 19 23  1  0
 18 24  1  0
 17 25  1  0
 15 26  1  0
 13 27  1  0
 11 28  1  0
 28 29  1  0
 29 30  1  0
 30 31  1  0
 31 32  1  0
 31 33  1  0
 30 34  1  0
 30 35  1  0
 28 36  1  0
 28 37  1  0
  8 38  1  0
 38 39  2  0
 39 40  1  0
 40 41  1  0
 40 42  2  0
 42 43  1  0
 43 44  2  0
 44 45  1  0
 45 46  2  0
 43 47  1  0
 42 48  1  0
 39 49  1  0
  7 50  1  0
  7 51  1  0
  5 52  1  0
  5 53  1  0
  2 54  1  0
  1 55  1  0
  1 56  1  0
  1 57  1  0
 45  6  1  0
 29  8  1  0
 44 38  1  0
 21 12  1  0
 31 29  1  0
 21 16  1  0
M  END
>  <cnnaffinities>  (83) 
[6.48373]

>  <score>  (83) 
6.48373

>  <index>  (83) 
85

>  <Smiles>  (83) 
C(N(C(=O)C(N1C([C@@]2(C(=O)N(c3c(nc(c4c(c(c(c(c34)[H])[H])[H])[H])[H])[H])C(C32C(C3([H])[H])([H])[H])([H])[H])c2c(c(Cl)c(c(c2C1=O)[H])[H])[H])([H])[H])([H])[H])[H])([H])([H])[H]

>  <h>  (83) 
<NA>

>  <Training>  (83) 
True

>  <Success>  (83) 
True

>  <enamine_searched>  (83) 
False

>  <enamine_id>  (83) 
nan

$$$$

     RDKit          3D

 43 45  0  0  0  0  0  0  0  0999 V2000
   -8.5442   -5.5614  -25.7846 C   0  0  0  0  0  0  0  0  0  0  0  0
   -9.0568   -5.4437  -24.3480 C   0  0  1  0  0  0  0  0  0  0  0  0
   -8.0199   -5.8732  -23.3143 C   0  0  0  0  0  0  0  0  0  0  0  0
   -6.9334   -4.8294  -23.0968 C   0  0  0  0  0  0  0  0  0  0  0  0
   -7.5149   -3.5419  -22.7119 N   0  0  0  0  0  0  0  0  0  0  0  0
   -6.7554   -2.7469  -21.8638 C   0  0  0  0  0  0  0  0  0  0  0  0
   -5.6228   -3.0643  -21.5479 O   0  0  0  0  0  0  0  0  0  0  0  0
   -7.4116   -1.4745  -21.2698 C   0  0  0  0  0  0  0  0  0  0  0  0
   -6.5794   -0.8306  -20.1830 C   0  0  0  0  0  0  0  0  0  0  0  0
   -6.8732   -1.0466  -18.8624 C   0  0  0  0  0  0  0  0  0  0  0  0
   -6.1892   -0.5440  -17.7982 N   0  0  0  0  0  0  0  0  0  0  0  0
   -5.1593    0.2229  -18.0651 C   0  0  0  0  0  0  0  0  0  0  0  0
   -4.7226    0.5309  -19.3804 C   0  0  0  0  0  0  0  0  0  0  0  0
   -3.5944    1.3575  -19.6211 C   0  0  0  0  0  0  0  0  0  0  0  0
   -3.1912    1.6337  -20.8999 C   0  0  0  0  0  0  0  0  0  0  0  0
   -3.9019    1.0897  -21.9925 C   0  0  0  0  0  0  0  0  0  0  0  0
   -4.9981    0.2880  -21.7852 C   0  0  0  0  0  0  0  0  0  0  0  0
   -5.4449   -0.0130  -20.4733 C   0  0  0  0  0  0  0  0  0  0  0  0
   -5.5236   -0.1326  -22.6360 H   0  0  0  0  0  0  0  0  0  0  0  0
   -3.5772    1.3090  -23.0052 H   0  0  0  0  0  0  0  0  0  0  0  0
   -2.3296    2.2708  -21.0856 H   0  0  0  0  0  0  0  0  0  0  0  0
   -3.0600    1.7720  -18.7689 H   0  0  0  0  0  0  0  0  0  0  0  0
   -4.6053    0.6290  -17.2156 H   0  0  0  0  0  0  0  0  0  0  0  0
   -7.7205   -1.6704  -18.5851 H   0  0  0  0  0  0  0  0  0  0  0  0
   -7.6210   -0.7478  -22.0679 H   0  0  0  0  0  0  0  0  0  0  0  0
   -8.3917   -1.7509  -20.8547 H   0  0  0  0  0  0  0  0  0  0  0  0
   -8.5395   -2.9953  -23.6126 C   0  0  1  0  0  0  0  0  0  0  0  0
   -7.9408   -2.2906  -24.8401 C   0  0  0  0  0  0  0  0  0  0  0  0
   -8.7280   -1.9762  -25.5347 H   0  0  0  0  0  0  0  0  0  0  0  0
   -7.2483   -2.9313  -25.3934 H   0  0  0  0  0  0  0  0  0  0  0  0
   -7.3900   -1.3888  -24.5498 H   0  0  0  0  0  0  0  0  0  0  0  0
   -9.5893   -4.0624  -23.9665 C   0  0  0  0  0  0  0  0  0  0  0  0
  -10.2121   -3.6817  -24.7831 H   0  0  0  0  0  0  0  0  0  0  0  0
  -10.2615   -4.1727  -23.1085 H   0  0  0  0  0  0  0  0  0  0  0  0
   -9.0794   -2.2357  -23.0428 H   0  0  0  0  0  0  0  0  0  0  0  0
   -6.2963   -4.7511  -23.9897 H   0  0  0  0  0  0  0  0  0  0  0  0
   -6.2732   -5.1428  -22.2908 H   0  0  0  0  0  0  0  0  0  0  0  0
   -7.5731   -6.8270  -23.6139 H   0  0  0  0  0  0  0  0  0  0  0  0
   -8.4995   -6.0464  -22.3501 H   0  0  0  0  0  0  0  0  0  0  0  0
   -9.9081   -6.1300  -24.2885 H   0  0  0  0  0  0  0  0  0  0  0  0
   -7.5978   -5.0383  -25.9418 H   0  0  0  0  0  0  0  0  0  0  0  0
   -8.3801   -6.6133  -26.0491 H   0  0  0  0  0  0  0  0  0  0  0  0
   -9.2677   -5.1517  -26.4969 H   0  0  0  0  0  0  0  0  0  0  0  0
  1  2  1  0
  2  3  1  0
  3  4  1  0
  4  5  1  0
  5  6  1  0
  6  7  2  0
  6  8  1  0
  8  9  1  0
  9 10  2  0
 10 11  1  0
 11 12  2  0
 12 13  1  0
 13 14  2  0
 14 15  1  0
 15 16  2  0
 16 17  1  0
 17 18  2  0
 17 19  1  0
 16 20  1  0
 15 21  1  0
 14 22  1  0
 12 23  1  0
 10 24  1  0
  8 25  1  0
  8 26  1  0
  5 27  1  0
 27 28  1  0
 28 29  1  0
 28 30  1  0
 28 31  1  0
 27 32  1  0
 32 33  1  0
 32 34  1  0
 27 35  1  1
  4 36  1  0
  4 37  1  0
  3 38  1  0
  3 39  1  0
  2 40  1  6
  1 41  1  0
  1 42  1  0
  1 43  1  0
 32  2  1  0
 18  9  1  0
 18 13  1  0
M  END
>  <cnnaffinities>  (84) 
[5.1979, 5.21487]

>  <score>  (84) 
5.1979

>  <index>  (84) 
86

>  <Smiles>  (84) 
C([C@]1(C(C(N(C(=O)C(c2c(nc(c3c(c(c(c(c23)[H])[H])[H])[H])[H])[H])([H])[H])[C@@](C([H])([H])[H])(C1([H])[H])[H])([H])[H])([H])[H])[H])([H])([H])[H]

>  <h>  (84) 
<NA>

>  <Training>  (84) 
True

>  <Success>  (84) 
True

>  <enamine_searched>  (84) 
False

>  <enamine_id>  (84) 
nan

$$$$

     RDKit          3D

 59 64  0  0  0  0  0  0  0  0999 V2000
   -8.2443   -4.0399  -23.6049 C   0  0  0  0  0  0  0  0  0  0  0  0
   -8.4671   -2.9416  -22.5784 C   0  0  1  0  0  0  0  0  0  0  0  0
   -7.2911   -2.7294  -21.6237 C   0  0  0  0  0  0  0  0  0  0  0  0
   -7.4441   -1.3505  -21.2164 N   0  0  0  0  0  0  0  0  0  0  0  0
   -6.6386   -0.7912  -20.1983 C   0  0  0  0  0  0  0  0  0  0  0  0
   -6.9221   -1.0716  -18.8848 C   0  0  0  0  0  0  0  0  0  0  0  0
   -6.2374   -0.5791  -17.8255 N   0  0  0  0  0  0  0  0  0  0  0  0
   -5.2148    0.1995  -18.0924 C   0  0  0  0  0  0  0  0  0  0  0  0
   -4.7812    0.5274  -19.4098 C   0  0  0  0  0  0  0  0  0  0  0  0
   -3.6457    1.3502  -19.6294 C   0  0  0  0  0  0  0  0  0  0  0  0
   -3.2203    1.6194  -20.9007 C   0  0  0  0  0  0  0  0  0  0  0  0
   -3.9049    1.0763  -22.0100 C   0  0  0  0  0  0  0  0  0  0  0  0
   -5.0130    0.2850  -21.8242 C   0  0  0  0  0  0  0  0  0  0  0  0
   -5.4923    0.0046  -20.5104 C   0  0  0  0  0  0  0  0  0  0  0  0
   -5.5167   -0.1312  -22.6918 H   0  0  0  0  0  0  0  0  0  0  0  0
   -3.5475    1.2834  -23.0138 H   0  0  0  0  0  0  0  0  0  0  0  0
   -2.3503    2.2467  -21.0639 H   0  0  0  0  0  0  0  0  0  0  0  0
   -3.1299    1.7524  -18.7617 H   0  0  0  0  0  0  0  0  0  0  0  0
   -4.6585    0.6049  -17.2476 H   0  0  0  0  0  0  0  0  0  0  0  0
   -7.7688   -1.7180  -18.6576 H   0  0  0  0  0  0  0  0  0  0  0  0
   -8.2572   -0.6012  -22.0372 C   0  0  0  0  0  0  0  0  0  0  0  0
   -8.4755    0.5830  -21.8835 O   0  0  0  0  0  0  0  0  0  0  0  0
   -8.7802   -1.5329  -23.1647 C   0  0  1  0  0  0  0  0  0  0  0  0
   -7.9686   -1.2774  -24.4601 C   0  0  0  0  0  0  0  0  0  0  0  0
   -8.3100   -0.0064  -25.0707 N   0  0  0  0  0  0  0  0  0  0  0  0
   -7.3064    0.7669  -25.7785 C   0  0  0  0  0  0  0  0  0  0  0  0
   -7.1856    2.1743  -25.2594 C   0  0  0  0  0  0  0  0  0  0  0  0
   -6.9265    2.6760  -23.9948 C   0  0  0  0  0  0  0  0  0  0  0  0
   -6.8819    4.0756  -24.1716 C   0  0  0  0  0  0  0  0  0  0  0  0
   -7.1013    4.4122  -25.4367 N   0  0  0  0  0  0  0  0  0  0  0  0
   -7.2908    3.2525  -26.0797 N   0  0  0  0  0  0  0  0  0  0  0  0
   -7.5960    3.2930  -27.4989 C   0  0  0  0  0  0  0  0  0  0  0  0
   -7.6995    4.3498  -27.7439 H   0  0  0  0  0  0  0  0  0  0  0  0
   -6.7760    2.8722  -28.0926 H   0  0  0  0  0  0  0  0  0  0  0  0
   -8.5308    2.7670  -27.7161 H   0  0  0  0  0  0  0  0  0  0  0  0
   -6.6997    4.8632  -23.4475 H   0  0  0  0  0  0  0  0  0  0  0  0
   -6.8323    2.1228  -23.0632 H   0  0  0  0  0  0  0  0  0  0  0  0
   -6.3547    0.2417  -25.6694 H   0  0  0  0  0  0  0  0  0  0  0  0
   -7.5411    0.7808  -26.8497 H   0  0  0  0  0  0  0  0  0  0  0  0
   -9.6109    0.3246  -25.3215 C   0  0  0  0  0  0  0  0  0  0  0  0
   -9.9231    1.1845  -26.1371 O   0  0  0  0  0  0  0  0  0  0  0  0
  -10.6275   -0.4194  -24.5183 C   0  0  0  0  0  0  0  0  0  0  0  0
  -11.9750   -0.1786  -24.7992 C   0  0  0  0  0  0  0  0  0  0  0  0
  -12.9670   -0.7026  -23.9950 C   0  0  0  0  0  0  0  0  0  0  0  0
  -12.5716   -1.5277  -22.9459 C   0  0  0  0  0  0  0  0  0  0  0  0
  -13.5167   -2.0366  -22.1369 F   0  0  0  0  0  0  0  0  0  0  0  0
  -11.2559   -1.8658  -22.7106 C   0  0  0  0  0  0  0  0  0  0  0  0
  -10.2434   -1.2856  -23.4833 C   0  0  0  0  0  0  0  0  0  0  0  0
  -11.0445   -2.5653  -21.9081 H   0  0  0  0  0  0  0  0  0  0  0  0
  -14.0176   -0.4685  -24.1458 H   0  0  0  0  0  0  0  0  0  0  0  0
  -12.2109    0.4154  -25.6744 H   0  0  0  0  0  0  0  0  0  0  0  0
   -6.8981   -1.2728  -24.2328 H   0  0  0  0  0  0  0  0  0  0  0  0
   -8.1569   -2.0981  -25.1668 H   0  0  0  0  0  0  0  0  0  0  0  0
   -6.3211   -2.9121  -22.1129 H   0  0  0  0  0  0  0  0  0  0  0  0
   -7.3399   -3.3814  -20.7518 H   0  0  0  0  0  0  0  0  0  0  0  0
   -9.3131   -3.2276  -21.9500 H   0  0  0  0  0  0  0  0  0  0  0  0
   -9.0784   -4.0812  -24.3133 H   0  0  0  0  0  0  0  0  0  0  0  0
   -7.3240   -3.8590  -24.1711 H   0  0  0  0  0  0  0  0  0  0  0  0
   -8.1525   -5.0121  -23.1163 H   0  0  0  0  0  0  0  0  0  0  0  0
  1  2  1  0
  2  3  1  0
  3  4  1  0
  4  5  1  0
  5  6  2  0
  6  7  1  0
  7  8  2  0
  8  9  1  0
  9 10  2  0
 10 11  1  0
 11 12  2  0
 12 13  1  0
 13 14  2  0
 13 15  1  0
 12 16  1  0
 11 17  1  0
 10 18  1  0
  8 19  1  0
  6 20  1  0
  4 21  1  0
 21 22  2  0
 21 23  1  0
 23 24  1  6
 24 25  1  0
 25 26  1  0
 26 27  1  0
 27 28  2  0
 28 29  1  0
 29 30  2  0
 30 31  1  0
 31 32  1  0
 32 33  1  0
 32 34  1  0
 32 35  1  0
 29 36  1  0
 28 37  1  0
 26 38  1  0
 26 39  1  0
 25 40  1  0
 40 41  2  0
 40 42  1  0
 42 43  2  0
 43 44  1  0
 44 45  2  0
 45 46  1  0
 45 47  1  0
 47 48  2  0
 47 49  1  0
 44 50  1  0
 43 51  1  0
 24 52  1  0
 24 53  1  0
  3 54  1  0
  3 55  1  0
  2 56  1  1
  1 57  1  0
  1 58  1  0
  1 59  1  0
 23  2  1  0
 31 27  1  0
 48 42  1  0
 14  5  1  0
 48 23  1  0
 14  9  1  0
M  END
>  <cnnaffinities>  (85) 
[6.78818, 6.341, 6.98895, 6.60243, 7.0517]

>  <score>  (85) 
6.78818

>  <index>  (85) 
87

>  <Smiles>  (85) 
C([C@]1(C(N(c2c(nc(c3c(c(c(c(c23)[H])[H])[H])[H])[H])[H])C(=O)[C@]21C(N(C(c1c(c(nn1C([H])([H])[H])[H])[H])([H])[H])C(=O)c1c(c(c(F)c(c21)[H])[H])[H])([H])[H])([H])[H])[H])([H])([H])[H]

>  <h>  (85) 
<NA>

>  <Training>  (85) 
True

>  <Success>  (85) 
True

>  <enamine_searched>  (85) 
False

>  <enamine_id>  (85) 
nan

$$$$

     RDKit          3D

 40 42  0  0  0  0  0  0  0  0999 V2000
   -9.0134    0.3109  -21.0248 O   0  0  0  0  0  0  0  0  0  0  0  0
   -8.3016   -0.2885  -21.8023 C   0  0  0  0  0  0  0  0  0  0  0  0
   -7.4176   -1.4240  -21.2824 C   0  0  0  0  0  0  0  0  0  0  0  0
   -6.5589   -0.8473  -20.1758 C   0  0  0  0  0  0  0  0  0  0  0  0
   -6.8729   -1.0446  -18.8576 C   0  0  0  0  0  0  0  0  0  0  0  0
   -6.1928   -0.5361  -17.7959 N   0  0  0  0  0  0  0  0  0  0  0  0
   -5.1595    0.2235  -18.0655 C   0  0  0  0  0  0  0  0  0  0  0  0
   -4.7256    0.5361  -19.3809 C   0  0  0  0  0  0  0  0  0  0  0  0
   -3.6051    1.3677  -19.6245 C   0  0  0  0  0  0  0  0  0  0  0  0
   -3.2150    1.6614  -20.9010 C   0  0  0  0  0  0  0  0  0  0  0  0
   -3.9325    1.1293  -21.9942 C   0  0  0  0  0  0  0  0  0  0  0  0
   -5.0190    0.3177  -21.7868 C   0  0  0  0  0  0  0  0  0  0  0  0
   -5.4489   -0.0037  -20.4732 C   0  0  0  0  0  0  0  0  0  0  0  0
   -5.5494   -0.0918  -22.6407 H   0  0  0  0  0  0  0  0  0  0  0  0
   -3.6167    1.3609  -23.0092 H   0  0  0  0  0  0  0  0  0  0  0  0
   -2.3590    2.3106  -21.0820 H   0  0  0  0  0  0  0  0  0  0  0  0
   -3.0733    1.7758  -18.7680 H   0  0  0  0  0  0  0  0  0  0  0  0
   -4.6079    0.6280  -17.2137 H   0  0  0  0  0  0  0  0  0  0  0  0
   -7.7269   -1.6618  -18.5763 H   0  0  0  0  0  0  0  0  0  0  0  0
   -6.8209   -1.8639  -22.0924 H   0  0  0  0  0  0  0  0  0  0  0  0
   -8.0706   -2.1937  -20.8505 H   0  0  0  0  0  0  0  0  0  0  0  0
   -8.1690    0.0928  -23.1313 N   0  0  0  0  0  0  0  0  0  0  0  0
   -8.2662   -0.8168  -24.2642 C   0  0  0  0  0  0  0  0  0  0  0  0
   -7.2886   -0.4218  -25.3624 C   0  0  0  0  0  0  0  0  0  0  0  0
   -7.4937    1.0410  -25.7577 C   0  0  0  0  0  0  0  0  0  0  0  0
   -6.5111    1.4810  -26.8265 C   0  0  0  0  0  0  0  0  0  0  0  0
   -6.6558    0.7086  -27.9455 F   0  0  0  0  0  0  0  0  0  0  0  0
   -5.2280    1.3137  -26.3796 F   0  0  0  0  0  0  0  0  0  0  0  0
   -6.6288    2.5331  -27.1290 H   0  0  0  0  0  0  0  0  0  0  0  0
   -7.4058    1.9381  -24.5251 C   0  0  0  0  0  0  0  0  0  0  0  0
   -8.3896    1.4943  -23.4512 C   0  0  0  0  0  0  0  0  0  0  0  0
   -9.4206    1.6889  -23.7798 H   0  0  0  0  0  0  0  0  0  0  0  0
   -8.2504    2.0532  -22.5258 H   0  0  0  0  0  0  0  0  0  0  0  0
   -7.5951    2.9766  -24.8084 H   0  0  0  0  0  0  0  0  0  0  0  0
   -6.3844    1.9076  -24.1252 H   0  0  0  0  0  0  0  0  0  0  0  0
   -8.4857    1.1481  -26.2186 H   0  0  0  0  0  0  0  0  0  0  0  0
   -6.2646   -0.5573  -24.9984 H   0  0  0  0  0  0  0  0  0  0  0  0
   -7.4110   -1.0701  -26.2349 H   0  0  0  0  0  0  0  0  0  0  0  0
   -9.2865   -0.8187  -24.6834 H   0  0  0  0  0  0  0  0  0  0  0  0
   -8.0770   -1.8255  -23.8975 H   0  0  0  0  0  0  0  0  0  0  0  0
  1  2  2  0
  2  3  1  0
  3  4  1  0
  4  5  2  0
  5  6  1  0
  6  7  2  0
  7  8  1  0
  8  9  2  0
  9 10  1  0
 10 11  2  0
 11 12  1  0
 12 13  2  0
 12 14  1  0
 11 15  1  0
 10 16  1  0
  9 17  1  0
  7 18  1  0
  5 19  1  0
  3 20  1  0
  3 21  1  0
  2 22  1  0
 22 23  1  0
 23 24  1  0
 24 25  1  0
 25 26  1  0
 26 27  1  0
 26 28  1  0
 26 29  1  0
 25 30  1  0
 30 31  1  0
 31 32  1  0
 31 33  1  0
 30 34  1  0
 30 35  1  0
 25 36  1  0
 24 37  1  0
 24 38  1  0
 23 39  1  0
 23 40  1  0
 13  4  1  0
 31 22  1  0
 13  8  1  0
M  END
>  <cnnaffinities>  (86) 
[5.10337, 5.07962, 5.08014, 4.99818, 4.99819, 4.98729, 5.17087, 5.01421, 5.19327, 5.19329, 5.19329, 5.21721, 5.07577, 5.0758]

>  <score>  (86) 
5.10337

>  <index>  (86) 
88

>  <Smiles>  (86) 
O=C(C(c1c(nc(c2c(c(c(c(c12)[H])[H])[H])[H])[H])[H])([H])[H])N1C(C(C(C(F)(F)[H])(C(C1([H])[H])([H])[H])[H])([H])[H])([H])[H]

>  <h>  (86) 
<NA>

>  <Training>  (86) 
True

>  <Success>  (86) 
True

>  <enamine_searched>  (86) 
False

>  <enamine_id>  (86) 
nan

$$$$

     RDKit          3D

 43 45  0  0  0  0  0  0  0  0999 V2000
   -9.8309    0.6076  -27.2148 C   0  0  0  0  0  0  0  0  0  0  0  0
   -8.7890    0.4543  -26.0990 C   0  0  0  0  0  0  0  0  0  0  0  0
   -7.4000    0.6950  -26.6875 C   0  0  0  0  0  0  0  0  0  0  0  0
   -6.6064    0.6034  -25.9427 H   0  0  0  0  0  0  0  0  0  0  0  0
   -7.3370    1.7023  -27.1118 H   0  0  0  0  0  0  0  0  0  0  0  0
   -7.1928   -0.0216  -27.4869 H   0  0  0  0  0  0  0  0  0  0  0  0
   -9.0864    1.4709  -24.9988 C   0  0  0  0  0  0  0  0  0  0  0  0
   -8.2798    1.2629  -23.7237 C   0  0  0  0  0  0  0  0  0  0  0  0
   -8.3527   -0.1138  -23.2454 N   0  0  0  0  0  0  0  0  0  0  0  0
   -8.3354   -0.3233  -21.8696 C   0  0  0  0  0  0  0  0  0  0  0  0
   -8.9919    0.3587  -21.1101 O   0  0  0  0  0  0  0  0  0  0  0  0
   -7.4252   -1.4174  -21.2806 C   0  0  0  0  0  0  0  0  0  0  0  0
   -6.5678   -0.8362  -20.1749 C   0  0  0  0  0  0  0  0  0  0  0  0
   -6.8757   -1.0416  -18.8547 C   0  0  0  0  0  0  0  0  0  0  0  0
   -6.1913   -0.5359  -17.7917 N   0  0  0  0  0  0  0  0  0  0  0  0
   -5.1570    0.2237  -18.0626 C   0  0  0  0  0  0  0  0  0  0  0  0
   -4.7225    0.5349  -19.3792 C   0  0  0  0  0  0  0  0  0  0  0  0
   -3.6001    1.3676  -19.6205 C   0  0  0  0  0  0  0  0  0  0  0  0
   -3.2092    1.6597  -20.8996 C   0  0  0  0  0  0  0  0  0  0  0  0
   -3.9294    1.1264  -21.9930 C   0  0  0  0  0  0  0  0  0  0  0  0
   -5.0196    0.3167  -21.7872 C   0  0  0  0  0  0  0  0  0  0  0  0
   -5.4466   -0.0039  -20.4709 C   0  0  0  0  0  0  0  0  0  0  0  0
   -5.5559   -0.0829  -22.6446 H   0  0  0  0  0  0  0  0  0  0  0  0
   -3.6149    1.3614  -23.0051 H   0  0  0  0  0  0  0  0  0  0  0  0
   -2.3537    2.3044  -21.0853 H   0  0  0  0  0  0  0  0  0  0  0  0
   -3.0637    1.7771  -18.7681 H   0  0  0  0  0  0  0  0  0  0  0  0
   -4.6031    0.6294  -17.2139 H   0  0  0  0  0  0  0  0  0  0  0  0
   -7.7285   -1.6605  -18.5811 H   0  0  0  0  0  0  0  0  0  0  0  0
   -6.8073   -1.8973  -22.0493 H   0  0  0  0  0  0  0  0  0  0  0  0
   -8.0808   -2.1834  -20.8474 H   0  0  0  0  0  0  0  0  0  0  0  0
   -8.0632   -1.1425  -24.2257 C   0  0  0  0  0  0  0  0  0  0  0  0
   -8.9044   -0.9470  -25.4897 C   0  0  0  0  0  0  0  0  0  0  0  0
   -9.9548   -1.1532  -25.2524 H   0  0  0  0  0  0  0  0  0  0  0  0
   -8.6124   -1.6876  -26.2384 H   0  0  0  0  0  0  0  0  0  0  0  0
   -6.9929   -1.1807  -24.4902 H   0  0  0  0  0  0  0  0  0  0  0  0
   -8.3117   -2.1042  -23.7795 H   0  0  0  0  0  0  0  0  0  0  0  0
   -8.6528    1.8940  -22.9180 H   0  0  0  0  0  0  0  0  0  0  0  0
   -7.2316    1.5632  -23.9027 H   0  0  0  0  0  0  0  0  0  0  0  0
  -10.1471    1.3860  -24.7906 H   0  0  0  0  0  0  0  0  0  0  0  0
   -8.9468    2.4909  -25.3727 H   0  0  0  0  0  0  0  0  0  0  0  0
   -9.7960    1.6109  -27.6564 H   0  0  0  0  0  0  0  0  0  0  0  0
  -10.8525    0.4468  -26.8480 H   0  0  0  0  0  0  0  0  0  0  0  0
   -9.6533   -0.1143  -28.0196 H   0  0  0  0  0  0  0  0  0  0  0  0
  1  2  1  0
  2  3  1  0
  3  4  1  0
  3  5  1  0
  3  6  1  0
  2  7  1  0
  7  8  1  0
  8  9  1  0
  9 10  1  0
 10 11  2  0
 10 12  1  0
 12 13  1  0
 13 14  2  0
 14 15  1  0
 15 16  2  0
 16 17  1  0
 17 18  2  0
 18 19  1  0
 19 20  2  0
 20 21  1  0
 21 22  2  0
 21 23  1  0
 20 24  1  0
 19 25  1  0
 18 26  1  0
 16 27  1  0
 14 28  1  0
 12 29  1  0
 12 30  1  0
  9 31  1  0
 31 32  1  0
 32 33  1  0
 32 34  1  0
 31 35  1  0
 31 36  1  0
  8 37  1  0
  8 38  1  0
  7 39  1  0
  7 40  1  0
  1 41  1  0
  1 42  1  0
  1 43  1  0
 32  2  1  0
 22 13  1  0
 22 17  1  0
M  END
>  <cnnaffinities>  (87) 
[5.14365, 5.11503, 5.11502, 5.11502, 5.115, 5.20287, 5.08081, 5.08082, 5.08083, 5.17938, 5.17936, 5.17937]

>  <score>  (87) 
5.14365

>  <index>  (87) 
89

>  <Smiles>  (87) 
C(C1(C([H])([H])[H])C(C(N(C(=O)C(c2c(nc(c3c(c(c(c(c23)[H])[H])[H])[H])[H])[H])([H])[H])C(C1([H])[H])([H])[H])([H])[H])([H])[H])([H])([H])[H]

>  <h>  (87) 
<NA>

>  <Training>  (87) 
True

>  <Success>  (87) 
True

>  <enamine_searched>  (87) 
False

>  <enamine_id>  (87) 
nan

$$$$

     RDKit          3D

 64 68  0  0  0  0  0  0  0  0999 V2000
   -8.1234    0.8892  -29.5254 C   0  0  0  0  0  0  0  0  0  0  0  0
   -8.2151   -0.3391  -28.7591 N   0  0  0  0  0  0  0  0  0  0  0  0
   -7.4808   -0.4444  -27.6141 C   0  0  0  0  0  0  0  0  0  0  0  0
   -6.7035    0.4160  -27.2338 O   0  0  0  0  0  0  0  0  0  0  0  0
   -7.6941   -1.7538  -26.8480 C   0  0  0  0  0  0  0  0  0  0  0  0
   -8.5572   -1.5690  -25.6930 N   0  0  0  0  0  0  0  0  0  0  0  0
   -8.0258   -1.0107  -24.4511 C   0  0  0  0  0  0  0  0  0  0  0  0
   -8.7044   -1.6295  -23.1953 C   0  0  2  0  0  0  0  0  0  0  0  0
   -8.3229   -0.7372  -21.9968 C   0  0  0  0  0  0  0  0  0  0  0  0
   -8.7076    0.3900  -21.7750 O   0  0  0  0  0  0  0  0  0  0  0  0
   -7.4080   -1.4199  -21.2105 N   0  0  0  0  0  0  0  0  0  0  0  0
   -6.6375   -0.7968  -20.1920 C   0  0  0  0  0  0  0  0  0  0  0  0
   -6.9265   -1.0577  -18.8780 C   0  0  0  0  0  0  0  0  0  0  0  0
   -6.2359   -0.5631  -17.8201 N   0  0  0  0  0  0  0  0  0  0  0  0
   -5.2099    0.2090  -18.0860 C   0  0  0  0  0  0  0  0  0  0  0  0
   -4.7768    0.5359  -19.4023 C   0  0  0  0  0  0  0  0  0  0  0  0
   -3.6442    1.3605  -19.6258 C   0  0  0  0  0  0  0  0  0  0  0  0
   -3.2318    1.6375  -20.8987 C   0  0  0  0  0  0  0  0  0  0  0  0
   -3.9266    1.0991  -22.0045 C   0  0  0  0  0  0  0  0  0  0  0  0
   -5.0282    0.3024  -21.8157 C   0  0  0  0  0  0  0  0  0  0  0  0
   -5.4933    0.0115  -20.5001 C   0  0  0  0  0  0  0  0  0  0  0  0
   -5.5458   -0.1088  -22.6784 H   0  0  0  0  0  0  0  0  0  0  0  0
   -3.5814    1.3180  -23.0100 H   0  0  0  0  0  0  0  0  0  0  0  0
   -2.3655    2.2696  -21.0682 H   0  0  0  0  0  0  0  0  0  0  0  0
   -3.1211    1.7596  -18.7617 H   0  0  0  0  0  0  0  0  0  0  0  0
   -4.6509    0.6078  -17.2400 H   0  0  0  0  0  0  0  0  0  0  0  0
   -7.7681   -1.7044  -18.6362 H   0  0  0  0  0  0  0  0  0  0  0  0
   -7.0455   -2.7342  -21.7046 C   0  0  0  0  0  0  0  0  0  0  0  0
   -8.1416   -3.0162  -22.7431 C   0  0  2  0  0  0  0  0  0  0  0  0
   -7.7318   -3.9079  -23.9096 C   0  0  0  0  0  0  0  0  0  0  0  0
   -7.4634   -5.6008  -23.4284 S   0  0  0  0  0  0  0  0  0  0  0  0
   -8.4907   -5.9293  -22.4596 O   0  0  0  0  0  0  0  0  0  0  0  0
   -7.3120   -6.3756  -24.6539 O   0  0  0  0  0  0  0  0  0  0  0  0
   -6.0394   -5.6424  -22.5258 N   0  0  0  0  0  0  0  0  0  0  0  0
   -5.8858   -6.9693  -21.8890 C   0  0  0  0  0  0  0  0  0  0  0  0
   -6.7726   -7.1514  -21.2724 H   0  0  0  0  0  0  0  0  0  0  0  0
   -5.7842   -7.7677  -22.6357 H   0  0  0  0  0  0  0  0  0  0  0  0
   -5.0029   -6.9573  -21.2466 H   0  0  0  0  0  0  0  0  0  0  0  0
   -5.2383   -5.3864  -23.0991 H   0  0  0  0  0  0  0  0  0  0  0  0
   -8.5670   -3.9583  -24.6162 H   0  0  0  0  0  0  0  0  0  0  0  0
   -6.8406   -3.5443  -24.4305 H   0  0  0  0  0  0  0  0  0  0  0  0
   -8.9592   -3.5172  -22.2106 H   0  0  0  0  0  0  0  0  0  0  0  0
   -7.0403   -3.4662  -20.8899 H   0  0  0  0  0  0  0  0  0  0  0  0
   -6.0288   -2.7322  -22.1307 H   0  0  0  0  0  0  0  0  0  0  0  0
  -10.2003   -1.6726  -23.4624 C   0  0  0  0  0  0  0  0  0  0  0  0
  -11.0979   -2.0037  -22.4432 C   0  0  0  0  0  0  0  0  0  0  0  0
  -12.4518   -1.7980  -22.6215 C   0  0  0  0  0  0  0  0  0  0  0  0
  -13.2845   -2.1249  -21.6206 F   0  0  0  0  0  0  0  0  0  0  0  0
  -12.9753   -1.2902  -23.8067 C   0  0  0  0  0  0  0  0  0  0  0  0
  -12.0966   -1.1206  -24.8601 C   0  0  0  0  0  0  0  0  0  0  0  0
  -10.7408   -1.3867  -24.7216 C   0  0  0  0  0  0  0  0  0  0  0  0
   -9.8979   -1.4962  -25.9445 C   0  0  0  0  0  0  0  0  0  0  0  0
  -10.3622   -1.5519  -27.0824 O   0  0  0  0  0  0  0  0  0  0  0  0
  -12.4517   -0.8277  -25.8390 H   0  0  0  0  0  0  0  0  0  0  0  0
  -14.0341   -1.0869  -23.9221 H   0  0  0  0  0  0  0  0  0  0  0  0
  -10.7560   -2.3522  -21.4731 H   0  0  0  0  0  0  0  0  0  0  0  0
   -8.2087    0.0741  -24.4103 H   0  0  0  0  0  0  0  0  0  0  0  0
   -6.9381   -1.1520  -24.4399 H   0  0  0  0  0  0  0  0  0  0  0  0
   -8.1537   -2.5042  -27.4993 H   0  0  0  0  0  0  0  0  0  0  0  0
   -6.7243   -2.1312  -26.5118 H   0  0  0  0  0  0  0  0  0  0  0  0
   -9.0701   -0.8835  -28.8060 H   0  0  0  0  0  0  0  0  0  0  0  0
   -8.7845    0.8154  -30.3933 H   0  0  0  0  0  0  0  0  0  0  0  0
   -7.0925    1.0244  -29.8735 H   0  0  0  0  0  0  0  0  0  0  0  0
   -8.4047    1.7631  -28.9206 H   0  0  0  0  0  0  0  0  0  0  0  0
  1  2  1  0
  2  3  1  0
  3  4  2  0
  3  5  1  0
  5  6  1  0
  6  7  1  0
  8  7  1  6
  8  9  1  0
  9 10  2  0
  9 11  1  0
 11 12  1  0
 12 13  2  0
 13 14  1  0
 14 15  2  0
 15 16  1  0
 16 17  2  0
 17 18  1  0
 18 19  2  0
 19 20  1  0
 20 21  2  0
 20 22  1  0
 19 23  1  0
 18 24  1  0
 17 25  1  0
 15 26  1  0
 13 27  1  0
 11 28  1  0
 28 29  1  0
 29 30  1  0
 30 31  1  0
 31 32  2  0
 31 33  2  0
 31 34  1  0
 34 35  1  0
 35 36  1  0
 35 37  1  0
 35 38  1  0
 34 39  1  0
 30 40  1  0
 30 41  1  0
 29 42  1  1
 28 43  1  0
 28 44  1  0
  8 45  1  0
 45 46  2  0
 46 47  1  0
 47 48  1  0
 47 49  2  0
 49 50  1  0
 50 51  2  0
 51 52  1  0
 52 53  2  0
 50 54  1  0
 49 55  1  0
 46 56  1  0
  7 57  1  0
  7 58  1  0
  5 59  1  0
  5 60  1  0
  2 61  1  0
  1 62  1  0
  1 63  1  0
  1 64  1  0
 52  6  1  0
 29  8  1  0
 51 45  1  0
 21 12  1  0
 21 16  1  0
M  END
>  <cnnaffinities>  (88) 
[6.25623, 6.73359]

>  <score>  (88) 
6.25623

>  <index>  (88) 
90

>  <Smiles>  (88) 
C(N(C(=O)C(N1C([C@@]2(C(=O)N(c3c(nc(c4c(c(c(c(c34)[H])[H])[H])[H])[H])[H])C([C@@]2(C(S(=O)(=O)N(C([H])([H])[H])[H])([H])[H])[H])([H])[H])c2c(c(F)c(c(c2C1=O)[H])[H])[H])([H])[H])([H])[H])[H])([H])([H])[H]

>  <h>  (88) 
<NA>

>  <Training>  (88) 
True

>  <Success>  (88) 
True

>  <enamine_searched>  (88) 
False

>  <enamine_id>  (88) 
nan

$$$$

     RDKit          3D

 66 71  0  0  0  0  0  0  0  0999 V2000
   -6.7993    0.0845  -29.3703 C   0  0  0  0  0  0  0  0  0  0  0  0
   -7.1529    0.6189  -28.0735 N   0  0  0  0  0  0  0  0  0  0  0  0
   -6.6002    0.0595  -26.9690 C   0  0  0  0  0  0  0  0  0  0  0  0
   -5.7945   -0.8611  -27.0095 O   0  0  0  0  0  0  0  0  0  0  0  0
   -7.0989    0.6617  -25.6590 C   0  0  0  0  0  0  0  0  0  0  0  0
   -8.2048   -0.1042  -25.1315 N   0  0  0  0  0  0  0  0  0  0  0  0
   -7.9351   -1.3922  -24.5226 C   0  0  0  0  0  0  0  0  0  0  0  0
   -8.7732   -1.5731  -23.2317 C   0  0  2  0  0  0  0  0  0  0  0  0
   -8.2291   -0.6162  -22.1311 C   0  0  0  0  0  0  0  0  0  0  0  0
   -8.4027    0.5751  -22.0339 O   0  0  0  0  0  0  0  0  0  0  0  0
   -7.4583   -1.3652  -21.2611 N   0  0  0  0  0  0  0  0  0  0  0  0
   -6.6474   -0.8070  -20.2382 C   0  0  0  0  0  0  0  0  0  0  0  0
   -6.9341   -1.0801  -18.9224 C   0  0  0  0  0  0  0  0  0  0  0  0
   -6.2542   -0.5887  -17.8563 N   0  0  0  0  0  0  0  0  0  0  0  0
   -5.2285    0.1881  -18.1130 C   0  0  0  0  0  0  0  0  0  0  0  0
   -4.7818    0.5094  -19.4260 C   0  0  0  0  0  0  0  0  0  0  0  0
   -3.6429    1.3331  -19.6320 C   0  0  0  0  0  0  0  0  0  0  0  0
   -3.2049    1.6053  -20.8982 C   0  0  0  0  0  0  0  0  0  0  0  0
   -3.8776    1.0598  -22.0142 C   0  0  0  0  0  0  0  0  0  0  0  0
   -4.9871    0.2686  -21.8410 C   0  0  0  0  0  0  0  0  0  0  0  0
   -5.4871   -0.0135  -20.5349 C   0  0  0  0  0  0  0  0  0  0  0  0
   -5.4858   -0.1443  -22.7144 H   0  0  0  0  0  0  0  0  0  0  0  0
   -3.5114    1.2693  -23.0150 H   0  0  0  0  0  0  0  0  0  0  0  0
   -2.3386    2.2407  -21.0541 H   0  0  0  0  0  0  0  0  0  0  0  0
   -3.1390    1.7408  -18.7585 H   0  0  0  0  0  0  0  0  0  0  0  0
   -4.6779    0.5946  -17.2633 H   0  0  0  0  0  0  0  0  0  0  0  0
   -7.7835   -1.7193  -18.6869 H   0  0  0  0  0  0  0  0  0  0  0  0
   -7.4024   -2.7710  -21.5963 C   0  0  0  0  0  0  0  0  0  0  0  0
   -8.5536   -2.9619  -22.5825 C   0  0  2  0  0  0  0  0  0  0  0  0
   -8.3370   -4.1307  -23.5340 C   0  0  0  0  0  0  0  0  0  0  0  0
   -9.4666   -4.3395  -24.3987 N   0  0  0  0  0  0  0  0  0  0  0  0
   -9.4685   -5.2597  -25.4022 C   0  0  0  0  0  0  0  0  0  0  0  0
   -8.3889   -6.1549  -25.6143 C   0  0  0  0  0  0  0  0  0  0  0  0
   -8.3850   -7.0385  -26.5968 N   0  0  0  0  0  0  0  0  0  0  0  0
   -9.4668   -7.0546  -27.3809 C   0  0  0  0  0  0  0  0  0  0  0  0
  -10.5286   -6.1875  -27.1657 C   0  0  0  0  0  0  0  0  0  0  0  0
  -10.5476   -5.2862  -26.1855 N   0  0  0  0  0  0  0  0  0  0  0  0
  -11.4057   -6.2023  -27.8061 H   0  0  0  0  0  0  0  0  0  0  0  0
   -9.4744   -7.7698  -28.1959 H   0  0  0  0  0  0  0  0  0  0  0  0
   -7.5125   -6.1486  -24.9747 H   0  0  0  0  0  0  0  0  0  0  0  0
  -10.2608   -3.7122  -24.3938 H   0  0  0  0  0  0  0  0  0  0  0  0
   -8.1616   -5.0441  -22.9546 H   0  0  0  0  0  0  0  0  0  0  0  0
   -7.4286   -3.9532  -24.1314 H   0  0  0  0  0  0  0  0  0  0  0  0
   -9.4455   -3.1893  -21.9967 H   0  0  0  0  0  0  0  0  0  0  0  0
   -6.4342   -3.0543  -22.0337 H   0  0  0  0  0  0  0  0  0  0  0  0
   -7.5326   -3.3599  -20.6933 H   0  0  0  0  0  0  0  0  0  0  0  0
  -10.2176   -1.2943  -23.5928 C   0  0  0  0  0  0  0  0  0  0  0  0
  -11.2697   -1.7959  -22.8154 C   0  0  0  0  0  0  0  0  0  0  0  0
  -12.5660   -1.3861  -23.0623 C   0  0  0  0  0  0  0  0  0  0  0  0
  -13.8153   -1.9009  -21.9672 Cl  0  0  0  0  0  0  0  0  0  0  0  0
  -12.8939   -0.5601  -24.1375 C   0  0  0  0  0  0  0  0  0  0  0  0
  -11.8656   -0.1083  -24.9411 C   0  0  0  0  0  0  0  0  0  0  0  0
  -10.5417   -0.4288  -24.6505 C   0  0  0  0  0  0  0  0  0  0  0  0
   -9.4776    0.2697  -25.4354 C   0  0  0  0  0  0  0  0  0  0  0  0
   -9.7243    1.1453  -26.2665 O   0  0  0  0  0  0  0  0  0  0  0  0
  -12.0470    0.5287  -25.7975 H   0  0  0  0  0  0  0  0  0  0  0  0
  -13.9262   -0.2693  -24.3144 H   0  0  0  0  0  0  0  0  0  0  0  0
  -11.1043   -2.4836  -21.9913 H   0  0  0  0  0  0  0  0  0  0  0  0
   -8.1663   -2.2049  -25.2289 H   0  0  0  0  0  0  0  0  0  0  0  0
   -6.8628   -1.4511  -24.3101 H   0  0  0  0  0  0  0  0  0  0  0  0
   -7.4383    1.6935  -25.7977 H   0  0  0  0  0  0  0  0  0  0  0  0
   -6.2868    0.6337  -24.9268 H   0  0  0  0  0  0  0  0  0  0  0  0
   -7.9971    1.1666  -27.9620 H   0  0  0  0  0  0  0  0  0  0  0  0
   -7.3313    0.6330  -30.1491 H   0  0  0  0  0  0  0  0  0  0  0  0
   -5.7230    0.1984  -29.5292 H   0  0  0  0  0  0  0  0  0  0  0  0
   -7.0462   -0.9815  -29.4372 H   0  0  0  0  0  0  0  0  0  0  0  0
  1  2  1  0
  2  3  1  0
  3  4  2  0
  3  5  1  0
  5  6  1  0
  6  7  1  0
  8  7  1  6
  8  9  1  0
  9 10  2  0
  9 11  1  0
 11 12  1  0
 12 13  2  0
 13 14  1  0
 14 15  2  0
 15 16  1  0
 16 17  2  0
 17 18  1  0
 18 19  2  0
 19 20  1  0
 20 21  2  0
 20 22  1  0
 19 23  1  0
 18 24  1  0
 17 25  1  0
 15 26  1  0
 13 27  1  0
 11 28  1  0
 28 29  1  0
 29 30  1  0
 30 31  1  0
 31 32  1  0
 32 33  2  0
 33 34  1  0
 34 35  2  0
 35 36  1  0
 36 37  2  0
 36 38  1  0
 35 39  1  0
 33 40  1  0
 31 41  1  0
 30 42  1  0
 30 43  1  0
 29 44  1  1
 28 45  1  0
 28 46  1  0
  8 47  1  0
 47 48  2  0
 48 49  1  0
 49 50  1  0
 49 51  2  0
 51 52  1  0
 52 53  2  0
 53 54  1  0
 54 55  2  0
 52 56  1  0
 51 57  1  0
 48 58  1  0
  7 59  1  0
  7 60  1  0
  5 61  1  0
  5 62  1  0
  2 63  1  0
  1 64  1  0
  1 65  1  0
  1 66  1  0
 54  6  1  0
 29  8  1  0
 37 32  1  0
 53 47  1  0
 21 12  1  0
 21 16  1  0
M  END
>  <cnnaffinities>  (89) 
[6.9301, 6.4454, 7.06971]

>  <score>  (89) 
6.9301

>  <index>  (89) 
91

>  <Smiles>  (89) 
C(N(C(=O)C(N1C([C@@]2(C(=O)N(c3c(nc(c4c(c(c(c(c34)[H])[H])[H])[H])[H])[H])C([C@@]2(C(N(c2c(nc(c(n2)[H])[H])[H])[H])([H])[H])[H])([H])[H])c2c(c(Cl)c(c(c2C1=O)[H])[H])[H])([H])[H])([H])[H])[H])([H])([H])[H]

>  <h>  (89) 
<NA>

>  <Training>  (89) 
True

>  <Success>  (89) 
True

>  <enamine_searched>  (89) 
False

>  <enamine_id>  (89) 
nan

$$$$

     RDKit          3D

 60 65  0  0  0  0  0  0  0  0999 V2000
   -7.8684   -6.2915  -23.9429 C   0  0  0  0  0  0  0  0  0  0  0  0
   -8.0934   -5.3160  -22.9598 O   0  0  0  0  0  0  0  0  0  0  0  0
   -8.3836   -4.0743  -23.5429 C   0  0  0  0  0  0  0  0  0  0  0  0
   -8.5632   -3.0420  -22.4456 C   0  0  1  0  0  0  0  0  0  0  0  0
   -7.2987   -2.7471  -21.6293 C   0  0  0  0  0  0  0  0  0  0  0  0
   -7.4674   -1.3647  -21.2353 N   0  0  0  0  0  0  0  0  0  0  0  0
   -6.6654   -0.7869  -20.2157 C   0  0  0  0  0  0  0  0  0  0  0  0
   -6.9495   -1.0562  -18.8999 C   0  0  0  0  0  0  0  0  0  0  0  0
   -6.2531   -0.5710  -17.8428 N   0  0  0  0  0  0  0  0  0  0  0  0
   -5.2245    0.1978  -18.1033 C   0  0  0  0  0  0  0  0  0  0  0  0
   -4.7867    0.5202  -19.4175 C   0  0  0  0  0  0  0  0  0  0  0  0
   -3.6480    1.3366  -19.6370 C   0  0  0  0  0  0  0  0  0  0  0  0
   -3.2181    1.6025  -20.9065 C   0  0  0  0  0  0  0  0  0  0  0  0
   -3.9026    1.0509  -22.0137 C   0  0  0  0  0  0  0  0  0  0  0  0
   -5.0128    0.2625  -21.8285 C   0  0  0  0  0  0  0  0  0  0  0  0
   -5.5036   -0.0042  -20.5205 C   0  0  0  0  0  0  0  0  0  0  0  0
   -5.5194   -0.1770  -22.6845 H   0  0  0  0  0  0  0  0  0  0  0  0
   -3.5442    1.2639  -23.0187 H   0  0  0  0  0  0  0  0  0  0  0  0
   -2.3459    2.2301  -21.0693 H   0  0  0  0  0  0  0  0  0  0  0  0
   -3.1332    1.7404  -18.7691 H   0  0  0  0  0  0  0  0  0  0  0  0
   -4.6669    0.6007  -17.2552 H   0  0  0  0  0  0  0  0  0  0  0  0
   -7.7891   -1.7026  -18.6477 H   0  0  0  0  0  0  0  0  0  0  0  0
   -8.4910   -0.6955  -21.8830 C   0  0  0  0  0  0  0  0  0  0  0  0
   -8.8327    0.4378  -21.6336 O   0  0  0  0  0  0  0  0  0  0  0  0
   -9.0899   -1.6695  -22.9454 C   0  0  1  0  0  0  0  0  0  0  0  0
   -8.5338   -1.3326  -24.3563 C   0  0  0  0  0  0  0  0  0  0  0  0
   -9.1230   -0.1237  -24.8997 N   0  0  0  0  0  0  0  0  0  0  0  0
   -8.2943    0.8903  -25.5365 C   0  0  0  0  0  0  0  0  0  0  0  0
   -7.7542    1.9655  -24.6158 C   0  0  0  0  0  0  0  0  0  0  0  0
   -8.4393    3.0359  -23.9805 C   0  0  0  0  0  0  0  0  0  0  0  0
   -7.6184    3.8269  -23.2948 N   0  0  0  0  0  0  0  0  0  0  0  0
   -6.4143    3.2828  -23.4825 N   0  0  0  0  0  0  0  0  0  0  0  0
   -6.4353    2.1790  -24.2645 C   0  0  0  0  0  0  0  0  0  0  0  0
   -5.5207    1.6460  -24.4874 H   0  0  0  0  0  0  0  0  0  0  0  0
   -5.6053    3.6845  -23.0370 H   0  0  0  0  0  0  0  0  0  0  0  0
   -9.4970    3.2742  -23.9874 H   0  0  0  0  0  0  0  0  0  0  0  0
   -8.9255    1.3361  -26.3129 H   0  0  0  0  0  0  0  0  0  0  0  0
   -7.4627    0.3871  -26.0438 H   0  0  0  0  0  0  0  0  0  0  0  0
  -10.4833   -0.0117  -25.0003 C   0  0  0  0  0  0  0  0  0  0  0  0
  -11.0253    0.6820  -25.8525 O   0  0  0  0  0  0  0  0  0  0  0  0
  -11.2555   -0.7827  -23.9801 C   0  0  0  0  0  0  0  0  0  0  0  0
  -12.6447   -0.7017  -24.0200 C   0  0  0  0  0  0  0  0  0  0  0  0
  -13.4222   -1.3316  -23.0688 C   0  0  0  0  0  0  0  0  0  0  0  0
  -12.7662   -2.0828  -22.0957 C   0  0  0  0  0  0  0  0  0  0  0  0
  -13.6751   -2.9369  -20.8859 Cl  0  0  0  0  0  0  0  0  0  0  0  0
  -11.3974   -2.2331  -22.0908 C   0  0  0  0  0  0  0  0  0  0  0  0
  -10.6003   -1.5847  -23.0364 C   0  0  0  0  0  0  0  0  0  0  0  0
  -10.9703   -2.8726  -21.3332 H   0  0  0  0  0  0  0  0  0  0  0  0
  -14.5029   -1.2568  -23.0804 H   0  0  0  0  0  0  0  0  0  0  0  0
  -13.1003   -0.1047  -24.8015 H   0  0  0  0  0  0  0  0  0  0  0  0
   -8.7441   -2.1706  -25.0397 H   0  0  0  0  0  0  0  0  0  0  0  0
   -7.4504   -1.1953  -24.3107 H   0  0  0  0  0  0  0  0  0  0  0  0
   -6.3732   -2.9108  -22.1999 H   0  0  0  0  0  0  0  0  0  0  0  0
   -7.2328   -3.3816  -20.7460 H   0  0  0  0  0  0  0  0  0  0  0  0
   -9.2919   -3.4652  -21.7544 H   0  0  0  0  0  0  0  0  0  0  0  0
   -9.3082   -4.1361  -24.1477 H   0  0  0  0  0  0  0  0  0  0  0  0
   -7.5620   -3.7702  -24.2171 H   0  0  0  0  0  0  0  0  0  0  0  0
   -8.7452   -6.4186  -24.5972 H   0  0  0  0  0  0  0  0  0  0  0  0
   -7.6617   -7.2362  -23.4367 H   0  0  0  0  0  0  0  0  0  0  0  0
   -7.0086   -6.0314  -24.5801 H   0  0  0  0  0  0  0  0  0  0  0  0
  1  2  1  0
  2  3  1  0
  3  4  1  0
  4  5  1  0
  5  6  1  0
  6  7  1  0
  7  8  2  0
  8  9  1  0
  9 10  2  0
 10 11  1  0
 11 12  2  0
 12 13  1  0
 13 14  2  0
 14 15  1  0
 15 16  2  0
 15 17  1  0
 14 18  1  0
 13 19  1  0
 12 20  1  0
 10 21  1  0
  8 22  1  0
  6 23  1  0
 23 24  2  0
 23 25  1  0
 25 26  1  6
 26 27  1  0
 27 28  1  0
 28 29  1  0
 29 30  1  0
 30 31  2  0
 31 32  1  0
 32 33  1  0
 33 34  1  0
 32 35  1  0
 30 36  1  0
 28 37  1  0
 28 38  1  0
 27 39  1  0
 39 40  2  0
 39 41  1  0
 41 42  2  0
 42 43  1  0
 43 44  2  0
 44 45  1  0
 44 46  1  0
 46 47  2  0
 46 48  1  0
 43 49  1  0
 42 50  1  0
 26 51  1  0
 26 52  1  0
  5 53  1  0
  5 54  1  0
  4 55  1  1
  3 56  1  0
  3 57  1  0
  1 58  1  0
  1 59  1  0
  1 60  1  0
 25  4  1  0
 33 29  2  0
 47 41  1  0
 16  7  1  0
 47 25  1  0
 16 11  1  0
M  END
>  <cnnaffinities>  (90) 
[7.1485, 6.93493]

>  <score>  (90) 
7.1485

>  <index>  (90) 
92

>  <Smiles>  (90) 
C(OC([C@]1(C(N(c2c(nc(c3c(c(c(c(c23)[H])[H])[H])[H])[H])[H])C(=O)[C@]21C(N(C(c1c(nn(c1[H])[H])[H])([H])[H])C(=O)c1c(c(c(Cl)c(c21)[H])[H])[H])([H])[H])([H])[H])[H])([H])[H])([H])([H])[H]

>  <h>  (90) 
<NA>

>  <Training>  (90) 
True

>  <Success>  (90) 
True

>  <enamine_searched>  (90) 
False

>  <enamine_id>  (90) 
nan

$$$$

     RDKit          3D

 62 67  0  0  0  0  0  0  0  0999 V2000
   -4.6103    1.6797  -27.3609 C   0  0  0  0  0  0  0  0  0  0  0  0
   -4.6449    1.2674  -25.8920 C   0  0  0  0  0  0  0  0  0  0  0  0
   -5.6977    1.9161  -25.1300 N   0  0  0  0  0  0  0  0  0  0  0  0
   -5.3864    3.0017  -24.4044 N   0  0  0  0  0  0  0  0  0  0  0  0
   -6.5378    3.4078  -23.8842 C   0  0  0  0  0  0  0  0  0  0  0  0
   -7.6077    2.5778  -24.2822 C   0  0  0  0  0  0  0  0  0  0  0  0
   -7.0241    1.6234  -25.0891 C   0  0  0  0  0  0  0  0  0  0  0  0
   -7.6281    0.4621  -25.8291 C   0  0  0  0  0  0  0  0  0  0  0  0
   -8.6296   -0.2292  -25.0360 N   0  0  0  0  0  0  0  0  0  0  0  0
   -8.2891   -1.4633  -24.3591 C   0  0  0  0  0  0  0  0  0  0  0  0
   -9.0253   -1.6169  -23.0045 C   0  0  2  0  0  0  0  0  0  0  0  0
   -8.4288   -0.6282  -21.9645 C   0  0  0  0  0  0  0  0  0  0  0  0
   -8.6976    0.5414  -21.7812 O   0  0  0  0  0  0  0  0  0  0  0  0
   -7.4596   -1.3148  -21.2671 N   0  0  0  0  0  0  0  0  0  0  0  0
   -6.6877   -0.7370  -20.2357 C   0  0  0  0  0  0  0  0  0  0  0  0
   -6.9982   -1.0147  -18.9272 C   0  0  0  0  0  0  0  0  0  0  0  0
   -6.3144   -0.5465  -17.8568 N   0  0  0  0  0  0  0  0  0  0  0  0
   -5.2704    0.2077  -18.1092 C   0  0  0  0  0  0  0  0  0  0  0  0
   -4.8176    0.5440  -19.4164 C   0  0  0  0  0  0  0  0  0  0  0  0
   -3.6568    1.3349  -19.6184 C   0  0  0  0  0  0  0  0  0  0  0  0
   -3.1979    1.5853  -20.8812 C   0  0  0  0  0  0  0  0  0  0  0  0
   -3.8784    1.0569  -22.0027 C   0  0  0  0  0  0  0  0  0  0  0  0
   -5.0180    0.3093  -21.8350 C   0  0  0  0  0  0  0  0  0  0  0  0
   -5.5246    0.0424  -20.5314 C   0  0  0  0  0  0  0  0  0  0  0  0
   -5.5195   -0.1123  -22.7011 H   0  0  0  0  0  0  0  0  0  0  0  0
   -3.4947    1.2418  -23.0041 H   0  0  0  0  0  0  0  0  0  0  0  0
   -2.3063    2.1880  -21.0277 H   0  0  0  0  0  0  0  0  0  0  0  0
   -3.1455    1.7180  -18.7399 H   0  0  0  0  0  0  0  0  0  0  0  0
   -4.7085    0.5747  -17.2522 H   0  0  0  0  0  0  0  0  0  0  0  0
   -7.8566   -1.6496  -18.7075 H   0  0  0  0  0  0  0  0  0  0  0  0
   -7.3675   -2.7236  -21.5822 C   0  0  0  0  0  0  0  0  0  0  0  0
   -8.6696   -2.9867  -22.3528 C   0  0  2  0  0  0  0  0  0  0  0  0
   -8.6241   -4.2083  -23.2741 C   0  0  0  0  0  0  0  0  0  0  0  0
   -7.7682   -4.1769  -23.9604 H   0  0  0  0  0  0  0  0  0  0  0  0
   -8.5415   -5.1336  -22.6913 H   0  0  0  0  0  0  0  0  0  0  0  0
   -9.5332   -4.2817  -23.8834 H   0  0  0  0  0  0  0  0  0  0  0  0
   -9.4342   -3.1727  -21.5930 H   0  0  0  0  0  0  0  0  0  0  0  0
   -6.4660   -2.9399  -22.1798 H   0  0  0  0  0  0  0  0  0  0  0  0
   -7.2881   -3.2997  -20.6546 H   0  0  0  0  0  0  0  0  0  0  0  0
  -10.5050   -1.4146  -23.2679 C   0  0  0  0  0  0  0  0  0  0  0  0
  -11.5002   -2.0039  -22.4698 C   0  0  0  0  0  0  0  0  0  0  0  0
  -12.8276   -1.7141  -22.7062 C   0  0  0  0  0  0  0  0  0  0  0  0
  -13.7611   -2.1948  -21.8658 F   0  0  0  0  0  0  0  0  0  0  0  0
  -13.2453   -0.9412  -23.7819 C   0  0  0  0  0  0  0  0  0  0  0  0
  -12.2766   -0.3593  -24.5720 C   0  0  0  0  0  0  0  0  0  0  0  0
  -10.9242   -0.5755  -24.3103 C   0  0  0  0  0  0  0  0  0  0  0  0
   -9.9340    0.1513  -25.1727 C   0  0  0  0  0  0  0  0  0  0  0  0
  -10.2656    1.0392  -25.9433 O   0  0  0  0  0  0  0  0  0  0  0  0
  -12.5315    0.2863  -25.4059 H   0  0  0  0  0  0  0  0  0  0  0  0
  -14.3036   -0.7924  -23.9399 H   0  0  0  0  0  0  0  0  0  0  0  0
  -11.2940   -2.7171  -21.6822 H   0  0  0  0  0  0  0  0  0  0  0  0
   -8.5855   -2.3098  -24.9921 H   0  0  0  0  0  0  0  0  0  0  0  0
   -7.2062   -1.5073  -24.2013 H   0  0  0  0  0  0  0  0  0  0  0  0
   -6.8485   -0.2436  -26.1531 H   0  0  0  0  0  0  0  0  0  0  0  0
   -8.1274    0.8241  -26.7338 H   0  0  0  0  0  0  0  0  0  0  0  0
   -8.6530    2.6658  -24.0064 H   0  0  0  0  0  0  0  0  0  0  0  0
   -6.5508    4.2892  -23.2549 H   0  0  0  0  0  0  0  0  0  0  0  0
   -4.7344    0.1784  -25.7879 H   0  0  0  0  0  0  0  0  0  0  0  0
   -3.7229    1.5703  -25.3906 H   0  0  0  0  0  0  0  0  0  0  0  0
   -4.4966    2.7643  -27.4482 H   0  0  0  0  0  0  0  0  0  0  0  0
   -3.7567    1.2016  -27.8522 H   0  0  0  0  0  0  0  0  0  0  0  0
   -5.5224    1.3849  -27.8940 H   0  0  0  0  0  0  0  0  0  0  0  0
  1  2  1  0
  2  3  1  0
  3  4  1  0
  4  5  2  0
  5  6  1  0
  6  7  2  0
  7  8  1  0
  8  9  1  0
  9 10  1  0
 11 10  1  6
 11 12  1  0
 12 13  2  0
 12 14  1  0
 14 15  1  0
 15 16  2  0
 16 17  1  0
 17 18  2  0
 18 19  1  0
 19 20  2  0
 20 21  1  0
 21 22  2  0
 22 23  1  0
 23 24  2  0
 23 25  1  0
 22 26  1  0
 21 27  1  0
 20 28  1  0
 18 29  1  0
 16 30  1  0
 14 31  1  0
 31 32  1  0
 32 33  1  0
 33 34  1  0
 33 35  1  0
 33 36  1  0
 32 37  1  1
 31 38  1  0
 31 39  1  0
 11 40  1  0
 40 41  2  0
 41 42  1  0
 42 43  1  0
 42 44  2  0
 44 45  1  0
 45 46  2  0
 46 47  1  0
 47 48  2  0
 45 49  1  0
 44 50  1  0
 41 51  1  0
 10 52  1  0
 10 53  1  0
  8 54  1  0
  8 55  1  0
  6 56  1  0
  5 57  1  0
  2 58  1  0
  2 59  1  0
  1 60  1  0
  1 61  1  0
  1 62  1  0
  7  3  1  0
 47  9  1  0
 32 11  1  0
 46 40  1  0
 24 15  1  0
 24 19  1  0
M  END
>  <cnnaffinities>  (91) 
[6.90305, 6.58404, 6.63924]

>  <score>  (91) 
6.90305

>  <index>  (91) 
93

>  <Smiles>  (91) 
C(C(n1nc(c(c1C(N1C([C@@]2(C(=O)N(c3c(nc(c4c(c(c(c(c34)[H])[H])[H])[H])[H])[H])C([C@@]2(C([H])([H])[H])[H])([H])[H])c2c(c(F)c(c(c2C1=O)[H])[H])[H])([H])[H])([H])[H])[H])[H])([H])[H])([H])([H])[H]

>  <h>  (91) 
<NA>

>  <Training>  (91) 
True

>  <Success>  (91) 
True

>  <enamine_searched>  (91) 
False

>  <enamine_id>  (91) 
nan

$$$$

     RDKit          3D

 66 71  0  0  0  0  0  0  0  0999 V2000
   -6.8131    0.0951  -29.3771 C   0  0  0  0  0  0  0  0  0  0  0  0
   -7.1583    0.6289  -28.0763 N   0  0  0  0  0  0  0  0  0  0  0  0
   -6.6101    0.0537  -26.9756 C   0  0  0  0  0  0  0  0  0  0  0  0
   -5.8123   -0.8719  -27.0220 O   0  0  0  0  0  0  0  0  0  0  0  0
   -7.1040    0.6554  -25.6618 C   0  0  0  0  0  0  0  0  0  0  0  0
   -8.2088   -0.1063  -25.1290 N   0  0  0  0  0  0  0  0  0  0  0  0
   -7.9405   -1.3917  -24.5193 C   0  0  0  0  0  0  0  0  0  0  0  0
   -8.7756   -1.5713  -23.2288 C   0  0  2  0  0  0  0  0  0  0  0  0
   -8.2278   -0.6143  -22.1289 C   0  0  0  0  0  0  0  0  0  0  0  0
   -8.3926    0.5807  -22.0318 O   0  0  0  0  0  0  0  0  0  0  0  0
   -7.4589   -1.3623  -21.2574 N   0  0  0  0  0  0  0  0  0  0  0  0
   -6.6457   -0.8058  -20.2350 C   0  0  0  0  0  0  0  0  0  0  0  0
   -6.9314   -1.0782  -18.9179 C   0  0  0  0  0  0  0  0  0  0  0  0
   -6.2501   -0.5869  -17.8528 N   0  0  0  0  0  0  0  0  0  0  0  0
   -5.2247    0.1902  -18.1106 C   0  0  0  0  0  0  0  0  0  0  0  0
   -4.7787    0.5103  -19.4241 C   0  0  0  0  0  0  0  0  0  0  0  0
   -3.6399    1.3337  -19.6315 C   0  0  0  0  0  0  0  0  0  0  0  0
   -3.2033    1.6059  -20.8988 C   0  0  0  0  0  0  0  0  0  0  0  0
   -3.8769    1.0602  -22.0140 C   0  0  0  0  0  0  0  0  0  0  0  0
   -4.9864    0.2685  -21.8390 C   0  0  0  0  0  0  0  0  0  0  0  0
   -5.4849   -0.0121  -20.5316 C   0  0  0  0  0  0  0  0  0  0  0  0
   -5.4864   -0.1439  -22.7117 H   0  0  0  0  0  0  0  0  0  0  0  0
   -3.5130    1.2703  -23.0157 H   0  0  0  0  0  0  0  0  0  0  0  0
   -2.3378    2.2421  -21.0558 H   0  0  0  0  0  0  0  0  0  0  0  0
   -3.1358    1.7421  -18.7593 H   0  0  0  0  0  0  0  0  0  0  0  0
   -4.6747    0.5965  -17.2617 H   0  0  0  0  0  0  0  0  0  0  0  0
   -7.7805   -1.7173  -18.6812 H   0  0  0  0  0  0  0  0  0  0  0  0
   -7.4064   -2.7676  -21.5908 C   0  0  0  0  0  0  0  0  0  0  0  0
   -8.5586   -2.9575  -22.5748 C   0  0  2  0  0  0  0  0  0  0  0  0
   -8.3330   -4.1300  -23.5165 C   0  0  0  0  0  0  0  0  0  0  0  0
   -9.4534   -4.3514  -24.3885 N   0  0  0  0  0  0  0  0  0  0  0  0
   -9.4428   -5.2747  -25.3746 C   0  0  0  0  0  0  0  0  0  0  0  0
   -8.3714   -6.1661  -25.5775 C   0  0  0  0  0  0  0  0  0  0  0  0
   -8.4940   -7.0391  -26.6371 C   0  0  0  0  0  0  0  0  0  0  0  0
   -9.5549   -7.0711  -27.4493 N   0  0  0  0  0  0  0  0  0  0  0  0
  -10.5064   -6.1992  -27.1444 C   0  0  0  0  0  0  0  0  0  0  0  0
  -10.5241   -5.3067  -26.1623 N   0  0  0  0  0  0  0  0  0  0  0  0
  -11.3894   -6.2041  -27.7772 H   0  0  0  0  0  0  0  0  0  0  0  0
   -7.7040   -7.7519  -26.8623 H   0  0  0  0  0  0  0  0  0  0  0  0
   -7.4892   -6.1744  -24.9504 H   0  0  0  0  0  0  0  0  0  0  0  0
  -10.2573   -3.7397  -24.4013 H   0  0  0  0  0  0  0  0  0  0  0  0
   -7.4265   -3.9519  -24.1149 H   0  0  0  0  0  0  0  0  0  0  0  0
   -8.1617   -5.0423  -22.9347 H   0  0  0  0  0  0  0  0  0  0  0  0
   -9.4513   -3.1802  -21.9878 H   0  0  0  0  0  0  0  0  0  0  0  0
   -7.5335   -3.3524  -20.6845 H   0  0  0  0  0  0  0  0  0  0  0  0
   -6.4391   -3.0539  -22.0295 H   0  0  0  0  0  0  0  0  0  0  0  0
  -10.2198   -1.2991  -23.5910 C   0  0  0  0  0  0  0  0  0  0  0  0
  -11.2697   -1.7901  -22.8033 C   0  0  0  0  0  0  0  0  0  0  0  0
  -12.5666   -1.3855  -23.0549 C   0  0  0  0  0  0  0  0  0  0  0  0
  -13.8099   -1.8861  -21.9496 Cl  0  0  0  0  0  0  0  0  0  0  0  0
  -12.8951   -0.5621  -24.1304 C   0  0  0  0  0  0  0  0  0  0  0  0
  -11.8674   -0.1090  -24.9333 C   0  0  0  0  0  0  0  0  0  0  0  0
  -10.5446   -0.4385  -24.6513 C   0  0  0  0  0  0  0  0  0  0  0  0
   -9.4819    0.2694  -25.4301 C   0  0  0  0  0  0  0  0  0  0  0  0
   -9.7275    1.1487  -26.2558 O   0  0  0  0  0  0  0  0  0  0  0  0
  -12.0494    0.5336  -25.7839 H   0  0  0  0  0  0  0  0  0  0  0  0
  -13.9247   -0.2622  -24.2954 H   0  0  0  0  0  0  0  0  0  0  0  0
  -11.1036   -2.4786  -21.9811 H   0  0  0  0  0  0  0  0  0  0  0  0
   -8.1802   -2.2038  -25.2213 H   0  0  0  0  0  0  0  0  0  0  0  0
   -6.8686   -1.4535  -24.3096 H   0  0  0  0  0  0  0  0  0  0  0  0
   -7.4404    1.6891  -25.7949 H   0  0  0  0  0  0  0  0  0  0  0  0
   -6.2858    0.6189  -24.9371 H   0  0  0  0  0  0  0  0  0  0  0  0
   -7.9966    1.1858  -27.9613 H   0  0  0  0  0  0  0  0  0  0  0  0
   -5.7356    0.1982  -29.5402 H   0  0  0  0  0  0  0  0  0  0  0  0
   -7.3432    0.6524  -30.1519 H   0  0  0  0  0  0  0  0  0  0  0  0
   -7.0708   -0.9690  -29.4466 H   0  0  0  0  0  0  0  0  0  0  0  0
  1  2  1  0
  2  3  1  0
  3  4  2  0
  3  5  1  0
  5  6  1  0
  6  7  1  0
  8  7  1  6
  8  9  1  0
  9 10  2  0
  9 11  1  0
 11 12  1  0
 12 13  2  0
 13 14  1  0
 14 15  2  0
 15 16  1  0
 16 17  2  0
 17 18  1  0
 18 19  2  0
 19 20  1  0
 20 21  2  0
 20 22  1  0
 19 23  1  0
 18 24  1  0
 17 25  1  0
 15 26  1  0
 13 27  1  0
 11 28  1  0
 28 29  1  0
 29 30  1  0
 30 31  1  0
 31 32  1  0
 32 33  2  0
 33 34  1  0
 34 35  2  0
 35 36  1  0
 36 37  2  0
 36 38  1  0
 34 39  1  0
 33 40  1  0
 31 41  1  0
 30 42  1  0
 30 43  1  0
 29 44  1  1
 28 45  1  0
 28 46  1  0
  8 47  1  0
 47 48  2  0
 48 49  1  0
 49 50  1  0
 49 51  2  0
 51 52  1  0
 52 53  2  0
 53 54  1  0
 54 55  2  0
 52 56  1  0
 51 57  1  0
 48 58  1  0
  7 59  1  0
  7 60  1  0
  5 61  1  0
  5 62  1  0
  2 63  1  0
  1 64  1  0
  1 65  1  0
  1 66  1  0
 54  6  1  0
 29  8  1  0
 37 32  1  0
 53 47  1  0
 21 12  1  0
 21 16  1  0
M  END
>  <cnnaffinities>  (92) 
[6.87723, 6.52032, 6.81777]

>  <score>  (92) 
6.87723

>  <index>  (92) 
95

>  <Smiles>  (92) 
C(N(C(=O)C(N1C([C@@]2(C(=O)N(c3c(nc(c4c(c(c(c(c34)[H])[H])[H])[H])[H])[H])C([C@@]2(C(N(c2c(c(nc(n2)[H])[H])[H])[H])([H])[H])[H])([H])[H])c2c(c(Cl)c(c(c2C1=O)[H])[H])[H])([H])[H])([H])[H])[H])([H])([H])[H]

>  <h>  (92) 
<NA>

>  <Training>  (92) 
True

>  <Success>  (92) 
True

>  <enamine_searched>  (92) 
False

>  <enamine_id>  (92) 
nan

$$$$

     RDKit          3D

 66 70  0  0  0  0  0  0  0  0999 V2000
   -6.9458    3.4135  -23.1345 C   0  0  0  0  0  0  0  0  0  0  0  0
   -7.6862    2.6385  -24.1164 N   0  0  0  0  0  0  0  0  0  0  0  0
   -7.0581    1.6298  -24.7770 C   0  0  0  0  0  0  0  0  0  0  0  0
   -5.8578    1.4325  -24.6832 O   0  0  0  0  0  0  0  0  0  0  0  0
   -7.9480    0.7651  -25.6759 C   0  0  0  0  0  0  0  0  0  0  0  0
   -8.8562   -0.0693  -24.9154 N   0  0  0  0  0  0  0  0  0  0  0  0
   -8.3900   -1.3408  -24.3861 C   0  0  0  0  0  0  0  0  0  0  0  0
   -9.0264   -1.6415  -22.9989 C   0  0  2  0  0  0  0  0  0  0  0  0
   -8.4038   -0.6542  -21.9794 C   0  0  0  0  0  0  0  0  0  0  0  0
   -8.6419    0.5269  -21.8737 O   0  0  0  0  0  0  0  0  0  0  0  0
   -7.4869   -1.3519  -21.2161 N   0  0  0  0  0  0  0  0  0  0  0  0
   -6.6735   -0.7708  -20.2103 C   0  0  0  0  0  0  0  0  0  0  0  0
   -6.9465   -1.0499  -18.8943 C   0  0  0  0  0  0  0  0  0  0  0  0
   -6.2484   -0.5703  -17.8382 N   0  0  0  0  0  0  0  0  0  0  0  0
   -5.2211    0.2009  -18.1024 C   0  0  0  0  0  0  0  0  0  0  0  0
   -4.7915    0.5291  -19.4183 C   0  0  0  0  0  0  0  0  0  0  0  0
   -3.6478    1.3421  -19.6382 C   0  0  0  0  0  0  0  0  0  0  0  0
   -3.2265    1.6178  -20.9093 C   0  0  0  0  0  0  0  0  0  0  0  0
   -3.9276    1.0908  -22.0174 C   0  0  0  0  0  0  0  0  0  0  0  0
   -5.0412    0.3054  -21.8316 C   0  0  0  0  0  0  0  0  0  0  0  0
   -5.5188    0.0178  -20.5213 C   0  0  0  0  0  0  0  0  0  0  0  0
   -5.5511   -0.0919  -22.7033 H   0  0  0  0  0  0  0  0  0  0  0  0
   -3.6025    1.3204  -23.0280 H   0  0  0  0  0  0  0  0  0  0  0  0
   -2.3500    2.2383  -21.0744 H   0  0  0  0  0  0  0  0  0  0  0  0
   -3.1248    1.7367  -18.7710 H   0  0  0  0  0  0  0  0  0  0  0  0
   -4.6616    0.6007  -17.2558 H   0  0  0  0  0  0  0  0  0  0  0  0
   -7.7856   -1.7010  -18.6527 H   0  0  0  0  0  0  0  0  0  0  0  0
   -7.3358   -2.7444  -21.5801 C   0  0  0  0  0  0  0  0  0  0  0  0
   -8.5742   -3.0212  -22.4433 C   0  0  2  0  0  0  0  0  0  0  0  0
   -8.3531   -4.0750  -23.5155 C   0  0  0  0  0  0  0  0  0  0  0  0
   -8.1216   -5.3247  -22.9099 O   0  0  0  0  0  0  0  0  0  0  0  0
   -7.6098   -6.2934  -23.8136 C   0  0  0  0  0  0  0  0  0  0  0  0
   -8.1450   -7.6511  -23.4030 C   0  0  0  0  0  0  0  0  0  0  0  0
   -9.2271   -7.7153  -23.4984 H   0  0  0  0  0  0  0  0  0  0  0  0
   -7.8668   -7.8478  -22.3633 H   0  0  0  0  0  0  0  0  0  0  0  0
   -7.7020   -8.4131  -24.0471 H   0  0  0  0  0  0  0  0  0  0  0  0
   -6.0861   -6.3190  -23.7864 C   0  0  0  0  0  0  0  0  0  0  0  0
   -5.7278   -7.0970  -24.4704 H   0  0  0  0  0  0  0  0  0  0  0  0
   -5.7463   -6.5666  -22.7758 H   0  0  0  0  0  0  0  0  0  0  0  0
   -5.6394   -5.3639  -24.0826 H   0  0  0  0  0  0  0  0  0  0  0  0
   -7.9506   -6.0494  -24.8336 H   0  0  0  0  0  0  0  0  0  0  0  0
   -7.4870   -3.7878  -24.1369 H   0  0  0  0  0  0  0  0  0  0  0  0
   -9.2370   -4.1272  -24.1766 H   0  0  0  0  0  0  0  0  0  0  0  0
   -9.3466   -3.4079  -21.7767 H   0  0  0  0  0  0  0  0  0  0  0  0
   -6.3918   -2.9298  -22.1165 H   0  0  0  0  0  0  0  0  0  0  0  0
   -7.3142   -3.3584  -20.6809 H   0  0  0  0  0  0  0  0  0  0  0  0
  -10.5334   -1.4847  -23.1446 C   0  0  0  0  0  0  0  0  0  0  0  0
  -11.4304   -2.1660  -22.3089 C   0  0  0  0  0  0  0  0  0  0  0  0
  -12.7959   -1.9808  -22.4307 C   0  0  0  0  0  0  0  0  0  0  0  0
  -13.8468   -2.7786  -21.2890 Cl  0  0  0  0  0  0  0  0  0  0  0  0
  -13.3345   -1.1979  -23.4520 C   0  0  0  0  0  0  0  0  0  0  0  0
  -12.4608   -0.5367  -24.2954 C   0  0  0  0  0  0  0  0  0  0  0  0
  -11.0789   -0.6251  -24.1083 C   0  0  0  0  0  0  0  0  0  0  0  0
  -10.1905    0.2218  -24.9699 C   0  0  0  0  0  0  0  0  0  0  0  0
  -10.6307    1.1249  -25.6723 O   0  0  0  0  0  0  0  0  0  0  0  0
  -12.8311    0.0972  -25.0952 H   0  0  0  0  0  0  0  0  0  0  0  0
  -14.4073   -1.1044  -23.5791 H   0  0  0  0  0  0  0  0  0  0  0  0
  -11.0823   -2.8497  -21.5462 H   0  0  0  0  0  0  0  0  0  0  0  0
   -7.3008   -1.2935  -24.2861 H   0  0  0  0  0  0  0  0  0  0  0  0
   -8.6370   -2.1435  -25.0967 H   0  0  0  0  0  0  0  0  0  0  0  0
   -7.3069    0.1472  -26.3098 H   0  0  0  0  0  0  0  0  0  0  0  0
   -8.5689    1.3929  -26.3210 H   0  0  0  0  0  0  0  0  0  0  0  0
   -8.6917    2.6102  -24.0376 H   0  0  0  0  0  0  0  0  0  0  0  0
   -6.5110    2.7572  -22.3670 H   0  0  0  0  0  0  0  0  0  0  0  0
   -7.6190    4.1315  -22.6612 H   0  0  0  0  0  0  0  0  0  0  0  0
   -6.1339    3.9624  -23.6228 H   0  0  0  0  0  0  0  0  0  0  0  0
  1  2  1  0
  2  3  1  0
  3  4  2  0
  3  5  1  0
  5  6  1  0
  6  7  1  0
  8  7  1  6
  8  9  1  0
  9 10  2  0
  9 11  1  0
 11 12  1  0
 12 13  2  0
 13 14  1  0
 14 15  2  0
 15 16  1  0
 16 17  2  0
 17 18  1  0
 18 19  2  0
 19 20  1  0
 20 21  2  0
 20 22  1  0
 19 23  1  0
 18 24  1  0
 17 25  1  0
 15 26  1  0
 13 27  1  0
 11 28  1  0
 28 29  1  0
 29 30  1  0
 30 31  1  0
 31 32  1  0
 32 33  1  0
 33 34  1  0
 33 35  1  0
 33 36  1  0
 32 37  1  0
 37 38  1  0
 37 39  1  0
 37 40  1  0
 32 41  1  0
 30 42  1  0
 30 43  1  0
 29 44  1  1
 28 45  1  0
 28 46  1  0
  8 47  1  0
 47 48  2  0
 48 49  1  0
 49 50  1  0
 49 51  2  0
 51 52  1  0
 52 53  2  0
 53 54  1  0
 54 55  2  0
 52 56  1  0
 51 57  1  0
 48 58  1  0
  7 59  1  0
  7 60  1  0
  5 61  1  0
  5 62  1  0
  2 63  1  0
  1 64  1  0
  1 65  1  0
  1 66  1  0
 54  6  1  0
 29  8  1  0
 53 47  1  0
 21 12  1  0
 21 16  1  0
M  END
>  <cnnaffinities>  (93) 
[7.02192, 7.03612, 6.63168]

>  <score>  (93) 
7.02192

>  <index>  (93) 
96

>  <Smiles>  (93) 
C(N(C(=O)C(N1C([C@@]2(C(=O)N(c3c(nc(c4c(c(c(c(c34)[H])[H])[H])[H])[H])[H])C([C@@]2(C(OC(C([H])([H])[H])(C([H])([H])[H])[H])([H])[H])[H])([H])[H])c2c(c(Cl)c(c(c2C1=O)[H])[H])[H])([H])[H])([H])[H])[H])([H])([H])[H]

>  <h>  (93) 
<NA>

>  <Training>  (93) 
True

>  <Success>  (93) 
True

>  <enamine_searched>  (93) 
False

>  <enamine_id>  (93) 
nan

$$$$

     RDKit          3D

 40 43  0  0  0  0  0  0  0  0999 V2000
  -10.3042   -3.7779  -25.0254 C   0  0  0  0  0  0  0  0  0  0  0  0
  -10.6336   -2.3251  -24.6894 C   0  0  2  0  0  0  0  0  0  0  0  0
  -10.1114   -1.3720  -25.7636 C   0  0  0  0  0  0  0  0  0  0  0  0
   -8.7052   -1.2436  -25.7114 O   0  0  0  0  0  0  0  0  0  0  0  0
   -8.3043   -0.6123  -24.5142 C   0  0  0  0  0  0  0  0  0  0  0  0
   -8.6423   -1.4611  -23.2716 C   0  0  1  0  0  0  0  0  0  0  0  0
  -10.1262   -1.8750  -23.3139 C   0  0  0  0  0  0  0  0  0  0  0  0
  -10.7220   -1.0169  -22.9911 H   0  0  0  0  0  0  0  0  0  0  0  0
  -10.2815   -2.6654  -22.5712 H   0  0  0  0  0  0  0  0  0  0  0  0
   -7.7447   -2.5910  -23.1144 N   0  0  0  0  0  0  0  0  0  0  0  0
   -6.9659   -2.5721  -21.9851 C   0  0  0  0  0  0  0  0  0  0  0  0
   -6.1117   -3.3569  -21.6461 O   0  0  0  0  0  0  0  0  0  0  0  0
   -7.3734   -1.4207  -21.2617 N   0  0  0  0  0  0  0  0  0  0  0  0
   -6.5893   -0.8397  -20.2019 C   0  0  0  0  0  0  0  0  0  0  0  0
   -6.8923   -1.0550  -18.8794 C   0  0  0  0  0  0  0  0  0  0  0  0
   -6.1967   -0.5451  -17.8221 N   0  0  0  0  0  0  0  0  0  0  0  0
   -5.1604    0.2212  -18.0687 C   0  0  0  0  0  0  0  0  0  0  0  0
   -4.7246    0.5334  -19.3890 C   0  0  0  0  0  0  0  0  0  0  0  0
   -3.5948    1.3654  -19.6281 C   0  0  0  0  0  0  0  0  0  0  0  0
   -3.2065    1.6447  -20.9125 C   0  0  0  0  0  0  0  0  0  0  0  0
   -3.9233    1.1076  -22.0029 C   0  0  0  0  0  0  0  0  0  0  0  0
   -5.0155    0.3036  -21.7937 C   0  0  0  0  0  0  0  0  0  0  0  0
   -5.4519   -0.0055  -20.4783 C   0  0  0  0  0  0  0  0  0  0  0  0
   -5.5599   -0.1064  -22.6376 H   0  0  0  0  0  0  0  0  0  0  0  0
   -3.6113    1.3314  -23.0180 H   0  0  0  0  0  0  0  0  0  0  0  0
   -2.3483    2.2815  -21.1048 H   0  0  0  0  0  0  0  0  0  0  0  0
   -3.0498    1.7788  -18.7821 H   0  0  0  0  0  0  0  0  0  0  0  0
   -4.6018    0.6280  -17.2182 H   0  0  0  0  0  0  0  0  0  0  0  0
   -7.7403   -1.6773  -18.6081 H   0  0  0  0  0  0  0  0  0  0  0  0
   -8.3264   -0.6853  -21.9934 C   0  0  0  0  0  0  0  0  0  0  0  0
   -8.7889    0.3775  -21.6650 O   0  0  0  0  0  0  0  0  0  0  0  0
   -7.5429   -3.2308  -23.8633 H   0  0  0  0  0  0  0  0  0  0  0  0
   -7.2185   -0.4608  -24.5702 H   0  0  0  0  0  0  0  0  0  0  0  0
   -8.7803    0.3762  -24.4283 H   0  0  0  0  0  0  0  0  0  0  0  0
  -10.5624   -0.3713  -25.6579 H   0  0  0  0  0  0  0  0  0  0  0  0
  -10.3530   -1.7427  -26.7650 H   0  0  0  0  0  0  0  0  0  0  0  0
  -11.7271   -2.2308  -24.6776 H   0  0  0  0  0  0  0  0  0  0  0  0
  -10.5608   -4.4414  -24.1943 H   0  0  0  0  0  0  0  0  0  0  0  0
  -10.8750   -4.1027  -25.9014 H   0  0  0  0  0  0  0  0  0  0  0  0
   -9.2450   -3.9148  -25.2571 H   0  0  0  0  0  0  0  0  0  0  0  0
  1  2  1  0
  2  3  1  0
  3  4  1  0
  4  5  1  0
  5  6  1  0
  6  7  1  0
  7  8  1  0
  7  9  1  0
  6 10  1  6
 10 11  1  0
 11 12  2  0
 11 13  1  0
 13 14  1  0
 14 15  2  0
 15 16  1  0
 16 17  2  0
 17 18  1  0
 18 19  2  0
 19 20  1  0
 20 21  2  0
 21 22  1  0
 22 23  2  0
 22 24  1  0
 21 25  1  0
 20 26  1  0
 19 27  1  0
 17 28  1  0
 15 29  1  0
 13 30  1  0
 30 31  2  0
 10 32  1  0
  5 33  1  0
  5 34  1  0
  3 35  1  0
  3 36  1  0
  2 37  1  1
  1 38  1  0
  1 39  1  0
  1 40  1  0
  7  2  1  0
 23 14  1  0
 30  6  1  0
 23 18  1  0
M  END
>  <cnnaffinities>  (94) 
[5.07504, 5.50267]

>  <score>  (94) 
5.07504

>  <index>  (94) 
97

>  <Smiles>  (94) 
C([C@@]1(C(OC([C@@]2(C1([H])[H])N(C(=O)N(c1c(nc(c3c(c(c(c(c13)[H])[H])[H])[H])[H])[H])C2=O)[H])([H])[H])([H])[H])[H])([H])([H])[H]

>  <h>  (94) 
<NA>

>  <Training>  (94) 
True

>  <Success>  (94) 
True

>  <enamine_searched>  (94) 
False

>  <enamine_id>  (94) 
nan

$$$$
