
     RDKit          3D

 66 71  0  0  0  0  0  0  0  0999 V2000
   -7.3709    3.3863  -21.9095 C   0  0  0  0  0  0  0  0  0  0  0  0
   -8.3155    2.8965  -22.8991 N   0  0  0  0  0  0  0  0  0  0  0  0
   -7.8067    2.1689  -23.9342 C   0  0  0  0  0  0  0  0  0  0  0  0
   -6.6042    1.9835  -24.0674 O   0  0  0  0  0  0  0  0  0  0  0  0
   -8.8125    1.5765  -24.9198 C   0  0  0  0  0  0  0  0  0  0  0  0
   -9.4555    0.4146  -24.3354 N   0  0  0  0  0  0  0  0  0  0  0  0
   -8.6769   -0.8067  -24.1811 C   0  0  0  0  0  0  0  0  0  0  0  0
   -9.0359   -1.5401  -22.8664 C   0  0  2  0  0  0  0  0  0  0  0  0
   -8.5251   -0.7563  -21.6401 C   0  0  0  0  0  0  0  0  0  0  0  0
   -9.0188    0.2301  -21.1234 O   0  0  0  0  0  0  0  0  0  0  0  0
   -7.3815   -1.3754  -21.1958 N   0  0  0  0  0  0  0  0  0  0  0  0
   -6.6022   -0.8061  -20.1681 C   0  0  0  0  0  0  0  0  0  0  0  0
   -6.9347   -1.0275  -18.8562 C   0  0  0  0  0  0  0  0  0  0  0  0
   -6.2406   -0.5376  -17.8019 N   0  0  0  0  0  0  0  0  0  0  0  0
   -5.1918    0.2052  -18.0711 C   0  0  0  0  0  0  0  0  0  0  0  0
   -4.7474    0.5213  -19.3877 C   0  0  0  0  0  0  0  0  0  0  0  0
   -3.6206    1.3493  -19.6296 C   0  0  0  0  0  0  0  0  0  0  0  0
   -3.2388    1.6494  -20.9084 C   0  0  0  0  0  0  0  0  0  0  0  0
   -3.9679    1.1472  -22.0098 C   0  0  0  0  0  0  0  0  0  0  0  0
   -5.0647    0.3447  -21.8042 C   0  0  0  0  0  0  0  0  0  0  0  0
   -5.4741    0.0064  -20.4838 C   0  0  0  0  0  0  0  0  0  0  0  0
   -5.6384   -0.0013  -22.6589 H   0  0  0  0  0  0  0  0  0  0  0  0
   -3.6707    1.4054  -23.0204 H   0  0  0  0  0  0  0  0  0  0  0  0
   -2.3767    2.2845  -21.0840 H   0  0  0  0  0  0  0  0  0  0  0  0
   -3.0872    1.7500  -18.7730 H   0  0  0  0  0  0  0  0  0  0  0  0
   -4.6317    0.6008  -17.2246 H   0  0  0  0  0  0  0  0  0  0  0  0
   -7.8044   -1.6373  -18.6249 H   0  0  0  0  0  0  0  0  0  0  0  0
   -6.9985   -2.5556  -21.9428 C   0  0  0  0  0  0  0  0  0  0  0  0
   -8.2866   -2.8892  -22.7004 C   0  0  2  0  0  0  0  0  0  0  0  0
   -8.1049   -3.7301  -23.9649 C   0  0  0  0  0  0  0  0  0  0  0  0
   -7.6642   -5.0752  -23.6839 N   0  0  0  0  0  0  0  0  0  0  0  0
   -6.3615   -5.4121  -23.4994 C   0  0  0  0  0  0  0  0  0  0  0  0
   -5.2884   -4.7167  -24.0953 C   0  0  0  0  0  0  0  0  0  0  0  0
   -4.0416   -5.2976  -23.9843 C   0  0  0  0  0  0  0  0  0  0  0  0
   -3.8068   -6.3850  -23.2447 N   0  0  0  0  0  0  0  0  0  0  0  0
   -4.8751   -6.8767  -22.6291 C   0  0  0  0  0  0  0  0  0  0  0  0
   -6.1422   -6.4882  -22.7317 N   0  0  0  0  0  0  0  0  0  0  0  0
   -4.6901   -7.6995  -21.9474 H   0  0  0  0  0  0  0  0  0  0  0  0
   -3.1829   -4.8655  -24.5129 H   0  0  0  0  0  0  0  0  0  0  0  0
   -5.4275   -3.7701  -24.6093 H   0  0  0  0  0  0  0  0  0  0  0  0
   -8.3178   -5.7317  -23.2716 H   0  0  0  0  0  0  0  0  0  0  0  0
   -7.3785   -3.2500  -24.6264 H   0  0  0  0  0  0  0  0  0  0  0  0
   -9.0467   -3.7750  -24.5203 H   0  0  0  0  0  0  0  0  0  0  0  0
   -8.8777   -3.4919  -22.0087 H   0  0  0  0  0  0  0  0  0  0  0  0
   -6.1511   -2.3661  -22.6213 H   0  0  0  0  0  0  0  0  0  0  0  0
   -6.7008   -3.3518  -21.2557 H   0  0  0  0  0  0  0  0  0  0  0  0
  -10.5346   -1.6473  -22.7756 C   0  0  0  0  0  0  0  0  0  0  0  0
  -11.0953   -2.5630  -21.8860 C   0  0  0  0  0  0  0  0  0  0  0  0
  -12.4589   -2.6098  -21.7130 C   0  0  0  0  0  0  0  0  0  0  0  0
  -13.0623   -3.6956  -20.4973 Cl  0  0  0  0  0  0  0  0  0  0  0  0
  -13.3154   -1.7797  -22.4343 C   0  0  0  0  0  0  0  0  0  0  0  0
  -12.7650   -0.8467  -23.2918 C   0  0  0  0  0  0  0  0  0  0  0  0
  -11.3804   -0.7450  -23.4294 C   0  0  0  0  0  0  0  0  0  0  0  0
  -10.8209    0.4034  -24.2157 C   0  0  0  0  0  0  0  0  0  0  0  0
  -11.5296    1.2835  -24.6854 O   0  0  0  0  0  0  0  0  0  0  0  0
  -13.3873   -0.1546  -23.8465 H   0  0  0  0  0  0  0  0  0  0  0  0
  -14.3854   -1.8505  -22.2840 H   0  0  0  0  0  0  0  0  0  0  0  0
  -10.4911   -3.2374  -21.2907 H   0  0  0  0  0  0  0  0  0  0  0  0
   -7.6127   -0.5476  -24.2033 H   0  0  0  0  0  0  0  0  0  0  0  0
   -8.8728   -1.4759  -25.0309 H   0  0  0  0  0  0  0  0  0  0  0  0
   -9.6013    2.2844  -25.1944 H   0  0  0  0  0  0  0  0  0  0  0  0
   -8.2713    1.2915  -25.8301 H   0  0  0  0  0  0  0  0  0  0  0  0
   -9.2550    2.6910  -22.5808 H   0  0  0  0  0  0  0  0  0  0  0  0
   -6.8177    2.5461  -21.4608 H   0  0  0  0  0  0  0  0  0  0  0  0
   -7.9020    3.9618  -21.1483 H   0  0  0  0  0  0  0  0  0  0  0  0
   -6.6569    4.0621  -22.3873 H   0  0  0  0  0  0  0  0  0  0  0  0
  1  2  1  0
  2  3  1  0
  3  4  2  0
  3  5  1  0
  5  6  1  0
  6  7  1  0
  8  7  1  6
  8  9  1  0
  9 10  2  0
  9 11  1  0
 11 12  1  0
 12 13  2  0
 13 14  1  0
 14 15  2  0
 15 16  1  0
 16 17  2  0
 17 18  1  0
 18 19  2  0
 19 20  1  0
 20 21  2  0
 20 22  1  0
 19 23  1  0
 18 24  1  0
 17 25  1  0
 15 26  1  0
 13 27  1  0
 11 28  1  0
 28 29  1  0
 29 30  1  0
 30 31  1  0
 31 32  1  0
 32 33  2  0
 33 34  1  0
 34 35  2  0
 35 36  1  0
 36 37  2  0
 36 38  1  0
 34 39  1  0
 33 40  1  0
 31 41  1  0
 30 42  1  0
 30 43  1  0
 29 44  1  1
 28 45  1  0
 28 46  1  0
  8 47  1  0
 47 48  2  0
 48 49  1  0
 49 50  1  0
 49 51  2  0
 51 52  1  0
 52 53  2  0
 53 54  1  0
 54 55  2  0
 52 56  1  0
 51 57  1  0
 48 58  1  0
  7 59  1  0
  7 60  1  0
  5 61  1  0
  5 62  1  0
  2 63  1  0
  1 64  1  0
  1 65  1  0
  1 66  1  0
 54  6  1  0
 29  8  1  0
 37 32  1  0
 53 47  1  0
 21 12  1  0
 21 16  1  0
M  END
>  <cnnaffinities>  (1) 
[6.54644, 6.65366, 6.07961]

>  <score>  (1) 
6.54644

>  <index>  (1) 
0

>  <Smiles>  (1) 
C(N(C(=O)C(N1C([C@@]2(C(=O)N(c3c(nc(c4c(c(c(c(c34)[H])[H])[H])[H])[H])[H])C([C@@]2(C(N(c2c(c(nc(n2)[H])[H])[H])[H])([H])[H])[H])([H])[H])c2c(c(Cl)c(c(c2C1=O)[H])[H])[H])([H])[H])([H])[H])[H])([H])([H])[H]

>  <h>  (1) 
<NA>

>  <Training>  (1) 
True

>  <Success>  (1) 
True

>  <enamine_searched>  (1) 
False

>  <enamine_id>  (1) 
nan

$$$$

     RDKit          3D

 68 73  0  0  0  0  0  0  0  0999 V2000
   -7.5206   -5.9792  -26.7895 C   0  0  0  0  0  0  0  0  0  0  0  0
   -7.8978   -4.5938  -26.9971 N   0  0  0  0  0  0  0  0  0  0  0  0
   -7.0032   -3.6206  -26.6947 C   0  0  0  0  0  0  0  0  0  0  0  0
   -5.8860   -3.8612  -26.2619 O   0  0  0  0  0  0  0  0  0  0  0  0
   -7.5248   -2.1917  -26.8624 C   0  0  0  0  0  0  0  0  0  0  0  0
   -8.3980   -1.8493  -25.7489 N   0  0  0  0  0  0  0  0  0  0  0  0
   -7.8321   -1.3169  -24.5101 C   0  0  0  0  0  0  0  0  0  0  0  0
   -8.6839   -1.6113  -23.2338 C   0  0  2  0  0  0  0  0  0  0  0  0
   -8.1345   -0.6782  -22.1400 C   0  0  0  0  0  0  0  0  0  0  0  0
   -8.2612    0.5276  -22.0894 O   0  0  0  0  0  0  0  0  0  0  0  0
   -7.3953   -1.4223  -21.2402 N   0  0  0  0  0  0  0  0  0  0  0  0
   -6.6114   -0.8277  -20.2178 C   0  0  0  0  0  0  0  0  0  0  0  0
   -6.9172   -1.0705  -18.9035 C   0  0  0  0  0  0  0  0  0  0  0  0
   -6.2454   -0.5604  -17.8421 N   0  0  0  0  0  0  0  0  0  0  0  0
   -5.2122    0.2036  -18.1041 C   0  0  0  0  0  0  0  0  0  0  0  0
   -4.7624    0.5137  -19.4167 C   0  0  0  0  0  0  0  0  0  0  0  0
   -3.6269    1.3370  -19.6301 C   0  0  0  0  0  0  0  0  0  0  0  0
   -3.1965    1.6090  -20.8968 C   0  0  0  0  0  0  0  0  0  0  0  0
   -3.8814    1.0665  -22.0088 C   0  0  0  0  0  0  0  0  0  0  0  0
   -4.9839    0.2727  -21.8280 C   0  0  0  0  0  0  0  0  0  0  0  0
   -5.4678   -0.0175  -20.5211 C   0  0  0  0  0  0  0  0  0  0  0  0
   -5.5048   -0.1259  -22.6939 H   0  0  0  0  0  0  0  0  0  0  0  0
   -3.5295    1.2884  -23.0101 H   0  0  0  0  0  0  0  0  0  0  0  0
   -2.3294    2.2415  -21.0575 H   0  0  0  0  0  0  0  0  0  0  0  0
   -3.1194    1.7495  -18.7608 H   0  0  0  0  0  0  0  0  0  0  0  0
   -4.6667    0.6128  -17.2533 H   0  0  0  0  0  0  0  0  0  0  0  0
   -7.7695   -1.7029  -18.6605 H   0  0  0  0  0  0  0  0  0  0  0  0
   -7.3478   -2.8445  -21.5371 C   0  0  0  0  0  0  0  0  0  0  0  0
   -8.4898   -3.0183  -22.5521 C   0  0  2  0  0  0  0  0  0  0  0  0
   -8.3024   -4.1840  -23.5328 C   0  0  0  0  0  0  0  0  0  0  0  0
   -8.2611   -5.4938  -22.9295 N   0  0  0  0  0  0  0  0  0  0  0  0
   -7.0868   -6.2149  -22.7666 C   0  0  0  0  0  0  0  0  0  0  0  0
   -6.9779   -7.5605  -22.3300 C   0  0  0  0  0  0  0  0  0  0  0  0
   -5.7131   -7.9405  -22.2340 N   0  0  0  0  0  0  0  0  0  0  0  0
   -4.9887   -6.8916  -22.6339 N   0  0  0  0  0  0  0  0  0  0  0  0
   -3.5431   -7.0037  -22.6859 C   0  0  0  0  0  0  0  0  0  0  0  0
   -3.2538   -7.7890  -21.9827 H   0  0  0  0  0  0  0  0  0  0  0  0
   -3.1722   -7.2917  -23.6787 H   0  0  0  0  0  0  0  0  0  0  0  0
   -3.0868   -6.0481  -22.4055 H   0  0  0  0  0  0  0  0  0  0  0  0
   -5.7740   -5.8266  -22.9723 C   0  0  0  0  0  0  0  0  0  0  0  0
   -5.3335   -4.9161  -23.3661 H   0  0  0  0  0  0  0  0  0  0  0  0
   -7.7664   -8.2551  -22.0504 H   0  0  0  0  0  0  0  0  0  0  0  0
   -9.0838   -5.8335  -22.4511 H   0  0  0  0  0  0  0  0  0  0  0  0
   -9.1370   -4.1323  -24.2462 H   0  0  0  0  0  0  0  0  0  0  0  0
   -7.3622   -4.0483  -24.0779 H   0  0  0  0  0  0  0  0  0  0  0  0
   -9.4088   -3.2021  -21.9698 H   0  0  0  0  0  0  0  0  0  0  0  0
   -6.3650   -3.1391  -21.9457 H   0  0  0  0  0  0  0  0  0  0  0  0
   -7.4949   -3.4239  -20.6187 H   0  0  0  0  0  0  0  0  0  0  0  0
  -10.1369   -1.3306  -23.5722 C   0  0  0  0  0  0  0  0  0  0  0  0
  -11.0860   -1.1152  -22.5670 C   0  0  0  0  0  0  0  0  0  0  0  0
  -12.4308   -1.0425  -22.8918 C   0  0  0  0  0  0  0  0  0  0  0  0
  -13.6409   -1.1886  -21.6614 Cl  0  0  0  0  0  0  0  0  0  0  0  0
  -12.8713   -0.9699  -24.2098 C   0  0  0  0  0  0  0  0  0  0  0  0
  -11.9345   -1.1442  -25.2028 C   0  0  0  0  0  0  0  0  0  0  0  0
  -10.6063   -1.4073  -24.8848 C   0  0  0  0  0  0  0  0  0  0  0  0
   -9.7392   -1.8867  -25.9873 C   0  0  0  0  0  0  0  0  0  0  0  0
  -10.2077   -2.3202  -27.0356 O   0  0  0  0  0  0  0  0  0  0  0  0
  -12.2274   -1.1747  -26.2432 H   0  0  0  0  0  0  0  0  0  0  0  0
  -13.9230   -0.8392  -24.4394 H   0  0  0  0  0  0  0  0  0  0  0  0
  -10.7777   -1.0058  -21.5351 H   0  0  0  0  0  0  0  0  0  0  0  0
   -7.7593   -0.2226  -24.5967 H   0  0  0  0  0  0  0  0  0  0  0  0
   -6.8155   -1.7207  -24.3915 H   0  0  0  0  0  0  0  0  0  0  0  0
   -6.6893   -1.4894  -26.9160 H   0  0  0  0  0  0  0  0  0  0  0  0
   -8.1131   -2.1024  -27.7800 H   0  0  0  0  0  0  0  0  0  0  0  0
   -8.8474   -4.3389  -27.2354 H   0  0  0  0  0  0  0  0  0  0  0  0
   -7.2023   -6.1405  -25.7494 H   0  0  0  0  0  0  0  0  0  0  0  0
   -8.3766   -6.6185  -27.0063 H   0  0  0  0  0  0  0  0  0  0  0  0
   -6.6936   -6.2455  -27.4569 H   0  0  0  0  0  0  0  0  0  0  0  0
  1  2  1  0
  2  3  1  0
  3  4  2  0
  3  5  1  0
  5  6  1  0
  6  7  1  0
  8  7  1  6
  8  9  1  0
  9 10  2  0
  9 11  1  0
 11 12  1  0
 12 13  2  0
 13 14  1  0
 14 15  2  0
 15 16  1  0
 16 17  2  0
 17 18  1  0
 18 19  2  0
 19 20  1  0
 20 21  2  0
 20 22  1  0
 19 23  1  0
 18 24  1  0
 17 25  1  0
 15 26  1  0
 13 27  1  0
 11 28  1  0
 28 29  1  0
 29 30  1  0
 30 31  1  0
 31 32  1  0
 32 33  1  0
 33 34  2  0
 34 35  1  0
 35 36  1  0
 36 37  1  0
 36 38  1  0
 36 39  1  0
 35 40  1  0
 40 41  1  0
 33 42  1  0
 31 43  1  0
 30 44  1  0
 30 45  1  0
 29 46  1  1
 28 47  1  0
 28 48  1  0
  8 49  1  0
 49 50  2  0
 50 51  1  0
 51 52  1  0
 51 53  2  0
 53 54  1  0
 54 55  2  0
 55 56  1  0
 56 57  2  0
 54 58  1  0
 53 59  1  0
 50 60  1  0
  7 61  1  0
  7 62  1  0
  5 63  1  0
  5 64  1  0
  2 65  1  0
  1 66  1  0
  1 67  1  0
  1 68  1  0
 56  6  1  0
 29  8  1  0
 40 32  2  0
 55 49  1  0
 21 12  1  0
 21 16  1  0
M  END
>  <cnnaffinities>  (2) 
[6.39373, 6.68051, 6.58887]

>  <score>  (2) 
6.39373

>  <index>  (2) 
1

>  <Smiles>  (2) 
C(N(C(=O)C(N1C([C@@]2(C(=O)N(c3c(nc(c4c(c(c(c(c34)[H])[H])[H])[H])[H])[H])C([C@@]2(C(N(c2c(nn(C([H])([H])[H])c2[H])[H])[H])([H])[H])[H])([H])[H])c2c(c(Cl)c(c(c2C1=O)[H])[H])[H])([H])[H])([H])[H])[H])([H])([H])[H]

>  <h>  (2) 
<NA>

>  <Training>  (2) 
True

>  <Success>  (2) 
True

>  <enamine_searched>  (2) 
False

>  <enamine_id>  (2) 
nan

$$$$

     RDKit          3D

 60 65  0  0  0  0  0  0  0  0999 V2000
  -10.4773    0.0443  -30.0035 C   0  0  0  0  0  0  0  0  0  0  0  0
  -10.3350    0.1385  -28.5100 C   0  0  0  0  0  0  0  0  0  0  0  0
   -9.1429    0.4459  -27.8556 C   0  0  0  0  0  0  0  0  0  0  0  0
   -9.0781    0.6350  -26.5363 N   0  0  0  0  0  0  0  0  0  0  0  0
  -10.2205    0.5228  -25.8571 C   0  0  0  0  0  0  0  0  0  0  0  0
  -10.2125    0.7316  -24.3690 C   0  0  0  0  0  0  0  0  0  0  0  0
  -10.4033   -0.5154  -23.6518 N   0  0  0  0  0  0  0  0  0  0  0  0
   -9.3516   -1.5145  -23.7592 C   0  0  0  0  0  0  0  0  0  0  0  0
   -9.1321   -2.2544  -22.4224 C   0  0  2  0  0  0  0  0  0  0  0  0
   -8.5929   -1.2289  -21.4040 C   0  0  0  0  0  0  0  0  0  0  0  0
   -9.1892   -0.2915  -20.9225 O   0  0  0  0  0  0  0  0  0  0  0  0
   -7.2571   -1.4974  -21.1852 N   0  0  0  0  0  0  0  0  0  0  0  0
   -6.5511   -0.8502  -20.1492 C   0  0  0  0  0  0  0  0  0  0  0  0
   -6.9161   -1.0249  -18.8368 C   0  0  0  0  0  0  0  0  0  0  0  0
   -6.2389   -0.5047  -17.7832 N   0  0  0  0  0  0  0  0  0  0  0  0
   -5.1829    0.2285  -18.0472 C   0  0  0  0  0  0  0  0  0  0  0  0
   -4.7197    0.5193  -19.3618 C   0  0  0  0  0  0  0  0  0  0  0  0
   -3.5926    1.3474  -19.6026 C   0  0  0  0  0  0  0  0  0  0  0  0
   -3.2106    1.6399  -20.8828 C   0  0  0  0  0  0  0  0  0  0  0  0
   -3.9372    1.1264  -21.9814 C   0  0  0  0  0  0  0  0  0  0  0  0
   -5.0274    0.3187  -21.7741 C   0  0  0  0  0  0  0  0  0  0  0  0
   -5.4305   -0.0186  -20.4549 C   0  0  0  0  0  0  0  0  0  0  0  0
   -5.6038   -0.0473  -22.6179 H   0  0  0  0  0  0  0  0  0  0  0  0
   -3.6394    1.3808  -22.9941 H   0  0  0  0  0  0  0  0  0  0  0  0
   -2.3548    2.2836  -21.0652 H   0  0  0  0  0  0  0  0  0  0  0  0
   -3.0626    1.7555  -18.7463 H   0  0  0  0  0  0  0  0  0  0  0  0
   -4.6366    0.6396  -17.1974 H   0  0  0  0  0  0  0  0  0  0  0  0
   -7.7883   -1.6250  -18.5844 H   0  0  0  0  0  0  0  0  0  0  0  0
   -6.7237   -2.5462  -22.0373 C   0  0  0  0  0  0  0  0  0  0  0  0
   -7.9895   -3.3070  -22.4640 C   0  0  2  0  0  0  0  0  0  0  0  0
   -7.8650   -4.0839  -23.7684 C   0  0  0  0  0  0  0  0  0  0  0  0
   -7.5988   -3.4186  -24.5977 H   0  0  0  0  0  0  0  0  0  0  0  0
   -8.8185   -4.5655  -24.0178 H   0  0  0  0  0  0  0  0  0  0  0  0
   -7.0998   -4.8621  -23.6968 H   0  0  0  0  0  0  0  0  0  0  0  0
   -8.1682   -4.0165  -21.6482 H   0  0  0  0  0  0  0  0  0  0  0  0
   -6.1805   -2.1413  -22.9044 H   0  0  0  0  0  0  0  0  0  0  0  0
   -6.0222   -3.1753  -21.4789 H   0  0  0  0  0  0  0  0  0  0  0  0
  -10.5461   -2.8205  -22.0562 C   0  0  0  0  0  0  0  0  0  0  0  0
  -10.8932   -3.9304  -21.3670 C   0  0  0  0  0  0  0  0  0  0  0  0
  -13.1127   -2.9960  -20.6092 C   0  0  0  0  0  0  0  0  0  0  0  0
  -13.2283   -4.4581  -20.1693 F   0  0  0  0  0  0  0  0  0  0  0  0
  -13.1625   -3.1078  -20.5968 C   0  0  0  0  0  0  0  0  0  0  0  0
  -12.9615   -2.4448  -21.8792 C   0  0  0  0  0  0  0  0  0  0  0  0
  -11.6810   -2.0444  -22.4225 C   0  0  0  0  0  0  0  0  0  0  0  0
  -11.6741   -0.8882  -23.2556 C   0  0  0  0  0  0  0  0  0  0  0  0
  -12.6822   -0.2583  -23.5657 O   0  0  0  0  0  0  0  0  0  0  0  0
  -13.7657   -1.8870  -21.7260 H   0  0  0  0  0  0  0  0  0  0  0  0
  -14.0368   -2.5934  -19.7640 H   0  0  0  0  0  0  0  0  0  0  0  0
  -10.2657   -4.7472  -21.0133 H   0  0  0  0  0  0  0  0  0  0  0  0
   -9.6039   -2.2614  -24.5287 H   0  0  0  0  0  0  0  0  0  0  0  0
   -8.4343   -1.0010  -24.0531 H   0  0  0  0  0  0  0  0  0  0  0  0
   -9.2481    1.1619  -24.0759 H   0  0  0  0  0  0  0  0  0  0  0  0
  -11.0128    1.4131  -24.0576 H   0  0  0  0  0  0  0  0  0  0  0  0
  -11.4004    0.1572  -26.4959 C   0  0  0  0  0  0  0  0  0  0  0  0
  -11.4529   -0.0490  -27.8080 N   0  0  0  0  0  0  0  0  0  0  0  0
  -12.3252    0.0703  -25.9289 H   0  0  0  0  0  0  0  0  0  0  0  0
   -8.2121    0.5491  -28.4091 H   0  0  0  0  0  0  0  0  0  0  0  0
   -9.7304    0.6548  -30.5183 H   0  0  0  0  0  0  0  0  0  0  0  0
  -10.3900   -0.9885  -30.3560 H   0  0  0  0  0  0  0  0  0  0  0  0
  -11.4766    0.3951  -30.2760 H   0  0  0  0  0  0  0  0  0  0  0  0
  1  2  1  0
  2  3  2  0
  3  4  1  0
  4  5  2  0
  5  6  1  0
  6  7  1  0
  7  8  1  0
  9  8  1  6
  9 10  1  0
 10 11  2  0
 10 12  1  0
 12 13  1  0
 13 14  2  0
 14 15  1  0
 15 16  2  0
 16 17  1  0
 17 18  2  0
 18 19  1  0
 19 20  2  0
 20 21  1  0
 21 22  2  0
 21 23  1  0
 20 24  1  0
 19 25  1  0
 18 26  1  0
 16 27  1  0
 14 28  1  0
 12 29  1  0
 29 30  1  0
 30 31  1  0
 31 32  1  0
 31 33  1  0
 31 34  1  0
 30 35  1  1
 29 36  1  0
 29 37  1  0
  9 38  1  0
 38 39  2  0
 39 40  1  0
 40 41  1  0
 40 42  2  0
 42 43  1  0
 43 44  2  0
 44 45  1  0
 45 46  2  0
 43 47  1  0
 42 48  1  0
 39 49  1  0
  8 50  1  0
  8 51  1  0
  6 52  1  0
  6 53  1  0
  5 54  1  0
 54 55  2  0
 54 56  1  0
  3 57  1  0
  1 58  1  0
  1 59  1  0
  1 60  1  0
 55  2  1  0
 45  7  1  0
 30  9  1  0
 44 38  1  0
 22 13  1  0
 22 17  1  0
M  END
>  <cnnaffinities>  (3) 
[6.11751]

>  <score>  (3) 
6.11751

>  <index>  (3) 
2

>  <Smiles>  (3) 
C(c1c(nc(C(N2C([C@@]3(C(=O)N(c4c(nc(c5c(c(c(c(c45)[H])[H])[H])[H])[H])[H])C([C@@]3(C([H])([H])[H])[H])([H])[H])c3c(c(F)c(c(c3C2=O)[H])[H])[H])([H])[H])([H])[H])c(n1)[H])[H])([H])([H])[H]

>  <h>  (3) 
<NA>

>  <Training>  (3) 
True

>  <Success>  (3) 
True

>  <enamine_searched>  (3) 
False

>  <enamine_id>  (3) 
nan

$$$$

     RDKit          3D

 66 70  0  0  0  0  0  0  0  0999 V2000
   -7.4570    3.3140  -21.9076 C   0  0  0  0  0  0  0  0  0  0  0  0
   -8.4734    2.8185  -22.8257 N   0  0  0  0  0  0  0  0  0  0  0  0
   -8.0151    2.0930  -23.8879 C   0  0  0  0  0  0  0  0  0  0  0  0
   -6.8241    1.8959  -24.0744 O   0  0  0  0  0  0  0  0  0  0  0  0
   -9.0430    1.5018  -24.8407 C   0  0  0  0  0  0  0  0  0  0  0  0
   -9.5925    0.2896  -24.2665 N   0  0  0  0  0  0  0  0  0  0  0  0
   -8.7600   -0.8997  -24.1310 C   0  0  0  0  0  0  0  0  0  0  0  0
   -9.0629   -1.6769  -22.8177 C   0  0  2  0  0  0  0  0  0  0  0  0
   -8.5553   -0.8843  -21.5926 C   0  0  0  0  0  0  0  0  0  0  0  0
   -9.0865    0.0723  -21.0604 O   0  0  0  0  0  0  0  0  0  0  0  0
   -7.3603   -1.4358  -21.1877 N   0  0  0  0  0  0  0  0  0  0  0  0
   -6.5913   -0.8337  -20.1643 C   0  0  0  0  0  0  0  0  0  0  0  0
   -6.9276   -1.0363  -18.8501 C   0  0  0  0  0  0  0  0  0  0  0  0
   -6.2377   -0.5348  -17.7972 N   0  0  0  0  0  0  0  0  0  0  0  0
   -5.1902    0.2074  -18.0715 C   0  0  0  0  0  0  0  0  0  0  0  0
   -4.7458    0.5174  -19.3892 C   0  0  0  0  0  0  0  0  0  0  0  0
   -3.6227    1.3519  -19.6298 C   0  0  0  0  0  0  0  0  0  0  0  0
   -3.2407    1.6486  -20.9091 C   0  0  0  0  0  0  0  0  0  0  0  0
   -3.9667    1.1384  -22.0069 C   0  0  0  0  0  0  0  0  0  0  0  0
   -5.0613    0.3319  -21.8038 C   0  0  0  0  0  0  0  0  0  0  0  0
   -5.4692   -0.0099  -20.4838 C   0  0  0  0  0  0  0  0  0  0  0  0
   -5.6368   -0.0095  -22.6591 H   0  0  0  0  0  0  0  0  0  0  0  0
   -3.6605    1.3914  -23.0171 H   0  0  0  0  0  0  0  0  0  0  0  0
   -2.3841    2.2918  -21.0851 H   0  0  0  0  0  0  0  0  0  0  0  0
   -3.0940    1.7578  -18.7717 H   0  0  0  0  0  0  0  0  0  0  0  0
   -4.6348    0.6128  -17.2260 H   0  0  0  0  0  0  0  0  0  0  0  0
   -7.7952   -1.6480  -18.6153 H   0  0  0  0  0  0  0  0  0  0  0  0
   -6.9353   -2.5933  -21.9524 C   0  0  0  0  0  0  0  0  0  0  0  0
   -8.2147   -2.9827  -22.7161 C   0  0  2  0  0  0  0  0  0  0  0  0
   -7.9300   -3.6805  -24.0410 C   0  0  0  0  0  0  0  0  0  0  0  0
   -7.2184   -4.8755  -23.8040 O   0  0  0  0  0  0  0  0  0  0  0  0
   -7.0451   -5.6944  -24.9557 C   0  0  0  0  0  0  0  0  0  0  0  0
   -5.6711   -6.3476  -24.8672 C   0  0  0  0  0  0  0  0  0  0  0  0
   -5.4906   -6.9638  -25.7586 H   0  0  0  0  0  0  0  0  0  0  0  0
   -4.8851   -5.5872  -24.8006 H   0  0  0  0  0  0  0  0  0  0  0  0
   -5.6202   -6.9874  -23.9777 H   0  0  0  0  0  0  0  0  0  0  0  0
   -8.1511   -6.7447  -25.0378 C   0  0  0  0  0  0  0  0  0  0  0  0
   -8.1243   -7.3873  -24.1497 H   0  0  0  0  0  0  0  0  0  0  0  0
   -9.1455   -6.2854  -25.1008 H   0  0  0  0  0  0  0  0  0  0  0  0
   -8.0060   -7.3704  -25.9279 H   0  0  0  0  0  0  0  0  0  0  0  0
   -7.0813   -5.0667  -25.8623 H   0  0  0  0  0  0  0  0  0  0  0  0
   -8.8806   -3.8850  -24.5585 H   0  0  0  0  0  0  0  0  0  0  0  0
   -7.3254   -3.0288  -24.6942 H   0  0  0  0  0  0  0  0  0  0  0  0
   -8.7557   -3.6994  -22.0924 H   0  0  0  0  0  0  0  0  0  0  0  0
   -6.1057   -2.3479  -22.6344 H   0  0  0  0  0  0  0  0  0  0  0  0
   -6.5920   -3.3923  -21.2874 H   0  0  0  0  0  0  0  0  0  0  0  0
  -10.5633   -1.8570  -22.7256 C   0  0  0  0  0  0  0  0  0  0  0  0
  -11.1122   -2.8090  -21.8625 C   0  0  0  0  0  0  0  0  0  0  0  0
  -12.4758   -2.8345  -21.6392 C   0  0  0  0  0  0  0  0  0  0  0  0
  -13.0854   -3.9264  -20.4333 Cl  0  0  0  0  0  0  0  0  0  0  0  0
  -13.3462   -1.9795  -22.3191 C   0  0  0  0  0  0  0  0  0  0  0  0
  -12.8166   -1.0713  -23.2049 C   0  0  0  0  0  0  0  0  0  0  0  0
  -11.4393   -0.9681  -23.3621 C   0  0  0  0  0  0  0  0  0  0  0  0
  -10.9470    0.2112  -24.1317 C   0  0  0  0  0  0  0  0  0  0  0  0
  -11.7110    1.0641  -24.5678 O   0  0  0  0  0  0  0  0  0  0  0  0
  -13.4466   -0.3826  -23.7579 H   0  0  0  0  0  0  0  0  0  0  0  0
  -14.4137   -1.9752  -22.1362 H   0  0  0  0  0  0  0  0  0  0  0  0
  -10.4928   -3.5199  -21.3274 H   0  0  0  0  0  0  0  0  0  0  0  0
   -8.9435   -1.5756  -24.9803 H   0  0  0  0  0  0  0  0  0  0  0  0
   -7.7071   -0.5986  -24.1617 H   0  0  0  0  0  0  0  0  0  0  0  0
   -8.5671    1.2781  -25.8017 H   0  0  0  0  0  0  0  0  0  0  0  0
   -9.8885    2.1656  -25.0316 H   0  0  0  0  0  0  0  0  0  0  0  0
   -9.3977    2.6275  -22.4485 H   0  0  0  0  0  0  0  0  0  0  0  0
   -6.7198    3.8870  -22.4802 H   0  0  0  0  0  0  0  0  0  0  0  0
   -7.9005    3.9962  -21.1732 H   0  0  0  0  0  0  0  0  0  0  0  0
   -6.9454    2.4594  -21.4293 H   0  0  0  0  0  0  0  0  0  0  0  0
  1  2  1  0
  2  3  1  0
  3  4  2  0
  3  5  1  0
  5  6  1  0
  6  7  1  0
  8  7  1  6
  8  9  1  0
  9 10  2  0
  9 11  1  0
 11 12  1  0
 12 13  2  0
 13 14  1  0
 14 15  2  0
 15 16  1  0
 16 17  2  0
 17 18  1  0
 18 19  2  0
 19 20  1  0
 20 21  2  0
 20 22  1  0
 19 23  1  0
 18 24  1  0
 17 25  1  0
 15 26  1  0
 13 27  1  0
 11 28  1  0
 28 29  1  0
 29 30  1  0
 30 31  1  0
 31 32  1  0
 32 33  1  0
 33 34  1  0
 33 35  1  0
 33 36  1  0
 32 37  1  0
 37 38  1  0
 37 39  1  0
 37 40  1  0
 32 41  1  0
 30 42  1  0
 30 43  1  0
 29 44  1  1
 28 45  1  0
 28 46  1  0
  8 47  1  0
 47 48  2  0
 48 49  1  0
 49 50  1  0
 49 51  2  0
 51 52  1  0
 52 53  2  0
 53 54  1  0
 54 55  2  0
 52 56  1  0
 51 57  1  0
 48 58  1  0
  7 59  1  0
  7 60  1  0
  5 61  1  0
  5 62  1  0
  2 63  1  0
  1 64  1  0
  1 65  1  0
  1 66  1  0
 54  6  1  0
 29  8  1  0
 53 47  1  0
 21 12  1  0
 21 16  1  0
M  END
>  <cnnaffinities>  (4) 
[6.48066]

>  <score>  (4) 
6.48066

>  <index>  (4) 
3

>  <Smiles>  (4) 
C(N(C(=O)C(N1C([C@@]2(C(=O)N(c3c(nc(c4c(c(c(c(c34)[H])[H])[H])[H])[H])[H])C([C@@]2(C(OC(C([H])([H])[H])(C([H])([H])[H])[H])([H])[H])[H])([H])[H])c2c(c(Cl)c(c(c2C1=O)[H])[H])[H])([H])[H])([H])[H])[H])([H])([H])[H]

>  <h>  (4) 
<NA>

>  <Training>  (4) 
True

>  <Success>  (4) 
True

>  <enamine_searched>  (4) 
False

>  <enamine_id>  (4) 
nan

$$$$

     RDKit          3D

 59 64  0  0  0  0  0  0  0  0999 V2000
   -8.2661   -4.1094  -23.5378 C   0  0  0  0  0  0  0  0  0  0  0  0
   -8.5197   -2.9669  -22.5573 C   0  0  1  0  0  0  0  0  0  0  0  0
   -7.3962   -2.7988  -21.5201 C   0  0  0  0  0  0  0  0  0  0  0  0
   -7.4207   -1.3816  -21.2019 N   0  0  0  0  0  0  0  0  0  0  0  0
   -6.6125   -0.8019  -20.1853 C   0  0  0  0  0  0  0  0  0  0  0  0
   -6.8983   -1.0515  -18.8675 C   0  0  0  0  0  0  0  0  0  0  0  0
   -6.2036   -0.5509  -17.8151 N   0  0  0  0  0  0  0  0  0  0  0  0
   -5.1713    0.2123  -18.0834 C   0  0  0  0  0  0  0  0  0  0  0  0
   -4.7336    0.5261  -19.4002 C   0  0  0  0  0  0  0  0  0  0  0  0
   -3.5964    1.3474  -19.6350 C   0  0  0  0  0  0  0  0  0  0  0  0
   -3.1838    1.6161  -20.9102 C   0  0  0  0  0  0  0  0  0  0  0  0
   -3.8839    1.0650  -22.0090 C   0  0  0  0  0  0  0  0  0  0  0  0
   -4.9835    0.2715  -21.8058 C   0  0  0  0  0  0  0  0  0  0  0  0
   -5.4594   -0.0026  -20.4933 C   0  0  0  0  0  0  0  0  0  0  0  0
   -5.5146   -0.1428  -22.6567 H   0  0  0  0  0  0  0  0  0  0  0  0
   -3.5573    1.2877  -23.0197 H   0  0  0  0  0  0  0  0  0  0  0  0
   -2.3260    2.2593  -21.0881 H   0  0  0  0  0  0  0  0  0  0  0  0
   -3.0768    1.7667  -18.7762 H   0  0  0  0  0  0  0  0  0  0  0  0
   -4.6239    0.6180  -17.2318 H   0  0  0  0  0  0  0  0  0  0  0  0
   -7.7445   -1.6846  -18.6059 H   0  0  0  0  0  0  0  0  0  0  0  0
   -8.1380   -0.6223  -22.1020 C   0  0  0  0  0  0  0  0  0  0  0  0
   -8.2343    0.5883  -22.0366 O   0  0  0  0  0  0  0  0  0  0  0  0
   -8.7378   -1.5453  -23.1880 C   0  0  1  0  0  0  0  0  0  0  0  0
   -7.9711   -1.2653  -24.5007 C   0  0  0  0  0  0  0  0  0  0  0  0
   -8.6066   -1.8228  -25.6952 N   0  0  0  0  0  0  0  0  0  0  0  0
   -7.7350   -2.0661  -26.8406 C   0  0  0  0  0  0  0  0  0  0  0  0
   -6.9387   -3.3380  -26.7154 C   0  0  0  0  0  0  0  0  0  0  0  0
   -5.7046   -3.3972  -26.2589 N   0  0  0  0  0  0  0  0  0  0  0  0
   -5.3728   -4.7303  -26.2685 C   0  0  0  0  0  0  0  0  0  0  0  0
   -6.4278   -5.4766  -26.7175 C   0  0  0  0  0  0  0  0  0  0  0  0
   -7.4289   -4.5741  -27.0207 N   0  0  0  0  0  0  0  0  0  0  0  0
   -8.7692   -4.8940  -27.4778 C   0  0  0  0  0  0  0  0  0  0  0  0
   -9.0380   -4.2888  -28.3503 H   0  0  0  0  0  0  0  0  0  0  0  0
   -9.5096   -4.7214  -26.6901 H   0  0  0  0  0  0  0  0  0  0  0  0
   -8.7830   -5.9508  -27.7535 H   0  0  0  0  0  0  0  0  0  0  0  0
   -6.5819   -6.5403  -26.8216 H   0  0  0  0  0  0  0  0  0  0  0  0
   -4.3961   -5.0602  -25.9376 H   0  0  0  0  0  0  0  0  0  0  0  0
   -8.3685   -2.0540  -27.7309 H   0  0  0  0  0  0  0  0  0  0  0  0
   -7.0129   -1.2454  -26.9117 H   0  0  0  0  0  0  0  0  0  0  0  0
   -9.9622   -1.8014  -25.8876 C   0  0  0  0  0  0  0  0  0  0  0  0
  -10.4890   -2.1137  -26.9511 O   0  0  0  0  0  0  0  0  0  0  0  0
  -10.7813   -1.3995  -24.7075 C   0  0  0  0  0  0  0  0  0  0  0  0
  -12.1533   -1.2160  -24.8960 C   0  0  0  0  0  0  0  0  0  0  0  0
  -12.9654   -0.9091  -23.8290 C   0  0  0  0  0  0  0  0  0  0  0  0
  -12.3896   -0.7842  -22.5769 C   0  0  0  0  0  0  0  0  0  0  0  0
  -13.2257   -0.4757  -21.5838 F   0  0  0  0  0  0  0  0  0  0  0  0
  -11.0399   -0.9702  -22.3514 C   0  0  0  0  0  0  0  0  0  0  0  0
  -10.2091   -1.2653  -23.4367 C   0  0  0  0  0  0  0  0  0  0  0  0
  -10.6191   -0.8885  -21.3565 H   0  0  0  0  0  0  0  0  0  0  0  0
  -14.0382   -0.7746  -23.8995 H   0  0  0  0  0  0  0  0  0  0  0  0
  -12.5695   -1.3603  -25.8873 H   0  0  0  0  0  0  0  0  0  0  0  0
   -6.9655   -1.6977  -24.4574 H   0  0  0  0  0  0  0  0  0  0  0  0
   -7.8807   -0.1709  -24.5837 H   0  0  0  0  0  0  0  0  0  0  0  0
   -6.4208   -3.0993  -21.9347 H   0  0  0  0  0  0  0  0  0  0  0  0
   -7.5680   -3.3987  -20.6196 H   0  0  0  0  0  0  0  0  0  0  0  0
   -9.4476   -3.1747  -22.0036 H   0  0  0  0  0  0  0  0  0  0  0  0
   -7.3120   -3.9745  -24.0591 H   0  0  0  0  0  0  0  0  0  0  0  0
   -8.2316   -5.0703  -23.0125 H   0  0  0  0  0  0  0  0  0  0  0  0
   -9.0613   -4.1602  -24.2878 H   0  0  0  0  0  0  0  0  0  0  0  0
  1  2  1  0
  2  3  1  0
  3  4  1  0
  4  5  1  0
  5  6  2  0
  6  7  1  0
  7  8  2  0
  8  9  1  0
  9 10  2  0
 10 11  1  0
 11 12  2  0
 12 13  1  0
 13 14  2  0
 13 15  1  0
 12 16  1  0
 11 17  1  0
 10 18  1  0
  8 19  1  0
  6 20  1  0
  4 21  1  0
 21 22  2  0
 21 23  1  0
 23 24  1  6
 24 25  1  0
 25 26  1  0
 26 27  1  0
 27 28  2  0
 28 29  1  0
 29 30  2  0
 30 31  1  0
 31 32  1  0
 32 33  1  0
 32 34  1  0
 32 35  1  0
 30 36  1  0
 29 37  1  0
 26 38  1  0
 26 39  1  0
 25 40  1  0
 40 41  2  0
 40 42  1  0
 42 43  2  0
 43 44  1  0
 44 45  2  0
 45 46  1  0
 45 47  1  0
 47 48  2  0
 47 49  1  0
 44 50  1  0
 43 51  1  0
 24 52  1  0
 24 53  1  0
  3 54  1  0
  3 55  1  0
  2 56  1  1
  1 57  1  0
  1 58  1  0
  1 59  1  0
 23  2  1  0
 31 27  1  0
 48 42  1  0
 14  5  1  0
 48 23  1  0
 14  9  1  0
M  END
>  <cnnaffinities>  (5) 
[6.14332, 6.26514, 6.13475]

>  <score>  (5) 
6.14332

>  <index>  (5) 
4

>  <Smiles>  (5) 
C([C@]1(C(N(c2c(nc(c3c(c(c(c(c23)[H])[H])[H])[H])[H])[H])C(=O)[C@]21C(N(C(c1nc(c(n1C([H])([H])[H])[H])[H])([H])[H])C(=O)c1c(c(c(F)c(c21)[H])[H])[H])([H])[H])([H])[H])[H])([H])([H])[H]

>  <h>  (5) 
<NA>

>  <Training>  (5) 
True

>  <Success>  (5) 
True

>  <enamine_searched>  (5) 
False

>  <enamine_id>  (5) 
nan

$$$$

     RDKit          3D

 58 61  0  0  0  0  0  0  0  0999 V2000
   -7.6340   -3.8228  -20.3090 C   0  0  0  0  0  0  0  0  0  0  0  0
   -7.2947   -3.5183  -21.5591 C   0  0  0  0  0  0  0  0  0  0  0  0
   -6.6496   -2.2310  -22.0168 C   0  0  0  0  0  0  0  0  0  0  0  0
   -7.2866   -1.0292  -21.4562 N   0  0  0  0  0  0  0  0  0  0  0  0
   -8.6353   -0.7331  -21.6705 C   0  0  0  0  0  0  0  0  0  0  0  0
   -9.2693   -0.0599  -20.8788 O   0  0  0  0  0  0  0  0  0  0  0  0
   -9.2706   -1.1843  -22.9963 C   0  0  2  0  0  0  0  0  0  0  0  0
   -9.6611    0.1160  -23.7539 C   0  0  0  0  0  0  0  0  0  0  0  0
  -10.6723   -0.0775  -24.7800 N   0  0  0  0  0  0  0  0  0  0  0  0
  -10.3414    0.1817  -26.1742 C   0  0  0  0  0  0  0  0  0  0  0  0
   -9.3878   -0.8935  -26.7150 C   0  0  0  0  0  0  0  0  0  0  0  0
   -8.1804   -0.7181  -26.7696 O   0  0  0  0  0  0  0  0  0  0  0  0
   -9.9688   -2.0712  -27.0640 N   0  0  0  0  0  0  0  0  0  0  0  0
   -9.1390   -3.2066  -27.4233 C   0  0  0  0  0  0  0  0  0  0  0  0
   -8.4521   -3.4561  -26.6087 H   0  0  0  0  0  0  0  0  0  0  0  0
   -9.7784   -4.0671  -27.6284 H   0  0  0  0  0  0  0  0  0  0  0  0
   -8.5433   -2.9794  -28.3123 H   0  0  0  0  0  0  0  0  0  0  0  0
  -10.9656   -2.1892  -26.9689 H   0  0  0  0  0  0  0  0  0  0  0  0
  -11.2812    0.2138  -26.7310 H   0  0  0  0  0  0  0  0  0  0  0  0
   -9.8427    1.1513  -26.2690 H   0  0  0  0  0  0  0  0  0  0  0  0
  -11.8414   -0.7795  -24.5074 C   0  0  0  0  0  0  0  0  0  0  0  0
  -12.8258   -0.7183  -25.2279 O   0  0  0  0  0  0  0  0  0  0  0  0
  -11.7511   -1.6911  -23.3871 C   0  0  0  0  0  0  0  0  0  0  0  0
  -12.8543   -2.5763  -23.0670 C   0  0  0  0  0  0  0  0  0  0  0  0
  -12.5462   -3.7981  -22.4904 C   0  0  0  0  0  0  0  0  0  0  0  0
  -12.6190   -3.7874  -22.3228 C   0  0  0  0  0  0  0  0  0  0  0  0
  -13.1414   -3.8464  -20.2619 Cl  0  0  0  0  0  0  0  0  0  0  0  0
  -10.4955   -3.2514  -22.1565 C   0  0  0  0  0  0  0  0  0  0  0  0
  -10.5179   -2.0703  -22.7818 C   0  0  0  0  0  0  0  0  0  0  0  0
   -9.6199   -3.6995  -21.7170 H   0  0  0  0  0  0  0  0  0  0  0  0
  -11.7620   -4.6704  -22.1666 H   0  0  0  0  0  0  0  0  0  0  0  0
  -13.6612   -2.8561  -23.6091 H   0  0  0  0  0  0  0  0  0  0  0  0
  -10.0049    0.8332  -22.9976 H   0  0  0  0  0  0  0  0  0  0  0  0
   -8.7768    0.5355  -24.2441 H   0  0  0  0  0  0  0  0  0  0  0  0
   -8.5322   -1.7429  -23.5829 H   0  0  0  0  0  0  0  0  0  0  0  0
   -6.6426   -0.4358  -20.3369 C   0  0  0  0  0  0  0  0  0  0  0  0
   -7.1253   -0.5948  -19.0633 C   0  0  0  0  0  0  0  0  0  0  0  0
   -6.4557   -0.2221  -17.9423 N   0  0  0  0  0  0  0  0  0  0  0  0
   -5.2897    0.3626  -18.1003 C   0  0  0  0  0  0  0  0  0  0  0  0
   -4.7031    0.6460  -19.3667 C   0  0  0  0  0  0  0  0  0  0  0  0
   -3.4633    1.3268  -19.4957 C   0  0  0  0  0  0  0  0  0  0  0  0
   -2.9561    1.6161  -20.7334 C   0  0  0  0  0  0  0  0  0  0  0  0
   -3.6590    1.2369  -21.8996 C   0  0  0  0  0  0  0  0  0  0  0  0
   -4.8550    0.5679  -21.8013 C   0  0  0  0  0  0  0  0  0  0  0  0
   -5.4003    0.2497  -20.5276 C   0  0  0  0  0  0  0  0  0  0  0  0
   -5.4088    0.2934  -22.6943 H   0  0  0  0  0  0  0  0  0  0  0  0
   -3.2546    1.4869  -22.8760 H   0  0  0  0  0  0  0  0  0  0  0  0
   -2.0180    2.1566  -20.8285 H   0  0  0  0  0  0  0  0  0  0  0  0
   -2.9472    1.6358  -18.5906 H   0  0  0  0  0  0  0  0  0  0  0  0
   -4.7504    0.6514  -17.1982 H   0  0  0  0  0  0  0  0  0  0  0  0
   -8.0909   -1.0698  -18.9010 H   0  0  0  0  0  0  0  0  0  0  0  0
   -6.7278   -2.2402  -23.1059 H   0  0  0  0  0  0  0  0  0  0  0  0
   -5.5885   -2.1968  -21.7416 H   0  0  0  0  0  0  0  0  0  0  0  0
   -7.6621   -4.4412  -22.7357 C   0  0  0  0  0  0  0  0  0  0  0  0
   -7.9569   -5.6188  -22.4578 O   0  0  0  0  0  0  0  0  0  0  0  0
   -7.6088   -3.8950  -23.8626 O   0  0  0  0  0  1  0  0  0  0  0  0
   -8.2809   -4.6607  -20.0668 H   0  0  0  0  0  0  0  0  0  0  0  0
   -7.2595   -3.2390  -19.4709 H   0  0  0  0  0  0  0  0  0  0  0  0
  1  2  2  0
  2  3  1  0
  3  4  1  0
  4  5  1  0
  5  6  2  0
  5  7  1  0
  7  8  1  0
  8  9  1  0
  9 10  1  0
 10 11  1  0
 11 12  2  0
 11 13  1  0
 13 14  1  0
 14 15  1  0
 14 16  1  0
 14 17  1  0
 13 18  1  0
 10 19  1  0
 10 20  1  0
  9 21  1  0
 21 22  2  0
 21 23  1  0
 23 24  2  0
 24 25  1  0
 25 26  2  0
 26 27  1  0
 26 28  1  0
 28 29  2  0
 28 30  1  0
 25 31  1  0
 24 32  1  0
  8 33  1  0
  8 34  1  0
  7 35  1  6
  4 36  1  0
 36 37  2  0
 37 38  1  0
 38 39  2  0
 39 40  1  0
 40 41  2  0
 41 42  1  0
 42 43  2  0
 43 44  1  0
 44 45  2  0
 44 46  1  0
 43 47  1  0
 42 48  1  0
 41 49  1  0
 39 50  1  0
 37 51  1  0
  3 52  1  0
  3 53  1  0
  2 54  1  0
 54 55  2  0
 54 56  1  0
  1 57  1  0
  1 58  1  0
 29  7  1  0
 45 36  1  0
 29 23  1  0
 45 40  1  0
M  CHG  1  56  -1
M  END
>  <cnnaffinities>  (6) 
[5.72729]

>  <score>  (6) 
5.72729

>  <index>  (6) 
5

>  <Smiles>  (6) 
C(=C(C(N(C(=O)[C@@]1(C(N(C(C(=O)N(C([H])([H])[H])[H])([H])[H])C(=O)c2c(c(c(Cl)c(c12)[H])[H])[H])([H])[H])[H])c1c(nc(c2c(c(c(c(c12)[H])[H])[H])[H])[H])[H])([H])[H])C(=O)[O-])([H])[H]

>  <h>  (6) 
<NA>

>  <Training>  (6) 
True

>  <Success>  (6) 
True

>  <enamine_searched>  (6) 
False

>  <enamine_id>  (6) 
nan

$$$$

     RDKit          3D

 43 45  0  0  0  0  0  0  0  0999 V2000
   -9.0674   -7.9898  -25.1235 C   0  0  0  0  0  0  0  0  0  0  0  0
   -9.3439   -6.4911  -25.2260 C   0  0  0  0  0  0  0  0  0  0  0  0
   -8.9637   -5.6913  -23.9710 C   0  0  0  0  0  0  0  0  0  0  0  0
   -7.5102   -5.8868  -23.5157 C   0  0  0  0  0  0  0  0  0  0  0  0
   -7.2947   -5.0678  -22.2537 C   0  0  0  0  0  0  0  0  0  0  0  0
   -7.5413   -3.6470  -22.4903 N   0  0  0  0  0  0  0  0  0  0  0  0
   -6.7489   -2.7814  -21.7670 C   0  0  0  0  0  0  0  0  0  0  0  0
   -5.5929   -3.0631  -21.4873 O   0  0  0  0  0  0  0  0  0  0  0  0
   -7.3950   -1.4819  -21.2789 C   0  0  0  0  0  0  0  0  0  0  0  0
   -6.5871   -0.8376  -20.1912 C   0  0  0  0  0  0  0  0  0  0  0  0
   -6.9049   -1.0545  -18.8730 C   0  0  0  0  0  0  0  0  0  0  0  0
   -6.2325   -0.5427  -17.8059 N   0  0  0  0  0  0  0  0  0  0  0  0
   -5.1921    0.2064  -18.0727 C   0  0  0  0  0  0  0  0  0  0  0  0
   -4.7358    0.5029  -19.3853 C   0  0  0  0  0  0  0  0  0  0  0  0
   -3.6124    1.3340  -19.6200 C   0  0  0  0  0  0  0  0  0  0  0  0
   -3.2093    1.6108  -20.8961 C   0  0  0  0  0  0  0  0  0  0  0  0
   -3.9083    1.0658  -21.9957 C   0  0  0  0  0  0  0  0  0  0  0  0
   -4.9948    0.2518  -21.7959 C   0  0  0  0  0  0  0  0  0  0  0  0
   -5.4440   -0.0418  -20.4800 C   0  0  0  0  0  0  0  0  0  0  0  0
   -5.5190   -0.1688  -22.6474 H   0  0  0  0  0  0  0  0  0  0  0  0
   -3.5887    1.3062  -23.0044 H   0  0  0  0  0  0  0  0  0  0  0  0
   -2.3556    2.2578  -21.0732 H   0  0  0  0  0  0  0  0  0  0  0  0
   -3.0983    1.7599  -18.7623 H   0  0  0  0  0  0  0  0  0  0  0  0
   -4.6440    0.6258  -17.2260 H   0  0  0  0  0  0  0  0  0  0  0  0
   -7.7626   -1.6732  -18.6133 H   0  0  0  0  0  0  0  0  0  0  0  0
   -7.5504   -0.8054  -22.1314 H   0  0  0  0  0  0  0  0  0  0  0  0
   -8.3873   -1.7458  -20.8901 H   0  0  0  0  0  0  0  0  0  0  0  0
   -8.9385   -3.4094  -22.8604 C   0  0  0  0  0  0  0  0  0  0  0  0
   -9.2619   -4.1917  -24.1403 C   0  0  0  0  0  0  0  0  0  0  0  0
   -8.6760   -3.7916  -24.9807 H   0  0  0  0  0  0  0  0  0  0  0  0
  -10.3173   -4.0367  -24.3977 H   0  0  0  0  0  0  0  0  0  0  0  0
   -9.6049   -3.7684  -22.0493 H   0  0  0  0  0  0  0  0  0  0  0  0
   -9.1499   -2.3436  -23.0018 H   0  0  0  0  0  0  0  0  0  0  0  0
   -8.0362   -5.4215  -21.5115 H   0  0  0  0  0  0  0  0  0  0  0  0
   -6.2970   -5.1742  -21.8215 H   0  0  0  0  0  0  0  0  0  0  0  0
   -6.8085   -5.6056  -24.3160 H   0  0  0  0  0  0  0  0  0  0  0  0
   -7.3214   -6.9385  -23.2639 H   0  0  0  0  0  0  0  0  0  0  0  0
   -9.5703   -6.0363  -23.1226 H   0  0  0  0  0  0  0  0  0  0  0  0
  -10.4107   -6.3177  -25.4213 H   0  0  0  0  0  0  0  0  0  0  0  0
   -8.7855   -6.0794  -26.0849 H   0  0  0  0  0  0  0  0  0  0  0  0
   -9.5884   -8.4659  -24.2807 H   0  0  0  0  0  0  0  0  0  0  0  0
   -7.9942   -8.1450  -24.9747 H   0  0  0  0  0  0  0  0  0  0  0  0
   -9.3744   -8.5109  -26.0391 H   0  0  0  0  0  0  0  0  0  0  0  0
  1  2  1  0
  2  3  1  0
  3  4  1  0
  4  5  1  0
  5  6  1  0
  6  7  1  0
  7  8  2  0
  7  9  1  0
  9 10  1  0
 10 11  2  0
 11 12  1  0
 12 13  2  0
 13 14  1  0
 14 15  2  0
 15 16  1  0
 16 17  2  0
 17 18  1  0
 18 19  2  0
 18 20  1  0
 17 21  1  0
 16 22  1  0
 15 23  1  0
 13 24  1  0
 11 25  1  0
  9 26  1  0
  9 27  1  0
  6 28  1  0
 28 29  1  0
 29 30  1  0
 29 31  1  0
 28 32  1  0
 28 33  1  0
  5 34  1  0
  5 35  1  0
  4 36  1  0
  4 37  1  0
  3 38  1  0
  2 39  1  0
  2 40  1  0
  1 41  1  0
  1 42  1  0
  1 43  1  0
 29  3  1  0
 19 10  1  0
 19 14  1  0
M  END
>  <cnnaffinities>  (7) 
[4.41696, 4.41407, 4.74506, 4.87841]

>  <score>  (7) 
4.41696

>  <index>  (7) 
6

>  <Smiles>  (7) 
C(C(C1(C(C(N(C(=O)C(c2c(nc(c3c(c(c(c(c23)[H])[H])[H])[H])[H])[H])([H])[H])C(C1([H])[H])([H])[H])([H])[H])([H])[H])[H])([H])[H])([H])([H])[H]

>  <h>  (7) 
<NA>

>  <Training>  (7) 
True

>  <Success>  (7) 
True

>  <enamine_searched>  (7) 
False

>  <enamine_id>  (7) 
nan

$$$$

     RDKit          3D

 44 47  0  0  0  0  0  0  0  0999 V2000
   -8.4143   -7.8678  -23.5342 C   0  0  0  0  0  0  0  0  0  0  0  0
   -8.7928   -7.3371  -24.9121 C   0  0  0  0  0  0  0  0  0  0  0  0
   -9.2576   -5.5972  -24.9503 S   0  0  0  0  0  0  0  0  0  0  0  0
  -10.5070   -5.4340  -24.2181 O   0  0  0  0  0  0  0  0  0  0  0  0
   -9.1837   -5.1454  -26.3249 O   0  0  0  0  0  0  0  0  0  0  0  0
   -7.9964   -4.8250  -24.1291 N   0  0  0  0  0  0  0  0  0  0  0  0
   -7.9581   -3.3338  -24.2501 C   0  0  0  0  0  0  0  0  0  0  0  0
   -8.0403   -3.1959  -22.7100 C   0  0  0  0  0  0  0  0  0  0  0  0
   -8.0697   -4.7404  -22.6500 C   0  0  0  0  0  0  0  0  0  0  0  0
   -7.1595   -5.1497  -22.2081 H   0  0  0  0  0  0  0  0  0  0  0  0
   -8.9589   -5.1848  -22.1952 H   0  0  0  0  0  0  0  0  0  0  0  0
   -6.8276   -2.5619  -22.0477 C   0  0  0  0  0  0  0  0  0  0  0  0
   -5.6700   -2.8948  -22.1644 O   0  0  0  0  0  0  0  0  0  0  0  0
   -7.3136   -1.4970  -21.2841 N   0  0  0  0  0  0  0  0  0  0  0  0
   -6.5969   -0.8643  -20.2316 C   0  0  0  0  0  0  0  0  0  0  0  0
   -6.9541   -1.0680  -18.9190 C   0  0  0  0  0  0  0  0  0  0  0  0
   -6.2813   -0.5576  -17.8556 N   0  0  0  0  0  0  0  0  0  0  0  0
   -5.2339    0.1851  -18.1175 C   0  0  0  0  0  0  0  0  0  0  0  0
   -4.7844    0.4926  -19.4296 C   0  0  0  0  0  0  0  0  0  0  0  0
   -3.6599    1.3241  -19.6429 C   0  0  0  0  0  0  0  0  0  0  0  0
   -3.2627    1.6341  -20.9115 C   0  0  0  0  0  0  0  0  0  0  0  0
   -3.9686    1.1341  -22.0289 C   0  0  0  0  0  0  0  0  0  0  0  0
   -5.0586    0.3204  -21.8509 C   0  0  0  0  0  0  0  0  0  0  0  0
   -5.4829   -0.0304  -20.5358 C   0  0  0  0  0  0  0  0  0  0  0  0
   -5.6021   -0.0519  -22.7157 H   0  0  0  0  0  0  0  0  0  0  0  0
   -3.6485    1.4082  -23.0311 H   0  0  0  0  0  0  0  0  0  0  0  0
   -2.4047    2.2787  -21.0696 H   0  0  0  0  0  0  0  0  0  0  0  0
   -3.1475    1.7150  -18.7688 H   0  0  0  0  0  0  0  0  0  0  0  0
   -4.6755    0.6000  -17.2762 H   0  0  0  0  0  0  0  0  0  0  0  0
   -7.8115   -1.6915  -18.6733 H   0  0  0  0  0  0  0  0  0  0  0  0
   -8.6996   -1.3284  -21.4596 C   0  0  0  0  0  0  0  0  0  0  0  0
   -9.3581   -0.3964  -21.0468 O   0  0  0  0  0  0  0  0  0  0  0  0
   -9.1316   -2.4167  -22.1695 N   0  0  0  0  0  0  0  0  0  0  0  0
  -10.5355   -2.7052  -22.3914 C   0  0  0  0  0  0  0  0  0  0  0  0
  -11.1253   -1.9150  -21.9188 H   0  0  0  0  0  0  0  0  0  0  0  0
  -10.8010   -3.6691  -21.9430 H   0  0  0  0  0  0  0  0  0  0  0  0
  -10.7663   -2.7283  -23.4623 H   0  0  0  0  0  0  0  0  0  0  0  0
   -8.8000   -2.8959  -24.7954 H   0  0  0  0  0  0  0  0  0  0  0  0
   -7.0044   -3.0038  -24.6620 H   0  0  0  0  0  0  0  0  0  0  0  0
   -9.6881   -7.8339  -25.3049 H   0  0  0  0  0  0  0  0  0  0  0  0
   -7.9822   -7.4351  -25.6394 H   0  0  0  0  0  0  0  0  0  0  0  0
   -8.4814   -8.9562  -23.4990 H   0  0  0  0  0  0  0  0  0  0  0  0
   -9.0946   -7.4823  -22.7810 H   0  0  0  0  0  0  0  0  0  0  0  0
   -7.4028   -7.5778  -23.2382 H   0  0  0  0  0  0  0  0  0  0  0  0
  1  2  1  0
  2  3  1  0
  3  4  2  0
  3  5  2  0
  3  6  1  0
  6  7  1  0
  7  8  1  0
  8  9  1  0
  9 10  1  0
  9 11  1  0
  8 12  1  0
 12 13  2  0
 12 14  1  0
 14 15  1  0
 15 16  2  0
 16 17  1  0
 17 18  2  0
 18 19  1  0
 19 20  2  0
 20 21  1  0
 21 22  2  0
 22 23  1  0
 23 24  2  0
 23 25  1  0
 22 26  1  0
 21 27  1  0
 20 28  1  0
 18 29  1  0
 16 30  1  0
 14 31  1  0
 31 32  2  0
 31 33  1  0
 33 34  1  0
 34 35  1  0
 34 36  1  0
 34 37  1  0
  7 38  1  0
  7 39  1  0
  2 40  1  0
  2 41  1  0
  1 42  1  0
  1 43  1  0
  1 44  1  0
  9  6  1  0
 24 15  1  0
 33  8  1  0
 24 19  1  0
M  END
>  <cnnaffinities>  (8) 
[5.41253, 5.29213, 5.18888]

>  <score>  (8) 
5.41253

>  <index>  (8) 
7

>  <Smiles>  (8) 
C(C(S(=O)(=O)N1C(C2(C1([H])[H])C(=O)N(c1c(nc(c3c(c(c(c(c13)[H])[H])[H])[H])[H])[H])C(=O)N2C([H])([H])[H])([H])[H])([H])[H])([H])([H])[H]

>  <h>  (8) 
<NA>

>  <Training>  (8) 
True

>  <Success>  (8) 
True

>  <enamine_searched>  (8) 
False

>  <enamine_id>  (8) 
nan

$$$$

     RDKit          3D

 60 64  0  0  0  0  0  0  0  0999 V2000
  -14.4132   -0.5033  -22.7055 C   0  0  0  0  0  0  0  0  0  0  0  0
  -13.7409   -1.6819  -22.1824 N   0  0  0  0  0  0  0  0  0  0  0  0
  -12.8261   -2.3529  -22.9333 C   0  0  0  0  0  0  0  0  0  0  0  0
  -12.5406   -1.9979  -24.0652 O   0  0  0  0  0  0  0  0  0  0  0  0
  -12.1638   -3.5560  -22.2533 C   0  0  0  0  0  0  0  0  0  0  0  0
  -10.7597   -3.6946  -22.5946 N   0  0  0  0  0  0  0  0  0  0  0  0
   -9.7737   -3.1888  -21.6476 C   0  0  0  0  0  0  0  0  0  0  0  0
   -8.4803   -2.6916  -22.3314 C   0  0  2  0  0  0  0  0  0  0  0  0
   -7.4302   -2.5401  -21.2193 C   0  0  0  0  0  0  0  0  0  0  0  0
   -6.8955   -3.4403  -20.6034 O   0  0  0  0  0  0  0  0  0  0  0  0
   -7.1501   -1.2031  -21.0395 N   0  0  0  0  0  0  0  0  0  0  0  0
   -6.3261   -0.7244  -19.9909 C   0  0  0  0  0  0  0  0  0  0  0  0
   -6.6337   -0.9634  -18.6704 C   0  0  0  0  0  0  0  0  0  0  0  0
   -5.9924   -0.3830  -17.6215 N   0  0  0  0  0  0  0  0  0  0  0  0
   -5.0000    0.4298  -17.8988 C   0  0  0  0  0  0  0  0  0  0  0  0
   -4.5357    0.7064  -19.2155 C   0  0  0  0  0  0  0  0  0  0  0  0
   -3.4398    1.5729  -19.4487 C   0  0  0  0  0  0  0  0  0  0  0  0
   -3.0146    1.8402  -20.7201 C   0  0  0  0  0  0  0  0  0  0  0  0
   -3.6777    1.2489  -21.8151 C   0  0  0  0  0  0  0  0  0  0  0  0
   -4.7477    0.4094  -21.6155 C   0  0  0  0  0  0  0  0  0  0  0  0
   -5.2072    0.1182  -20.3019 C   0  0  0  0  0  0  0  0  0  0  0  0
   -5.2627   -0.0228  -22.4644 H   0  0  0  0  0  0  0  0  0  0  0  0
   -3.3460    1.4738  -22.8225 H   0  0  0  0  0  0  0  0  0  0  0  0
   -2.1669    2.4988  -20.8887 H   0  0  0  0  0  0  0  0  0  0  0  0
   -2.9710    2.0267  -18.5852 H   0  0  0  0  0  0  0  0  0  0  0  0
   -4.5001    0.9244  -17.0667 H   0  0  0  0  0  0  0  0  0  0  0  0
   -7.4474   -1.6351  -18.4012 H   0  0  0  0  0  0  0  0  0  0  0  0
   -8.0502   -0.3315  -21.7791 C   0  0  0  0  0  0  0  0  0  0  0  0
   -8.5614   -1.2392  -22.9149 C   0  0  2  0  0  0  0  0  0  0  0  0
   -9.9087   -0.8351  -23.5074 C   0  0  0  0  0  0  0  0  0  0  0  0
   -9.7727    0.2240  -24.4345 O   0  0  0  0  0  0  0  0  0  0  0  0
  -10.5318    0.0424  -25.6179 C   0  0  0  0  0  0  0  0  0  0  0  0
  -11.4751   -0.4844  -25.4223 H   0  0  0  0  0  0  0  0  0  0  0  0
   -9.9633   -0.5224  -26.3723 H   0  0  0  0  0  0  0  0  0  0  0  0
  -10.7468    1.0338  -26.0229 H   0  0  0  0  0  0  0  0  0  0  0  0
  -10.3610   -1.7000  -23.9906 H   0  0  0  0  0  0  0  0  0  0  0  0
  -10.6022   -0.5247  -22.7127 H   0  0  0  0  0  0  0  0  0  0  0  0
   -7.8344   -1.2056  -23.7367 H   0  0  0  0  0  0  0  0  0  0  0  0
   -7.5076    0.5362  -22.1596 H   0  0  0  0  0  0  0  0  0  0  0  0
   -8.8592    0.0329  -21.1210 H   0  0  0  0  0  0  0  0  0  0  0  0
   -8.0421   -3.7090  -23.3676 C   0  0  0  0  0  0  0  0  0  0  0  0
   -6.7216   -3.7325  -23.8406 C   0  0  0  0  0  0  0  0  0  0  0  0
   -6.3234   -4.6807  -24.7706 C   0  0  0  0  0  0  0  0  0  0  0  0
   -4.6702   -4.7184  -25.3210 Cl  0  0  0  0  0  0  0  0  0  0  0  0
   -7.2171   -5.6221  -25.2789 C   0  0  0  0  0  0  0  0  0  0  0  0
   -8.5274   -5.5722  -24.8493 C   0  0  0  0  0  0  0  0  0  0  0  0
   -8.9357   -4.6255  -23.9092 C   0  0  0  0  0  0  0  0  0  0  0  0
  -10.3698   -4.6459  -23.5073 C   0  0  0  0  0  0  0  0  0  0  0  0
  -11.1116   -5.4759  -23.9901 O   0  0  0  0  0  0  0  0  0  0  0  0
   -9.2676   -6.2690  -25.2235 H   0  0  0  0  0  0  0  0  0  0  0  0
   -6.8839   -6.3693  -25.9935 H   0  0  0  0  0  0  0  0  0  0  0  0
   -5.9914   -3.0265  -23.4657 H   0  0  0  0  0  0  0  0  0  0  0  0
   -9.4999   -3.9900  -20.9466 H   0  0  0  0  0  0  0  0  0  0  0  0
  -10.2040   -2.3592  -21.0771 H   0  0  0  0  0  0  0  0  0  0  0  0
  -12.7047   -4.4600  -22.5489 H   0  0  0  0  0  0  0  0  0  0  0  0
  -12.2587   -3.4411  -21.1693 H   0  0  0  0  0  0  0  0  0  0  0  0
  -14.1358   -2.1657  -21.3859 H   0  0  0  0  0  0  0  0  0  0  0  0
  -14.0903   -0.3929  -23.7437 H   0  0  0  0  0  0  0  0  0  0  0  0
  -15.5025   -0.6285  -22.6545 H   0  0  0  0  0  0  0  0  0  0  0  0
  -14.1060    0.4100  -22.1781 H   0  0  0  0  0  0  0  0  0  0  0  0
  1  2  1  0
  2  3  1  0
  3  4  2  0
  3  5  1  0
  5  6  1  0
  6  7  1  0
  8  7  1  1
  8  9  1  0
  9 10  2  0
  9 11  1  0
 11 12  1  0
 12 13  2  0
 13 14  1  0
 14 15  2  0
 15 16  1  0
 16 17  2  0
 17 18  1  0
 18 19  2  0
 19 20  1  0
 20 21  2  0
 20 22  1  0
 19 23  1  0
 18 24  1  0
 17 25  1  0
 15 26  1  0
 13 27  1  0
 11 28  1  0
 28 29  1  0
 29 30  1  0
 30 31  1  0
 31 32  1  0
 32 33  1  0
 32 34  1  0
 32 35  1  0
 30 36  1  0
 30 37  1  0
 29 38  1  6
 28 39  1  0
 28 40  1  0
  8 41  1  0
 41 42  2  0
 42 43  1  0
 43 44  1  0
 43 45  2  0
 45 46  1  0
 46 47  2  0
 47 48  1  0
 48 49  2  0
 46 50  1  0
 45 51  1  0
 42 52  1  0
  7 53  1  0
  7 54  1  0
  5 55  1  0
  5 56  1  0
  2 57  1  0
  1 58  1  0
  1 59  1  0
  1 60  1  0
 48  6  1  0
 29  8  1  0
 47 41  1  0
 21 12  1  0
 21 16  1  0
M  END
>  <cnnaffinities>  (9) 
[6.59796]

>  <score>  (9) 
6.59796

>  <index>  (9) 
8

>  <Smiles>  (9) 
C(N(C(=O)C(N1C([C@@]2(C(=O)N(c3c(nc(c4c(c(c(c(c34)[H])[H])[H])[H])[H])[H])C([C@@]2(C(OC([H])([H])[H])([H])[H])[H])([H])[H])c2c(c(Cl)c(c(c2C1=O)[H])[H])[H])([H])[H])([H])[H])[H])([H])([H])[H]

>  <h>  (9) 
<NA>

>  <Training>  (9) 
True

>  <Success>  (9) 
True

>  <enamine_searched>  (9) 
False

>  <enamine_id>  (9) 
nan

$$$$

     RDKit          3D

 41 43  0  0  0  0  0  0  0  0999 V2000
  -13.1601   -2.9150  -22.9115 C   0  0  0  0  0  0  0  0  0  0  0  0
  -11.9607   -2.0413  -23.2234 C   0  0  1  0  0  0  0  0  0  0  0  0
  -12.1536   -0.6560  -22.6456 C   0  0  0  0  0  0  0  0  0  0  0  0
  -11.3197    0.3580  -22.8354 C   0  0  0  0  0  0  0  0  0  0  0  0
  -10.0213    0.2175  -23.6022 C   0  0  0  0  0  0  0  0  0  0  0  0
   -9.0855   -0.7810  -23.0632 N   0  0  0  0  0  0  0  0  0  0  0  0
   -8.3807   -0.4081  -21.9320 C   0  0  0  0  0  0  0  0  0  0  0  0
   -8.4772    0.7171  -21.4738 O   0  0  0  0  0  0  0  0  0  0  0  0
   -7.4330   -1.4334  -21.2733 C   0  0  0  0  0  0  0  0  0  0  0  0
   -6.5793   -0.8298  -20.1818 C   0  0  0  0  0  0  0  0  0  0  0  0
   -6.8779   -1.0379  -18.8607 C   0  0  0  0  0  0  0  0  0  0  0  0
   -6.1957   -0.5338  -17.7967 N   0  0  0  0  0  0  0  0  0  0  0  0
   -5.1582    0.2219  -18.0638 C   0  0  0  0  0  0  0  0  0  0  0  0
   -4.7240    0.5336  -19.3815 C   0  0  0  0  0  0  0  0  0  0  0  0
   -3.5976    1.3638  -19.6221 C   0  0  0  0  0  0  0  0  0  0  0  0
   -3.2097    1.6579  -20.9016 C   0  0  0  0  0  0  0  0  0  0  0  0
   -3.9331    1.1300  -21.9937 C   0  0  0  0  0  0  0  0  0  0  0  0
   -5.0257    0.3224  -21.7872 C   0  0  0  0  0  0  0  0  0  0  0  0
   -5.4540    0.0011  -20.4725 C   0  0  0  0  0  0  0  0  0  0  0  0
   -5.5779   -0.0660  -22.6366 H   0  0  0  0  0  0  0  0  0  0  0  0
   -3.6225    1.3738  -23.0055 H   0  0  0  0  0  0  0  0  0  0  0  0
   -2.3527    2.3029  -21.0869 H   0  0  0  0  0  0  0  0  0  0  0  0
   -3.0584    1.7768  -18.7717 H   0  0  0  0  0  0  0  0  0  0  0  0
   -4.6010    0.6278  -17.2165 H   0  0  0  0  0  0  0  0  0  0  0  0
   -7.7286   -1.6594  -18.5854 H   0  0  0  0  0  0  0  0  0  0  0  0
   -6.7964   -1.8998  -22.0370 H   0  0  0  0  0  0  0  0  0  0  0  0
   -8.0404   -2.2447  -20.8451 H   0  0  0  0  0  0  0  0  0  0  0  0
   -9.3937   -2.1683  -23.3964 C   0  0  0  0  0  0  0  0  0  0  0  0
  -10.6648   -2.7279  -22.7560 C   0  0  0  0  0  0  0  0  0  0  0  0
  -10.5877   -2.6368  -21.6682 H   0  0  0  0  0  0  0  0  0  0  0  0
  -10.7258   -3.8072  -22.9644 H   0  0  0  0  0  0  0  0  0  0  0  0
   -8.5305   -2.7925  -23.1569 H   0  0  0  0  0  0  0  0  0  0  0  0
   -9.5110   -2.2198  -24.4812 H   0  0  0  0  0  0  0  0  0  0  0  0
  -10.2464   -0.0752  -24.6324 H   0  0  0  0  0  0  0  0  0  0  0  0
   -9.5095    1.1782  -23.6543 H   0  0  0  0  0  0  0  0  0  0  0  0
  -11.5327    1.3304  -22.3870 H   0  0  0  0  0  0  0  0  0  0  0  0
  -13.0281   -0.4976  -22.0115 H   0  0  0  0  0  0  0  0  0  0  0  0
  -11.8994   -1.9354  -24.3104 H   0  0  0  0  0  0  0  0  0  0  0  0
  -13.1016   -3.9054  -23.3704 H   0  0  0  0  0  0  0  0  0  0  0  0
  -13.1944   -3.0620  -21.8281 H   0  0  0  0  0  0  0  0  0  0  0  0
  -14.0972   -2.4538  -23.2459 H   0  0  0  0  0  0  0  0  0  0  0  0
  1  2  1  0
  2  3  1  0
  3  4  2  0
  4  5  1  0
  5  6  1  0
  6  7  1  0
  7  8  2  0
  7  9  1  0
  9 10  1  0
 10 11  2  0
 11 12  1  0
 12 13  2  0
 13 14  1  0
 14 15  2  0
 15 16  1  0
 16 17  2  0
 17 18  1  0
 18 19  2  0
 18 20  1  0
 17 21  1  0
 16 22  1  0
 15 23  1  0
 13 24  1  0
 11 25  1  0
  9 26  1  0
  9 27  1  0
  6 28  1  0
 28 29  1  0
 29 30  1  0
 29 31  1  0
 28 32  1  0
 28 33  1  0
  5 34  1  0
  5 35  1  0
  4 36  1  0
  3 37  1  0
  2 38  1  6
  1 39  1  0
  1 40  1  0
  1 41  1  0
 29  2  1  0
 19 10  1  0
 19 14  1  0
M  END
>  <cnnaffinities>  (10) 
[4.51493, 4.95303, 4.90865]

>  <score>  (10) 
4.51493

>  <index>  (10) 
9

>  <Smiles>  (10) 
C([C@]1(C(=C(C(N(C(=O)C(c2c(nc(c3c(c(c(c(c23)[H])[H])[H])[H])[H])[H])([H])[H])C(C1([H])[H])([H])[H])([H])[H])[H])[H])[H])([H])([H])[H]

>  <h>  (10) 
<NA>

>  <Training>  (10) 
True

>  <Success>  (10) 
True

>  <enamine_searched>  (10) 
False

>  <enamine_id>  (10) 
nan

$$$$

     RDKit          3D

 57 62  0  0  0  0  0  0  0  0999 V2000
   -9.9431   -0.9271  -23.5293 C   0  0  0  0  0  0  0  0  0  0  0  0
   -8.5771   -1.2547  -22.9375 C   0  0  1  0  0  0  0  0  0  0  0  0
   -8.1419   -0.3273  -21.7943 C   0  0  0  0  0  0  0  0  0  0  0  0
   -7.1818   -1.1381  -21.0564 N   0  0  0  0  0  0  0  0  0  0  0  0
   -6.3842   -0.6502  -19.9980 C   0  0  0  0  0  0  0  0  0  0  0  0
   -6.6684   -0.9388  -18.6902 C   0  0  0  0  0  0  0  0  0  0  0  0
   -6.0206   -0.3789  -17.6358 N   0  0  0  0  0  0  0  0  0  0  0  0
   -5.0297    0.4463  -17.8910 C   0  0  0  0  0  0  0  0  0  0  0  0
   -4.5743    0.7595  -19.2088 C   0  0  0  0  0  0  0  0  0  0  0  0
   -3.4466    1.5855  -19.4806 C   0  0  0  0  0  0  0  0  0  0  0  0
   -3.0470    1.8081  -20.7723 C   0  0  0  0  0  0  0  0  0  0  0  0
   -3.7392    1.2228  -21.8565 C   0  0  0  0  0  0  0  0  0  0  0  0
   -4.8289    0.4271  -21.6210 C   0  0  0  0  0  0  0  0  0  0  0  0
   -5.2735    0.1917  -20.2951 C   0  0  0  0  0  0  0  0  0  0  0  0
   -5.3498   -0.0498  -22.4431 H   0  0  0  0  0  0  0  0  0  0  0  0
   -3.4118    1.4000  -22.8774 H   0  0  0  0  0  0  0  0  0  0  0  0
   -2.1903    2.4435  -20.9816 H   0  0  0  0  0  0  0  0  0  0  0  0
   -2.9072    2.0416  -18.6527 H   0  0  0  0  0  0  0  0  0  0  0  0
   -4.5256    0.8928  -17.0307 H   0  0  0  0  0  0  0  0  0  0  0  0
   -7.4589   -1.6454  -18.4450 H   0  0  0  0  0  0  0  0  0  0  0  0
   -7.3144   -2.4861  -21.2938 C   0  0  0  0  0  0  0  0  0  0  0  0
   -6.6569   -3.3587  -20.7568 O   0  0  0  0  0  0  0  0  0  0  0  0
   -8.4297   -2.6876  -22.3222 C   0  0  1  0  0  0  0  0  0  0  0  0
   -9.6752   -3.1337  -21.5117 C   0  0  0  0  0  0  0  0  0  0  0  0
  -10.7431   -3.6480  -22.3599 N   0  0  0  0  0  0  0  0  0  0  0  0
  -12.1279   -3.5390  -21.9080 C   0  0  0  0  0  0  0  0  0  0  0  0
  -12.9856   -2.4615  -22.5101 C   0  0  0  0  0  0  0  0  0  0  0  0
  -13.8221   -1.6264  -21.8522 C   0  0  0  0  0  0  0  0  0  0  0  0
  -14.5960   -0.9761  -22.7895 N   0  0  0  0  0  4  0  0  0  0  0  0
  -14.2391   -1.4065  -24.0024 C   0  0  0  0  0  0  0  0  0  0  0  0
  -13.2443   -2.2943  -23.8567 N   0  0  0  0  0  0  0  0  0  0  0  0
  -12.7823   -2.8171  -24.5890 H   0  0  0  0  0  0  0  0  0  0  0  0
  -14.6712   -1.1065  -24.9408 H   0  0  0  0  0  0  0  0  0  0  0  0
  -15.3801   -0.3728  -22.5828 H   0  0  0  0  0  0  0  0  0  0  0  0
  -14.0059   -1.5071  -20.7976 H   0  0  0  0  0  0  0  0  0  0  0  0
  -12.5870   -4.5128  -22.0897 H   0  0  0  0  0  0  0  0  0  0  0  0
  -12.1665   -3.3410  -20.8387 H   0  0  0  0  0  0  0  0  0  0  0  0
  -10.4392   -4.5972  -23.3002 C   0  0  0  0  0  0  0  0  0  0  0  0
  -11.2552   -5.3657  -23.7702 O   0  0  0  0  0  0  0  0  0  0  0  0
   -9.0350   -4.6543  -23.7898 C   0  0  0  0  0  0  0  0  0  0  0  0
   -8.7378   -5.6216  -24.7504 C   0  0  0  0  0  0  0  0  0  0  0  0
   -7.4770   -5.6934  -25.3050 C   0  0  0  0  0  0  0  0  0  0  0  0
   -6.5169   -4.8057  -24.8314 C   0  0  0  0  0  0  0  0  0  0  0  0
   -5.2852   -4.8688  -25.3604 F   0  0  0  0  0  0  0  0  0  0  0  0
   -6.7767   -3.8739  -23.8438 C   0  0  0  0  0  0  0  0  0  0  0  0
   -8.0729   -3.7614  -23.3270 C   0  0  0  0  0  0  0  0  0  0  0  0
   -5.9646   -3.2825  -23.4408 H   0  0  0  0  0  0  0  0  0  0  0  0
   -7.2283   -6.4222  -26.0694 H   0  0  0  0  0  0  0  0  0  0  0  0
   -9.5322   -6.3058  -25.0310 H   0  0  0  0  0  0  0  0  0  0  0  0
   -9.3398   -3.8929  -20.7879 H   0  0  0  0  0  0  0  0  0  0  0  0
  -10.0975   -2.2988  -20.9448 H   0  0  0  0  0  0  0  0  0  0  0  0
   -7.6921    0.6108  -22.1331 H   0  0  0  0  0  0  0  0  0  0  0  0
   -8.9999   -0.0661  -21.1580 H   0  0  0  0  0  0  0  0  0  0  0  0
   -7.8284   -1.1877  -23.7373 H   0  0  0  0  0  0  0  0  0  0  0  0
  -10.7244   -0.9873  -22.7635 H   0  0  0  0  0  0  0  0  0  0  0  0
  -10.1912   -1.6382  -24.3236 H   0  0  0  0  0  0  0  0  0  0  0  0
   -9.9590    0.0800  -23.9583 H   0  0  0  0  0  0  0  0  0  0  0  0
  1  2  1  0
  2  3  1  0
  3  4  1  0
  4  5  1  0
  5  6  2  0
  6  7  1  0
  7  8  2  0
  8  9  1  0
  9 10  2  0
 10 11  1  0
 11 12  2  0
 12 13  1  0
 13 14  2  0
 13 15  1  0
 12 16  1  0
 11 17  1  0
 10 18  1  0
  8 19  1  0
  6 20  1  0
  4 21  1  0
 21 22  2  0
 21 23  1  0
 23 24  1  1
 24 25  1  0
 25 26  1  0
 26 27  1  0
 27 28  2  0
 28 29  1  0
 29 30  2  0
 30 31  1  0
 31 32  1  0
 30 33  1  0
 29 34  1  0
 28 35  1  0
 26 36  1  0
 26 37  1  0
 25 38  1  0
 38 39  2  0
 38 40  1  0
 40 41  2  0
 41 42  1  0
 42 43  2  0
 43 44  1  0
 43 45  1  0
 45 46  2  0
 45 47  1  0
 42 48  1  0
 41 49  1  0
 24 50  1  0
 24 51  1  0
  3 52  1  0
  3 53  1  0
  2 54  1  6
  1 55  1  0
  1 56  1  0
  1 57  1  0
 23  2  1  0
 31 27  1  0
 46 40  1  0
 14  5  1  0
 46 23  1  0
 14  9  1  0
M  CHG  1  29   1
M  END
>  <cnnaffinities>  (11) 
[6.66457]

>  <score>  (11) 
6.66457

>  <index>  (11) 
10

>  <Smiles>  (11) 
C([C@]1(C(N(c2c(nc(c3c(c(c(c(c23)[H])[H])[H])[H])[H])[H])C(=O)[C@]21C(N(C(c1c([n+](c(n1[H])[H])[H])[H])([H])[H])C(=O)c1c(c(c(F)c(c21)[H])[H])[H])([H])[H])([H])[H])[H])([H])([H])[H]

>  <h>  (11) 
<NA>

>  <Training>  (11) 
True

>  <Success>  (11) 
True

>  <enamine_searched>  (11) 
False

>  <enamine_id>  (11) 
nan

$$$$

     RDKit          3D

 48 52  0  0  0  0  0  0  0  0999 V2000
  -10.4788   -2.5798  -22.3285 C   0  0  0  0  0  0  0  0  0  0  0  0
   -9.0728   -2.3085  -22.0899 N   0  0  0  0  0  0  0  0  0  0  0  0
   -8.6721   -1.1997  -21.3904 C   0  0  0  0  0  0  0  0  0  0  0  0
   -9.3484   -0.2849  -20.9760 O   0  0  0  0  0  0  0  0  0  0  0  0
   -7.2794   -1.3057  -21.2442 N   0  0  0  0  0  0  0  0  0  0  0  0
   -6.5808   -0.6794  -20.1835 C   0  0  0  0  0  0  0  0  0  0  0  0
   -6.9508   -0.9155  -18.8849 C   0  0  0  0  0  0  0  0  0  0  0  0
   -6.2755   -0.4422  -17.8109 N   0  0  0  0  0  0  0  0  0  0  0  0
   -5.2109    0.2885  -18.0472 C   0  0  0  0  0  0  0  0  0  0  0  0
   -4.7325    0.6105  -19.3502 C   0  0  0  0  0  0  0  0  0  0  0  0
   -3.5786    1.4082  -19.5594 C   0  0  0  0  0  0  0  0  0  0  0  0
   -3.1699    1.7044  -20.8303 C   0  0  0  0  0  0  0  0  0  0  0  0
   -3.8794    1.2161  -21.9509 C   0  0  0  0  0  0  0  0  0  0  0  0
   -4.9928    0.4350  -21.7783 C   0  0  0  0  0  0  0  0  0  0  0  0
   -5.4397    0.1183  -20.4646 C   0  0  0  0  0  0  0  0  0  0  0  0
   -5.5403    0.0482  -22.6343 H   0  0  0  0  0  0  0  0  0  0  0  0
   -3.5448    1.4677  -22.9528 H   0  0  0  0  0  0  0  0  0  0  0  0
   -2.3034    2.3387  -20.9870 H   0  0  0  0  0  0  0  0  0  0  0  0
   -3.0520    1.7916  -18.6906 H   0  0  0  0  0  0  0  0  0  0  0  0
   -4.6708    0.6578  -17.1750 H   0  0  0  0  0  0  0  0  0  0  0  0
   -7.8202   -1.5345  -18.6682 H   0  0  0  0  0  0  0  0  0  0  0  0
   -6.7762   -2.4538  -21.8505 C   0  0  0  0  0  0  0  0  0  0  0  0
   -5.6281   -2.8222  -21.8059 O   0  0  0  0  0  0  0  0  0  0  0  0
   -7.9573   -3.1328  -22.5104 C   0  0  0  0  0  0  0  0  0  0  0  0
   -7.9718   -4.6599  -22.2975 C   0  0  0  0  0  0  0  0  0  0  0  0
   -7.7758   -4.8678  -23.7688 N   0  0  0  0  0  0  0  0  0  0  0  0
   -8.9938   -5.7589  -24.5417 S   0  0  0  0  0  0  0  0  0  0  0  0
   -8.7900   -7.1482  -24.1860 O   0  0  0  0  0  0  0  0  0  0  0  0
  -10.2600   -5.0869  -24.2857 O   0  0  0  0  0  0  0  0  0  0  0  0
   -8.6716   -5.5531  -26.2735 C   0  0  0  0  0  0  0  0  0  0  0  0
   -9.1438   -4.4097  -26.9133 C   0  0  0  0  0  0  0  0  0  0  0  0
   -8.9699   -4.2888  -28.2848 C   0  0  0  0  0  0  0  0  0  0  0  0
   -8.3799   -5.3167  -29.0108 C   0  0  0  0  0  0  0  0  0  0  0  0
   -7.9071   -6.4482  -28.3563 C   0  0  0  0  0  0  0  0  0  0  0  0
   -8.0333   -6.5692  -26.9738 C   0  0  0  0  0  0  0  0  0  0  0  0
   -7.6566   -7.4385  -26.4421 H   0  0  0  0  0  0  0  0  0  0  0  0
   -7.4460   -7.2446  -28.9264 H   0  0  0  0  0  0  0  0  0  0  0  0
   -8.3003   -5.2294  -30.0901 H   0  0  0  0  0  0  0  0  0  0  0  0
   -9.3057   -3.3966  -28.7984 H   0  0  0  0  0  0  0  0  0  0  0  0
   -9.6768   -3.6444  -26.3516 H   0  0  0  0  0  0  0  0  0  0  0  0
   -7.7740   -3.4065  -24.0132 C   0  0  0  0  0  0  0  0  0  0  0  0
   -8.5940   -3.0291  -24.6284 H   0  0  0  0  0  0  0  0  0  0  0  0
   -6.8178   -3.0751  -24.4186 H   0  0  0  0  0  0  0  0  0  0  0  0
   -8.8856   -5.0820  -21.8717 H   0  0  0  0  0  0  0  0  0  0  0  0
   -7.0851   -4.9896  -21.7552 H   0  0  0  0  0  0  0  0  0  0  0  0
  -10.7605   -3.5743  -21.9656 H   0  0  0  0  0  0  0  0  0  0  0  0
  -10.7274   -2.4870  -23.3916 H   0  0  0  0  0  0  0  0  0  0  0  0
  -11.0436   -1.8305  -21.7692 H   0  0  0  0  0  0  0  0  0  0  0  0
  1  2  1  0
  2  3  1  0
  3  4  2  0
  3  5  1  0
  5  6  1  0
  6  7  2  0
  7  8  1  0
  8  9  2  0
  9 10  1  0
 10 11  2  0
 11 12  1  0
 12 13  2  0
 13 14  1  0
 14 15  2  0
 14 16  1  0
 13 17  1  0
 12 18  1  0
 11 19  1  0
  9 20  1  0
  7 21  1  0
  5 22  1  0
 22 23  2  0
 22 24  1  0
 24 25  1  0
 25 26  1  0
 26 27  1  0
 27 28  2  0
 27 29  2  0
 27 30  1  0
 30 31  2  0
 31 32  1  0
 32 33  2  0
 33 34  1  0
 34 35  2  0
 35 36  1  0
 34 37  1  0
 33 38  1  0
 32 39  1  0
 31 40  1  0
 26 41  1  0
 41 42  1  0
 41 43  1  0
 25 44  1  0
 25 45  1  0
  1 46  1  0
  1 47  1  0
  1 48  1  0
 24  2  1  0
 35 30  1  0
 15  6  1  0
 41 24  1  0
 15 10  1  0
M  END
>  <cnnaffinities>  (12) 
[5.4099]

>  <score>  (12) 
5.4099

>  <index>  (12) 
11

>  <Smiles>  (12) 
C(N1C(=O)N(c2c(nc(c3c(c(c(c(c23)[H])[H])[H])[H])[H])[H])C(=O)C21C(N(S(=O)(=O)c1c(c(c(c(c1[H])[H])[H])[H])[H])C2([H])[H])([H])[H])([H])([H])[H]

>  <h>  (12) 
<NA>

>  <Training>  (12) 
True

>  <Success>  (12) 
True

>  <enamine_searched>  (12) 
False

>  <enamine_id>  (12) 
nan

$$$$

     RDKit          3D

 76 82  0  0  0  0  0  0  0  0999 V2000
  -12.4946    0.3417  -24.5261 O   0  0  0  0  0  0  0  0  0  0  0  0
  -11.6796   -0.4293  -24.0368 C   0  0  0  0  0  0  0  0  0  0  0  0
  -12.0374   -1.3754  -22.9408 C   0  0  0  0  0  0  0  0  0  0  0  0
  -13.2596   -1.2095  -22.2981 C   0  0  0  0  0  0  0  0  0  0  0  0
  -13.6131   -2.0725  -21.2904 C   0  0  0  0  0  0  0  0  0  0  0  0
  -12.8117   -3.1972  -21.0661 C   0  0  0  0  0  0  0  0  0  0  0  0
  -13.4026   -4.4718  -20.0551 Cl  0  0  0  0  0  0  0  0  0  0  0  0
  -11.5842   -3.3494  -21.6710 C   0  0  0  0  0  0  0  0  0  0  0  0
  -11.1121   -2.3262  -22.4905 C   0  0  0  0  0  0  0  0  0  0  0  0
   -9.6386   -2.0988  -22.7073 C   0  0  1  0  0  0  0  0  0  0  0  0
   -9.4886   -1.5227  -24.1322 C   0  0  0  0  0  0  0  0  0  0  0  0
  -10.3469   -0.3750  -24.3395 N   0  0  0  0  0  0  0  0  0  0  0  0
   -9.8615    0.9524  -24.6621 C   0  0  0  0  0  0  0  0  0  0  0  0
   -9.9898    1.8958  -23.4514 C   0  0  0  0  0  0  0  0  0  0  0  0
  -10.3252    3.3040  -23.8080 N   0  0  0  0  0  4  0  0  0  0  0  0
   -9.5679    3.8814  -24.9733 C   0  0  0  0  0  0  0  0  0  0  0  0
   -9.9375    5.3496  -25.1228 C   0  0  0  0  0  0  0  0  0  0  0  0
  -11.3276    5.5242  -25.3243 O   0  0  0  0  0  0  0  0  0  0  0  0
  -12.0720    5.0031  -24.2388 C   0  0  0  0  0  0  0  0  0  0  0  0
  -11.8084    3.5214  -24.0046 C   0  0  0  0  0  0  0  0  0  0  0  0
  -12.3267    3.1700  -23.1068 H   0  0  0  0  0  0  0  0  0  0  0  0
  -12.1533    2.9204  -24.8491 H   0  0  0  0  0  0  0  0  0  0  0  0
  -11.8195    5.5479  -23.3127 H   0  0  0  0  0  0  0  0  0  0  0  0
  -13.1257    5.1792  -24.4689 H   0  0  0  0  0  0  0  0  0  0  0  0
   -9.4370    5.7903  -25.9885 H   0  0  0  0  0  0  0  0  0  0  0  0
   -9.6127    5.8866  -24.2156 H   0  0  0  0  0  0  0  0  0  0  0  0
   -8.4939    3.7557  -24.8111 H   0  0  0  0  0  0  0  0  0  0  0  0
   -9.8515    3.3476  -25.8819 H   0  0  0  0  0  0  0  0  0  0  0  0
  -10.0591    3.8604  -22.9702 H   0  0  0  0  0  0  0  0  0  0  0  0
   -9.0797    1.8923  -22.8478 H   0  0  0  0  0  0  0  0  0  0  0  0
  -10.7985    1.5461  -22.8071 H   0  0  0  0  0  0  0  0  0  0  0  0
   -8.8269    0.8936  -25.0153 H   0  0  0  0  0  0  0  0  0  0  0  0
  -10.4778    1.3124  -25.4900 H   0  0  0  0  0  0  0  0  0  0  0  0
   -9.7657   -2.3148  -24.8408 H   0  0  0  0  0  0  0  0  0  0  0  0
   -8.4522   -1.2344  -24.3301 H   0  0  0  0  0  0  0  0  0  0  0  0
   -9.0993   -1.0802  -21.6656 C   0  0  0  0  0  0  0  0  0  0  0  0
   -9.6524   -0.0908  -21.2302 O   0  0  0  0  0  0  0  0  0  0  0  0
   -7.8287   -1.4653  -21.3142 N   0  0  0  0  0  0  0  0  0  0  0  0
   -7.1164   -0.8579  -20.2602 C   0  0  0  0  0  0  0  0  0  0  0  0
   -7.4964   -1.0344  -18.9556 C   0  0  0  0  0  0  0  0  0  0  0  0
   -6.7791   -0.5892  -17.8948 N   0  0  0  0  0  0  0  0  0  0  0  0
   -5.6717    0.0671  -18.1418 C   0  0  0  0  0  0  0  0  0  0  0  0
   -5.1895    0.3540  -19.4499 C   0  0  0  0  0  0  0  0  0  0  0  0
   -4.0093    1.1056  -19.6812 C   0  0  0  0  0  0  0  0  0  0  0  0
   -3.5650    1.3131  -20.9575 C   0  0  0  0  0  0  0  0  0  0  0  0
   -4.2782    0.7934  -22.0607 C   0  0  0  0  0  0  0  0  0  0  0  0
   -5.4412    0.0920  -21.8652 C   0  0  0  0  0  0  0  0  0  0  0  0
   -5.9200   -0.1403  -20.5497 C   0  0  0  0  0  0  0  0  0  0  0  0
   -6.0085   -0.2857  -22.7110 H   0  0  0  0  0  0  0  0  0  0  0  0
   -3.9087    0.9539  -23.0680 H   0  0  0  0  0  0  0  0  0  0  0  0
   -2.6603    1.8877  -21.1323 H   0  0  0  0  0  0  0  0  0  0  0  0
   -3.4826    1.5182  -18.8254 H   0  0  0  0  0  0  0  0  0  0  0  0
   -5.0899    0.3950  -17.2796 H   0  0  0  0  0  0  0  0  0  0  0  0
   -8.4074   -1.5803  -18.7194 H   0  0  0  0  0  0  0  0  0  0  0  0
   -7.3987   -2.7015  -21.9266 C   0  0  0  0  0  0  0  0  0  0  0  0
   -8.7246   -3.3109  -22.4035 C   0  0  2  0  0  0  0  0  0  0  0  0
   -8.4835   -4.3393  -23.4953 C   0  0  0  0  0  0  0  0  0  0  0  0
   -9.6759   -4.9637  -24.0401 N   0  0  0  0  0  0  0  0  0  0  0  0
   -9.5443   -5.7939  -25.1125 C   0  0  0  0  0  0  0  0  0  0  0  0
  -10.6054   -6.5461  -25.4547 N   0  0  0  0  0  0  0  0  0  0  0  0
  -10.4612   -7.2754  -26.5558 C   0  0  0  0  0  0  0  0  0  0  0  0
   -9.3064   -7.2757  -27.3349 C   0  0  0  0  0  0  0  0  0  0  0  0
   -8.2648   -6.4948  -26.8577 C   0  0  0  0  0  0  0  0  0  0  0  0
   -8.3577   -5.7655  -25.7518 N   0  0  0  0  0  0  0  0  0  0  0  0
   -7.3114   -6.4396  -27.3867 H   0  0  0  0  0  0  0  0  0  0  0  0
   -9.2252   -7.8506  -28.2502 H   0  0  0  0  0  0  0  0  0  0  0  0
  -11.3121   -7.8936  -26.8390 H   0  0  0  0  0  0  0  0  0  0  0  0
  -10.5360   -5.0383  -23.5149 H   0  0  0  0  0  0  0  0  0  0  0  0
   -7.8024   -5.1155  -23.1168 H   0  0  0  0  0  0  0  0  0  0  0  0
   -7.9774   -3.8630  -24.3424 H   0  0  0  0  0  0  0  0  0  0  0  0
   -9.1629   -3.7899  -21.5225 H   0  0  0  0  0  0  0  0  0  0  0  0
   -6.7078   -2.5286  -22.7711 H   0  0  0  0  0  0  0  0  0  0  0  0
   -6.8838   -3.3262  -21.1877 H   0  0  0  0  0  0  0  0  0  0  0  0
  -10.9901   -4.2248  -21.4416 H   0  0  0  0  0  0  0  0  0  0  0  0
  -14.5304   -1.9631  -20.7172 H   0  0  0  0  0  0  0  0  0  0  0  0
  -13.9059   -0.3813  -22.5775 H   0  0  0  0  0  0  0  0  0  0  0  0
  1  2  2  0
  2  3  1  0
  3  4  2  0
  4  5  1  0
  5  6  2  0
  6  7  1  0
  6  8  1  0
  8  9  2  0
  9 10  1  0
 10 11  1  6
 11 12  1  0
 12 13  1  0
 13 14  1  0
 14 15  1  0
 15 16  1  0
 16 17  1  0
 17 18  1  0
 18 19  1  0
 19 20  1  0
 20 21  1  0
 20 22  1  0
 19 23  1  0
 19 24  1  0
 17 25  1  0
 17 26  1  0
 16 27  1  0
 16 28  1  0
 15 29  1  0
 14 30  1  0
 14 31  1  0
 13 32  1  0
 13 33  1  0
 11 34  1  0
 11 35  1  0
 10 36  1  0
 36 37  2  0
 36 38  1  0
 38 39  1  0
 39 40  2  0
 40 41  1  0
 41 42  2  0
 42 43  1  0
 43 44  2  0
 44 45  1  0
 45 46  2  0
 46 47  1  0
 47 48  2  0
 47 49  1  0
 46 50  1  0
 45 51  1  0
 44 52  1  0
 42 53  1  0
 40 54  1  0
 38 55  1  0
 55 56  1  0
 56 57  1  0
 57 58  1  0
 58 59  1  0
 59 60  2  0
 60 61  1  0
 61 62  2  0
 62 63  1  0
 63 64  2  0
 63 65  1  0
 62 66  1  0
 61 67  1  0
 58 68  1  0
 57 69  1  0
 57 70  1  0
 56 71  1  1
 55 72  1  0
 55 73  1  0
  8 74  1  0
  5 75  1  0
  4 76  1  0
 12  2  1  0
 20 15  1  0
 48 39  1  0
 64 59  1  0
  9  3  1  0
 56 10  1  0
 48 43  1  0
M  CHG  1  15   1
M  END
>  <cnnaffinities>  (13) 
[6.79477]

>  <score>  (13) 
6.79477

>  <index>  (13) 
12

>  <Smiles>  (13) 
O=C1c2c(c(c(Cl)c(c2[C@@]2(C(N1C(C([N+]1(C(C(OC(C1([H])[H])([H])[H])([H])[H])([H])[H])[H])([H])[H])([H])[H])([H])[H])C(=O)N(c1c(nc(c3c(c(c(c(c13)[H])[H])[H])[H])[H])[H])C([C@@]2(C(N(c1nc(c(c(n1)[H])[H])[H])[H])([H])[H])[H])([H])[H])[H])[H])[H]

>  <h>  (13) 
<NA>

>  <Training>  (13) 
True

>  <Success>  (13) 
True

>  <enamine_searched>  (13) 
False

>  <enamine_id>  (13) 
nan

$$$$

     RDKit          3D

 69 74  0  0  0  0  0  0  0  0999 V2000
   -7.3488    3.3815  -21.9228 C   0  0  0  0  0  0  0  0  0  0  0  0
   -8.2734    2.8765  -22.9221 N   0  0  0  0  0  0  0  0  0  0  0  0
   -7.7578    2.1713  -23.9662 C   0  0  0  0  0  0  0  0  0  0  0  0
   -6.5558    1.9996  -24.0966 O   0  0  0  0  0  0  0  0  0  0  0  0
   -8.7646    1.5807  -24.9593 C   0  0  0  0  0  0  0  0  0  0  0  0
   -9.4232    0.4223  -24.3789 N   0  0  0  0  0  0  0  0  0  0  0  0
   -8.6459   -0.7968  -24.1993 C   0  0  0  0  0  0  0  0  0  0  0  0
   -9.0229   -1.5204  -22.8809 C   0  0  2  0  0  0  0  0  0  0  0  0
   -8.5098   -0.7384  -21.6568 C   0  0  0  0  0  0  0  0  0  0  0  0
   -8.9953    0.2516  -21.1520 O   0  0  0  0  0  0  0  0  0  0  0  0
   -7.3751   -1.3687  -21.1994 N   0  0  0  0  0  0  0  0  0  0  0  0
   -6.6040   -0.7983  -20.1655 C   0  0  0  0  0  0  0  0  0  0  0  0
   -6.9373   -1.0210  -18.8552 C   0  0  0  0  0  0  0  0  0  0  0  0
   -6.2416   -0.5334  -17.7999 N   0  0  0  0  0  0  0  0  0  0  0  0
   -5.1911    0.2076  -18.0667 C   0  0  0  0  0  0  0  0  0  0  0  0
   -4.7446    0.5241  -19.3819 C   0  0  0  0  0  0  0  0  0  0  0  0
   -3.6162    1.3510  -19.6252 C   0  0  0  0  0  0  0  0  0  0  0  0
   -3.2355    1.6504  -20.9045 C   0  0  0  0  0  0  0  0  0  0  0  0
   -3.9683    1.1498  -22.0048 C   0  0  0  0  0  0  0  0  0  0  0  0
   -5.0662    0.3504  -21.7981 C   0  0  0  0  0  0  0  0  0  0  0  0
   -5.4743    0.0122  -20.4779 C   0  0  0  0  0  0  0  0  0  0  0  0
   -5.6463    0.0039  -22.6488 H   0  0  0  0  0  0  0  0  0  0  0  0
   -3.6750    1.4098  -23.0165 H   0  0  0  0  0  0  0  0  0  0  0  0
   -2.3719    2.2844  -21.0825 H   0  0  0  0  0  0  0  0  0  0  0  0
   -3.0804    1.7503  -18.7687 H   0  0  0  0  0  0  0  0  0  0  0  0
   -4.6332    0.6029  -17.2177 H   0  0  0  0  0  0  0  0  0  0  0  0
   -7.8077   -1.6295  -18.6210 H   0  0  0  0  0  0  0  0  0  0  0  0
   -6.9916   -2.5483  -21.9460 C   0  0  0  0  0  0  0  0  0  0  0  0
   -8.2816   -2.8670  -22.7079 C   0  0  2  0  0  0  0  0  0  0  0  0
   -8.1236   -3.6954  -23.9849 C   0  0  0  0  0  0  0  0  0  0  0  0
   -7.6790   -5.0541  -23.7367 N   0  0  0  0  0  0  0  0  0  0  0  0
   -6.3711   -5.3613  -23.4882 C   0  0  0  0  0  0  0  0  0  0  0  0
   -5.3103   -4.6757  -24.1085 C   0  0  0  0  0  0  0  0  0  0  0  0
   -4.0713   -5.2402  -23.9508 C   0  0  0  0  0  0  0  0  0  0  0  0
   -3.8140   -6.2831  -23.1567 N   0  0  0  0  0  0  0  0  0  0  0  0
   -4.8686   -6.7634  -22.4967 C   0  0  0  0  0  0  0  0  0  0  0  0
   -4.6316   -7.8557  -21.4929 C   0  0  0  0  0  0  0  0  0  0  0  0
   -3.6156   -8.2515  -21.5934 H   0  0  0  0  0  0  0  0  0  0  0  0
   -5.3857   -8.6382  -21.6303 H   0  0  0  0  0  0  0  0  0  0  0  0
   -4.7636   -7.4651  -20.4775 H   0  0  0  0  0  0  0  0  0  0  0  0
   -6.1378   -6.3702  -22.6433 N   0  0  0  0  0  0  0  0  0  0  0  0
   -3.2274   -4.8337  -24.5020 H   0  0  0  0  0  0  0  0  0  0  0  0
   -5.4365   -3.7804  -24.7106 H   0  0  0  0  0  0  0  0  0  0  0  0
   -8.3196   -5.6508  -23.2278 H   0  0  0  0  0  0  0  0  0  0  0  0
   -7.4117   -3.2191  -24.6657 H   0  0  0  0  0  0  0  0  0  0  0  0
   -9.0860   -3.7364  -24.5113 H   0  0  0  0  0  0  0  0  0  0  0  0
   -8.8717   -3.4760  -22.0179 H   0  0  0  0  0  0  0  0  0  0  0  0
   -6.1401   -2.3576  -22.6184 H   0  0  0  0  0  0  0  0  0  0  0  0
   -6.7003   -3.3595  -21.2715 H   0  0  0  0  0  0  0  0  0  0  0  0
  -10.5218   -1.6294  -22.7968 C   0  0  0  0  0  0  0  0  0  0  0  0
  -11.0959   -2.5298  -21.8954 C   0  0  0  0  0  0  0  0  0  0  0  0
  -12.4617   -2.5818  -21.7318 C   0  0  0  0  0  0  0  0  0  0  0  0
  -13.0527   -3.6656  -20.5018 Cl  0  0  0  0  0  0  0  0  0  0  0  0
  -13.3120   -1.7606  -22.4735 C   0  0  0  0  0  0  0  0  0  0  0  0
  -12.7444   -0.8402  -23.3374 C   0  0  0  0  0  0  0  0  0  0  0  0
  -11.3587   -0.7336  -23.4685 C   0  0  0  0  0  0  0  0  0  0  0  0
  -10.7915    0.4099  -24.2697 C   0  0  0  0  0  0  0  0  0  0  0  0
  -11.4990    1.2760  -24.7595 O   0  0  0  0  0  0  0  0  0  0  0  0
  -13.3615   -0.1553  -23.9060 H   0  0  0  0  0  0  0  0  0  0  0  0
  -14.3874   -1.8210  -22.3401 H   0  0  0  0  0  0  0  0  0  0  0  0
  -10.5079   -3.1896  -21.2686 H   0  0  0  0  0  0  0  0  0  0  0  0
   -7.5819   -0.5382  -24.1941 H   0  0  0  0  0  0  0  0  0  0  0  0
   -8.8203   -1.4664  -25.0544 H   0  0  0  0  0  0  0  0  0  0  0  0
   -8.2221    1.3029  -25.8709 H   0  0  0  0  0  0  0  0  0  0  0  0
   -9.5425    2.2953  -25.2446 H   0  0  0  0  0  0  0  0  0  0  0  0
   -9.2178    2.6776  -22.6222 H   0  0  0  0  0  0  0  0  0  0  0  0
   -6.6306    4.0609  -22.3873 H   0  0  0  0  0  0  0  0  0  0  0  0
   -7.9011    3.9549  -21.1778 H   0  0  0  0  0  0  0  0  0  0  0  0
   -6.7954    2.5549  -21.4543 H   0  0  0  0  0  0  0  0  0  0  0  0
  1  2  1  0
  2  3  1  0
  3  4  2  0
  3  5  1  0
  5  6  1  0
  6  7  1  0
  8  7  1  6
  8  9  1  0
  9 10  2  0
  9 11  1  0
 11 12  1  0
 12 13  2  0
 13 14  1  0
 14 15  2  0
 15 16  1  0
 16 17  2  0
 17 18  1  0
 18 19  2  0
 19 20  1  0
 20 21  2  0
 20 22  1  0
 19 23  1  0
 18 24  1  0
 17 25  1  0
 15 26  1  0
 13 27  1  0
 11 28  1  0
 28 29  1  0
 29 30  1  0
 30 31  1  0
 31 32  1  0
 32 33  2  0
 33 34  1  0
 34 35  2  0
 35 36  1  0
 36 37  1  0
 37 38  1  0
 37 39  1  0
 37 40  1  0
 36 41  2  0
 34 42  1  0
 33 43  1  0
 31 44  1  0
 30 45  1  0
 30 46  1  0
 29 47  1  1
 28 48  1  0
 28 49  1  0
  8 50  1  0
 50 51  2  0
 51 52  1  0
 52 53  1  0
 52 54  2  0
 54 55  1  0
 55 56  2  0
 56 57  1  0
 57 58  2  0
 55 59  1  0
 54 60  1  0
 51 61  1  0
  7 62  1  0
  7 63  1  0
  5 64  1  0
  5 65  1  0
  2 66  1  0
  1 67  1  0
  1 68  1  0
  1 69  1  0
 57  6  1  0
 29  8  1  0
 41 32  1  0
 56 50  1  0
 21 12  1  0
 21 16  1  0
M  END
>  <cnnaffinities>  (14) 
[6.42304]

>  <score>  (14) 
6.42304

>  <index>  (14) 
13

>  <Smiles>  (14) 
C(N(C(=O)C(N1C([C@@]2(C(=O)N(c3c(nc(c4c(c(c(c(c34)[H])[H])[H])[H])[H])[H])C([C@@]2(C(N(c2c(c(nc(C([H])([H])[H])n2)[H])[H])[H])([H])[H])[H])([H])[H])c2c(c(Cl)c(c(c2C1=O)[H])[H])[H])([H])[H])([H])[H])[H])([H])([H])[H]

>  <h>  (14) 
<NA>

>  <Training>  (14) 
True

>  <Success>  (14) 
True

>  <enamine_searched>  (14) 
False

>  <enamine_id>  (14) 
nan

$$$$

     RDKit          3D

 73 78  0  0  0  0  0  0  0  0999 V2000
   -6.7848   -2.9014  -24.1237 C   0  0  0  0  0  0  0  0  0  0  0  0
   -7.8722   -2.7511  -23.0471 C   0  0  1  0  0  0  0  0  0  0  0  0
   -7.2215   -2.6729  -21.6363 C   0  0  0  0  0  0  0  0  0  0  0  0
   -7.5063   -1.3287  -21.1655 N   0  0  0  0  0  0  0  0  0  0  0  0
   -6.6887   -0.7524  -20.1431 C   0  0  0  0  0  0  0  0  0  0  0  0
   -6.9768   -1.0125  -18.8273 C   0  0  0  0  0  0  0  0  0  0  0  0
   -6.2723   -0.5368  -17.7728 N   0  0  0  0  0  0  0  0  0  0  0  0
   -5.2052    0.1810  -18.0385 C   0  0  0  0  0  0  0  0  0  0  0  0
   -4.7406    0.4612  -19.3505 C   0  0  0  0  0  0  0  0  0  0  0  0
   -3.5379    1.1829  -19.5734 C   0  0  0  0  0  0  0  0  0  0  0  0
   -3.1048    1.4388  -20.8479 C   0  0  0  0  0  0  0  0  0  0  0  0
   -3.8648    0.9925  -21.9500 C   0  0  0  0  0  0  0  0  0  0  0  0
   -5.0225    0.2787  -21.7591 C   0  0  0  0  0  0  0  0  0  0  0  0
   -5.5015   -0.0069  -20.4473 C   0  0  0  0  0  0  0  0  0  0  0  0
   -5.6019   -0.0523  -22.6152 H   0  0  0  0  0  0  0  0  0  0  0  0
   -3.5352    1.2410  -22.9559 H   0  0  0  0  0  0  0  0  0  0  0  0
   -2.2219    2.0474  -21.0131 H   0  0  0  0  0  0  0  0  0  0  0  0
   -2.9820    1.5378  -18.7107 H   0  0  0  0  0  0  0  0  0  0  0  0
   -4.6401    0.5670  -17.1908 H   0  0  0  0  0  0  0  0  0  0  0  0
   -7.8405   -1.6275  -18.5838 H   0  0  0  0  0  0  0  0  0  0  0  0
   -8.1829   -0.5721  -22.0884 C   0  0  0  0  0  0  0  0  0  0  0  0
   -8.2284    0.6438  -22.0770 O   0  0  0  0  0  0  0  0  0  0  0  0
   -8.7712   -1.4623  -23.1979 C   0  0  1  0  0  0  0  0  0  0  0  0
   -8.6170   -0.7406  -24.5812 C   0  0  0  0  0  0  0  0  0  0  0  0
   -9.6548    0.2426  -24.8598 N   0  0  0  0  0  0  0  0  0  0  0  0
   -9.3910    1.5442  -25.4580 C   0  0  0  0  0  0  0  0  0  0  0  0
   -9.4101    2.6735  -24.4166 C   0  0  0  0  0  0  0  0  0  0  0  0
   -8.0973    2.7618  -23.7111 N   0  0  0  0  0  4  0  0  0  0  0  0
   -8.1109    3.5067  -22.4190 C   0  0  0  0  0  0  0  0  0  0  0  0
   -6.7161    3.5792  -21.7962 C   0  0  0  0  0  0  0  0  0  0  0  0
   -5.7261    4.0812  -22.7603 N   0  0  0  0  0  0  0  0  0  0  0  0
   -4.3722    4.8593  -22.1927 S   0  0  0  0  0  0  0  0  0  0  0  0
   -3.4428    4.9373  -23.3084 O   0  0  0  0  0  0  0  0  0  0  0  0
   -3.9917    4.2359  -20.9410 O   0  0  0  0  0  0  0  0  0  0  0  0
   -4.8830    6.5363  -21.8262 C   0  0  0  0  0  0  0  0  0  0  0  0
   -4.0675    6.9976  -21.2603 H   0  0  0  0  0  0  0  0  0  0  0  0
   -5.7957    6.5508  -21.2233 H   0  0  0  0  0  0  0  0  0  0  0  0
   -5.0292    7.0779  -22.7645 H   0  0  0  0  0  0  0  0  0  0  0  0
   -6.2778    4.4647  -24.0565 C   0  0  0  0  0  0  0  0  0  0  0  0
   -7.0291    3.2715  -24.6416 C   0  0  0  0  0  0  0  0  0  0  0  0
   -6.3439    2.4486  -24.8830 H   0  0  0  0  0  0  0  0  0  0  0  0
   -7.5206    3.5865  -25.5649 H   0  0  0  0  0  0  0  0  0  0  0  0
   -6.9660    5.3215  -23.9510 H   0  0  0  0  0  0  0  0  0  0  0  0
   -5.4575    4.7401  -24.7216 H   0  0  0  0  0  0  0  0  0  0  0  0
   -6.7474    4.2318  -20.9186 H   0  0  0  0  0  0  0  0  0  0  0  0
   -6.3827    2.5856  -21.4610 H   0  0  0  0  0  0  0  0  0  0  0  0
   -8.5294    4.5083  -22.5684 H   0  0  0  0  0  0  0  0  0  0  0  0
   -8.7856    2.9808  -21.7516 H   0  0  0  0  0  0  0  0  0  0  0  0
   -7.8969    1.7947  -23.4190 H   0  0  0  0  0  0  0  0  0  0  0  0
  -10.2087    2.4961  -23.6863 H   0  0  0  0  0  0  0  0  0  0  0  0
   -9.6205    3.6353  -24.9013 H   0  0  0  0  0  0  0  0  0  0  0  0
  -10.1919    1.7037  -26.1826 H   0  0  0  0  0  0  0  0  0  0  0  0
   -8.4316    1.5063  -25.9892 H   0  0  0  0  0  0  0  0  0  0  0  0
  -10.9702   -0.0799  -24.7180 C   0  0  0  0  0  0  0  0  0  0  0  0
  -11.8731    0.5654  -25.2389 O   0  0  0  0  0  0  0  0  0  0  0  0
  -11.2326   -1.2606  -23.8553 C   0  0  0  0  0  0  0  0  0  0  0  0
  -12.4988   -1.8279  -23.9421 C   0  0  0  0  0  0  0  0  0  0  0  0
  -12.8940   -2.7587  -23.0184 C   0  0  0  0  0  0  0  0  0  0  0  0
  -12.0374   -3.0601  -21.9642 C   0  0  0  0  0  0  0  0  0  0  0  0
  -12.7300   -3.9917  -20.6659 Cl  0  0  0  0  0  0  0  0  0  0  0  0
  -10.7137   -2.6336  -21.9626 C   0  0  0  0  0  0  0  0  0  0  0  0
  -10.2601   -1.7718  -22.9819 C   0  0  0  0  0  0  0  0  0  0  0  0
  -10.0477   -3.0166  -21.1940 H   0  0  0  0  0  0  0  0  0  0  0  0
  -13.8641   -3.2350  -23.0805 H   0  0  0  0  0  0  0  0  0  0  0  0
  -13.1669   -1.5260  -24.7433 H   0  0  0  0  0  0  0  0  0  0  0  0
   -8.6335   -1.4909  -25.3825 H   0  0  0  0  0  0  0  0  0  0  0  0
   -7.6556   -0.2258  -24.6219 H   0  0  0  0  0  0  0  0  0  0  0  0
   -6.1295   -2.8076  -21.6792 H   0  0  0  0  0  0  0  0  0  0  0  0
   -7.6053   -3.4260  -20.9362 H   0  0  0  0  0  0  0  0  0  0  0  0
   -8.5131   -3.6400  -23.1089 H   0  0  0  0  0  0  0  0  0  0  0  0
   -7.2174   -3.0175  -25.1199 H   0  0  0  0  0  0  0  0  0  0  0  0
   -6.1760   -3.7923  -23.9368 H   0  0  0  0  0  0  0  0  0  0  0  0
   -6.1059   -2.0393  -24.1507 H   0  0  0  0  0  0  0  0  0  0  0  0
  1  2  1  0
  2  3  1  0
  3  4  1  0
  4  5  1  0
  5  6  2  0
  6  7  1  0
  7  8  2  0
  8  9  1  0
  9 10  2  0
 10 11  1  0
 11 12  2  0
 12 13  1  0
 13 14  2  0
 13 15  1  0
 12 16  1  0
 11 17  1  0
 10 18  1  0
  8 19  1  0
  6 20  1  0
  4 21  1  0
 21 22  2  0
 21 23  1  0
 23 24  1  6
 24 25  1  0
 25 26  1  0
 26 27  1  0
 27 28  1  0
 28 29  1  0
 29 30  1  0
 30 31  1  0
 31 32  1  0
 32 33  2  0
 32 34  2  0
 32 35  1  0
 35 36  1  0
 35 37  1  0
 35 38  1  0
 31 39  1  0
 39 40  1  0
 40 41  1  0
 40 42  1  0
 39 43  1  0
 39 44  1  0
 30 45  1  0
 30 46  1  0
 29 47  1  0
 29 48  1  0
 28 49  1  0
 27 50  1  0
 27 51  1  0
 26 52  1  0
 26 53  1  0
 25 54  1  0
 54 55  2  0
 54 56  1  0
 56 57  2  0
 57 58  1  0
 58 59  2  0
 59 60  1  0
 59 61  1  0
 61 62  2  0
 61 63  1  0
 58 64  1  0
 57 65  1  0
 24 66  1  0
 24 67  1  0
  3 68  1  0
  3 69  1  0
  2 70  1  1
  1 71  1  0
  1 72  1  0
  1 73  1  0
 23  2  1  0
 40 28  1  0
 62 56  1  0
 14  5  1  0
 62 23  1  0
 14  9  1  0
M  CHG  1  28   1
M  END
>  <cnnaffinities>  (15) 
[6.22676]

>  <score>  (15) 
6.22676

>  <index>  (15) 
14

>  <Smiles>  (15) 
C([C@]1(C(N(c2c(nc(c3c(c(c(c(c23)[H])[H])[H])[H])[H])[H])C(=O)[C@]21C(N(C(C([N+]1(C(C(N(S(=O)(=O)C([H])([H])[H])C(C1([H])[H])([H])[H])([H])[H])([H])[H])[H])([H])[H])([H])[H])C(=O)c1c(c(c(Cl)c(c21)[H])[H])[H])([H])[H])([H])[H])[H])([H])([H])[H]

>  <h>  (15) 
<NA>

>  <Training>  (15) 
True

>  <Success>  (15) 
True

>  <enamine_searched>  (15) 
False

>  <enamine_id>  (15) 
nan

$$$$

     RDKit          3D

 63 68  0  0  0  0  0  0  0  0999 V2000
   -7.4975    3.3603  -21.7773 C   0  0  0  0  0  0  0  0  0  0  0  0
   -8.4240    2.9016  -22.7811 N   0  0  0  0  0  0  0  0  0  0  0  0
   -7.8931    2.1999  -23.8089 C   0  0  0  0  0  0  0  0  0  0  0  0
   -6.6858    2.0819  -23.9469 O   0  0  0  0  0  0  0  0  0  0  0  0
   -8.8637    1.5828  -24.8028 C   0  0  0  0  0  0  0  0  0  0  0  0
   -9.5228    0.4016  -24.2947 N   0  0  0  0  0  0  0  0  0  0  0  0
   -8.7473   -0.8201  -24.1758 C   0  0  0  0  0  0  0  0  0  0  0  0
   -9.0641   -1.5687  -22.8650 C   0  0  2  0  0  0  0  0  0  0  0  0
   -8.5352   -0.7824  -21.6414 C   0  0  0  0  0  0  0  0  0  0  0  0
   -9.0298    0.1997  -21.1219 O   0  0  0  0  0  0  0  0  0  0  0  0
   -7.3826   -1.3895  -21.2046 N   0  0  0  0  0  0  0  0  0  0  0  0
   -6.5979   -0.8157  -20.1743 C   0  0  0  0  0  0  0  0  0  0  0  0
   -6.9144   -1.0446  -18.8583 C   0  0  0  0  0  0  0  0  0  0  0  0
   -6.2176   -0.5466  -17.8077 N   0  0  0  0  0  0  0  0  0  0  0  0
   -5.1775    0.2078  -18.0771 C   0  0  0  0  0  0  0  0  0  0  0  0
   -4.7359    0.5248  -19.3947 C   0  0  0  0  0  0  0  0  0  0  0  0
   -3.6124    1.3621  -19.6390 C   0  0  0  0  0  0  0  0  0  0  0  0
   -3.2304    1.6611  -20.9189 C   0  0  0  0  0  0  0  0  0  0  0  0
   -3.9556    1.1416  -22.0159 C   0  0  0  0  0  0  0  0  0  0  0  0
   -5.0463    0.3309  -21.8057 C   0  0  0  0  0  0  0  0  0  0  0  0
   -5.4656    0.0011  -20.4869 C   0  0  0  0  0  0  0  0  0  0  0  0
   -5.6116   -0.0402  -22.6554 H   0  0  0  0  0  0  0  0  0  0  0  0
   -3.6650    1.3962  -23.0299 H   0  0  0  0  0  0  0  0  0  0  0  0
   -2.3794    2.3144  -21.0958 H   0  0  0  0  0  0  0  0  0  0  0  0
   -3.0836    1.7722  -18.7827 H   0  0  0  0  0  0  0  0  0  0  0  0
   -4.6225    0.6098  -17.2292 H   0  0  0  0  0  0  0  0  0  0  0  0
   -7.7697   -1.6690  -18.6074 H   0  0  0  0  0  0  0  0  0  0  0  0
   -7.0187   -2.5853  -21.9344 C   0  0  0  0  0  0  0  0  0  0  0  0
   -8.2834   -2.9141  -22.7405 C   0  0  2  0  0  0  0  0  0  0  0  0
   -7.9742   -3.6712  -24.0451 C   0  0  0  0  0  0  0  0  0  0  0  0
   -7.4015   -4.9832  -23.8068 N   0  0  0  0  0  0  0  0  0  0  0  0
   -8.0758   -6.1171  -23.5079 C   0  0  0  0  0  0  0  0  0  0  0  0
   -7.1326   -7.0977  -23.2851 C   0  0  0  0  0  0  0  0  0  0  0  0
   -5.8988   -6.4321  -23.4781 C   0  0  0  0  0  0  0  0  0  0  0  0
   -6.0725   -5.1510  -23.7855 N   0  0  0  0  0  0  0  0  0  0  0  0
   -4.8865   -6.8135  -23.4057 H   0  0  0  0  0  0  0  0  0  0  0  0
   -7.3136   -8.1355  -23.0195 H   0  0  0  0  0  0  0  0  0  0  0  0
   -9.1630   -6.1203  -23.4894 H   0  0  0  0  0  0  0  0  0  0  0  0
   -7.2340   -3.1295  -24.6390 H   0  0  0  0  0  0  0  0  0  0  0  0
   -8.8865   -3.8120  -24.6372 H   0  0  0  0  0  0  0  0  0  0  0  0
   -8.9095   -3.5750  -22.1402 H   0  0  0  0  0  0  0  0  0  0  0  0
   -6.1654   -2.4036  -22.6038 H   0  0  0  0  0  0  0  0  0  0  0  0
   -6.7312   -3.3852  -21.2444 H   0  0  0  0  0  0  0  0  0  0  0  0
  -10.5698   -1.6785  -22.7662 C   0  0  0  0  0  0  0  0  0  0  0  0
  -11.1263   -2.6048  -21.8862 C   0  0  0  0  0  0  0  0  0  0  0  0
  -12.4918   -2.6698  -21.7065 C   0  0  0  0  0  0  0  0  0  0  0  0
  -13.0713   -3.8010  -20.5143 Cl  0  0  0  0  0  0  0  0  0  0  0  0
  -13.3557   -1.8324  -22.4168 C   0  0  0  0  0  0  0  0  0  0  0  0
  -12.8113   -0.8776  -23.2550 C   0  0  0  0  0  0  0  0  0  0  0  0
  -11.4289   -0.7707  -23.4002 C   0  0  0  0  0  0  0  0  0  0  0  0
  -10.8859    0.3972  -24.1632 C   0  0  0  0  0  0  0  0  0  0  0  0
  -11.6064    1.2882  -24.5991 O   0  0  0  0  0  0  0  0  0  0  0  0
  -13.4396   -0.1721  -23.7885 H   0  0  0  0  0  0  0  0  0  0  0  0
  -14.4291   -1.9141  -22.2992 H   0  0  0  0  0  0  0  0  0  0  0  0
  -10.4953   -3.2690  -21.3094 H   0  0  0  0  0  0  0  0  0  0  0  0
   -8.9681   -1.4892  -25.0211 H   0  0  0  0  0  0  0  0  0  0  0  0
   -7.6909   -0.5388  -24.1997 H   0  0  0  0  0  0  0  0  0  0  0  0
   -9.6676    2.2729  -25.0590 H   0  0  0  0  0  0  0  0  0  0  0  0
   -8.2597    1.3414  -25.6830 H   0  0  0  0  0  0  0  0  0  0  0  0
   -9.3836    2.7465  -22.5256 H   0  0  0  0  0  0  0  0  0  0  0  0
   -6.8981    2.5225  -21.4078 H   0  0  0  0  0  0  0  0  0  0  0  0
   -8.0427    3.8288  -20.9665 H   0  0  0  0  0  0  0  0  0  0  0  0
   -6.8050    4.0815  -22.2037 H   0  0  0  0  0  0  0  0  0  0  0  0
  1  2  1  0
  2  3  1  0
  3  4  2  0
  3  5  1  0
  5  6  1  0
  6  7  1  0
  8  7  1  6
  8  9  1  0
  9 10  2  0
  9 11  1  0
 11 12  1  0
 12 13  2  0
 13 14  1  0
 14 15  2  0
 15 16  1  0
 16 17  2  0
 17 18  1  0
 18 19  2  0
 19 20  1  0
 20 21  2  0
 20 22  1  0
 19 23  1  0
 18 24  1  0
 17 25  1  0
 15 26  1  0
 13 27  1  0
 11 28  1  0
 28 29  1  0
 29 30  1  0
 30 31  1  0
 31 32  1  0
 32 33  2  0
 33 34  1  0
 34 35  2  0
 34 36  1  0
 33 37  1  0
 32 38  1  0
 30 39  1  0
 30 40  1  0
 29 41  1  1
 28 42  1  0
 28 43  1  0
  8 44  1  0
 44 45  2  0
 45 46  1  0
 46 47  1  0
 46 48  2  0
 48 49  1  0
 49 50  2  0
 50 51  1  0
 51 52  2  0
 49 53  1  0
 48 54  1  0
 45 55  1  0
  7 56  1  0
  7 57  1  0
  5 58  1  0
  5 59  1  0
  2 60  1  0
  1 61  1  0
  1 62  1  0
  1 63  1  0
 51  6  1  0
 29  8  1  0
 35 31  1  0
 50 44  1  0
 21 12  1  0
 21 16  1  0
M  END
>  <cnnaffinities>  (16) 
[6.55359, 6.66408]

>  <score>  (16) 
6.55359

>  <index>  (16) 
15

>  <Smiles>  (16) 
C(N(C(=O)C(N1C([C@@]2(C(=O)N(c3c(nc(c4c(c(c(c(c34)[H])[H])[H])[H])[H])[H])C([C@@]2(C(n2c(c(c(n2)[H])[H])[H])([H])[H])[H])([H])[H])c2c(c(Cl)c(c(c2C1=O)[H])[H])[H])([H])[H])([H])[H])[H])([H])([H])[H]

>  <h>  (16) 
<NA>

>  <Training>  (16) 
True

>  <Success>  (16) 
True

>  <enamine_searched>  (16) 
False

>  <enamine_id>  (16) 
nan

$$$$

     RDKit          3D

 61 66  0  0  0  0  0  0  0  0999 V2000
   -7.3812    3.4055  -21.8154 C   0  0  0  0  0  0  0  0  0  0  0  0
   -8.2288    2.9306  -22.8935 N   0  0  0  0  0  0  0  0  0  0  0  0
   -7.6545    2.2422  -23.9067 C   0  0  0  0  0  0  0  0  0  0  0  0
   -6.4395    2.1325  -24.0154 O   0  0  0  0  0  0  0  0  0  0  0  0
   -8.6089    1.6252  -24.9373 C   0  0  0  0  0  0  0  0  0  0  0  0
   -9.3425    0.4735  -24.4401 N   0  0  0  0  0  0  0  0  0  0  0  0
   -8.6211   -0.7799  -24.2719 C   0  0  0  0  0  0  0  0  0  0  0  0
   -9.0150   -1.4881  -22.9551 C   0  0  2  0  0  0  0  0  0  0  0  0
   -8.4763   -0.7018  -21.7308 C   0  0  0  0  0  0  0  0  0  0  0  0
   -8.9065    0.3378  -21.2762 O   0  0  0  0  0  0  0  0  0  0  0  0
   -7.4001   -1.3829  -21.2059 N   0  0  0  0  0  0  0  0  0  0  0  0
   -6.6021   -0.8100  -20.1767 C   0  0  0  0  0  0  0  0  0  0  0  0
   -6.9079   -1.0408  -18.8593 C   0  0  0  0  0  0  0  0  0  0  0  0
   -6.2079   -0.5453  -17.8092 N   0  0  0  0  0  0  0  0  0  0  0  0
   -5.1686    0.2109  -18.0756 C   0  0  0  0  0  0  0  0  0  0  0  0
   -4.7292    0.5288  -19.3926 C   0  0  0  0  0  0  0  0  0  0  0  0
   -3.6019    1.3621  -19.6378 C   0  0  0  0  0  0  0  0  0  0  0  0
   -3.2157    1.6512  -20.9195 C   0  0  0  0  0  0  0  0  0  0  0  0
   -3.9365    1.1218  -22.0121 C   0  0  0  0  0  0  0  0  0  0  0  0
   -5.0303    0.3157  -21.7999 C   0  0  0  0  0  0  0  0  0  0  0  0
   -5.4624    0.0022  -20.4822 C   0  0  0  0  0  0  0  0  0  0  0  0
   -5.5890   -0.0722  -22.6458 H   0  0  0  0  0  0  0  0  0  0  0  0
   -3.6443    1.3672  -23.0278 H   0  0  0  0  0  0  0  0  0  0  0  0
   -2.3631    2.3016  -21.0993 H   0  0  0  0  0  0  0  0  0  0  0  0
   -3.0735    1.7776  -18.7844 H   0  0  0  0  0  0  0  0  0  0  0  0
   -4.6190    0.6153  -17.2255 H   0  0  0  0  0  0  0  0  0  0  0  0
   -7.7589   -1.6678  -18.6033 H   0  0  0  0  0  0  0  0  0  0  0  0
   -7.0683   -2.6063  -21.9082 C   0  0  0  0  0  0  0  0  0  0  0  0
   -8.3061   -2.8702  -22.7829 C   0  0  2  0  0  0  0  0  0  0  0  0
   -7.9502   -3.6364  -24.0724 C   0  0  0  0  0  0  0  0  0  0  0  0
   -7.4210   -4.9627  -23.7813 N   0  0  0  0  0  0  0  0  0  0  0  0
   -6.1315   -5.2347  -23.6762 N   0  0  0  0  0  0  0  0  0  0  0  0
   -6.1627   -6.5195  -23.3492 C   0  0  0  0  0  0  0  0  0  0  0  0
   -7.4208   -6.9974  -23.2632 N   0  0  0  0  0  0  0  0  0  0  0  0
   -8.2030   -5.9921  -23.5433 N   0  0  0  0  0  0  0  0  0  0  0  0
   -5.2798   -7.1162  -23.1681 H   0  0  0  0  0  0  0  0  0  0  0  0
   -7.1697   -3.1227  -24.6389 H   0  0  0  0  0  0  0  0  0  0  0  0
   -8.8306   -3.7855  -24.7048 H   0  0  0  0  0  0  0  0  0  0  0  0
   -8.9847   -3.5205  -22.2242 H   0  0  0  0  0  0  0  0  0  0  0  0
   -6.1641   -2.4846  -22.5248 H   0  0  0  0  0  0  0  0  0  0  0  0
   -6.8745   -3.4234  -21.2057 H   0  0  0  0  0  0  0  0  0  0  0  0
  -10.5275   -1.5185  -22.8916 C   0  0  0  0  0  0  0  0  0  0  0  0
  -11.1409   -2.3668  -21.9735 C   0  0  0  0  0  0  0  0  0  0  0  0
  -12.5098   -2.3784  -21.8188 C   0  0  0  0  0  0  0  0  0  0  0  0
  -13.1195   -3.3910  -20.5416 Cl  0  0  0  0  0  0  0  0  0  0  0  0
  -13.3335   -1.5681  -22.6021 C   0  0  0  0  0  0  0  0  0  0  0  0
  -12.7255   -0.6700  -23.4629 C   0  0  0  0  0  0  0  0  0  0  0  0
  -11.3359   -0.6050  -23.5793 C   0  0  0  0  0  0  0  0  0  0  0  0
  -10.7150    0.5177  -24.3654 C   0  0  0  0  0  0  0  0  0  0  0  0
  -11.3783    1.4163  -24.8639 O   0  0  0  0  0  0  0  0  0  0  0  0
  -13.3063    0.0396  -24.0386 H   0  0  0  0  0  0  0  0  0  0  0  0
  -14.4147   -1.6161  -22.5233 H   0  0  0  0  0  0  0  0  0  0  0  0
  -10.5638   -3.0077  -21.3218 H   0  0  0  0  0  0  0  0  0  0  0  0
   -8.8268   -1.4578  -25.1166 H   0  0  0  0  0  0  0  0  0  0  0  0
   -7.5526   -0.5453  -24.2525 H   0  0  0  0  0  0  0  0  0  0  0  0
   -7.9749    1.3482  -25.7859 H   0  0  0  0  0  0  0  0  0  0  0  0
   -9.3660    2.3395  -25.2739 H   0  0  0  0  0  0  0  0  0  0  0  0
   -9.2277    2.8784  -22.7540 H   0  0  0  0  0  0  0  0  0  0  0  0
   -6.6720    4.1590  -22.1737 H   0  0  0  0  0  0  0  0  0  0  0  0
   -6.8052    2.5687  -21.3867 H   0  0  0  0  0  0  0  0  0  0  0  0
   -8.0211    3.8736  -21.0683 H   0  0  0  0  0  0  0  0  0  0  0  0
  1  2  1  0
  2  3  1  0
  3  4  2  0
  3  5  1  0
  5  6  1  0
  6  7  1  0
  8  7  1  6
  8  9  1  0
  9 10  2  0
  9 11  1  0
 11 12  1  0
 12 13  2  0
 13 14  1  0
 14 15  2  0
 15 16  1  0
 16 17  2  0
 17 18  1  0
 18 19  2  0
 19 20  1  0
 20 21  2  0
 20 22  1  0
 19 23  1  0
 18 24  1  0
 17 25  1  0
 15 26  1  0
 13 27  1  0
 11 28  1  0
 28 29  1  0
 29 30  1  0
 30 31  1  0
 31 32  1  0
 32 33  2  0
 33 34  1  0
 34 35  2  0
 33 36  1  0
 30 37  1  0
 30 38  1  0
 29 39  1  1
 28 40  1  0
 28 41  1  0
  8 42  1  0
 42 43  2  0
 43 44  1  0
 44 45  1  0
 44 46  2  0
 46 47  1  0
 47 48  2  0
 48 49  1  0
 49 50  2  0
 47 51  1  0
 46 52  1  0
 43 53  1  0
  7 54  1  0
  7 55  1  0
  5 56  1  0
  5 57  1  0
  2 58  1  0
  1 59  1  0
  1 60  1  0
  1 61  1  0
 49  6  1  0
 29  8  1  0
 35 31  1  0
 48 42  1  0
 21 12  1  0
 21 16  1  0
M  END
>  <cnnaffinities>  (17) 
[6.33242, 6.36005]

>  <score>  (17) 
6.33242

>  <index>  (17) 
16

>  <Smiles>  (17) 
C(N(C(=O)C(N1C([C@@]2(C(=O)N(c3c(nc(c4c(c(c(c(c34)[H])[H])[H])[H])[H])[H])C([C@@]2(C(n2nc(nn2)[H])([H])[H])[H])([H])[H])c2c(c(Cl)c(c(c2C1=O)[H])[H])[H])([H])[H])([H])[H])[H])([H])([H])[H]

>  <h>  (17) 
<NA>

>  <Training>  (17) 
True

>  <Success>  (17) 
True

>  <enamine_searched>  (17) 
False

>  <enamine_id>  (17) 
nan

$$$$

     RDKit          3D

 38 41  0  0  0  0  0  0  0  0999 V2000
  -10.8099   -4.6504  -22.9172 C   0  0  0  0  0  0  0  0  0  0  0  0
  -10.5514   -3.3971  -23.7337 C   0  0  2  0  0  0  0  0  0  0  0  0
   -9.3896   -3.6215  -24.7153 C   0  0  0  0  0  0  0  0  0  0  0  0
   -8.0504   -3.7713  -23.9640 C   0  0  0  0  0  0  0  0  0  0  0  0
   -7.9388   -2.7917  -22.8784 C   0  0  0  0  0  0  0  0  0  0  0  0
   -6.7950   -2.4213  -22.0943 C   0  0  0  0  0  0  0  0  0  0  0  0
   -5.6424   -2.7859  -22.1681 O   0  0  0  0  0  1  0  0  0  0  0  0
   -7.3022   -1.4481  -21.1844 N   0  0  0  0  0  0  0  0  0  0  0  0
   -6.5600   -0.8297  -20.1566 C   0  0  0  0  0  0  0  0  0  0  0  0
   -6.8956   -1.0471  -18.8406 C   0  0  0  0  0  0  0  0  0  0  0  0
   -6.2044   -0.5376  -17.7916 N   0  0  0  0  0  0  0  0  0  0  0  0
   -5.1700    0.2127  -18.0761 C   0  0  0  0  0  0  0  0  0  0  0  0
   -4.7283    0.5305  -19.3924 C   0  0  0  0  0  0  0  0  0  0  0  0
   -3.6034    1.3616  -19.6303 C   0  0  0  0  0  0  0  0  0  0  0  0
   -3.2231    1.6659  -20.9036 C   0  0  0  0  0  0  0  0  0  0  0  0
   -3.9544    1.1643  -22.0055 C   0  0  0  0  0  0  0  0  0  0  0  0
   -5.0508    0.3639  -21.8053 C   0  0  0  0  0  0  0  0  0  0  0  0
   -5.4507    0.0096  -20.4839 C   0  0  0  0  0  0  0  0  0  0  0  0
   -5.6173   -0.0039  -22.6572 H   0  0  0  0  0  0  0  0  0  0  0  0
   -3.6481    1.4209  -23.0149 H   0  0  0  0  0  0  0  0  0  0  0  0
   -2.3649    2.3112  -21.0790 H   0  0  0  0  0  0  0  0  0  0  0  0
   -3.0766    1.7558  -18.7651 H   0  0  0  0  0  0  0  0  0  0  0  0
   -4.6165    0.6152  -17.2301 H   0  0  0  0  0  0  0  0  0  0  0  0
   -7.7524   -1.6742  -18.5998 H   0  0  0  0  0  0  0  0  0  0  0  0
   -8.6418   -1.1578  -21.4550 C   0  0  0  0  0  0  0  0  0  0  0  0
   -9.3264   -0.2775  -20.9782 O   0  0  0  0  0  0  0  0  0  0  0  0
   -8.9962   -2.0825  -22.4124 N   0  0  0  0  0  0  0  0  0  0  0  0
  -10.3456   -2.1357  -22.9217 C   0  0  0  0  0  0  0  0  0  0  0  0
  -10.5055   -1.2529  -23.5563 H   0  0  0  0  0  0  0  0  0  0  0  0
  -11.0338   -2.1044  -22.0684 H   0  0  0  0  0  0  0  0  0  0  0  0
   -7.2002   -3.6701  -24.6478 H   0  0  0  0  0  0  0  0  0  0  0  0
   -7.9404   -4.7800  -23.5401 H   0  0  0  0  0  0  0  0  0  0  0  0
   -9.5686   -4.5318  -25.2995 H   0  0  0  0  0  0  0  0  0  0  0  0
   -9.3334   -2.7842  -25.4203 H   0  0  0  0  0  0  0  0  0  0  0  0
  -11.4877   -3.1614  -24.2320 H   0  0  0  0  0  0  0  0  0  0  0  0
  -10.8678   -5.4755  -23.6292 H   0  0  0  0  0  0  0  0  0  0  0  0
  -10.0229   -4.8760  -22.1923 H   0  0  0  0  0  0  0  0  0  0  0  0
  -11.7556   -4.5725  -22.3770 H   0  0  0  0  0  0  0  0  0  0  0  0
  1  2  1  0
  2  3  1  0
  3  4  1  0
  4  5  1  0
  5  6  2  0
  6  7  1  0
  6  8  1  0
  8  9  1  0
  9 10  2  0
 10 11  1  0
 11 12  2  0
 12 13  1  0
 13 14  2  0
 14 15  1  0
 15 16  2  0
 16 17  1  0
 17 18  2  0
 17 19  1  0
 16 20  1  0
 15 21  1  0
 14 22  1  0
 12 23  1  0
 10 24  1  0
  8 25  1  0
 25 26  2  0
 25 27  1  0
 27 28  1  0
 28 29  1  0
 28 30  1  0
  4 31  1  0
  4 32  1  0
  3 33  1  0
  3 34  1  0
  2 35  1  6
  1 36  1  0
  1 37  1  0
  1 38  1  0
 28  2  1  0
 27  5  1  0
 18  9  1  0
 18 13  1  0
M  CHG  1   7  -1
M  END
>  <cnnaffinities>  (18) 
[4.63997, 5.15448, 5.23715]

>  <score>  (18) 
4.63997

>  <index>  (18) 
17

>  <Smiles>  (18) 
C([C@@]1(C(C(c2c([O-])n(c3c(nc(c4c(c(c(c(c34)[H])[H])[H])[H])[H])[H])c(=O)n2C1([H])[H])([H])[H])([H])[H])[H])([H])([H])[H]

>  <h>  (18) 
<NA>

>  <Training>  (18) 
True

>  <Success>  (18) 
True

>  <enamine_searched>  (18) 
False

>  <enamine_id>  (18) 
nan

$$$$

     RDKit          3D

 56 61  0  0  0  0  0  0  0  0999 V2000
  -10.1635   -2.8815  -21.9834 C   0  0  0  0  0  0  0  0  0  0  0  0
   -9.1788   -1.9381  -22.6898 C   0  0  1  0  0  0  0  0  0  0  0  0
   -8.7140   -0.8339  -21.7197 C   0  0  0  0  0  0  0  0  0  0  0  0
   -7.5091   -1.4057  -21.1390 N   0  0  0  0  0  0  0  0  0  0  0  0
   -6.7331   -0.7786  -20.1282 C   0  0  0  0  0  0  0  0  0  0  0  0
   -7.0693   -0.9600  -18.8115 C   0  0  0  0  0  0  0  0  0  0  0  0
   -6.3726   -0.4557  -17.7628 N   0  0  0  0  0  0  0  0  0  0  0  0
   -5.3084    0.2591  -18.0407 C   0  0  0  0  0  0  0  0  0  0  0  0
   -4.8535    0.5350  -19.3610 C   0  0  0  0  0  0  0  0  0  0  0  0
   -3.7037    1.3338  -19.5946 C   0  0  0  0  0  0  0  0  0  0  0  0
   -3.2900    1.5990  -20.8696 C   0  0  0  0  0  0  0  0  0  0  0  0
   -3.9983    1.0627  -21.9691 C   0  0  0  0  0  0  0  0  0  0  0  0
   -5.1098    0.2822  -21.7724 C   0  0  0  0  0  0  0  0  0  0  0  0
   -5.5746    0.0017  -20.4513 C   0  0  0  0  0  0  0  0  0  0  0  0
   -5.6319   -0.1371  -22.6326 H   0  0  0  0  0  0  0  0  0  0  0  0
   -3.6593    1.2788  -22.9779 H   0  0  0  0  0  0  0  0  0  0  0  0
   -2.4255    2.2329  -21.0455 H   0  0  0  0  0  0  0  0  0  0  0  0
   -3.1781    1.7421  -18.7350 H   0  0  0  0  0  0  0  0  0  0  0  0
   -4.7412    0.6585  -17.1988 H   0  0  0  0  0  0  0  0  0  0  0  0
   -7.9338   -1.5715  -18.5594 H   0  0  0  0  0  0  0  0  0  0  0  0
   -6.9370   -2.3841  -21.9294 C   0  0  0  0  0  0  0  0  0  0  0  0
   -5.8666   -2.8963  -21.6923 O   0  0  0  0  0  0  0  0  0  0  0  0
   -7.8534   -2.6227  -23.1501 C   0  0  1  0  0  0  0  0  0  0  0  0
   -8.0471   -4.1308  -23.4817 C   0  0  0  0  0  0  0  0  0  0  0  0
   -6.8070   -4.7675  -23.9003 N   0  0  0  0  0  0  0  0  0  0  0  0
   -6.5018   -6.1701  -23.6995 C   0  0  0  0  0  0  0  0  0  0  0  0
   -5.2059   -6.2484  -22.9769 C   0  0  0  0  0  0  0  0  0  0  0  0
   -4.0254   -6.7214  -23.5136 C   0  0  0  0  0  0  0  0  0  0  0  0
   -3.6388   -6.5435  -23.3331 C   0  0  0  0  0  0  0  0  0  0  0  0
   -4.5748   -5.9806  -20.8464 N   0  0  0  0  0  0  0  0  0  0  0  0
   -5.5018   -5.8732  -21.6980 N   0  0  0  0  0  0  0  0  0  0  0  0
   -4.9509   -5.6152  -19.9634 H   0  0  0  0  0  0  0  0  0  0  0  0
   -2.8352   -6.1549  -22.6277 H   0  0  0  0  0  0  0  0  0  0  0  0
   -3.4683   -6.3192  -24.4816 H   0  0  0  0  0  0  0  0  0  0  0  0
   -7.2555   -6.5883  -23.0339 H   0  0  0  0  0  0  0  0  0  0  0  0
   -6.5222   -6.7086  -24.6621 H   0  0  0  0  0  0  0  0  0  0  0  0
   -5.9150   -4.1359  -24.7090 C   0  0  0  0  0  0  0  0  0  0  0  0
   -4.8910   -4.7272  -25.0554 O   0  0  0  0  0  0  0  0  0  0  0  0
   -6.3029   -2.7567  -25.1456 C   0  0  0  0  0  0  0  0  0  0  0  0
   -5.7751   -2.2909  -26.3478 C   0  0  0  0  0  0  0  0  0  0  0  0
   -6.1618   -1.0674  -26.8573 C   0  0  0  0  0  0  0  0  0  0  0  0
   -7.0356   -0.3019  -26.0937 C   0  0  0  0  0  0  0  0  0  0  0  0
   -7.4000    0.9058  -26.5645 F   0  0  0  0  0  0  0  0  0  0  0  0
   -7.5541   -0.7253  -24.8808 C   0  0  0  0  0  0  0  0  0  0  0  0
   -7.2318   -2.0028  -24.4073 C   0  0  0  0  0  0  0  0  0  0  0  0
   -8.2242   -0.0530  -24.3540 H   0  0  0  0  0  0  0  0  0  0  0  0
   -5.8129   -0.7004  -27.8159 H   0  0  0  0  0  0  0  0  0  0  0  0
   -5.0771   -2.9384  -26.8661 H   0  0  0  0  0  0  0  0  0  0  0  0
   -8.7828   -4.1766  -24.2995 H   0  0  0  0  0  0  0  0  0  0  0  0
   -8.4438   -4.6734  -22.6208 H   0  0  0  0  0  0  0  0  0  0  0  0
   -9.4567   -0.6134  -20.9469 H   0  0  0  0  0  0  0  0  0  0  0  0
   -8.5002    0.1077  -22.2478 H   0  0  0  0  0  0  0  0  0  0  0  0
   -9.6959   -1.5232  -23.5605 H   0  0  0  0  0  0  0  0  0  0  0  0
  -11.0393   -2.3276  -21.6284 H   0  0  0  0  0  0  0  0  0  0  0  0
   -9.7048   -3.3675  -21.1142 H   0  0  0  0  0  0  0  0  0  0  0  0
  -10.5264   -3.6617  -22.6599 H   0  0  0  0  0  0  0  0  0  0  0  0
  1  2  1  0
  2  3  1  0
  3  4  1  0
  4  5  1  0
  5  6  2  0
  6  7  1  0
  7  8  2  0
  8  9  1  0
  9 10  2  0
 10 11  1  0
 11 12  2  0
 12 13  1  0
 13 14  2  0
 13 15  1  0
 12 16  1  0
 11 17  1  0
 10 18  1  0
  8 19  1  0
  6 20  1  0
  4 21  1  0
 21 22  2  0
 21 23  1  0
 23 24  1  6
 24 25  1  0
 25 26  1  0
 26 27  1  0
 27 28  1  0
 28 29  2  0
 29 30  1  0
 30 31  1  0
 30 32  1  0
 29 33  1  0
 28 34  1  0
 26 35  1  0
 26 36  1  0
 25 37  1  0
 37 38  2  0
 37 39  1  0
 39 40  2  0
 40 41  1  0
 41 42  2  0
 42 43  1  0
 42 44  1  0
 44 45  2  0
 44 46  1  0
 41 47  1  0
 40 48  1  0
 24 49  1  0
 24 50  1  0
  3 51  1  0
  3 52  1  0
  2 53  1  6
  1 54  1  0
  1 55  1  0
  1 56  1  0
 23  2  1  0
 31 27  2  0
 45 39  1  0
 14  5  1  0
 45 23  1  0
 14  9  1  0
M  END
>  <cnnaffinities>  (19) 
[5.91575]

>  <score>  (19) 
5.91575

>  <index>  (19) 
18

>  <Smiles>  (19) 
C([C@]1(C(N(c2c(nc(c3c(c(c(c(c23)[H])[H])[H])[H])[H])[H])C(=O)[C@]21C(N(C(c1c(c(n(n1)[H])[H])[H])([H])[H])C(=O)c1c(c(c(F)c(c21)[H])[H])[H])([H])[H])([H])[H])[H])([H])([H])[H]

>  <h>  (19) 
<NA>

>  <Training>  (19) 
True

>  <Success>  (19) 
True

>  <enamine_searched>  (19) 
False

>  <enamine_id>  (19) 
nan

$$$$

     RDKit          3D

 42 45  0  0  0  0  0  0  0  0999 V2000
   -9.1395   -0.0607  -20.7235 O   0  0  0  0  0  0  0  0  0  0  0  0
   -8.6540   -0.9071  -21.4486 C   0  0  0  0  0  0  0  0  0  0  0  0
   -9.3667   -1.5029  -22.6753 C   0  0  1  0  0  0  0  0  0  0  0  0
  -10.4375   -0.5591  -23.1879 C   0  0  0  0  0  0  0  0  0  0  0  0
  -10.1007    0.7529  -23.5137 C   0  0  0  0  0  0  0  0  0  0  0  0
  -11.0736    1.6251  -23.9689 C   0  0  0  0  0  0  0  0  0  0  0  0
  -12.4015    1.2336  -24.0761 C   0  0  0  0  0  0  0  0  0  0  0  0
  -13.5699    2.4841  -24.3379 Cl  0  0  0  0  0  0  0  0  0  0  0  0
  -12.7265   -0.1061  -23.8588 C   0  0  0  0  0  0  0  0  0  0  0  0
  -14.3302   -0.6952  -24.1097 Cl  0  0  0  0  0  0  0  0  0  0  0  0
  -11.7463   -0.9906  -23.4032 C   0  0  0  0  0  0  0  0  0  0  0  0
  -12.0465   -2.0162  -23.1827 H   0  0  0  0  0  0  0  0  0  0  0  0
  -10.8393    2.6522  -24.2065 H   0  0  0  0  0  0  0  0  0  0  0  0
   -9.0894    1.1203  -23.3393 H   0  0  0  0  0  0  0  0  0  0  0  0
   -8.3347   -1.7865  -23.7750 C   0  0  0  0  0  0  0  0  0  0  0  0
   -7.2422   -2.7562  -23.3379 C   0  0  2  0  0  0  0  0  0  0  0  0
   -7.5416   -4.1054  -23.6626 O   0  0  0  0  0  0  0  0  0  0  0  0
   -8.3932   -4.3247  -23.2607 H   0  0  0  0  0  0  0  0  0  0  0  0
   -6.9342   -2.6378  -21.8350 C   0  0  0  0  0  0  0  0  0  0  0  0
   -7.3734   -1.3771  -21.2540 N   0  0  0  0  0  0  0  0  0  0  0  0
   -6.6067   -0.8079  -20.1927 C   0  0  0  0  0  0  0  0  0  0  0  0
   -6.9103   -1.0503  -18.8774 C   0  0  0  0  0  0  0  0  0  0  0  0
   -6.2056   -0.5571  -17.8265 N   0  0  0  0  0  0  0  0  0  0  0  0
   -5.1694    0.2048  -18.0819 C   0  0  0  0  0  0  0  0  0  0  0  0
   -4.7268    0.5240  -19.3966 C   0  0  0  0  0  0  0  0  0  0  0  0
   -3.5986    1.3535  -19.6383 C   0  0  0  0  0  0  0  0  0  0  0  0
   -3.2123    1.6389  -20.9190 C   0  0  0  0  0  0  0  0  0  0  0  0
   -3.9325    1.1047  -22.0123 C   0  0  0  0  0  0  0  0  0  0  0  0
   -5.0237    0.3011  -21.8006 C   0  0  0  0  0  0  0  0  0  0  0  0
   -5.4548   -0.0046  -20.4849 C   0  0  0  0  0  0  0  0  0  0  0  0
   -5.5900   -0.0959  -22.6359 H   0  0  0  0  0  0  0  0  0  0  0  0
   -3.6290    1.3501  -23.0252 H   0  0  0  0  0  0  0  0  0  0  0  0
   -2.3608    2.2881  -21.1046 H   0  0  0  0  0  0  0  0  0  0  0  0
   -3.0695    1.7708  -18.7851 H   0  0  0  0  0  0  0  0  0  0  0  0
   -4.6237    0.6124  -17.2282 H   0  0  0  0  0  0  0  0  0  0  0  0
   -7.7581   -1.6713  -18.5975 H   0  0  0  0  0  0  0  0  0  0  0  0
   -7.3938   -3.5108  -21.3354 H   0  0  0  0  0  0  0  0  0  0  0  0
   -5.8590   -2.6979  -21.6665 H   0  0  0  0  0  0  0  0  0  0  0  0
   -6.3411   -2.5460  -23.9195 H   0  0  0  0  0  0  0  0  0  0  0  0
   -7.8971   -0.8290  -24.0861 H   0  0  0  0  0  0  0  0  0  0  0  0
   -8.8263   -2.2061  -24.6586 H   0  0  0  0  0  0  0  0  0  0  0  0
   -9.8482   -2.4454  -22.3760 H   0  0  0  0  0  0  0  0  0  0  0  0
  1  2  2  0
  2  3  1  0
  3  4  1  0
  4  5  2  0
  5  6  1  0
  6  7  2  0
  7  8  1  0
  7  9  1  0
  9 10  1  0
  9 11  2  0
 11 12  1  0
  6 13  1  0
  5 14  1  0
  3 15  1  0
 15 16  1  0
 16 17  1  0
 17 18  1  0
 16 19  1  0
 19 20  1  0
 20 21  1  0
 21 22  2  0
 22 23  1  0
 23 24  2  0
 24 25  1  0
 25 26  2  0
 26 27  1  0
 27 28  2  0
 28 29  1  0
 29 30  2  0
 29 31  1  0
 28 32  1  0
 27 33  1  0
 26 34  1  0
 24 35  1  0
 22 36  1  0
 19 37  1  0
 19 38  1  0
 16 39  1  6
 15 40  1  0
 15 41  1  0
  3 42  1  1
 20  2  1  0
 30 21  1  0
 11  4  1  0
 30 25  1  0
M  END
>  <cnnaffinities>  (20) 
[5.70404, 5.72692, 5.44337, 5.71547]

>  <score>  (20) 
5.70404

>  <index>  (20) 
19

>  <Smiles>  (20) 
O=C1[C@@](c2c(c(c(Cl)c(Cl)c2[H])[H])[H])(C([C@](O[H])(C(N1c1c(nc(c2c(c(c(c(c12)[H])[H])[H])[H])[H])[H])([H])[H])[H])([H])[H])[H]

>  <h>  (20) 
<NA>

>  <Training>  (20) 
True

>  <Success>  (20) 
True

>  <enamine_searched>  (20) 
False

>  <enamine_id>  (20) 
nan

$$$$

     RDKit          3D

 66 71  0  0  0  0  0  0  0  0999 V2000
   -7.4441    3.3660  -21.7828 C   0  0  0  0  0  0  0  0  0  0  0  0
   -8.3193    2.9014  -22.8385 N   0  0  0  0  0  0  0  0  0  0  0  0
   -7.7577    2.2146  -23.8548 C   0  0  0  0  0  0  0  0  0  0  0  0
   -6.5410    2.1079  -23.9716 O   0  0  0  0  0  0  0  0  0  0  0  0
   -8.7062    1.5944  -24.8766 C   0  0  0  0  0  0  0  0  0  0  0  0
   -9.4201    0.4389  -24.3710 N   0  0  0  0  0  0  0  0  0  0  0  0
   -8.6800   -0.8008  -24.2158 C   0  0  0  0  0  0  0  0  0  0  0  0
   -9.0500   -1.5206  -22.9023 C   0  0  2  0  0  0  0  0  0  0  0  0
   -8.5148   -0.7382  -21.6765 C   0  0  0  0  0  0  0  0  0  0  0  0
   -8.9799    0.2699  -21.1848 O   0  0  0  0  0  0  0  0  0  0  0  0
   -7.3961   -1.3844  -21.2018 N   0  0  0  0  0  0  0  0  0  0  0  0
   -6.6001   -0.8123  -20.1739 C   0  0  0  0  0  0  0  0  0  0  0  0
   -6.9112   -1.0412  -18.8564 C   0  0  0  0  0  0  0  0  0  0  0  0
   -6.2125   -0.5444  -17.8070 N   0  0  0  0  0  0  0  0  0  0  0  0
   -5.1722    0.2097  -18.0756 C   0  0  0  0  0  0  0  0  0  0  0  0
   -4.7315    0.5264  -19.3932 C   0  0  0  0  0  0  0  0  0  0  0  0
   -3.6058    1.3609  -19.6382 C   0  0  0  0  0  0  0  0  0  0  0  0
   -3.2204    1.6531  -20.9193 C   0  0  0  0  0  0  0  0  0  0  0  0
   -3.9434    1.1276  -22.0138 C   0  0  0  0  0  0  0  0  0  0  0  0
   -5.0367    0.3203  -21.8017 C   0  0  0  0  0  0  0  0  0  0  0  0
   -5.4631    0.0004  -20.4837 C   0  0  0  0  0  0  0  0  0  0  0  0
   -5.5982   -0.0600  -22.6495 H   0  0  0  0  0  0  0  0  0  0  0  0
   -3.6517    1.3772  -23.0284 H   0  0  0  0  0  0  0  0  0  0  0  0
   -2.3684    2.3045  -21.0975 H   0  0  0  0  0  0  0  0  0  0  0  0
   -3.0774    1.7746  -18.7836 H   0  0  0  0  0  0  0  0  0  0  0  0
   -4.6196    0.6131  -17.2266 H   0  0  0  0  0  0  0  0  0  0  0  0
   -7.7647   -1.6665  -18.6041 H   0  0  0  0  0  0  0  0  0  0  0  0
   -7.0503   -2.5890  -21.9311 C   0  0  0  0  0  0  0  0  0  0  0  0
   -8.3122   -2.8897  -22.7577 C   0  0  2  0  0  0  0  0  0  0  0  0
   -8.0140   -3.6751  -24.0512 C   0  0  0  0  0  0  0  0  0  0  0  0
   -7.4736   -5.0630  -23.7801 C   0  0  0  0  0  0  0  0  0  0  0  0
   -8.3493   -6.1148  -23.5012 C   0  0  0  0  0  0  0  0  0  0  0  0
   -7.8726   -7.3900  -23.2104 C   0  0  0  0  0  0  0  0  0  0  0  0
   -6.5017   -7.6344  -23.1920 C   0  0  0  0  0  0  0  0  0  0  0  0
   -5.6162   -6.5958  -23.4691 C   0  0  0  0  0  0  0  0  0  0  0  0
   -6.1003   -5.3213  -23.7573 C   0  0  0  0  0  0  0  0  0  0  0  0
   -5.3989   -4.5135  -23.9654 H   0  0  0  0  0  0  0  0  0  0  0  0
   -4.5432   -6.7802  -23.4587 H   0  0  0  0  0  0  0  0  0  0  0  0
   -6.1236   -8.6298  -22.9632 H   0  0  0  0  0  0  0  0  0  0  0  0
   -8.5768   -8.1912  -22.9936 H   0  0  0  0  0  0  0  0  0  0  0  0
   -9.4226   -5.9259  -23.5077 H   0  0  0  0  0  0  0  0  0  0  0  0
   -8.9356   -3.7531  -24.6460 H   0  0  0  0  0  0  0  0  0  0  0  0
   -7.2895   -3.1134  -24.6549 H   0  0  0  0  0  0  0  0  0  0  0  0
   -8.9619   -3.5260  -22.1523 H   0  0  0  0  0  0  0  0  0  0  0  0
   -6.7962   -3.4051  -21.2450 H   0  0  0  0  0  0  0  0  0  0  0  0
   -6.1780   -2.4261  -22.5827 H   0  0  0  0  0  0  0  0  0  0  0  0
  -10.5596   -1.5874  -22.8301 C   0  0  0  0  0  0  0  0  0  0  0  0
  -11.1503   -2.4763  -21.9346 C   0  0  0  0  0  0  0  0  0  0  0  0
  -12.5185   -2.5115  -21.7755 C   0  0  0  0  0  0  0  0  0  0  0  0
  -13.1208   -3.5757  -20.5352 Cl  0  0  0  0  0  0  0  0  0  0  0  0
  -13.3549   -1.6867  -22.5311 C   0  0  0  0  0  0  0  0  0  0  0  0
  -12.7719   -0.7601  -23.3793 C   0  0  0  0  0  0  0  0  0  0  0  0
  -11.3845   -0.6759  -23.5010 C   0  0  0  0  0  0  0  0  0  0  0  0
  -10.7887    0.4670  -24.2740 C   0  0  0  0  0  0  0  0  0  0  0  0
  -11.4738    1.3692  -24.7451 O   0  0  0  0  0  0  0  0  0  0  0  0
  -13.3758   -0.0547  -23.9382 H   0  0  0  0  0  0  0  0  0  0  0  0
  -14.4326   -1.7623  -22.4386 H   0  0  0  0  0  0  0  0  0  0  0  0
  -10.5438   -3.1336  -21.3259 H   0  0  0  0  0  0  0  0  0  0  0  0
   -8.8950   -1.4767  -25.0590 H   0  0  0  0  0  0  0  0  0  0  0  0
   -7.6140   -0.5518  -24.2162 H   0  0  0  0  0  0  0  0  0  0  0  0
   -9.4783    2.3004  -25.1879 H   0  0  0  0  0  0  0  0  0  0  0  0
   -8.0767    1.3204  -25.7297 H   0  0  0  0  0  0  0  0  0  0  0  0
   -9.3055    2.8002  -22.6565 H   0  0  0  0  0  0  0  0  0  0  0  0
   -6.7431    4.1124  -22.1600 H   0  0  0  0  0  0  0  0  0  0  0  0
   -8.0476    3.8287  -21.0076 H   0  0  0  0  0  0  0  0  0  0  0  0
   -6.8588    2.5244  -21.3883 H   0  0  0  0  0  0  0  0  0  0  0  0
  1  2  1  0
  2  3  1  0
  3  4  2  0
  3  5  1  0
  5  6  1  0
  6  7  1  0
  8  7  1  6
  8  9  1  0
  9 10  2  0
  9 11  1  0
 11 12  1  0
 12 13  2  0
 13 14  1  0
 14 15  2  0
 15 16  1  0
 16 17  2  0
 17 18  1  0
 18 19  2  0
 19 20  1  0
 20 21  2  0
 20 22  1  0
 19 23  1  0
 18 24  1  0
 17 25  1  0
 15 26  1  0
 13 27  1  0
 11 28  1  0
 28 29  1  0
 29 30  1  0
 30 31  1  0
 31 32  2  0
 32 33  1  0
 33 34  2  0
 34 35  1  0
 35 36  2  0
 36 37  1  0
 35 38  1  0
 34 39  1  0
 33 40  1  0
 32 41  1  0
 30 42  1  0
 30 43  1  0
 29 44  1  1
 28 45  1  0
 28 46  1  0
  8 47  1  0
 47 48  2  0
 48 49  1  0
 49 50  1  0
 49 51  2  0
 51 52  1  0
 52 53  2  0
 53 54  1  0
 54 55  2  0
 52 56  1  0
 51 57  1  0
 48 58  1  0
  7 59  1  0
  7 60  1  0
  5 61  1  0
  5 62  1  0
  2 63  1  0
  1 64  1  0
  1 65  1  0
  1 66  1  0
 54  6  1  0
 29  8  1  0
 36 31  1  0
 53 47  1  0
 21 12  1  0
 21 16  1  0
M  END
>  <cnnaffinities>  (21) 
[6.49259, 6.52042, 6.60358]

>  <score>  (21) 
6.49259

>  <index>  (21) 
20

>  <Smiles>  (21) 
C(N(C(=O)C(N1C([C@@]2(C(=O)N(c3c(nc(c4c(c(c(c(c34)[H])[H])[H])[H])[H])[H])C([C@@]2(C(c2c(c(c(c(c2[H])[H])[H])[H])[H])([H])[H])[H])([H])[H])c2c(c(Cl)c(c(c2C1=O)[H])[H])[H])([H])[H])([H])[H])[H])([H])([H])[H]

>  <h>  (21) 
<NA>

>  <Training>  (21) 
True

>  <Success>  (21) 
True

>  <enamine_searched>  (21) 
False

>  <enamine_id>  (21) 
nan

$$$$

     RDKit          3D

 63 68  0  0  0  0  0  0  0  0999 V2000
   -8.3271   -4.1418  -23.4780 C   0  0  0  0  0  0  0  0  0  0  0  0
   -8.5484   -2.9847  -22.5183 C   0  0  1  0  0  0  0  0  0  0  0  0
   -7.4122   -2.8084  -21.4990 C   0  0  0  0  0  0  0  0  0  0  0  0
   -7.4316   -1.3899  -21.2117 N   0  0  0  0  0  0  0  0  0  0  0  0
   -6.6216   -0.8118  -20.2043 C   0  0  0  0  0  0  0  0  0  0  0  0
   -6.9158   -1.0655  -18.8863 C   0  0  0  0  0  0  0  0  0  0  0  0
   -6.2369   -0.5581  -17.8291 N   0  0  0  0  0  0  0  0  0  0  0  0
   -5.2053    0.2067  -18.0959 C   0  0  0  0  0  0  0  0  0  0  0  0
   -4.7633    0.5145  -19.4138 C   0  0  0  0  0  0  0  0  0  0  0  0
   -3.6246    1.3348  -19.6312 C   0  0  0  0  0  0  0  0  0  0  0  0
   -3.1954    1.6056  -20.8997 C   0  0  0  0  0  0  0  0  0  0  0  0
   -3.8796    1.0645  -22.0099 C   0  0  0  0  0  0  0  0  0  0  0  0
   -4.9874    0.2729  -21.8267 C   0  0  0  0  0  0  0  0  0  0  0  0
   -5.4731   -0.0110  -20.5153 C   0  0  0  0  0  0  0  0  0  0  0  0
   -5.5018   -0.1244  -22.6953 H   0  0  0  0  0  0  0  0  0  0  0  0
   -3.5304    1.2849  -23.0148 H   0  0  0  0  0  0  0  0  0  0  0  0
   -2.3302    2.2437  -21.0611 H   0  0  0  0  0  0  0  0  0  0  0  0
   -3.1187    1.7479  -18.7631 H   0  0  0  0  0  0  0  0  0  0  0  0
   -4.6450    0.6144  -17.2528 H   0  0  0  0  0  0  0  0  0  0  0  0
   -7.7686   -1.6969  -18.6414 H   0  0  0  0  0  0  0  0  0  0  0  0
   -8.1451   -0.6419  -22.1219 C   0  0  0  0  0  0  0  0  0  0  0  0
   -8.2278    0.5689  -22.0790 O   0  0  0  0  0  0  0  0  0  0  0  0
   -8.7549   -1.5806  -23.1870 C   0  0  1  0  0  0  0  0  0  0  0  0
   -7.9957   -1.3249  -24.5048 C   0  0  0  0  0  0  0  0  0  0  0  0
   -8.6443   -1.8784  -25.6867 N   0  0  0  0  0  0  0  0  0  0  0  0
   -7.8371   -2.2336  -26.8386 C   0  0  0  0  0  0  0  0  0  0  0  0
   -7.7918   -3.7524  -27.0245 C   0  0  0  0  0  0  0  0  0  0  0  0
   -6.9529   -4.4483  -26.4640 O   0  0  0  0  0  0  0  0  0  0  0  0
   -8.7422   -4.2484  -27.8722 N   0  0  0  0  0  0  0  0  0  0  0  0
   -8.9060   -5.6887  -28.0242 C   0  0  0  0  0  0  0  0  0  0  0  0
   -9.5042   -6.3524  -26.7967 C   0  0  0  0  0  0  0  0  0  0  0  0
   -9.5395   -7.8444  -26.6414 C   0  0  0  0  0  0  0  0  0  0  0  0
   -8.6354   -7.0144  -25.7665 C   0  0  0  0  0  0  0  0  0  0  0  0
   -8.8862   -6.8778  -24.7127 H   0  0  0  0  0  0  0  0  0  0  0  0
   -7.5676   -7.0539  -25.9886 H   0  0  0  0  0  0  0  0  0  0  0  0
   -9.0790   -8.4704  -27.4069 H   0  0  0  0  0  0  0  0  0  0  0  0
  -10.4391   -8.2679  -26.1925 H   0  0  0  0  0  0  0  0  0  0  0  0
  -10.3937   -5.8659  -26.4082 H   0  0  0  0  0  0  0  0  0  0  0  0
   -9.5399   -5.8666  -28.9028 H   0  0  0  0  0  0  0  0  0  0  0  0
   -7.9254   -6.1239  -28.2446 H   0  0  0  0  0  0  0  0  0  0  0  0
   -9.5327   -3.6553  -28.0868 H   0  0  0  0  0  0  0  0  0  0  0  0
   -6.8254   -1.8565  -26.6820 H   0  0  0  0  0  0  0  0  0  0  0  0
   -8.2799   -1.7584  -27.7194 H   0  0  0  0  0  0  0  0  0  0  0  0
   -9.9826   -1.7932  -25.9029 C   0  0  0  0  0  0  0  0  0  0  0  0
  -10.4886   -2.0634  -26.9951 O   0  0  0  0  0  0  0  0  0  0  0  0
  -10.7875   -1.3846  -24.7340 C   0  0  0  0  0  0  0  0  0  0  0  0
  -12.1446   -1.1675  -24.9504 C   0  0  0  0  0  0  0  0  0  0  0  0
  -12.9724   -0.8534  -23.8967 C   0  0  0  0  0  0  0  0  0  0  0  0
  -12.3870   -0.7517  -22.6408 C   0  0  0  0  0  0  0  0  0  0  0  0
  -13.1954   -0.4353  -21.6289 F   0  0  0  0  0  0  0  0  0  0  0  0
  -11.0449   -0.9702  -22.3933 C   0  0  0  0  0  0  0  0  0  0  0  0
  -10.2121   -1.2838  -23.4619 C   0  0  0  0  0  0  0  0  0  0  0  0
  -10.6297   -0.9183  -21.3928 H   0  0  0  0  0  0  0  0  0  0  0  0
  -14.0437   -0.7037  -23.9968 H   0  0  0  0  0  0  0  0  0  0  0  0
  -12.5183   -1.2906  -25.9601 H   0  0  0  0  0  0  0  0  0  0  0  0
   -7.8916   -0.2360  -24.5998 H   0  0  0  0  0  0  0  0  0  0  0  0
   -6.9947   -1.7572  -24.4522 H   0  0  0  0  0  0  0  0  0  0  0  0
   -7.5777   -3.3821  -20.5808 H   0  0  0  0  0  0  0  0  0  0  0  0
   -6.4329   -3.1087  -21.9033 H   0  0  0  0  0  0  0  0  0  0  0  0
   -9.4683   -3.1716  -21.9427 H   0  0  0  0  0  0  0  0  0  0  0  0
   -9.1458   -4.1992  -24.2022 H   0  0  0  0  0  0  0  0  0  0  0  0
   -8.2830   -5.0962  -22.9414 H   0  0  0  0  0  0  0  0  0  0  0  0
   -7.3945   -4.0261  -24.0391 H   0  0  0  0  0  0  0  0  0  0  0  0
  1  2  1  0
  2  3  1  0
  3  4  1  0
  4  5  1  0
  5  6  2  0
  6  7  1  0
  7  8  2  0
  8  9  1  0
  9 10  2  0
 10 11  1  0
 11 12  2  0
 12 13  1  0
 13 14  2  0
 13 15  1  0
 12 16  1  0
 11 17  1  0
 10 18  1  0
  8 19  1  0
  6 20  1  0
  4 21  1  0
 21 22  2  0
 21 23  1  0
 23 24  1  6
 24 25  1  0
 25 26  1  0
 26 27  1  0
 27 28  2  0
 27 29  1  0
 29 30  1  0
 30 31  1  0
 31 32  1  0
 32 33  1  0
 33 34  1  0
 33 35  1  0
 32 36  1  0
 32 37  1  0
 31 38  1  0
 30 39  1  0
 30 40  1  0
 29 41  1  0
 26 42  1  0
 26 43  1  0
 25 44  1  0
 44 45  2  0
 44 46  1  0
 46 47  2  0
 47 48  1  0
 48 49  2  0
 49 50  1  0
 49 51  1  0
 51 52  2  0
 51 53  1  0
 48 54  1  0
 47 55  1  0
 24 56  1  0
 24 57  1  0
  3 58  1  0
  3 59  1  0
  2 60  1  1
  1 61  1  0
  1 62  1  0
  1 63  1  0
 23  2  1  0
 33 31  1  0
 52 46  1  0
 14  5  1  0
 52 23  1  0
 14  9  1  0
M  END
>  <cnnaffinities>  (22) 
[6.07396, 6.84644]

>  <score>  (22) 
6.07396

>  <index>  (22) 
21

>  <Smiles>  (22) 
C([C@]1(C(N(c2c(nc(c3c(c(c(c(c23)[H])[H])[H])[H])[H])[H])C(=O)[C@]21C(N(C(C(=O)N(C(C1(C(C1([H])[H])([H])[H])[H])([H])[H])[H])([H])[H])C(=O)c1c(c(c(F)c(c21)[H])[H])[H])([H])[H])([H])[H])[H])([H])([H])[H]

>  <h>  (22) 
<NA>

>  <Training>  (22) 
True

>  <Success>  (22) 
True

>  <enamine_searched>  (22) 
False

>  <enamine_id>  (22) 
nan

$$$$

     RDKit          3D

 68 73  0  0  0  0  0  0  0  0999 V2000
   -7.3089    3.3914  -21.9821 C   0  0  0  0  0  0  0  0  0  0  0  0
   -8.2559    2.8580  -22.9478 N   0  0  0  0  0  0  0  0  0  0  0  0
   -7.7776    2.1448  -24.0041 C   0  0  0  0  0  0  0  0  0  0  0  0
   -6.5793    1.9684  -24.1834 O   0  0  0  0  0  0  0  0  0  0  0  0
   -8.8262    1.5619  -24.9593 C   0  0  0  0  0  0  0  0  0  0  0  0
   -9.4704    0.4028  -24.3627 N   0  0  0  0  0  0  0  0  0  0  0  0
   -8.6670   -0.8000  -24.1747 C   0  0  0  0  0  0  0  0  0  0  0  0
   -9.0265   -1.5443  -22.8594 C   0  0  2  0  0  0  0  0  0  0  0  0
   -8.4933   -0.7650  -21.6418 C   0  0  0  0  0  0  0  0  0  0  0  0
   -8.9760    0.2227  -21.1248 O   0  0  0  0  0  0  0  0  0  0  0  0
   -7.3456   -1.3846  -21.2032 N   0  0  0  0  0  0  0  0  0  0  0  0
   -6.5902   -0.8097  -20.1583 C   0  0  0  0  0  0  0  0  0  0  0  0
   -6.9413   -1.0187  -18.8503 C   0  0  0  0  0  0  0  0  0  0  0  0
   -6.2484   -0.5252  -17.7944 N   0  0  0  0  0  0  0  0  0  0  0  0
   -5.1930    0.2099  -18.0565 C   0  0  0  0  0  0  0  0  0  0  0  0
   -4.7398    0.5250  -19.3697 C   0  0  0  0  0  0  0  0  0  0  0  0
   -3.6098    1.3478  -19.6185 C   0  0  0  0  0  0  0  0  0  0  0  0
   -3.2329    1.6489  -20.8979 C   0  0  0  0  0  0  0  0  0  0  0  0
   -3.9745    1.1565  -21.9988 C   0  0  0  0  0  0  0  0  0  0  0  0
   -5.0723    0.3599  -21.7876 C   0  0  0  0  0  0  0  0  0  0  0  0
   -5.4702    0.0142  -20.4666 C   0  0  0  0  0  0  0  0  0  0  0  0
   -5.6664    0.0189  -22.6328 H   0  0  0  0  0  0  0  0  0  0  0  0
   -3.6914    1.4222  -23.0128 H   0  0  0  0  0  0  0  0  0  0  0  0
   -2.3699    2.2846  -21.0794 H   0  0  0  0  0  0  0  0  0  0  0  0
   -3.0715    1.7452  -18.7617 H   0  0  0  0  0  0  0  0  0  0  0  0
   -4.6364    0.6053  -17.2052 H   0  0  0  0  0  0  0  0  0  0  0  0
   -7.8184   -1.6181  -18.6108 H   0  0  0  0  0  0  0  0  0  0  0  0
   -6.9578   -2.5574  -21.9659 C   0  0  0  0  0  0  0  0  0  0  0  0
   -8.2655   -2.8908  -22.6961 C   0  0  2  0  0  0  0  0  0  0  0  0
   -8.1414   -3.7373  -23.9746 C   0  0  0  0  0  0  0  0  0  0  0  0
   -7.7677   -5.1247  -23.7598 N   0  0  0  0  0  0  0  0  0  0  0  0
   -6.4440   -5.4765  -23.5004 C   0  0  0  0  0  0  0  0  0  0  0  0
   -5.3783   -4.8482  -24.1612 C   0  0  0  0  0  0  0  0  0  0  0  0
   -4.0786   -5.2752  -23.9300 C   0  0  0  0  0  0  0  0  0  0  0  0
   -3.7886   -6.2688  -23.0008 C   0  0  0  0  0  0  0  0  0  0  0  0
   -4.8391   -6.8743  -22.3214 C   0  0  0  0  0  0  0  0  0  0  0  0
   -6.1494   -6.5215  -22.6106 C   0  0  0  0  0  0  0  0  0  0  0  0
   -6.9612   -7.0551  -22.1305 H   0  0  0  0  0  0  0  0  0  0  0  0
   -4.6281   -7.6338  -21.5699 H   0  0  0  0  0  0  0  0  0  0  0  0
   -2.7574   -6.5807  -22.8409 H   0  0  0  0  0  0  0  0  0  0  0  0
   -3.2831   -4.7931  -24.4937 H   0  0  0  0  0  0  0  0  0  0  0  0
   -5.5588   -4.0456  -24.8754 H   0  0  0  0  0  0  0  0  0  0  0  0
   -8.4336   -5.6394  -23.1976 H   0  0  0  0  0  0  0  0  0  0  0  0
   -9.1138   -3.7319  -24.4859 H   0  0  0  0  0  0  0  0  0  0  0  0
   -7.4115   -3.2746  -24.6524 H   0  0  0  0  0  0  0  0  0  0  0  0
   -8.8446   -3.4713  -21.9722 H   0  0  0  0  0  0  0  0  0  0  0  0
   -6.1277   -2.3441  -22.6575 H   0  0  0  0  0  0  0  0  0  0  0  0
   -6.6296   -3.3695  -21.3080 H   0  0  0  0  0  0  0  0  0  0  0  0
  -10.5295   -1.6638  -22.7551 C   0  0  0  0  0  0  0  0  0  0  0  0
  -11.1007   -2.5752  -21.8593 C   0  0  0  0  0  0  0  0  0  0  0  0
  -12.4659   -2.6346  -21.6798 C   0  0  0  0  0  0  0  0  0  0  0  0
  -13.0480   -3.7630  -20.4820 Cl  0  0  0  0  0  0  0  0  0  0  0  0
  -13.3219   -1.7962  -22.3978 C   0  0  0  0  0  0  0  0  0  0  0  0
  -12.7607   -0.8741  -23.2644 C   0  0  0  0  0  0  0  0  0  0  0  0
  -11.3785   -0.7692  -23.4170 C   0  0  0  0  0  0  0  0  0  0  0  0
  -10.8360    0.3751  -24.2326 C   0  0  0  0  0  0  0  0  0  0  0  0
  -11.5678    1.2287  -24.7180 O   0  0  0  0  0  0  0  0  0  0  0  0
  -13.3803   -0.1853  -23.8262 H   0  0  0  0  0  0  0  0  0  0  0  0
  -14.3960   -1.8394  -22.2557 H   0  0  0  0  0  0  0  0  0  0  0  0
  -10.5013   -3.2383  -21.2465 H   0  0  0  0  0  0  0  0  0  0  0  0
   -7.6117   -0.5040  -24.1569 H   0  0  0  0  0  0  0  0  0  0  0  0
   -8.8238   -1.4671  -25.0347 H   0  0  0  0  0  0  0  0  0  0  0  0
   -8.3187    1.3032  -25.8980 H   0  0  0  0  0  0  0  0  0  0  0  0
   -9.6183    2.2797  -25.1901 H   0  0  0  0  0  0  0  0  0  0  0  0
   -9.1889    2.6541  -22.6147 H   0  0  0  0  0  0  0  0  0  0  0  0
   -6.7631    2.5851  -21.4721 H   0  0  0  0  0  0  0  0  0  0  0  0
   -7.8407    4.0098  -21.2534 H   0  0  0  0  0  0  0  0  0  0  0  0
   -6.5701    4.0069  -22.5015 H   0  0  0  0  0  0  0  0  0  0  0  0
  1  2  1  0
  2  3  1  0
  3  4  2  0
  3  5  1  0
  5  6  1  0
  6  7  1  0
  8  7  1  6
  8  9  1  0
  9 10  2  0
  9 11  1  0
 11 12  1  0
 12 13  2  0
 13 14  1  0
 14 15  2  0
 15 16  1  0
 16 17  2  0
 17 18  1  0
 18 19  2  0
 19 20  1  0
 20 21  2  0
 20 22  1  0
 19 23  1  0
 18 24  1  0
 17 25  1  0
 15 26  1  0
 13 27  1  0
 11 28  1  0
 28 29  1  0
 29 30  1  0
 30 31  1  0
 31 32  1  0
 32 33  2  0
 33 34  1  0
 34 35  2  0
 35 36  1  0
 36 37  2  0
 37 38  1  0
 36 39  1  0
 35 40  1  0
 34 41  1  0
 33 42  1  0
 31 43  1  0
 30 44  1  0
 30 45  1  0
 29 46  1  1
 28 47  1  0
 28 48  1  0
  8 49  1  0
 49 50  2  0
 50 51  1  0
 51 52  1  0
 51 53  2  0
 53 54  1  0
 54 55  2  0
 55 56  1  0
 56 57  2  0
 54 58  1  0
 53 59  1  0
 50 60  1  0
  7 61  1  0
  7 62  1  0
  5 63  1  0
  5 64  1  0
  2 65  1  0
  1 66  1  0
  1 67  1  0
  1 68  1  0
 56  6  1  0
 29  8  1  0
 37 32  1  0
 55 49  1  0
 21 12  1  0
 21 16  1  0
M  END
>  <cnnaffinities>  (23) 
[6.54151]

>  <score>  (23) 
6.54151

>  <index>  (23) 
23

>  <Smiles>  (23) 
C(N(C(=O)C(N1C([C@@]2(C(=O)N(c3c(nc(c4c(c(c(c(c34)[H])[H])[H])[H])[H])[H])C([C@@]2(C(N(c2c(c(c(c(c2[H])[H])[H])[H])[H])[H])([H])[H])[H])([H])[H])c2c(c(Cl)c(c(c2C1=O)[H])[H])[H])([H])[H])([H])[H])[H])([H])([H])[H]

>  <h>  (23) 
<NA>

>  <Training>  (23) 
True

>  <Success>  (23) 
True

>  <enamine_searched>  (23) 
False

>  <enamine_id>  (23) 
nan

$$$$

     RDKit          3D

 65 70  0  0  0  0  0  0  0  0999 V2000
   -9.7635    3.1506  -25.9567 O   0  0  0  0  0  0  0  0  0  0  0  0
  -10.0793    2.3609  -25.0741 C   0  0  0  0  0  0  0  0  0  0  0  0
  -10.8504    1.0819  -25.4259 C   0  0  0  0  0  0  0  0  0  0  0  0
  -10.5475   -0.0669  -24.5369 N   0  0  1  0  0  4  0  0  0  0  0  0
  -11.5808   -1.1612  -24.5294 C   0  0  0  0  0  0  0  0  0  0  0  0
  -11.1888   -2.2358  -23.5351 C   0  0  0  0  0  0  0  0  0  0  0  0
  -12.1180   -2.8991  -22.7311 C   0  0  0  0  0  0  0  0  0  0  0  0
  -11.7183   -3.8291  -21.7701 C   0  0  0  0  0  0  0  0  0  0  0  0
  -10.3577   -4.1190  -21.6711 C   0  0  0  0  0  0  0  0  0  0  0  0
   -9.5523   -4.9550  -20.3596 Cl  0  0  0  0  0  0  0  0  0  0  0  0
   -9.4565   -3.5851  -22.5642 C   0  0  0  0  0  0  0  0  0  0  0  0
   -9.8287   -2.5215  -23.3685 C   0  0  0  0  0  0  0  0  0  0  0  0
   -8.7509   -1.5197  -23.7223 C   0  0  2  0  0  0  0  0  0  0  0  0
   -7.3569   -2.1404  -23.9105 C   0  0  0  0  0  0  0  0  0  0  0  0
   -6.6669   -2.0251  -22.5404 C   0  0  0  0  0  0  0  0  0  0  0  0
   -7.3026   -0.8459  -21.9694 N   0  0  0  0  0  0  0  0  0  0  0  0
   -6.8272   -0.3471  -20.7396 C   0  0  0  0  0  0  0  0  0  0  0  0
   -7.4407   -0.6320  -19.5478 C   0  0  0  0  0  0  0  0  0  0  0  0
   -6.9158   -0.3222  -18.3356 N   0  0  0  0  0  0  0  0  0  0  0  0
   -5.7532    0.2839  -18.3178 C   0  0  0  0  0  0  0  0  0  0  0  0
   -5.0141    0.6420  -19.4835 C   0  0  0  0  0  0  0  0  0  0  0  0
   -3.7472    1.2854  -19.4364 C   0  0  0  0  0  0  0  0  0  0  0  0
   -3.0812    1.5930  -20.5938 C   0  0  0  0  0  0  0  0  0  0  0  0
   -3.6403    1.2768  -21.8523 C   0  0  0  0  0  0  0  0  0  0  0  0
   -4.8661    0.6657  -21.9189 C   0  0  0  0  0  0  0  0  0  0  0  0
   -5.5704    0.3228  -20.7352 C   0  0  0  0  0  0  0  0  0  0  0  0
   -5.3203    0.4436  -22.8767 H   0  0  0  0  0  0  0  0  0  0  0  0
   -3.1093    1.5245  -22.7683 H   0  0  0  0  0  0  0  0  0  0  0  0
   -2.1157    2.0898  -20.5584 H   0  0  0  0  0  0  0  0  0  0  0  0
   -3.3271    1.5482  -18.4685 H   0  0  0  0  0  0  0  0  0  0  0  0
   -5.3477    0.5335  -17.3377 H   0  0  0  0  0  0  0  0  0  0  0  0
   -8.3762   -1.1802  -19.5372 H   0  0  0  0  0  0  0  0  0  0  0  0
   -8.5441   -0.6182  -22.4853 C   0  0  0  0  0  0  0  0  0  0  0  0
   -9.3728    0.1766  -22.0541 O   0  0  0  0  0  0  0  0  0  0  0  0
   -5.5836   -1.8855  -22.6015 H   0  0  0  0  0  0  0  0  0  0  0  0
   -6.8414   -2.8900  -21.8809 H   0  0  0  0  0  0  0  0  0  0  0  0
   -6.8030   -1.5530  -24.6508 H   0  0  0  0  0  0  0  0  0  0  0  0
   -7.4153   -3.1717  -24.2643 H   0  0  0  0  0  0  0  0  0  0  0  0
   -9.2133   -0.6625  -24.8892 C   0  0  0  0  0  0  0  0  0  0  0  0
   -9.3273   -1.2717  -25.7903 H   0  0  0  0  0  0  0  0  0  0  0  0
   -8.4887    0.1294  -25.0932 H   0  0  0  0  0  0  0  0  0  0  0  0
   -8.4426   -3.9618  -22.5259 H   0  0  0  0  0  0  0  0  0  0  0  0
  -12.4671   -4.2858  -21.1319 H   0  0  0  0  0  0  0  0  0  0  0  0
  -13.1756   -2.6467  -22.7930 H   0  0  0  0  0  0  0  0  0  0  0  0
  -12.5541   -0.7241  -24.2856 H   0  0  0  0  0  0  0  0  0  0  0  0
  -11.6485   -1.5630  -25.5469 H   0  0  0  0  0  0  0  0  0  0  0  0
  -10.4817    0.2260  -23.5452 H   0  0  0  0  0  0  0  0  0  0  0  0
  -11.9216    1.3053  -25.4058 H   0  0  0  0  0  0  0  0  0  0  0  0
  -10.5699    0.8436  -26.4537 H   0  0  0  0  0  0  0  0  0  0  0  0
   -9.8206    2.5712  -23.7544 N   0  0  0  0  0  0  0  0  0  0  0  0
   -9.3856    3.8651  -23.2611 C   0  0  0  0  0  0  0  0  0  0  0  0
  -10.5441    4.7955  -22.8719 C   0  0  1  0  0  0  0  0  0  0  0  0
  -11.4905    5.1901  -24.0395 C   0  0  0  0  0  0  0  0  0  0  0  0
  -12.5879    4.2827  -23.4638 C   0  0  1  0  0  0  0  0  0  0  0  0
  -12.7408    3.1026  -24.1821 F   0  0  0  0  0  0  0  0  0  0  0  0
  -11.7551    4.0932  -22.1868 C   0  0  0  0  0  0  0  0  0  0  0  0
  -12.1740    4.6415  -21.3420 H   0  0  0  0  0  0  0  0  0  0  0  0
  -11.5997    3.0527  -21.8891 H   0  0  0  0  0  0  0  0  0  0  0  0
  -13.5811    4.7188  -23.3286 H   0  0  0  0  0  0  0  0  0  0  0  0
  -11.7640    6.2465  -24.0230 H   0  0  0  0  0  0  0  0  0  0  0  0
  -11.1513    4.9298  -25.0435 H   0  0  0  0  0  0  0  0  0  0  0  0
  -10.1234    5.6486  -22.3243 H   0  0  0  0  0  0  0  0  0  0  0  0
   -8.7229    3.7088  -22.3942 H   0  0  0  0  0  0  0  0  0  0  0  0
   -8.7982    4.3244  -24.0628 H   0  0  0  0  0  0  0  0  0  0  0  0
   -9.9338    1.8557  -23.0475 H   0  0  0  0  0  0  0  0  0  0  0  0
  1  2  2  0
  2  3  1  0
  3  4  1  0
  4  5  1  0
  5  6  1  0
  6  7  2  0
  7  8  1  0
  8  9  2  0
  9 10  1  0
  9 11  1  0
 11 12  2  0
 12 13  1  0
 13 14  1  6
 14 15  1  0
 15 16  1  0
 16 17  1  0
 17 18  2  0
 18 19  1  0
 19 20  2  0
 20 21  1  0
 21 22  2  0
 22 23  1  0
 23 24  2  0
 24 25  1  0
 25 26  2  0
 25 27  1  0
 24 28  1  0
 23 29  1  0
 22 30  1  0
 20 31  1  0
 18 32  1  0
 16 33  1  0
 33 34  2  0
 15 35  1  0
 15 36  1  0
 14 37  1  0
 14 38  1  0
 13 39  1  0
 39 40  1  0
 39 41  1  0
 11 42  1  0
  8 43  1  0
  7 44  1  0
  5 45  1  0
  5 46  1  0
  4 47  1  1
  3 48  1  0
  3 49  1  0
  2 50  1  0
 50 51  1  0
 51 52  1  0
 52 53  1  0
 53 54  1  0
 54 55  1  0
 54 56  1  0
 56 57  1  0
 56 58  1  0
 54 59  1  1
 53 60  1  0
 53 61  1  0
 52 62  1  1
 51 63  1  0
 51 64  1  0
 50 65  1  0
 39  4  1  0
 56 52  1  0
 12  6  1  0
 33 13  1  0
 26 17  1  0
 26 21  1  0
M  CHG  1   4   1
M  END
>  <cnnaffinities>  (24) 
[6.35406]

>  <score>  (24) 
6.35406

>  <index>  (24) 
24

>  <Smiles>  (24) 
O=C(C([N@+]1(C(c2c(c(c(Cl)c(c2[C@@]2(C(C(N(c3c(nc(c4c(c(c(c(c34)[H])[H])[H])[H])[H])[H])C2=O)([H])[H])([H])[H])C1([H])[H])[H])[H])[H])([H])[H])[H])([H])[H])N(C([C@]1(C([C@@](F)(C1([H])[H])[H])([H])[H])[H])([H])[H])[H]

>  <h>  (24) 
<NA>

>  <Training>  (24) 
True

>  <Success>  (24) 
True

>  <enamine_searched>  (24) 
False

>  <enamine_id>  (24) 
nan

$$$$

     RDKit          3D

 70 75  0  0  0  0  0  0  0  0999 V2000
   -5.7461   -7.6270  -25.6310 O   0  0  0  0  0  0  0  0  0  0  0  0
   -5.6482   -7.1161  -24.5296 C   0  0  0  0  0  0  0  0  0  0  0  0
   -6.8195   -6.3852  -23.8551 C   0  0  0  0  0  0  0  0  0  0  0  0
   -6.7897   -4.8856  -23.9492 N   0  0  1  0  0  4  0  0  0  0  0  0
   -6.7534   -4.5111  -25.4194 C   0  0  0  0  0  0  0  0  0  0  0  0
   -6.7730   -3.0213  -25.6314 C   0  0  0  0  0  0  0  0  0  0  0  0
   -6.2825   -2.4756  -26.8164 C   0  0  0  0  0  0  0  0  0  0  0  0
   -6.3062   -1.1062  -27.0309 C   0  0  0  0  0  0  0  0  0  0  0  0
   -6.8214   -0.2747  -26.0445 C   0  0  0  0  0  0  0  0  0  0  0  0
   -6.8409    1.4453  -26.2954 Cl  0  0  0  0  0  0  0  0  0  0  0  0
   -7.3100   -0.8017  -24.8609 C   0  0  0  0  0  0  0  0  0  0  0  0
   -7.3006   -2.1817  -24.6547 C   0  0  0  0  0  0  0  0  0  0  0  0
   -7.8139   -2.7128  -23.3336 C   0  0  2  0  0  0  0  0  0  0  0  0
   -6.8190   -2.3804  -22.2298 C   0  0  0  0  0  0  0  0  0  0  0  0
   -5.7200   -2.9117  -22.2131 O   0  0  0  0  0  0  0  0  0  0  0  0
   -7.2741   -1.4773  -21.2929 N   0  0  0  0  0  0  0  0  0  0  0  0
   -6.5364   -0.8823  -20.2402 C   0  0  0  0  0  0  0  0  0  0  0  0
   -6.9090   -1.0680  -18.9282 C   0  0  0  0  0  0  0  0  0  0  0  0
   -6.2409   -0.5633  -17.8598 N   0  0  0  0  0  0  0  0  0  0  0  0
   -5.1933    0.1898  -18.0969 C   0  0  0  0  0  0  0  0  0  0  0  0
   -4.7425    0.5104  -19.4081 C   0  0  0  0  0  0  0  0  0  0  0  0
   -3.6258    1.3588  -19.6259 C   0  0  0  0  0  0  0  0  0  0  0  0
   -3.2452    1.6940  -20.8976 C   0  0  0  0  0  0  0  0  0  0  0  0
   -3.9661    1.2008  -22.0120 C   0  0  0  0  0  0  0  0  0  0  0  0
   -5.0430    0.3697  -21.8314 C   0  0  0  0  0  0  0  0  0  0  0  0
   -5.4404   -0.0124  -20.5172 C   0  0  0  0  0  0  0  0  0  0  0  0
   -5.6093    0.0111  -22.6868 H   0  0  0  0  0  0  0  0  0  0  0  0
   -3.6693    1.4881  -23.0162 H   0  0  0  0  0  0  0  0  0  0  0  0
   -2.3908    2.3438  -21.0642 H   0  0  0  0  0  0  0  0  0  0  0  0
   -3.0983    1.7488  -18.7606 H   0  0  0  0  0  0  0  0  0  0  0  0
   -4.6444    0.5923  -17.2409 H   0  0  0  0  0  0  0  0  0  0  0  0
   -7.7720   -1.6868  -18.6749 H   0  0  0  0  0  0  0  0  0  0  0  0
   -8.2766   -1.4110  -21.2105 H   0  0  0  0  0  0  0  0  0  0  0  0
   -8.0063   -4.2293  -23.3190 C   0  0  0  0  0  0  0  0  0  0  0  0
   -8.9012   -4.5134  -23.8800 H   0  0  0  0  0  0  0  0  0  0  0  0
   -8.1163   -4.5759  -22.2881 H   0  0  0  0  0  0  0  0  0  0  0  0
   -8.7469   -2.2078  -23.0813 H   0  0  0  0  0  0  0  0  0  0  0  0
   -7.6877   -0.1357  -24.0910 H   0  0  0  0  0  0  0  0  0  0  0  0
   -5.9292   -0.6848  -27.9543 H   0  0  0  0  0  0  0  0  0  0  0  0
   -5.8818   -3.1362  -27.5836 H   0  0  0  0  0  0  0  0  0  0  0  0
   -7.6349   -4.9816  -25.8740 H   0  0  0  0  0  0  0  0  0  0  0  0
   -5.8791   -4.9710  -25.8822 H   0  0  0  0  0  0  0  0  0  0  0  0
   -5.9733   -4.4678  -23.4471 H   0  0  0  0  0  0  0  0  0  0  0  0
   -7.7002   -6.7646  -24.3832 H   0  0  0  0  0  0  0  0  0  0  0  0
   -6.8706   -6.7053  -22.8116 H   0  0  0  0  0  0  0  0  0  0  0  0
   -4.4968   -7.1699  -23.7906 N   0  0  0  0  0  0  0  0  0  0  0  0
   -3.3061   -7.8174  -24.1988 C   0  0  0  0  0  0  0  0  0  0  0  0
   -2.0861   -7.2074  -23.9203 C   0  0  0  0  0  0  0  0  0  0  0  0
   -0.9020   -7.7720  -24.3688 C   0  0  0  0  0  0  0  0  0  0  0  0
   -0.9273   -8.9930  -25.0399 C   0  0  0  0  0  0  0  0  0  0  0  0
    0.2947   -9.5759  -25.4796 N   0  0  0  0  0  0  0  0  0  0  0  0
    1.3093   -9.8750  -24.4737 C   0  0  0  0  0  0  0  0  0  0  0  0
    2.6316  -10.2269  -25.1324 C   0  0  0  0  0  0  0  0  0  0  0  0
    2.4140  -11.1799  -26.1442 O   0  0  0  0  0  0  0  0  0  0  0  0
    1.6883  -10.6261  -27.2058 C   0  0  0  0  0  0  0  0  0  0  0  0
    0.3917   -9.9486  -26.7948 C   0  0  0  0  0  0  0  0  0  0  0  0
   -0.4695   -9.7194  -27.6237 O   0  0  0  0  0  0  0  0  0  0  0  0
    2.2802   -9.8738  -27.7465 H   0  0  0  0  0  0  0  0  0  0  0  0
    1.4400  -11.4247  -27.9039 H   0  0  0  0  0  0  0  0  0  0  0  0
    3.1330   -9.3394  -25.5431 H   0  0  0  0  0  0  0  0  0  0  0  0
    3.3170  -10.6818  -24.4130 H   0  0  0  0  0  0  0  0  0  0  0  0
    1.4428   -9.0180  -23.8077 H   0  0  0  0  0  0  0  0  0  0  0  0
    0.9734  -10.7194  -23.8627 H   0  0  0  0  0  0  0  0  0  0  0  0
   -2.1415   -9.6494  -25.2401 C   0  0  0  0  0  0  0  0  0  0  0  0
   -3.3272   -9.0551  -24.8348 C   0  0  0  0  0  0  0  0  0  0  0  0
   -4.2743   -9.5418  -25.0144 H   0  0  0  0  0  0  0  0  0  0  0  0
   -2.1594  -10.6210  -25.7281 H   0  0  0  0  0  0  0  0  0  0  0  0
    0.0422   -7.2494  -24.2321 H   0  0  0  0  0  0  0  0  0  0  0  0
   -2.0658   -6.3092  -23.3225 H   0  0  0  0  0  0  0  0  0  0  0  0
   -4.4269   -6.5772  -22.9810 H   0  0  0  0  0  0  0  0  0  0  0  0
  1  2  2  0
  2  3  1  0
  3  4  1  0
  4  5  1  0
  5  6  1  0
  6  7  2  0
  7  8  1  0
  8  9  2  0
  9 10  1  0
  9 11  1  0
 11 12  2  0
 12 13  1  0
 13 14  1  0
 14 15  2  0
 14 16  1  0
 16 17  1  0
 17 18  2  0
 18 19  1  0
 19 20  2  0
 20 21  1  0
 21 22  2  0
 22 23  1  0
 23 24  2  0
 24 25  1  0
 25 26  2  0
 25 27  1  0
 24 28  1  0
 23 29  1  0
 22 30  1  0
 20 31  1  0
 18 32  1  0
 16 33  1  0
 13 34  1  0
 34 35  1  0
 34 36  1  0
 13 37  1  1
 11 38  1  0
  8 39  1  0
  7 40  1  0
  5 41  1  0
  5 42  1  0
  4 43  1  1
  3 44  1  0
  3 45  1  0
  2 46  1  0
 46 47  1  0
 47 48  2  0
 48 49  1  0
 49 50  2  0
 50 51  1  0
 51 52  1  0
 52 53  1  0
 53 54  1  0
 54 55  1  0
 55 56  1  0
 56 57  2  0
 55 58  1  0
 55 59  1  0
 53 60  1  0
 53 61  1  0
 52 62  1  0
 52 63  1  0
 50 64  1  0
 64 65  2  0
 65 66  1  0
 64 67  1  0
 49 68  1  0
 48 69  1  0
 46 70  1  0
 34  4  1  0
 65 47  1  0
 12  6  1  0
 26 17  1  0
 56 51  1  0
 26 21  1  0
M  CHG  1   4   1
M  END
>  <cnnaffinities>  (25) 
[6.24819]

>  <score>  (25) 
6.24819

>  <index>  (25) 
25

>  <Smiles>  (25) 
O=C(C([N@+]1(C(c2c(c(c(Cl)c(c2[C@](C(=O)N(c2c(nc(c3c(c(c(c(c23)[H])[H])[H])[H])[H])[H])[H])(C1([H])[H])[H])[H])[H])[H])([H])[H])[H])([H])[H])N(c1c(c(c(N2C(C(OC(C2=O)([H])[H])([H])[H])([H])[H])c(c1[H])[H])[H])[H])[H]

>  <h>  (25) 
<NA>

>  <Training>  (25) 
True

>  <Success>  (25) 
True

>  <enamine_searched>  (25) 
False

>  <enamine_id>  (25) 
nan

$$$$

     RDKit          3D

 55 60  0  0  0  0  0  0  0  0999 V2000
  -10.0643   -0.9160  -23.4521 C   0  0  0  0  0  0  0  0  0  0  0  0
   -8.6710   -1.2600  -22.9229 C   0  0  1  0  0  0  0  0  0  0  0  0
   -8.1913   -0.3245  -21.7991 C   0  0  0  0  0  0  0  0  0  0  0  0
   -7.2346   -1.1388  -21.0566 N   0  0  0  0  0  0  0  0  0  0  0  0
   -6.4087   -0.6424  -20.0160 C   0  0  0  0  0  0  0  0  0  0  0  0
   -6.6860   -0.9067  -18.6979 C   0  0  0  0  0  0  0  0  0  0  0  0
   -6.0183   -0.3551  -17.6505 N   0  0  0  0  0  0  0  0  0  0  0  0
   -5.0170    0.4478  -17.9211 C   0  0  0  0  0  0  0  0  0  0  0  0
   -4.5756    0.7466  -19.2404 C   0  0  0  0  0  0  0  0  0  0  0  0
   -3.4435    1.5686  -19.4830 C   0  0  0  0  0  0  0  0  0  0  0  0
   -3.0267    1.8029  -20.7632 C   0  0  0  0  0  0  0  0  0  0  0  0
   -3.7251    1.2404  -21.8565 C   0  0  0  0  0  0  0  0  0  0  0  0
   -4.8353    0.4582  -21.6462 C   0  0  0  0  0  0  0  0  0  0  0  0
   -5.2881    0.1923  -20.3272 C   0  0  0  0  0  0  0  0  0  0  0  0
   -5.3683    0.0247  -22.4855 H   0  0  0  0  0  0  0  0  0  0  0  0
   -3.3850    1.4328  -22.8699 H   0  0  0  0  0  0  0  0  0  0  0  0
   -2.1607    2.4324  -20.9520 H   0  0  0  0  0  0  0  0  0  0  0  0
   -2.9291    2.0101  -18.6312 H   0  0  0  0  0  0  0  0  0  0  0  0
   -4.4830    0.8895  -17.0766 H   0  0  0  0  0  0  0  0  0  0  0  0
   -7.4964   -1.5807  -18.4309 H   0  0  0  0  0  0  0  0  0  0  0  0
   -7.3726   -2.4910  -21.2932 C   0  0  0  0  0  0  0  0  0  0  0  0
   -6.7235   -3.3654  -20.7557 O   0  0  0  0  0  0  0  0  0  0  0  0
   -8.5029   -2.6947  -22.3126 C   0  0  1  0  0  0  0  0  0  0  0  0
   -9.7427   -3.1712  -21.5143 C   0  0  0  0  0  0  0  0  0  0  0  0
  -10.8067   -3.6379  -22.3931 N   0  0  0  0  0  0  0  0  0  0  0  0
  -12.1993   -3.4794  -21.9761 C   0  0  0  0  0  0  0  0  0  0  0  0
  -12.9906   -2.3801  -22.6447 C   0  0  0  0  0  0  0  0  0  0  0  0
  -13.6400   -2.2792  -23.8913 C   0  0  0  0  0  0  0  0  0  0  0  0
  -14.3040   -1.1250  -23.9530 N   0  0  0  0  0  0  0  0  0  0  0  0
  -14.0595   -0.5888  -22.7749 N   0  0  0  0  0  0  0  0  0  0  0  0
  -13.2660   -1.2674  -21.9649 N   0  0  0  0  0  0  0  0  0  0  0  0
  -14.3536    0.3489  -22.5499 H   0  0  0  0  0  0  0  0  0  0  0  0
  -13.6704   -2.9677  -24.7228 H   0  0  0  0  0  0  0  0  0  0  0  0
  -12.1920   -3.2362  -20.9146 H   0  0  0  0  0  0  0  0  0  0  0  0
  -12.6946   -4.4469  -22.1023 H   0  0  0  0  0  0  0  0  0  0  0  0
  -10.4969   -4.6083  -23.3113 C   0  0  0  0  0  0  0  0  0  0  0  0
  -11.3034   -5.3985  -23.7578 O   0  0  0  0  0  0  0  0  0  0  0  0
   -9.0942   -4.6607  -23.7972 C   0  0  0  0  0  0  0  0  0  0  0  0
   -8.7820   -5.6316  -24.7514 C   0  0  0  0  0  0  0  0  0  0  0  0
   -7.5109   -5.7095  -25.2825 C   0  0  0  0  0  0  0  0  0  0  0  0
   -6.5631   -4.8081  -24.8072 C   0  0  0  0  0  0  0  0  0  0  0  0
   -5.3241   -4.8728  -25.3200 F   0  0  0  0  0  0  0  0  0  0  0  0
   -6.8427   -3.8612  -23.8390 C   0  0  0  0  0  0  0  0  0  0  0  0
   -8.1436   -3.7574  -23.3304 C   0  0  0  0  0  0  0  0  0  0  0  0
   -6.0376   -3.2453  -23.4555 H   0  0  0  0  0  0  0  0  0  0  0  0
   -7.2492   -6.4530  -26.0296 H   0  0  0  0  0  0  0  0  0  0  0  0
   -9.5706   -6.3157  -25.0502 H   0  0  0  0  0  0  0  0  0  0  0  0
  -10.1460   -2.3606  -20.9008 H   0  0  0  0  0  0  0  0  0  0  0  0
   -9.4138   -3.9655  -20.8272 H   0  0  0  0  0  0  0  0  0  0  0  0
   -9.0357   -0.0219  -21.1586 H   0  0  0  0  0  0  0  0  0  0  0  0
   -7.7304    0.5938  -22.1768 H   0  0  0  0  0  0  0  0  0  0  0  0
   -7.9540   -1.2089  -23.7574 H   0  0  0  0  0  0  0  0  0  0  0  0
  -10.0577    0.0431  -23.9814 H   0  0  0  0  0  0  0  0  0  0  0  0
  -10.4068   -1.6880  -24.1504 H   0  0  0  0  0  0  0  0  0  0  0  0
  -10.7942   -0.8522  -22.6352 H   0  0  0  0  0  0  0  0  0  0  0  0
  1  2  1  0
  2  3  1  0
  3  4  1  0
  4  5  1  0
  5  6  2  0
  6  7  1  0
  7  8  2  0
  8  9  1  0
  9 10  2  0
 10 11  1  0
 11 12  2  0
 12 13  1  0
 13 14  2  0
 13 15  1  0
 12 16  1  0
 11 17  1  0
 10 18  1  0
  8 19  1  0
  6 20  1  0
  4 21  1  0
 21 22  2  0
 21 23  1  0
 23 24  1  1
 24 25  1  0
 25 26  1  0
 26 27  1  0
 27 28  1  0
 28 29  2  0
 29 30  1  0
 30 31  1  0
 30 32  1  0
 28 33  1  0
 26 34  1  0
 26 35  1  0
 25 36  1  0
 36 37  2  0
 36 38  1  0
 38 39  2  0
 39 40  1  0
 40 41  2  0
 41 42  1  0
 41 43  1  0
 43 44  2  0
 43 45  1  0
 40 46  1  0
 39 47  1  0
 24 48  1  0
 24 49  1  0
  3 50  1  0
  3 51  1  0
  2 52  1  6
  1 53  1  0
  1 54  1  0
  1 55  1  0
 23  2  1  0
 31 27  2  0
 44 38  1  0
 14  5  1  0
 44 23  1  0
 14  9  1  0
M  END
>  <cnnaffinities>  (26) 
[6.74371, 6.64396]

>  <score>  (26) 
6.74371

>  <index>  (26) 
26

>  <Smiles>  (26) 
C([C@]1(C(N(c2c(nc(c3c(c(c(c(c23)[H])[H])[H])[H])[H])[H])C(=O)[C@]21C(N(C(c1c(nn(n1)[H])[H])([H])[H])C(=O)c1c(c(c(F)c(c21)[H])[H])[H])([H])[H])([H])[H])[H])([H])([H])[H]

>  <h>  (26) 
<NA>

>  <Training>  (26) 
True

>  <Success>  (26) 
True

>  <enamine_searched>  (26) 
False

>  <enamine_id>  (26) 
nan

$$$$

     RDKit          3D

 58 62  0  0  0  0  0  0  0  0999 V2000
   -7.0486    3.5754  -22.0982 C   0  0  0  0  0  0  0  0  0  0  0  0
   -7.2901    2.5325  -23.1000 N   0  0  0  0  0  4  0  0  0  0  0  0
   -8.4482    2.8273  -23.9983 C   0  0  0  0  0  0  0  0  0  0  0  0
   -8.7226    1.6704  -24.9563 C   0  0  0  0  0  0  0  0  0  0  0  0
   -9.3769    0.5342  -24.3250 N   0  0  0  0  0  0  0  0  0  0  0  0
   -8.6597   -0.7218  -24.2008 C   0  0  0  0  0  0  0  0  0  0  0  0
   -9.0425   -1.4771  -22.9124 C   0  0  2  0  0  0  0  0  0  0  0  0
   -8.5180   -0.7234  -21.6623 C   0  0  0  0  0  0  0  0  0  0  0  0
   -8.9574    0.2981  -21.1768 O   0  0  0  0  0  0  0  0  0  0  0  0
   -7.4098   -1.3880  -21.1864 N   0  0  0  0  0  0  0  0  0  0  0  0
   -6.6029   -0.8088  -20.1700 C   0  0  0  0  0  0  0  0  0  0  0  0
   -6.9112   -1.0389  -18.8550 C   0  0  0  0  0  0  0  0  0  0  0  0
   -6.2065   -0.5458  -17.8070 N   0  0  0  0  0  0  0  0  0  0  0  0
   -5.1708    0.2099  -18.0826 C   0  0  0  0  0  0  0  0  0  0  0  0
   -4.7381    0.5348  -19.4007 C   0  0  0  0  0  0  0  0  0  0  0  0
   -3.6118    1.3684  -19.6433 C   0  0  0  0  0  0  0  0  0  0  0  0
   -3.2267    1.6669  -20.9216 C   0  0  0  0  0  0  0  0  0  0  0  0
   -3.9463    1.1404  -22.0164 C   0  0  0  0  0  0  0  0  0  0  0  0
   -5.0383    0.3279  -21.8086 C   0  0  0  0  0  0  0  0  0  0  0  0
   -5.4727    0.0078  -20.4909 C   0  0  0  0  0  0  0  0  0  0  0  0
   -5.5699   -0.0815  -22.6633 H   0  0  0  0  0  0  0  0  0  0  0  0
   -3.6431    1.3863  -23.0302 H   0  0  0  0  0  0  0  0  0  0  0  0
   -2.3743    2.3168  -21.0976 H   0  0  0  0  0  0  0  0  0  0  0  0
   -3.0846    1.7758  -18.7844 H   0  0  0  0  0  0  0  0  0  0  0  0
   -4.6197    0.6136  -17.2330 H   0  0  0  0  0  0  0  0  0  0  0  0
   -7.7621   -1.6659  -18.6006 H   0  0  0  0  0  0  0  0  0  0  0  0
   -7.0505   -2.5688  -21.9480 C   0  0  0  0  0  0  0  0  0  0  0  0
   -8.3016   -2.8502  -22.8065 C   0  0  2  0  0  0  0  0  0  0  0  0
   -7.9681   -3.5645  -24.1220 C   0  0  0  0  0  0  0  0  0  0  0  0
   -7.5152   -4.5458  -23.9346 H   0  0  0  0  0  0  0  0  0  0  0  0
   -8.8572   -3.7223  -24.7452 H   0  0  0  0  0  0  0  0  0  0  0  0
   -7.2489   -2.9819  -24.7118 H   0  0  0  0  0  0  0  0  0  0  0  0
   -8.9527   -3.5049  -22.2217 H   0  0  0  0  0  0  0  0  0  0  0  0
   -6.8026   -3.3976  -21.2733 H   0  0  0  0  0  0  0  0  0  0  0  0
   -6.1699   -2.3888  -22.5849 H   0  0  0  0  0  0  0  0  0  0  0  0
  -10.5524   -1.5443  -22.8584 C   0  0  0  0  0  0  0  0  0  0  0  0
  -11.1644   -2.4890  -22.0424 C   0  0  0  0  0  0  0  0  0  0  0  0
  -12.5272   -2.5036  -21.8985 C   0  0  0  0  0  0  0  0  0  0  0  0
  -13.0135   -3.4014  -21.0256 F   0  0  0  0  0  0  0  0  0  0  0  0
  -13.3557   -1.6212  -22.5838 C   0  0  0  0  0  0  0  0  0  0  0  0
  -12.7502   -0.6407  -23.3503 C   0  0  0  0  0  0  0  0  0  0  0  0
  -11.3600   -0.5685  -23.4621 C   0  0  0  0  0  0  0  0  0  0  0  0
  -10.7371    0.6042  -24.1635 C   0  0  0  0  0  0  0  0  0  0  0  0
  -11.3879    1.5649  -24.5481 O   0  0  0  0  0  0  0  0  0  0  0  0
  -13.3238    0.1276  -23.8573 H   0  0  0  0  0  0  0  0  0  0  0  0
  -14.4320   -1.6875  -22.4974 H   0  0  0  0  0  0  0  0  0  0  0  0
  -10.6247   -3.2171  -21.4524 H   0  0  0  0  0  0  0  0  0  0  0  0
   -8.8742   -1.3825  -25.0567 H   0  0  0  0  0  0  0  0  0  0  0  0
   -7.5854   -0.5031  -24.1701 H   0  0  0  0  0  0  0  0  0  0  0  0
   -7.7804    1.3125  -25.3879 H   0  0  0  0  0  0  0  0  0  0  0  0
   -9.3754    2.0166  -25.7595 H   0  0  0  0  0  0  0  0  0  0  0  0
   -9.3319    3.0118  -23.3802 H   0  0  0  0  0  0  0  0  0  0  0  0
   -8.2407    3.7367  -24.5708 H   0  0  0  0  0  0  0  0  0  0  0  0
   -6.4254    2.4053  -23.6794 H   0  0  0  0  0  0  0  0  0  0  0  0
   -7.5055    1.6398  -22.6016 H   0  0  0  0  0  0  0  0  0  0  0  0
   -6.1804    3.3000  -21.4995 H   0  0  0  0  0  0  0  0  0  0  0  0
   -7.9252    3.6778  -21.4538 H   0  0  0  0  0  0  0  0  0  0  0  0
   -6.8750    4.5476  -22.5705 H   0  0  0  0  0  0  0  0  0  0  0  0
  1  2  1  0
  2  3  1  0
  3  4  1  0
  4  5  1  0
  5  6  1  0
  7  6  1  6
  7  8  1  0
  8  9  2  0
  8 10  1  0
 10 11  1  0
 11 12  2  0
 12 13  1  0
 13 14  2  0
 14 15  1  0
 15 16  2  0
 16 17  1  0
 17 18  2  0
 18 19  1  0
 19 20  2  0
 19 21  1  0
 18 22  1  0
 17 23  1  0
 16 24  1  0
 14 25  1  0
 12 26  1  0
 10 27  1  0
 27 28  1  0
 28 29  1  0
 29 30  1  0
 29 31  1  0
 29 32  1  0
 28 33  1  1
 27 34  1  0
 27 35  1  0
  7 36  1  0
 36 37  2  0
 37 38  1  0
 38 39  1  0
 38 40  2  0
 40 41  1  0
 41 42  2  0
 42 43  1  0
 43 44  2  0
 41 45  1  0
 40 46  1  0
 37 47  1  0
  6 48  1  0
  6 49  1  0
  4 50  1  0
  4 51  1  0
  3 52  1  0
  3 53  1  0
  2 54  1  0
  2 55  1  0
  1 56  1  0
  1 57  1  0
  1 58  1  0
 43  5  1  0
 28  7  1  0
 42 36  1  0
 20 11  1  0
 20 15  1  0
M  CHG  1   2   1
M  END
>  <cnnaffinities>  (27) 
[5.58464]

>  <score>  (27) 
5.58464

>  <index>  (27) 
27

>  <Smiles>  (27) 
C([N+](C(C(N1C([C@@]2(C(=O)N(c3c(nc(c4c(c(c(c(c34)[H])[H])[H])[H])[H])[H])C([C@@]2(C([H])([H])[H])[H])([H])[H])c2c(c(F)c(c(c2C1=O)[H])[H])[H])([H])[H])([H])[H])([H])[H])([H])[H])([H])([H])[H]

>  <h>  (27) 
<NA>

>  <Training>  (27) 
True

>  <Success>  (27) 
True

>  <enamine_searched>  (27) 
False

>  <enamine_id>  (27) 
nan

$$$$

     RDKit          3D

 64 68  0  0  0  0  0  0  0  0999 V2000
   -7.4535    3.3746  -21.8111 C   0  0  0  0  0  0  0  0  0  0  0  0
   -8.3771    2.9230  -22.8324 N   0  0  0  0  0  0  0  0  0  0  0  0
   -7.8421    2.1947  -23.8480 C   0  0  0  0  0  0  0  0  0  0  0  0
   -6.6352    2.0435  -23.9760 O   0  0  0  0  0  0  0  0  0  0  0  0
   -8.8275    1.5847  -24.8377 C   0  0  0  0  0  0  0  0  0  0  0  0
   -9.4896    0.4164  -24.3046 N   0  0  0  0  0  0  0  0  0  0  0  0
   -8.7226   -0.8092  -24.1733 C   0  0  0  0  0  0  0  0  0  0  0  0
   -9.0620   -1.5545  -22.8694 C   0  0  2  0  0  0  0  0  0  0  0  0
   -8.5365   -0.7782  -21.6411 C   0  0  0  0  0  0  0  0  0  0  0  0
   -9.0234    0.2087  -21.1265 O   0  0  0  0  0  0  0  0  0  0  0  0
   -7.3925   -1.3985  -21.2005 N   0  0  0  0  0  0  0  0  0  0  0  0
   -6.6007   -0.8216  -20.1752 C   0  0  0  0  0  0  0  0  0  0  0  0
   -6.9212   -1.0455  -18.8609 C   0  0  0  0  0  0  0  0  0  0  0  0
   -6.2272   -0.5445  -17.8083 N   0  0  0  0  0  0  0  0  0  0  0  0
   -5.1861    0.2061  -18.0783 C   0  0  0  0  0  0  0  0  0  0  0  0
   -4.7426    0.5205  -19.3937 C   0  0  0  0  0  0  0  0  0  0  0  0
   -3.6185    1.3541  -19.6390 C   0  0  0  0  0  0  0  0  0  0  0  0
   -3.2327    1.6518  -20.9156 C   0  0  0  0  0  0  0  0  0  0  0  0
   -3.9565    1.1350  -22.0170 C   0  0  0  0  0  0  0  0  0  0  0  0
   -5.0490    0.3270  -21.8086 C   0  0  0  0  0  0  0  0  0  0  0  0
   -5.4691   -0.0051  -20.4907 C   0  0  0  0  0  0  0  0  0  0  0  0
   -5.6116   -0.0405  -22.6640 H   0  0  0  0  0  0  0  0  0  0  0  0
   -3.6604    1.3884  -23.0301 H   0  0  0  0  0  0  0  0  0  0  0  0
   -2.3775    2.3002  -21.0937 H   0  0  0  0  0  0  0  0  0  0  0  0
   -3.0895    1.7642  -18.7821 H   0  0  0  0  0  0  0  0  0  0  0  0
   -4.6249    0.6056  -17.2325 H   0  0  0  0  0  0  0  0  0  0  0  0
   -7.7843   -1.6623  -18.6145 H   0  0  0  0  0  0  0  0  0  0  0  0
   -7.0316   -2.5929  -21.9348 C   0  0  0  0  0  0  0  0  0  0  0  0
   -8.3003   -2.9113  -22.7490 C   0  0  2  0  0  0  0  0  0  0  0  0
   -8.0399   -3.6930  -24.0457 C   0  0  0  0  0  0  0  0  0  0  0  0
   -7.4471   -5.3428  -23.6905 S   0  0  0  0  0  0  0  0  0  0  0  0
   -6.0896   -5.2530  -23.1703 O   0  0  0  0  0  0  0  0  0  0  0  0
   -8.4774   -6.0662  -22.9545 O   0  0  0  0  0  0  0  0  0  0  0  0
   -7.2764   -5.9862  -25.2213 N   0  0  0  0  0  0  0  0  0  0  0  0
   -8.4736   -6.3710  -25.9670 C   0  0  0  0  0  0  0  0  0  0  0  0
   -8.9958   -5.4751  -26.3103 H   0  0  0  0  0  0  0  0  0  0  0  0
   -9.1698   -6.9822  -25.3848 H   0  0  0  0  0  0  0  0  0  0  0  0
   -8.1562   -6.9278  -26.8546 H   0  0  0  0  0  0  0  0  0  0  0  0
   -6.6122   -6.7461  -25.1239 H   0  0  0  0  0  0  0  0  0  0  0  0
   -8.9596   -3.8030  -24.6328 H   0  0  0  0  0  0  0  0  0  0  0  0
   -7.2716   -3.2213  -24.6653 H   0  0  0  0  0  0  0  0  0  0  0  0
   -8.9219   -3.5661  -22.1414 H   0  0  0  0  0  0  0  0  0  0  0  0
   -6.1740   -2.4074  -22.5951 H   0  0  0  0  0  0  0  0  0  0  0  0
   -6.7600   -3.4009  -21.2491 H   0  0  0  0  0  0  0  0  0  0  0  0
  -10.5683   -1.6411  -22.7702 C   0  0  0  0  0  0  0  0  0  0  0  0
  -11.1306   -2.5531  -21.8803 C   0  0  0  0  0  0  0  0  0  0  0  0
  -12.4974   -2.5992  -21.7079 C   0  0  0  0  0  0  0  0  0  0  0  0
  -13.1062   -3.6903  -20.4915 Cl  0  0  0  0  0  0  0  0  0  0  0  0
  -13.3488   -1.7600  -22.4316 C   0  0  0  0  0  0  0  0  0  0  0  0
  -12.8013   -0.8153  -23.2809 C   0  0  0  0  0  0  0  0  0  0  0  0
  -11.4143   -0.7298  -23.4174 C   0  0  0  0  0  0  0  0  0  0  0  0
  -10.8514    0.4225  -24.1859 C   0  0  0  0  0  0  0  0  0  0  0  0
  -11.5580    1.3161  -24.6337 O   0  0  0  0  0  0  0  0  0  0  0  0
  -13.4301   -0.1144  -23.8269 H   0  0  0  0  0  0  0  0  0  0  0  0
  -14.4191   -1.8514  -22.2968 H   0  0  0  0  0  0  0  0  0  0  0  0
  -10.4972   -3.2215  -21.3084 H   0  0  0  0  0  0  0  0  0  0  0  0
   -7.6630   -0.5425  -24.2010 H   0  0  0  0  0  0  0  0  0  0  0  0
   -8.9426   -1.4691  -25.0209 H   0  0  0  0  0  0  0  0  0  0  0  0
   -9.6202    2.2897  -25.1024 H   0  0  0  0  0  0  0  0  0  0  0  0
   -8.2344    1.3158  -25.7156 H   0  0  0  0  0  0  0  0  0  0  0  0
   -9.3340    2.7526  -22.5504 H   0  0  0  0  0  0  0  0  0  0  0  0
   -6.8765    2.5265  -21.4169 H   0  0  0  0  0  0  0  0  0  0  0  0
   -6.7383    4.0729  -22.2466 H   0  0  0  0  0  0  0  0  0  0  0  0
   -7.9895    3.8796  -21.0065 H   0  0  0  0  0  0  0  0  0  0  0  0
  1  2  1  0
  2  3  1  0
  3  4  2  0
  3  5  1  0
  5  6  1  0
  6  7  1  0
  8  7  1  6
  8  9  1  0
  9 10  2  0
  9 11  1  0
 11 12  1  0
 12 13  2  0
 13 14  1  0
 14 15  2  0
 15 16  1  0
 16 17  2  0
 17 18  1  0
 18 19  2  0
 19 20  1  0
 20 21  2  0
 20 22  1  0
 19 23  1  0
 18 24  1  0
 17 25  1  0
 15 26  1  0
 13 27  1  0
 11 28  1  0
 28 29  1  0
 29 30  1  0
 30 31  1  0
 31 32  2  0
 31 33  2  0
 31 34  1  0
 34 35  1  0
 35 36  1  0
 35 37  1  0
 35 38  1  0
 34 39  1  0
 30 40  1  0
 30 41  1  0
 29 42  1  1
 28 43  1  0
 28 44  1  0
  8 45  1  0
 45 46  2  0
 46 47  1  0
 47 48  1  0
 47 49  2  0
 49 50  1  0
 50 51  2  0
 51 52  1  0
 52 53  2  0
 50 54  1  0
 49 55  1  0
 46 56  1  0
  7 57  1  0
  7 58  1  0
  5 59  1  0
  5 60  1  0
  2 61  1  0
  1 62  1  0
  1 63  1  0
  1 64  1  0
 52  6  1  0
 29  8  1  0
 51 45  1  0
 21 12  1  0
 21 16  1  0
M  END
>  <cnnaffinities>  (28) 
[6.25469]

>  <score>  (28) 
6.25469

>  <index>  (28) 
28

>  <Smiles>  (28) 
C(N(C(=O)C(N1C([C@@]2(C(=O)N(c3c(nc(c4c(c(c(c(c34)[H])[H])[H])[H])[H])[H])C([C@@]2(C(S(=O)(=O)N(C([H])([H])[H])[H])([H])[H])[H])([H])[H])c2c(c(Cl)c(c(c2C1=O)[H])[H])[H])([H])[H])([H])[H])[H])([H])([H])[H]

>  <h>  (28) 
<NA>

>  <Training>  (28) 
True

>  <Success>  (28) 
True

>  <enamine_searched>  (28) 
False

>  <enamine_id>  (28) 
nan

$$$$

     RDKit          3D

 55 60  0  0  0  0  0  0  0  0999 V2000
  -10.0544   -0.9049  -23.4599 C   0  0  0  0  0  0  0  0  0  0  0  0
   -8.6641   -1.2530  -22.9223 C   0  0  1  0  0  0  0  0  0  0  0  0
   -8.1878   -0.3190  -21.7948 C   0  0  0  0  0  0  0  0  0  0  0  0
   -7.2327   -1.1349  -21.0511 N   0  0  0  0  0  0  0  0  0  0  0  0
   -6.4039   -0.6397  -20.0118 C   0  0  0  0  0  0  0  0  0  0  0  0
   -6.6808   -0.9016  -18.6926 C   0  0  0  0  0  0  0  0  0  0  0  0
   -6.0119   -0.3485  -17.6469 N   0  0  0  0  0  0  0  0  0  0  0  0
   -5.0116    0.4543  -17.9197 C   0  0  0  0  0  0  0  0  0  0  0  0
   -4.5709    0.7505  -19.2390 C   0  0  0  0  0  0  0  0  0  0  0  0
   -3.4397    1.5737  -19.4788 C   0  0  0  0  0  0  0  0  0  0  0  0
   -3.0208    1.8096  -20.7579 C   0  0  0  0  0  0  0  0  0  0  0  0
   -3.7184    1.2464  -21.8514 C   0  0  0  0  0  0  0  0  0  0  0  0
   -4.8290    0.4637  -21.6430 C   0  0  0  0  0  0  0  0  0  0  0  0
   -5.2829    0.1949  -20.3248 C   0  0  0  0  0  0  0  0  0  0  0  0
   -5.3628    0.0323  -22.4827 H   0  0  0  0  0  0  0  0  0  0  0  0
   -3.3772    1.4398  -22.8642 H   0  0  0  0  0  0  0  0  0  0  0  0
   -2.1541    2.4389  -20.9446 H   0  0  0  0  0  0  0  0  0  0  0  0
   -2.9293    2.0148  -18.6248 H   0  0  0  0  0  0  0  0  0  0  0  0
   -4.4769    0.8973  -17.0766 H   0  0  0  0  0  0  0  0  0  0  0  0
   -7.4922   -1.5734  -18.4223 H   0  0  0  0  0  0  0  0  0  0  0  0
   -7.3715   -2.4867  -21.2909 C   0  0  0  0  0  0  0  0  0  0  0  0
   -6.7266   -3.3628  -20.7501 O   0  0  0  0  0  0  0  0  0  0  0  0
   -8.5013   -2.6892  -22.3130 C   0  0  1  0  0  0  0  0  0  0  0  0
   -9.7423   -3.1666  -21.5188 C   0  0  0  0  0  0  0  0  0  0  0  0
  -10.8042   -3.6296  -22.4020 N   0  0  0  0  0  0  0  0  0  0  0  0
  -12.1951   -3.4727  -21.9830 C   0  0  0  0  0  0  0  0  0  0  0  0
  -12.9822   -2.3725  -22.6504 C   0  0  0  0  0  0  0  0  0  0  0  0
  -13.6304   -2.2706  -23.8964 C   0  0  0  0  0  0  0  0  0  0  0  0
  -14.2982   -1.1188  -23.9560 N   0  0  0  0  0  0  0  0  0  0  0  0
  -14.0465   -0.5803  -22.7808 N   0  0  0  0  0  0  0  0  0  0  0  0
  -13.2520   -1.2586  -21.9715 N   0  0  0  0  0  0  0  0  0  0  0  0
  -14.3445    0.3554  -22.5594 H   0  0  0  0  0  0  0  0  0  0  0  0
  -13.6615   -2.9638  -24.7220 H   0  0  0  0  0  0  0  0  0  0  0  0
  -12.1838   -3.2327  -20.9210 H   0  0  0  0  0  0  0  0  0  0  0  0
  -12.6918   -4.4391  -22.1099 H   0  0  0  0  0  0  0  0  0  0  0  0
  -10.4924   -4.6038  -23.3163 C   0  0  0  0  0  0  0  0  0  0  0  0
  -11.2959   -5.3980  -23.7613 O   0  0  0  0  0  0  0  0  0  0  0  0
   -9.0897   -4.6560  -23.8005 C   0  0  0  0  0  0  0  0  0  0  0  0
   -8.7726   -5.6273  -24.7538 C   0  0  0  0  0  0  0  0  0  0  0  0
   -7.4982   -5.7057  -25.2782 C   0  0  0  0  0  0  0  0  0  0  0  0
   -6.5533   -4.8017  -24.8011 C   0  0  0  0  0  0  0  0  0  0  0  0
   -5.3117   -4.8667  -25.3090 F   0  0  0  0  0  0  0  0  0  0  0  0
   -6.8386   -3.8531  -23.8358 C   0  0  0  0  0  0  0  0  0  0  0  0
   -8.1416   -3.7511  -23.3311 C   0  0  0  0  0  0  0  0  0  0  0  0
   -6.0348   -3.2331  -23.4553 H   0  0  0  0  0  0  0  0  0  0  0  0
   -7.2334   -6.4509  -26.0232 H   0  0  0  0  0  0  0  0  0  0  0  0
   -9.5593   -6.3116  -25.0590 H   0  0  0  0  0  0  0  0  0  0  0  0
  -10.1402   -2.3547  -20.9039 H   0  0  0  0  0  0  0  0  0  0  0  0
   -9.4159   -3.9630  -20.8325 H   0  0  0  0  0  0  0  0  0  0  0  0
   -9.0354   -0.0153  -21.1578 H   0  0  0  0  0  0  0  0  0  0  0  0
   -7.7242    0.5981  -22.1717 H   0  0  0  0  0  0  0  0  0  0  0  0
   -7.9423   -1.2040  -23.7542 H   0  0  0  0  0  0  0  0  0  0  0  0
  -10.0410    0.0548  -23.9886 H   0  0  0  0  0  0  0  0  0  0  0  0
  -10.3929   -1.6746  -24.1630 H   0  0  0  0  0  0  0  0  0  0  0  0
  -10.7937   -0.8401  -22.6504 H   0  0  0  0  0  0  0  0  0  0  0  0
  1  2  1  0
  2  3  1  0
  3  4  1  0
  4  5  1  0
  5  6  2  0
  6  7  1  0
  7  8  2  0
  8  9  1  0
  9 10  2  0
 10 11  1  0
 11 12  2  0
 12 13  1  0
 13 14  2  0
 13 15  1  0
 12 16  1  0
 11 17  1  0
 10 18  1  0
  8 19  1  0
  6 20  1  0
  4 21  1  0
 21 22  2  0
 21 23  1  0
 23 24  1  1
 24 25  1  0
 25 26  1  0
 26 27  1  0
 27 28  1  0
 28 29  2  0
 29 30  1  0
 30 31  1  0
 30 32  1  0
 28 33  1  0
 26 34  1  0
 26 35  1  0
 25 36  1  0
 36 37  2  0
 36 38  1  0
 38 39  2  0
 39 40  1  0
 40 41  2  0
 41 42  1  0
 41 43  1  0
 43 44  2  0
 43 45  1  0
 40 46  1  0
 39 47  1  0
 24 48  1  0
 24 49  1  0
  3 50  1  0
  3 51  1  0
  2 52  1  6
  1 53  1  0
  1 54  1  0
  1 55  1  0
 23  2  1  0
 31 27  2  0
 44 38  1  0
 14  5  1  0
 44 23  1  0
 14  9  1  0
M  END
>  <cnnaffinities>  (29) 
[6.74811, 6.6473, 6.35242]

>  <score>  (29) 
6.74811

>  <index>  (29) 
29

>  <Smiles>  (29) 
C([C@]1(C(N(c2c(nc(c3c(c(c(c(c23)[H])[H])[H])[H])[H])[H])C(=O)[C@]21C(N(C(c1c(nn(n1)[H])[H])([H])[H])C(=O)c1c(c(c(F)c(c21)[H])[H])[H])([H])[H])([H])[H])[H])([H])([H])[H]

>  <h>  (29) 
<NA>

>  <Training>  (29) 
True

>  <Success>  (29) 
True

>  <enamine_searched>  (29) 
False

>  <enamine_id>  (29) 
nan

$$$$

     RDKit          3D

 58 63  0  0  0  0  0  0  0  0999 V2000
   -8.3644   -4.2150  -23.6645 C   0  0  0  0  0  0  0  0  0  0  0  0
   -8.5407   -3.2018  -22.5472 C   0  0  1  0  0  0  0  0  0  0  0  0
   -7.2151   -2.5490  -22.1399 C   0  0  0  0  0  0  0  0  0  0  0  0
   -7.6607   -1.3886  -21.3983 N   0  0  0  0  0  0  0  0  0  0  0  0
   -6.9299   -0.8577  -20.3166 C   0  0  0  0  0  0  0  0  0  0  0  0
   -7.3231   -1.0594  -19.0141 C   0  0  0  0  0  0  0  0  0  0  0  0
   -6.6315   -0.6062  -17.9403 N   0  0  0  0  0  0  0  0  0  0  0  0
   -5.5358    0.0764  -18.1697 C   0  0  0  0  0  0  0  0  0  0  0  0
   -5.0248    0.3588  -19.4686 C   0  0  0  0  0  0  0  0  0  0  0  0
   -3.8635    1.1510  -19.6761 C   0  0  0  0  0  0  0  0  0  0  0  0
   -3.4328    1.4333  -20.9422 C   0  0  0  0  0  0  0  0  0  0  0  0
   -4.1155    0.9082  -22.0624 C   0  0  0  0  0  0  0  0  0  0  0  0
   -5.2111    0.0962  -21.8837 C   0  0  0  0  0  0  0  0  0  0  0  0
   -5.7188   -0.1584  -20.5823 C   0  0  0  0  0  0  0  0  0  0  0  0
   -5.7304   -0.2921  -22.7537 H   0  0  0  0  0  0  0  0  0  0  0  0
   -3.8232    1.1999  -23.0652 H   0  0  0  0  0  0  0  0  0  0  0  0
   -2.5633    2.0677  -21.0910 H   0  0  0  0  0  0  0  0  0  0  0  0
   -3.3538    1.5549  -18.8056 H   0  0  0  0  0  0  0  0  0  0  0  0
   -4.9873    0.4480  -17.3023 H   0  0  0  0  0  0  0  0  0  0  0  0
   -8.2255   -1.6272  -18.7968 H   0  0  0  0  0  0  0  0  0  0  0  0
   -8.9700   -1.0531  -21.6542 C   0  0  0  0  0  0  0  0  0  0  0  0
   -9.5814   -0.1698  -21.0863 O   0  0  0  0  0  0  0  0  0  0  0  0
   -9.5123   -2.0110  -22.7525 C   0  0  1  0  0  0  0  0  0  0  0  0
   -9.4050   -1.3797  -24.1642 C   0  0  0  0  0  0  0  0  0  0  0  0
  -10.3293   -0.2803  -24.3805 N   0  0  0  0  0  0  0  0  0  0  0  0
   -9.8766    0.8100  -25.2283 C   0  0  0  0  0  0  0  0  0  0  0  0
   -8.8458    1.6509  -24.4883 C   0  0  0  0  0  0  0  0  0  0  0  0
   -7.6677    2.0284  -25.0655 C   0  0  0  0  0  0  0  0  0  0  0  0
   -6.5578    2.4468  -24.2275 C   0  0  0  0  0  0  0  0  0  0  0  0
   -5.4167    2.6975  -24.5858 O   0  0  0  0  0  0  0  0  0  0  0  0
   -6.9121    2.5169  -22.8657 N   0  0  0  0  0  0  0  0  0  0  0  0
   -8.1659    2.2450  -22.4042 C   0  0  0  0  0  0  0  0  0  0  0  0
   -9.1516    1.9050  -23.1791 N   0  0  0  0  0  0  0  0  0  0  0  0
   -8.3105    2.2619  -21.3290 H   0  0  0  0  0  0  0  0  0  0  0  0
   -6.1426    2.6529  -22.2142 H   0  0  0  0  0  0  0  0  0  0  0  0
   -7.5039    1.9740  -26.1366 H   0  0  0  0  0  0  0  0  0  0  0  0
  -10.7548    1.4082  -25.4810 H   0  0  0  0  0  0  0  0  0  0  0  0
   -9.4330    0.4058  -26.1481 H   0  0  0  0  0  0  0  0  0  0  0  0
  -11.5132   -0.1255  -23.7190 C   0  0  0  0  0  0  0  0  0  0  0  0
  -12.2484    0.8323  -23.9100 O   0  0  0  0  0  0  0  0  0  0  0  0
  -11.8621   -1.2110  -22.7600 C   0  0  0  0  0  0  0  0  0  0  0  0
  -13.1042   -1.1351  -22.1368 C   0  0  0  0  0  0  0  0  0  0  0  0
  -13.4988   -2.1272  -21.2712 C   0  0  0  0  0  0  0  0  0  0  0  0
  -12.6795   -3.2436  -21.1241 C   0  0  0  0  0  0  0  0  0  0  0  0
  -13.1067   -4.2396  -20.3293 F   0  0  0  0  0  0  0  0  0  0  0  0
  -11.4405   -3.3400  -21.7249 C   0  0  0  0  0  0  0  0  0  0  0  0
  -10.9709   -2.2521  -22.4692 C   0  0  0  0  0  0  0  0  0  0  0  0
  -10.8373   -4.2224  -21.5461 H   0  0  0  0  0  0  0  0  0  0  0  0
  -14.4295   -2.0800  -20.7136 H   0  0  0  0  0  0  0  0  0  0  0  0
  -13.7591   -0.2992  -22.3570 H   0  0  0  0  0  0  0  0  0  0  0  0
   -9.5811   -2.1527  -24.9243 H   0  0  0  0  0  0  0  0  0  0  0  0
   -8.3961   -0.9873  -24.3141 H   0  0  0  0  0  0  0  0  0  0  0  0
   -6.5986   -3.1970  -21.5077 H   0  0  0  0  0  0  0  0  0  0  0  0
   -6.6185   -2.2652  -23.0223 H   0  0  0  0  0  0  0  0  0  0  0  0
   -8.8956   -3.7028  -21.6410 H   0  0  0  0  0  0  0  0  0  0  0  0
   -9.3042   -4.7232  -23.9043 H   0  0  0  0  0  0  0  0  0  0  0  0
   -7.9924   -3.7275  -24.5728 H   0  0  0  0  0  0  0  0  0  0  0  0
   -7.6183   -4.9626  -23.3691 H   0  0  0  0  0  0  0  0  0  0  0  0
  1  2  1  0
  2  3  1  0
  3  4  1  0
  4  5  1  0
  5  6  2  0
  6  7  1  0
  7  8  2  0
  8  9  1  0
  9 10  2  0
 10 11  1  0
 11 12  2  0
 12 13  1  0
 13 14  2  0
 13 15  1  0
 12 16  1  0
 11 17  1  0
 10 18  1  0
  8 19  1  0
  6 20  1  0
  4 21  1  0
 21 22  2  0
 21 23  1  0
 23 24  1  6
 24 25  1  0
 25 26  1  0
 26 27  1  0
 27 28  2  0
 28 29  1  0
 29 30  2  0
 29 31  1  0
 31 32  1  0
 32 33  2  0
 32 34  1  0
 31 35  1  0
 28 36  1  0
 26 37  1  0
 26 38  1  0
 25 39  1  0
 39 40  2  0
 39 41  1  0
 41 42  2  0
 42 43  1  0
 43 44  2  0
 44 45  1  0
 44 46  1  0
 46 47  2  0
 46 48  1  0
 43 49  1  0
 42 50  1  0
 24 51  1  0
 24 52  1  0
  3 53  1  0
  3 54  1  0
  2 55  1  1
  1 56  1  0
  1 57  1  0
  1 58  1  0
 23  2  1  0
 33 27  1  0
 47 41  1  0
 14  5  1  0
 47 23  1  0
 14  9  1  0
M  END
>  <cnnaffinities>  (30) 
[6.50824]

>  <score>  (30) 
6.50824

>  <index>  (30) 
30

>  <Smiles>  (30) 
C([C@]1(C(N(c2c(nc(c3c(c(c(c(c23)[H])[H])[H])[H])[H])[H])C(=O)[C@]21C(N(C(c1c(c(=O)n(c(n1)[H])[H])[H])([H])[H])C(=O)c1c(c(c(F)c(c21)[H])[H])[H])([H])[H])([H])[H])[H])([H])([H])[H]

>  <h>  (30) 
<NA>

>  <Training>  (30) 
True

>  <Success>  (30) 
True

>  <enamine_searched>  (30) 
False

>  <enamine_id>  (30) 
nan

$$$$

     RDKit          3D

 66 71  0  0  0  0  0  0  0  0999 V2000
   -7.3708    3.3864  -21.9096 C   0  0  0  0  0  0  0  0  0  0  0  0
   -8.3154    2.8965  -22.8992 N   0  0  0  0  0  0  0  0  0  0  0  0
   -7.8067    2.1689  -23.9343 C   0  0  0  0  0  0  0  0  0  0  0  0
   -6.6042    1.9835  -24.0675 O   0  0  0  0  0  0  0  0  0  0  0  0
   -8.8125    1.5765  -24.9198 C   0  0  0  0  0  0  0  0  0  0  0  0
   -9.4555    0.4146  -24.3355 N   0  0  0  0  0  0  0  0  0  0  0  0
   -8.6769   -0.8066  -24.1811 C   0  0  0  0  0  0  0  0  0  0  0  0
   -9.0359   -1.5401  -22.8664 C   0  0  2  0  0  0  0  0  0  0  0  0
   -8.5251   -0.7563  -21.6401 C   0  0  0  0  0  0  0  0  0  0  0  0
   -9.0188    0.2301  -21.1233 O   0  0  0  0  0  0  0  0  0  0  0  0
   -7.3815   -1.3754  -21.1958 N   0  0  0  0  0  0  0  0  0  0  0  0
   -6.6022   -0.8061  -20.1681 C   0  0  0  0  0  0  0  0  0  0  0  0
   -6.9347   -1.0275  -18.8562 C   0  0  0  0  0  0  0  0  0  0  0  0
   -6.2406   -0.5376  -17.8019 N   0  0  0  0  0  0  0  0  0  0  0  0
   -5.1918    0.2052  -18.0711 C   0  0  0  0  0  0  0  0  0  0  0  0
   -4.7473    0.5213  -19.3877 C   0  0  0  0  0  0  0  0  0  0  0  0
   -3.6206    1.3493  -19.6297 C   0  0  0  0  0  0  0  0  0  0  0  0
   -3.2388    1.6494  -20.9083 C   0  0  0  0  0  0  0  0  0  0  0  0
   -3.9680    1.1472  -22.0098 C   0  0  0  0  0  0  0  0  0  0  0  0
   -5.0647    0.3447  -21.8042 C   0  0  0  0  0  0  0  0  0  0  0  0
   -5.4741    0.0064  -20.4838 C   0  0  0  0  0  0  0  0  0  0  0  0
   -5.6384   -0.0013  -22.6588 H   0  0  0  0  0  0  0  0  0  0  0  0
   -3.6707    1.4054  -23.0204 H   0  0  0  0  0  0  0  0  0  0  0  0
   -2.3767    2.2845  -21.0840 H   0  0  0  0  0  0  0  0  0  0  0  0
   -3.0872    1.7500  -18.7730 H   0  0  0  0  0  0  0  0  0  0  0  0
   -4.6317    0.6008  -17.2246 H   0  0  0  0  0  0  0  0  0  0  0  0
   -7.8044   -1.6373  -18.6249 H   0  0  0  0  0  0  0  0  0  0  0  0
   -6.9985   -2.5556  -21.9428 C   0  0  0  0  0  0  0  0  0  0  0  0
   -8.2866   -2.8891  -22.7004 C   0  0  2  0  0  0  0  0  0  0  0  0
   -8.1049   -3.7301  -23.9648 C   0  0  0  0  0  0  0  0  0  0  0  0
   -7.6642   -5.0751  -23.6839 N   0  0  0  0  0  0  0  0  0  0  0  0
   -6.3616   -5.4121  -23.4995 C   0  0  0  0  0  0  0  0  0  0  0  0
   -5.2885   -4.7168  -24.0954 C   0  0  0  0  0  0  0  0  0  0  0  0
   -4.0417   -5.2977  -23.9844 C   0  0  0  0  0  0  0  0  0  0  0  0
   -3.8069   -6.3851  -23.2448 N   0  0  0  0  0  0  0  0  0  0  0  0
   -4.8751   -6.8767  -22.6291 C   0  0  0  0  0  0  0  0  0  0  0  0
   -6.1423   -6.4882  -22.7317 N   0  0  0  0  0  0  0  0  0  0  0  0
   -4.6901   -7.6995  -21.9475 H   0  0  0  0  0  0  0  0  0  0  0  0
   -3.1830   -4.8656  -24.5129 H   0  0  0  0  0  0  0  0  0  0  0  0
   -5.4275   -3.7702  -24.6094 H   0  0  0  0  0  0  0  0  0  0  0  0
   -8.3179   -5.7315  -23.2714 H   0  0  0  0  0  0  0  0  0  0  0  0
   -7.3786   -3.2500  -24.6265 H   0  0  0  0  0  0  0  0  0  0  0  0
   -9.0468   -3.7750  -24.5201 H   0  0  0  0  0  0  0  0  0  0  0  0
   -8.8777   -3.4919  -22.0086 H   0  0  0  0  0  0  0  0  0  0  0  0
   -6.1511   -2.3661  -22.6213 H   0  0  0  0  0  0  0  0  0  0  0  0
   -6.7007   -3.3518  -21.2557 H   0  0  0  0  0  0  0  0  0  0  0  0
  -10.5345   -1.6473  -22.7756 C   0  0  0  0  0  0  0  0  0  0  0  0
  -11.0953   -2.5630  -21.8859 C   0  0  0  0  0  0  0  0  0  0  0  0
  -12.4588   -2.6099  -21.7130 C   0  0  0  0  0  0  0  0  0  0  0  0
  -13.0622   -3.6956  -20.4972 Cl  0  0  0  0  0  0  0  0  0  0  0  0
  -13.3154   -1.7797  -22.4343 C   0  0  0  0  0  0  0  0  0  0  0  0
  -12.7650   -0.8467  -23.2917 C   0  0  0  0  0  0  0  0  0  0  0  0
  -11.3804   -0.7450  -23.4294 C   0  0  0  0  0  0  0  0  0  0  0  0
  -10.8209    0.4034  -24.2157 C   0  0  0  0  0  0  0  0  0  0  0  0
  -11.5296    1.2835  -24.6854 O   0  0  0  0  0  0  0  0  0  0  0  0
  -13.3873   -0.1547  -23.8465 H   0  0  0  0  0  0  0  0  0  0  0  0
  -14.3854   -1.8505  -22.2840 H   0  0  0  0  0  0  0  0  0  0  0  0
  -10.4911   -3.2375  -21.2906 H   0  0  0  0  0  0  0  0  0  0  0  0
   -7.6127   -0.5475  -24.2032 H   0  0  0  0  0  0  0  0  0  0  0  0
   -8.8727   -1.4759  -25.0309 H   0  0  0  0  0  0  0  0  0  0  0  0
   -9.6013    2.2844  -25.1944 H   0  0  0  0  0  0  0  0  0  0  0  0
   -8.2714    1.2915  -25.8302 H   0  0  0  0  0  0  0  0  0  0  0  0
   -9.2549    2.6910  -22.5808 H   0  0  0  0  0  0  0  0  0  0  0  0
   -6.8177    2.5462  -21.4608 H   0  0  0  0  0  0  0  0  0  0  0  0
   -7.9019    3.9619  -21.1485 H   0  0  0  0  0  0  0  0  0  0  0  0
   -6.6568    4.0621  -22.3874 H   0  0  0  0  0  0  0  0  0  0  0  0
  1  2  1  0
  2  3  1  0
  3  4  2  0
  3  5  1  0
  5  6  1  0
  6  7  1  0
  8  7  1  6
  8  9  1  0
  9 10  2  0
  9 11  1  0
 11 12  1  0
 12 13  2  0
 13 14  1  0
 14 15  2  0
 15 16  1  0
 16 17  2  0
 17 18  1  0
 18 19  2  0
 19 20  1  0
 20 21  2  0
 20 22  1  0
 19 23  1  0
 18 24  1  0
 17 25  1  0
 15 26  1  0
 13 27  1  0
 11 28  1  0
 28 29  1  0
 29 30  1  0
 30 31  1  0
 31 32  1  0
 32 33  2  0
 33 34  1  0
 34 35  2  0
 35 36  1  0
 36 37  2  0
 36 38  1  0
 34 39  1  0
 33 40  1  0
 31 41  1  0
 30 42  1  0
 30 43  1  0
 29 44  1  1
 28 45  1  0
 28 46  1  0
  8 47  1  0
 47 48  2  0
 48 49  1  0
 49 50  1  0
 49 51  2  0
 51 52  1  0
 52 53  2  0
 53 54  1  0
 54 55  2  0
 52 56  1  0
 51 57  1  0
 48 58  1  0
  7 59  1  0
  7 60  1  0
  5 61  1  0
  5 62  1  0
  2 63  1  0
  1 64  1  0
  1 65  1  0
  1 66  1  0
 54  6  1  0
 29  8  1  0
 37 32  1  0
 53 47  1  0
 21 12  1  0
 21 16  1  0
M  END
>  <cnnaffinities>  (31) 
[6.54656, 6.65357, 6.0796]

>  <score>  (31) 
6.54656

>  <index>  (31) 
31

>  <Smiles>  (31) 
C(N(C(=O)C(N1C([C@@]2(C(=O)N(c3c(nc(c4c(c(c(c(c34)[H])[H])[H])[H])[H])[H])C([C@@]2(C(N(c2c(c(nc(n2)[H])[H])[H])[H])([H])[H])[H])([H])[H])c2c(c(Cl)c(c(c2C1=O)[H])[H])[H])([H])[H])([H])[H])[H])([H])([H])[H]

>  <h>  (31) 
<NA>

>  <Training>  (31) 
True

>  <Success>  (31) 
True

>  <enamine_searched>  (31) 
False

>  <enamine_id>  (31) 
nan

$$$$

     RDKit          3D

 57 62  0  0  0  0  0  0  0  0999 V2000
   -9.8869   -0.7241  -23.6064 C   0  0  0  0  0  0  0  0  0  0  0  0
   -8.5914   -1.1696  -22.9438 C   0  0  1  0  0  0  0  0  0  0  0  0
   -8.1694   -0.2783  -21.7725 C   0  0  0  0  0  0  0  0  0  0  0  0
   -7.2191   -1.1138  -21.0607 N   0  0  0  0  0  0  0  0  0  0  0  0
   -6.3936   -0.6234  -20.0228 C   0  0  0  0  0  0  0  0  0  0  0  0
   -6.7159   -0.8611  -18.7098 C   0  0  0  0  0  0  0  0  0  0  0  0
   -6.0628   -0.3194  -17.6515 N   0  0  0  0  0  0  0  0  0  0  0  0
   -5.0356    0.4566  -17.9046 C   0  0  0  0  0  0  0  0  0  0  0  0
   -4.5707    0.7564  -19.2155 C   0  0  0  0  0  0  0  0  0  0  0  0
   -3.4347    1.5835  -19.4255 C   0  0  0  0  0  0  0  0  0  0  0  0
   -3.0051    1.8602  -20.6936 C   0  0  0  0  0  0  0  0  0  0  0  0
   -3.6903    1.3183  -21.8052 C   0  0  0  0  0  0  0  0  0  0  0  0
   -4.7930    0.5133  -21.6273 C   0  0  0  0  0  0  0  0  0  0  0  0
   -5.2640    0.2111  -20.3192 C   0  0  0  0  0  0  0  0  0  0  0  0
   -5.3047    0.1013  -22.4906 H   0  0  0  0  0  0  0  0  0  0  0  0
   -3.3458    1.5454  -22.8098 H   0  0  0  0  0  0  0  0  0  0  0  0
   -2.1447    2.5072  -20.8555 H   0  0  0  0  0  0  0  0  0  0  0  0
   -2.9342    2.0025  -18.5560 H   0  0  0  0  0  0  0  0  0  0  0  0
   -4.5059    0.8859  -17.0521 H   0  0  0  0  0  0  0  0  0  0  0  0
   -7.5552   -1.5030  -18.4528 H   0  0  0  0  0  0  0  0  0  0  0  0
   -7.5077   -2.4543  -21.2127 C   0  0  0  0  0  0  0  0  0  0  0  0
   -7.0413   -3.3435  -20.5274 O   0  0  0  0  0  0  0  0  0  0  0  0
   -8.5135   -2.6252  -22.3730 C   0  0  1  0  0  0  0  0  0  0  0  0
   -9.8220   -3.1617  -21.7368 C   0  0  0  0  0  0  0  0  0  0  0  0
  -10.7499   -3.7624  -22.7013 N   0  0  0  0  0  0  0  0  0  0  0  0
  -12.1625   -3.8299  -22.3306 C   0  0  0  0  0  0  0  0  0  0  0  0
  -12.9587   -2.6202  -22.7260 C   0  0  0  0  0  0  0  0  0  0  0  0
  -12.8970   -1.4622  -22.1025 N   0  0  0  0  0  0  0  0  0  0  0  0
  -13.7859   -0.6507  -22.7168 N   0  0  0  0  0  0  0  0  0  0  0  0
  -14.3884   -1.2642  -23.6692 N   0  0  0  0  0  0  0  0  0  0  0  0
  -13.8975   -2.5219  -23.6923 N   0  0  0  0  0  0  0  0  0  0  0  0
  -14.4377   -3.4592  -24.6618 C   0  0  0  0  0  0  0  0  0  0  0  0
  -14.0501   -4.4665  -24.4800 H   0  0  0  0  0  0  0  0  0  0  0  0
  -15.5288   -3.4841  -24.5926 H   0  0  0  0  0  0  0  0  0  0  0  0
  -14.1623   -3.1205  -25.6635 H   0  0  0  0  0  0  0  0  0  0  0  0
  -12.2403   -3.9273  -21.2402 H   0  0  0  0  0  0  0  0  0  0  0  0
  -12.6057   -4.7295  -22.7631 H   0  0  0  0  0  0  0  0  0  0  0  0
  -10.2837   -4.6734  -23.6222 C   0  0  0  0  0  0  0  0  0  0  0  0
  -10.9777   -5.5283  -24.1444 O   0  0  0  0  0  0  0  0  0  0  0  0
   -8.8489   -4.5646  -23.9854 C   0  0  0  0  0  0  0  0  0  0  0  0
   -8.3967   -5.4760  -24.9352 C   0  0  0  0  0  0  0  0  0  0  0  0
   -7.0699   -5.5253  -25.2983 C   0  0  0  0  0  0  0  0  0  0  0  0
   -6.2255   -4.5796  -24.7286 C   0  0  0  0  0  0  0  0  0  0  0  0
   -4.9252   -4.6229  -25.0629 F   0  0  0  0  0  0  0  0  0  0  0  0
   -6.6675   -3.6211  -23.8306 C   0  0  0  0  0  0  0  0  0  0  0  0
   -8.0042   -3.6240  -23.4027 C   0  0  0  0  0  0  0  0  0  0  0  0
   -5.9597   -2.8840  -23.4706 H   0  0  0  0  0  0  0  0  0  0  0  0
   -6.6919   -6.2721  -25.9892 H   0  0  0  0  0  0  0  0  0  0  0  0
   -9.1366   -6.1401  -25.3647 H   0  0  0  0  0  0  0  0  0  0  0  0
  -10.3578   -2.3710  -21.1968 H   0  0  0  0  0  0  0  0  0  0  0  0
   -9.5172   -3.9100  -20.9926 H   0  0  0  0  0  0  0  0  0  0  0  0
   -9.0264   -0.0145  -21.1305 H   0  0  0  0  0  0  0  0  0  0  0  0
   -7.7068    0.6566  -22.0944 H   0  0  0  0  0  0  0  0  0  0  0  0
   -7.7934   -1.1169  -23.6956 H   0  0  0  0  0  0  0  0  0  0  0  0
  -10.7221   -0.7523  -22.9028 H   0  0  0  0  0  0  0  0  0  0  0  0
   -9.7865    0.3073  -23.9672 H   0  0  0  0  0  0  0  0  0  0  0  0
  -10.1358   -1.3561  -24.4637 H   0  0  0  0  0  0  0  0  0  0  0  0
  1  2  1  0
  2  3  1  0
  3  4  1  0
  4  5  1  0
  5  6  2  0
  6  7  1  0
  7  8  2  0
  8  9  1  0
  9 10  2  0
 10 11  1  0
 11 12  2  0
 12 13  1  0
 13 14  2  0
 13 15  1  0
 12 16  1  0
 11 17  1  0
 10 18  1  0
  8 19  1  0
  6 20  1  0
  4 21  1  0
 21 22  2  0
 21 23  1  0
 23 24  1  1
 24 25  1  0
 25 26  1  0
 26 27  1  0
 27 28  2  0
 28 29  1  0
 29 30  2  0
 30 31  1  0
 31 32  1  0
 32 33  1  0
 32 34  1  0
 32 35  1  0
 26 36  1  0
 26 37  1  0
 25 38  1  0
 38 39  2  0
 38 40  1  0
 40 41  2  0
 41 42  1  0
 42 43  2  0
 43 44  1  0
 43 45  1  0
 45 46  2  0
 45 47  1  0
 42 48  1  0
 41 49  1  0
 24 50  1  0
 24 51  1  0
  3 52  1  0
  3 53  1  0
  2 54  1  6
  1 55  1  0
  1 56  1  0
  1 57  1  0
 23  2  1  0
 31 27  1  0
 46 40  1  0
 14  5  1  0
 46 23  1  0
 14  9  1  0
M  END
>  <cnnaffinities>  (32) 
[6.81888]

>  <score>  (32) 
6.81888

>  <index>  (32) 
32

>  <Smiles>  (32) 
C([C@]1(C(N(c2c(nc(c3c(c(c(c(c23)[H])[H])[H])[H])[H])[H])C(=O)[C@]21C(N(C(c1nnnn1C([H])([H])[H])([H])[H])C(=O)c1c(c(c(F)c(c21)[H])[H])[H])([H])[H])([H])[H])[H])([H])([H])[H]

>  <h>  (32) 
<NA>

>  <Training>  (32) 
True

>  <Success>  (32) 
True

>  <enamine_searched>  (32) 
False

>  <enamine_id>  (32) 
nan

$$$$

     RDKit          3D

 66 70  0  0  0  0  0  0  0  0999 V2000
   -7.4570    3.3140  -21.9076 C   0  0  0  0  0  0  0  0  0  0  0  0
   -8.4733    2.8185  -22.8257 N   0  0  0  0  0  0  0  0  0  0  0  0
   -8.0151    2.0930  -23.8880 C   0  0  0  0  0  0  0  0  0  0  0  0
   -6.8241    1.8959  -24.0745 O   0  0  0  0  0  0  0  0  0  0  0  0
   -9.0430    1.5018  -24.8408 C   0  0  0  0  0  0  0  0  0  0  0  0
   -9.5925    0.2896  -24.2665 N   0  0  0  0  0  0  0  0  0  0  0  0
   -8.7600   -0.8997  -24.1310 C   0  0  0  0  0  0  0  0  0  0  0  0
   -9.0629   -1.6769  -22.8177 C   0  0  2  0  0  0  0  0  0  0  0  0
   -8.5553   -0.8843  -21.5926 C   0  0  0  0  0  0  0  0  0  0  0  0
   -9.0865    0.0723  -21.0604 O   0  0  0  0  0  0  0  0  0  0  0  0
   -7.3603   -1.4358  -21.1877 N   0  0  0  0  0  0  0  0  0  0  0  0
   -6.5913   -0.8337  -20.1643 C   0  0  0  0  0  0  0  0  0  0  0  0
   -6.9276   -1.0363  -18.8501 C   0  0  0  0  0  0  0  0  0  0  0  0
   -6.2377   -0.5348  -17.7972 N   0  0  0  0  0  0  0  0  0  0  0  0
   -5.1902    0.2074  -18.0715 C   0  0  0  0  0  0  0  0  0  0  0  0
   -4.7458    0.5174  -19.3892 C   0  0  0  0  0  0  0  0  0  0  0  0
   -3.6227    1.3519  -19.6298 C   0  0  0  0  0  0  0  0  0  0  0  0
   -3.2407    1.6486  -20.9090 C   0  0  0  0  0  0  0  0  0  0  0  0
   -3.9667    1.1384  -22.0069 C   0  0  0  0  0  0  0  0  0  0  0  0
   -5.0613    0.3319  -21.8038 C   0  0  0  0  0  0  0  0  0  0  0  0
   -5.4692   -0.0099  -20.4838 C   0  0  0  0  0  0  0  0  0  0  0  0
   -5.6368   -0.0095  -22.6591 H   0  0  0  0  0  0  0  0  0  0  0  0
   -3.6605    1.3914  -23.0171 H   0  0  0  0  0  0  0  0  0  0  0  0
   -2.3841    2.2918  -21.0851 H   0  0  0  0  0  0  0  0  0  0  0  0
   -3.0940    1.7578  -18.7717 H   0  0  0  0  0  0  0  0  0  0  0  0
   -4.6348    0.6128  -17.2260 H   0  0  0  0  0  0  0  0  0  0  0  0
   -7.7952   -1.6479  -18.6153 H   0  0  0  0  0  0  0  0  0  0  0  0
   -6.9353   -2.5933  -21.9524 C   0  0  0  0  0  0  0  0  0  0  0  0
   -8.2147   -2.9827  -22.7161 C   0  0  2  0  0  0  0  0  0  0  0  0
   -7.9300   -3.6805  -24.0410 C   0  0  0  0  0  0  0  0  0  0  0  0
   -7.2184   -4.8755  -23.8040 O   0  0  0  0  0  0  0  0  0  0  0  0
   -7.0451   -5.6944  -24.9557 C   0  0  0  0  0  0  0  0  0  0  0  0
   -5.6711   -6.3476  -24.8672 C   0  0  0  0  0  0  0  0  0  0  0  0
   -5.4906   -6.9638  -25.7586 H   0  0  0  0  0  0  0  0  0  0  0  0
   -4.8851   -5.5872  -24.8006 H   0  0  0  0  0  0  0  0  0  0  0  0
   -5.6202   -6.9874  -23.9777 H   0  0  0  0  0  0  0  0  0  0  0  0
   -8.1511   -6.7447  -25.0378 C   0  0  0  0  0  0  0  0  0  0  0  0
   -8.1243   -7.3873  -24.1497 H   0  0  0  0  0  0  0  0  0  0  0  0
   -9.1455   -6.2854  -25.1008 H   0  0  0  0  0  0  0  0  0  0  0  0
   -8.0060   -7.3703  -25.9279 H   0  0  0  0  0  0  0  0  0  0  0  0
   -7.0813   -5.0667  -25.8623 H   0  0  0  0  0  0  0  0  0  0  0  0
   -8.8806   -3.8850  -24.5585 H   0  0  0  0  0  0  0  0  0  0  0  0
   -7.3254   -3.0288  -24.6942 H   0  0  0  0  0  0  0  0  0  0  0  0
   -8.7557   -3.6994  -22.0923 H   0  0  0  0  0  0  0  0  0  0  0  0
   -6.1057   -2.3479  -22.6344 H   0  0  0  0  0  0  0  0  0  0  0  0
   -6.5920   -3.3923  -21.2874 H   0  0  0  0  0  0  0  0  0  0  0  0
  -10.5633   -1.8569  -22.7256 C   0  0  0  0  0  0  0  0  0  0  0  0
  -11.1122   -2.8090  -21.8625 C   0  0  0  0  0  0  0  0  0  0  0  0
  -12.4758   -2.8345  -21.6392 C   0  0  0  0  0  0  0  0  0  0  0  0
  -13.0854   -3.9263  -20.4333 Cl  0  0  0  0  0  0  0  0  0  0  0  0
  -13.3462   -1.9795  -22.3191 C   0  0  0  0  0  0  0  0  0  0  0  0
  -12.8166   -1.0713  -23.2049 C   0  0  0  0  0  0  0  0  0  0  0  0
  -11.4393   -0.9681  -23.3621 C   0  0  0  0  0  0  0  0  0  0  0  0
  -10.9470    0.2112  -24.1318 C   0  0  0  0  0  0  0  0  0  0  0  0
  -11.7110    1.0641  -24.5678 O   0  0  0  0  0  0  0  0  0  0  0  0
  -13.4466   -0.3826  -23.7579 H   0  0  0  0  0  0  0  0  0  0  0  0
  -14.4137   -1.9752  -22.1362 H   0  0  0  0  0  0  0  0  0  0  0  0
  -10.4928   -3.5199  -21.3274 H   0  0  0  0  0  0  0  0  0  0  0  0
   -8.9435   -1.5756  -24.9804 H   0  0  0  0  0  0  0  0  0  0  0  0
   -7.7071   -0.5986  -24.1617 H   0  0  0  0  0  0  0  0  0  0  0  0
   -8.5671    1.2781  -25.8017 H   0  0  0  0  0  0  0  0  0  0  0  0
   -9.8885    2.1656  -25.0316 H   0  0  0  0  0  0  0  0  0  0  0  0
   -9.3977    2.6275  -22.4485 H   0  0  0  0  0  0  0  0  0  0  0  0
   -6.7198    3.8870  -22.4803 H   0  0  0  0  0  0  0  0  0  0  0  0
   -7.9004    3.9963  -21.1733 H   0  0  0  0  0  0  0  0  0  0  0  0
   -6.9453    2.4595  -21.4293 H   0  0  0  0  0  0  0  0  0  0  0  0
  1  2  1  0
  2  3  1  0
  3  4  2  0
  3  5  1  0
  5  6  1  0
  6  7  1  0
  8  7  1  6
  8  9  1  0
  9 10  2  0
  9 11  1  0
 11 12  1  0
 12 13  2  0
 13 14  1  0
 14 15  2  0
 15 16  1  0
 16 17  2  0
 17 18  1  0
 18 19  2  0
 19 20  1  0
 20 21  2  0
 20 22  1  0
 19 23  1  0
 18 24  1  0
 17 25  1  0
 15 26  1  0
 13 27  1  0
 11 28  1  0
 28 29  1  0
 29 30  1  0
 30 31  1  0
 31 32  1  0
 32 33  1  0
 33 34  1  0
 33 35  1  0
 33 36  1  0
 32 37  1  0
 37 38  1  0
 37 39  1  0
 37 40  1  0
 32 41  1  0
 30 42  1  0
 30 43  1  0
 29 44  1  1
 28 45  1  0
 28 46  1  0
  8 47  1  0
 47 48  2  0
 48 49  1  0
 49 50  1  0
 49 51  2  0
 51 52  1  0
 52 53  2  0
 53 54  1  0
 54 55  2  0
 52 56  1  0
 51 57  1  0
 48 58  1  0
  7 59  1  0
  7 60  1  0
  5 61  1  0
  5 62  1  0
  2 63  1  0
  1 64  1  0
  1 65  1  0
  1 66  1  0
 54  6  1  0
 29  8  1  0
 53 47  1  0
 21 12  1  0
 21 16  1  0
M  END
>  <cnnaffinities>  (33) 
[6.48068]

>  <score>  (33) 
6.48068

>  <index>  (33) 
34

>  <Smiles>  (33) 
C(N(C(=O)C(N1C([C@@]2(C(=O)N(c3c(nc(c4c(c(c(c(c34)[H])[H])[H])[H])[H])[H])C([C@@]2(C(OC(C([H])([H])[H])(C([H])([H])[H])[H])([H])[H])[H])([H])[H])c2c(c(Cl)c(c(c2C1=O)[H])[H])[H])([H])[H])([H])[H])[H])([H])([H])[H]

>  <h>  (33) 
<NA>

>  <Training>  (33) 
True

>  <Success>  (33) 
True

>  <enamine_searched>  (33) 
False

>  <enamine_id>  (33) 
nan

$$$$

     RDKit          3D

 40 42  0  0  0  0  0  0  0  0999 V2000
   -9.1635   -1.8847  -22.7057 O   0  0  0  0  0  0  0  0  0  0  0  0
   -8.3035   -1.0810  -22.3701 C   0  0  0  0  0  0  0  0  0  0  0  0
   -6.9803   -1.5916  -21.7901 C   0  0  0  0  0  0  0  0  0  0  0  0
   -6.4115   -0.8351  -20.6024 C   0  0  0  0  0  0  0  0  0  0  0  0
   -7.0046   -0.9480  -19.3669 C   0  0  0  0  0  0  0  0  0  0  0  0
   -6.5223   -0.4281  -18.2086 N   0  0  0  0  0  0  0  0  0  0  0  0
   -5.4144    0.2685  -18.2872 C   0  0  0  0  0  0  0  0  0  0  0  0
   -4.7206    0.5266  -19.4998 C   0  0  0  0  0  0  0  0  0  0  0  0
   -3.5831    1.3723  -19.5477 C   0  0  0  0  0  0  0  0  0  0  0  0
   -2.9854    1.6675  -20.7422 C   0  0  0  0  0  0  0  0  0  0  0  0
   -3.4659    1.0853  -21.9348 C   0  0  0  0  0  0  0  0  0  0  0  0
   -4.5355    0.2211  -21.9042 C   0  0  0  0  0  0  0  0  0  0  0  0
   -5.2185   -0.0536  -20.6919 C   0  0  0  0  0  0  0  0  0  0  0  0
   -4.8711   -0.2306  -22.8337 H   0  0  0  0  0  0  0  0  0  0  0  0
   -2.9903    1.3318  -22.8788 H   0  0  0  0  0  0  0  0  0  0  0  0
   -2.1461    2.3552  -20.7811 H   0  0  0  0  0  0  0  0  0  0  0  0
   -3.2225    1.8015  -18.6155 H   0  0  0  0  0  0  0  0  0  0  0  0
   -5.0146    0.6782  -17.3583 H   0  0  0  0  0  0  0  0  0  0  0  0
   -7.9331   -1.5095  -19.2618 H   0  0  0  0  0  0  0  0  0  0  0  0
   -7.2081   -2.6199  -21.4895 H   0  0  0  0  0  0  0  0  0  0  0  0
   -6.2391   -1.6667  -22.5924 H   0  0  0  0  0  0  0  0  0  0  0  0
   -8.4050    0.2956  -22.4522 N   0  0  0  0  0  0  0  0  0  0  0  0
   -7.4427    1.1621  -23.2050 C   0  0  0  0  0  0  0  0  0  0  0  0
   -8.0046    2.4600  -23.7288 C   0  0  0  0  0  0  0  0  0  0  0  0
   -9.2684    2.8651  -23.6910 C   0  0  0  0  0  0  0  0  0  0  0  0
   -8.4606    5.4174  -22.8674 C   0  0  0  0  0  0  0  0  0  0  0  0
   -7.8543    4.9726  -21.7863 F   0  0  0  0  0  0  0  0  0  0  0  0
   -9.2737    6.4082  -22.5749 F   0  0  0  0  0  0  0  0  0  0  0  0
   -7.5838    5.7728  -23.7886 F   0  0  0  0  0  0  0  0  0  0  0  0
   -9.6031    1.0623  -22.0245 C   0  0  0  0  0  0  0  0  0  0  0  0
   -9.6214    0.9059  -21.8408 C   0  0  0  0  0  0  0  0  0  0  0  0
  -10.3542    0.5314  -22.8261 H   0  0  0  0  0  0  0  0  0  0  0  0
   -9.8899    0.0737  -20.5294 H   0  0  0  0  0  0  0  0  0  0  0  0
  -10.5244    1.8119  -21.7769 H   0  0  0  0  0  0  0  0  0  0  0  0
   -8.9019    1.9109  -21.5039 H   0  0  0  0  0  0  0  0  0  0  0  0
   -9.4997    3.9351  -23.6580 H   0  0  0  0  0  0  0  0  0  0  0  0
   -7.2256    3.1222  -24.1079 H   0  0  0  0  0  0  0  0  0  0  0  0
  -10.0718    2.1534  -23.7119 H   0  0  0  0  0  0  0  0  0  0  0  0
   -7.0153    0.5893  -24.0337 H   0  0  0  0  0  0  0  0  0  0  0  0
   -6.6278    1.4359  -22.5240 H   0  0  0  0  0  0  0  0  0  0  0  0
  1  2  2  0
  2  3  1  0
  3  4  1  0
  4  5  2  0
  5  6  1  0
  6  7  2  0
  7  8  1  0
  8  9  2  0
  9 10  1  0
 10 11  2  0
 11 12  1  0
 12 13  2  0
 12 14  1  0
 11 15  1  0
 10 16  1  0
  9 17  1  0
  7 18  1  0
  5 19  1  0
  3 20  1  0
  3 21  1  0
  2 22  1  0
 22 23  1  0
 23 24  1  0
 24 25  1  0
 25 26  1  0
 26 27  1  0
 26 28  1  0
 26 29  1  0
 25 30  1  0
 30 31  1  0
 31 32  1  0
 31 33  1  0
 30 34  1  0
 30 35  1  0
 25 36  1  0
 24 37  1  0
 24 38  1  0
 23 39  1  0
 23 40  1  0
 13  4  1  0
 31 22  1  0
 13  8  1  0
M  END
>  <cnnaffinities>  (34) 
[4.81889, 4.74628]

>  <score>  (34) 
4.81889

>  <index>  (34) 
35

>  <Smiles>  (34) 
O=C(C(c1c(nc(c2c(c(c(c(c12)[H])[H])[H])[H])[H])[H])([H])[H])N1C(C(C(C(F)(F)F)(C(C1([H])[H])([H])[H])[H])([H])[H])([H])[H]

>  <h>  (34) 
<NA>

>  <Training>  (34) 
True

>  <Success>  (34) 
True

>  <enamine_searched>  (34) 
False

>  <enamine_id>  (34) 
nan

$$$$

     RDKit          3D

 47 50  0  0  0  0  0  0  0  0999 V2000
   -8.6679    0.6232  -21.3323 O   0  0  0  0  0  0  0  0  0  0  0  0
   -8.4214   -0.4135  -21.9239 C   0  0  0  0  0  0  0  0  0  0  0  0
   -7.4271   -1.4240  -21.2921 C   0  0  0  0  0  0  0  0  0  0  0  0
   -6.5847   -0.8238  -20.1865 C   0  0  0  0  0  0  0  0  0  0  0  0
   -6.8820   -1.0356  -18.8643 C   0  0  0  0  0  0  0  0  0  0  0  0
   -6.1972   -0.5325  -17.7982 N   0  0  0  0  0  0  0  0  0  0  0  0
   -5.1590    0.2225  -18.0670 C   0  0  0  0  0  0  0  0  0  0  0  0
   -4.7237    0.5331  -19.3838 C   0  0  0  0  0  0  0  0  0  0  0  0
   -3.5971    1.3596  -19.6240 C   0  0  0  0  0  0  0  0  0  0  0  0
   -3.2068    1.6524  -20.9005 C   0  0  0  0  0  0  0  0  0  0  0  0
   -3.9340    1.1220  -21.9930 C   0  0  0  0  0  0  0  0  0  0  0  0
   -5.0297    0.3184  -21.7967 C   0  0  0  0  0  0  0  0  0  0  0  0
   -5.4560    0.0021  -20.4794 C   0  0  0  0  0  0  0  0  0  0  0  0
   -5.5735   -0.0719  -22.6600 H   0  0  0  0  0  0  0  0  0  0  0  0
   -3.6199    1.3648  -23.0021 H   0  0  0  0  0  0  0  0  0  0  0  0
   -2.3506    2.2970  -21.0878 H   0  0  0  0  0  0  0  0  0  0  0  0
   -3.0625    1.7735  -18.7708 H   0  0  0  0  0  0  0  0  0  0  0  0
   -4.6037    0.6262  -17.2162 H   0  0  0  0  0  0  0  0  0  0  0  0
   -7.7288   -1.6587  -18.5846 H   0  0  0  0  0  0  0  0  0  0  0  0
   -6.7839   -1.8981  -22.0433 H   0  0  0  0  0  0  0  0  0  0  0  0
   -8.0339   -2.2305  -20.8590 H   0  0  0  0  0  0  0  0  0  0  0  0
   -9.0737   -0.7318  -23.1056 N   0  0  0  0  0  0  0  0  0  0  0  0
  -10.0881    0.2412  -23.5331 C   0  0  0  0  0  0  0  0  0  0  0  0
  -11.0603   -0.3100  -24.5662 C   0  0  0  0  0  0  0  0  0  0  0  0
  -10.3393   -0.9985  -25.7108 C   0  0  0  0  0  0  0  0  0  0  0  0
   -9.5341   -2.1487  -25.1290 C   0  0  0  0  0  0  0  0  0  0  0  0
   -8.5283   -1.7183  -24.0444 C   0  0  1  0  0  0  0  0  0  0  0  0
   -7.1909   -1.3003  -24.6584 C   0  0  0  0  0  0  0  0  0  0  0  0
   -6.9718   -0.0175  -25.1569 C   0  0  0  0  0  0  0  0  0  0  0  0
   -5.7515    0.3346  -25.7261 C   0  0  0  0  0  0  0  0  0  0  0  0
   -4.7253   -0.5986  -25.8266 C   0  0  0  0  0  0  0  0  0  0  0  0
   -4.9523   -1.8948  -25.3777 C   0  0  0  0  0  0  0  0  0  0  0  0
   -6.1662   -2.2413  -24.7922 C   0  0  0  0  0  0  0  0  0  0  0  0
   -6.3091   -3.2617  -24.4400 H   0  0  0  0  0  0  0  0  0  0  0  0
   -4.1857   -2.6451  -25.5128 H   0  0  0  0  0  0  0  0  0  0  0  0
   -3.7649   -0.3235  -26.2554 H   0  0  0  0  0  0  0  0  0  0  0  0
   -5.6044    1.3444  -26.0932 H   0  0  0  0  0  0  0  0  0  0  0  0
   -7.7600    0.7252  -25.1062 H   0  0  0  0  0  0  0  0  0  0  0  0
   -8.3256   -2.6133  -23.4511 H   0  0  0  0  0  0  0  0  0  0  0  0
  -10.2264   -2.8777  -24.6984 H   0  0  0  0  0  0  0  0  0  0  0  0
   -8.9893   -2.6773  -25.9158 H   0  0  0  0  0  0  0  0  0  0  0  0
   -9.6749   -0.2953  -26.2263 H   0  0  0  0  0  0  0  0  0  0  0  0
  -11.0495   -1.3652  -26.4623 H   0  0  0  0  0  0  0  0  0  0  0  0
  -11.6934    0.5025  -24.9345 H   0  0  0  0  0  0  0  0  0  0  0  0
  -11.7326   -1.0251  -24.0854 H   0  0  0  0  0  0  0  0  0  0  0  0
  -10.6246    0.5485  -22.6358 H   0  0  0  0  0  0  0  0  0  0  0  0
   -9.6296    1.1626  -23.9211 H   0  0  0  0  0  0  0  0  0  0  0  0
  1  2  2  0
  2  3  1  0
  3  4  1  0
  4  5  2  0
  5  6  1  0
  6  7  2  0
  7  8  1  0
  8  9  2  0
  9 10  1  0
 10 11  2  0
 11 12  1  0
 12 13  2  0
 12 14  1  0
 11 15  1  0
 10 16  1  0
  9 17  1  0
  7 18  1  0
  5 19  1  0
  3 20  1  0
  3 21  1  0
  2 22  1  0
 22 23  1  0
 23 24  1  0
 24 25  1  0
 25 26  1  0
 26 27  1  0
 27 28  1  0
 28 29  2  0
 29 30  1  0
 30 31  2  0
 31 32  1  0
 32 33  2  0
 33 34  1  0
 32 35  1  0
 31 36  1  0
 30 37  1  0
 29 38  1  0
 27 39  1  1
 26 40  1  0
 26 41  1  0
 25 42  1  0
 25 43  1  0
 24 44  1  0
 24 45  1  0
 23 46  1  0
 23 47  1  0
 13  4  1  0
 27 22  1  0
 33 28  1  0
 13  8  1  0
M  END
>  <cnnaffinities>  (35) 
[5.04765, 5.04704, 5.23032, 5.23038, 5.41073, 5.40043]

>  <score>  (35) 
5.04765

>  <index>  (35) 
36

>  <Smiles>  (35) 
O=C(C(c1c(nc(c2c(c(c(c(c12)[H])[H])[H])[H])[H])[H])([H])[H])N1C(C(C(C([C@]1(c1c(c(c(c(c1[H])[H])[H])[H])[H])[H])([H])[H])([H])[H])([H])[H])([H])[H]

>  <h>  (35) 
<NA>

>  <Training>  (35) 
True

>  <Success>  (35) 
True

>  <enamine_searched>  (35) 
False

>  <enamine_id>  (35) 
nan

$$$$

     RDKit          3D

 56 60  0  0  0  0  0  0  0  0999 V2000
   -7.3117    3.4480  -21.8878 C   0  0  0  0  0  0  0  0  0  0  0  0
   -8.1417    2.9707  -22.9784 N   0  0  0  0  0  0  0  0  0  0  0  0
   -7.5697    2.2577  -23.9769 C   0  0  0  0  0  0  0  0  0  0  0  0
   -6.3563    2.1230  -24.0759 O   0  0  0  0  0  0  0  0  0  0  0  0
   -8.5204    1.6371  -25.0071 C   0  0  0  0  0  0  0  0  0  0  0  0
   -9.2672    0.5001  -24.4986 N   0  0  0  0  0  0  0  0  0  0  0  0
   -8.5693   -0.7581  -24.3035 C   0  0  0  0  0  0  0  0  0  0  0  0
   -8.9877   -1.4546  -22.9836 C   0  0  2  0  0  0  0  0  0  0  0  0
   -8.4387   -0.6657  -21.7655 C   0  0  0  0  0  0  0  0  0  0  0  0
   -8.8275    0.4051  -21.3462 O   0  0  0  0  0  0  0  0  0  0  0  0
   -7.4050   -1.3771  -21.2020 N   0  0  0  0  0  0  0  0  0  0  0  0
   -6.6038   -0.8073  -20.1734 C   0  0  0  0  0  0  0  0  0  0  0  0
   -6.9091   -1.0406  -18.8587 C   0  0  0  0  0  0  0  0  0  0  0  0
   -6.2087   -0.5449  -17.8068 N   0  0  0  0  0  0  0  0  0  0  0  0
   -5.1705    0.2108  -18.0766 C   0  0  0  0  0  0  0  0  0  0  0  0
   -4.7317    0.5309  -19.3927 C   0  0  0  0  0  0  0  0  0  0  0  0
   -3.6023    1.3610  -19.6395 C   0  0  0  0  0  0  0  0  0  0  0  0
   -3.2118    1.6462  -20.9189 C   0  0  0  0  0  0  0  0  0  0  0  0
   -3.9318    1.1153  -22.0136 C   0  0  0  0  0  0  0  0  0  0  0  0
   -5.0276    0.3130  -21.8012 C   0  0  0  0  0  0  0  0  0  0  0  0
   -5.4661    0.0041  -20.4845 C   0  0  0  0  0  0  0  0  0  0  0  0
   -5.5807   -0.0790  -22.6504 H   0  0  0  0  0  0  0  0  0  0  0  0
   -3.6378    1.3599  -23.0285 H   0  0  0  0  0  0  0  0  0  0  0  0
   -2.3586    2.2951  -21.0979 H   0  0  0  0  0  0  0  0  0  0  0  0
   -3.0753    1.7759  -18.7831 H   0  0  0  0  0  0  0  0  0  0  0  0
   -4.6190    0.6150  -17.2260 H   0  0  0  0  0  0  0  0  0  0  0  0
   -7.7606   -1.6665  -18.6027 H   0  0  0  0  0  0  0  0  0  0  0  0
   -7.0857   -2.6138  -21.8853 C   0  0  0  0  0  0  0  0  0  0  0  0
   -8.2909   -2.8519  -22.8232 C   0  0  2  0  0  0  0  0  0  0  0  0
   -7.8849   -3.5912  -24.1046 C   0  0  0  0  0  0  0  0  0  0  0  0
   -7.1138   -3.0408  -24.6566 H   0  0  0  0  0  0  0  0  0  0  0  0
   -7.4699   -4.5765  -23.8651 H   0  0  0  0  0  0  0  0  0  0  0  0
   -8.7348   -3.7453  -24.7781 H   0  0  0  0  0  0  0  0  0  0  0  0
   -9.0059   -3.4835  -22.2900 H   0  0  0  0  0  0  0  0  0  0  0  0
   -6.1480   -2.5206  -22.4558 H   0  0  0  0  0  0  0  0  0  0  0  0
   -6.9485   -3.4287  -21.1628 H   0  0  0  0  0  0  0  0  0  0  0  0
  -10.5095   -1.4605  -22.9125 C   0  0  0  0  0  0  0  0  0  0  0  0
  -11.1695   -2.3006  -22.0095 C   0  0  0  0  0  0  0  0  0  0  0  0
  -12.5506   -2.3076  -21.9152 C   0  0  0  0  0  0  0  0  0  0  0  0
  -13.3128   -1.4449  -22.7073 C   0  0  0  0  0  0  0  0  0  0  0  0
  -12.6778   -0.5544  -23.5525 C   0  0  0  0  0  0  0  0  0  0  0  0
  -11.2836   -0.5383  -23.6321 C   0  0  0  0  0  0  0  0  0  0  0  0
  -10.6364    0.5562  -24.4328 C   0  0  0  0  0  0  0  0  0  0  0  0
  -11.2902    1.4504  -24.9543 O   0  0  0  0  0  0  0  0  0  0  0  0
  -13.2232    0.1686  -24.1506 H   0  0  0  0  0  0  0  0  0  0  0  0
  -14.3959   -1.4583  -22.6351 H   0  0  0  0  0  0  0  0  0  0  0  0
  -13.0399   -2.9787  -21.2143 H   0  0  0  0  0  0  0  0  0  0  0  0
  -10.6014   -2.9488  -21.3482 H   0  0  0  0  0  0  0  0  0  0  0  0
   -8.7695   -1.4425  -25.1444 H   0  0  0  0  0  0  0  0  0  0  0  0
   -7.4982   -0.5340  -24.2754 H   0  0  0  0  0  0  0  0  0  0  0  0
   -7.8850    1.3417  -25.8509 H   0  0  0  0  0  0  0  0  0  0  0  0
   -9.2744    2.3491  -25.3520 H   0  0  0  0  0  0  0  0  0  0  0  0
   -9.1409    2.9246  -22.8525 H   0  0  0  0  0  0  0  0  0  0  0  0
   -6.7530    2.6147  -21.4335 H   0  0  0  0  0  0  0  0  0  0  0  0
   -6.5854    4.1850  -22.2475 H   0  0  0  0  0  0  0  0  0  0  0  0
   -7.9641    3.9255  -21.1545 H   0  0  0  0  0  0  0  0  0  0  0  0
  1  2  1  0
  2  3  1  0
  3  4  2  0
  3  5  1  0
  5  6  1  0
  6  7  1  0
  8  7  1  6
  8  9  1  0
  9 10  2  0
  9 11  1  0
 11 12  1  0
 12 13  2  0
 13 14  1  0
 14 15  2  0
 15 16  1  0
 16 17  2  0
 17 18  1  0
 18 19  2  0
 19 20  1  0
 20 21  2  0
 20 22  1  0
 19 23  1  0
 18 24  1  0
 17 25  1  0
 15 26  1  0
 13 27  1  0
 11 28  1  0
 28 29  1  0
 29 30  1  0
 30 31  1  0
 30 32  1  0
 30 33  1  0
 29 34  1  1
 28 35  1  0
 28 36  1  0
  8 37  1  0
 37 38  2  0
 38 39  1  0
 39 40  2  0
 40 41  1  0
 41 42  2  0
 42 43  1  0
 43 44  2  0
 41 45  1  0
 40 46  1  0
 39 47  1  0
 38 48  1  0
  7 49  1  0
  7 50  1  0
  5 51  1  0
  5 52  1  0
  2 53  1  0
  1 54  1  0
  1 55  1  0
  1 56  1  0
 43  6  1  0
 29  8  1  0
 42 37  1  0
 21 12  1  0
 21 16  1  0
M  END
>  <cnnaffinities>  (36) 
[6.03328, 5.77534, 5.74623]

>  <score>  (36) 
6.03328

>  <index>  (36) 
37

>  <Smiles>  (36) 
C(N(C(=O)C(N1C([C@@]2(C(=O)N(c3c(nc(c4c(c(c(c(c34)[H])[H])[H])[H])[H])[H])C([C@@]2(C([H])([H])[H])[H])([H])[H])c2c(c(c(c(c2C1=O)[H])[H])[H])[H])([H])[H])([H])[H])[H])([H])([H])[H]

>  <h>  (36) 
<NA>

>  <Training>  (36) 
True

>  <Success>  (36) 
True

>  <enamine_searched>  (36) 
False

>  <enamine_id>  (36) 
nan

$$$$

     RDKit          3D

 46 48  0  0  0  0  0  0  0  0999 V2000
   -8.1587   -4.6948  -26.5426 C   0  0  0  0  0  0  0  0  0  0  0  0
   -8.6545   -4.9600  -25.1189 C   0  0  1  0  0  0  0  0  0  0  0  0
   -7.5917   -5.5266  -24.1814 C   0  0  0  0  0  0  0  0  0  0  0  0
   -6.6180   -4.5212  -23.5543 C   0  0  1  0  0  0  0  0  0  0  0  0
   -5.4188   -4.1643  -24.4427 C   0  0  0  0  0  0  0  0  0  0  0  0
   -4.6267   -3.7522  -23.8169 H   0  0  0  0  0  0  0  0  0  0  0  0
   -5.6638   -3.4313  -25.2147 H   0  0  0  0  0  0  0  0  0  0  0  0
   -5.0172   -5.0574  -24.9388 H   0  0  0  0  0  0  0  0  0  0  0  0
   -7.3225   -3.3368  -23.0152 N   0  0  0  0  0  0  0  0  0  0  0  0
   -6.7236   -2.7036  -21.9372 C   0  0  0  0  0  0  0  0  0  0  0  0
   -5.6751   -3.1144  -21.4663 O   0  0  0  0  0  0  0  0  0  0  0  0
   -7.4080   -1.4706  -21.2807 C   0  0  0  0  0  0  0  0  0  0  0  0
   -6.5777   -0.8350  -20.1849 C   0  0  0  0  0  0  0  0  0  0  0  0
   -6.8731   -1.0472  -18.8636 C   0  0  0  0  0  0  0  0  0  0  0  0
   -6.1930   -0.5395  -17.7979 N   0  0  0  0  0  0  0  0  0  0  0  0
   -5.1595    0.2223  -18.0654 C   0  0  0  0  0  0  0  0  0  0  0  0
   -4.7212    0.5285  -19.3812 C   0  0  0  0  0  0  0  0  0  0  0  0
   -3.5927    1.3549  -19.6236 C   0  0  0  0  0  0  0  0  0  0  0  0
   -3.1919    1.6329  -20.9022 C   0  0  0  0  0  0  0  0  0  0  0  0
   -3.9042    1.0910  -21.9949 C   0  0  0  0  0  0  0  0  0  0  0  0
   -5.0000    0.2890  -21.7873 C   0  0  0  0  0  0  0  0  0  0  0  0
   -5.4447   -0.0143  -20.4738 C   0  0  0  0  0  0  0  0  0  0  0  0
   -5.5361   -0.1229  -22.6371 H   0  0  0  0  0  0  0  0  0  0  0  0
   -3.5812    1.3186  -23.0062 H   0  0  0  0  0  0  0  0  0  0  0  0
   -2.3314    2.2725  -21.0865 H   0  0  0  0  0  0  0  0  0  0  0  0
   -3.0597    1.7733  -18.7720 H   0  0  0  0  0  0  0  0  0  0  0  0
   -4.6036    0.6283  -17.2165 H   0  0  0  0  0  0  0  0  0  0  0  0
   -7.7211   -1.6713  -18.5868 H   0  0  0  0  0  0  0  0  0  0  0  0
   -7.6722   -0.7137  -22.0315 H   0  0  0  0  0  0  0  0  0  0  0  0
   -8.3603   -1.8077  -20.8477 H   0  0  0  0  0  0  0  0  0  0  0  0
   -8.4089   -2.7194  -23.7927 C   0  0  1  0  0  0  0  0  0  0  0  0
   -7.9394   -1.6592  -24.8005 C   0  0  0  0  0  0  0  0  0  0  0  0
   -7.4436   -2.0882  -25.6754 H   0  0  0  0  0  0  0  0  0  0  0  0
   -8.7986   -1.0847  -25.1699 H   0  0  0  0  0  0  0  0  0  0  0  0
   -7.2439   -0.9497  -24.3425 H   0  0  0  0  0  0  0  0  0  0  0  0
   -9.3281   -3.7770  -24.4236 C   0  0  0  0  0  0  0  0  0  0  0  0
   -9.9795   -4.1697  -23.6354 H   0  0  0  0  0  0  0  0  0  0  0  0
   -9.9890   -3.2698  -25.1328 H   0  0  0  0  0  0  0  0  0  0  0  0
   -9.0328   -2.1954  -23.0626 H   0  0  0  0  0  0  0  0  0  0  0  0
   -6.1943   -5.0189  -22.6801 H   0  0  0  0  0  0  0  0  0  0  0  0
   -8.0938   -6.0562  -23.3649 H   0  0  0  0  0  0  0  0  0  0  0  0
   -7.0115   -6.2885  -24.7138 H   0  0  0  0  0  0  0  0  0  0  0  0
   -9.4280   -5.7357  -25.2233 H   0  0  0  0  0  0  0  0  0  0  0  0
   -7.9241   -5.6405  -27.0465 H   0  0  0  0  0  0  0  0  0  0  0  0
   -8.9310   -4.1941  -27.1379 H   0  0  0  0  0  0  0  0  0  0  0  0
   -7.2554   -4.0808  -26.5813 H   0  0  0  0  0  0  0  0  0  0  0  0
  1  2  1  0
  2  3  1  0
  3  4  1  0
  4  5  1  0
  5  6  1  0
  5  7  1  0
  5  8  1  0
  4  9  1  0
  9 10  1  0
 10 11  2  0
 10 12  1  0
 12 13  1  0
 13 14  2  0
 14 15  1  0
 15 16  2  0
 16 17  1  0
 17 18  2  0
 18 19  1  0
 19 20  2  0
 20 21  1  0
 21 22  2  0
 21 23  1  0
 20 24  1  0
 19 25  1  0
 18 26  1  0
 16 27  1  0
 14 28  1  0
 12 29  1  0
 12 30  1  0
  9 31  1  0
 31 32  1  0
 32 33  1  0
 32 34  1  0
 32 35  1  0
 31 36  1  0
 36 37  1  0
 36 38  1  0
 31 39  1  1
  4 40  1  1
  3 41  1  0
  3 42  1  0
  2 43  1  6
  1 44  1  0
  1 45  1  0
  1 46  1  0
 36  2  1  0
 22 13  1  0
 22 17  1  0
M  END
>  <cnnaffinities>  (37) 
[5.09945]

>  <score>  (37) 
5.09945

>  <index>  (37) 
38

>  <Smiles>  (37) 
C([C@]1(C([C@@](C([H])([H])[H])(N(C(=O)C(c2c(nc(c3c(c(c(c(c23)[H])[H])[H])[H])[H])[H])([H])[H])[C@@](C([H])([H])[H])(C1([H])[H])[H])[H])([H])[H])[H])([H])([H])[H]

>  <h>  (37) 
<NA>

>  <Training>  (37) 
True

>  <Success>  (37) 
True

>  <enamine_searched>  (37) 
False

>  <enamine_id>  (37) 
nan

$$$$

     RDKit          3D

 40 44  0  0  0  0  0  0  0  0999 V2000
   -7.2371    0.9287  -25.5979 C   0  0  0  0  0  0  0  0  0  0  0  0
   -6.5088   -0.3939  -25.4031 C   0  0  0  0  0  0  0  0  0  0  0  0
   -5.2961   -0.5078  -25.5271 O   0  0  0  0  0  0  0  0  0  0  0  0
   -7.2719   -1.4761  -25.0839 N   0  0  0  0  0  0  0  0  0  0  0  0
   -6.6397   -2.7682  -24.7373 C   0  0  0  0  0  0  0  0  0  0  0  0
   -7.8119   -3.4866  -24.0458 C   0  0  2  0  0  0  0  0  0  0  0  0
   -9.0038   -2.9607  -24.8628 C   0  0  0  0  0  0  0  0  0  0  0  0
   -8.6610   -1.4876  -24.5568 C   0  0  1  0  0  0  0  0  0  0  0  0
   -8.5616   -1.5550  -23.0880 C   0  0  0  0  0  0  0  0  0  0  0  0
   -8.1609   -0.6117  -22.0867 C   0  0  0  0  0  0  0  0  0  0  0  0
   -8.3360    0.5809  -21.9963 O   0  0  0  0  0  1  0  0  0  0  0  0
   -7.4001   -1.3902  -21.1812 N   0  0  0  0  0  0  0  0  0  0  0  0
   -6.5819   -0.8249  -20.1700 C   0  0  0  0  0  0  0  0  0  0  0  0
   -6.8937   -1.0561  -18.8567 C   0  0  0  0  0  0  0  0  0  0  0  0
   -6.2040   -0.5412  -17.8094 N   0  0  0  0  0  0  0  0  0  0  0  0
   -5.1707    0.2164  -18.0814 C   0  0  0  0  0  0  0  0  0  0  0  0
   -4.7274    0.5258  -19.3984 C   0  0  0  0  0  0  0  0  0  0  0  0
   -3.5930    1.3492  -19.6337 C   0  0  0  0  0  0  0  0  0  0  0  0
   -3.1825    1.6205  -20.9091 C   0  0  0  0  0  0  0  0  0  0  0  0
   -3.8830    1.0692  -22.0081 C   0  0  0  0  0  0  0  0  0  0  0  0
   -4.9781    0.2668  -21.8066 C   0  0  0  0  0  0  0  0  0  0  0  0
   -5.4456   -0.0122  -20.4897 C   0  0  0  0  0  0  0  0  0  0  0  0
   -5.4932   -0.1522  -22.6689 H   0  0  0  0  0  0  0  0  0  0  0  0
   -3.5623    1.2925  -23.0218 H   0  0  0  0  0  0  0  0  0  0  0  0
   -2.3259    2.2666  -21.0866 H   0  0  0  0  0  0  0  0  0  0  0  0
   -3.0769    1.7678  -18.7738 H   0  0  0  0  0  0  0  0  0  0  0  0
   -4.6260    0.6208  -17.2276 H   0  0  0  0  0  0  0  0  0  0  0  0
   -7.7428   -1.6833  -18.6011 H   0  0  0  0  0  0  0  0  0  0  0  0
   -7.2540   -2.7102  -21.6301 C   0  0  0  0  0  0  0  0  0  0  0  0
   -6.5344   -3.5550  -21.1573 O   0  0  0  0  0  0  0  0  0  0  0  0
   -8.0615   -2.7882  -22.7617 N   0  0  0  0  0  0  0  0  0  0  0  0
   -9.2829   -0.6938  -24.9792 H   0  0  0  0  0  0  0  0  0  0  0  0
   -9.9657   -3.2772  -24.4623 H   0  0  0  0  0  0  0  0  0  0  0  0
   -8.9264   -3.1982  -25.9280 H   0  0  0  0  0  0  0  0  0  0  0  0
   -7.7029   -4.5544  -23.9041 H   0  0  0  0  0  0  0  0  0  0  0  0
   -5.7903   -2.6314  -24.0590 H   0  0  0  0  0  0  0  0  0  0  0  0
   -6.2965   -3.2696  -25.6441 H   0  0  0  0  0  0  0  0  0  0  0  0
   -6.4874    1.6599  -25.9038 H   0  0  0  0  0  0  0  0  0  0  0  0
   -7.7243    1.2564  -24.6714 H   0  0  0  0  0  0  0  0  0  0  0  0
   -8.0171    0.8638  -26.3666 H   0  0  0  0  0  0  0  0  0  0  0  0
  1  2  1  0
  2  3  2  0
  2  4  1  0
  4  5  1  0
  5  6  1  0
  6  7  1  0
  7  8  1  0
  8  9  1  0
  9 10  2  0
 10 11  1  0
 10 12  1  0
 12 13  1  0
 13 14  2  0
 14 15  1  0
 15 16  2  0
 16 17  1  0
 17 18  2  0
 18 19  1  0
 19 20  2  0
 20 21  1  0
 21 22  2  0
 21 23  1  0
 20 24  1  0
 19 25  1  0
 18 26  1  0
 16 27  1  0
 14 28  1  0
 12 29  1  0
 29 30  2  0
 29 31  1  0
  8 32  1  1
  7 33  1  0
  7 34  1  0
  6 35  1  1
  5 36  1  0
  5 37  1  0
  1 38  1  0
  1 39  1  0
  1 40  1  0
  8  4  1  0
 31  9  1  0
 31  6  1  0
 22 13  1  0
 22 17  1  0
M  CHG  1  11  -1
M  END
>  <cnnaffinities>  (38) 
[5.38627]

>  <score>  (38) 
5.38627

>  <index>  (38) 
39

>  <Smiles>  (38) 
C(C(=O)N1C([C@@]2(C([C@]1(c1c([O-])n(c3c(nc(c4c(c(c(c(c34)[H])[H])[H])[H])[H])[H])c(=O)n21)[H])([H])[H])[H])([H])[H])([H])([H])[H]

>  <h>  (38) 
<NA>

>  <Training>  (38) 
True

>  <Success>  (38) 
True

>  <enamine_searched>  (38) 
False

>  <enamine_id>  (38) 
nan

$$$$

     RDKit          3D

 40 42  0  0  0  0  0  0  0  0999 V2000
   -9.2963   -6.6217  -25.1370 C   0  0  0  0  0  0  0  0  0  0  0  0
   -8.9663   -5.7828  -23.9043 C   0  0  0  0  0  0  0  0  0  0  0  0
   -7.5200   -5.9541  -23.4564 C   0  0  0  0  0  0  0  0  0  0  0  0
   -7.2965   -5.1125  -22.2106 C   0  0  0  0  0  0  0  0  0  0  0  0
   -7.5870   -3.7028  -22.4178 N   0  0  0  0  0  0  0  0  0  0  0  0
   -6.7724   -2.7865  -21.7884 C   0  0  0  0  0  0  0  0  0  0  0  0
   -5.5808   -3.0043  -21.6271 O   0  0  0  0  0  0  0  0  0  0  0  0
   -7.4089   -1.4830  -21.2638 C   0  0  0  0  0  0  0  0  0  0  0  0
   -6.5820   -0.8285  -20.1808 C   0  0  0  0  0  0  0  0  0  0  0  0
   -6.8809   -1.0452  -18.8604 C   0  0  0  0  0  0  0  0  0  0  0  0
   -6.1976   -0.5373  -17.7983 N   0  0  0  0  0  0  0  0  0  0  0  0
   -5.1624    0.2185  -18.0702 C   0  0  0  0  0  0  0  0  0  0  0  0
   -4.7214    0.5246  -19.3843 C   0  0  0  0  0  0  0  0  0  0  0  0
   -3.5944    1.3504  -19.6224 C   0  0  0  0  0  0  0  0  0  0  0  0
   -3.1917    1.6259  -20.9007 C   0  0  0  0  0  0  0  0  0  0  0  0
   -3.9012    1.0820  -21.9946 C   0  0  0  0  0  0  0  0  0  0  0  0
   -4.9951    0.2789  -21.7905 C   0  0  0  0  0  0  0  0  0  0  0  0
   -5.4440   -0.0176  -20.4758 C   0  0  0  0  0  0  0  0  0  0  0  0
   -5.5251   -0.1480  -22.6366 H   0  0  0  0  0  0  0  0  0  0  0  0
   -3.5790    1.3140  -23.0064 H   0  0  0  0  0  0  0  0  0  0  0  0
   -2.3346    2.2694  -21.0767 H   0  0  0  0  0  0  0  0  0  0  0  0
   -3.0770    1.7686  -18.7617 H   0  0  0  0  0  0  0  0  0  0  0  0
   -4.6137    0.6280  -17.2185 H   0  0  0  0  0  0  0  0  0  0  0  0
   -7.7290   -1.6702  -18.5821 H   0  0  0  0  0  0  0  0  0  0  0  0
   -7.5643   -0.8000  -22.1100 H   0  0  0  0  0  0  0  0  0  0  0  0
   -8.4075   -1.7097  -20.8641 H   0  0  0  0  0  0  0  0  0  0  0  0
   -8.9624   -3.4745  -22.8242 C   0  0  0  0  0  0  0  0  0  0  0  0
   -9.2666   -4.2942  -24.0853 C   0  0  0  0  0  0  0  0  0  0  0  0
  -10.3268   -4.1673  -24.3274 H   0  0  0  0  0  0  0  0  0  0  0  0
   -8.6623   -3.9117  -24.9203 H   0  0  0  0  0  0  0  0  0  0  0  0
   -9.1007   -2.4077  -23.0173 H   0  0  0  0  0  0  0  0  0  0  0  0
   -9.6714   -3.7722  -22.0225 H   0  0  0  0  0  0  0  0  0  0  0  0
   -8.0044   -5.4755  -21.4429 H   0  0  0  0  0  0  0  0  0  0  0  0
   -6.2740   -5.1746  -21.8449 H   0  0  0  0  0  0  0  0  0  0  0  0
   -6.8268   -5.6906  -24.2712 H   0  0  0  0  0  0  0  0  0  0  0  0
   -7.3455   -7.0063  -23.1940 H   0  0  0  0  0  0  0  0  0  0  0  0
   -9.5806   -6.1164  -23.0675 H   0  0  0  0  0  0  0  0  0  0  0  0
   -9.1165   -7.6873  -24.9529 H   0  0  0  0  0  0  0  0  0  0  0  0
  -10.3450   -6.5056  -25.4308 H   0  0  0  0  0  0  0  0  0  0  0  0
   -8.6698   -6.3200  -25.9851 H   0  0  0  0  0  0  0  0  0  0  0  0
  1  2  1  0
  2  3  1  0
  3  4  1  0
  4  5  1  0
  5  6  1  0
  6  7  2  0
  6  8  1  0
  8  9  1  0
  9 10  2  0
 10 11  1  0
 11 12  2  0
 12 13  1  0
 13 14  2  0
 14 15  1  0
 15 16  2  0
 16 17  1  0
 17 18  2  0
 17 19  1  0
 16 20  1  0
 15 21  1  0
 14 22  1  0
 12 23  1  0
 10 24  1  0
  8 25  1  0
  8 26  1  0
  5 27  1  0
 27 28  1  0
 28 29  1  0
 28 30  1  0
 27 31  1  0
 27 32  1  0
  4 33  1  0
  4 34  1  0
  3 35  1  0
  3 36  1  0
  2 37  1  0
  1 38  1  0
  1 39  1  0
  1 40  1  0
 28  2  1  0
 18  9  1  0
 18 13  1  0
M  END
>  <cnnaffinities>  (39) 
[4.25032, 4.25014, 4.65868]

>  <score>  (39) 
4.25032

>  <index>  (39) 
40

>  <Smiles>  (39) 
C(C1(C(C(N(C(=O)C(c2c(nc(c3c(c(c(c(c23)[H])[H])[H])[H])[H])[H])([H])[H])C(C1([H])[H])([H])[H])([H])[H])([H])[H])[H])([H])([H])[H]

>  <h>  (39) 
<NA>

>  <Training>  (39) 
True

>  <Success>  (39) 
True

>  <enamine_searched>  (39) 
False

>  <enamine_id>  (39) 
nan

$$$$

     RDKit          3D

 67 71  0  0  0  0  0  0  0  0999 V2000
   -7.3702    3.4546  -21.8933 C   0  0  0  0  0  0  0  0  0  0  0  0
   -8.3358    2.9549  -22.8580 N   0  0  0  0  0  0  0  0  0  0  0  0
   -7.8577    2.2251  -23.9016 C   0  0  0  0  0  0  0  0  0  0  0  0
   -6.6627    2.0154  -24.0465 O   0  0  0  0  0  0  0  0  0  0  0  0
   -8.8812    1.6465  -24.8776 C   0  0  0  0  0  0  0  0  0  0  0  0
   -9.5094    0.4785  -24.2907 N   0  0  0  0  0  0  0  0  0  0  0  0
   -8.7222   -0.7423  -24.1641 C   0  0  0  0  0  0  0  0  0  0  0  0
   -9.0656   -1.5055  -22.8637 C   0  0  2  0  0  0  0  0  0  0  0  0
   -8.5316   -0.7495  -21.6309 C   0  0  0  0  0  0  0  0  0  0  0  0
   -9.0013    0.2395  -21.1012 O   0  0  0  0  0  0  0  0  0  0  0  0
   -7.3937   -1.3874  -21.1943 N   0  0  0  0  0  0  0  0  0  0  0  0
   -6.6027   -0.8197  -20.1701 C   0  0  0  0  0  0  0  0  0  0  0  0
   -6.9358   -1.0366  -18.8587 C   0  0  0  0  0  0  0  0  0  0  0  0
   -6.2413   -0.5440  -17.8052 N   0  0  0  0  0  0  0  0  0  0  0  0
   -5.1946    0.1994  -18.0768 C   0  0  0  0  0  0  0  0  0  0  0  0
   -4.7533    0.5172  -19.3920 C   0  0  0  0  0  0  0  0  0  0  0  0
   -3.6297    1.3501  -19.6329 C   0  0  0  0  0  0  0  0  0  0  0  0
   -3.2489    1.6536  -20.9106 C   0  0  0  0  0  0  0  0  0  0  0  0
   -3.9803    1.1509  -22.0120 C   0  0  0  0  0  0  0  0  0  0  0  0
   -5.0748    0.3463  -21.8081 C   0  0  0  0  0  0  0  0  0  0  0  0
   -5.4803    0.0015  -20.4884 C   0  0  0  0  0  0  0  0  0  0  0  0
   -5.6478   -0.0028  -22.6626 H   0  0  0  0  0  0  0  0  0  0  0  0
   -3.6821    1.4124  -23.0227 H   0  0  0  0  0  0  0  0  0  0  0  0
   -2.3863    2.2922  -21.0868 H   0  0  0  0  0  0  0  0  0  0  0  0
   -3.0958    1.7492  -18.7753 H   0  0  0  0  0  0  0  0  0  0  0  0
   -4.6372    0.5972  -17.2297 H   0  0  0  0  0  0  0  0  0  0  0  0
   -7.8075   -1.6458  -18.6256 H   0  0  0  0  0  0  0  0  0  0  0  0
   -7.0159   -2.5524  -21.9641 C   0  0  0  0  0  0  0  0  0  0  0  0
   -8.2965   -2.8555  -22.7616 C   0  0  2  0  0  0  0  0  0  0  0  0
   -8.0455   -3.5841  -24.0866 C   0  0  0  0  0  0  0  0  0  0  0  0
   -7.2670   -5.1571  -23.7591 S   0  0  0  0  0  0  0  0  0  0  0  0
   -8.1344   -5.9275  -22.8849 O   0  0  0  0  0  0  0  0  0  0  0  0
   -5.8869   -4.9102  -23.3459 O   0  0  0  0  0  0  0  0  0  0  0  0
   -7.2904   -5.8979  -25.2767 N   0  0  0  0  0  0  0  0  0  0  0  0
   -6.4843   -5.2731  -26.3246 C   0  0  0  0  0  0  0  0  0  0  0  0
   -5.4306   -5.1454  -26.0374 H   0  0  0  0  0  0  0  0  0  0  0  0
   -6.5332   -5.9261  -27.2029 H   0  0  0  0  0  0  0  0  0  0  0  0
   -6.9155   -4.3147  -26.6301 H   0  0  0  0  0  0  0  0  0  0  0  0
   -6.9765   -7.3210  -25.1355 C   0  0  0  0  0  0  0  0  0  0  0  0
   -5.9416   -7.4861  -24.7984 H   0  0  0  0  0  0  0  0  0  0  0  0
   -7.6706   -7.7681  -24.4215 H   0  0  0  0  0  0  0  0  0  0  0  0
   -7.1154   -7.8068  -26.1064 H   0  0  0  0  0  0  0  0  0  0  0  0
   -7.3699   -3.0081  -24.7309 H   0  0  0  0  0  0  0  0  0  0  0  0
   -8.9867   -3.7832  -24.6121 H   0  0  0  0  0  0  0  0  0  0  0  0
   -8.8923   -3.5374  -22.1508 H   0  0  0  0  0  0  0  0  0  0  0  0
   -6.1600   -2.3457  -22.6228 H   0  0  0  0  0  0  0  0  0  0  0  0
   -6.7379   -3.3867  -21.3141 H   0  0  0  0  0  0  0  0  0  0  0  0
  -10.5689   -1.6183  -22.7613 C   0  0  0  0  0  0  0  0  0  0  0  0
  -11.1369   -2.5540  -21.8946 C   0  0  0  0  0  0  0  0  0  0  0  0
  -12.5023   -2.5817  -21.7204 C   0  0  0  0  0  0  0  0  0  0  0  0
  -12.9926   -3.4495  -20.8192 F   0  0  0  0  0  0  0  0  0  0  0  0
  -13.3617   -1.7307  -22.4095 C   0  0  0  0  0  0  0  0  0  0  0  0
  -12.8030   -0.7860  -23.2462 C   0  0  0  0  0  0  0  0  0  0  0  0
  -11.4189   -0.6976  -23.3874 C   0  0  0  0  0  0  0  0  0  0  0  0
  -10.8728    0.4670  -24.1550 C   0  0  0  0  0  0  0  0  0  0  0  0
  -11.5930    1.3462  -24.5993 O   0  0  0  0  0  0  0  0  0  0  0  0
  -13.4182   -0.0741  -23.7851 H   0  0  0  0  0  0  0  0  0  0  0  0
  -14.4315   -1.8043  -22.2538 H   0  0  0  0  0  0  0  0  0  0  0  0
  -10.5408   -3.2579  -21.3240 H   0  0  0  0  0  0  0  0  0  0  0  0
   -7.6595   -0.4749  -24.1749 H   0  0  0  0  0  0  0  0  0  0  0  0
   -8.9231   -1.3956  -25.0259 H   0  0  0  0  0  0  0  0  0  0  0  0
   -9.6769    2.3551  -25.1178 H   0  0  0  0  0  0  0  0  0  0  0  0
   -8.3690    1.3796  -25.8101 H   0  0  0  0  0  0  0  0  0  0  0  0
   -9.2739    2.7665  -22.5321 H   0  0  0  0  0  0  0  0  0  0  0  0
   -7.8804    4.0569  -21.1406 H   0  0  0  0  0  0  0  0  0  0  0  0
   -6.6509    4.1066  -22.3936 H   0  0  0  0  0  0  0  0  0  0  0  0
   -6.8260    2.6123  -21.4450 H   0  0  0  0  0  0  0  0  0  0  0  0
  1  2  1  0
  2  3  1  0
  3  4  2  0
  3  5  1  0
  5  6  1  0
  6  7  1  0
  8  7  1  6
  8  9  1  0
  9 10  2  0
  9 11  1  0
 11 12  1  0
 12 13  2  0
 13 14  1  0
 14 15  2  0
 15 16  1  0
 16 17  2  0
 17 18  1  0
 18 19  2  0
 19 20  1  0
 20 21  2  0
 20 22  1  0
 19 23  1  0
 18 24  1  0
 17 25  1  0
 15 26  1  0
 13 27  1  0
 11 28  1  0
 28 29  1  0
 29 30  1  0
 30 31  1  0
 31 32  2  0
 31 33  2  0
 31 34  1  0
 34 35  1  0
 35 36  1  0
 35 37  1  0
 35 38  1  0
 34 39  1  0
 39 40  1  0
 39 41  1  0
 39 42  1  0
 30 43  1  0
 30 44  1  0
 29 45  1  1
 28 46  1  0
 28 47  1  0
  8 48  1  0
 48 49  2  0
 49 50  1  0
 50 51  1  0
 50 52  2  0
 52 53  1  0
 53 54  2  0
 54 55  1  0
 55 56  2  0
 53 57  1  0
 52 58  1  0
 49 59  1  0
  7 60  1  0
  7 61  1  0
  5 62  1  0
  5 63  1  0
  2 64  1  0
  1 65  1  0
  1 66  1  0
  1 67  1  0
 55  6  1  0
 29  8  1  0
 54 48  1  0
 21 12  1  0
 21 16  1  0
M  END
>  <cnnaffinities>  (40) 
[6.08598]

>  <score>  (40) 
6.08598

>  <index>  (40) 
41

>  <Smiles>  (40) 
C(N(C(=O)C(N1C([C@@]2(C(=O)N(c3c(nc(c4c(c(c(c(c34)[H])[H])[H])[H])[H])[H])C([C@@]2(C(S(=O)(=O)N(C([H])([H])[H])C([H])([H])[H])([H])[H])[H])([H])[H])c2c(c(F)c(c(c2C1=O)[H])[H])[H])([H])[H])([H])[H])[H])([H])([H])[H]

>  <h>  (40) 
<NA>

>  <Training>  (40) 
True

>  <Success>  (40) 
True

>  <enamine_searched>  (40) 
False

>  <enamine_id>  (40) 
nan

$$$$

     RDKit          3D

 67 72  0  0  0  0  0  0  0  0999 V2000
  -14.4913   -0.3610  -22.8076 C   0  0  0  0  0  0  0  0  0  0  0  0
  -13.8332   -1.4673  -22.1240 N   0  0  0  0  0  0  0  0  0  0  0  0
  -12.9584   -2.2507  -22.8255 C   0  0  0  0  0  0  0  0  0  0  0  0
  -12.7301   -2.0737  -24.0118 O   0  0  0  0  0  0  0  0  0  0  0  0
  -12.2515   -3.3605  -22.0532 C   0  0  0  0  0  0  0  0  0  0  0  0
  -10.8536   -3.4997  -22.4401 N   0  0  0  0  0  0  0  0  0  0  0  0
   -9.8155   -2.9957  -21.5555 C   0  0  0  0  0  0  0  0  0  0  0  0
   -8.5404   -2.5597  -22.3315 C   0  0  2  0  0  0  0  0  0  0  0  0
   -7.4402   -2.3865  -21.2883 C   0  0  0  0  0  0  0  0  0  0  0  0
   -6.8356   -3.2757  -20.7145 O   0  0  0  0  0  0  0  0  0  0  0  0
   -7.2438   -1.0437  -21.0690 N   0  0  0  0  0  0  0  0  0  0  0  0
   -6.4131   -0.5917  -20.0194 C   0  0  0  0  0  0  0  0  0  0  0  0
   -6.6888   -0.8848  -18.7071 C   0  0  0  0  0  0  0  0  0  0  0  0
   -6.0149   -0.3566  -17.6520 N   0  0  0  0  0  0  0  0  0  0  0  0
   -5.0103    0.4457  -17.9152 C   0  0  0  0  0  0  0  0  0  0  0  0
   -4.5658    0.7561  -19.2305 C   0  0  0  0  0  0  0  0  0  0  0  0
   -3.4348    1.5786  -19.4651 C   0  0  0  0  0  0  0  0  0  0  0  0
   -3.0086    1.8176  -20.7425 C   0  0  0  0  0  0  0  0  0  0  0  0
   -3.6949    1.2524  -21.8413 C   0  0  0  0  0  0  0  0  0  0  0  0
   -4.8073    0.4739  -21.6371 C   0  0  0  0  0  0  0  0  0  0  0  0
   -5.2743    0.2160  -20.3222 C   0  0  0  0  0  0  0  0  0  0  0  0
   -5.3370    0.0415  -22.4771 H   0  0  0  0  0  0  0  0  0  0  0  0
   -3.3493    1.4455  -22.8526 H   0  0  0  0  0  0  0  0  0  0  0  0
   -2.1421    2.4470  -20.9226 H   0  0  0  0  0  0  0  0  0  0  0  0
   -2.9321    2.0166  -18.6067 H   0  0  0  0  0  0  0  0  0  0  0  0
   -4.4739    0.8768  -17.0682 H   0  0  0  0  0  0  0  0  0  0  0  0
   -7.5028   -1.5600  -18.4515 H   0  0  0  0  0  0  0  0  0  0  0  0
   -8.1382   -0.1879  -21.8371 C   0  0  0  0  0  0  0  0  0  0  0  0
   -8.6513   -1.1273  -22.9419 C   0  0  2  0  0  0  0  0  0  0  0  0
  -10.0401   -0.7362  -23.4548 C   0  0  0  0  0  0  0  0  0  0  0  0
   -9.9846    0.4817  -24.2161 N   0  0  0  0  0  0  0  0  0  0  0  0
  -10.5461    1.6584  -23.8014 C   0  0  0  0  0  0  0  0  0  0  0  0
  -11.2740    1.8881  -22.2407 S   0  0  0  0  0  0  0  0  0  0  0  0
  -11.6625    3.5149  -22.7257 C   0  0  0  0  0  0  0  0  0  0  0  0
  -11.2545    3.8557  -23.9031 N   0  0  0  0  0  0  0  0  0  0  0  0
  -10.5944    2.8138  -24.5186 C   0  0  0  0  0  0  0  0  0  0  0  0
   -9.9104    2.9631  -25.8414 C   0  0  0  0  0  0  0  0  0  0  0  0
  -10.3015    2.2584  -26.5867 H   0  0  0  0  0  0  0  0  0  0  0  0
   -8.8371    2.7547  -25.7314 H   0  0  0  0  0  0  0  0  0  0  0  0
  -10.0364    3.9772  -26.2243 H   0  0  0  0  0  0  0  0  0  0  0  0
  -12.2058    4.1641  -22.0484 H   0  0  0  0  0  0  0  0  0  0  0  0
   -9.8793    0.3836  -25.2153 H   0  0  0  0  0  0  0  0  0  0  0  0
  -10.7331   -0.5915  -22.6154 H   0  0  0  0  0  0  0  0  0  0  0  0
  -10.4415   -1.5189  -24.1026 H   0  0  0  0  0  0  0  0  0  0  0  0
   -7.9589   -1.0874  -23.7986 H   0  0  0  0  0  0  0  0  0  0  0  0
   -8.9588    0.1928  -21.2073 H   0  0  0  0  0  0  0  0  0  0  0  0
   -7.6063    0.6793  -22.2384 H   0  0  0  0  0  0  0  0  0  0  0  0
   -8.1617   -3.6184  -23.3436 C   0  0  0  0  0  0  0  0  0  0  0  0
   -6.8572   -3.7149  -23.8556 C   0  0  0  0  0  0  0  0  0  0  0  0
   -6.5260   -4.7049  -24.7662 C   0  0  0  0  0  0  0  0  0  0  0  0
   -4.9045   -4.8059  -25.3925 Cl  0  0  0  0  0  0  0  0  0  0  0  0
   -7.4705   -5.6288  -25.2106 C   0  0  0  0  0  0  0  0  0  0  0  0
   -8.7533   -5.5319  -24.7122 C   0  0  0  0  0  0  0  0  0  0  0  0
   -9.0968   -4.5437  -23.7887 C   0  0  0  0  0  0  0  0  0  0  0  0
  -10.5074   -4.5096  -23.3076 C   0  0  0  0  0  0  0  0  0  0  0  0
  -11.2869   -5.3467  -23.7064 O   0  0  0  0  0  0  0  0  0  0  0  0
   -9.5213   -6.2323  -25.0173 H   0  0  0  0  0  0  0  0  0  0  0  0
   -7.2043   -6.4072  -25.9208 H   0  0  0  0  0  0  0  0  0  0  0  0
   -6.0784   -3.0365  -23.5325 H   0  0  0  0  0  0  0  0  0  0  0  0
  -10.2169   -2.1444  -20.9968 H   0  0  0  0  0  0  0  0  0  0  0  0
   -9.5403   -3.7626  -20.8160 H   0  0  0  0  0  0  0  0  0  0  0  0
  -12.3355   -3.2082  -20.9727 H   0  0  0  0  0  0  0  0  0  0  0  0
  -12.7585   -4.2942  -22.3066 H   0  0  0  0  0  0  0  0  0  0  0  0
  -14.2243   -1.8344  -21.2629 H   0  0  0  0  0  0  0  0  0  0  0  0
  -15.5659   -0.5255  -22.9378 H   0  0  0  0  0  0  0  0  0  0  0  0
  -14.3394    0.5955  -22.2956 H   0  0  0  0  0  0  0  0  0  0  0  0
  -14.0275   -0.2979  -23.7948 H   0  0  0  0  0  0  0  0  0  0  0  0
  1  2  1  0
  2  3  1  0
  3  4  2  0
  3  5  1  0
  5  6  1  0
  6  7  1  0
  8  7  1  1
  8  9  1  0
  9 10  2  0
  9 11  1  0
 11 12  1  0
 12 13  2  0
 13 14  1  0
 14 15  2  0
 15 16  1  0
 16 17  2  0
 17 18  1  0
 18 19  2  0
 19 20  1  0
 20 21  2  0
 20 22  1  0
 19 23  1  0
 18 24  1  0
 17 25  1  0
 15 26  1  0
 13 27  1  0
 11 28  1  0
 28 29  1  0
 29 30  1  0
 30 31  1  0
 31 32  1  0
 32 33  1  0
 33 34  1  0
 34 35  2  0
 35 36  1  0
 36 37  1  0
 37 38  1  0
 37 39  1  0
 37 40  1  0
 34 41  1  0
 31 42  1  0
 30 43  1  0
 30 44  1  0
 29 45  1  6
 28 46  1  0
 28 47  1  0
  8 48  1  0
 48 49  2  0
 49 50  1  0
 50 51  1  0
 50 52  2  0
 52 53  1  0
 53 54  2  0
 54 55  1  0
 55 56  2  0
 53 57  1  0
 52 58  1  0
 49 59  1  0
  7 60  1  0
  7 61  1  0
  5 62  1  0
  5 63  1  0
  2 64  1  0
  1 65  1  0
  1 66  1  0
  1 67  1  0
 55  6  1  0
 29  8  1  0
 36 32  2  0
 54 48  1  0
 21 12  1  0
 21 16  1  0
M  END
>  <cnnaffinities>  (41) 
[7.12448, 6.40725]

>  <score>  (41) 
7.12448

>  <index>  (41) 
43

>  <Smiles>  (41) 
C(N(C(=O)C(N1C([C@@]2(C(=O)N(c3c(nc(c4c(c(c(c(c34)[H])[H])[H])[H])[H])[H])C([C@@]2(C(N(c2sc(nc2C([H])([H])[H])[H])[H])([H])[H])[H])([H])[H])c2c(c(Cl)c(c(c2C1=O)[H])[H])[H])([H])[H])([H])[H])[H])([H])([H])[H]

>  <h>  (41) 
<NA>

>  <Training>  (41) 
True

>  <Success>  (41) 
True

>  <enamine_searched>  (41) 
False

>  <enamine_id>  (41) 
nan

$$$$

     RDKit          3D

 60 64  0  0  0  0  0  0  0  0999 V2000
  -14.5262   -1.9143  -24.3318 C   0  0  0  0  0  0  0  0  0  0  0  0
  -13.4499   -2.7434  -23.8157 N   0  0  0  0  0  0  0  0  0  0  0  0
  -12.9649   -2.4558  -22.5773 C   0  0  0  0  0  0  0  0  0  0  0  0
  -13.1625   -1.3747  -22.0397 O   0  0  0  0  0  0  0  0  0  0  0  0
  -12.1303   -3.5455  -21.9094 C   0  0  0  0  0  0  0  0  0  0  0  0
  -10.7451   -3.6049  -22.3620 N   0  0  0  0  0  0  0  0  0  0  0  0
   -9.6756   -3.1178  -21.4972 C   0  0  0  0  0  0  0  0  0  0  0  0
   -8.4328   -2.6811  -22.3208 C   0  0  2  0  0  0  0  0  0  0  0  0
   -7.3155   -2.4497  -21.3106 C   0  0  0  0  0  0  0  0  0  0  0  0
   -6.6334   -3.3024  -20.7746 O   0  0  0  0  0  0  0  0  0  0  0  0
   -7.2223   -1.0983  -21.0677 N   0  0  0  0  0  0  0  0  0  0  0  0
   -6.4078   -0.6091  -20.0196 C   0  0  0  0  0  0  0  0  0  0  0  0
   -6.6899   -0.9004  -18.7089 C   0  0  0  0  0  0  0  0  0  0  0  0
   -6.0230   -0.3590  -17.6562 N   0  0  0  0  0  0  0  0  0  0  0  0
   -5.0202    0.4467  -17.9176 C   0  0  0  0  0  0  0  0  0  0  0  0
   -4.5718    0.7590  -19.2339 C   0  0  0  0  0  0  0  0  0  0  0  0
   -3.4413    1.5775  -19.4820 C   0  0  0  0  0  0  0  0  0  0  0  0
   -3.0242    1.8128  -20.7621 C   0  0  0  0  0  0  0  0  0  0  0  0
   -3.7175    1.2462  -21.8532 C   0  0  0  0  0  0  0  0  0  0  0  0
   -4.8244    0.4648  -21.6432 C   0  0  0  0  0  0  0  0  0  0  0  0
   -5.2765    0.2090  -20.3237 C   0  0  0  0  0  0  0  0  0  0  0  0
   -5.3600    0.0208  -22.4754 H   0  0  0  0  0  0  0  0  0  0  0  0
   -3.3794    1.4342  -22.8654 H   0  0  0  0  0  0  0  0  0  0  0  0
   -2.1562    2.4367  -20.9506 H   0  0  0  0  0  0  0  0  0  0  0  0
   -2.9269    2.0158  -18.6341 H   0  0  0  0  0  0  0  0  0  0  0  0
   -4.4938    0.8843  -17.0667 H   0  0  0  0  0  0  0  0  0  0  0  0
   -7.4984   -1.5832  -18.4468 H   0  0  0  0  0  0  0  0  0  0  0  0
   -8.1784   -0.3033  -21.8345 C   0  0  0  0  0  0  0  0  0  0  0  0
   -8.6040   -1.2621  -22.9610 C   0  0  2  0  0  0  0  0  0  0  0  0
  -10.0078   -1.0343  -23.5055 C   0  0  0  0  0  0  0  0  0  0  0  0
  -10.1290    0.2020  -24.1652 O   0  0  0  0  0  0  0  0  0  0  0  0
  -11.4978    0.4406  -24.4056 C   0  0  0  0  0  0  0  0  0  0  0  0
  -12.0552    0.4269  -23.4586 H   0  0  0  0  0  0  0  0  0  0  0  0
  -11.9346   -0.3292  -25.0622 H   0  0  0  0  0  0  0  0  0  0  0  0
  -11.6012    1.4148  -24.8855 H   0  0  0  0  0  0  0  0  0  0  0  0
  -10.2479   -1.8502  -24.2051 H   0  0  0  0  0  0  0  0  0  0  0  0
  -10.7347   -1.0837  -22.6832 H   0  0  0  0  0  0  0  0  0  0  0  0
   -7.9009   -1.1690  -23.8030 H   0  0  0  0  0  0  0  0  0  0  0  0
   -9.0350    0.0006  -21.2132 H   0  0  0  0  0  0  0  0  0  0  0  0
   -7.7228    0.6086  -22.2207 H   0  0  0  0  0  0  0  0  0  0  0  0
   -8.0862   -3.7604  -23.3195 C   0  0  0  0  0  0  0  0  0  0  0  0
   -6.7952   -3.8670  -23.8585 C   0  0  0  0  0  0  0  0  0  0  0  0
   -6.5196   -4.8134  -24.8321 C   0  0  0  0  0  0  0  0  0  0  0  0
   -4.9272   -4.9064  -25.5426 Cl  0  0  0  0  0  0  0  0  0  0  0  0
   -7.4930   -5.7109  -25.2754 C   0  0  0  0  0  0  0  0  0  0  0  0
   -8.7576   -5.6268  -24.7301 C   0  0  0  0  0  0  0  0  0  0  0  0
   -9.0505   -4.6512  -23.7780 C   0  0  0  0  0  0  0  0  0  0  0  0
  -10.4449   -4.5720  -23.2829 C   0  0  0  0  0  0  0  0  0  0  0  0
  -11.2806   -5.3391  -23.7251 O   0  0  0  0  0  0  0  0  0  0  0  0
   -9.5554   -6.3065  -25.0155 H   0  0  0  0  0  0  0  0  0  0  0  0
   -7.2745   -6.4553  -26.0339 H   0  0  0  0  0  0  0  0  0  0  0  0
   -5.9855   -3.2388  -23.5081 H   0  0  0  0  0  0  0  0  0  0  0  0
   -9.3748   -3.8981  -20.7827 H   0  0  0  0  0  0  0  0  0  0  0  0
  -10.0481   -2.2636  -20.9190 H   0  0  0  0  0  0  0  0  0  0  0  0
  -12.5999   -4.5107  -22.1054 H   0  0  0  0  0  0  0  0  0  0  0  0
  -12.1708   -3.3355  -20.8432 H   0  0  0  0  0  0  0  0  0  0  0  0
  -13.3540   -3.6921  -24.1397 H   0  0  0  0  0  0  0  0  0  0  0  0
  -15.1650   -1.6175  -23.4944 H   0  0  0  0  0  0  0  0  0  0  0  0
  -15.0942   -2.4591  -25.0892 H   0  0  0  0  0  0  0  0  0  0  0  0
  -14.1339   -0.9959  -24.7777 H   0  0  0  0  0  0  0  0  0  0  0  0
  1  2  1  0
  2  3  1  0
  3  4  2  0
  3  5  1  0
  5  6  1  0
  6  7  1  0
  8  7  1  1
  8  9  1  0
  9 10  2  0
  9 11  1  0
 11 12  1  0
 12 13  2  0
 13 14  1  0
 14 15  2  0
 15 16  1  0
 16 17  2  0
 17 18  1  0
 18 19  2  0
 19 20  1  0
 20 21  2  0
 20 22  1  0
 19 23  1  0
 18 24  1  0
 17 25  1  0
 15 26  1  0
 13 27  1  0
 11 28  1  0
 28 29  1  0
 29 30  1  0
 30 31  1  0
 31 32  1  0
 32 33  1  0
 32 34  1  0
 32 35  1  0
 30 36  1  0
 30 37  1  0
 29 38  1  6
 28 39  1  0
 28 40  1  0
  8 41  1  0
 41 42  2  0
 42 43  1  0
 43 44  1  0
 43 45  2  0
 45 46  1  0
 46 47  2  0
 47 48  1  0
 48 49  2  0
 46 50  1  0
 45 51  1  0
 42 52  1  0
  7 53  1  0
  7 54  1  0
  5 55  1  0
  5 56  1  0
  2 57  1  0
  1 58  1  0
  1 59  1  0
  1 60  1  0
 48  6  1  0
 29  8  1  0
 47 41  1  0
 21 12  1  0
 21 16  1  0
M  END
>  <cnnaffinities>  (42) 
[6.35164]

>  <score>  (42) 
6.35164

>  <index>  (42) 
44

>  <Smiles>  (42) 
C(N(C(=O)C(N1C([C@@]2(C(=O)N(c3c(nc(c4c(c(c(c(c34)[H])[H])[H])[H])[H])[H])C([C@@]2(C(OC([H])([H])[H])([H])[H])[H])([H])[H])c2c(c(Cl)c(c(c2C1=O)[H])[H])[H])([H])[H])([H])[H])[H])([H])([H])[H]

>  <h>  (42) 
<NA>

>  <Training>  (42) 
True

>  <Success>  (42) 
True

>  <enamine_searched>  (42) 
False

>  <enamine_id>  (42) 
nan

$$$$

     RDKit          3D

 66 71  0  0  0  0  0  0  0  0999 V2000
   -7.4441    3.3660  -21.7828 C   0  0  0  0  0  0  0  0  0  0  0  0
   -8.3193    2.9014  -22.8384 N   0  0  0  0  0  0  0  0  0  0  0  0
   -7.7577    2.2146  -23.8548 C   0  0  0  0  0  0  0  0  0  0  0  0
   -6.5410    2.1079  -23.9716 O   0  0  0  0  0  0  0  0  0  0  0  0
   -8.7062    1.5944  -24.8766 C   0  0  0  0  0  0  0  0  0  0  0  0
   -9.4201    0.4389  -24.3710 N   0  0  0  0  0  0  0  0  0  0  0  0
   -8.6800   -0.8008  -24.2158 C   0  0  0  0  0  0  0  0  0  0  0  0
   -9.0500   -1.5206  -22.9023 C   0  0  2  0  0  0  0  0  0  0  0  0
   -8.5148   -0.7382  -21.6765 C   0  0  0  0  0  0  0  0  0  0  0  0
   -8.9799    0.2699  -21.1848 O   0  0  0  0  0  0  0  0  0  0  0  0
   -7.3961   -1.3844  -21.2018 N   0  0  0  0  0  0  0  0  0  0  0  0
   -6.6001   -0.8123  -20.1739 C   0  0  0  0  0  0  0  0  0  0  0  0
   -6.9112   -1.0412  -18.8564 C   0  0  0  0  0  0  0  0  0  0  0  0
   -6.2125   -0.5444  -17.8070 N   0  0  0  0  0  0  0  0  0  0  0  0
   -5.1722    0.2097  -18.0756 C   0  0  0  0  0  0  0  0  0  0  0  0
   -4.7315    0.5264  -19.3932 C   0  0  0  0  0  0  0  0  0  0  0  0
   -3.6058    1.3609  -19.6382 C   0  0  0  0  0  0  0  0  0  0  0  0
   -3.2204    1.6531  -20.9193 C   0  0  0  0  0  0  0  0  0  0  0  0
   -3.9434    1.1276  -22.0138 C   0  0  0  0  0  0  0  0  0  0  0  0
   -5.0367    0.3203  -21.8017 C   0  0  0  0  0  0  0  0  0  0  0  0
   -5.4631    0.0004  -20.4837 C   0  0  0  0  0  0  0  0  0  0  0  0
   -5.5982   -0.0600  -22.6495 H   0  0  0  0  0  0  0  0  0  0  0  0
   -3.6517    1.3772  -23.0284 H   0  0  0  0  0  0  0  0  0  0  0  0
   -2.3684    2.3045  -21.0975 H   0  0  0  0  0  0  0  0  0  0  0  0
   -3.0774    1.7746  -18.7836 H   0  0  0  0  0  0  0  0  0  0  0  0
   -4.6196    0.6131  -17.2266 H   0  0  0  0  0  0  0  0  0  0  0  0
   -7.7647   -1.6665  -18.6041 H   0  0  0  0  0  0  0  0  0  0  0  0
   -7.0503   -2.5890  -21.9310 C   0  0  0  0  0  0  0  0  0  0  0  0
   -8.3122   -2.8897  -22.7577 C   0  0  2  0  0  0  0  0  0  0  0  0
   -8.0140   -3.6751  -24.0512 C   0  0  0  0  0  0  0  0  0  0  0  0
   -7.4736   -5.0630  -23.7801 C   0  0  0  0  0  0  0  0  0  0  0  0
   -8.3493   -6.1148  -23.5012 C   0  0  0  0  0  0  0  0  0  0  0  0
   -7.8726   -7.3900  -23.2104 C   0  0  0  0  0  0  0  0  0  0  0  0
   -6.5017   -7.6344  -23.1920 C   0  0  0  0  0  0  0  0  0  0  0  0
   -5.6162   -6.5958  -23.4691 C   0  0  0  0  0  0  0  0  0  0  0  0
   -6.1003   -5.3213  -23.7573 C   0  0  0  0  0  0  0  0  0  0  0  0
   -5.3989   -4.5135  -23.9654 H   0  0  0  0  0  0  0  0  0  0  0  0
   -4.5432   -6.7802  -23.4587 H   0  0  0  0  0  0  0  0  0  0  0  0
   -6.1236   -8.6298  -22.9632 H   0  0  0  0  0  0  0  0  0  0  0  0
   -8.5768   -8.1912  -22.9936 H   0  0  0  0  0  0  0  0  0  0  0  0
   -9.4226   -5.9259  -23.5077 H   0  0  0  0  0  0  0  0  0  0  0  0
   -8.9356   -3.7531  -24.6460 H   0  0  0  0  0  0  0  0  0  0  0  0
   -7.2895   -3.1134  -24.6549 H   0  0  0  0  0  0  0  0  0  0  0  0
   -8.9619   -3.5260  -22.1523 H   0  0  0  0  0  0  0  0  0  0  0  0
   -6.7962   -3.4051  -21.2450 H   0  0  0  0  0  0  0  0  0  0  0  0
   -6.1780   -2.4261  -22.5827 H   0  0  0  0  0  0  0  0  0  0  0  0
  -10.5596   -1.5874  -22.8301 C   0  0  0  0  0  0  0  0  0  0  0  0
  -11.1503   -2.4763  -21.9346 C   0  0  0  0  0  0  0  0  0  0  0  0
  -12.5185   -2.5115  -21.7755 C   0  0  0  0  0  0  0  0  0  0  0  0
  -13.1208   -3.5757  -20.5352 Cl  0  0  0  0  0  0  0  0  0  0  0  0
  -13.3549   -1.6866  -22.5311 C   0  0  0  0  0  0  0  0  0  0  0  0
  -12.7719   -0.7601  -23.3793 C   0  0  0  0  0  0  0  0  0  0  0  0
  -11.3845   -0.6759  -23.5010 C   0  0  0  0  0  0  0  0  0  0  0  0
  -10.7887    0.4670  -24.2740 C   0  0  0  0  0  0  0  0  0  0  0  0
  -11.4738    1.3692  -24.7451 O   0  0  0  0  0  0  0  0  0  0  0  0
  -13.3758   -0.0547  -23.9382 H   0  0  0  0  0  0  0  0  0  0  0  0
  -14.4326   -1.7623  -22.4386 H   0  0  0  0  0  0  0  0  0  0  0  0
  -10.5438   -3.1336  -21.3259 H   0  0  0  0  0  0  0  0  0  0  0  0
   -8.8950   -1.4767  -25.0590 H   0  0  0  0  0  0  0  0  0  0  0  0
   -7.6140   -0.5518  -24.2162 H   0  0  0  0  0  0  0  0  0  0  0  0
   -9.4783    2.3004  -25.1879 H   0  0  0  0  0  0  0  0  0  0  0  0
   -8.0767    1.3204  -25.7297 H   0  0  0  0  0  0  0  0  0  0  0  0
   -9.3055    2.8002  -22.6565 H   0  0  0  0  0  0  0  0  0  0  0  0
   -6.7431    4.1124  -22.1600 H   0  0  0  0  0  0  0  0  0  0  0  0
   -8.0476    3.8287  -21.0076 H   0  0  0  0  0  0  0  0  0  0  0  0
   -6.8588    2.5244  -21.3883 H   0  0  0  0  0  0  0  0  0  0  0  0
  1  2  1  0
  2  3  1  0
  3  4  2  0
  3  5  1  0
  5  6  1  0
  6  7  1  0
  8  7  1  6
  8  9  1  0
  9 10  2  0
  9 11  1  0
 11 12  1  0
 12 13  2  0
 13 14  1  0
 14 15  2  0
 15 16  1  0
 16 17  2  0
 17 18  1  0
 18 19  2  0
 19 20  1  0
 20 21  2  0
 20 22  1  0
 19 23  1  0
 18 24  1  0
 17 25  1  0
 15 26  1  0
 13 27  1  0
 11 28  1  0
 28 29  1  0
 29 30  1  0
 30 31  1  0
 31 32  2  0
 32 33  1  0
 33 34  2  0
 34 35  1  0
 35 36  2  0
 36 37  1  0
 35 38  1  0
 34 39  1  0
 33 40  1  0
 32 41  1  0
 30 42  1  0
 30 43  1  0
 29 44  1  1
 28 45  1  0
 28 46  1  0
  8 47  1  0
 47 48  2  0
 48 49  1  0
 49 50  1  0
 49 51  2  0
 51 52  1  0
 52 53  2  0
 53 54  1  0
 54 55  2  0
 52 56  1  0
 51 57  1  0
 48 58  1  0
  7 59  1  0
  7 60  1  0
  5 61  1  0
  5 62  1  0
  2 63  1  0
  1 64  1  0
  1 65  1  0
  1 66  1  0
 54  6  1  0
 29  8  1  0
 36 31  1  0
 53 47  1  0
 21 12  1  0
 21 16  1  0
M  END
>  <cnnaffinities>  (43) 
[6.49259, 6.52043, 6.60358]

>  <score>  (43) 
6.49259

>  <index>  (43) 
45

>  <Smiles>  (43) 
C(N(C(=O)C(N1C([C@@]2(C(=O)N(c3c(nc(c4c(c(c(c(c34)[H])[H])[H])[H])[H])[H])C([C@@]2(C(c2c(c(c(c(c2[H])[H])[H])[H])[H])([H])[H])[H])([H])[H])c2c(c(Cl)c(c(c2C1=O)[H])[H])[H])([H])[H])([H])[H])[H])([H])([H])[H]

>  <h>  (43) 
<NA>

>  <Training>  (43) 
True

>  <Success>  (43) 
True

>  <enamine_searched>  (43) 
False

>  <enamine_id>  (43) 
nan

$$$$

     RDKit          3D

 50 54  0  0  0  0  0  0  0  0999 V2000
   -8.4495   -4.1916  -23.6042 C   0  0  0  0  0  0  0  0  0  0  0  0
   -8.5881   -3.1951  -22.4641 C   0  0  1  0  0  0  0  0  0  0  0  0
   -7.2442   -2.6213  -22.0070 C   0  0  0  0  0  0  0  0  0  0  0  0
   -7.6619   -1.4858  -21.2099 N   0  0  0  0  0  0  0  0  0  0  0  0
   -6.8982   -0.9015  -20.1741 C   0  0  0  0  0  0  0  0  0  0  0  0
   -7.2572   -1.0692  -18.8583 C   0  0  0  0  0  0  0  0  0  0  0  0
   -6.5547   -0.5749  -17.8070 N   0  0  0  0  0  0  0  0  0  0  0  0
   -5.4692    0.1080  -18.0770 C   0  0  0  0  0  0  0  0  0  0  0  0
   -4.9907    0.3575  -19.3940 C   0  0  0  0  0  0  0  0  0  0  0  0
   -3.8337    1.1384  -19.6308 C   0  0  0  0  0  0  0  0  0  0  0  0
   -3.4275    1.4082  -20.9063 C   0  0  0  0  0  0  0  0  0  0  0  0
   -4.1484    0.8937  -22.0042 C   0  0  0  0  0  0  0  0  0  0  0  0
   -5.2647    0.1207  -21.8050 C   0  0  0  0  0  0  0  0  0  0  0  0
   -5.7141   -0.1637  -20.4869 C   0  0  0  0  0  0  0  0  0  0  0  0
   -5.8195   -0.2557  -22.6597 H   0  0  0  0  0  0  0  0  0  0  0  0
   -3.8296    1.1301  -23.0123 H   0  0  0  0  0  0  0  0  0  0  0  0
   -2.5546    2.0282  -21.0815 H   0  0  0  0  0  0  0  0  0  0  0  0
   -3.3008    1.5307  -18.7719 H   0  0  0  0  0  0  0  0  0  0  0  0
   -4.9031    0.5141  -17.2366 H   0  0  0  0  0  0  0  0  0  0  0  0
   -8.1541   -1.6334  -18.6084 H   0  0  0  0  0  0  0  0  0  0  0  0
   -8.9127   -1.0149  -21.5563 C   0  0  0  0  0  0  0  0  0  0  0  0
   -9.4522   -0.0526  -21.0609 O   0  0  0  0  0  0  0  0  0  0  0  0
   -9.4988   -1.9614  -22.6454 C   0  0  1  0  0  0  0  0  0  0  0  0
   -9.3852   -1.3122  -24.0484 C   0  0  0  0  0  0  0  0  0  0  0  0
  -10.2065   -0.1123  -24.1417 N   0  0  0  0  0  0  0  0  0  0  0  0
   -9.8009    0.9100  -25.0738 C   0  0  0  0  0  0  0  0  0  0  0  0
  -10.0246    0.5204  -26.4852 C   0  0  0  0  0  0  0  0  0  0  0  0
  -10.2027    0.1820  -27.5769 N   0  0  0  0  0  0  0  0  0  0  0  0
   -8.7314    1.1193  -24.9459 H   0  0  0  0  0  0  0  0  0  0  0  0
  -10.3670    1.8151  -24.8338 H   0  0  0  0  0  0  0  0  0  0  0  0
  -11.3648    0.0831  -23.4262 C   0  0  0  0  0  0  0  0  0  0  0  0
  -12.0110    1.1205  -23.4865 O   0  0  0  0  0  0  0  0  0  0  0  0
  -11.8140   -1.0782  -22.6023 C   0  0  0  0  0  0  0  0  0  0  0  0
  -13.0965   -1.0399  -22.0673 C   0  0  0  0  0  0  0  0  0  0  0  0
  -13.5513   -2.0628  -21.2765 C   0  0  0  0  0  0  0  0  0  0  0  0
  -12.7422   -3.1831  -21.1162 C   0  0  0  0  0  0  0  0  0  0  0  0
  -13.1920   -4.1973  -20.3571 F   0  0  0  0  0  0  0  0  0  0  0  0
  -11.4900   -3.2783  -21.6881 C   0  0  0  0  0  0  0  0  0  0  0  0
  -10.9656   -2.1602  -22.3466 C   0  0  0  0  0  0  0  0  0  0  0  0
  -10.9563   -4.2145  -21.5762 H   0  0  0  0  0  0  0  0  0  0  0  0
  -14.5112   -2.0202  -20.7687 H   0  0  0  0  0  0  0  0  0  0  0  0
  -13.7267   -0.1811  -22.2688 H   0  0  0  0  0  0  0  0  0  0  0  0
   -8.3450   -1.0286  -24.2576 H   0  0  0  0  0  0  0  0  0  0  0  0
   -9.6886   -2.0343  -24.8211 H   0  0  0  0  0  0  0  0  0  0  0  0
   -6.6542   -3.3298  -21.4149 H   0  0  0  0  0  0  0  0  0  0  0  0
   -6.6370   -2.3255  -22.8786 H   0  0  0  0  0  0  0  0  0  0  0  0
   -8.9914   -3.7047  -21.5877 H   0  0  0  0  0  0  0  0  0  0  0  0
   -7.6760   -4.9348  -23.3657 H   0  0  0  0  0  0  0  0  0  0  0  0
   -9.3902   -4.7182  -23.7956 H   0  0  0  0  0  0  0  0  0  0  0  0
   -8.1501   -3.6880  -24.5287 H   0  0  0  0  0  0  0  0  0  0  0  0
  1  2  1  0
  2  3  1  0
  3  4  1  0
  4  5  1  0
  5  6  2  0
  6  7  1  0
  7  8  2  0
  8  9  1  0
  9 10  2  0
 10 11  1  0
 11 12  2  0
 12 13  1  0
 13 14  2  0
 13 15  1  0
 12 16  1  0
 11 17  1  0
 10 18  1  0
  8 19  1  0
  6 20  1  0
  4 21  1  0
 21 22  2  0
 21 23  1  0
 23 24  1  6
 24 25  1  0
 25 26  1  0
 26 27  1  0
 27 28  3  0
 26 29  1  0
 26 30  1  0
 25 31  1  0
 31 32  2  0
 31 33  1  0
 33 34  2  0
 34 35  1  0
 35 36  2  0
 36 37  1  0
 36 38  1  0
 38 39  2  0
 38 40  1  0
 35 41  1  0
 34 42  1  0
 24 43  1  0
 24 44  1  0
  3 45  1  0
  3 46  1  0
  2 47  1  1
  1 48  1  0
  1 49  1  0
  1 50  1  0
 23  2  1  0
 39 33  1  0
 14  5  1  0
 39 23  1  0
 14  9  1  0
M  END
>  <cnnaffinities>  (44) 
[6.27921, 5.96207, 5.93639]

>  <score>  (44) 
6.27921

>  <index>  (44) 
46

>  <Smiles>  (44) 
C([C@]1(C(N(c2c(nc(c3c(c(c(c(c23)[H])[H])[H])[H])[H])[H])C(=O)[C@]21C(N(C(C#N)([H])[H])C(=O)c1c(c(c(F)c(c21)[H])[H])[H])([H])[H])([H])[H])[H])([H])([H])[H]

>  <h>  (44) 
<NA>

>  <Training>  (44) 
True

>  <Success>  (44) 
True

>  <enamine_searched>  (44) 
False

>  <enamine_id>  (44) 
nan

$$$$

     RDKit          3D

 58 63  0  0  0  0  0  0  0  0999 V2000
   -8.4966    0.7138  -21.3995 O   0  0  0  0  0  0  0  0  0  0  0  0
   -8.4524   -0.4158  -21.8517 C   0  0  0  0  0  0  0  0  0  0  0  0
   -7.4448   -1.4297  -21.2619 C   0  0  0  0  0  0  0  0  0  0  0  0
   -6.5775   -0.8315  -20.1786 C   0  0  0  0  0  0  0  0  0  0  0  0
   -6.8771   -1.0387  -18.8577 C   0  0  0  0  0  0  0  0  0  0  0  0
   -6.1935   -0.5347  -17.7933 N   0  0  0  0  0  0  0  0  0  0  0  0
   -5.1563    0.2222  -18.0626 C   0  0  0  0  0  0  0  0  0  0  0  0
   -4.7230    0.5353  -19.3800 C   0  0  0  0  0  0  0  0  0  0  0  0
   -3.5979    1.3683  -19.6219 C   0  0  0  0  0  0  0  0  0  0  0  0
   -3.2124    1.6630  -20.9011 C   0  0  0  0  0  0  0  0  0  0  0  0
   -3.9355    1.1353  -21.9939 C   0  0  0  0  0  0  0  0  0  0  0  0
   -5.0259    0.3261  -21.7862 C   0  0  0  0  0  0  0  0  0  0  0  0
   -5.4537    0.0015  -20.4709 C   0  0  0  0  0  0  0  0  0  0  0  0
   -5.5760   -0.0602  -22.6399 H   0  0  0  0  0  0  0  0  0  0  0  0
   -3.6237    1.3808  -23.0047 H   0  0  0  0  0  0  0  0  0  0  0  0
   -2.3566    2.3078  -21.0864 H   0  0  0  0  0  0  0  0  0  0  0  0
   -3.0569    1.7802  -18.7717 H   0  0  0  0  0  0  0  0  0  0  0  0
   -4.5980    0.6301  -17.2166 H   0  0  0  0  0  0  0  0  0  0  0  0
   -7.7311   -1.6595  -18.5876 H   0  0  0  0  0  0  0  0  0  0  0  0
   -6.8257   -1.8600  -22.0601 H   0  0  0  0  0  0  0  0  0  0  0  0
   -8.0180   -2.2631  -20.8331 H   0  0  0  0  0  0  0  0  0  0  0  0
   -9.3003   -0.8259  -22.8764 N   0  0  0  0  0  0  0  0  0  0  0  0
   -9.2719   -2.1308  -23.5294 C   0  0  0  0  0  0  0  0  0  0  0  0
   -8.5404   -2.1589  -24.8623 C   0  0  0  0  0  0  0  0  0  0  0  0
   -7.4389   -1.3417  -25.1015 C   0  0  0  0  0  0  0  0  0  0  0  0
   -6.7647   -1.4064  -26.3147 C   0  0  0  0  0  0  0  0  0  0  0  0
   -7.1719   -2.2816  -27.3141 C   0  0  0  0  0  0  0  0  0  0  0  0
   -8.2658   -3.1004  -27.0714 C   0  0  0  0  0  0  0  0  0  0  0  0
   -8.7925   -4.2112  -28.3084 Cl  0  0  0  0  0  0  0  0  0  0  0  0
   -8.9430   -3.0482  -25.8582 C   0  0  0  0  0  0  0  0  0  0  0  0
   -9.7801   -3.7103  -25.6860 H   0  0  0  0  0  0  0  0  0  0  0  0
   -6.6490   -2.3292  -28.2631 H   0  0  0  0  0  0  0  0  0  0  0  0
   -5.9097   -0.7609  -26.4851 H   0  0  0  0  0  0  0  0  0  0  0  0
   -7.0938   -0.6489  -24.3375 H   0  0  0  0  0  0  0  0  0  0  0  0
  -10.3051   -2.4562  -23.6844 H   0  0  0  0  0  0  0  0  0  0  0  0
   -8.8332   -2.8636  -22.8478 H   0  0  0  0  0  0  0  0  0  0  0  0
  -10.2378    0.1534  -23.4013 C   0  0  2  0  0  0  0  0  0  0  0  0
  -11.3917    0.6136  -22.4927 C   0  0  0  0  0  0  0  0  0  0  0  0
  -12.0773    1.5954  -23.4144 N   0  0  1  0  0  4  0  0  0  0  0  0
  -12.2523    2.9541  -22.8855 C   0  0  0  0  0  0  0  0  0  0  0  0
  -13.5219    3.2856  -22.1771 C   0  0  0  0  0  0  0  0  0  0  0  0
  -13.2589    3.8355  -23.5474 C   0  0  0  0  0  0  0  0  0  0  0  0
  -13.0453    4.8922  -23.6355 H   0  0  0  0  0  0  0  0  0  0  0  0
  -13.8118    3.3935  -24.3686 H   0  0  0  0  0  0  0  0  0  0  0  0
  -13.4727    3.9740  -21.3445 H   0  0  0  0  0  0  0  0  0  0  0  0
  -14.2382    2.4775  -22.0915 H   0  0  0  0  0  0  0  0  0  0  0  0
  -11.3474    3.4186  -22.5192 H   0  0  0  0  0  0  0  0  0  0  0  0
  -11.1693    1.4897  -24.6134 C   0  0  2  0  0  0  0  0  0  0  0  0
  -11.0197   -0.0300  -24.7280 C   0  0  0  0  0  0  0  0  0  0  0  0
  -10.4089   -0.3247  -25.5736 H   0  0  0  0  0  0  0  0  0  0  0  0
  -11.9495   -0.6115  -24.6708 H   0  0  0  0  0  0  0  0  0  0  0  0
   -9.7770    1.5187  -23.9722 C   0  0  0  0  0  0  0  0  0  0  0  0
   -8.9745    1.4219  -24.6964 H   0  0  0  0  0  0  0  0  0  0  0  0
   -9.5673    2.2921  -23.2274 H   0  0  0  0  0  0  0  0  0  0  0  0
  -11.4558    2.1234  -25.4476 H   0  0  0  0  0  0  0  0  0  0  0  0
  -13.0206    1.2457  -23.6630 H   0  0  0  0  0  0  0  0  0  0  0  0
  -11.0381    1.1592  -21.6246 H   0  0  0  0  0  0  0  0  0  0  0  0
  -12.0820   -0.1818  -22.2043 H   0  0  0  0  0  0  0  0  0  0  0  0
  1  2  2  0
  2  3  1  0
  3  4  1  0
  4  5  2  0
  5  6  1  0
  6  7  2  0
  7  8  1  0
  8  9  2  0
  9 10  1  0
 10 11  2  0
 11 12  1  0
 12 13  2  0
 12 14  1  0
 11 15  1  0
 10 16  1  0
  9 17  1  0
  7 18  1  0
  5 19  1  0
  3 20  1  0
  3 21  1  0
  2 22  1  0
 22 23  1  0
 23 24  1  0
 24 25  2  0
 25 26  1  0
 26 27  2  0
 27 28  1  0
 28 29  1  0
 28 30  2  0
 30 31  1  0
 27 32  1  0
 26 33  1  0
 25 34  1  0
 23 35  1  0
 23 36  1  0
 37 22  1  1
 37 38  1  0
 38 39  1  0
 39 40  1  0
 40 41  1  0
 41 42  1  0
 42 43  1  0
 42 44  1  0
 41 45  1  0
 41 46  1  0
 40 47  1  0
 39 48  1  0
 48 49  1  0
 49 50  1  0
 49 51  1  0
 48 52  1  0
 52 53  1  0
 52 54  1  0
 48 55  1  6
 39 56  1  6
 38 57  1  0
 38 58  1  0
 13  4  1  0
 30 24  1  0
 49 37  1  0
 13  8  1  0
 52 37  1  0
 42 40  1  0
M  CHG  1  39   1
M  END
>  <cnnaffinities>  (45) 
[6.06508]

>  <score>  (45) 
6.06508

>  <index>  (45) 
47

>  <Smiles>  (45) 
O=C(C(c1c(nc(c2c(c(c(c(c12)[H])[H])[H])[H])[H])[H])([H])[H])N(C(c1c(c(c(c(Cl)c1[H])[H])[H])[H])([H])[H])[C@]12C([N@@+](C3(C(C3([H])[H])([H])[H])[H])([C@](C1([H])[H])(C2([H])[H])[H])[H])([H])[H]

>  <h>  (45) 
<NA>

>  <Training>  (45) 
True

>  <Success>  (45) 
True

>  <enamine_searched>  (45) 
False

>  <enamine_id>  (45) 
nan

$$$$

     RDKit          3D

 46 48  0  0  0  0  0  0  0  0999 V2000
   -8.8877   -7.7361  -25.5740 C   0  0  0  0  0  0  0  0  0  0  0  0
   -9.4362   -6.3121  -25.4754 C   0  0  0  0  0  0  0  0  0  0  0  0
   -9.6005   -5.8109  -26.9153 C   0  0  0  0  0  0  0  0  0  0  0  0
   -9.8781   -4.7577  -27.0468 H   0  0  0  0  0  0  0  0  0  0  0  0
   -8.6654   -5.9752  -27.4603 H   0  0  0  0  0  0  0  0  0  0  0  0
  -10.3548   -6.4124  -27.4314 H   0  0  0  0  0  0  0  0  0  0  0  0
   -8.5239   -5.3889  -24.6376 C   0  0  0  0  0  0  0  0  0  0  0  0
   -8.0581   -5.9636  -23.2966 C   0  0  0  0  0  0  0  0  0  0  0  0
   -7.0567   -5.0144  -22.6455 C   0  0  0  0  0  0  0  0  0  0  0  0
   -7.5714   -3.6539  -22.5426 N   0  0  0  0  0  0  0  0  0  0  0  0
   -6.7821   -2.7920  -21.8242 C   0  0  0  0  0  0  0  0  0  0  0  0
   -5.6116   -3.0621  -21.6145 O   0  0  0  0  0  0  0  0  0  0  0  0
   -7.4129   -1.4951  -21.2721 C   0  0  0  0  0  0  0  0  0  0  0  0
   -6.5787   -0.8462  -20.1899 C   0  0  0  0  0  0  0  0  0  0  0  0
   -6.8828   -1.0519  -18.8671 C   0  0  0  0  0  0  0  0  0  0  0  0
   -6.2035   -0.5398  -17.8067 N   0  0  0  0  0  0  0  0  0  0  0  0
   -5.1663    0.2149  -18.0737 C   0  0  0  0  0  0  0  0  0  0  0  0
   -4.7238    0.5167  -19.3892 C   0  0  0  0  0  0  0  0  0  0  0  0
   -3.5985    1.3448  -19.6244 C   0  0  0  0  0  0  0  0  0  0  0  0
   -3.1941    1.6221  -20.9000 C   0  0  0  0  0  0  0  0  0  0  0  0
   -3.9024    1.0789  -21.9978 C   0  0  0  0  0  0  0  0  0  0  0  0
   -4.9965    0.2710  -21.7929 C   0  0  0  0  0  0  0  0  0  0  0  0
   -5.4426   -0.0290  -20.4807 C   0  0  0  0  0  0  0  0  0  0  0  0
   -5.5316   -0.1497  -22.6385 H   0  0  0  0  0  0  0  0  0  0  0  0
   -3.5832    1.3146  -23.0076 H   0  0  0  0  0  0  0  0  0  0  0  0
   -2.3383    2.2685  -21.0755 H   0  0  0  0  0  0  0  0  0  0  0  0
   -3.0865    1.7648  -18.7605 H   0  0  0  0  0  0  0  0  0  0  0  0
   -4.6219    0.6257  -17.2222 H   0  0  0  0  0  0  0  0  0  0  0  0
   -7.7332   -1.6711  -18.5849 H   0  0  0  0  0  0  0  0  0  0  0  0
   -8.4050   -1.7301  -20.8609 H   0  0  0  0  0  0  0  0  0  0  0  0
   -7.5920   -0.7990  -22.1049 H   0  0  0  0  0  0  0  0  0  0  0  0
   -8.9325   -3.4192  -22.9827 C   0  0  0  0  0  0  0  0  0  0  0  0
   -9.1776   -4.0088  -24.3845 C   0  0  0  0  0  0  0  0  0  0  0  0
  -10.2653   -4.0943  -24.4873 H   0  0  0  0  0  0  0  0  0  0  0  0
   -8.8121   -3.3123  -25.1458 H   0  0  0  0  0  0  0  0  0  0  0  0
   -9.6587   -3.8553  -22.2728 H   0  0  0  0  0  0  0  0  0  0  0  0
   -9.0948   -2.3389  -23.0081 H   0  0  0  0  0  0  0  0  0  0  0  0
   -6.1031   -4.9701  -23.1895 H   0  0  0  0  0  0  0  0  0  0  0  0
   -6.8153   -5.3411  -21.6356 H   0  0  0  0  0  0  0  0  0  0  0  0
   -7.5578   -6.9279  -23.4311 H   0  0  0  0  0  0  0  0  0  0  0  0
   -8.9149   -6.1423  -22.6306 H   0  0  0  0  0  0  0  0  0  0  0  0
   -7.6062   -5.2591  -25.2372 H   0  0  0  0  0  0  0  0  0  0  0  0
  -10.4195   -6.3568  -24.9810 H   0  0  0  0  0  0  0  0  0  0  0  0
   -8.8947   -8.2326  -24.6040 H   0  0  0  0  0  0  0  0  0  0  0  0
   -7.8550   -7.7415  -25.9531 H   0  0  0  0  0  0  0  0  0  0  0  0
   -9.4833   -8.3380  -26.2715 H   0  0  0  0  0  0  0  0  0  0  0  0
  1  2  1  0
  2  3  1  0
  3  4  1  0
  3  5  1  0
  3  6  1  0
  2  7  1  0
  7  8  1  0
  8  9  1  0
  9 10  1  0
 10 11  1  0
 11 12  2  0
 11 13  1  0
 13 14  1  0
 14 15  2  0
 15 16  1  0
 16 17  2  0
 17 18  1  0
 18 19  2  0
 19 20  1  0
 20 21  2  0
 21 22  1  0
 22 23  2  0
 22 24  1  0
 21 25  1  0
 20 26  1  0
 19 27  1  0
 17 28  1  0
 15 29  1  0
 13 30  1  0
 13 31  1  0
 10 32  1  0
 32 33  1  0
 33 34  1  0
 33 35  1  0
 32 36  1  0
 32 37  1  0
  9 38  1  0
  9 39  1  0
  8 40  1  0
  8 41  1  0
  7 42  1  0
  2 43  1  0
  1 44  1  0
  1 45  1  0
  1 46  1  0
 33  7  1  0
 23 14  1  0
 23 18  1  0
M  END
>  <cnnaffinities>  (46) 
[4.80461, 4.71245, 4.71241, 4.7085, 4.80915, 4.8088, 4.80802, 4.66531, 4.66606, 4.66656, 4.91933, 4.91935, 4.91934, 4.7919, 4.79191]

>  <score>  (46) 
4.80461

>  <index>  (46) 
48

>  <Smiles>  (46) 
C(C(C([H])([H])[H])(C1(C(C(N(C(=O)C(c2c(nc(c3c(c(c(c(c23)[H])[H])[H])[H])[H])[H])([H])[H])C(C1([H])[H])([H])[H])([H])[H])([H])[H])[H])[H])([H])([H])[H]

>  <h>  (46) 
<NA>

>  <Training>  (46) 
True

>  <Success>  (46) 
True

>  <enamine_searched>  (46) 
False

>  <enamine_id>  (46) 
nan

$$$$

     RDKit          3D

 67 72  0  0  0  0  0  0  0  0999 V2000
   -7.7521   -6.0527  -26.7594 C   0  0  0  0  0  0  0  0  0  0  0  0
   -8.0816   -4.6558  -26.9869 N   0  0  0  0  0  0  0  0  0  0  0  0
   -7.1341   -3.7179  -26.7267 C   0  0  0  0  0  0  0  0  0  0  0  0
   -6.0012   -4.0010  -26.3612 O   0  0  0  0  0  0  0  0  0  0  0  0
   -7.5909   -2.2688  -26.8608 C   0  0  0  0  0  0  0  0  0  0  0  0
   -8.4436   -1.9144  -25.7381 N   0  0  0  0  0  0  0  0  0  0  0  0
   -7.8579   -1.3603  -24.5205 C   0  0  0  0  0  0  0  0  0  0  0  0
   -8.6917   -1.6214  -23.2286 C   0  0  2  0  0  0  0  0  0  0  0  0
   -8.1231   -0.6810  -22.1491 C   0  0  0  0  0  0  0  0  0  0  0  0
   -8.2396    0.5246  -22.1117 O   0  0  0  0  0  0  0  0  0  0  0  0
   -7.4089   -1.4203  -21.2250 N   0  0  0  0  0  0  0  0  0  0  0  0
   -6.6137   -0.8273  -20.2111 C   0  0  0  0  0  0  0  0  0  0  0  0
   -6.9140   -1.0690  -18.8940 C   0  0  0  0  0  0  0  0  0  0  0  0
   -6.2398   -0.5566  -17.8354 N   0  0  0  0  0  0  0  0  0  0  0  0
   -5.2063    0.2070  -18.0982 C   0  0  0  0  0  0  0  0  0  0  0  0
   -4.7608    0.5131  -19.4139 C   0  0  0  0  0  0  0  0  0  0  0  0
   -3.6240    1.3354  -19.6304 C   0  0  0  0  0  0  0  0  0  0  0  0
   -3.1963    1.6064  -20.8995 C   0  0  0  0  0  0  0  0  0  0  0  0
   -3.8825    1.0640  -22.0088 C   0  0  0  0  0  0  0  0  0  0  0  0
   -4.9860    0.2705  -21.8252 C   0  0  0  0  0  0  0  0  0  0  0  0
   -5.4687   -0.0180  -20.5158 C   0  0  0  0  0  0  0  0  0  0  0  0
   -5.5056   -0.1290  -22.6904 H   0  0  0  0  0  0  0  0  0  0  0  0
   -3.5335    1.2845  -23.0129 H   0  0  0  0  0  0  0  0  0  0  0  0
   -2.3304    2.2410  -21.0626 H   0  0  0  0  0  0  0  0  0  0  0  0
   -3.1146    1.7492  -18.7639 H   0  0  0  0  0  0  0  0  0  0  0  0
   -4.6527    0.6164  -17.2514 H   0  0  0  0  0  0  0  0  0  0  0  0
   -7.7671   -1.6982  -18.6456 H   0  0  0  0  0  0  0  0  0  0  0  0
   -7.3645   -2.8419  -21.5126 C   0  0  0  0  0  0  0  0  0  0  0  0
   -8.5063   -3.0175  -22.5282 C   0  0  2  0  0  0  0  0  0  0  0  0
   -8.3157   -4.1982  -23.4832 C   0  0  0  0  0  0  0  0  0  0  0  0
   -8.2724   -5.4752  -22.8057 N   0  0  0  0  0  0  0  0  0  0  0  0
   -7.1578   -6.2773  -22.7265 C   0  0  0  0  0  0  0  0  0  0  0  0
   -7.0577   -7.5692  -22.2884 C   0  0  0  0  0  0  0  0  0  0  0  0
   -5.7841   -8.0905  -22.2245 N   0  0  0  0  0  0  0  0  0  0  0  0
   -4.9086   -7.2288  -22.6290 C   0  0  0  0  0  0  0  0  0  0  0  0
   -3.4345   -7.4214  -22.6846 C   0  0  0  0  0  0  0  0  0  0  0  0
   -3.0970   -7.5580  -23.7191 H   0  0  0  0  0  0  0  0  0  0  0  0
   -3.1381   -8.2973  -22.1078 H   0  0  0  0  0  0  0  0  0  0  0  0
   -2.9415   -6.5363  -22.2775 H   0  0  0  0  0  0  0  0  0  0  0  0
   -5.5604   -5.6964  -23.1493 S   0  0  0  0  0  0  0  0  0  0  0  0
   -7.8958   -8.1985  -22.0056 H   0  0  0  0  0  0  0  0  0  0  0  0
   -9.1313   -5.8566  -22.4320 H   0  0  0  0  0  0  0  0  0  0  0  0
   -7.3734   -4.0830  -24.0281 H   0  0  0  0  0  0  0  0  0  0  0  0
   -9.1428   -4.1833  -24.2044 H   0  0  0  0  0  0  0  0  0  0  0  0
   -9.4299   -3.1942  -21.9524 H   0  0  0  0  0  0  0  0  0  0  0  0
   -6.3815   -3.1380  -21.9156 H   0  0  0  0  0  0  0  0  0  0  0  0
   -7.5234   -3.4163  -20.5932 H   0  0  0  0  0  0  0  0  0  0  0  0
  -10.1450   -1.3206  -23.5644 C   0  0  0  0  0  0  0  0  0  0  0  0
  -11.0776   -1.0702  -22.5541 C   0  0  0  0  0  0  0  0  0  0  0  0
  -12.4307   -0.9849  -22.8628 C   0  0  0  0  0  0  0  0  0  0  0  0
  -13.6390   -1.1365  -21.6272 Cl  0  0  0  0  0  0  0  0  0  0  0  0
  -12.8826   -0.9372  -24.1810 C   0  0  0  0  0  0  0  0  0  0  0  0
  -11.9617   -1.1481  -25.1790 C   0  0  0  0  0  0  0  0  0  0  0  0
  -10.6310   -1.4097  -24.8713 C   0  0  0  0  0  0  0  0  0  0  0  0
   -9.7816   -1.9150  -25.9724 C   0  0  0  0  0  0  0  0  0  0  0  0
  -10.2582   -2.3407  -27.0255 O   0  0  0  0  0  0  0  0  0  0  0  0
  -12.2595   -1.2309  -26.2182 H   0  0  0  0  0  0  0  0  0  0  0  0
  -13.9374   -0.8074  -24.4045 H   0  0  0  0  0  0  0  0  0  0  0  0
  -10.7236   -0.9601  -21.5378 H   0  0  0  0  0  0  0  0  0  0  0  0
   -7.7811   -0.2692  -24.6291 H   0  0  0  0  0  0  0  0  0  0  0  0
   -6.8426   -1.7675  -24.4215 H   0  0  0  0  0  0  0  0  0  0  0  0
   -6.7230   -1.6071  -26.8991 H   0  0  0  0  0  0  0  0  0  0  0  0
   -8.1858   -2.1390  -27.7696 H   0  0  0  0  0  0  0  0  0  0  0  0
   -9.0276   -4.3799  -27.2233 H   0  0  0  0  0  0  0  0  0  0  0  0
   -6.9312   -6.3488  -27.4218 H   0  0  0  0  0  0  0  0  0  0  0  0
   -7.4408   -6.2141  -25.7145 H   0  0  0  0  0  0  0  0  0  0  0  0
   -8.6236   -6.6740  -26.9775 H   0  0  0  0  0  0  0  0  0  0  0  0
  1  2  1  0
  2  3  1  0
  3  4  2  0
  3  5  1  0
  5  6  1  0
  6  7  1  0
  8  7  1  6
  8  9  1  0
  9 10  2  0
  9 11  1  0
 11 12  1  0
 12 13  2  0
 13 14  1  0
 14 15  2  0
 15 16  1  0
 16 17  2  0
 17 18  1  0
 18 19  2  0
 19 20  1  0
 20 21  2  0
 20 22  1  0
 19 23  1  0
 18 24  1  0
 17 25  1  0
 15 26  1  0
 13 27  1  0
 11 28  1  0
 28 29  1  0
 29 30  1  0
 30 31  1  0
 31 32  1  0
 32 33  2  0
 33 34  1  0
 34 35  2  0
 35 36  1  0
 36 37  1  0
 36 38  1  0
 36 39  1  0
 35 40  1  0
 33 41  1  0
 31 42  1  0
 30 43  1  0
 30 44  1  0
 29 45  1  1
 28 46  1  0
 28 47  1  0
  8 48  1  0
 48 49  2  0
 49 50  1  0
 50 51  1  0
 50 52  2  0
 52 53  1  0
 53 54  2  0
 54 55  1  0
 55 56  2  0
 53 57  1  0
 52 58  1  0
 49 59  1  0
  7 60  1  0
  7 61  1  0
  5 62  1  0
  5 63  1  0
  2 64  1  0
  1 65  1  0
  1 66  1  0
  1 67  1  0
 55  6  1  0
 29  8  1  0
 40 32  1  0
 54 48  1  0
 21 12  1  0
 21 16  1  0
M  END
>  <cnnaffinities>  (47) 
[6.30699, 6.72318, 6.64622]

>  <score>  (47) 
6.30699

>  <index>  (47) 
49

>  <Smiles>  (47) 
C(N(C(=O)C(N1C([C@@]2(C(=O)N(c3c(nc(c4c(c(c(c(c34)[H])[H])[H])[H])[H])[H])C([C@@]2(C(N(c2c(nc(C([H])([H])[H])s2)[H])[H])([H])[H])[H])([H])[H])c2c(c(Cl)c(c(c2C1=O)[H])[H])[H])([H])[H])([H])[H])[H])([H])([H])[H]

>  <h>  (47) 
<NA>

>  <Training>  (47) 
True

>  <Success>  (47) 
True

>  <enamine_searched>  (47) 
False

>  <enamine_id>  (47) 
nan

$$$$

     RDKit          3D

 66 70  0  0  0  0  0  0  0  0999 V2000
   -7.4515    3.3580  -21.8249 C   0  0  0  0  0  0  0  0  0  0  0  0
   -8.3570    2.8815  -22.8521 N   0  0  0  0  0  0  0  0  0  0  0  0
   -7.8393    2.1565  -23.8703 C   0  0  0  0  0  0  0  0  0  0  0  0
   -6.6302    2.0124  -24.0199 O   0  0  0  0  0  0  0  0  0  0  0  0
   -8.8441    1.5408  -24.8505 C   0  0  0  0  0  0  0  0  0  0  0  0
   -9.5399    0.3835  -24.3190 N   0  0  0  0  0  0  0  0  0  0  0  0
   -8.8053   -0.8616  -24.1799 C   0  0  0  0  0  0  0  0  0  0  0  0
   -9.1220   -1.5666  -22.8382 C   0  0  2  0  0  0  0  0  0  0  0  0
   -8.5391   -0.7493  -21.6532 C   0  0  0  0  0  0  0  0  0  0  0  0
   -8.9779    0.2790  -21.1825 O   0  0  0  0  0  0  0  0  0  0  0  0
   -7.4031   -1.3846  -21.2004 N   0  0  0  0  0  0  0  0  0  0  0  0
   -6.6057   -0.8088  -20.1728 C   0  0  0  0  0  0  0  0  0  0  0  0
   -6.9110   -1.0383  -18.8558 C   0  0  0  0  0  0  0  0  0  0  0  0
   -6.2078   -0.5433  -17.8061 N   0  0  0  0  0  0  0  0  0  0  0  0
   -5.1684    0.2099  -18.0769 C   0  0  0  0  0  0  0  0  0  0  0  0
   -4.7287    0.5274  -19.3929 C   0  0  0  0  0  0  0  0  0  0  0  0
   -3.6005    1.3581  -19.6415 C   0  0  0  0  0  0  0  0  0  0  0  0
   -3.2144    1.6469  -20.9209 C   0  0  0  0  0  0  0  0  0  0  0  0
   -3.9383    1.1191  -22.0147 C   0  0  0  0  0  0  0  0  0  0  0  0
   -5.0326    0.3142  -21.7999 C   0  0  0  0  0  0  0  0  0  0  0  0
   -5.4644    0.0000  -20.4842 C   0  0  0  0  0  0  0  0  0  0  0  0
   -5.5948   -0.0693  -22.6468 H   0  0  0  0  0  0  0  0  0  0  0  0
   -3.6441    1.3625  -23.0293 H   0  0  0  0  0  0  0  0  0  0  0  0
   -2.3614    2.2951  -21.1016 H   0  0  0  0  0  0  0  0  0  0  0  0
   -3.0721    1.7722  -18.7859 H   0  0  0  0  0  0  0  0  0  0  0  0
   -4.6182    0.6144  -17.2265 H   0  0  0  0  0  0  0  0  0  0  0  0
   -7.7600   -1.6661  -18.5967 H   0  0  0  0  0  0  0  0  0  0  0  0
   -7.0769   -2.6093  -21.9085 C   0  0  0  0  0  0  0  0  0  0  0  0
   -8.3659   -2.9281  -22.6982 C   0  0  2  0  0  0  0  0  0  0  0  0
   -8.0846   -3.6762  -24.0007 C   0  0  0  0  0  0  0  0  0  0  0  0
   -7.4668   -4.9170  -23.7078 O   0  0  0  0  0  0  0  0  0  0  0  0
   -7.3028   -5.7627  -24.8502 C   0  0  0  0  0  0  0  0  0  0  0  0
   -8.4381   -6.7860  -24.9203 C   0  0  0  0  0  0  0  0  0  0  0  0
   -8.4375   -7.4071  -24.0183 H   0  0  0  0  0  0  0  0  0  0  0  0
   -8.3137   -7.4383  -25.7936 H   0  0  0  0  0  0  0  0  0  0  0  0
   -9.4140   -6.2934  -25.0008 H   0  0  0  0  0  0  0  0  0  0  0  0
   -5.9399   -6.4429  -24.7576 C   0  0  0  0  0  0  0  0  0  0  0  0
   -5.8880   -7.0661  -23.8592 H   0  0  0  0  0  0  0  0  0  0  0  0
   -5.7715   -7.0810  -25.6338 H   0  0  0  0  0  0  0  0  0  0  0  0
   -5.1409   -5.6973  -24.7126 H   0  0  0  0  0  0  0  0  0  0  0  0
   -7.3282   -5.1355  -25.7595 H   0  0  0  0  0  0  0  0  0  0  0  0
   -9.0199   -3.8349  -24.5628 H   0  0  0  0  0  0  0  0  0  0  0  0
   -7.4133   -3.0833  -24.6454 H   0  0  0  0  0  0  0  0  0  0  0  0
   -8.9764   -3.5944  -22.0857 H   0  0  0  0  0  0  0  0  0  0  0  0
   -6.8058   -3.4016  -21.2024 H   0  0  0  0  0  0  0  0  0  0  0  0
   -6.2174   -2.4630  -22.5809 H   0  0  0  0  0  0  0  0  0  0  0  0
  -10.6325   -1.6249  -22.7110 C   0  0  0  0  0  0  0  0  0  0  0  0
  -11.2099   -2.5158  -21.8096 C   0  0  0  0  0  0  0  0  0  0  0  0
  -12.5733   -2.5292  -21.6269 C   0  0  0  0  0  0  0  0  0  0  0  0
  -13.0564   -3.3619  -20.6912 F   0  0  0  0  0  0  0  0  0  0  0  0
  -13.4292   -1.6905  -22.3355 C   0  0  0  0  0  0  0  0  0  0  0  0
  -12.8597   -0.7695  -23.1944 C   0  0  0  0  0  0  0  0  0  0  0  0
  -11.4744   -0.7054  -23.3574 C   0  0  0  0  0  0  0  0  0  0  0  0
  -10.9025    0.4211  -24.1640 C   0  0  0  0  0  0  0  0  0  0  0  0
  -11.5994    1.3178  -24.6171 O   0  0  0  0  0  0  0  0  0  0  0  0
  -13.4614   -0.0491  -23.7392 H   0  0  0  0  0  0  0  0  0  0  0  0
  -14.5020   -1.7439  -22.1913 H   0  0  0  0  0  0  0  0  0  0  0  0
  -10.6218   -3.1944  -21.2061 H   0  0  0  0  0  0  0  0  0  0  0  0
   -9.0512   -1.5466  -25.0081 H   0  0  0  0  0  0  0  0  0  0  0  0
   -7.7412   -0.6127  -24.2215 H   0  0  0  0  0  0  0  0  0  0  0  0
   -8.2553    1.2716  -25.7351 H   0  0  0  0  0  0  0  0  0  0  0  0
   -9.6278    2.2471  -25.1398 H   0  0  0  0  0  0  0  0  0  0  0  0
   -9.3518    2.8437  -22.6689 H   0  0  0  0  0  0  0  0  0  0  0  0
   -8.0419    3.8633  -21.0612 H   0  0  0  0  0  0  0  0  0  0  0  0
   -6.8772    2.5143  -21.4042 H   0  0  0  0  0  0  0  0  0  0  0  0
   -6.7386    4.0833  -22.2351 H   0  0  0  0  0  0  0  0  0  0  0  0
  1  2  1  0
  2  3  1  0
  3  4  2  0
  3  5  1  0
  5  6  1  0
  6  7  1  0
  8  7  1  6
  8  9  1  0
  9 10  2  0
  9 11  1  0
 11 12  1  0
 12 13  2  0
 13 14  1  0
 14 15  2  0
 15 16  1  0
 16 17  2  0
 17 18  1  0
 18 19  2  0
 19 20  1  0
 20 21  2  0
 20 22  1  0
 19 23  1  0
 18 24  1  0
 17 25  1  0
 15 26  1  0
 13 27  1  0
 11 28  1  0
 28 29  1  0
 29 30  1  0
 30 31  1  0
 31 32  1  0
 32 33  1  0
 33 34  1  0
 33 35  1  0
 33 36  1  0
 32 37  1  0
 37 38  1  0
 37 39  1  0
 37 40  1  0
 32 41  1  0
 30 42  1  0
 30 43  1  0
 29 44  1  1
 28 45  1  0
 28 46  1  0
  8 47  1  0
 47 48  2  0
 48 49  1  0
 49 50  1  0
 49 51  2  0
 51 52  1  0
 52 53  2  0
 53 54  1  0
 54 55  2  0
 52 56  1  0
 51 57  1  0
 48 58  1  0
  7 59  1  0
  7 60  1  0
  5 61  1  0
  5 62  1  0
  2 63  1  0
  1 64  1  0
  1 65  1  0
  1 66  1  0
 54  6  1  0
 29  8  1  0
 53 47  1  0
 21 12  1  0
 21 16  1  0
M  END
>  <cnnaffinities>  (48) 
[6.40171, 6.11783, 6.28087, 6.22565]

>  <score>  (48) 
6.40171

>  <index>  (48) 
50

>  <Smiles>  (48) 
C(N(C(=O)C(N1C([C@@]2(C(=O)N(c3c(nc(c4c(c(c(c(c34)[H])[H])[H])[H])[H])[H])C([C@@]2(C(OC(C([H])([H])[H])(C([H])([H])[H])[H])([H])[H])[H])([H])[H])c2c(c(F)c(c(c2C1=O)[H])[H])[H])([H])[H])([H])[H])[H])([H])([H])[H]

>  <h>  (48) 
<NA>

>  <Training>  (48) 
True

>  <Success>  (48) 
True

>  <enamine_searched>  (48) 
False

>  <enamine_id>  (48) 
nan

$$$$

     RDKit          3D

 50 52  0  0  0  0  0  0  0  0999 V2000
  -11.5830   -0.2623  -25.0501 C   0  0  0  0  0  0  0  0  0  0  0  0
  -10.7925   -0.0086  -24.0111 C   0  0  0  0  0  0  0  0  0  0  0  0
  -10.6875   -0.9483  -22.8220 C   0  0  0  0  0  0  0  0  0  0  0  0
   -9.3331   -1.4336  -22.5707 N   0  0  0  0  0  0  0  0  0  0  0  0
   -8.6456   -0.8414  -21.5246 C   0  0  0  0  0  0  0  0  0  0  0  0
   -9.1463    0.0324  -20.8193 O   0  0  0  0  0  0  0  0  0  0  0  0
   -7.3940   -1.3274  -21.2663 N   0  0  0  0  0  0  0  0  0  0  0  0
   -6.6134   -0.8058  -20.2063 C   0  0  0  0  0  0  0  0  0  0  0  0
   -6.9415   -1.0466  -18.8929 C   0  0  0  0  0  0  0  0  0  0  0  0
   -6.2468   -0.5637  -17.8351 N   0  0  0  0  0  0  0  0  0  0  0  0
   -5.2068    0.1945  -18.0975 C   0  0  0  0  0  0  0  0  0  0  0  0
   -4.7566    0.5183  -19.4102 C   0  0  0  0  0  0  0  0  0  0  0  0
   -3.6369    1.3577  -19.6482 C   0  0  0  0  0  0  0  0  0  0  0  0
   -3.2548    1.6596  -20.9288 C   0  0  0  0  0  0  0  0  0  0  0  0
   -3.9700    1.1453  -22.0325 C   0  0  0  0  0  0  0  0  0  0  0  0
   -5.0652    0.3378  -21.8293 C   0  0  0  0  0  0  0  0  0  0  0  0
   -5.4742   -0.0038  -20.5095 C   0  0  0  0  0  0  0  0  0  0  0  0
   -5.6289   -0.0332  -22.6834 H   0  0  0  0  0  0  0  0  0  0  0  0
   -3.6584    1.3984  -23.0436 H   0  0  0  0  0  0  0  0  0  0  0  0
   -2.3994    2.3062  -21.1026 H   0  0  0  0  0  0  0  0  0  0  0  0
   -3.1084    1.7616  -18.7887 H   0  0  0  0  0  0  0  0  0  0  0  0
   -4.6513    0.5942  -17.2492 H   0  0  0  0  0  0  0  0  0  0  0  0
   -7.8047   -1.6678  -18.6626 H   0  0  0  0  0  0  0  0  0  0  0  0
   -6.9728   -1.9501  -21.9398 H   0  0  0  0  0  0  0  0  0  0  0  0
   -8.7353   -2.2182  -23.6103 C   0  0  0  0  0  0  0  0  0  0  0  0
   -9.1726   -3.5197  -23.8605 C   0  0  0  0  0  0  0  0  0  0  0  0
   -8.5779   -4.2530  -24.8819 C   0  0  0  0  0  0  0  0  0  0  0  0
   -7.5858   -3.6966  -25.6809 C   0  0  0  0  0  0  0  0  0  0  0  0
   -7.1979   -2.3863  -25.4451 C   0  0  0  0  0  0  0  0  0  0  0  0
   -5.9646   -1.6641  -26.4333 Cl  0  0  0  0  0  0  0  0  0  0  0  0
   -7.7637   -1.6381  -24.4238 C   0  0  0  0  0  0  0  0  0  0  0  0
   -7.4808   -0.5982  -24.2736 H   0  0  0  0  0  0  0  0  0  0  0  0
   -7.1116   -4.2668  -26.4717 H   0  0  0  0  0  0  0  0  0  0  0  0
   -8.9008   -5.2728  -25.0637 H   0  0  0  0  0  0  0  0  0  0  0  0
   -9.9761   -3.9506  -23.2624 H   0  0  0  0  0  0  0  0  0  0  0  0
  -11.3287   -1.8140  -23.0126 H   0  0  0  0  0  0  0  0  0  0  0  0
  -11.0209   -0.4761  -21.8978 H   0  0  0  0  0  0  0  0  0  0  0  0
   -9.8973    1.1947  -24.1415 C   0  0  0  0  0  0  0  0  0  0  0  0
   -9.6165    1.6565  -25.2441 O   0  0  0  0  0  0  0  0  0  0  0  0
   -9.3895    1.7388  -23.0085 N   0  0  0  0  0  0  0  0  0  0  0  0
   -8.1549    2.4911  -23.1402 C   0  0  0  0  0  0  0  0  0  0  0  0
   -7.5359    2.7974  -21.7935 C   0  0  0  0  0  0  0  0  0  0  0  0
   -7.5585    1.9223  -21.1371 H   0  0  0  0  0  0  0  0  0  0  0  0
   -6.4903    3.0999  -21.8932 H   0  0  0  0  0  0  0  0  0  0  0  0
   -8.0673    3.5991  -21.2829 H   0  0  0  0  0  0  0  0  0  0  0  0
   -7.4309    1.8991  -23.7113 H   0  0  0  0  0  0  0  0  0  0  0  0
   -8.3598    3.3905  -23.7269 H   0  0  0  0  0  0  0  0  0  0  0  0
   -9.5918    1.3418  -22.1021 H   0  0  0  0  0  0  0  0  0  0  0  0
  -11.5900    0.3985  -25.9127 H   0  0  0  0  0  0  0  0  0  0  0  0
  -12.2516   -1.1182  -25.0483 H   0  0  0  0  0  0  0  0  0  0  0  0
  1  2  2  0
  2  3  1  0
  3  4  1  0
  4  5  1  0
  5  6  2  0
  5  7  1  0
  7  8  1  0
  8  9  2  0
  9 10  1  0
 10 11  2  0
 11 12  1  0
 12 13  2  0
 13 14  1  0
 14 15  2  0
 15 16  1  0
 16 17  2  0
 16 18  1  0
 15 19  1  0
 14 20  1  0
 13 21  1  0
 11 22  1  0
  9 23  1  0
  7 24  1  0
  4 25  1  0
 25 26  2  0
 26 27  1  0
 27 28  2  0
 28 29  1  0
 29 30  1  0
 29 31  2  0
 31 32  1  0
 28 33  1  0
 27 34  1  0
 26 35  1  0
  3 36  1  0
  3 37  1  0
  2 38  1  0
 38 39  2  0
 38 40  1  0
 40 41  1  0
 41 42  1  0
 42 43  1  0
 42 44  1  0
 42 45  1  0
 41 46  1  0
 41 47  1  0
 40 48  1  0
  1 49  1  0
  1 50  1  0
 17  8  1  0
 31 25  1  0
 17 12  1  0
M  END
>  <cnnaffinities>  (49) 
[6.01341]

>  <score>  (49) 
6.01341

>  <index>  (49) 
51

>  <Smiles>  (49) 
C(=C(C(N(C(=O)N(c1c(nc(c2c(c(c(c(c12)[H])[H])[H])[H])[H])[H])[H])c1c(c(c(c(Cl)c1[H])[H])[H])[H])([H])[H])C(=O)N(C(C([H])([H])[H])([H])[H])[H])([H])[H]

>  <h>  (49) 
<NA>

>  <Training>  (49) 
True

>  <Success>  (49) 
True

>  <enamine_searched>  (49) 
False

>  <enamine_id>  (49) 
nan

$$$$

     RDKit          3D

 57 60  0  0  0  0  0  0  0  0999 V2000
   -2.3328   -1.1826  -28.0583 C   0  0  0  0  0  0  0  0  0  0  0  0
   -3.4129   -0.1258  -27.8111 C   0  0  0  0  0  0  0  0  0  0  0  0
   -4.3379   -0.5215  -26.6596 C   0  0  0  0  0  0  0  0  0  0  0  0
   -4.0846   -0.2105  -25.5054 O   0  0  0  0  0  0  0  0  0  0  0  0
   -5.4458   -1.2822  -26.9798 N   0  0  0  0  0  0  0  0  0  0  0  0
   -6.4865   -1.6046  -26.0675 C   0  0  0  0  0  0  0  0  0  0  0  0
   -7.1298   -2.8452  -26.1533 C   0  0  0  0  0  0  0  0  0  0  0  0
   -8.1424   -3.1525  -25.2535 C   0  0  0  0  0  0  0  0  0  0  0  0
   -8.5436   -2.2506  -24.2754 C   0  0  0  0  0  0  0  0  0  0  0  0
   -7.9093   -1.0064  -24.2010 C   0  0  0  0  0  0  0  0  0  0  0  0
   -8.2908   -0.0490  -23.2064 N   0  0  0  0  0  0  0  0  0  0  0  0
   -8.9353    1.1934  -23.6529 C   0  0  0  0  0  0  0  0  0  0  0  0
  -10.3827    1.0203  -24.0511 C   0  0  0  0  0  0  0  0  0  0  0  0
  -10.6968    0.5275  -25.3128 C   0  0  0  0  0  0  0  0  0  0  0  0
  -12.0131    0.2700  -25.6623 C   0  0  0  0  0  0  0  0  0  0  0  0
  -13.0543    0.5514  -24.7792 C   0  0  0  0  0  0  0  0  0  0  0  0
  -12.7510    1.0621  -23.5202 C   0  0  0  0  0  0  0  0  0  0  0  0
  -11.4243    1.2921  -23.1636 C   0  0  0  0  0  0  0  0  0  0  0  0
  -11.1846    1.6632  -22.1738 H   0  0  0  0  0  0  0  0  0  0  0  0
  -13.5473    1.2671  -22.8067 H   0  0  0  0  0  0  0  0  0  0  0  0
  -14.0901    0.3629  -25.0527 H   0  0  0  0  0  0  0  0  0  0  0  0
  -12.1636   -0.2106  -26.6193 H   0  0  0  0  0  0  0  0  0  0  0  0
   -9.9145    0.2963  -26.0318 H   0  0  0  0  0  0  0  0  0  0  0  0
   -8.8552    1.9308  -22.8503 H   0  0  0  0  0  0  0  0  0  0  0  0
   -8.3654    1.5579  -24.5144 H   0  0  0  0  0  0  0  0  0  0  0  0
   -8.3788   -0.3510  -21.8504 C   0  0  0  0  0  0  0  0  0  0  0  0
   -9.1464    0.2427  -21.1171 O   0  0  0  0  0  0  0  0  0  0  0  0
   -7.4274   -1.4093  -21.2735 C   0  0  0  0  0  0  0  0  0  0  0  0
   -6.5677   -0.8262  -20.1725 C   0  0  0  0  0  0  0  0  0  0  0  0
   -6.8761   -1.0389  -18.8547 C   0  0  0  0  0  0  0  0  0  0  0  0
   -6.1946   -0.5308  -17.7921 N   0  0  0  0  0  0  0  0  0  0  0  0
   -5.1557    0.2229  -18.0645 C   0  0  0  0  0  0  0  0  0  0  0  0
   -4.7175    0.5334  -19.3784 C   0  0  0  0  0  0  0  0  0  0  0  0
   -3.5961    1.3636  -19.6230 C   0  0  0  0  0  0  0  0  0  0  0  0
   -3.2080    1.6548  -20.9027 C   0  0  0  0  0  0  0  0  0  0  0  0
   -3.9273    1.1226  -21.9984 C   0  0  0  0  0  0  0  0  0  0  0  0
   -5.0180    0.3124  -21.7922 C   0  0  0  0  0  0  0  0  0  0  0  0
   -5.4430   -0.0042  -20.4751 C   0  0  0  0  0  0  0  0  0  0  0  0
   -5.5614   -0.0805  -22.6531 H   0  0  0  0  0  0  0  0  0  0  0  0
   -3.6195    1.3529  -23.0143 H   0  0  0  0  0  0  0  0  0  0  0  0
   -2.3512    2.3021  -21.0843 H   0  0  0  0  0  0  0  0  0  0  0  0
   -3.0612    1.7783  -18.7692 H   0  0  0  0  0  0  0  0  0  0  0  0
   -4.6016    0.6288  -17.2146 H   0  0  0  0  0  0  0  0  0  0  0  0
   -7.7298   -1.6606  -18.5837 H   0  0  0  0  0  0  0  0  0  0  0  0
   -8.0542   -2.2039  -20.8459 H   0  0  0  0  0  0  0  0  0  0  0  0
   -6.8142   -1.8644  -22.0600 H   0  0  0  0  0  0  0  0  0  0  0  0
   -6.9077   -0.6776  -25.1125 C   0  0  0  0  0  0  0  0  0  0  0  0
   -6.4408    0.2984  -25.0714 H   0  0  0  0  0  0  0  0  0  0  0  0
   -9.3447   -2.5018  -23.5801 H   0  0  0  0  0  0  0  0  0  0  0  0
   -8.6282   -4.1203  -25.3080 H   0  0  0  0  0  0  0  0  0  0  0  0
   -6.8356   -3.5785  -26.9019 H   0  0  0  0  0  0  0  0  0  0  0  0
   -5.4829   -1.7229  -27.8893 H   0  0  0  0  0  0  0  0  0  0  0  0
   -2.9353    0.8093  -27.5064 H   0  0  0  0  0  0  0  0  0  0  0  0
   -3.9669    0.0802  -28.7389 H   0  0  0  0  0  0  0  0  0  0  0  0
   -2.7836   -2.1348  -28.3578 H   0  0  0  0  0  0  0  0  0  0  0  0
   -1.6408   -0.8715  -28.8517 H   0  0  0  0  0  0  0  0  0  0  0  0
   -1.7407   -1.3578  -27.1524 H   0  0  0  0  0  0  0  0  0  0  0  0
  1  2  1  0
  2  3  1  0
  3  4  2  0
  3  5  1  0
  5  6  1  0
  6  7  2  0
  7  8  1  0
  8  9  2  0
  9 10  1  0
 10 11  1  0
 11 12  1  0
 12 13  1  0
 13 14  2  0
 14 15  1  0
 15 16  2  0
 16 17  1  0
 17 18  2  0
 18 19  1  0
 17 20  1  0
 16 21  1  0
 15 22  1  0
 14 23  1  0
 12 24  1  0
 12 25  1  0
 11 26  1  0
 26 27  2  0
 26 28  1  0
 28 29  1  0
 29 30  2  0
 30 31  1  0
 31 32  2  0
 32 33  1  0
 33 34  2  0
 34 35  1  0
 35 36  2  0
 36 37  1  0
 37 38  2  0
 37 39  1  0
 36 40  1  0
 35 41  1  0
 34 42  1  0
 32 43  1  0
 30 44  1  0
 28 45  1  0
 28 46  1  0
 10 47  2  0
 47 48  1  0
  9 49  1  0
  8 50  1  0
  7 51  1  0
  5 52  1  0
  2 53  1  0
  2 54  1  0
  1 55  1  0
  1 56  1  0
  1 57  1  0
 47  6  1  0
 18 13  1  0
 38 29  1  0
 38 33  1  0
M  END
>  <cnnaffinities>  (50) 
[5.57639, 5.57117, 5.71372, 5.71177, 5.44842, 5.44415, 6.13776, 5.6381, 5.63807, 5.78941, 5.35539]

>  <score>  (50) 
5.57639

>  <index>  (50) 
52

>  <Smiles>  (50) 
C(C(C(=O)N(c1c(c(c(c(N(C(c2c(c(c(c(c2[H])[H])[H])[H])[H])([H])[H])C(=O)C(c2c(nc(c3c(c(c(c(c23)[H])[H])[H])[H])[H])[H])([H])[H])c1[H])[H])[H])[H])[H])([H])[H])([H])([H])[H]

>  <h>  (50) 
<NA>

>  <Training>  (50) 
True

>  <Success>  (50) 
True

>  <enamine_searched>  (50) 
False

>  <enamine_id>  (50) 
nan

$$$$

     RDKit          3D

 59 63  0  0  0  0  0  0  0  0999 V2000
  -13.5421   -0.5016  -25.0094 C   0  0  0  0  0  0  0  0  0  0  0  0
  -14.2663   -1.7328  -24.4623 C   0  0  0  0  0  0  0  0  0  0  0  0
  -13.3141   -2.6651  -23.8643 N   0  0  0  0  0  0  0  0  0  0  0  0
  -12.8252   -2.4080  -22.6243 C   0  0  0  0  0  0  0  0  0  0  0  0
  -12.9774   -1.3224  -22.0820 O   0  0  0  0  0  0  0  0  0  0  0  0
  -12.0740   -3.5358  -21.9162 C   0  0  0  0  0  0  0  0  0  0  0  0
  -10.6702   -3.6559  -22.2982 N   0  0  0  0  0  0  0  0  0  0  0  0
   -9.6242   -3.0422  -21.4941 C   0  0  0  0  0  0  0  0  0  0  0  0
   -8.3496   -2.6655  -22.3164 C   0  0  2  0  0  0  0  0  0  0  0  0
   -7.2153   -2.4771  -21.2983 C   0  0  0  0  0  0  0  0  0  0  0  0
   -6.5249   -3.3428  -20.7980 O   0  0  0  0  0  0  0  0  0  0  0  0
   -7.1109   -1.1303  -21.0270 N   0  0  0  0  0  0  0  0  0  0  0  0
   -6.3174   -0.6359  -19.9679 C   0  0  0  0  0  0  0  0  0  0  0  0
   -6.6127   -0.9115  -18.6593 C   0  0  0  0  0  0  0  0  0  0  0  0
   -5.9742   -0.3386  -17.6068 N   0  0  0  0  0  0  0  0  0  0  0  0
   -4.9843    0.4863  -17.8632 C   0  0  0  0  0  0  0  0  0  0  0  0
   -4.5231    0.7979  -19.1781 C   0  0  0  0  0  0  0  0  0  0  0  0
   -3.3946    1.6241  -19.4458 C   0  0  0  0  0  0  0  0  0  0  0  0
   -2.9914    1.8469  -20.7357 C   0  0  0  0  0  0  0  0  0  0  0  0
   -3.6862    1.2656  -21.8215 C   0  0  0  0  0  0  0  0  0  0  0  0
   -4.7778    0.4713  -21.5892 C   0  0  0  0  0  0  0  0  0  0  0  0
   -5.2171    0.2228  -20.2640 C   0  0  0  0  0  0  0  0  0  0  0  0
   -5.3051   -0.0009  -22.4110 H   0  0  0  0  0  0  0  0  0  0  0  0
   -3.3591    1.4429  -22.8419 H   0  0  0  0  0  0  0  0  0  0  0  0
   -2.1316    2.4793  -20.9407 H   0  0  0  0  0  0  0  0  0  0  0  0
   -2.8620    2.0790  -18.6130 H   0  0  0  0  0  0  0  0  0  0  0  0
   -4.4844    0.9300  -17.0010 H   0  0  0  0  0  0  0  0  0  0  0  0
   -7.4117   -1.6065  -18.4085 H   0  0  0  0  0  0  0  0  0  0  0  0
   -8.0388   -0.3074  -21.7923 C   0  0  0  0  0  0  0  0  0  0  0  0
   -8.4388   -1.2304  -22.9528 C   0  0  2  0  0  0  0  0  0  0  0  0
   -9.7494   -0.8488  -23.6384 C   0  0  0  0  0  0  0  0  0  0  0  0
   -9.6301    0.0610  -24.2385 H   0  0  0  0  0  0  0  0  0  0  0  0
  -10.5517   -0.6694  -22.9117 H   0  0  0  0  0  0  0  0  0  0  0  0
  -10.0801   -1.6396  -24.3214 H   0  0  0  0  0  0  0  0  0  0  0  0
   -7.6364   -1.2007  -23.7030 H   0  0  0  0  0  0  0  0  0  0  0  0
   -7.5745    0.6309  -22.1118 H   0  0  0  0  0  0  0  0  0  0  0  0
   -8.9149   -0.0342  -21.1825 H   0  0  0  0  0  0  0  0  0  0  0  0
   -7.9978   -3.7554  -23.3032 C   0  0  0  0  0  0  0  0  0  0  0  0
   -6.7086   -3.8618  -23.8522 C   0  0  0  0  0  0  0  0  0  0  0  0
   -6.4466   -4.8020  -24.8346 C   0  0  0  0  0  0  0  0  0  0  0  0
   -4.8668   -4.8692  -25.5587 Cl  0  0  0  0  0  0  0  0  0  0  0  0
   -7.4260   -5.6908  -25.2780 C   0  0  0  0  0  0  0  0  0  0  0  0
   -8.6763   -5.6228  -24.7003 C   0  0  0  0  0  0  0  0  0  0  0  0
   -8.9621   -4.6621  -23.7309 C   0  0  0  0  0  0  0  0  0  0  0  0
  -10.3689   -4.5784  -23.2541 C   0  0  0  0  0  0  0  0  0  0  0  0
  -11.2169   -5.3125  -23.7371 O   0  0  0  0  0  0  0  0  0  0  0  0
   -9.4677   -6.3032  -24.9972 H   0  0  0  0  0  0  0  0  0  0  0  0
   -7.2057   -6.4144  -26.0569 H   0  0  0  0  0  0  0  0  0  0  0  0
   -5.8943   -3.2437  -23.4896 H   0  0  0  0  0  0  0  0  0  0  0  0
   -9.3246   -3.7147  -20.6776 H   0  0  0  0  0  0  0  0  0  0  0  0
  -10.0592   -2.1502  -21.0304 H   0  0  0  0  0  0  0  0  0  0  0  0
  -12.5611   -4.4909  -22.1257 H   0  0  0  0  0  0  0  0  0  0  0  0
  -12.1761   -3.3042  -20.8579 H   0  0  0  0  0  0  0  0  0  0  0  0
  -13.2381   -3.6076  -24.2116 H   0  0  0  0  0  0  0  0  0  0  0  0
  -14.9804   -1.4307  -23.6848 H   0  0  0  0  0  0  0  0  0  0  0  0
  -14.8226   -2.2764  -25.2371 H   0  0  0  0  0  0  0  0  0  0  0  0
  -14.2393    0.3205  -25.1803 H   0  0  0  0  0  0  0  0  0  0  0  0
  -13.0205   -0.7356  -25.9441 H   0  0  0  0  0  0  0  0  0  0  0  0
  -12.8139   -0.1560  -24.2651 H   0  0  0  0  0  0  0  0  0  0  0  0
  1  2  1  0
  2  3  1  0
  3  4  1  0
  4  5  2  0
  4  6  1  0
  6  7  1  0
  7  8  1  0
  9  8  1  1
  9 10  1  0
 10 11  2  0
 10 12  1  0
 12 13  1  0
 13 14  2  0
 14 15  1  0
 15 16  2  0
 16 17  1  0
 17 18  2  0
 18 19  1  0
 19 20  2  0
 20 21  1  0
 21 22  2  0
 21 23  1  0
 20 24  1  0
 19 25  1  0
 18 26  1  0
 16 27  1  0
 14 28  1  0
 12 29  1  0
 29 30  1  0
 30 31  1  0
 31 32  1  0
 31 33  1  0
 31 34  1  0
 30 35  1  6
 29 36  1  0
 29 37  1  0
  9 38  1  0
 38 39  2  0
 39 40  1  0
 40 41  1  0
 40 42  2  0
 42 43  1  0
 43 44  2  0
 44 45  1  0
 45 46  2  0
 43 47  1  0
 42 48  1  0
 39 49  1  0
  8 50  1  0
  8 51  1  0
  6 52  1  0
  6 53  1  0
  3 54  1  0
  2 55  1  0
  2 56  1  0
  1 57  1  0
  1 58  1  0
  1 59  1  0
 45  7  1  0
 30  9  1  0
 44 38  1  0
 22 13  1  0
 22 17  1  0
M  END
>  <cnnaffinities>  (51) 
[6.40518]

>  <score>  (51) 
6.40518

>  <index>  (51) 
53

>  <Smiles>  (51) 
C(C(N(C(=O)C(N1C([C@@]2(C(=O)N(c3c(nc(c4c(c(c(c(c34)[H])[H])[H])[H])[H])[H])C([C@@]2(C([H])([H])[H])[H])([H])[H])c2c(c(Cl)c(c(c2C1=O)[H])[H])[H])([H])[H])([H])[H])[H])([H])[H])([H])([H])[H]

>  <h>  (51) 
<NA>

>  <Training>  (51) 
True

>  <Success>  (51) 
True

>  <enamine_searched>  (51) 
False

>  <enamine_id>  (51) 
nan

$$$$

     RDKit          3D

 40 43  0  0  0  0  0  0  0  0999 V2000
   -9.4331   -3.8988  -22.7389 C   0  0  0  0  0  0  0  0  0  0  0  0
   -8.6636   -2.7319  -22.3534 N   0  0  0  0  0  0  0  0  0  0  0  0
   -8.6820   -1.4718  -22.8822 C   0  0  0  0  0  0  0  0  0  0  0  0
   -9.5577   -1.0617  -24.0159 C   0  0  0  0  0  0  0  0  0  0  0  0
  -10.9759   -0.8018  -23.5440 C   0  0  0  0  0  0  0  0  0  0  0  0
  -11.9712   -1.7538  -23.7444 C   0  0  0  0  0  0  0  0  0  0  0  0
  -13.2884   -1.5150  -23.3551 C   0  0  0  0  0  0  0  0  0  0  0  0
  -13.6000   -0.3457  -22.6609 C   0  0  0  0  0  0  0  0  0  0  0  0
  -12.5902    0.5782  -22.3895 C   0  0  0  0  0  0  0  0  0  0  0  0
  -11.2870    0.3585  -22.8350 C   0  0  0  0  0  0  0  0  0  0  0  0
  -10.4872    1.0646  -22.6050 H   0  0  0  0  0  0  0  0  0  0  0  0
  -12.8134    1.4702  -21.8045 H   0  0  0  0  0  0  0  0  0  0  0  0
  -14.6123   -0.1721  -22.2926 H   0  0  0  0  0  0  0  0  0  0  0  0
  -14.0664   -2.2460  -23.5675 H   0  0  0  0  0  0  0  0  0  0  0  0
  -11.6731   -2.7182  -24.1465 H   0  0  0  0  0  0  0  0  0  0  0  0
   -9.1175   -0.1632  -24.4571 H   0  0  0  0  0  0  0  0  0  0  0  0
   -9.5645   -1.8253  -24.8038 H   0  0  0  0  0  0  0  0  0  0  0  0
   -7.9317   -0.6486  -22.2110 N   0  0  0  0  0  0  0  0  0  0  0  0
   -7.4046   -1.3919  -21.1911 N   0  0  0  0  0  0  0  0  0  0  0  0
   -6.5984   -0.8204  -20.1759 C   0  0  0  0  0  0  0  0  0  0  0  0
   -6.9055   -1.0510  -18.8572 C   0  0  0  0  0  0  0  0  0  0  0  0
   -6.2154   -0.5340  -17.8146 N   0  0  0  0  0  0  0  0  0  0  0  0
   -5.1780    0.2163  -18.0933 C   0  0  0  0  0  0  0  0  0  0  0  0
   -4.7357    0.5207  -19.4070 C   0  0  0  0  0  0  0  0  0  0  0  0
   -3.6004    1.3436  -19.6334 C   0  0  0  0  0  0  0  0  0  0  0  0
   -3.1852    1.6115  -20.9070 C   0  0  0  0  0  0  0  0  0  0  0  0
   -3.8828    1.0558  -22.0052 C   0  0  0  0  0  0  0  0  0  0  0  0
   -4.9853    0.2599  -21.8146 C   0  0  0  0  0  0  0  0  0  0  0  0
   -5.4604   -0.0140  -20.5002 C   0  0  0  0  0  0  0  0  0  0  0  0
   -5.5336   -0.1508  -22.6556 H   0  0  0  0  0  0  0  0  0  0  0  0
   -3.5512    1.2855  -23.0135 H   0  0  0  0  0  0  0  0  0  0  0  0
   -2.3290    2.2591  -21.0818 H   0  0  0  0  0  0  0  0  0  0  0  0
   -3.0897    1.7616  -18.7694 H   0  0  0  0  0  0  0  0  0  0  0  0
   -4.6263    0.6173  -17.2435 H   0  0  0  0  0  0  0  0  0  0  0  0
   -7.7440   -1.6894  -18.5937 H   0  0  0  0  0  0  0  0  0  0  0  0
   -7.8402   -2.7071  -21.2343 C   0  0  0  0  0  0  0  0  0  0  0  0
   -7.5571   -3.6166  -20.4840 O   0  0  0  0  0  0  0  0  0  0  0  0
   -8.9187   -4.7652  -22.3224 H   0  0  0  0  0  0  0  0  0  0  0  0
  -10.4514   -3.8550  -22.3334 H   0  0  0  0  0  0  0  0  0  0  0  0
   -9.4680   -3.9831  -23.8301 H   0  0  0  0  0  0  0  0  0  0  0  0
  1  2  1  0
  2  3  1  0
  3  4  1  0
  4  5  1  0
  5  6  2  0
  6  7  1  0
  7  8  2  0
  8  9  1  0
  9 10  2  0
 10 11  1  0
  9 12  1  0
  8 13  1  0
  7 14  1  0
  6 15  1  0
  4 16  1  0
  4 17  1  0
  3 18  2  0
 18 19  1  0
 19 20  1  0
 20 21  2  0
 21 22  1  0
 22 23  2  0
 23 24  1  0
 24 25  2  0
 25 26  1  0
 26 27  2  0
 27 28  1  0
 28 29  2  0
 28 30  1  0
 27 31  1  0
 26 32  1  0
 25 33  1  0
 23 34  1  0
 21 35  1  0
 19 36  1  0
 36 37  2  0
  1 38  1  0
  1 39  1  0
  1 40  1  0
 36  2  1  0
 10  5  1  0
 29 20  1  0
 29 24  1  0
M  END
>  <cnnaffinities>  (52) 
[5.58165, 5.5737]

>  <score>  (52) 
5.58165

>  <index>  (52) 
54

>  <Smiles>  (52) 
C(n1c(C(c2c(c(c(c(c2[H])[H])[H])[H])[H])([H])[H])nn(c2c(nc(c3c(c(c(c(c23)[H])[H])[H])[H])[H])[H])c1=O)([H])([H])[H]

>  <h>  (52) 
<NA>

>  <Training>  (52) 
True

>  <Success>  (52) 
True

>  <enamine_searched>  (52) 
False

>  <enamine_id>  (52) 
nan

$$$$

     RDKit          3D

 61 66  0  0  0  0  0  0  0  0999 V2000
   -7.0052   -5.4622  -25.0469 C   0  0  0  0  0  0  0  0  0  0  0  0
   -7.3277   -4.7937  -23.8535 O   0  0  0  0  0  0  0  0  0  0  0  0
   -7.9816   -3.5721  -24.0864 C   0  0  0  0  0  0  0  0  0  0  0  0
   -8.2757   -2.9095  -22.7457 C   0  0  1  0  0  0  0  0  0  0  0  0
   -6.9993   -2.5577  -21.9617 C   0  0  0  0  0  0  0  0  0  0  0  0
   -7.3824   -1.3809  -21.2056 N   0  0  0  0  0  0  0  0  0  0  0  0
   -6.5973   -0.8119  -20.1757 C   0  0  0  0  0  0  0  0  0  0  0  0
   -6.9202   -1.0392  -18.8631 C   0  0  0  0  0  0  0  0  0  0  0  0
   -6.2266   -0.5417  -17.8094 N   0  0  0  0  0  0  0  0  0  0  0  0
   -5.1891    0.2152  -18.0800 C   0  0  0  0  0  0  0  0  0  0  0  0
   -4.7499    0.5345  -19.3970 C   0  0  0  0  0  0  0  0  0  0  0  0
   -3.6285    1.3716  -19.6376 C   0  0  0  0  0  0  0  0  0  0  0  0
   -3.2427    1.6662  -20.9163 C   0  0  0  0  0  0  0  0  0  0  0  0
   -3.9467    1.1309  -22.0162 C   0  0  0  0  0  0  0  0  0  0  0  0
   -5.0245    0.3016  -21.8092 C   0  0  0  0  0  0  0  0  0  0  0  0
   -5.4620   -0.0061  -20.4907 C   0  0  0  0  0  0  0  0  0  0  0  0
   -5.5853   -0.0724  -22.6610 H   0  0  0  0  0  0  0  0  0  0  0  0
   -3.6304    1.3887  -23.0249 H   0  0  0  0  0  0  0  0  0  0  0  0
   -2.3876    2.3122  -21.0930 H   0  0  0  0  0  0  0  0  0  0  0  0
   -3.0955    1.7726  -18.7811 H   0  0  0  0  0  0  0  0  0  0  0  0
   -4.6244    0.6145  -17.2354 H   0  0  0  0  0  0  0  0  0  0  0  0
   -7.7843   -1.6552  -18.6218 H   0  0  0  0  0  0  0  0  0  0  0  0
   -8.5764   -0.8129  -21.5857 C   0  0  0  0  0  0  0  0  0  0  0  0
   -9.0864    0.1472  -21.0459 O   0  0  0  0  0  0  0  0  0  0  0  0
   -9.1093   -1.5998  -22.8042 C   0  0  1  0  0  0  0  0  0  0  0  0
   -8.8316   -0.8245  -24.1126 C   0  0  0  0  0  0  0  0  0  0  0  0
   -9.6496    0.3639  -24.2269 N   0  0  0  0  0  0  0  0  0  0  0  0
   -9.0297    1.5959  -24.6735 C   0  0  0  0  0  0  0  0  0  0  0  0
   -8.2316    2.2778  -23.6018 C   0  0  0  0  0  0  0  0  0  0  0  0
   -6.8921    2.3719  -23.4215 C   0  0  0  0  0  0  0  0  0  0  0  0
   -6.6793    3.1384  -22.2976 N   0  0  0  0  0  4  0  0  0  0  0  0
   -7.8544    3.5288  -21.7983 C   0  0  0  0  0  0  0  0  0  0  0  0
   -8.8170    3.0005  -22.5742 N   0  0  0  0  0  0  0  0  0  0  0  0
   -9.7910    2.9372  -22.2919 H   0  0  0  0  0  0  0  0  0  0  0  0
   -8.0016    4.2165  -20.9737 H   0  0  0  0  0  0  0  0  0  0  0  0
   -5.7793    3.1794  -21.8458 H   0  0  0  0  0  0  0  0  0  0  0  0
   -6.0504    1.9600  -23.9610 H   0  0  0  0  0  0  0  0  0  0  0  0
   -9.8434    2.2336  -25.0357 H   0  0  0  0  0  0  0  0  0  0  0  0
   -8.3887    1.3650  -25.5301 H   0  0  0  0  0  0  0  0  0  0  0  0
  -10.9989    0.3243  -24.0395 C   0  0  0  0  0  0  0  0  0  0  0  0
  -11.7473    1.2120  -24.4275 O   0  0  0  0  0  0  0  0  0  0  0  0
  -11.4940   -0.8656  -23.2862 C   0  0  0  0  0  0  0  0  0  0  0  0
  -12.8682   -0.9717  -23.1048 C   0  0  0  0  0  0  0  0  0  0  0  0
  -13.3802   -1.9163  -22.2436 C   0  0  0  0  0  0  0  0  0  0  0  0
  -12.4956   -2.7850  -21.6016 C   0  0  0  0  0  0  0  0  0  0  0  0
  -13.0748   -3.9402  -20.4361 Cl  0  0  0  0  0  0  0  0  0  0  0  0
  -11.1356   -2.7333  -21.8305 C   0  0  0  0  0  0  0  0  0  0  0  0
  -10.6065   -1.7690  -22.6876 C   0  0  0  0  0  0  0  0  0  0  0  0
  -10.4951   -3.4344  -21.3078 H   0  0  0  0  0  0  0  0  0  0  0  0
  -14.4400   -1.9521  -22.0311 H   0  0  0  0  0  0  0  0  0  0  0  0
  -13.5013   -0.2658  -23.6310 H   0  0  0  0  0  0  0  0  0  0  0  0
   -9.0451   -1.4924  -24.9558 H   0  0  0  0  0  0  0  0  0  0  0  0
   -7.7800   -0.5263  -24.1698 H   0  0  0  0  0  0  0  0  0  0  0  0
   -6.1565   -2.3512  -22.6361 H   0  0  0  0  0  0  0  0  0  0  0  0
   -6.6933   -3.3622  -21.2877 H   0  0  0  0  0  0  0  0  0  0  0  0
   -8.8314   -3.6413  -22.1599 H   0  0  0  0  0  0  0  0  0  0  0  0
   -8.9195   -3.7391  -24.6448 H   0  0  0  0  0  0  0  0  0  0  0  0
   -7.3444   -2.9114  -24.7009 H   0  0  0  0  0  0  0  0  0  0  0  0
   -6.5407   -6.4132  -24.7769 H   0  0  0  0  0  0  0  0  0  0  0  0
   -7.8977   -5.6702  -25.6596 H   0  0  0  0  0  0  0  0  0  0  0  0
   -6.2939   -4.8862  -25.6604 H   0  0  0  0  0  0  0  0  0  0  0  0
  1  2  1  0
  2  3  1  0
  3  4  1  0
  4  5  1  0
  5  6  1  0
  6  7  1  0
  7  8  2  0
  8  9  1  0
  9 10  2  0
 10 11  1  0
 11 12  2  0
 12 13  1  0
 13 14  2  0
 14 15  1  0
 15 16  2  0
 15 17  1  0
 14 18  1  0
 13 19  1  0
 12 20  1  0
 10 21  1  0
  8 22  1  0
  6 23  1  0
 23 24  2  0
 23 25  1  0
 25 26  1  6
 26 27  1  0
 27 28  1  0
 28 29  1  0
 29 30  2  0
 30 31  1  0
 31 32  2  0
 32 33  1  0
 33 34  1  0
 32 35  1  0
 31 36  1  0
 30 37  1  0
 28 38  1  0
 28 39  1  0
 27 40  1  0
 40 41  2  0
 40 42  1  0
 42 43  2  0
 43 44  1  0
 44 45  2  0
 45 46  1  0
 45 47  1  0
 47 48  2  0
 47 49  1  0
 44 50  1  0
 43 51  1  0
 26 52  1  0
 26 53  1  0
  5 54  1  0
  5 55  1  0
  4 56  1  1
  3 57  1  0
  3 58  1  0
  1 59  1  0
  1 60  1  0
  1 61  1  0
 25  4  1  0
 33 29  1  0
 48 42  1  0
 16  7  1  0
 48 25  1  0
 16 11  1  0
M  CHG  1  31   1
M  END
>  <cnnaffinities>  (53) 
[6.31137, 6.76175]

>  <score>  (53) 
6.31137

>  <index>  (53) 
55

>  <Smiles>  (53) 
C(OC([C@]1(C(N(c2c(nc(c3c(c(c(c(c23)[H])[H])[H])[H])[H])[H])C(=O)[C@]21C(N(C(c1c([n+](c(n1[H])[H])[H])[H])([H])[H])C(=O)c1c(c(c(Cl)c(c21)[H])[H])[H])([H])[H])([H])[H])[H])([H])[H])([H])([H])[H]

>  <h>  (53) 
<NA>

>  <Training>  (53) 
True

>  <Success>  (53) 
True

>  <enamine_searched>  (53) 
False

>  <enamine_id>  (53) 
nan

$$$$

     RDKit          3D

 57 62  0  0  0  0  0  0  0  0999 V2000
   -9.7390   -0.6937  -23.6203 C   0  0  0  0  0  0  0  0  0  0  0  0
   -8.4269   -1.1166  -22.9622 C   0  0  1  0  0  0  0  0  0  0  0  0
   -8.0312   -0.2118  -21.7831 C   0  0  0  0  0  0  0  0  0  0  0  0
   -7.1279   -1.0537  -21.0132 N   0  0  0  0  0  0  0  0  0  0  0  0
   -6.3155   -0.5823  -19.9555 C   0  0  0  0  0  0  0  0  0  0  0  0
   -6.5941   -0.8710  -18.6446 C   0  0  0  0  0  0  0  0  0  0  0  0
   -5.9441   -0.3072  -17.5922 N   0  0  0  0  0  0  0  0  0  0  0  0
   -4.9584    0.5194  -17.8524 C   0  0  0  0  0  0  0  0  0  0  0  0
   -4.5024    0.8235  -19.1681 C   0  0  0  0  0  0  0  0  0  0  0  0
   -3.3756    1.6503  -19.4254 C   0  0  0  0  0  0  0  0  0  0  0  0
   -2.9627    1.8743  -20.7093 C   0  0  0  0  0  0  0  0  0  0  0  0
   -3.6503    1.2939  -21.7983 C   0  0  0  0  0  0  0  0  0  0  0  0
   -4.7505    0.5046  -21.5749 C   0  0  0  0  0  0  0  0  0  0  0  0
   -5.1996    0.2565  -20.2538 C   0  0  0  0  0  0  0  0  0  0  0  0
   -5.2809    0.0444  -22.3994 H   0  0  0  0  0  0  0  0  0  0  0  0
   -3.3154    1.4737  -22.8139 H   0  0  0  0  0  0  0  0  0  0  0  0
   -2.0991    2.5038  -20.9052 H   0  0  0  0  0  0  0  0  0  0  0  0
   -2.8585    2.1013  -18.5825 H   0  0  0  0  0  0  0  0  0  0  0  0
   -4.4532    0.9718  -16.9968 H   0  0  0  0  0  0  0  0  0  0  0  0
   -7.3902   -1.5670  -18.3898 H   0  0  0  0  0  0  0  0  0  0  0  0
   -7.2391   -2.3951  -21.3060 C   0  0  0  0  0  0  0  0  0  0  0  0
   -6.5898   -3.2727  -20.7766 O   0  0  0  0  0  0  0  0  0  0  0  0
   -8.3466   -2.5707  -22.3612 C   0  0  1  0  0  0  0  0  0  0  0  0
   -9.6192   -2.9829  -21.5679 C   0  0  0  0  0  0  0  0  0  0  0  0
  -10.6358   -3.6351  -22.3820 N   0  0  0  0  0  0  0  0  0  0  0  0
  -12.0317   -3.5760  -21.9532 C   0  0  0  0  0  0  0  0  0  0  0  0
  -12.8041   -2.5548  -22.7395 C   0  0  0  0  0  0  0  0  0  0  0  0
  -12.9084   -1.3457  -22.1822 N   0  0  0  0  0  0  0  0  0  0  0  0
  -13.5640   -0.4401  -22.9090 C   0  0  0  0  0  0  0  0  0  0  0  0
  -14.0133   -0.6870  -24.1980 C   0  0  0  0  0  0  0  0  0  0  0  0
  -13.8629   -1.9832  -24.6619 C   0  0  0  0  0  0  0  0  0  0  0  0
  -13.2515   -2.9190  -23.9426 N   0  0  0  0  0  0  0  0  0  0  0  0
  -14.2176   -2.2782  -25.6507 H   0  0  0  0  0  0  0  0  0  0  0  0
  -14.4406    0.0823  -24.8259 H   0  0  0  0  0  0  0  0  0  0  0  0
  -13.7060    0.5349  -22.4453 H   0  0  0  0  0  0  0  0  0  0  0  0
  -12.0603   -3.2907  -20.9061 H   0  0  0  0  0  0  0  0  0  0  0  0
  -12.4860   -4.5595  -22.0833 H   0  0  0  0  0  0  0  0  0  0  0  0
  -10.3106   -4.5635  -23.3266 C   0  0  0  0  0  0  0  0  0  0  0  0
  -11.1212   -5.3387  -23.8010 O   0  0  0  0  0  0  0  0  0  0  0  0
   -8.9059   -4.5838  -23.7946 C   0  0  0  0  0  0  0  0  0  0  0  0
   -8.5816   -5.5658  -24.7291 C   0  0  0  0  0  0  0  0  0  0  0  0
   -7.3142   -5.6442  -25.2589 C   0  0  0  0  0  0  0  0  0  0  0  0
   -6.3729   -4.7362  -24.7912 C   0  0  0  0  0  0  0  0  0  0  0  0
   -5.1296   -4.7956  -25.2943 F   0  0  0  0  0  0  0  0  0  0  0  0
   -6.6620   -3.7743  -23.8411 C   0  0  0  0  0  0  0  0  0  0  0  0
   -7.9708   -3.6532  -23.3504 C   0  0  0  0  0  0  0  0  0  0  0  0
   -5.8529   -3.1568  -23.4676 H   0  0  0  0  0  0  0  0  0  0  0  0
   -7.0515   -6.3900  -26.0014 H   0  0  0  0  0  0  0  0  0  0  0  0
   -9.3541   -6.2686  -25.0152 H   0  0  0  0  0  0  0  0  0  0  0  0
   -9.3240   -3.6364  -20.7344 H   0  0  0  0  0  0  0  0  0  0  0  0
  -10.0664   -2.0885  -21.1201 H   0  0  0  0  0  0  0  0  0  0  0  0
   -8.9161    0.0700  -21.1862 H   0  0  0  0  0  0  0  0  0  0  0  0
   -7.5461    0.7217  -22.0864 H   0  0  0  0  0  0  0  0  0  0  0  0
   -7.6211   -1.0802  -23.7125 H   0  0  0  0  0  0  0  0  0  0  0  0
  -10.4986   -0.4362  -22.8709 H   0  0  0  0  0  0  0  0  0  0  0  0
   -9.5805    0.1842  -24.2586 H   0  0  0  0  0  0  0  0  0  0  0  0
  -10.1406   -1.4950  -24.2479 H   0  0  0  0  0  0  0  0  0  0  0  0
  1  2  1  0
  2  3  1  0
  3  4  1  0
  4  5  1  0
  5  6  2  0
  6  7  1  0
  7  8  2  0
  8  9  1  0
  9 10  2  0
 10 11  1  0
 11 12  2  0
 12 13  1  0
 13 14  2  0
 13 15  1  0
 12 16  1  0
 11 17  1  0
 10 18  1  0
  8 19  1  0
  6 20  1  0
  4 21  1  0
 21 22  2  0
 21 23  1  0
 23 24  1  1
 24 25  1  0
 25 26  1  0
 26 27  1  0
 27 28  2  0
 28 29  1  0
 29 30  2  0
 30 31  1  0
 31 32  2  0
 31 33  1  0
 30 34  1  0
 29 35  1  0
 26 36  1  0
 26 37  1  0
 25 38  1  0
 38 39  2  0
 38 40  1  0
 40 41  2  0
 41 42  1  0
 42 43  2  0
 43 44  1  0
 43 45  1  0
 45 46  2  0
 45 47  1  0
 42 48  1  0
 41 49  1  0
 24 50  1  0
 24 51  1  0
  3 52  1  0
  3 53  1  0
  2 54  1  6
  1 55  1  0
  1 56  1  0
  1 57  1  0
 23  2  1  0
 32 27  1  0
 46 40  1  0
 14  5  1  0
 46 23  1  0
 14  9  1  0
M  END
>  <cnnaffinities>  (54) 
[6.71631, 6.69603]

>  <score>  (54) 
6.71631

>  <index>  (54) 
56

>  <Smiles>  (54) 
C([C@]1(C(N(c2c(nc(c3c(c(c(c(c23)[H])[H])[H])[H])[H])[H])C(=O)[C@]21C(N(C(c1nc(c(c(n1)[H])[H])[H])([H])[H])C(=O)c1c(c(c(F)c(c21)[H])[H])[H])([H])[H])([H])[H])[H])([H])([H])[H]

>  <h>  (54) 
<NA>

>  <Training>  (54) 
True

>  <Success>  (54) 
True

>  <enamine_searched>  (54) 
False

>  <enamine_id>  (54) 
nan

$$$$

     RDKit          3D

 59 63  0  0  0  0  0  0  0  0999 V2000
   -7.7121   -0.3232  -29.7927 C   0  0  0  0  0  0  0  0  0  0  0  0
   -7.9256   -1.4149  -28.8627 N   0  0  0  0  0  0  0  0  0  0  0  0
   -7.2260   -1.3877  -27.6943 C   0  0  0  0  0  0  0  0  0  0  0  0
   -6.3905   -0.5316  -27.4402 O   0  0  0  0  0  0  0  0  0  0  0  0
   -7.5540   -2.5213  -26.7218 C   0  0  0  0  0  0  0  0  0  0  0  0
   -8.4351   -2.0632  -25.6576 N   0  0  0  0  0  0  0  0  0  0  0  0
   -7.8760   -1.3730  -24.5005 C   0  0  0  0  0  0  0  0  0  0  0  0
   -8.7248   -1.6070  -23.2149 C   0  0  2  0  0  0  0  0  0  0  0  0
   -8.1435   -0.6645  -22.1435 C   0  0  0  0  0  0  0  0  0  0  0  0
   -8.2601    0.5455  -22.1161 O   0  0  0  0  0  0  0  0  0  0  0  0
   -7.4277   -1.4034  -21.2244 N   0  0  0  0  0  0  0  0  0  0  0  0
   -6.6194   -0.8195  -20.2113 C   0  0  0  0  0  0  0  0  0  0  0  0
   -6.9163   -1.0675  -18.8954 C   0  0  0  0  0  0  0  0  0  0  0  0
   -6.2391   -0.5613  -17.8363 N   0  0  0  0  0  0  0  0  0  0  0  0
   -5.2066    0.2034  -18.0993 C   0  0  0  0  0  0  0  0  0  0  0  0
   -4.7619    0.5128  -19.4144 C   0  0  0  0  0  0  0  0  0  0  0  0
   -3.6250    1.3348  -19.6294 C   0  0  0  0  0  0  0  0  0  0  0  0
   -3.1996    1.6069  -20.8989 C   0  0  0  0  0  0  0  0  0  0  0  0
   -3.8875    1.0668  -22.0081 C   0  0  0  0  0  0  0  0  0  0  0  0
   -4.9925    0.2757  -21.8252 C   0  0  0  0  0  0  0  0  0  0  0  0
   -5.4720   -0.0147  -20.5158 C   0  0  0  0  0  0  0  0  0  0  0  0
   -5.5193   -0.1176  -22.6884 H   0  0  0  0  0  0  0  0  0  0  0  0
   -3.5370    1.2865  -23.0111 H   0  0  0  0  0  0  0  0  0  0  0  0
   -2.3322    2.2386  -21.0619 H   0  0  0  0  0  0  0  0  0  0  0  0
   -3.1144    1.7476  -18.7633 H   0  0  0  0  0  0  0  0  0  0  0  0
   -4.6543    0.6112  -17.2523 H   0  0  0  0  0  0  0  0  0  0  0  0
   -7.7680   -1.6993  -18.6516 H   0  0  0  0  0  0  0  0  0  0  0  0
   -7.3588   -2.8148  -21.5572 C   0  0  0  0  0  0  0  0  0  0  0  0
   -8.5520   -3.0351  -22.5197 C   0  0  0  0  0  0  0  0  0  0  0  0
   -8.2709   -4.1903  -23.4824 C   0  0  0  0  0  0  0  0  0  0  0  0
   -7.3580   -4.0224  -24.0647 H   0  0  0  0  0  0  0  0  0  0  0  0
   -9.1080   -4.3143  -24.1765 H   0  0  0  0  0  0  0  0  0  0  0  0
   -8.1450   -5.1212  -22.9170 H   0  0  0  0  0  0  0  0  0  0  0  0
   -9.7969   -3.3986  -21.6887 C   0  0  0  0  0  0  0  0  0  0  0  0
  -10.0234   -2.6313  -20.9423 H   0  0  0  0  0  0  0  0  0  0  0  0
  -10.6761   -3.4988  -22.3324 H   0  0  0  0  0  0  0  0  0  0  0  0
   -9.6426   -4.3533  -21.1723 H   0  0  0  0  0  0  0  0  0  0  0  0
   -6.3967   -3.0708  -22.0333 H   0  0  0  0  0  0  0  0  0  0  0  0
   -7.4343   -3.4211  -20.6484 H   0  0  0  0  0  0  0  0  0  0  0  0
  -10.1446   -1.2207  -23.6027 C   0  0  0  0  0  0  0  0  0  0  0  0
  -10.9941   -0.5713  -22.7041 C   0  0  0  0  0  0  0  0  0  0  0  0
  -12.2640   -0.1744  -23.0766 C   0  0  0  0  0  0  0  0  0  0  0  0
  -13.1462    0.9159  -22.0500 Cl  0  0  0  0  0  0  0  0  0  0  0  0
  -12.8104   -0.5572  -24.2970 C   0  0  0  0  0  0  0  0  0  0  0  0
  -11.9674   -1.1592  -25.2065 C   0  0  0  0  0  0  0  0  0  0  0  0
  -10.6427   -1.4463  -24.8893 C   0  0  0  0  0  0  0  0  0  0  0  0
   -9.7603   -1.9580  -25.9725 C   0  0  0  0  0  0  0  0  0  0  0  0
  -10.1907   -2.2612  -27.0825 O   0  0  0  0  0  0  0  0  0  0  0  0
  -12.3170   -1.4020  -26.1984 H   0  0  0  0  0  0  0  0  0  0  0  0
  -13.8543   -0.3813  -24.5324 H   0  0  0  0  0  0  0  0  0  0  0  0
  -10.6360   -0.3622  -21.7096 H   0  0  0  0  0  0  0  0  0  0  0  0
   -6.8471   -1.7208  -24.3590 H   0  0  0  0  0  0  0  0  0  0  0  0
   -7.8294   -0.2807  -24.6657 H   0  0  0  0  0  0  0  0  0  0  0  0
   -8.0438   -3.3496  -27.2420 H   0  0  0  0  0  0  0  0  0  0  0  0
   -6.6280   -2.8977  -26.2766 H   0  0  0  0  0  0  0  0  0  0  0  0
   -8.8003   -1.9309  -28.8880 H   0  0  0  0  0  0  0  0  0  0  0  0
   -8.3907   -0.4190  -30.6413 H   0  0  0  0  0  0  0  0  0  0  0  0
   -6.6797   -0.3597  -30.1570 H   0  0  0  0  0  0  0  0  0  0  0  0
   -7.8833    0.6480  -29.3100 H   0  0  0  0  0  0  0  0  0  0  0  0
  1  2  1  0
  2  3  1  0
  3  4  2  0
  3  5  1  0
  5  6  1  0
  6  7  1  0
  8  7  1  6
  8  9  1  0
  9 10  2  0
  9 11  1  0
 11 12  1  0
 12 13  2  0
 13 14  1  0
 14 15  2  0
 15 16  1  0
 16 17  2  0
 17 18  1  0
 18 19  2  0
 19 20  1  0
 20 21  2  0
 20 22  1  0
 19 23  1  0
 18 24  1  0
 17 25  1  0
 15 26  1  0
 13 27  1  0
 11 28  1  0
 28 29  1  0
 29 30  1  0
 30 31  1  0
 30 32  1  0
 30 33  1  0
 29 34  1  0
 34 35  1  0
 34 36  1  0
 34 37  1  0
 28 38  1  0
 28 39  1  0
  8 40  1  0
 40 41  2  0
 41 42  1  0
 42 43  1  0
 42 44  2  0
 44 45  1  0
 45 46  2  0
 46 47  1  0
 47 48  2  0
 45 49  1  0
 44 50  1  0
 41 51  1  0
  7 52  1  0
  7 53  1  0
  5 54  1  0
  5 55  1  0
  2 56  1  0
  1 57  1  0
  1 58  1  0
  1 59  1  0
 47  6  1  0
 29  8  1  0
 46 40  1  0
 21 12  1  0
 21 16  1  0
M  END
>  <cnnaffinities>  (55) 
[5.79236, 5.90663, 5.90188, 5.7456]

>  <score>  (55) 
5.79236

>  <index>  (55) 
57

>  <Smiles>  (55) 
C(N(C(=O)C(N1C([C@@]2(C(=O)N(c3c(nc(c4c(c(c(c(c34)[H])[H])[H])[H])[H])[H])C(C2(C([H])([H])[H])C([H])([H])[H])([H])[H])c2c(c(Cl)c(c(c2C1=O)[H])[H])[H])([H])[H])([H])[H])[H])([H])([H])[H]

>  <h>  (55) 
<NA>

>  <Training>  (55) 
True

>  <Success>  (55) 
True

>  <enamine_searched>  (55) 
False

>  <enamine_id>  (55) 
nan

$$$$

     RDKit          3D

 42 45  0  0  0  0  0  0  0  0999 V2000
  -12.0398   -4.0832  -22.6735 C   0  0  0  0  0  0  0  0  0  0  0  0
  -10.6445   -4.4084  -22.8313 N   0  0  0  0  0  0  0  0  0  0  0  0
   -9.7550   -4.0082  -21.7787 C   0  0  0  0  0  0  0  0  0  0  0  0
   -8.6209   -3.1646  -22.3608 C   0  0  1  0  0  0  0  0  0  0  0  0
   -7.7133   -2.7611  -21.2117 C   0  0  0  0  0  0  0  0  0  0  0  0
   -7.3661   -3.5407  -20.3463 O   0  0  0  0  0  0  0  0  0  0  0  0
   -7.3133   -1.4436  -21.2172 N   0  0  0  0  0  0  0  0  0  0  0  0
   -6.5632   -0.8647  -20.1747 C   0  0  0  0  0  0  0  0  0  0  0  0
   -6.8963   -1.0791  -18.8587 C   0  0  0  0  0  0  0  0  0  0  0  0
   -6.2344   -0.5391  -17.8078 N   0  0  0  0  0  0  0  0  0  0  0  0
   -5.1958    0.2160  -18.0809 C   0  0  0  0  0  0  0  0  0  0  0  0
   -4.7417    0.5130  -19.3947 C   0  0  0  0  0  0  0  0  0  0  0  0
   -3.6153    1.3391  -19.6321 C   0  0  0  0  0  0  0  0  0  0  0  0
   -3.2107    1.6082  -20.9106 C   0  0  0  0  0  0  0  0  0  0  0  0
   -3.9153    1.0683  -22.0104 C   0  0  0  0  0  0  0  0  0  0  0  0
   -5.0118    0.2667  -21.8092 C   0  0  0  0  0  0  0  0  0  0  0  0
   -5.4471   -0.0294  -20.4897 C   0  0  0  0  0  0  0  0  0  0  0  0
   -5.5480   -0.1378  -22.6643 H   0  0  0  0  0  0  0  0  0  0  0  0
   -3.5885    1.3003  -23.0197 H   0  0  0  0  0  0  0  0  0  0  0  0
   -2.3517    2.2492  -21.0866 H   0  0  0  0  0  0  0  0  0  0  0  0
   -3.1000    1.7583  -18.7736 H   0  0  0  0  0  0  0  0  0  0  0  0
   -4.6541    0.6349  -17.2354 H   0  0  0  0  0  0  0  0  0  0  0  0
   -7.7506   -1.7051  -18.6133 H   0  0  0  0  0  0  0  0  0  0  0  0
   -7.6599   -0.8363  -21.9492 H   0  0  0  0  0  0  0  0  0  0  0  0
   -7.9312   -3.9660  -23.4433 C   0  0  0  0  0  0  0  0  0  0  0  0
   -6.5826   -3.7845  -23.7558 C   0  0  0  0  0  0  0  0  0  0  0  0
   -6.0153   -4.5399  -24.7719 C   0  0  0  0  0  0  0  0  0  0  0  0
   -4.3537   -4.2939  -25.2109 Cl  0  0  0  0  0  0  0  0  0  0  0  0
   -6.7493   -5.4927  -25.4745 C   0  0  0  0  0  0  0  0  0  0  0  0
   -8.0855   -5.6722  -25.1561 C   0  0  0  0  0  0  0  0  0  0  0  0
   -8.6815   -4.9074  -24.1531 C   0  0  0  0  0  0  0  0  0  0  0  0
  -10.1534   -5.0946  -23.9045 C   0  0  0  0  0  0  0  0  0  0  0  0
  -10.8233   -5.8149  -24.6276 O   0  0  0  0  0  0  0  0  0  0  0  0
   -8.6860   -6.4121  -25.6756 H   0  0  0  0  0  0  0  0  0  0  0  0
   -6.2656   -6.0690  -26.2586 H   0  0  0  0  0  0  0  0  0  0  0  0
   -5.9858   -3.0638  -23.2038 H   0  0  0  0  0  0  0  0  0  0  0  0
   -9.0368   -2.2486  -22.8087 H   0  0  0  0  0  0  0  0  0  0  0  0
  -10.3251   -3.4062  -21.0750 H   0  0  0  0  0  0  0  0  0  0  0  0
   -9.3225   -4.8713  -21.2441 H   0  0  0  0  0  0  0  0  0  0  0  0
  -12.2679   -4.1062  -21.6050 H   0  0  0  0  0  0  0  0  0  0  0  0
  -12.6417   -4.8476  -23.1562 H   0  0  0  0  0  0  0  0  0  0  0  0
  -12.2494   -3.0770  -23.0668 H   0  0  0  0  0  0  0  0  0  0  0  0
  1  2  1  0
  2  3  1  0
  3  4  1  0
  4  5  1  0
  5  6  2  0
  5  7  1  0
  7  8  1  0
  8  9  2  0
  9 10  1  0
 10 11  2  0
 11 12  1  0
 12 13  2  0
 13 14  1  0
 14 15  2  0
 15 16  1  0
 16 17  2  0
 16 18  1  0
 15 19  1  0
 14 20  1  0
 13 21  1  0
 11 22  1  0
  9 23  1  0
  7 24  1  0
  4 25  1  0
 25 26  2  0
 26 27  1  0
 27 28  1  0
 27 29  2  0
 29 30  1  0
 30 31  2  0
 31 32  1  0
 32 33  2  0
 30 34  1  0
 29 35  1  0
 26 36  1  0
  4 37  1  6
  3 38  1  0
  3 39  1  0
  1 40  1  0
  1 41  1  0
  1 42  1  0
 32  2  1  0
 17  8  1  0
 31 25  1  0
 17 12  1  0
M  END
>  <cnnaffinities>  (56) 
[5.68046, 5.53686]

>  <score>  (56) 
5.68046

>  <index>  (56) 
58

>  <Smiles>  (56) 
C(N1C([C@@](C(=O)N(c2c(nc(c3c(c(c(c(c23)[H])[H])[H])[H])[H])[H])[H])(c2c(c(Cl)c(c(c2C1=O)[H])[H])[H])[H])([H])[H])([H])([H])[H]

>  <h>  (56) 
<NA>

>  <Training>  (56) 
True

>  <Success>  (56) 
True

>  <enamine_searched>  (56) 
False

>  <enamine_id>  (56) 
nan

$$$$

     RDKit          3D

 60 65  0  0  0  0  0  0  0  0999 V2000
   -7.4096    3.3868  -21.7998 C   0  0  0  0  0  0  0  0  0  0  0  0
   -8.2645    2.9159  -22.8696 N   0  0  0  0  0  0  0  0  0  0  0  0
   -7.6769    2.2311  -23.8763 C   0  0  0  0  0  0  0  0  0  0  0  0
   -6.4614    2.1427  -23.9811 O   0  0  0  0  0  0  0  0  0  0  0  0
   -8.6119    1.5962  -24.9011 C   0  0  0  0  0  0  0  0  0  0  0  0
   -9.3565    0.4642  -24.3900 N   0  0  0  0  0  0  0  0  0  0  0  0
   -8.6490   -0.7937  -24.2340 C   0  0  0  0  0  0  0  0  0  0  0  0
   -9.0264   -1.5059  -22.9231 C   0  0  2  0  0  0  0  0  0  0  0  0
   -8.4975   -0.7303  -21.6963 C   0  0  0  0  0  0  0  0  0  0  0  0
   -8.9492    0.2866  -21.2060 O   0  0  0  0  0  0  0  0  0  0  0  0
   -7.3916   -1.3878  -21.2059 N   0  0  0  0  0  0  0  0  0  0  0  0
   -6.5991   -0.8144  -20.1755 C   0  0  0  0  0  0  0  0  0  0  0  0
   -6.9139   -1.0407  -18.8571 C   0  0  0  0  0  0  0  0  0  0  0  0
   -6.2154   -0.5434  -17.8068 N   0  0  0  0  0  0  0  0  0  0  0  0
   -5.1738    0.2084  -18.0763 C   0  0  0  0  0  0  0  0  0  0  0  0
   -4.7326    0.5270  -19.3930 C   0  0  0  0  0  0  0  0  0  0  0  0
   -3.6048    1.3575  -19.6380 C   0  0  0  0  0  0  0  0  0  0  0  0
   -3.2177    1.6496  -20.9187 C   0  0  0  0  0  0  0  0  0  0  0  0
   -3.9419    1.1275  -22.0144 C   0  0  0  0  0  0  0  0  0  0  0  0
   -5.0386    0.3243  -21.8021 C   0  0  0  0  0  0  0  0  0  0  0  0
   -5.4643    0.0029  -20.4839 C   0  0  0  0  0  0  0  0  0  0  0  0
   -5.6016   -0.0557  -22.6507 H   0  0  0  0  0  0  0  0  0  0  0  0
   -3.6514    1.3777  -23.0291 H   0  0  0  0  0  0  0  0  0  0  0  0
   -2.3641    2.3001  -21.0952 H   0  0  0  0  0  0  0  0  0  0  0  0
   -3.0774    1.7694  -18.7828 H   0  0  0  0  0  0  0  0  0  0  0  0
   -4.6223    0.6096  -17.2275 H   0  0  0  0  0  0  0  0  0  0  0  0
   -7.7682   -1.6659  -18.6057 H   0  0  0  0  0  0  0  0  0  0  0  0
   -7.0338   -2.5854  -21.9429 C   0  0  0  0  0  0  0  0  0  0  0  0
   -8.3001   -2.8794  -22.7655 C   0  0  2  0  0  0  0  0  0  0  0  0
   -8.0835   -3.7706  -24.0168 C   0  0  0  0  0  0  0  0  0  0  0  0
   -6.8717   -3.4823  -24.8607 C   0  0  0  0  0  0  0  0  0  0  0  0
   -6.8749   -2.7979  -25.9980 N   0  0  0  0  0  0  0  0  0  0  0  0
   -5.6044   -2.7642  -26.3926 N   0  0  0  0  0  0  0  0  0  0  0  0
   -4.8703   -3.4214  -25.5365 N   0  0  0  0  0  2  0  0  0  0  0  0
   -5.6434   -3.8915  -24.5593 N   0  0  0  0  0  0  0  0  0  0  0  0
   -7.9748   -4.8139  -23.6986 H   0  0  0  0  0  0  0  0  0  0  0  0
   -8.9724   -3.7168  -24.6551 H   0  0  0  0  0  0  0  0  0  0  0  0
   -8.9609   -3.4610  -22.1245 H   0  0  0  0  0  0  0  0  0  0  0  0
   -6.1705   -2.4161  -22.5996 H   0  0  0  0  0  0  0  0  0  0  0  0
   -6.7760   -3.4059  -21.2597 H   0  0  0  0  0  0  0  0  0  0  0  0
  -10.5345   -1.5483  -22.8682 C   0  0  0  0  0  0  0  0  0  0  0  0
  -11.1424   -2.4439  -22.0001 C   0  0  0  0  0  0  0  0  0  0  0  0
  -12.5069   -2.4529  -21.8356 C   0  0  0  0  0  0  0  0  0  0  0  0
  -13.0680   -3.4985  -20.5515 Cl  0  0  0  0  0  0  0  0  0  0  0  0
  -13.3343   -1.6045  -22.5824 C   0  0  0  0  0  0  0  0  0  0  0  0
  -12.7342   -0.6682  -23.4136 C   0  0  0  0  0  0  0  0  0  0  0  0
  -11.3426   -0.6104  -23.5254 C   0  0  0  0  0  0  0  0  0  0  0  0
  -10.7224    0.5330  -24.2759 C   0  0  0  0  0  0  0  0  0  0  0  0
  -11.3802    1.4656  -24.7137 O   0  0  0  0  0  0  0  0  0  0  0  0
  -13.3176    0.0651  -23.9668 H   0  0  0  0  0  0  0  0  0  0  0  0
  -14.4157   -1.6604  -22.4949 H   0  0  0  0  0  0  0  0  0  0  0  0
  -10.5680   -3.1319  -21.3987 H   0  0  0  0  0  0  0  0  0  0  0  0
   -7.5777   -0.5719  -24.2443 H   0  0  0  0  0  0  0  0  0  0  0  0
   -8.8703   -1.4674  -25.0772 H   0  0  0  0  0  0  0  0  0  0  0  0
   -7.9624    1.2782  -25.7225 H   0  0  0  0  0  0  0  0  0  0  0  0
   -9.3677    2.3027  -25.2518 H   0  0  0  0  0  0  0  0  0  0  0  0
   -9.2526    2.7948  -22.7025 H   0  0  0  0  0  0  0  0  0  0  0  0
   -8.0353    3.8401  -21.0331 H   0  0  0  0  0  0  0  0  0  0  0  0
   -6.8187    2.5478  -21.3994 H   0  0  0  0  0  0  0  0  0  0  0  0
   -6.7092    4.1430  -22.1685 H   0  0  0  0  0  0  0  0  0  0  0  0
  1  2  1  0
  2  3  1  0
  3  4  2  0
  3  5  1  0
  5  6  1  0
  6  7  1  0
  8  7  1  6
  8  9  1  0
  9 10  2  0
  9 11  1  0
 11 12  1  0
 12 13  2  0
 13 14  1  0
 14 15  2  0
 15 16  1  0
 16 17  2  0
 17 18  1  0
 18 19  2  0
 19 20  1  0
 20 21  2  0
 20 22  1  0
 19 23  1  0
 18 24  1  0
 17 25  1  0
 15 26  1  0
 13 27  1  0
 11 28  1  0
 28 29  1  0
 29 30  1  0
 30 31  1  0
 31 32  1  0
 32 33  2  0
 33 34  1  0
 34 35  1  0
 30 36  1  0
 30 37  1  0
 29 38  1  1
 28 39  1  0
 28 40  1  0
  8 41  1  0
 41 42  2  0
 42 43  1  0
 43 44  1  0
 43 45  2  0
 45 46  1  0
 46 47  2  0
 47 48  1  0
 48 49  2  0
 46 50  1  0
 45 51  1  0
 42 52  1  0
  7 53  1  0
  7 54  1  0
  5 55  1  0
  5 56  1  0
  2 57  1  0
  1 58  1  0
  1 59  1  0
  1 60  1  0
 48  6  1  0
 29  8  1  0
 35 31  2  0
 47 41  1  0
 21 12  1  0
 21 16  1  0
M  CHG  1  34  -1
M  END
>  <cnnaffinities>  (57) 
[6.00556, 6.02466]

>  <score>  (57) 
6.00556

>  <index>  (57) 
59

>  <Smiles>  (57) 
C(N(C(=O)C(N1C([C@@]2(C(=O)N(c3c(nc(c4c(c(c(c(c34)[H])[H])[H])[H])[H])[H])C([C@@]2(C(c2nn[n-]n2)([H])[H])[H])([H])[H])c2c(c(Cl)c(c(c2C1=O)[H])[H])[H])([H])[H])([H])[H])[H])([H])([H])[H]

>  <h>  (57) 
<NA>

>  <Training>  (57) 
True

>  <Success>  (57) 
True

>  <enamine_searched>  (57) 
False

>  <enamine_id>  (57) 
nan

$$$$

     RDKit          3D

 62 67  0  0  0  0  0  0  0  0999 V2000
  -11.2581    4.3481  -25.2081 C   0  0  0  0  0  0  0  0  0  0  0  0
   -9.7772    4.1708  -25.5112 C   0  0  0  0  0  0  0  0  0  0  0  0
   -9.0028    3.5786  -24.4344 N   0  0  0  0  0  0  0  0  0  0  0  0
   -8.4495    4.4116  -23.5430 N   0  0  0  0  0  0  0  0  0  0  0  0
   -7.8804    3.6294  -22.6397 C   0  0  0  0  0  0  0  0  0  0  0  0
   -8.0728    2.2676  -22.9452 C   0  0  0  0  0  0  0  0  0  0  0  0
   -8.8051    2.2701  -24.1137 C   0  0  0  0  0  0  0  0  0  0  0  0
   -9.3018    1.1273  -24.9566 C   0  0  0  0  0  0  0  0  0  0  0  0
   -9.7556    0.0171  -24.1457 N   0  0  0  0  0  0  0  0  0  0  0  0
   -8.9559   -1.1829  -24.0057 C   0  0  0  0  0  0  0  0  0  0  0  0
   -9.1737   -1.8841  -22.6410 C   0  0  2  0  0  0  0  0  0  0  0  0
   -8.6374   -1.0280  -21.4720 C   0  0  0  0  0  0  0  0  0  0  0  0
   -9.2102   -0.1139  -20.9132 O   0  0  0  0  0  0  0  0  0  0  0  0
   -7.3630   -1.4510  -21.1809 N   0  0  0  0  0  0  0  0  0  0  0  0
   -6.5985   -0.8395  -20.1614 C   0  0  0  0  0  0  0  0  0  0  0  0
   -6.9238   -1.0468  -18.8447 C   0  0  0  0  0  0  0  0  0  0  0  0
   -6.2254   -0.5409  -17.7986 N   0  0  0  0  0  0  0  0  0  0  0  0
   -5.1832    0.2051  -18.0757 C   0  0  0  0  0  0  0  0  0  0  0  0
   -4.7472    0.5118  -19.3961 C   0  0  0  0  0  0  0  0  0  0  0  0
   -3.6256    1.3470  -19.6369 C   0  0  0  0  0  0  0  0  0  0  0  0
   -3.2443    1.6470  -20.9146 C   0  0  0  0  0  0  0  0  0  0  0  0
   -3.9683    1.1301  -22.0121 C   0  0  0  0  0  0  0  0  0  0  0  0
   -5.0607    0.3194  -21.8058 C   0  0  0  0  0  0  0  0  0  0  0  0
   -5.4720   -0.0196  -20.4866 C   0  0  0  0  0  0  0  0  0  0  0  0
   -5.6160   -0.0560  -22.6615 H   0  0  0  0  0  0  0  0  0  0  0  0
   -3.6642    1.3876  -23.0227 H   0  0  0  0  0  0  0  0  0  0  0  0
   -2.3908    2.2958  -21.0931 H   0  0  0  0  0  0  0  0  0  0  0  0
   -3.0976    1.7549  -18.7790 H   0  0  0  0  0  0  0  0  0  0  0  0
   -4.6201    0.6116  -17.2332 H   0  0  0  0  0  0  0  0  0  0  0  0
   -7.7852   -1.6596  -18.5866 H   0  0  0  0  0  0  0  0  0  0  0  0
   -6.9464   -2.6144  -21.9391 C   0  0  0  0  0  0  0  0  0  0  0  0
   -8.2762   -3.1484  -22.5067 C   0  0  2  0  0  0  0  0  0  0  0  0
   -8.0958   -3.9902  -23.7670 C   0  0  0  0  0  0  0  0  0  0  0  0
   -7.5639   -3.4207  -24.5398 H   0  0  0  0  0  0  0  0  0  0  0  0
   -7.5072   -4.8907  -23.5622 H   0  0  0  0  0  0  0  0  0  0  0  0
   -9.0588   -4.3027  -24.1870 H   0  0  0  0  0  0  0  0  0  0  0  0
   -8.7311   -3.7567  -21.7177 H   0  0  0  0  0  0  0  0  0  0  0  0
   -6.4377   -3.3297  -21.2861 H   0  0  0  0  0  0  0  0  0  0  0  0
   -6.2496   -2.3480  -22.7490 H   0  0  0  0  0  0  0  0  0  0  0  0
  -10.6627   -2.0668  -22.4762 C   0  0  0  0  0  0  0  0  0  0  0  0
  -11.2145   -3.1213  -21.7471 C   0  0  0  0  0  0  0  0  0  0  0  0
  -12.5311   -3.0388  -21.3415 C   0  0  0  0  0  0  0  0  0  0  0  0
  -13.0017   -3.9789  -20.5047 F   0  0  0  0  0  0  0  0  0  0  0  0
  -13.3825   -2.0098  -21.7372 C   0  0  0  0  0  0  0  0  0  0  0  0
  -12.8793   -1.0614  -22.5883 C   0  0  0  0  0  0  0  0  0  0  0  0
  -11.5329   -1.0651  -22.9274 C   0  0  0  0  0  0  0  0  0  0  0  0
  -11.0498    0.0792  -23.7405 C   0  0  0  0  0  0  0  0  0  0  0  0
  -11.7864    1.0099  -24.0419 O   0  0  0  0  0  0  0  0  0  0  0  0
  -13.5037   -0.2687  -22.9769 H   0  0  0  0  0  0  0  0  0  0  0  0
  -14.3985   -1.9338  -21.3617 H   0  0  0  0  0  0  0  0  0  0  0  0
  -10.6333   -3.9776  -21.4194 H   0  0  0  0  0  0  0  0  0  0  0  0
   -9.2030   -1.9069  -24.7966 H   0  0  0  0  0  0  0  0  0  0  0  0
   -7.9081   -0.9060  -24.1265 H   0  0  0  0  0  0  0  0  0  0  0  0
  -10.1680    1.4386  -25.5514 H   0  0  0  0  0  0  0  0  0  0  0  0
   -8.5312    0.7425  -25.6357 H   0  0  0  0  0  0  0  0  0  0  0  0
   -7.7866    1.3910  -22.3786 H   0  0  0  0  0  0  0  0  0  0  0  0
   -7.3669    4.1050  -21.8133 H   0  0  0  0  0  0  0  0  0  0  0  0
   -9.3101    5.1430  -25.6765 H   0  0  0  0  0  0  0  0  0  0  0  0
   -9.6403    3.5699  -26.4148 H   0  0  0  0  0  0  0  0  0  0  0  0
  -11.7626    3.3830  -25.0862 H   0  0  0  0  0  0  0  0  0  0  0  0
  -11.4152    4.9461  -24.3065 H   0  0  0  0  0  0  0  0  0  0  0  0
  -11.7035    4.8908  -26.0472 H   0  0  0  0  0  0  0  0  0  0  0  0
  1  2  1  0
  2  3  1  0
  3  4  1  0
  4  5  2  0
  5  6  1  0
  6  7  2  0
  7  8  1  0
  8  9  1  0
  9 10  1  0
 11 10  1  6
 11 12  1  0
 12 13  2  0
 12 14  1  0
 14 15  1  0
 15 16  2  0
 16 17  1  0
 17 18  2  0
 18 19  1  0
 19 20  2  0
 20 21  1  0
 21 22  2  0
 22 23  1  0
 23 24  2  0
 23 25  1  0
 22 26  1  0
 21 27  1  0
 20 28  1  0
 18 29  1  0
 16 30  1  0
 14 31  1  0
 31 32  1  0
 32 33  1  0
 33 34  1  0
 33 35  1  0
 33 36  1  0
 32 37  1  1
 31 38  1  0
 31 39  1  0
 11 40  1  0
 40 41  2  0
 41 42  1  0
 42 43  1  0
 42 44  2  0
 44 45  1  0
 45 46  2  0
 46 47  1  0
 47 48  2  0
 45 49  1  0
 44 50  1  0
 41 51  1  0
 10 52  1  0
 10 53  1  0
  8 54  1  0
  8 55  1  0
  6 56  1  0
  5 57  1  0
  2 58  1  0
  2 59  1  0
  1 60  1  0
  1 61  1  0
  1 62  1  0
  7  3  1  0
 47  9  1  0
 32 11  1  0
 46 40  1  0
 24 15  1  0
 24 19  1  0
M  END
>  <cnnaffinities>  (58) 
[6.59466, 6.32666, 6.18113]

>  <score>  (58) 
6.59466

>  <index>  (58) 
60

>  <Smiles>  (58) 
C(C(n1nc(c(c1C(N1C([C@@]2(C(=O)N(c3c(nc(c4c(c(c(c(c34)[H])[H])[H])[H])[H])[H])C([C@@]2(C([H])([H])[H])[H])([H])[H])c2c(c(F)c(c(c2C1=O)[H])[H])[H])([H])[H])([H])[H])[H])[H])([H])[H])([H])([H])[H]

>  <h>  (58) 
<NA>

>  <Training>  (58) 
True

>  <Success>  (58) 
True

>  <enamine_searched>  (58) 
False

>  <enamine_id>  (58) 
nan

$$$$

     RDKit          3D

 44 47  0  0  0  0  0  0  0  0999 V2000
   -9.0466    0.3371  -21.1189 O   0  0  0  0  0  0  0  0  0  0  0  0
   -8.3561   -0.3301  -21.8655 C   0  0  0  0  0  0  0  0  0  0  0  0
   -7.4325   -1.4147  -21.2747 C   0  0  0  0  0  0  0  0  0  0  0  0
   -6.5696   -0.8336  -20.1729 C   0  0  0  0  0  0  0  0  0  0  0  0
   -6.8767   -1.0396  -18.8542 C   0  0  0  0  0  0  0  0  0  0  0  0
   -6.1935   -0.5316  -17.7913 N   0  0  0  0  0  0  0  0  0  0  0  0
   -5.1566    0.2227  -18.0633 C   0  0  0  0  0  0  0  0  0  0  0  0
   -4.7199    0.5329  -19.3794 C   0  0  0  0  0  0  0  0  0  0  0  0
   -3.5973    1.3651  -19.6223 C   0  0  0  0  0  0  0  0  0  0  0  0
   -3.2084    1.6581  -20.9006 C   0  0  0  0  0  0  0  0  0  0  0  0
   -3.9288    1.1254  -21.9941 C   0  0  0  0  0  0  0  0  0  0  0  0
   -5.0181    0.3158  -21.7870 C   0  0  0  0  0  0  0  0  0  0  0  0
   -5.4459   -0.0048  -20.4711 C   0  0  0  0  0  0  0  0  0  0  0  0
   -5.5602   -0.0798  -22.6429 H   0  0  0  0  0  0  0  0  0  0  0  0
   -3.6151    1.3669  -23.0057 H   0  0  0  0  0  0  0  0  0  0  0  0
   -2.3535    2.3052  -21.0854 H   0  0  0  0  0  0  0  0  0  0  0  0
   -3.0622    1.7796  -18.7706 H   0  0  0  0  0  0  0  0  0  0  0  0
   -4.6009    0.6291  -17.2154 H   0  0  0  0  0  0  0  0  0  0  0  0
   -7.7302   -1.6608  -18.5830 H   0  0  0  0  0  0  0  0  0  0  0  0
   -6.8108   -1.8931  -22.0426 H   0  0  0  0  0  0  0  0  0  0  0  0
   -8.0807   -2.1889  -20.8452 H   0  0  0  0  0  0  0  0  0  0  0  0
   -8.3417   -0.1181  -23.2375 N   0  0  0  0  0  0  0  0  0  0  0  0
   -8.0794   -1.1564  -24.2223 C   0  0  0  0  0  0  0  0  0  0  0  0
   -8.9622   -0.9723  -25.4565 C   0  0  0  0  0  0  0  0  0  0  0  0
   -8.8510    0.4294  -26.0373 C   0  0  0  0  0  0  0  0  0  0  0  0
   -9.6544    0.6343  -27.3408 C   0  0  0  0  0  0  0  0  0  0  0  0
   -8.3544    0.9016  -28.1285 C   0  0  0  0  0  0  0  0  0  0  0  0
   -7.5441    0.6976  -26.8305 C   0  0  0  0  0  0  0  0  0  0  0  0
   -6.9863    1.5760  -26.4959 H   0  0  0  0  0  0  0  0  0  0  0  0
   -6.8527   -0.1484  -26.8509 H   0  0  0  0  0  0  0  0  0  0  0  0
   -8.1453    0.1767  -28.9195 H   0  0  0  0  0  0  0  0  0  0  0  0
   -8.2803    1.9041  -28.5599 H   0  0  0  0  0  0  0  0  0  0  0  0
  -10.2263   -0.2390  -27.6659 H   0  0  0  0  0  0  0  0  0  0  0  0
  -10.3360    1.4832  -27.3018 H   0  0  0  0  0  0  0  0  0  0  0  0
   -9.1571    1.4563  -24.9544 C   0  0  0  0  0  0  0  0  0  0  0  0
   -8.2795    1.2581  -23.7277 C   0  0  0  0  0  0  0  0  0  0  0  0
   -7.2370    1.5324  -23.9720 H   0  0  0  0  0  0  0  0  0  0  0  0
   -8.5976    1.9126  -22.9150 H   0  0  0  0  0  0  0  0  0  0  0  0
   -9.0116    2.4664  -25.3538 H   0  0  0  0  0  0  0  0  0  0  0  0
  -10.2149    1.3939  -24.6702 H   0  0  0  0  0  0  0  0  0  0  0  0
   -8.6833   -1.7062  -26.2182 H   0  0  0  0  0  0  0  0  0  0  0  0
  -10.0095   -1.1835  -25.2066 H   0  0  0  0  0  0  0  0  0  0  0  0
   -7.0191   -1.1724  -24.5296 H   0  0  0  0  0  0  0  0  0  0  0  0
   -8.2972   -2.1255  -23.7697 H   0  0  0  0  0  0  0  0  0  0  0  0
  1  2  2  0
  2  3  1  0
  3  4  1  0
  4  5  2  0
  5  6  1  0
  6  7  2  0
  7  8  1  0
  8  9  2  0
  9 10  1  0
 10 11  2  0
 11 12  1  0
 12 13  2  0
 12 14  1  0
 11 15  1  0
 10 16  1  0
  9 17  1  0
  7 18  1  0
  5 19  1  0
  3 20  1  0
  3 21  1  0
  2 22  1  0
 22 23  1  0
 23 24  1  0
 24 25  1  0
 25 26  1  0
 26 27  1  0
 27 28  1  0
 28 29  1  0
 28 30  1  0
 27 31  1  0
 27 32  1  0
 26 33  1  0
 26 34  1  0
 25 35  1  0
 35 36  1  0
 36 37  1  0
 36 38  1  0
 35 39  1  0
 35 40  1  0
 24 41  1  0
 24 42  1  0
 23 43  1  0
 23 44  1  0
 13  4  1  0
 36 22  1  0
 13  8  1  0
 28 25  1  0
M  END
>  <cnnaffinities>  (59) 
[4.85857, 4.80331, 4.80332, 4.80339, 4.8033, 4.75588, 4.75593, 4.63375, 4.63364, 4.63417, 5.08989, 5.08989, 5.08994, 5.08997, 4.77399]

>  <score>  (59) 
4.85857

>  <index>  (59) 
61

>  <Smiles>  (59) 
O=C(C(c1c(nc(c2c(c(c(c(c12)[H])[H])[H])[H])[H])[H])([H])[H])N1C(C(C2(C(C(C2([H])[H])([H])[H])([H])[H])C(C1([H])[H])([H])[H])([H])[H])([H])[H]

>  <h>  (59) 
<NA>

>  <Training>  (59) 
True

>  <Success>  (59) 
True

>  <enamine_searched>  (59) 
False

>  <enamine_id>  (59) 
nan

$$$$

     RDKit          3D

 44 47  0  0  0  0  0  0  0  0999 V2000
   -5.6902   -3.1632  -21.4082 O   0  0  0  0  0  0  0  0  0  0  0  0
   -6.7101   -2.7147  -21.9084 C   0  0  0  0  0  0  0  0  0  0  0  0
   -7.4010   -1.4736  -21.2800 C   0  0  0  0  0  0  0  0  0  0  0  0
   -6.5759   -0.8329  -20.1839 C   0  0  0  0  0  0  0  0  0  0  0  0
   -6.8734   -1.0475  -18.8652 C   0  0  0  0  0  0  0  0  0  0  0  0
   -6.1938   -0.5391  -17.8005 N   0  0  0  0  0  0  0  0  0  0  0  0
   -5.1595    0.2214  -18.0666 C   0  0  0  0  0  0  0  0  0  0  0  0
   -4.7213    0.5293  -19.3812 C   0  0  0  0  0  0  0  0  0  0  0  0
   -3.5927    1.3551  -19.6227 C   0  0  0  0  0  0  0  0  0  0  0  0
   -3.1935    1.6319  -20.9021 C   0  0  0  0  0  0  0  0  0  0  0  0
   -3.9042    1.0904  -21.9934 C   0  0  0  0  0  0  0  0  0  0  0  0
   -4.9997    0.2882  -21.7880 C   0  0  0  0  0  0  0  0  0  0  0  0
   -5.4437   -0.0128  -20.4733 C   0  0  0  0  0  0  0  0  0  0  0  0
   -5.5366   -0.1235  -22.6362 H   0  0  0  0  0  0  0  0  0  0  0  0
   -3.5823    1.3182  -23.0069 H   0  0  0  0  0  0  0  0  0  0  0  0
   -2.3322    2.2729  -21.0863 H   0  0  0  0  0  0  0  0  0  0  0  0
   -3.0603    1.7733  -18.7715 H   0  0  0  0  0  0  0  0  0  0  0  0
   -4.6045    0.6284  -17.2172 H   0  0  0  0  0  0  0  0  0  0  0  0
   -7.7226   -1.6735  -18.5875 H   0  0  0  0  0  0  0  0  0  0  0  0
   -8.3618   -1.8000  -20.8501 H   0  0  0  0  0  0  0  0  0  0  0  0
   -7.6563   -0.7267  -22.0455 H   0  0  0  0  0  0  0  0  0  0  0  0
   -7.2921   -3.2973  -23.0152 N   0  0  0  0  0  0  0  0  0  0  0  0
   -6.7587   -4.5608  -23.5232 C   0  0  0  0  0  0  0  0  0  0  0  0
   -7.8774   -5.5561  -23.8351 C   0  0  0  0  0  0  0  0  0  0  0  0
   -9.0379   -4.9493  -24.6627 C   0  0  0  0  0  0  0  0  0  0  0  0
   -9.3767   -5.8466  -25.8624 C   0  0  0  0  0  0  0  0  0  0  0  0
   -8.3741   -6.0669  -26.9639 C   0  0  0  0  0  0  0  0  0  0  0  0
   -9.6588   -5.3383  -27.2507 C   0  0  0  0  0  0  0  0  0  0  0  0
  -10.4093   -5.8448  -27.8581 H   0  0  0  0  0  0  0  0  0  0  0  0
   -9.6121   -4.2684  -27.4409 H   0  0  0  0  0  0  0  0  0  0  0  0
   -8.2432   -7.0675  -27.3810 H   0  0  0  0  0  0  0  0  0  0  0  0
   -7.4627   -5.4718  -26.9273 H   0  0  0  0  0  0  0  0  0  0  0  0
   -9.9362   -6.7416  -25.5858 H   0  0  0  0  0  0  0  0  0  0  0  0
   -8.7428   -3.4928  -25.0212 C   0  0  0  0  0  0  0  0  0  0  0  0
   -8.3579   -2.6703  -23.7947 C   0  0  0  0  0  0  0  0  0  0  0  0
   -8.0473   -1.6734  -24.1294 H   0  0  0  0  0  0  0  0  0  0  0  0
   -9.2426   -2.5286  -23.1609 H   0  0  0  0  0  0  0  0  0  0  0  0
   -9.6320   -3.0402  -25.4670 H   0  0  0  0  0  0  0  0  0  0  0  0
   -7.9616   -3.4197  -25.7867 H   0  0  0  0  0  0  0  0  0  0  0  0
   -9.9239   -4.9397  -24.0153 H   0  0  0  0  0  0  0  0  0  0  0  0
   -7.4443   -6.4134  -24.3613 H   0  0  0  0  0  0  0  0  0  0  0  0
   -8.2747   -5.9519  -22.8964 H   0  0  0  0  0  0  0  0  0  0  0  0
   -6.0864   -4.9693  -22.7698 H   0  0  0  0  0  0  0  0  0  0  0  0
   -6.1490   -4.3803  -24.4209 H   0  0  0  0  0  0  0  0  0  0  0  0
  1  2  2  0
  2  3  1  0
  3  4  1  0
  4  5  2  0
  5  6  1  0
  6  7  2  0
  7  8  1  0
  8  9  2  0
  9 10  1  0
 10 11  2  0
 11 12  1  0
 12 13  2  0
 12 14  1  0
 11 15  1  0
 10 16  1  0
  9 17  1  0
  7 18  1  0
  5 19  1  0
  3 20  1  0
  3 21  1  0
  2 22  1  0
 22 23  1  0
 23 24  1  0
 24 25  1  0
 25 26  1  0
 26 27  1  0
 27 28  1  0
 28 29  1  0
 28 30  1  0
 27 31  1  0
 27 32  1  0
 26 33  1  0
 25 34  1  0
 34 35  1  0
 35 36  1  0
 35 37  1  0
 34 38  1  0
 34 39  1  0
 25 40  1  0
 24 41  1  0
 24 42  1  0
 23 43  1  0
 23 44  1  0
 13  4  1  0
 35 22  1  0
 13  8  1  0
 28 26  1  0
M  END
>  <cnnaffinities>  (60) 
[5.02832, 4.76871, 4.70824, 4.69475, 4.89755, 4.89848]

>  <score>  (60) 
5.02832

>  <index>  (60) 
62

>  <Smiles>  (60) 
O=C(C(c1c(nc(c2c(c(c(c(c12)[H])[H])[H])[H])[H])[H])([H])[H])N1C(C(C(C2(C(C2([H])[H])([H])[H])[H])(C(C1([H])[H])([H])[H])[H])([H])[H])([H])[H]

>  <h>  (60) 
<NA>

>  <Training>  (60) 
True

>  <Success>  (60) 
True

>  <enamine_searched>  (60) 
False

>  <enamine_id>  (60) 
nan

$$$$

     RDKit          3D

 57 61  0  0  0  0  0  0  0  0999 V2000
   -8.1138   -5.7114  -27.5777 C   0  0  0  0  0  0  0  0  0  0  0  0
   -8.3879   -4.2948  -27.4132 N   0  0  0  0  0  0  0  0  0  0  0  0
   -7.3704   -3.4711  -27.0698 C   0  0  0  0  0  0  0  0  0  0  0  0
   -6.2339   -3.8778  -26.8644 O   0  0  0  0  0  0  0  0  0  0  0  0
   -7.7560   -1.9918  -26.9201 C   0  0  0  0  0  0  0  0  0  0  0  0
   -8.5896   -1.7623  -25.7409 N   0  0  0  0  0  0  0  0  0  0  0  0
   -7.9936   -1.2574  -24.5022 C   0  0  0  0  0  0  0  0  0  0  0  0
   -8.8033   -1.5775  -23.2093 C   0  0  2  0  0  0  0  0  0  0  0  0
   -8.2450   -0.6288  -22.1233 C   0  0  0  0  0  0  0  0  0  0  0  0
   -8.3831    0.5761  -22.0666 O   0  0  0  0  0  0  0  0  0  0  0  0
   -7.4830   -1.3607  -21.2312 N   0  0  0  0  0  0  0  0  0  0  0  0
   -6.6639   -0.7853  -20.2251 C   0  0  0  0  0  0  0  0  0  0  0  0
   -6.9478   -1.0605  -18.9107 C   0  0  0  0  0  0  0  0  0  0  0  0
   -6.2646   -0.5710  -17.8475 N   0  0  0  0  0  0  0  0  0  0  0  0
   -5.2324    0.1981  -18.1014 C   0  0  0  0  0  0  0  0  0  0  0  0
   -4.7840    0.5138  -19.4157 C   0  0  0  0  0  0  0  0  0  0  0  0
   -3.6399    1.3296  -19.6242 C   0  0  0  0  0  0  0  0  0  0  0  0
   -3.2002    1.5986  -20.8909 C   0  0  0  0  0  0  0  0  0  0  0  0
   -3.8809    1.0585  -22.0055 C   0  0  0  0  0  0  0  0  0  0  0  0
   -4.9963    0.2753  -21.8303 C   0  0  0  0  0  0  0  0  0  0  0  0
   -5.4968   -0.0011  -20.5241 C   0  0  0  0  0  0  0  0  0  0  0  0
   -5.5076   -0.1333  -22.6977 H   0  0  0  0  0  0  0  0  0  0  0  0
   -3.5241    1.2795  -23.0075 H   0  0  0  0  0  0  0  0  0  0  0  0
   -2.3327    2.2347  -21.0470 H   0  0  0  0  0  0  0  0  0  0  0  0
   -3.1380    1.7408  -18.7518 H   0  0  0  0  0  0  0  0  0  0  0  0
   -4.6832    0.6063  -17.2499 H   0  0  0  0  0  0  0  0  0  0  0  0
   -7.7944   -1.7021  -18.6686 H   0  0  0  0  0  0  0  0  0  0  0  0
   -7.4276   -2.7774  -21.5273 C   0  0  0  0  0  0  0  0  0  0  0  0
   -8.5448   -2.9776  -22.5480 C   0  0  2  0  0  0  0  0  0  0  0  0
   -8.2698   -4.1451  -23.4875 C   0  0  0  0  0  0  0  0  0  0  0  0
   -6.9215   -4.0819  -23.9193 O   0  0  0  0  0  0  0  0  0  0  0  0
   -6.8213   -4.5160  -24.7759 H   0  0  0  0  0  0  0  0  0  0  0  0
   -8.4512   -5.0896  -22.9523 H   0  0  0  0  0  0  0  0  0  0  0  0
   -8.9749   -4.0990  -24.3285 H   0  0  0  0  0  0  0  0  0  0  0  0
   -9.4729   -3.2021  -22.0014 H   0  0  0  0  0  0  0  0  0  0  0  0
   -6.4584   -3.0614  -21.9524 H   0  0  0  0  0  0  0  0  0  0  0  0
   -7.5838   -3.3720  -20.6217 H   0  0  0  0  0  0  0  0  0  0  0  0
  -10.2891   -1.3818  -23.4875 C   0  0  0  0  0  0  0  0  0  0  0  0
  -11.2155   -1.3396  -22.4310 C   0  0  0  0  0  0  0  0  0  0  0  0
  -12.5695   -1.2701  -22.7280 C   0  0  0  0  0  0  0  0  0  0  0  0
  -13.7595   -1.5067  -21.4960 Cl  0  0  0  0  0  0  0  0  0  0  0  0
  -13.0370   -1.0764  -24.0287 C   0  0  0  0  0  0  0  0  0  0  0  0
  -12.1291   -1.0918  -25.0627 C   0  0  0  0  0  0  0  0  0  0  0  0
  -10.7852   -1.3647  -24.8010 C   0  0  0  0  0  0  0  0  0  0  0  0
   -9.9337   -1.7851  -25.9493 C   0  0  0  0  0  0  0  0  0  0  0  0
  -10.4038   -2.1723  -27.0229 O   0  0  0  0  0  0  0  0  0  0  0  0
  -12.4472   -0.9612  -26.0930 H   0  0  0  0  0  0  0  0  0  0  0  0
  -14.1057   -0.9897  -24.1967 H   0  0  0  0  0  0  0  0  0  0  0  0
  -10.9069   -1.3675  -21.3847 H   0  0  0  0  0  0  0  0  0  0  0  0
   -6.9904   -1.6786  -24.4166 H   0  0  0  0  0  0  0  0  0  0  0  0
   -7.8818   -0.1665  -24.5472 H   0  0  0  0  0  0  0  0  0  0  0  0
   -6.8389   -1.3989  -26.8667 H   0  0  0  0  0  0  0  0  0  0  0  0
   -8.3450   -1.6812  -27.7941 H   0  0  0  0  0  0  0  0  0  0  0  0
   -9.3205   -3.9144  -27.5319 H   0  0  0  0  0  0  0  0  0  0  0  0
   -7.6811   -6.1333  -26.6627 H   0  0  0  0  0  0  0  0  0  0  0  0
   -9.0377   -6.2409  -27.8187 H   0  0  0  0  0  0  0  0  0  0  0  0
   -7.3792   -5.8728  -28.3728 H   0  0  0  0  0  0  0  0  0  0  0  0
  1  2  1  0
  2  3  1  0
  3  4  2  0
  3  5  1  0
  5  6  1  0
  6  7  1  0
  8  7  1  6
  8  9  1  0
  9 10  2  0
  9 11  1  0
 11 12  1  0
 12 13  2  0
 13 14  1  0
 14 15  2  0
 15 16  1  0
 16 17  2  0
 17 18  1  0
 18 19  2  0
 19 20  1  0
 20 21  2  0
 20 22  1  0
 19 23  1  0
 18 24  1  0
 17 25  1  0
 15 26  1  0
 13 27  1  0
 11 28  1  0
 28 29  1  0
 29 30  1  0
 30 31  1  0
 31 32  1  0
 30 33  1  0
 30 34  1  0
 29 35  1  1
 28 36  1  0
 28 37  1  0
  8 38  1  0
 38 39  2  0
 39 40  1  0
 40 41  1  0
 40 42  2  0
 42 43  1  0
 43 44  2  0
 44 45  1  0
 45 46  2  0
 43 47  1  0
 42 48  1  0
 39 49  1  0
  7 50  1  0
  7 51  1  0
  5 52  1  0
  5 53  1  0
  2 54  1  0
  1 55  1  0
  1 56  1  0
  1 57  1  0
 45  6  1  0
 29  8  1  0
 44 38  1  0
 21 12  1  0
 21 16  1  0
M  END
>  <cnnaffinities>  (61) 
[5.41307]

>  <score>  (61) 
5.41307

>  <index>  (61) 
63

>  <Smiles>  (61) 
C(N(C(=O)C(N1C([C@@]2(C(=O)N(c3c(nc(c4c(c(c(c(c34)[H])[H])[H])[H])[H])[H])C([C@@]2(C(O[H])([H])[H])[H])([H])[H])c2c(c(Cl)c(c(c2C1=O)[H])[H])[H])([H])[H])([H])[H])[H])([H])([H])[H]

>  <h>  (61) 
<NA>

>  <Training>  (61) 
True

>  <Success>  (61) 
True

>  <enamine_searched>  (61) 
False

>  <enamine_id>  (61) 
nan

$$$$

     RDKit          3D

 55 60  0  0  0  0  0  0  0  0999 V2000
   -9.9891   -0.8176  -23.4990 C   0  0  0  0  0  0  0  0  0  0  0  0
   -8.6164   -1.1894  -22.9376 C   0  0  1  0  0  0  0  0  0  0  0  0
   -8.1526   -0.2755  -21.7879 C   0  0  0  0  0  0  0  0  0  0  0  0
   -7.2080   -1.1066  -21.0504 N   0  0  0  0  0  0  0  0  0  0  0  0
   -6.3821   -0.6251  -20.0022 C   0  0  0  0  0  0  0  0  0  0  0  0
   -6.6624   -0.8957  -18.6847 C   0  0  0  0  0  0  0  0  0  0  0  0
   -5.9986   -0.3419  -17.6350 N   0  0  0  0  0  0  0  0  0  0  0  0
   -5.0021    0.4675  -17.9060 C   0  0  0  0  0  0  0  0  0  0  0  0
   -4.5539    0.7662  -19.2238 C   0  0  0  0  0  0  0  0  0  0  0  0
   -3.4261    1.5923  -19.4670 C   0  0  0  0  0  0  0  0  0  0  0  0
   -3.0066    1.8305  -20.7455 C   0  0  0  0  0  0  0  0  0  0  0  0
   -3.6981    1.2621  -21.8383 C   0  0  0  0  0  0  0  0  0  0  0  0
   -4.8041    0.4748  -21.6283 C   0  0  0  0  0  0  0  0  0  0  0  0
   -5.2577    0.2068  -20.3105 C   0  0  0  0  0  0  0  0  0  0  0  0
   -5.3385    0.0423  -22.4659 H   0  0  0  0  0  0  0  0  0  0  0  0
   -3.3577    1.4557  -22.8498 H   0  0  0  0  0  0  0  0  0  0  0  0
   -2.1375    2.4561  -20.9292 H   0  0  0  0  0  0  0  0  0  0  0  0
   -2.9199    2.0324  -18.6124 H   0  0  0  0  0  0  0  0  0  0  0  0
   -4.4782    0.9178  -17.0613 H   0  0  0  0  0  0  0  0  0  0  0  0
   -7.4706   -1.5747  -18.4207 H   0  0  0  0  0  0  0  0  0  0  0  0
   -7.3599   -2.4518  -21.3032 C   0  0  0  0  0  0  0  0  0  0  0  0
   -6.7200   -3.3335  -20.7622 O   0  0  0  0  0  0  0  0  0  0  0  0
   -8.4750   -2.6355  -22.3434 C   0  0  1  0  0  0  0  0  0  0  0  0
   -9.7281   -3.0989  -21.5633 C   0  0  0  0  0  0  0  0  0  0  0  0
  -10.7809   -3.5767  -22.4518 N   0  0  0  0  0  0  0  0  0  0  0  0
  -12.1670   -3.4622  -22.0087 C   0  0  0  0  0  0  0  0  0  0  0  0
  -12.9649   -2.3765  -22.6812 C   0  0  0  0  0  0  0  0  0  0  0  0
  -13.2519   -2.3482  -24.0163 N   0  0  0  0  0  0  0  0  0  0  0  0
  -14.0542   -1.3107  -24.1259 C   0  0  0  0  0  0  0  0  0  0  0  0
  -14.2151   -0.7358  -22.9312 N   0  0  0  0  0  0  0  0  0  0  0  0
  -13.5145   -1.3974  -21.9877 N   0  0  0  0  0  0  0  0  0  0  0  0
  -14.6235    0.1552  -22.7135 H   0  0  0  0  0  0  0  0  0  0  0  0
  -14.5628   -0.9750  -25.0210 H   0  0  0  0  0  0  0  0  0  0  0  0
  -12.2013   -3.2577  -20.9365 H   0  0  0  0  0  0  0  0  0  0  0  0
  -12.6552   -4.4229  -22.1946 H   0  0  0  0  0  0  0  0  0  0  0  0
  -10.4545   -4.5706  -23.3436 C   0  0  0  0  0  0  0  0  0  0  0  0
  -11.2409   -5.3881  -23.7734 O   0  0  0  0  0  0  0  0  0  0  0  0
   -9.0485   -4.6100  -23.8151 C   0  0  0  0  0  0  0  0  0  0  0  0
   -8.7294   -5.5912  -24.7528 C   0  0  0  0  0  0  0  0  0  0  0  0
   -7.4545   -5.6929  -25.2646 C   0  0  0  0  0  0  0  0  0  0  0  0
   -6.5053   -4.7938  -24.7911 C   0  0  0  0  0  0  0  0  0  0  0  0
   -5.2567   -4.8717  -25.2810 F   0  0  0  0  0  0  0  0  0  0  0  0
   -6.7922   -3.8273  -23.8434 C   0  0  0  0  0  0  0  0  0  0  0  0
   -8.1011   -3.7015  -23.3534 C   0  0  0  0  0  0  0  0  0  0  0  0
   -5.9832   -3.2073  -23.4708 H   0  0  0  0  0  0  0  0  0  0  0  0
   -7.1840   -6.4506  -25.9932 H   0  0  0  0  0  0  0  0  0  0  0  0
   -9.5101   -6.2779  -25.0549 H   0  0  0  0  0  0  0  0  0  0  0  0
   -9.4231   -3.8851  -20.8568 H   0  0  0  0  0  0  0  0  0  0  0  0
  -10.1199   -2.2750  -20.9621 H   0  0  0  0  0  0  0  0  0  0  0  0
   -7.6705    0.6405  -22.1425 H   0  0  0  0  0  0  0  0  0  0  0  0
   -9.0038    0.0193  -21.1485 H   0  0  0  0  0  0  0  0  0  0  0  0
   -7.8749   -1.1389  -23.7520 H   0  0  0  0  0  0  0  0  0  0  0  0
  -10.7514   -0.7338  -22.7142 H   0  0  0  0  0  0  0  0  0  0  0  0
   -9.9399    0.1421  -24.0192 H   0  0  0  0  0  0  0  0  0  0  0  0
  -10.3325   -1.5752  -24.2086 H   0  0  0  0  0  0  0  0  0  0  0  0
  1  2  1  0
  2  3  1  0
  3  4  1  0
  4  5  1  0
  5  6  2  0
  6  7  1  0
  7  8  2  0
  8  9  1  0
  9 10  2  0
 10 11  1  0
 11 12  2  0
 12 13  1  0
 13 14  2  0
 13 15  1  0
 12 16  1  0
 11 17  1  0
 10 18  1  0
  8 19  1  0
  6 20  1  0
  4 21  1  0
 21 22  2  0
 21 23  1  0
 23 24  1  1
 24 25  1  0
 25 26  1  0
 26 27  1  0
 27 28  1  0
 28 29  2  0
 29 30  1  0
 30 31  1  0
 30 32  1  0
 29 33  1  0
 26 34  1  0
 26 35  1  0
 25 36  1  0
 36 37  2  0
 36 38  1  0
 38 39  2  0
 39 40  1  0
 40 41  2  0
 41 42  1  0
 41 43  1  0
 43 44  2  0
 43 45  1  0
 40 46  1  0
 39 47  1  0
 24 48  1  0
 24 49  1  0
  3 50  1  0
  3 51  1  0
  2 52  1  6
  1 53  1  0
  1 54  1  0
  1 55  1  0
 23  2  1  0
 31 27  2  0
 44 38  1  0
 14  5  1  0
 44 23  1  0
 14  9  1  0
M  END
>  <cnnaffinities>  (62) 
[6.71262]

>  <score>  (62) 
6.71262

>  <index>  (62) 
64

>  <Smiles>  (62) 
C([C@]1(C(N(c2c(nc(c3c(c(c(c(c23)[H])[H])[H])[H])[H])[H])C(=O)[C@]21C(N(C(c1nc(n(n1)[H])[H])([H])[H])C(=O)c1c(c(c(F)c(c21)[H])[H])[H])([H])[H])([H])[H])[H])([H])([H])[H]

>  <h>  (62) 
<NA>

>  <Training>  (62) 
True

>  <Success>  (62) 
True

>  <enamine_searched>  (62) 
False

>  <enamine_id>  (62) 
nan

$$$$

     RDKit          3D

 55 60  0  0  0  0  0  0  0  0999 V2000
   -9.8989   -0.8382  -23.5890 C   0  0  0  0  0  0  0  0  0  0  0  0
   -8.5626   -1.2035  -22.9414 C   0  0  1  0  0  0  0  0  0  0  0  0
   -8.1596   -0.2792  -21.7774 C   0  0  0  0  0  0  0  0  0  0  0  0
   -7.2085   -1.0910  -21.0270 N   0  0  0  0  0  0  0  0  0  0  0  0
   -6.3756   -0.6028  -19.9845 C   0  0  0  0  0  0  0  0  0  0  0  0
   -6.6497   -0.8677  -18.6633 C   0  0  0  0  0  0  0  0  0  0  0  0
   -5.9841   -0.3141  -17.6163 N   0  0  0  0  0  0  0  0  0  0  0  0
   -4.9873    0.4943  -17.8901 C   0  0  0  0  0  0  0  0  0  0  0  0
   -4.5426    0.7910  -19.2078 C   0  0  0  0  0  0  0  0  0  0  0  0
   -3.4141    1.6193  -19.4424 C   0  0  0  0  0  0  0  0  0  0  0  0
   -2.9866    1.8649  -20.7197 C   0  0  0  0  0  0  0  0  0  0  0  0
   -3.6788    1.2960  -21.8111 C   0  0  0  0  0  0  0  0  0  0  0  0
   -4.7850    0.5061  -21.6046 C   0  0  0  0  0  0  0  0  0  0  0  0
   -5.2479    0.2310  -20.2910 C   0  0  0  0  0  0  0  0  0  0  0  0
   -5.3170    0.0778  -22.4434 H   0  0  0  0  0  0  0  0  0  0  0  0
   -3.3294    1.4901  -22.8211 H   0  0  0  0  0  0  0  0  0  0  0  0
   -2.1130    2.4889  -20.8951 H   0  0  0  0  0  0  0  0  0  0  0  0
   -2.9148    2.0539  -18.5821 H   0  0  0  0  0  0  0  0  0  0  0  0
   -4.4653    0.9464  -17.0479 H   0  0  0  0  0  0  0  0  0  0  0  0
   -7.4525   -1.5459  -18.3844 H   0  0  0  0  0  0  0  0  0  0  0  0
   -7.3442   -2.4416  -21.2728 C   0  0  0  0  0  0  0  0  0  0  0  0
   -6.6985   -3.3092  -20.7223 O   0  0  0  0  0  0  0  0  0  0  0  0
   -8.4208   -2.6520  -22.3527 C   0  0  1  0  0  0  0  0  0  0  0  0
   -9.6888   -3.1330  -21.6196 C   0  0  0  0  0  0  0  0  0  0  0  0
  -10.7072   -3.6196  -22.5469 N   0  0  0  0  0  0  0  0  0  0  0  0
  -12.1061   -3.4805  -22.1513 C   0  0  0  0  0  0  0  0  0  0  0  0
  -12.8667   -2.3540  -22.7883 C   0  0  0  0  0  0  0  0  0  0  0  0
  -13.4786   -2.2598  -23.9924 C   0  0  0  0  0  0  0  0  0  0  0  0
  -14.1266   -1.0573  -24.0504 O   0  0  0  0  0  0  0  0  0  0  0  0
  -13.8709   -0.4864  -22.8612 C   0  0  0  0  0  0  0  0  0  0  0  0
  -13.1132   -1.1808  -22.0799 N   0  0  0  0  0  0  0  0  0  0  0  0
  -14.3512    0.4692  -22.6901 H   0  0  0  0  0  0  0  0  0  0  0  0
  -13.6043   -2.9037  -24.8526 H   0  0  0  0  0  0  0  0  0  0  0  0
  -12.1311   -3.2941  -21.0763 H   0  0  0  0  0  0  0  0  0  0  0  0
  -12.6267   -4.4214  -22.3477 H   0  0  0  0  0  0  0  0  0  0  0  0
  -10.3570   -4.6034  -23.4465 C   0  0  0  0  0  0  0  0  0  0  0  0
  -11.1283   -5.4189  -23.9083 O   0  0  0  0  0  0  0  0  0  0  0  0
   -8.9314   -4.6172  -23.8784 C   0  0  0  0  0  0  0  0  0  0  0  0
   -8.5548   -5.5914  -24.8067 C   0  0  0  0  0  0  0  0  0  0  0  0
   -7.2549   -5.6615  -25.2671 C   0  0  0  0  0  0  0  0  0  0  0  0
   -6.3471   -4.7358  -24.7691 C   0  0  0  0  0  0  0  0  0  0  0  0
   -5.0769   -4.7773  -25.2026 F   0  0  0  0  0  0  0  0  0  0  0  0
   -6.6893   -3.7819  -23.8310 C   0  0  0  0  0  0  0  0  0  0  0  0
   -8.0079   -3.7048  -23.3661 C   0  0  0  0  0  0  0  0  0  0  0  0
   -5.9167   -3.1286  -23.4428 H   0  0  0  0  0  0  0  0  0  0  0  0
   -6.9318   -6.3956  -25.9982 H   0  0  0  0  0  0  0  0  0  0  0  0
   -9.2992   -6.2925  -25.1687 H   0  0  0  0  0  0  0  0  0  0  0  0
  -10.0956   -2.2913  -21.0420 H   0  0  0  0  0  0  0  0  0  0  0  0
   -9.3882   -3.9384  -20.9299 H   0  0  0  0  0  0  0  0  0  0  0  0
   -9.0356   -0.0010  -21.1632 H   0  0  0  0  0  0  0  0  0  0  0  0
   -7.6895    0.6505  -22.1100 H   0  0  0  0  0  0  0  0  0  0  0  0
   -7.7806   -1.1385  -23.7104 H   0  0  0  0  0  0  0  0  0  0  0  0
   -9.8422    0.1285  -24.1042 H   0  0  0  0  0  0  0  0  0  0  0  0
  -10.1892   -1.5989  -24.3188 H   0  0  0  0  0  0  0  0  0  0  0  0
  -10.7189   -0.7702  -22.8666 H   0  0  0  0  0  0  0  0  0  0  0  0
  1  2  1  0
  2  3  1  0
  3  4  1  0
  4  5  1  0
  5  6  2  0
  6  7  1  0
  7  8  2  0
  8  9  1  0
  9 10  2  0
 10 11  1  0
 11 12  2  0
 12 13  1  0
 13 14  2  0
 13 15  1  0
 12 16  1  0
 11 17  1  0
 10 18  1  0
  8 19  1  0
  6 20  1  0
  4 21  1  0
 21 22  2  0
 21 23  1  0
 23 24  1  1
 24 25  1  0
 25 26  1  0
 26 27  1  0
 27 28  2  0
 28 29  1  0
 29 30  1  0
 30 31  2  0
 30 32  1  0
 28 33  1  0
 26 34  1  0
 26 35  1  0
 25 36  1  0
 36 37  2  0
 36 38  1  0
 38 39  2  0
 39 40  1  0
 40 41  2  0
 41 42  1  0
 41 43  1  0
 43 44  2  0
 43 45  1  0
 40 46  1  0
 39 47  1  0
 24 48  1  0
 24 49  1  0
  3 50  1  0
  3 51  1  0
  2 52  1  6
  1 53  1  0
  1 54  1  0
  1 55  1  0
 23  2  1  0
 31 27  1  0
 44 38  1  0
 14  5  1  0
 44 23  1  0
 14  9  1  0
M  END
>  <cnnaffinities>  (63) 
[6.55943]

>  <score>  (63) 
6.55943

>  <index>  (63) 
65

>  <Smiles>  (63) 
C([C@]1(C(N(c2c(nc(c3c(c(c(c(c23)[H])[H])[H])[H])[H])[H])C(=O)[C@]21C(N(C(c1c(oc(n1)[H])[H])([H])[H])C(=O)c1c(c(c(F)c(c21)[H])[H])[H])([H])[H])([H])[H])[H])([H])([H])[H]

>  <h>  (63) 
<NA>

>  <Training>  (63) 
True

>  <Success>  (63) 
True

>  <enamine_searched>  (63) 
False

>  <enamine_id>  (63) 
nan

$$$$

     RDKit          3D

 44 47  0  0  0  0  0  0  0  0999 V2000
   -7.9247   -5.9464  -23.4847 C   0  0  0  0  0  0  0  0  0  0  0  0
   -6.4847   -5.5053  -23.2828 C   0  0  0  0  0  0  0  0  0  0  0  0
   -6.1818   -4.1026  -23.8572 C   0  0  1  0  0  0  0  0  0  0  0  0
   -6.2698   -4.0988  -25.3618 C   0  0  0  0  0  0  0  0  0  0  0  0
   -5.3165   -4.6950  -26.2503 C   0  0  0  0  0  0  0  0  0  0  0  0
   -5.7022   -4.6231  -27.5556 C   0  0  0  0  0  0  0  0  0  0  0  0
   -7.2316   -3.8423  -27.7310 S   0  0  0  0  0  0  0  0  0  0  0  0
   -7.3511   -3.6100  -26.0212 C   0  0  0  0  0  0  0  0  0  0  0  0
   -8.5089   -3.0250  -25.2862 C   0  0  0  0  0  0  0  0  0  0  0  0
   -8.0451   -2.3209  -24.0056 C   0  0  0  0  0  0  0  0  0  0  0  0
   -7.0154   -3.0404  -23.2414 N   0  0  0  0  0  0  0  0  0  0  0  0
   -6.6806   -2.6646  -21.9543 C   0  0  0  0  0  0  0  0  0  0  0  0
   -5.8180   -3.2563  -21.3265 O   0  0  0  0  0  0  0  0  0  0  0  0
   -7.3977   -1.4625  -21.2860 C   0  0  0  0  0  0  0  0  0  0  0  0
   -6.5782   -0.8297  -20.1815 C   0  0  0  0  0  0  0  0  0  0  0  0
   -6.8728   -1.0462  -18.8584 C   0  0  0  0  0  0  0  0  0  0  0  0
   -6.1917   -0.5386  -17.7936 N   0  0  0  0  0  0  0  0  0  0  0  0
   -5.1582    0.2238  -18.0625 C   0  0  0  0  0  0  0  0  0  0  0  0
   -4.7207    0.5314  -19.3810 C   0  0  0  0  0  0  0  0  0  0  0  0
   -3.5912    1.3579  -19.6221 C   0  0  0  0  0  0  0  0  0  0  0  0
   -3.1922    1.6369  -20.9023 C   0  0  0  0  0  0  0  0  0  0  0  0
   -3.9064    1.0966  -21.9944 C   0  0  0  0  0  0  0  0  0  0  0  0
   -5.0034    0.2965  -21.7855 C   0  0  0  0  0  0  0  0  0  0  0  0
   -5.4455   -0.0080  -20.4710 C   0  0  0  0  0  0  0  0  0  0  0  0
   -5.5384   -0.1123  -22.6363 H   0  0  0  0  0  0  0  0  0  0  0  0
   -3.5863    1.3230  -23.0063 H   0  0  0  0  0  0  0  0  0  0  0  0
   -2.3320    2.2744  -21.0882 H   0  0  0  0  0  0  0  0  0  0  0  0
   -3.0546    1.7748  -18.7729 H   0  0  0  0  0  0  0  0  0  0  0  0
   -4.6003    0.6292  -17.2166 H   0  0  0  0  0  0  0  0  0  0  0  0
   -7.7209   -1.6718  -18.5872 H   0  0  0  0  0  0  0  0  0  0  0  0
   -7.6831   -0.6952  -22.0166 H   0  0  0  0  0  0  0  0  0  0  0  0
   -8.3335   -1.8391  -20.8492 H   0  0  0  0  0  0  0  0  0  0  0  0
   -8.9212   -2.1643  -23.3666 H   0  0  0  0  0  0  0  0  0  0  0  0
   -7.6719   -1.3265  -24.2830 H   0  0  0  0  0  0  0  0  0  0  0  0
   -9.2216   -3.8261  -25.0472 H   0  0  0  0  0  0  0  0  0  0  0  0
   -9.0572   -2.3208  -25.9158 H   0  0  0  0  0  0  0  0  0  0  0  0
   -5.1789   -4.9923  -28.4271 H   0  0  0  0  0  0  0  0  0  0  0  0
   -4.3929   -5.1709  -25.9289 H   0  0  0  0  0  0  0  0  0  0  0  0
   -5.1370   -3.8777  -23.6033 H   0  0  0  0  0  0  0  0  0  0  0  0
   -5.8133   -6.2183  -23.7788 H   0  0  0  0  0  0  0  0  0  0  0  0
   -6.2234   -5.5069  -22.2224 H   0  0  0  0  0  0  0  0  0  0  0  0
   -8.0908   -6.9236  -23.0259 H   0  0  0  0  0  0  0  0  0  0  0  0
   -8.1820   -6.0214  -24.5461 H   0  0  0  0  0  0  0  0  0  0  0  0
   -8.6149   -5.2364  -23.0224 H   0  0  0  0  0  0  0  0  0  0  0  0
  1  2  1  0
  2  3  1  0
  3  4  1  0
  4  5  1  0
  5  6  2  0
  6  7  1  0
  7  8  1  0
  8  9  1  0
  9 10  1  0
 10 11  1  0
 11 12  1  0
 12 13  2  0
 12 14  1  0
 14 15  1  0
 15 16  2  0
 16 17  1  0
 17 18  2  0
 18 19  1  0
 19 20  2  0
 20 21  1  0
 21 22  2  0
 22 23  1  0
 23 24  2  0
 23 25  1  0
 22 26  1  0
 21 27  1  0
 20 28  1  0
 18 29  1  0
 16 30  1  0
 14 31  1  0
 14 32  1  0
 10 33  1  0
 10 34  1  0
  9 35  1  0
  9 36  1  0
  6 37  1  0
  5 38  1  0
  3 39  1  6
  2 40  1  0
  2 41  1  0
  1 42  1  0
  1 43  1  0
  1 44  1  0
 11  3  1  0
 24 15  1  0
  8  4  2  0
 24 19  1  0
M  END
>  <cnnaffinities>  (64) 
[5.22621, 4.91072, 5.37838]

>  <score>  (64) 
5.22621

>  <index>  (64) 
66

>  <Smiles>  (64) 
C(C([C@]1(c2c(c(sc2C(C(N1C(=O)C(c1c(nc(c2c(c(c(c(c12)[H])[H])[H])[H])[H])[H])([H])[H])([H])[H])([H])[H])[H])[H])[H])([H])[H])([H])([H])[H]

>  <h>  (64) 
<NA>

>  <Training>  (64) 
True

>  <Success>  (64) 
True

>  <enamine_searched>  (64) 
False

>  <enamine_id>  (64) 
nan

$$$$

     RDKit          3D

 58 63  0  0  0  0  0  0  0  0999 V2000
  -14.9233    0.2538  -22.8537 C   0  0  0  0  0  0  0  0  0  0  0  0
  -13.9239   -0.8588  -22.8313 C   0  0  0  0  0  0  0  0  0  0  0  0
  -13.5816   -1.7669  -21.7939 C   0  0  0  0  0  0  0  0  0  0  0  0
  -12.7223   -2.6314  -22.3858 C   0  0  0  0  0  0  0  0  0  0  0  0
  -12.0337   -3.9052  -21.9957 C   0  0  0  0  0  0  0  0  0  0  0  0
  -10.6442   -3.9719  -22.4254 N   0  0  0  0  0  0  0  0  0  0  0  0
   -9.6360   -3.3533  -21.5756 C   0  0  0  0  0  0  0  0  0  0  0  0
   -8.4016   -2.8164  -22.3524 C   0  0  2  0  0  0  0  0  0  0  0  0
   -7.2952   -2.5984  -21.3014 C   0  0  0  0  0  0  0  0  0  0  0  0
   -6.6511   -3.4623  -20.7368 O   0  0  0  0  0  0  0  0  0  0  0  0
   -7.1597   -1.2473  -21.0677 N   0  0  0  0  0  0  0  0  0  0  0  0
   -6.3661   -0.7272  -20.0191 C   0  0  0  0  0  0  0  0  0  0  0  0
   -6.6761   -0.9623  -18.7031 C   0  0  0  0  0  0  0  0  0  0  0  0
   -6.0324   -0.3831  -17.6553 N   0  0  0  0  0  0  0  0  0  0  0  0
   -5.0311    0.4215  -17.9243 C   0  0  0  0  0  0  0  0  0  0  0  0
   -4.5744    0.7086  -19.2421 C   0  0  0  0  0  0  0  0  0  0  0  0
   -3.4573    1.5481  -19.4868 C   0  0  0  0  0  0  0  0  0  0  0  0
   -3.0428    1.7954  -20.7666 C   0  0  0  0  0  0  0  0  0  0  0  0
   -3.7312    1.2223  -21.8596 C   0  0  0  0  0  0  0  0  0  0  0  0
   -4.8200    0.4130  -21.6476 C   0  0  0  0  0  0  0  0  0  0  0  0
   -5.2634    0.1305  -20.3283 C   0  0  0  0  0  0  0  0  0  0  0  0
   -5.3495   -0.0248  -22.4862 H   0  0  0  0  0  0  0  0  0  0  0  0
   -3.4019    1.4308  -22.8732 H   0  0  0  0  0  0  0  0  0  0  0  0
   -2.1864    2.4385  -20.9518 H   0  0  0  0  0  0  0  0  0  0  0  0
   -2.9552    1.9954  -18.6337 H   0  0  0  0  0  0  0  0  0  0  0  0
   -4.5160    0.8850  -17.0802 H   0  0  0  0  0  0  0  0  0  0  0  0
   -7.4938   -1.6299  -18.4382 H   0  0  0  0  0  0  0  0  0  0  0  0
   -8.1116   -0.4401  -21.8051 C   0  0  0  0  0  0  0  0  0  0  0  0
   -8.5514   -1.3667  -22.9440 C   0  0  2  0  0  0  0  0  0  0  0  0
   -9.9104   -0.9705  -23.4910 C   0  0  0  0  0  0  0  0  0  0  0  0
   -9.8775   -0.0035  -24.0093 H   0  0  0  0  0  0  0  0  0  0  0  0
  -10.6382   -0.8861  -22.6746 H   0  0  0  0  0  0  0  0  0  0  0  0
  -10.2775   -1.7214  -24.1897 H   0  0  0  0  0  0  0  0  0  0  0  0
   -7.8090   -1.3221  -23.7588 H   0  0  0  0  0  0  0  0  0  0  0  0
   -7.6561    0.4854  -22.1698 H   0  0  0  0  0  0  0  0  0  0  0  0
   -8.9674   -0.1552  -21.1680 H   0  0  0  0  0  0  0  0  0  0  0  0
   -7.9927   -3.8442  -23.3855 C   0  0  0  0  0  0  0  0  0  0  0  0
   -6.6902   -3.8837  -23.8903 C   0  0  0  0  0  0  0  0  0  0  0  0
   -6.3662   -4.7938  -24.8783 C   0  0  0  0  0  0  0  0  0  0  0  0
   -5.1191   -4.7922  -25.3699 F   0  0  0  0  0  0  0  0  0  0  0  0
   -7.2718   -5.7080  -25.4002 C   0  0  0  0  0  0  0  0  0  0  0  0
   -8.5468   -5.6855  -24.8870 C   0  0  0  0  0  0  0  0  0  0  0  0
   -8.8946   -4.7738  -23.8932 C   0  0  0  0  0  0  0  0  0  0  0  0
  -10.3077   -4.8096  -23.4546 C   0  0  0  0  0  0  0  0  0  0  0  0
  -11.0873   -5.5394  -24.0400 O   0  0  0  0  0  0  0  0  0  0  0  0
   -9.3156   -6.3676  -25.2306 H   0  0  0  0  0  0  0  0  0  0  0  0
   -6.9757   -6.4128  -26.1677 H   0  0  0  0  0  0  0  0  0  0  0  0
   -5.9219   -3.2295  -23.5012 H   0  0  0  0  0  0  0  0  0  0  0  0
   -9.2704   -4.0534  -20.8072 H   0  0  0  0  0  0  0  0  0  0  0  0
  -10.1278   -2.5372  -21.0427 H   0  0  0  0  0  0  0  0  0  0  0  0
  -12.5410   -4.7295  -22.5010 H   0  0  0  0  0  0  0  0  0  0  0  0
  -12.1063   -4.0506  -20.9118 H   0  0  0  0  0  0  0  0  0  0  0  0
  -12.5360   -2.2657  -23.6680 O   0  0  0  0  0  0  0  0  0  0  0  0
  -13.2909   -1.1396  -23.9410 N   0  0  0  0  0  0  0  0  0  0  0  0
  -14.0068   -1.8217  -20.8043 H   0  0  0  0  0  0  0  0  0  0  0  0
  -15.7748   -0.0857  -23.4302 H   0  0  0  0  0  0  0  0  0  0  0  0
  -14.4947    1.1408  -23.3250 H   0  0  0  0  0  0  0  0  0  0  0  0
  -15.3410    0.5217  -21.8899 H   0  0  0  0  0  0  0  0  0  0  0  0
  1  2  1  0
  2  3  1  0
  3  4  2  0
  4  5  1  0
  5  6  1  0
  6  7  1  0
  8  7  1  1
  8  9  1  0
  9 10  2  0
  9 11  1  0
 11 12  1  0
 12 13  2  0
 13 14  1  0
 14 15  2  0
 15 16  1  0
 16 17  2  0
 17 18  1  0
 18 19  2  0
 19 20  1  0
 20 21  2  0
 20 22  1  0
 19 23  1  0
 18 24  1  0
 17 25  1  0
 15 26  1  0
 13 27  1  0
 11 28  1  0
 28 29  1  0
 29 30  1  0
 30 31  1  0
 30 32  1  0
 30 33  1  0
 29 34  1  6
 28 35  1  0
 28 36  1  0
  8 37  1  0
 37 38  2  0
 38 39  1  0
 39 40  1  0
 39 41  2  0
 41 42  1  0
 42 43  2  0
 43 44  1  0
 44 45  2  0
 42 46  1  0
 41 47  1  0
 38 48  1  0
  7 49  1  0
  7 50  1  0
  5 51  1  0
  5 52  1  0
  4 53  1  0
 53 54  1  0
  3 55  1  0
  1 56  1  0
  1 57  1  0
  1 58  1  0
 54  2  2  0
 44  6  1  0
 29  8  1  0
 43 37  1  0
 21 12  1  0
 21 16  1  0
M  END
>  <cnnaffinities>  (65) 
[6.46198, 6.21237]

>  <score>  (65) 
6.46198

>  <index>  (65) 
67

>  <Smiles>  (65) 
C(c1c(c(C(N2C([C@@]3(C(=O)N(c4c(nc(c5c(c(c(c(c45)[H])[H])[H])[H])[H])[H])C([C@@]3(C([H])([H])[H])[H])([H])[H])c3c(c(F)c(c(c3C2=O)[H])[H])[H])([H])[H])([H])[H])on1)[H])([H])([H])[H]

>  <h>  (65) 
<NA>

>  <Training>  (65) 
True

>  <Success>  (65) 
True

>  <enamine_searched>  (65) 
False

>  <enamine_id>  (65) 
nan

$$$$

     RDKit          3D

 65 70  0  0  0  0  0  0  0  0999 V2000
   -5.6299   -3.1786  -21.3397 O   0  0  0  0  0  0  0  0  0  0  0  0
   -6.5998   -2.7172  -21.9236 C   0  0  0  0  0  0  0  0  0  0  0  0
   -7.3397   -1.5165  -21.3185 C   0  0  0  0  0  0  0  0  0  0  0  0
   -6.5656   -0.8591  -20.2127 C   0  0  0  0  0  0  0  0  0  0  0  0
   -6.8974   -1.0677  -18.9006 C   0  0  0  0  0  0  0  0  0  0  0  0
   -6.2410   -0.5496  -17.8254 N   0  0  0  0  0  0  0  0  0  0  0  0
   -5.1986    0.2049  -18.0825 C   0  0  0  0  0  0  0  0  0  0  0  0
   -4.7279    0.4959  -19.3911 C   0  0  0  0  0  0  0  0  0  0  0  0
   -3.6027    1.3291  -19.6182 C   0  0  0  0  0  0  0  0  0  0  0  0
   -3.1901    1.6115  -20.8919 C   0  0  0  0  0  0  0  0  0  0  0  0
   -3.8892    1.0750  -21.9980 C   0  0  0  0  0  0  0  0  0  0  0  0
   -4.9811    0.2671  -21.8038 C   0  0  0  0  0  0  0  0  0  0  0  0
   -5.4310   -0.0467  -20.4927 C   0  0  0  0  0  0  0  0  0  0  0  0
   -5.5218   -0.1241  -22.6609 H   0  0  0  0  0  0  0  0  0  0  0  0
   -3.5692    1.3216  -23.0062 H   0  0  0  0  0  0  0  0  0  0  0  0
   -2.3360    2.2605  -21.0630 H   0  0  0  0  0  0  0  0  0  0  0  0
   -3.0956    1.7581  -18.7560 H   0  0  0  0  0  0  0  0  0  0  0  0
   -4.6668    0.6306  -17.2294 H   0  0  0  0  0  0  0  0  0  0  0  0
   -7.7534   -1.6943  -18.6542 H   0  0  0  0  0  0  0  0  0  0  0  0
   -8.2965   -1.8892  -20.9286 H   0  0  0  0  0  0  0  0  0  0  0  0
   -7.5875   -0.8020  -22.1071 H   0  0  0  0  0  0  0  0  0  0  0  0
   -7.0993   -3.2430  -23.1080 N   0  0  0  0  0  0  0  0  0  0  0  0
   -7.8514   -2.4413  -24.0619 C   0  0  0  0  0  0  0  0  0  0  0  0
   -9.3129   -2.1708  -23.7392 C   0  0  0  0  0  0  0  0  0  0  0  0
   -9.9284   -1.0556  -24.3155 C   0  0  0  0  0  0  0  0  0  0  0  0
  -11.2608   -0.7577  -24.0462 C   0  0  0  0  0  0  0  0  0  0  0  0
  -12.0106   -1.5701  -23.2027 C   0  0  0  0  0  0  0  0  0  0  0  0
  -11.3969   -2.6808  -22.6399 C   0  0  0  0  0  0  0  0  0  0  0  0
  -12.3194   -3.7120  -21.5804 Cl  0  0  0  0  0  0  0  0  0  0  0  0
  -10.0655   -2.9908  -22.8957 C   0  0  0  0  0  0  0  0  0  0  0  0
   -9.6343   -3.8587  -22.4105 H   0  0  0  0  0  0  0  0  0  0  0  0
  -13.0492   -1.3515  -22.9765 H   0  0  0  0  0  0  0  0  0  0  0  0
  -11.7194    0.1209  -24.4928 H   0  0  0  0  0  0  0  0  0  0  0  0
   -9.3575   -0.4091  -24.9766 H   0  0  0  0  0  0  0  0  0  0  0  0
   -7.7830   -2.9358  -25.0336 H   0  0  0  0  0  0  0  0  0  0  0  0
   -7.3350   -1.4815  -24.1946 H   0  0  0  0  0  0  0  0  0  0  0  0
   -6.7625   -4.6264  -23.4682 C   0  0  2  0  0  0  0  0  0  0  0  0
   -7.6990   -5.3134  -24.4931 C   0  0  0  0  0  0  0  0  0  0  0  0
   -7.4824   -6.8276  -24.2379 C   0  0  0  0  0  0  0  0  0  0  0  0
   -6.4583   -6.8199  -23.1083 C   0  0  2  0  0  0  0  0  0  0  0  0
   -6.8477   -5.6005  -22.2964 C   0  0  0  0  0  0  0  0  0  0  0  0
   -6.1305   -5.3252  -21.5204 H   0  0  0  0  0  0  0  0  0  0  0  0
   -7.8621   -5.6240  -21.8777 H   0  0  0  0  0  0  0  0  0  0  0  0
   -5.1158   -6.3935  -23.7408 N   0  0  2  0  0  4  0  0  0  0  0  0
   -3.9326   -6.7487  -22.8824 C   0  0  0  0  0  0  0  0  0  0  0  0
   -3.0843   -7.9328  -23.3671 C   0  0  0  0  0  0  0  0  0  0  0  0
   -3.7876   -9.0374  -24.1610 C   0  0  0  0  0  0  0  0  0  0  0  0
   -3.5101   -8.3467  -25.3925 O   0  0  0  0  0  0  0  0  0  0  0  0
   -2.4271   -7.6605  -24.7265 C   0  0  0  0  0  0  0  0  0  0  0  0
   -2.3773   -6.6108  -25.0313 H   0  0  0  0  0  0  0  0  0  0  0  0
   -1.4522   -8.1662  -24.8539 H   0  0  0  0  0  0  0  0  0  0  0  0
   -3.2080   -9.9723  -24.0781 H   0  0  0  0  0  0  0  0  0  0  0  0
   -4.8576   -9.2310  -24.0320 H   0  0  0  0  0  0  0  0  0  0  0  0
   -2.4572   -8.2806  -22.5447 H   0  0  0  0  0  0  0  0  0  0  0  0
   -3.2688   -5.8785  -22.8334 H   0  0  0  0  0  0  0  0  0  0  0  0
   -4.2892   -6.9195  -21.8615 H   0  0  0  0  0  0  0  0  0  0  0  0
   -5.3148   -4.8808  -23.9515 C   0  0  0  0  0  0  0  0  0  0  0  0
   -4.6129   -4.3390  -23.3168 H   0  0  0  0  0  0  0  0  0  0  0  0
   -5.1295   -4.6334  -24.9990 H   0  0  0  0  0  0  0  0  0  0  0  0
   -4.9798   -6.8639  -24.6496 H   0  0  0  0  0  0  0  0  0  0  0  0
   -6.3350   -7.7524  -22.5561 H   0  0  0  0  0  0  0  0  0  0  0  0
   -8.4108   -7.3193  -23.9323 H   0  0  0  0  0  0  0  0  0  0  0  0
   -7.0838   -7.3655  -25.1051 H   0  0  0  0  0  0  0  0  0  0  0  0
   -7.4669   -5.0344  -25.5245 H   0  0  0  0  0  0  0  0  0  0  0  0
   -8.7347   -5.0283  -24.2867 H   0  0  0  0  0  0  0  0  0  0  0  0
  1  2  2  0
  2  3  1  0
  3  4  1  0
  4  5  2  0
  5  6  1  0
  6  7  2  0
  7  8  1  0
  8  9  2  0
  9 10  1  0
 10 11  2  0
 11 12  1  0
 12 13  2  0
 12 14  1  0
 11 15  1  0
 10 16  1  0
  9 17  1  0
  7 18  1  0
  5 19  1  0
  3 20  1  0
  3 21  1  0
  2 22  1  0
 22 23  1  0
 23 24  1  0
 24 25  2  0
 25 26  1  0
 26 27  2  0
 27 28  1  0
 28 29  1  0
 28 30  2  0
 30 31  1  0
 27 32  1  0
 26 33  1  0
 25 34  1  0
 23 35  1  0
 23 36  1  0
 37 22  1  1
 37 38  1  0
 38 39  1  0
 39 40  1  0
 40 41  1  0
 41 42  1  0
 41 43  1  0
 40 44  1  0
 44 45  1  0
 45 46  1  0
 46 47  1  0
 47 48  1  0
 48 49  1  0
 49 50  1  0
 49 51  1  0
 47 52  1  0
 47 53  1  0
 46 54  1  0
 45 55  1  0
 45 56  1  0
 44 57  1  0
 57 58  1  0
 57 59  1  0
 44 60  1  6
 40 61  1  1
 39 62  1  0
 39 63  1  0
 38 64  1  0
 38 65  1  0
 13  4  1  0
 30 24  1  0
 41 37  1  0
 49 46  1  0
 13  8  1  0
 57 37  1  0
M  CHG  1  44   1
M  END
>  <cnnaffinities>  (66) 
[5.76147, 5.89537]

>  <score>  (66) 
5.76147

>  <index>  (66) 
68

>  <Smiles>  (66) 
O=C(C(c1c(nc(c2c(c(c(c(c12)[H])[H])[H])[H])[H])[H])([H])[H])N(C(c1c(c(c(c(Cl)c1[H])[H])[H])[H])([H])[H])[C@]12C(C([C@](C1([H])[H])([N@+](C(C1(C(OC1([H])[H])([H])[H])[H])([H])[H])(C2([H])[H])[H])[H])([H])[H])([H])[H]

>  <h>  (66) 
<NA>

>  <Training>  (66) 
True

>  <Success>  (66) 
True

>  <enamine_searched>  (66) 
False

>  <enamine_id>  (66) 
nan

$$$$

     RDKit          3D

 63 67  0  0  0  0  0  0  0  0999 V2000
  -12.3440    6.3711  -23.9733 C   0  0  0  0  0  0  0  0  0  0  0  0
  -11.4928    5.3642  -23.8403 C   0  0  0  0  0  0  0  0  0  0  0  0
  -10.5721    5.0605  -24.9721 C   0  0  0  0  0  0  0  0  0  0  0  0
  -10.3798    5.8455  -25.8920 O   0  0  0  0  0  0  0  0  0  0  0  0
   -9.8797    3.8644  -24.9037 N   0  0  0  0  0  0  0  0  0  0  0  0
   -8.5601    3.8618  -25.5140 C   0  0  0  0  0  0  0  0  0  0  0  0
   -7.6041    3.1936  -24.5514 C   0  0  0  0  0  0  0  0  0  0  0  0
   -8.0396    1.7508  -24.3585 C   0  0  0  0  0  0  0  0  0  0  0  0
   -9.5191    1.6195  -24.0394 C   0  0  0  0  0  0  0  0  0  0  0  0
  -10.4051    2.6540  -24.3956 C   0  0  0  0  0  0  0  0  0  0  0  0
  -11.7918    2.4632  -24.2969 C   0  0  0  0  0  0  0  0  0  0  0  0
  -12.2943    1.2838  -23.7802 C   0  0  0  0  0  0  0  0  0  0  0  0
  -11.4271    0.2848  -23.3427 C   0  0  0  0  0  0  0  0  0  0  0  0
  -10.0541    0.4580  -23.4768 C   0  0  0  0  0  0  0  0  0  0  0  0
   -9.1516   -0.6807  -23.0055 N   0  0  1  0  0  4  0  0  0  0  0  0
   -8.3679   -1.3950  -24.2096 C   0  0  0  0  0  0  0  0  0  0  0  0
   -8.4132   -2.9137  -24.1864 C   0  0  0  0  0  0  0  0  0  0  0  0
   -7.2085   -3.6157  -24.0914 C   0  0  0  0  0  0  0  0  0  0  0  0
   -7.1752   -5.0032  -24.1096 C   0  0  0  0  0  0  0  0  0  0  0  0
   -8.3386   -5.7326  -24.2754 C   0  0  0  0  0  0  0  0  0  0  0  0
   -9.5331   -5.0488  -24.4327 C   0  0  0  0  0  0  0  0  0  0  0  0
  -10.9121   -6.0454  -24.8169 Cl  0  0  0  0  0  0  0  0  0  0  0  0
   -9.5943   -3.6570  -24.3462 C   0  0  0  0  0  0  0  0  0  0  0  0
  -10.5485   -3.1413  -24.4023 H   0  0  0  0  0  0  0  0  0  0  0  0
   -8.3473   -6.8170  -24.2800 H   0  0  0  0  0  0  0  0  0  0  0  0
   -6.2321   -5.5320  -24.0320 H   0  0  0  0  0  0  0  0  0  0  0  0
   -6.2638   -3.0818  -24.0355 H   0  0  0  0  0  0  0  0  0  0  0  0
   -7.3276   -1.0432  -24.2122 H   0  0  0  0  0  0  0  0  0  0  0  0
   -8.8373   -1.0108  -25.1162 H   0  0  0  0  0  0  0  0  0  0  0  0
   -8.3954   -0.3253  -21.7479 C   0  0  0  0  0  0  0  0  0  0  0  0
   -8.5780    0.7222  -21.1948 O   0  0  0  0  0  0  0  0  0  0  0  0
   -7.4536   -1.4112  -21.2273 C   0  0  0  0  0  0  0  0  0  0  0  0
   -6.5619   -0.8658  -20.1466 C   0  0  0  0  0  0  0  0  0  0  0  0
   -6.8721   -1.0580  -18.8267 C   0  0  0  0  0  0  0  0  0  0  0  0
   -6.1927   -0.5381  -17.7675 N   0  0  0  0  0  0  0  0  0  0  0  0
   -5.1607    0.2194  -18.0542 C   0  0  0  0  0  0  0  0  0  0  0  0
   -4.7280    0.5165  -19.3745 C   0  0  0  0  0  0  0  0  0  0  0  0
   -3.6150    1.3597  -19.6204 C   0  0  0  0  0  0  0  0  0  0  0  0
   -3.2313    1.6519  -20.8989 C   0  0  0  0  0  0  0  0  0  0  0  0
   -3.9489    1.1155  -21.9914 C   0  0  0  0  0  0  0  0  0  0  0  0
   -5.0320    0.2965  -21.7814 C   0  0  0  0  0  0  0  0  0  0  0  0
   -5.4488   -0.0317  -20.4601 C   0  0  0  0  0  0  0  0  0  0  0  0
   -5.5899   -0.0839  -22.6350 H   0  0  0  0  0  0  0  0  0  0  0  0
   -3.6441    1.3667  -23.0020 H   0  0  0  0  0  0  0  0  0  0  0  0
   -2.3826    2.3027  -21.0822 H   0  0  0  0  0  0  0  0  0  0  0  0
   -3.0945    1.7845  -18.7668 H   0  0  0  0  0  0  0  0  0  0  0  0
   -4.6152    0.6584  -17.2183 H   0  0  0  0  0  0  0  0  0  0  0  0
   -7.7286   -1.6770  -18.5607 H   0  0  0  0  0  0  0  0  0  0  0  0
   -8.0676   -2.2354  -20.8347 H   0  0  0  0  0  0  0  0  0  0  0  0
   -6.8772   -1.8085  -22.0661 H   0  0  0  0  0  0  0  0  0  0  0  0
   -9.8150   -1.4363  -22.7180 H   0  0  0  0  0  0  0  0  0  0  0  0
  -11.8280   -0.6295  -22.9166 H   0  0  0  0  0  0  0  0  0  0  0  0
  -13.3695    1.1454  -23.6958 H   0  0  0  0  0  0  0  0  0  0  0  0
  -12.4742    3.2465  -24.6162 H   0  0  0  0  0  0  0  0  0  0  0  0
   -7.8261    1.2042  -25.2883 H   0  0  0  0  0  0  0  0  0  0  0  0
   -7.4291    1.2922  -23.5788 H   0  0  0  0  0  0  0  0  0  0  0  0
   -6.5762    3.2528  -24.9228 H   0  0  0  0  0  0  0  0  0  0  0  0
   -7.6399    3.7212  -23.5927 H   0  0  0  0  0  0  0  0  0  0  0  0
   -8.6154    3.3420  -26.4788 H   0  0  0  0  0  0  0  0  0  0  0  0
   -8.2993    4.9027  -25.7065 H   0  0  0  0  0  0  0  0  0  0  0  0
  -11.4387    4.7360  -22.9492 H   0  0  0  0  0  0  0  0  0  0  0  0
  -12.3313    6.9566  -24.8913 H   0  0  0  0  0  0  0  0  0  0  0  0
  -13.0340    6.6410  -23.1829 H   0  0  0  0  0  0  0  0  0  0  0  0
  1  2  2  0
  2  3  1  0
  3  4  2  0
  3  5  1  0
  5  6  1  0
  6  7  1  0
  7  8  1  0
  8  9  1  0
  9 10  2  0
 10 11  1  0
 11 12  2  0
 12 13  1  0
 13 14  2  0
 14 15  1  0
 15 16  1  0
 16 17  1  0
 17 18  2  0
 18 19  1  0
 19 20  2  0
 20 21  1  0
 21 22  1  0
 21 23  2  0
 23 24  1  0
 20 25  1  0
 19 26  1  0
 18 27  1  0
 16 28  1  0
 16 29  1  0
 15 30  1  0
 30 31  2  0
 30 32  1  0
 32 33  1  0
 33 34  2  0
 34 35  1  0
 35 36  2  0
 36 37  1  0
 37 38  2  0
 38 39  1  0
 39 40  2  0
 40 41  1  0
 41 42  2  0
 41 43  1  0
 40 44  1  0
 39 45  1  0
 38 46  1  0
 36 47  1  0
 34 48  1  0
 32 49  1  0
 32 50  1  0
 15 51  1  1
 13 52  1  0
 12 53  1  0
 11 54  1  0
  8 55  1  0
  8 56  1  0
  7 57  1  0
  7 58  1  0
  6 59  1  0
  6 60  1  0
  2 61  1  0
  1 62  1  0
  1 63  1  0
 10  5  1  0
 23 17  1  0
 42 33  1  0
 14  9  1  0
 42 37  1  0
M  CHG  1  15   1
M  END
>  <cnnaffinities>  (67) 
[6.22924]

>  <score>  (67) 
6.22924

>  <index>  (67) 
69

>  <Smiles>  (67) 
C(=C(C(=O)N1C(C(C(c2c1c(c(c(c2[N@@+](C(c1c(c(c(c(Cl)c1[H])[H])[H])[H])([H])[H])(C(=O)C(c1c(nc(c2c(c(c(c(c12)[H])[H])[H])[H])[H])[H])([H])[H])[H])[H])[H])[H])([H])[H])([H])[H])([H])[H])[H])([H])[H]

>  <h>  (67) 
<NA>

>  <Training>  (67) 
True

>  <Success>  (67) 
True

>  <enamine_searched>  (67) 
False

>  <enamine_id>  (67) 
nan

$$$$

     RDKit          3D

 52 54  0  0  0  0  0  0  0  0999 V2000
   -6.3724   -6.8985  -26.9828 C   0  0  0  0  0  0  0  0  0  0  0  0
   -5.9405   -5.7185  -26.1087 C   0  0  0  0  0  0  0  0  0  0  0  0
   -4.7385   -5.0147  -26.7465 C   0  0  0  0  0  0  0  0  0  0  0  0
   -4.3645   -4.1975  -26.1214 H   0  0  0  0  0  0  0  0  0  0  0  0
   -3.9077   -5.7126  -26.9008 H   0  0  0  0  0  0  0  0  0  0  0  0
   -4.9941   -4.5985  -27.7273 H   0  0  0  0  0  0  0  0  0  0  0  0
   -7.0564   -4.6946  -25.8277 C   0  0  0  0  0  0  0  0  0  0  0  0
   -8.3066   -5.0856  -24.9873 C   0  0  0  0  0  0  0  0  0  0  0  0
   -9.2719   -5.9594  -25.8029 C   0  0  0  0  0  0  0  0  0  0  0  0
   -9.5077   -5.4988  -26.7697 H   0  0  0  0  0  0  0  0  0  0  0  0
   -8.8823   -6.9617  -26.0011 H   0  0  0  0  0  0  0  0  0  0  0  0
  -10.2195   -6.0961  -25.2692 H   0  0  0  0  0  0  0  0  0  0  0  0
   -9.0488   -3.7803  -24.5725 C   0  0  0  0  0  0  0  0  0  0  0  0
   -8.8683   -3.3499  -23.1072 C   0  0  0  0  0  0  0  0  0  0  0  0
   -7.5308   -3.6141  -22.6019 N   0  0  0  0  0  0  0  0  0  0  0  0
   -6.7714   -2.7614  -21.8400 C   0  0  0  0  0  0  0  0  0  0  0  0
   -5.6004   -3.0095  -21.5986 O   0  0  0  0  0  0  0  0  0  0  0  0
   -7.4205   -1.4774  -21.2626 C   0  0  0  0  0  0  0  0  0  0  0  0
   -6.5805   -0.8302  -20.1825 C   0  0  0  0  0  0  0  0  0  0  0  0
   -6.8732   -1.0439  -18.8594 C   0  0  0  0  0  0  0  0  0  0  0  0
   -6.1912   -0.5398  -17.7963 N   0  0  0  0  0  0  0  0  0  0  0  0
   -5.1579    0.2236  -18.0637 C   0  0  0  0  0  0  0  0  0  0  0  0
   -4.7207    0.5303  -19.3821 C   0  0  0  0  0  0  0  0  0  0  0  0
   -3.5909    1.3572  -19.6209 C   0  0  0  0  0  0  0  0  0  0  0  0
   -3.1890    1.6329  -20.9010 C   0  0  0  0  0  0  0  0  0  0  0  0
   -3.8999    1.0885  -21.9931 C   0  0  0  0  0  0  0  0  0  0  0  0
   -4.9980    0.2875  -21.7870 C   0  0  0  0  0  0  0  0  0  0  0  0
   -5.4439   -0.0122  -20.4729 C   0  0  0  0  0  0  0  0  0  0  0  0
   -5.5231   -0.1343  -22.6369 H   0  0  0  0  0  0  0  0  0  0  0  0
   -3.5735    1.3110  -23.0043 H   0  0  0  0  0  0  0  0  0  0  0  0
   -2.3277    2.2700  -21.0854 H   0  0  0  0  0  0  0  0  0  0  0  0
   -3.0554    1.7755  -18.7709 H   0  0  0  0  0  0  0  0  0  0  0  0
   -4.6006    0.6289  -17.2170 H   0  0  0  0  0  0  0  0  0  0  0  0
   -7.7203   -1.6698  -18.5863 H   0  0  0  0  0  0  0  0  0  0  0  0
   -8.4071   -1.7224  -20.8426 H   0  0  0  0  0  0  0  0  0  0  0  0
   -7.6029   -0.7580  -22.0734 H   0  0  0  0  0  0  0  0  0  0  0  0
   -7.0265   -4.9787  -22.7853 C   0  0  0  0  0  0  0  0  0  0  0  0
   -7.9140   -5.8187  -23.7015 C   0  0  0  0  0  0  0  0  0  0  0  0
   -7.4028   -6.7572  -23.9440 H   0  0  0  0  0  0  0  0  0  0  0  0
   -8.8167   -6.1378  -23.1657 H   0  0  0  0  0  0  0  0  0  0  0  0
   -6.9477   -5.4746  -21.8174 H   0  0  0  0  0  0  0  0  0  0  0  0
   -6.0035   -4.9410  -23.1709 H   0  0  0  0  0  0  0  0  0  0  0  0
   -9.0768   -2.2829  -23.0306 H   0  0  0  0  0  0  0  0  0  0  0  0
   -9.6212   -3.8566  -22.4872 H   0  0  0  0  0  0  0  0  0  0  0  0
  -10.1254   -3.8888  -24.7267 H   0  0  0  0  0  0  0  0  0  0  0  0
   -8.7543   -2.9609  -25.2353 H   0  0  0  0  0  0  0  0  0  0  0  0
   -7.4103   -4.3115  -26.7958 H   0  0  0  0  0  0  0  0  0  0  0  0
   -6.5915   -3.8247  -25.3444 H   0  0  0  0  0  0  0  0  0  0  0  0
   -5.5896   -6.1225  -25.1544 H   0  0  0  0  0  0  0  0  0  0  0  0
   -5.5099   -7.3786  -27.4575 H   0  0  0  0  0  0  0  0  0  0  0  0
   -7.0394   -6.5749  -27.7878 H   0  0  0  0  0  0  0  0  0  0  0  0
   -6.8936   -7.6730  -26.4146 H   0  0  0  0  0  0  0  0  0  0  0  0
  1  2  1  0
  2  3  1  0
  3  4  1  0
  3  5  1  0
  3  6  1  0
  2  7  1  0
  7  8  1  0
  8  9  1  0
  9 10  1  0
  9 11  1  0
  9 12  1  0
  8 13  1  0
 13 14  1  0
 14 15  1  0
 15 16  1  0
 16 17  2  0
 16 18  1  0
 18 19  1  0
 19 20  2  0
 20 21  1  0
 21 22  2  0
 22 23  1  0
 23 24  2  0
 24 25  1  0
 25 26  2  0
 26 27  1  0
 27 28  2  0
 27 29  1  0
 26 30  1  0
 25 31  1  0
 24 32  1  0
 22 33  1  0
 20 34  1  0
 18 35  1  0
 18 36  1  0
 15 37  1  0
 37 38  1  0
 38 39  1  0
 38 40  1  0
 37 41  1  0
 37 42  1  0
 14 43  1  0
 14 44  1  0
 13 45  1  0
 13 46  1  0
  7 47  1  0
  7 48  1  0
  2 49  1  0
  1 50  1  0
  1 51  1  0
  1 52  1  0
 38  8  1  0
 28 19  1  0
 28 23  1  0
M  END
>  <cnnaffinities>  (68) 
[5.32455, 5.33108, 5.16376, 5.16372, 4.86067, 5.19113, 4.90211, 4.90092, 4.77747, 4.77808, 5.17935]

>  <score>  (68) 
5.32455

>  <index>  (68) 
70

>  <Smiles>  (68) 
C(C(C([H])([H])[H])(C(C1(C([H])([H])[H])C(C(N(C(=O)C(c2c(nc(c3c(c(c(c(c23)[H])[H])[H])[H])[H])[H])([H])[H])C(C1([H])[H])([H])[H])([H])[H])([H])[H])([H])[H])[H])([H])([H])[H]

>  <h>  (68) 
<NA>

>  <Training>  (68) 
True

>  <Success>  (68) 
True

>  <enamine_searched>  (68) 
False

>  <enamine_id>  (68) 
nan

$$$$

     RDKit          3D

 50 54  0  0  0  0  0  0  0  0999 V2000
   -8.4342   -4.1914  -23.6083 C   0  0  0  0  0  0  0  0  0  0  0  0
   -8.5769   -3.2010  -22.4625 C   0  0  1  0  0  0  0  0  0  0  0  0
   -7.2374   -2.6183  -22.0058 C   0  0  0  0  0  0  0  0  0  0  0  0
   -7.6584   -1.4927  -21.2020 N   0  0  0  0  0  0  0  0  0  0  0  0
   -6.8927   -0.9056  -20.1739 C   0  0  0  0  0  0  0  0  0  0  0  0
   -7.2545   -1.0721  -18.8596 C   0  0  0  0  0  0  0  0  0  0  0  0
   -6.5507   -0.5762  -17.8118 N   0  0  0  0  0  0  0  0  0  0  0  0
   -5.4665    0.1106  -18.0781 C   0  0  0  0  0  0  0  0  0  0  0  0
   -4.9866    0.3551  -19.3948 C   0  0  0  0  0  0  0  0  0  0  0  0
   -3.8320    1.1397  -19.6322 C   0  0  0  0  0  0  0  0  0  0  0  0
   -3.4219    1.4113  -20.9069 C   0  0  0  0  0  0  0  0  0  0  0  0
   -4.1447    0.8981  -22.0061 C   0  0  0  0  0  0  0  0  0  0  0  0
   -5.2603    0.1226  -21.8056 C   0  0  0  0  0  0  0  0  0  0  0  0
   -5.7116   -0.1629  -20.4877 C   0  0  0  0  0  0  0  0  0  0  0  0
   -5.8176   -0.2547  -22.6587 H   0  0  0  0  0  0  0  0  0  0  0  0
   -3.8292    1.1393  -23.0154 H   0  0  0  0  0  0  0  0  0  0  0  0
   -2.5510    2.0376  -21.0821 H   0  0  0  0  0  0  0  0  0  0  0  0
   -3.3018    1.5319  -18.7714 H   0  0  0  0  0  0  0  0  0  0  0  0
   -4.8960    0.5190  -17.2396 H   0  0  0  0  0  0  0  0  0  0  0  0
   -8.1492   -1.6347  -18.5968 H   0  0  0  0  0  0  0  0  0  0  0  0
   -8.9093   -1.0290  -21.5488 C   0  0  0  0  0  0  0  0  0  0  0  0
   -9.4523   -0.0657  -21.0543 O   0  0  0  0  0  0  0  0  0  0  0  0
   -9.4905   -1.9718  -22.6445 C   0  0  1  0  0  0  0  0  0  0  0  0
   -9.3877   -1.3137  -24.0455 C   0  0  0  0  0  0  0  0  0  0  0  0
  -10.2150   -0.1188  -24.1301 N   0  0  0  0  0  0  0  0  0  0  0  0
   -9.8124    0.9074  -25.0575 C   0  0  0  0  0  0  0  0  0  0  0  0
  -10.0369    0.5304  -26.4707 C   0  0  0  0  0  0  0  0  0  0  0  0
  -10.2092    0.1860  -27.5606 N   0  0  0  0  0  0  0  0  0  0  0  0
   -8.7426    1.1114  -24.9317 H   0  0  0  0  0  0  0  0  0  0  0  0
  -10.3789    1.8097  -24.8195 H   0  0  0  0  0  0  0  0  0  0  0  0
  -11.3763    0.0640  -23.4181 C   0  0  0  0  0  0  0  0  0  0  0  0
  -12.0278    1.0960  -23.4756 O   0  0  0  0  0  0  0  0  0  0  0  0
  -11.8123   -1.0960  -22.5834 C   0  0  0  0  0  0  0  0  0  0  0  0
  -13.0921   -1.0497  -22.0425 C   0  0  0  0  0  0  0  0  0  0  0  0
  -13.5412   -2.0723  -21.2449 C   0  0  0  0  0  0  0  0  0  0  0  0
  -12.7338   -3.2011  -21.1000 C   0  0  0  0  0  0  0  0  0  0  0  0
  -13.1893   -4.2220  -20.3501 F   0  0  0  0  0  0  0  0  0  0  0  0
  -11.4805   -3.2959  -21.6700 C   0  0  0  0  0  0  0  0  0  0  0  0
  -10.9560   -2.1777  -22.3345 C   0  0  0  0  0  0  0  0  0  0  0  0
  -10.9526   -4.2405  -21.5848 H   0  0  0  0  0  0  0  0  0  0  0  0
  -14.5022   -2.0360  -20.7440 H   0  0  0  0  0  0  0  0  0  0  0  0
  -13.7390   -0.1953  -22.2308 H   0  0  0  0  0  0  0  0  0  0  0  0
   -8.3492   -1.0185  -24.2445 H   0  0  0  0  0  0  0  0  0  0  0  0
   -9.6845   -2.0352  -24.8230 H   0  0  0  0  0  0  0  0  0  0  0  0
   -6.6465   -3.3306  -21.4255 H   0  0  0  0  0  0  0  0  0  0  0  0
   -6.6396   -2.3175  -22.8826 H   0  0  0  0  0  0  0  0  0  0  0  0
   -8.9958   -3.7109  -21.5912 H   0  0  0  0  0  0  0  0  0  0  0  0
   -7.6568   -4.9260  -23.3635 H   0  0  0  0  0  0  0  0  0  0  0  0
   -9.3716   -4.7283  -23.7991 H   0  0  0  0  0  0  0  0  0  0  0  0
   -8.1330   -3.6814  -24.5310 H   0  0  0  0  0  0  0  0  0  0  0  0
  1  2  1  0
  2  3  1  0
  3  4  1  0
  4  5  1  0
  5  6  2  0
  6  7  1  0
  7  8  2  0
  8  9  1  0
  9 10  2  0
 10 11  1  0
 11 12  2  0
 12 13  1  0
 13 14  2  0
 13 15  1  0
 12 16  1  0
 11 17  1  0
 10 18  1  0
  8 19  1  0
  6 20  1  0
  4 21  1  0
 21 22  2  0
 21 23  1  0
 23 24  1  6
 24 25  1  0
 25 26  1  0
 26 27  1  0
 27 28  3  0
 26 29  1  0
 26 30  1  0
 25 31  1  0
 31 32  2  0
 31 33  1  0
 33 34  2  0
 34 35  1  0
 35 36  2  0
 36 37  1  0
 36 38  1  0
 38 39  2  0
 38 40  1  0
 35 41  1  0
 34 42  1  0
 24 43  1  0
 24 44  1  0
  3 45  1  0
  3 46  1  0
  2 47  1  1
  1 48  1  0
  1 49  1  0
  1 50  1  0
 23  2  1  0
 39 33  1  0
 14  5  1  0
 39 23  1  0
 14  9  1  0
M  END
>  <cnnaffinities>  (69) 
[6.28299, 5.96207, 5.93639, 5.96694, 6.19025]

>  <score>  (69) 
6.28299

>  <index>  (69) 
71

>  <Smiles>  (69) 
C([C@]1(C(N(c2c(nc(c3c(c(c(c(c23)[H])[H])[H])[H])[H])[H])C(=O)[C@]21C(N(C(C#N)([H])[H])C(=O)c1c(c(c(F)c(c21)[H])[H])[H])([H])[H])([H])[H])[H])([H])([H])[H]

>  <h>  (69) 
<NA>

>  <Training>  (69) 
True

>  <Success>  (69) 
True

>  <enamine_searched>  (69) 
False

>  <enamine_id>  (69) 
nan

$$$$

     RDKit          3D

 41 44  0  0  0  0  0  0  0  0999 V2000
   -8.7428    0.7418  -21.4081 O   0  0  0  0  0  0  0  0  0  0  0  0
   -8.4829   -0.3114  -21.9651 C   0  0  0  0  0  0  0  0  0  0  0  0
   -7.5652   -1.3605  -21.3154 C   0  0  0  0  0  0  0  0  0  0  0  0
   -6.7236   -0.8022  -20.2152 C   0  0  0  0  0  0  0  0  0  0  0  0
   -7.0562   -1.0271  -18.9034 C   0  0  0  0  0  0  0  0  0  0  0  0
   -6.3724   -0.5510  -17.8308 N   0  0  0  0  0  0  0  0  0  0  0  0
   -5.3183    0.1832  -18.0842 C   0  0  0  0  0  0  0  0  0  0  0  0
   -4.8533    0.5000  -19.3945 C   0  0  0  0  0  0  0  0  0  0  0  0
   -3.7039    1.3016  -19.6133 C   0  0  0  0  0  0  0  0  0  0  0  0
   -3.2854    1.5859  -20.8859 C   0  0  0  0  0  0  0  0  0  0  0  0
   -3.9991    1.0810  -21.9995 C   0  0  0  0  0  0  0  0  0  0  0  0
   -5.1181    0.3058  -21.8144 C   0  0  0  0  0  0  0  0  0  0  0  0
   -5.5760   -0.0038  -20.5000 C   0  0  0  0  0  0  0  0  0  0  0  0
   -5.6614   -0.0720  -22.6790 H   0  0  0  0  0  0  0  0  0  0  0  0
   -3.6603    1.3197  -23.0057 H   0  0  0  0  0  0  0  0  0  0  0  0
   -2.4118    2.2113  -21.0491 H   0  0  0  0  0  0  0  0  0  0  0  0
   -3.1771    1.6974  -18.7472 H   0  0  0  0  0  0  0  0  0  0  0  0
   -4.7706    0.5729  -17.2247 H   0  0  0  0  0  0  0  0  0  0  0  0
   -7.9260   -1.6346  -18.6540 H   0  0  0  0  0  0  0  0  0  0  0  0
   -6.9234   -1.8114  -22.0817 H   0  0  0  0  0  0  0  0  0  0  0  0
   -8.1826   -2.1805  -20.9253 H   0  0  0  0  0  0  0  0  0  0  0  0
   -8.9458   -0.6308  -23.2282 N   0  0  0  0  0  0  0  0  0  0  0  0
   -9.6278    0.4209  -23.9772 C   0  0  0  0  0  0  0  0  0  0  0  0
  -11.0863    0.6778  -23.5944 C   0  0  0  0  0  0  0  0  0  0  0  0
  -12.0211   -0.5237  -23.7781 C   0  0  0  0  0  0  0  0  0  0  0  0
  -11.6904   -1.7387  -22.9436 C   0  0  0  0  0  0  0  0  0  0  0  0
  -12.9223   -2.4556  -21.9831 S   0  0  0  0  0  0  0  0  0  0  0  0
  -11.9051   -3.7410  -21.5037 C   0  0  0  0  0  0  0  0  0  0  0  0
  -10.6676   -3.6300  -22.0598 C   0  0  0  0  0  0  0  0  0  0  0  0
  -10.5387   -2.4652  -22.8722 C   0  0  0  0  0  0  0  0  0  0  0  0
   -9.2682   -2.0180  -23.5369 C   0  0  0  0  0  0  0  0  0  0  0  0
   -8.4452   -2.6509  -23.1980 H   0  0  0  0  0  0  0  0  0  0  0  0
   -9.3375   -2.1223  -24.6255 H   0  0  0  0  0  0  0  0  0  0  0  0
   -9.8870   -4.3710  -21.9378 H   0  0  0  0  0  0  0  0  0  0  0  0
  -12.2597   -4.4570  -20.7860 H   0  0  0  0  0  0  0  0  0  0  0  0
  -13.0305   -0.1881  -23.5290 H   0  0  0  0  0  0  0  0  0  0  0  0
  -12.0607   -0.8204  -24.8410 H   0  0  0  0  0  0  0  0  0  0  0  0
  -11.4639    1.4969  -24.2249 H   0  0  0  0  0  0  0  0  0  0  0  0
  -11.1286    1.0386  -22.5581 H   0  0  0  0  0  0  0  0  0  0  0  0
   -9.5664    0.1742  -25.0475 H   0  0  0  0  0  0  0  0  0  0  0  0
   -9.0536    1.3362  -23.8213 H   0  0  0  0  0  0  0  0  0  0  0  0
  1  2  2  0
  2  3  1  0
  3  4  1  0
  4  5  2  0
  5  6  1  0
  6  7  2  0
  7  8  1  0
  8  9  2  0
  9 10  1  0
 10 11  2  0
 11 12  1  0
 12 13  2  0
 12 14  1  0
 11 15  1  0
 10 16  1  0
  9 17  1  0
  7 18  1  0
  5 19  1  0
  3 20  1  0
  3 21  1  0
  2 22  1  0
 22 23  1  0
 23 24  1  0
 24 25  1  0
 25 26  1  0
 26 27  1  0
 27 28  1  0
 28 29  2  0
 29 30  1  0
 30 31  1  0
 31 32  1  0
 31 33  1  0
 29 34  1  0
 28 35  1  0
 25 36  1  0
 25 37  1  0
 24 38  1  0
 24 39  1  0
 23 40  1  0
 23 41  1  0
 13  4  1  0
 31 22  1  0
 13  8  1  0
 30 26  2  0
M  END
>  <cnnaffinities>  (70) 
[5.5757, 4.88908, 5.01505, 4.91684, 5.21442]

>  <score>  (70) 
5.5757

>  <index>  (70) 
72

>  <Smiles>  (70) 
O=C(C(c1c(nc(c2c(c(c(c(c12)[H])[H])[H])[H])[H])[H])([H])[H])N1C(C(C(c2sc(c(c2C1([H])[H])[H])[H])([H])[H])([H])[H])([H])[H]

>  <h>  (70) 
<NA>

>  <Training>  (70) 
True

>  <Success>  (70) 
True

>  <enamine_searched>  (70) 
False

>  <enamine_id>  (70) 
nan

$$$$

     RDKit          3D

 50 53  0  0  0  0  0  0  0  0999 V2000
   -5.5983   -3.0229  -21.5801 O   0  0  0  0  0  0  0  0  0  0  0  0
   -6.7572   -2.7529  -21.8601 C   0  0  0  0  0  0  0  0  0  0  0  0
   -7.4151   -1.4794  -21.2681 C   0  0  0  0  0  0  0  0  0  0  0  0
   -6.5808   -0.8312  -20.1835 C   0  0  0  0  0  0  0  0  0  0  0  0
   -6.8737   -1.0443  -18.8630 C   0  0  0  0  0  0  0  0  0  0  0  0
   -6.1916   -0.5396  -17.7982 N   0  0  0  0  0  0  0  0  0  0  0  0
   -5.1599    0.2229  -18.0658 C   0  0  0  0  0  0  0  0  0  0  0  0
   -4.7211    0.5286  -19.3815 C   0  0  0  0  0  0  0  0  0  0  0  0
   -3.5919    1.3544  -19.6229 C   0  0  0  0  0  0  0  0  0  0  0  0
   -3.1889    1.6315  -20.8999 C   0  0  0  0  0  0  0  0  0  0  0  0
   -3.9014    1.0870  -21.9936 C   0  0  0  0  0  0  0  0  0  0  0  0
   -4.9985    0.2873  -21.7868 C   0  0  0  0  0  0  0  0  0  0  0  0
   -5.4452   -0.0141  -20.4753 C   0  0  0  0  0  0  0  0  0  0  0  0
   -5.5279   -0.1323  -22.6365 H   0  0  0  0  0  0  0  0  0  0  0  0
   -3.5760    1.3116  -23.0045 H   0  0  0  0  0  0  0  0  0  0  0  0
   -2.3280    2.2702  -21.0853 H   0  0  0  0  0  0  0  0  0  0  0  0
   -3.0588    1.7740  -18.7704 H   0  0  0  0  0  0  0  0  0  0  0  0
   -4.6033    0.6280  -17.2165 H   0  0  0  0  0  0  0  0  0  0  0  0
   -7.7195   -1.6689  -18.5846 H   0  0  0  0  0  0  0  0  0  0  0  0
   -7.6153   -0.7497  -22.0653 H   0  0  0  0  0  0  0  0  0  0  0  0
   -8.3962   -1.7470  -20.8487 H   0  0  0  0  0  0  0  0  0  0  0  0
   -7.5169   -3.5807  -22.6632 N   0  0  0  0  0  0  0  0  0  0  0  0
   -8.6613   -3.1244  -23.4500 C   0  0  0  0  0  0  0  0  0  0  0  0
   -9.7296   -4.1999  -23.5614 C   0  0  0  0  0  0  0  0  0  0  0  0
   -9.1561   -5.4960  -24.1069 C   0  0  0  0  0  0  0  0  0  0  0  0
   -7.9836   -5.9348  -23.2426 C   0  0  0  0  0  0  0  0  0  0  0  0
   -6.9110   -4.8519  -23.1003 C   0  0  1  0  0  0  0  0  0  0  0  0
   -6.0428   -4.6967  -24.3695 C   0  0  0  0  0  0  0  0  0  0  0  0
   -5.2082   -5.9195  -24.6890 C   0  0  0  0  0  0  0  0  0  0  0  0
   -4.0477   -6.1887  -23.9586 C   0  0  0  0  0  0  0  0  0  0  0  0
   -3.2850   -7.3198  -24.2207 C   0  0  0  0  0  0  0  0  0  0  0  0
   -3.6706   -8.2109  -25.2181 C   0  0  0  0  0  0  0  0  0  0  0  0
   -4.8273   -7.9600  -25.9506 C   0  0  0  0  0  0  0  0  0  0  0  0
   -5.5854   -6.8241  -25.6840 C   0  0  0  0  0  0  0  0  0  0  0  0
   -6.4949   -6.6405  -26.2527 H   0  0  0  0  0  0  0  0  0  0  0  0
   -5.1406   -8.6464  -26.7320 H   0  0  0  0  0  0  0  0  0  0  0  0
   -3.0714   -9.0917  -25.4249 H   0  0  0  0  0  0  0  0  0  0  0  0
   -2.3833   -7.5071  -23.6434 H   0  0  0  0  0  0  0  0  0  0  0  0
   -3.7418   -5.5013  -23.1730 H   0  0  0  0  0  0  0  0  0  0  0  0
   -6.6856   -4.4574  -25.2236 H   0  0  0  0  0  0  0  0  0  0  0  0
   -5.3821   -3.8383  -24.2142 H   0  0  0  0  0  0  0  0  0  0  0  0
   -6.2390   -5.1528  -22.2973 H   0  0  0  0  0  0  0  0  0  0  0  0
   -8.3521   -6.1923  -22.2461 H   0  0  0  0  0  0  0  0  0  0  0  0
   -7.5391   -6.8533  -23.6372 H   0  0  0  0  0  0  0  0  0  0  0  0
   -9.9239   -6.2710  -24.1399 H   0  0  0  0  0  0  0  0  0  0  0  0
   -8.8349   -5.3712  -25.1475 H   0  0  0  0  0  0  0  0  0  0  0  0
  -10.1644   -4.3781  -22.5751 H   0  0  0  0  0  0  0  0  0  0  0  0
  -10.5457   -3.8433  -24.1922 H   0  0  0  0  0  0  0  0  0  0  0  0
   -9.0846   -2.2322  -22.9913 H   0  0  0  0  0  0  0  0  0  0  0  0
   -8.3557   -2.8303  -24.4653 H   0  0  0  0  0  0  0  0  0  0  0  0
  1  2  2  0
  2  3  1  0
  3  4  1  0
  4  5  2  0
  5  6  1  0
  6  7  2  0
  7  8  1  0
  8  9  2  0
  9 10  1  0
 10 11  2  0
 11 12  1  0
 12 13  2  0
 12 14  1  0
 11 15  1  0
 10 16  1  0
  9 17  1  0
  7 18  1  0
  5 19  1  0
  3 20  1  0
  3 21  1  0
  2 22  1  0
 22 23  1  0
 23 24  1  0
 24 25  1  0
 25 26  1  0
 26 27  1  0
 27 28  1  0
 28 29  1  0
 29 30  2  0
 30 31  1  0
 31 32  2  0
 32 33  1  0
 33 34  2  0
 34 35  1  0
 33 36  1  0
 32 37  1  0
 31 38  1  0
 30 39  1  0
 28 40  1  0
 28 41  1  0
 27 42  1  1
 26 43  1  0
 26 44  1  0
 25 45  1  0
 25 46  1  0
 24 47  1  0
 24 48  1  0
 23 49  1  0
 23 50  1  0
 13  4  1  0
 27 22  1  0
 34 29  1  0
 13  8  1  0
M  END
>  <cnnaffinities>  (71) 
[5.54153, 4.86474]

>  <score>  (71) 
5.54153

>  <index>  (71) 
73

>  <Smiles>  (71) 
O=C(C(c1c(nc(c2c(c(c(c(c12)[H])[H])[H])[H])[H])[H])([H])[H])N1C(C(C(C([C@]1(C(c1c(c(c(c(c1[H])[H])[H])[H])[H])([H])[H])[H])([H])[H])([H])[H])([H])[H])([H])[H]

>  <h>  (71) 
<NA>

>  <Training>  (71) 
True

>  <Success>  (71) 
True

>  <enamine_searched>  (71) 
False

>  <enamine_id>  (71) 
nan

$$$$

     RDKit          3D

 43 47  0  0  0  0  0  0  0  0999 V2000
   -9.4246   -0.4518  -20.9847 O   0  0  0  0  0  0  0  0  0  0  0  0
   -8.7454   -1.3648  -21.3794 C   0  0  0  0  0  0  0  0  0  0  0  0
   -9.1366   -2.4470  -22.1202 N   0  0  0  0  0  0  0  0  0  0  0  0
   -8.0404   -3.1471  -22.7414 C   0  0  1  0  0  0  0  0  0  0  0  0
   -8.1061   -4.6901  -22.7166 C   0  0  0  0  0  0  0  0  0  0  0  0
   -8.2241   -4.7228  -24.2749 C   0  0  2  0  0  0  0  0  0  0  0  0
   -7.1764   -5.5219  -24.9872 C   0  0  0  0  0  0  0  0  0  0  0  0
   -5.8201   -5.2772  -24.7416 C   0  0  0  0  0  0  0  0  0  0  0  0
   -4.8304   -6.0100  -25.3856 C   0  0  0  0  0  0  0  0  0  0  0  0
   -5.1804   -7.0116  -26.2899 C   0  0  0  0  0  0  0  0  0  0  0  0
   -6.5201   -7.2764  -26.5441 C   0  0  0  0  0  0  0  0  0  0  0  0
   -7.4981   -6.5334  -25.8932 C   0  0  0  0  0  0  0  0  0  0  0  0
   -9.1680   -6.9152  -26.2478 Cl  0  0  0  0  0  0  0  0  0  0  0  0
   -6.8256   -8.0527  -27.2400 H   0  0  0  0  0  0  0  0  0  0  0  0
   -4.4105   -7.5881  -26.7955 H   0  0  0  0  0  0  0  0  0  0  0  0
   -3.7857   -5.7991  -25.1756 H   0  0  0  0  0  0  0  0  0  0  0  0
   -5.5481   -4.4990  -24.0256 H   0  0  0  0  0  0  0  0  0  0  0  0
   -8.0351   -3.1712  -24.2986 C   0  0  0  0  0  0  0  0  0  0  0  0
   -8.8575   -2.6049  -24.7503 H   0  0  0  0  0  0  0  0  0  0  0  0
   -7.0983   -2.8277  -24.7557 H   0  0  0  0  0  0  0  0  0  0  0  0
   -9.2258   -5.0185  -24.6002 H   0  0  0  0  0  0  0  0  0  0  0  0
   -8.9700   -5.0704  -22.1634 H   0  0  0  0  0  0  0  0  0  0  0  0
   -7.1949   -5.1502  -22.3160 H   0  0  0  0  0  0  0  0  0  0  0  0
   -6.8408   -2.5159  -22.0535 C   0  0  0  0  0  0  0  0  0  0  0  0
   -5.6783   -2.8004  -22.2337 O   0  0  0  0  0  0  0  0  0  0  0  0
   -7.3409   -1.5186  -21.2048 N   0  0  0  0  0  0  0  0  0  0  0  0
   -6.5843   -0.8592  -20.1871 C   0  0  0  0  0  0  0  0  0  0  0  0
   -6.9100   -1.0584  -18.8674 C   0  0  0  0  0  0  0  0  0  0  0  0
   -6.2182   -0.5408  -17.8232 N   0  0  0  0  0  0  0  0  0  0  0  0
   -5.1793    0.2084  -18.0962 C   0  0  0  0  0  0  0  0  0  0  0  0
   -4.7453    0.5221  -19.4115 C   0  0  0  0  0  0  0  0  0  0  0  0
   -3.6154    1.3541  -19.6386 C   0  0  0  0  0  0  0  0  0  0  0  0
   -3.2256    1.6575  -20.9122 C   0  0  0  0  0  0  0  0  0  0  0  0
   -3.9560    1.1439  -22.0080 C   0  0  0  0  0  0  0  0  0  0  0  0
   -5.0499    0.3364  -21.8137 C   0  0  0  0  0  0  0  0  0  0  0  0
   -5.4692   -0.0129  -20.4996 C   0  0  0  0  0  0  0  0  0  0  0  0
   -5.6008   -0.0500  -22.6650 H   0  0  0  0  0  0  0  0  0  0  0  0
   -3.6476    1.3978  -23.0163 H   0  0  0  0  0  0  0  0  0  0  0  0
   -2.3690    2.3042  -21.0893 H   0  0  0  0  0  0  0  0  0  0  0  0
   -3.0860    1.7554  -18.7791 H   0  0  0  0  0  0  0  0  0  0  0  0
   -4.6275    0.6106  -17.2476 H   0  0  0  0  0  0  0  0  0  0  0  0
   -7.7565   -1.6845  -18.5976 H   0  0  0  0  0  0  0  0  0  0  0  0
  -10.1024   -2.6113  -22.3587 H   0  0  0  0  0  0  0  0  0  0  0  0
  1  2  2  0
  2  3  1  0
  4  3  1  6
  4  5  1  0
  5  6  1  0
  6  7  1  0
  7  8  2  0
  8  9  1  0
  9 10  2  0
 10 11  1  0
 11 12  2  0
 12 13  1  0
 11 14  1  0
 10 15  1  0
  9 16  1  0
  8 17  1  0
  6 18  1  0
 18 19  1  0
 18 20  1  0
  6 21  1  1
  5 22  1  0
  5 23  1  0
  4 24  1  0
 24 25  2  0
 24 26  1  0
 26 27  1  0
 27 28  2  0
 28 29  1  0
 29 30  2  0
 30 31  1  0
 31 32  2  0
 32 33  1  0
 33 34  2  0
 34 35  1  0
 35 36  2  0
 35 37  1  0
 34 38  1  0
 33 39  1  0
 32 40  1  0
 30 41  1  0
 28 42  1  0
  3 43  1  0
 26  2  1  0
 36 27  1  0
 18  4  1  0
 36 31  1  0
 12  7  1  0
M  END
>  <cnnaffinities>  (72) 
[5.71495]

>  <score>  (72) 
5.71495

>  <index>  (72) 
74

>  <Smiles>  (72) 
O=C1N([C@]2(C([C@](c3c(c(c(c(c3Cl)[H])[H])[H])[H])(C2([H])[H])[H])([H])[H])C(=O)N1c1c(nc(c2c(c(c(c(c12)[H])[H])[H])[H])[H])[H])[H]

>  <h>  (72) 
<NA>

>  <Training>  (72) 
True

>  <Success>  (72) 
True

>  <enamine_searched>  (72) 
False

>  <enamine_id>  (72) 
nan

$$$$

     RDKit          3D

 66 71  0  0  0  0  0  0  0  0999 V2000
   -7.3535    3.3946  -21.9309 C   0  0  0  0  0  0  0  0  0  0  0  0
   -8.3008    2.8910  -22.9139 N   0  0  0  0  0  0  0  0  0  0  0  0
   -7.8044    2.1632  -23.9517 C   0  0  0  0  0  0  0  0  0  0  0  0
   -6.6086    1.9697  -24.0897 O   0  0  0  0  0  0  0  0  0  0  0  0
   -8.8160    1.5671  -24.9315 C   0  0  0  0  0  0  0  0  0  0  0  0
   -9.4507    0.4076  -24.3381 N   0  0  0  0  0  0  0  0  0  0  0  0
   -8.6610   -0.8118  -24.1875 C   0  0  0  0  0  0  0  0  0  0  0  0
   -9.0131   -1.5558  -22.8767 C   0  0  2  0  0  0  0  0  0  0  0  0
   -8.5093   -0.7709  -21.6472 C   0  0  0  0  0  0  0  0  0  0  0  0
   -9.0064    0.2097  -21.1299 O   0  0  0  0  0  0  0  0  0  0  0  0
   -7.3688   -1.3896  -21.1946 N   0  0  0  0  0  0  0  0  0  0  0  0
   -6.5958   -0.8124  -20.1652 C   0  0  0  0  0  0  0  0  0  0  0  0
   -6.9360   -1.0267  -18.8532 C   0  0  0  0  0  0  0  0  0  0  0  0
   -6.2437   -0.5339  -17.7991 N   0  0  0  0  0  0  0  0  0  0  0  0
   -5.1929    0.2051  -18.0697 C   0  0  0  0  0  0  0  0  0  0  0  0
   -4.7467    0.5206  -19.3852 C   0  0  0  0  0  0  0  0  0  0  0  0
   -3.6208    1.3485  -19.6271 C   0  0  0  0  0  0  0  0  0  0  0  0
   -3.2386    1.6486  -20.9064 C   0  0  0  0  0  0  0  0  0  0  0  0
   -3.9713    1.1492  -22.0074 C   0  0  0  0  0  0  0  0  0  0  0  0
   -5.0689    0.3489  -21.8029 C   0  0  0  0  0  0  0  0  0  0  0  0
   -5.4726    0.0069  -20.4808 C   0  0  0  0  0  0  0  0  0  0  0  0
   -5.6478    0.0076  -22.6568 H   0  0  0  0  0  0  0  0  0  0  0  0
   -3.6759    1.4113  -23.0188 H   0  0  0  0  0  0  0  0  0  0  0  0
   -2.3748    2.2846  -21.0824 H   0  0  0  0  0  0  0  0  0  0  0  0
   -3.0866    1.7469  -18.7709 H   0  0  0  0  0  0  0  0  0  0  0  0
   -4.6363    0.6007  -17.2231 H   0  0  0  0  0  0  0  0  0  0  0  0
   -7.8101   -1.6347  -18.6244 H   0  0  0  0  0  0  0  0  0  0  0  0
   -6.9721   -2.5622  -21.9460 C   0  0  0  0  0  0  0  0  0  0  0  0
   -8.2510   -2.9038  -22.7198 C   0  0  2  0  0  0  0  0  0  0  0  0
   -8.0383   -3.7188  -24.0021 C   0  0  0  0  0  0  0  0  0  0  0  0
   -7.6203   -5.0859  -23.7591 N   0  0  0  0  0  0  0  0  0  0  0  0
   -6.3203   -5.4358  -23.4881 C   0  0  0  0  0  0  0  0  0  0  0  0
   -5.2213   -4.6694  -23.9421 C   0  0  0  0  0  0  0  0  0  0  0  0
   -3.9778   -5.0459  -23.7186 N   0  0  0  0  0  0  0  0  0  0  0  0
   -3.7774   -6.1618  -23.0137 C   0  0  0  0  0  0  0  0  0  0  0  0
   -4.8519   -6.9055  -22.5607 C   0  0  0  0  0  0  0  0  0  0  0  0
   -6.1180   -6.5641  -22.8070 N   0  0  0  0  0  0  0  0  0  0  0  0
   -4.6929   -7.8093  -21.9783 H   0  0  0  0  0  0  0  0  0  0  0  0
   -2.7465   -6.4518  -22.8117 H   0  0  0  0  0  0  0  0  0  0  0  0
   -5.3530   -3.7417  -24.5000 H   0  0  0  0  0  0  0  0  0  0  0  0
   -8.2894   -5.7051  -23.3174 H   0  0  0  0  0  0  0  0  0  0  0  0
   -7.2828   -3.2294  -24.6274 H   0  0  0  0  0  0  0  0  0  0  0  0
   -8.9712   -3.7411  -24.5815 H   0  0  0  0  0  0  0  0  0  0  0  0
   -8.8419   -3.5274  -22.0436 H   0  0  0  0  0  0  0  0  0  0  0  0
   -6.6599   -3.3663  -21.2727 H   0  0  0  0  0  0  0  0  0  0  0  0
   -6.1255   -2.3428  -22.6142 H   0  0  0  0  0  0  0  0  0  0  0  0
  -10.5137   -1.6671  -22.7821 C   0  0  0  0  0  0  0  0  0  0  0  0
  -11.0798   -2.5763  -21.8846 C   0  0  0  0  0  0  0  0  0  0  0  0
  -12.4448   -2.6234  -21.7014 C   0  0  0  0  0  0  0  0  0  0  0  0
  -13.0414   -3.7161  -20.4845 Cl  0  0  0  0  0  0  0  0  0  0  0  0
  -13.3027   -1.7914  -22.4216 C   0  0  0  0  0  0  0  0  0  0  0  0
  -12.7458   -0.8645  -23.2848 C   0  0  0  0  0  0  0  0  0  0  0  0
  -11.3628   -0.7618  -23.4295 C   0  0  0  0  0  0  0  0  0  0  0  0
  -10.8161    0.3944  -24.2171 C   0  0  0  0  0  0  0  0  0  0  0  0
  -11.5392    1.2631  -24.6885 O   0  0  0  0  0  0  0  0  0  0  0  0
  -13.3671   -0.1699  -23.8389 H   0  0  0  0  0  0  0  0  0  0  0  0
  -14.3750   -1.8539  -22.2713 H   0  0  0  0  0  0  0  0  0  0  0  0
  -10.4747   -3.2435  -21.2826 H   0  0  0  0  0  0  0  0  0  0  0  0
   -8.8565   -1.4777  -25.0399 H   0  0  0  0  0  0  0  0  0  0  0  0
   -7.5988   -0.5436  -24.1997 H   0  0  0  0  0  0  0  0  0  0  0  0
   -8.2882    1.2915  -25.8513 H   0  0  0  0  0  0  0  0  0  0  0  0
   -9.6080    2.2726  -25.1910 H   0  0  0  0  0  0  0  0  0  0  0  0
   -9.2346    2.6771  -22.5854 H   0  0  0  0  0  0  0  0  0  0  0  0
   -6.8080    2.5588  -21.4703 H   0  0  0  0  0  0  0  0  0  0  0  0
   -6.6305    4.0469  -22.4282 H   0  0  0  0  0  0  0  0  0  0  0  0
   -7.8802    3.9843  -21.1772 H   0  0  0  0  0  0  0  0  0  0  0  0
  1  2  1  0
  2  3  1  0
  3  4  2  0
  3  5  1  0
  5  6  1  0
  6  7  1  0
  8  7  1  6
  8  9  1  0
  9 10  2  0
  9 11  1  0
 11 12  1  0
 12 13  2  0
 13 14  1  0
 14 15  2  0
 15 16  1  0
 16 17  2  0
 17 18  1  0
 18 19  2  0
 19 20  1  0
 20 21  2  0
 20 22  1  0
 19 23  1  0
 18 24  1  0
 17 25  1  0
 15 26  1  0
 13 27  1  0
 11 28  1  0
 28 29  1  0
 29 30  1  0
 30 31  1  0
 31 32  1  0
 32 33  2  0
 33 34  1  0
 34 35  2  0
 35 36  1  0
 36 37  2  0
 36 38  1  0
 35 39  1  0
 33 40  1  0
 31 41  1  0
 30 42  1  0
 30 43  1  0
 29 44  1  1
 28 45  1  0
 28 46  1  0
  8 47  1  0
 47 48  2  0
 48 49  1  0
 49 50  1  0
 49 51  2  0
 51 52  1  0
 52 53  2  0
 53 54  1  0
 54 55  2  0
 52 56  1  0
 51 57  1  0
 48 58  1  0
  7 59  1  0
  7 60  1  0
  5 61  1  0
  5 62  1  0
  2 63  1  0
  1 64  1  0
  1 65  1  0
  1 66  1  0
 54  6  1  0
 29  8  1  0
 37 32  1  0
 53 47  1  0
 21 12  1  0
 21 16  1  0
M  END
>  <cnnaffinities>  (73) 
[6.60272]

>  <score>  (73) 
6.60272

>  <index>  (73) 
75

>  <Smiles>  (73) 
C(N(C(=O)C(N1C([C@@]2(C(=O)N(c3c(nc(c4c(c(c(c(c34)[H])[H])[H])[H])[H])[H])C([C@@]2(C(N(c2c(nc(c(n2)[H])[H])[H])[H])([H])[H])[H])([H])[H])c2c(c(Cl)c(c(c2C1=O)[H])[H])[H])([H])[H])([H])[H])[H])([H])([H])[H]

>  <h>  (73) 
<NA>

>  <Training>  (73) 
True

>  <Success>  (73) 
True

>  <enamine_searched>  (73) 
False

>  <enamine_id>  (73) 
nan

$$$$

     RDKit          3D

 66 71  0  0  0  0  0  0  0  0999 V2000
   -8.1147   -3.8160  -23.9119 C   0  0  0  0  0  0  0  0  0  0  0  0
   -8.3295   -3.0151  -22.6265 C   0  0  1  0  0  0  0  0  0  0  0  0
   -7.0184   -2.5970  -21.9341 C   0  0  0  0  0  0  0  0  0  0  0  0
   -7.3907   -1.4096  -21.1852 N   0  0  0  0  0  0  0  0  0  0  0  0
   -6.6016   -0.8167  -20.1670 C   0  0  0  0  0  0  0  0  0  0  0  0
   -6.9125   -1.0418  -18.8490 C   0  0  0  0  0  0  0  0  0  0  0  0
   -6.2099   -0.5431  -17.8027 N   0  0  0  0  0  0  0  0  0  0  0  0
   -5.1731    0.2108  -18.0791 C   0  0  0  0  0  0  0  0  0  0  0  0
   -4.7370    0.5287  -19.3982 C   0  0  0  0  0  0  0  0  0  0  0  0
   -3.6127    1.3608  -19.6391 C   0  0  0  0  0  0  0  0  0  0  0  0
   -3.2215    1.6508  -20.9167 C   0  0  0  0  0  0  0  0  0  0  0  0
   -3.9395    1.1222  -22.0134 C   0  0  0  0  0  0  0  0  0  0  0  0
   -5.0351    0.3144  -21.8074 C   0  0  0  0  0  0  0  0  0  0  0  0
   -5.4678   -0.0036  -20.4892 C   0  0  0  0  0  0  0  0  0  0  0  0
   -5.5798   -0.0759  -22.6636 H   0  0  0  0  0  0  0  0  0  0  0  0
   -3.6325    1.3694  -23.0262 H   0  0  0  0  0  0  0  0  0  0  0  0
   -2.3704    2.3018  -21.0974 H   0  0  0  0  0  0  0  0  0  0  0  0
   -3.0872    1.7744  -18.7809 H   0  0  0  0  0  0  0  0  0  0  0  0
   -4.6173    0.6155  -17.2329 H   0  0  0  0  0  0  0  0  0  0  0  0
   -7.7644   -1.6682  -18.5939 H   0  0  0  0  0  0  0  0  0  0  0  0
   -8.6135   -0.8886  -21.5384 C   0  0  0  0  0  0  0  0  0  0  0  0
   -9.1475    0.0506  -20.9806 O   0  0  0  0  0  0  0  0  0  0  0  0
   -9.1433   -1.6919  -22.7510 C   0  0  1  0  0  0  0  0  0  0  0  0
   -8.8393   -0.9474  -24.0711 C   0  0  0  0  0  0  0  0  0  0  0  0
   -9.5674    0.3017  -24.1656 N   0  0  0  0  0  0  0  0  0  0  0  0
   -8.8505    1.5135  -24.5005 C   0  0  0  0  0  0  0  0  0  0  0  0
   -8.2668    2.1734  -23.2490 C   0  0  0  0  0  0  0  0  0  0  0  0
   -7.5916    3.4815  -23.5140 N   0  0  0  0  0  4  0  0  0  0  0  0
   -6.3364    3.3637  -24.3572 C   0  0  0  0  0  0  0  0  0  0  0  0
   -5.6289    4.7087  -24.4588 C   0  0  0  0  0  0  0  0  0  0  0  0
   -5.3282    5.2542  -23.1922 O   0  0  0  0  0  0  0  0  0  0  0  0
   -6.5116    5.4708  -22.4532 C   0  0  0  0  0  0  0  0  0  0  0  0
   -7.2676    4.1740  -22.2131 C   0  0  0  0  0  0  0  0  0  0  0  0
   -8.2051    4.3666  -21.6830 H   0  0  0  0  0  0  0  0  0  0  0  0
   -6.6539    3.4920  -21.6126 H   0  0  0  0  0  0  0  0  0  0  0  0
   -7.1657    6.1804  -22.9860 H   0  0  0  0  0  0  0  0  0  0  0  0
   -6.2099    5.9161  -21.5013 H   0  0  0  0  0  0  0  0  0  0  0  0
   -4.6736    4.6026  -24.9802 H   0  0  0  0  0  0  0  0  0  0  0  0
   -6.2613    5.4118  -25.0265 H   0  0  0  0  0  0  0  0  0  0  0  0
   -5.6722    2.6263  -23.8948 H   0  0  0  0  0  0  0  0  0  0  0  0
   -6.6086    3.0166  -25.3553 H   0  0  0  0  0  0  0  0  0  0  0  0
   -8.2843    4.0772  -24.0194 H   0  0  0  0  0  0  0  0  0  0  0  0
   -9.0611    2.3419  -22.5130 H   0  0  0  0  0  0  0  0  0  0  0  0
   -7.5361    1.4968  -22.7866 H   0  0  0  0  0  0  0  0  0  0  0  0
   -9.5619    2.1707  -25.0051 H   0  0  0  0  0  0  0  0  0  0  0  0
   -8.0533    1.2354  -25.1990 H   0  0  0  0  0  0  0  0  0  0  0  0
  -10.9080    0.3689  -23.9120 C   0  0  0  0  0  0  0  0  0  0  0  0
  -11.5957    1.3391  -24.2023 O   0  0  0  0  0  0  0  0  0  0  0  0
  -11.4762   -0.8366  -23.2252 C   0  0  0  0  0  0  0  0  0  0  0  0
  -12.8575   -0.9235  -23.0757 C   0  0  0  0  0  0  0  0  0  0  0  0
  -13.4225   -1.9356  -22.3240 C   0  0  0  0  0  0  0  0  0  0  0  0
  -12.5811   -2.8566  -21.6905 C   0  0  0  0  0  0  0  0  0  0  0  0
  -13.1320   -4.0042  -20.4979 Cl  0  0  0  0  0  0  0  0  0  0  0  0
  -11.2202   -2.8279  -21.9037 C   0  0  0  0  0  0  0  0  0  0  0  0
  -10.6432   -1.8213  -22.6733 C   0  0  0  0  0  0  0  0  0  0  0  0
  -10.6185   -3.5771  -21.4062 H   0  0  0  0  0  0  0  0  0  0  0  0
  -14.4998   -1.9664  -22.2259 H   0  0  0  0  0  0  0  0  0  0  0  0
  -13.4807   -0.1560  -23.5236 H   0  0  0  0  0  0  0  0  0  0  0  0
   -7.7685   -0.7264  -24.1363 H   0  0  0  0  0  0  0  0  0  0  0  0
   -9.1262   -1.6150  -24.9001 H   0  0  0  0  0  0  0  0  0  0  0  0
   -6.2404   -2.3752  -22.6799 H   0  0  0  0  0  0  0  0  0  0  0  0
   -6.6289   -3.3696  -21.2609 H   0  0  0  0  0  0  0  0  0  0  0  0
   -8.8727   -3.6445  -21.9171 H   0  0  0  0  0  0  0  0  0  0  0  0
   -7.6079   -4.7652  -23.7037 H   0  0  0  0  0  0  0  0  0  0  0  0
   -7.4866   -3.2582  -24.6165 H   0  0  0  0  0  0  0  0  0  0  0  0
   -9.0607   -4.0470  -24.4178 H   0  0  0  0  0  0  0  0  0  0  0  0
  1  2  1  0
  2  3  1  0
  3  4  1  0
  4  5  1  0
  5  6  2  0
  6  7  1  0
  7  8  2  0
  8  9  1  0
  9 10  2  0
 10 11  1  0
 11 12  2  0
 12 13  1  0
 13 14  2  0
 13 15  1  0
 12 16  1  0
 11 17  1  0
 10 18  1  0
  8 19  1  0
  6 20  1  0
  4 21  1  0
 21 22  2  0
 21 23  1  0
 23 24  1  6
 24 25  1  0
 25 26  1  0
 26 27  1  0
 27 28  1  0
 28 29  1  0
 29 30  1  0
 30 31  1  0
 31 32  1  0
 32 33  1  0
 33 34  1  0
 33 35  1  0
 32 36  1  0
 32 37  1  0
 30 38  1  0
 30 39  1  0
 29 40  1  0
 29 41  1  0
 28 42  1  0
 27 43  1  0
 27 44  1  0
 26 45  1  0
 26 46  1  0
 25 47  1  0
 47 48  2  0
 47 49  1  0
 49 50  2  0
 50 51  1  0
 51 52  2  0
 52 53  1  0
 52 54  1  0
 54 55  2  0
 54 56  1  0
 51 57  1  0
 50 58  1  0
 24 59  1  0
 24 60  1  0
  3 61  1  0
  3 62  1  0
  2 63  1  1
  1 64  1  0
  1 65  1  0
  1 66  1  0
 23  2  1  0
 33 28  1  0
 55 49  1  0
 14  5  1  0
 55 23  1  0
 14  9  1  0
M  CHG  1  28   1
M  END
>  <cnnaffinities>  (74) 
[6.35687, 6.09697]

>  <score>  (74) 
6.35687

>  <index>  (74) 
76

>  <Smiles>  (74) 
C([C@]1(C(N(c2c(nc(c3c(c(c(c(c23)[H])[H])[H])[H])[H])[H])C(=O)[C@]21C(N(C(C([N+]1(C(C(OC(C1([H])[H])([H])[H])([H])[H])([H])[H])[H])([H])[H])([H])[H])C(=O)c1c(c(c(Cl)c(c21)[H])[H])[H])([H])[H])([H])[H])[H])([H])([H])[H]

>  <h>  (74) 
<NA>

>  <Training>  (74) 
True

>  <Success>  (74) 
True

>  <enamine_searched>  (74) 
False

>  <enamine_id>  (74) 
nan

$$$$

     RDKit          3D

 55 60  0  0  0  0  0  0  0  0999 V2000
   -9.9619   -0.8889  -23.5475 C   0  0  0  0  0  0  0  0  0  0  0  0
   -8.5938   -1.2197  -22.9506 C   0  0  1  0  0  0  0  0  0  0  0  0
   -8.1697   -0.2982  -21.7899 C   0  0  0  0  0  0  0  0  0  0  0  0
   -7.2210   -1.1132  -21.0390 N   0  0  0  0  0  0  0  0  0  0  0  0
   -6.3928   -0.6153  -19.9950 C   0  0  0  0  0  0  0  0  0  0  0  0
   -6.6613   -0.8936  -18.6784 C   0  0  0  0  0  0  0  0  0  0  0  0
   -5.9986   -0.3382  -17.6272 N   0  0  0  0  0  0  0  0  0  0  0  0
   -5.0048    0.4767  -17.8913 C   0  0  0  0  0  0  0  0  0  0  0  0
   -4.5591    0.7825  -19.2089 C   0  0  0  0  0  0  0  0  0  0  0  0
   -3.4269    1.6023  -19.4598 C   0  0  0  0  0  0  0  0  0  0  0  0
   -3.0096    1.8308  -20.7406 C   0  0  0  0  0  0  0  0  0  0  0  0
   -3.7074    1.2644  -21.8310 C   0  0  0  0  0  0  0  0  0  0  0  0
   -4.8157    0.4851  -21.6162 C   0  0  0  0  0  0  0  0  0  0  0  0
   -5.2698    0.2240  -20.2981 C   0  0  0  0  0  0  0  0  0  0  0  0
   -5.3487    0.0432  -22.4522 H   0  0  0  0  0  0  0  0  0  0  0  0
   -3.3690    1.4478  -22.8454 H   0  0  0  0  0  0  0  0  0  0  0  0
   -2.1425    2.4550  -20.9347 H   0  0  0  0  0  0  0  0  0  0  0  0
   -2.9055    2.0450  -18.6146 H   0  0  0  0  0  0  0  0  0  0  0  0
   -4.4807    0.9237  -17.0423 H   0  0  0  0  0  0  0  0  0  0  0  0
   -7.4613   -1.5823  -18.4126 H   0  0  0  0  0  0  0  0  0  0  0  0
   -7.3331   -2.4606  -21.3141 C   0  0  0  0  0  0  0  0  0  0  0  0
   -6.6724   -3.3342  -20.7842 O   0  0  0  0  0  0  0  0  0  0  0  0
   -8.4407   -2.6660  -22.3603 C   0  0  1  0  0  0  0  0  0  0  0  0
   -9.7020   -3.1653  -21.6057 C   0  0  0  0  0  0  0  0  0  0  0  0
  -10.7412   -3.6547  -22.5089 N   0  0  0  0  0  0  0  0  0  0  0  0
  -12.1480   -3.4999  -22.1108 C   0  0  0  0  0  0  0  0  0  0  0  0
  -12.9096   -2.3873  -22.7777 C   0  0  0  0  0  0  0  0  0  0  0  0
  -13.4978   -2.2814  -23.9932 C   0  0  0  0  0  0  0  0  0  0  0  0
  -14.1505   -1.0822  -24.0534 O   0  0  0  0  0  0  0  0  0  0  0  0
  -13.9333   -0.5258  -22.8495 C   0  0  0  0  0  0  0  0  0  0  0  0
  -13.2067   -1.2352  -22.0541 N   0  0  0  0  0  0  0  0  0  0  0  0
  -14.4276    0.4123  -22.6382 H   0  0  0  0  0  0  0  0  0  0  0  0
  -13.6197   -2.9115  -24.8581 H   0  0  0  0  0  0  0  0  0  0  0  0
  -12.1562   -3.2406  -21.0488 H   0  0  0  0  0  0  0  0  0  0  0  0
  -12.6391   -4.4701  -22.2505 H   0  0  0  0  0  0  0  0  0  0  0  0
  -10.3864   -4.6202  -23.4224 C   0  0  0  0  0  0  0  0  0  0  0  0
  -11.1510   -5.4373  -23.8934 O   0  0  0  0  0  0  0  0  0  0  0  0
   -8.9620   -4.6453  -23.8574 C   0  0  0  0  0  0  0  0  0  0  0  0
   -8.6059   -5.6203  -24.7941 C   0  0  0  0  0  0  0  0  0  0  0  0
   -7.3225   -5.6841  -25.2959 C   0  0  0  0  0  0  0  0  0  0  0  0
   -6.4008   -4.7673  -24.7986 C   0  0  0  0  0  0  0  0  0  0  0  0
   -5.1453   -4.8193  -25.2748 F   0  0  0  0  0  0  0  0  0  0  0  0
   -6.7195   -3.8244  -23.8360 C   0  0  0  0  0  0  0  0  0  0  0  0
   -8.0385   -3.7242  -23.3685 C   0  0  0  0  0  0  0  0  0  0  0  0
   -5.9211   -3.2169  -23.4251 H   0  0  0  0  0  0  0  0  0  0  0  0
   -7.0329   -6.4274  -26.0354 H   0  0  0  0  0  0  0  0  0  0  0  0
   -9.3696   -6.3259  -25.1062 H   0  0  0  0  0  0  0  0  0  0  0  0
  -10.1400   -2.3650  -21.0077 H   0  0  0  0  0  0  0  0  0  0  0  0
   -9.3890   -3.9512  -20.9018 H   0  0  0  0  0  0  0  0  0  0  0  0
   -9.0376   -0.0276  -21.1658 H   0  0  0  0  0  0  0  0  0  0  0  0
   -7.7149    0.6395  -22.1284 H   0  0  0  0  0  0  0  0  0  0  0  0
   -7.8376   -1.1421  -23.7478 H   0  0  0  0  0  0  0  0  0  0  0  0
   -9.9348    0.0636  -24.0878 H   0  0  0  0  0  0  0  0  0  0  0  0
  -10.2585   -1.6702  -24.2569 H   0  0  0  0  0  0  0  0  0  0  0  0
  -10.7407   -0.8186  -22.7769 H   0  0  0  0  0  0  0  0  0  0  0  0
  1  2  1  0
  2  3  1  0
  3  4  1  0
  4  5  1  0
  5  6  2  0
  6  7  1  0
  7  8  2  0
  8  9  1  0
  9 10  2  0
 10 11  1  0
 11 12  2  0
 12 13  1  0
 13 14  2  0
 13 15  1  0
 12 16  1  0
 11 17  1  0
 10 18  1  0
  8 19  1  0
  6 20  1  0
  4 21  1  0
 21 22  2  0
 21 23  1  0
 23 24  1  1
 24 25  1  0
 25 26  1  0
 26 27  1  0
 27 28  2  0
 28 29  1  0
 29 30  1  0
 30 31  2  0
 30 32  1  0
 28 33  1  0
 26 34  1  0
 26 35  1  0
 25 36  1  0
 36 37  2  0
 36 38  1  0
 38 39  2  0
 39 40  1  0
 40 41  2  0
 41 42  1  0
 41 43  1  0
 43 44  2  0
 43 45  1  0
 40 46  1  0
 39 47  1  0
 24 48  1  0
 24 49  1  0
  3 50  1  0
  3 51  1  0
  2 52  1  6
  1 53  1  0
  1 54  1  0
  1 55  1  0
 23  2  1  0
 31 27  1  0
 44 38  1  0
 14  5  1  0
 44 23  1  0
 14  9  1  0
M  END
>  <cnnaffinities>  (75) 
[6.53539, 6.47816]

>  <score>  (75) 
6.53539

>  <index>  (75) 
77

>  <Smiles>  (75) 
C([C@]1(C(N(c2c(nc(c3c(c(c(c(c23)[H])[H])[H])[H])[H])[H])C(=O)[C@]21C(N(C(c1c(oc(n1)[H])[H])([H])[H])C(=O)c1c(c(c(F)c(c21)[H])[H])[H])([H])[H])([H])[H])[H])([H])([H])[H]

>  <h>  (75) 
<NA>

>  <Training>  (75) 
True

>  <Success>  (75) 
True

>  <enamine_searched>  (75) 
False

>  <enamine_id>  (75) 
nan

$$$$

     RDKit          3D

 56 60  0  0  0  0  0  0  0  0999 V2000
  -14.4635   -0.5043  -22.8218 C   0  0  0  0  0  0  0  0  0  0  0  0
  -13.8445   -1.7239  -22.3259 N   0  0  0  0  0  0  0  0  0  0  0  0
  -12.8386   -2.3065  -23.0442 C   0  0  0  0  0  0  0  0  0  0  0  0
  -12.4830   -1.8632  -24.1224 O   0  0  0  0  0  0  0  0  0  0  0  0
  -12.1423   -3.5129  -22.4021 C   0  0  0  0  0  0  0  0  0  0  0  0
  -10.7326   -3.6127  -22.7702 N   0  0  0  0  0  0  0  0  0  0  0  0
   -9.7710   -3.1075  -21.7935 C   0  0  0  0  0  0  0  0  0  0  0  0
   -8.4321   -2.6665  -22.4260 C   0  0  2  0  0  0  0  0  0  0  0  0
   -7.4198   -2.5432  -21.2670 C   0  0  0  0  0  0  0  0  0  0  0  0
   -6.9050   -3.4613  -20.6593 O   0  0  0  0  0  0  0  0  0  0  0  0
   -7.1660   -1.2084  -21.0349 N   0  0  0  0  0  0  0  0  0  0  0  0
   -6.3427   -0.7351  -19.9833 C   0  0  0  0  0  0  0  0  0  0  0  0
   -6.6346   -0.9816  -18.6624 C   0  0  0  0  0  0  0  0  0  0  0  0
   -5.9949   -0.3935  -17.6152 N   0  0  0  0  0  0  0  0  0  0  0  0
   -5.0133    0.4330  -17.8901 C   0  0  0  0  0  0  0  0  0  0  0  0
   -4.5554    0.7119  -19.2073 C   0  0  0  0  0  0  0  0  0  0  0  0
   -3.4554    1.5757  -19.4454 C   0  0  0  0  0  0  0  0  0  0  0  0
   -3.0338    1.8320  -20.7198 C   0  0  0  0  0  0  0  0  0  0  0  0
   -3.7023    1.2387  -21.8141 C   0  0  0  0  0  0  0  0  0  0  0  0
   -4.7765    0.4068  -21.6063 C   0  0  0  0  0  0  0  0  0  0  0  0
   -5.2326    0.1198  -20.2924 C   0  0  0  0  0  0  0  0  0  0  0  0
   -5.2976   -0.0310  -22.4491 H   0  0  0  0  0  0  0  0  0  0  0  0
   -3.3729    1.4564  -22.8248 H   0  0  0  0  0  0  0  0  0  0  0  0
   -2.1849    2.4879  -20.8977 H   0  0  0  0  0  0  0  0  0  0  0  0
   -2.9753    2.0346  -18.5858 H   0  0  0  0  0  0  0  0  0  0  0  0
   -4.5165    0.9306  -17.0548 H   0  0  0  0  0  0  0  0  0  0  0  0
   -7.4352   -1.6667  -18.3906 H   0  0  0  0  0  0  0  0  0  0  0  0
   -8.0461   -0.3394  -21.7990 C   0  0  0  0  0  0  0  0  0  0  0  0
   -8.4333   -1.2054  -23.0022 C   0  0  2  0  0  0  0  0  0  0  0  0
   -9.6874   -0.7168  -23.7143 C   0  0  0  0  0  0  0  0  0  0  0  0
   -9.5162    0.2560  -24.1893 H   0  0  0  0  0  0  0  0  0  0  0  0
  -10.0058   -1.4193  -24.4850 H   0  0  0  0  0  0  0  0  0  0  0  0
  -10.5323   -0.5980  -23.0304 H   0  0  0  0  0  0  0  0  0  0  0  0
   -7.6037   -1.1903  -23.7255 H   0  0  0  0  0  0  0  0  0  0  0  0
   -8.9369   -0.0605  -21.2090 H   0  0  0  0  0  0  0  0  0  0  0  0
   -7.5328    0.5832  -22.0764 H   0  0  0  0  0  0  0  0  0  0  0  0
   -7.9780   -3.7033  -23.4332 C   0  0  0  0  0  0  0  0  0  0  0  0
   -6.6398   -3.7353  -23.8578 C   0  0  0  0  0  0  0  0  0  0  0  0
   -6.2183   -4.6668  -24.7910 C   0  0  0  0  0  0  0  0  0  0  0  0
   -4.5647   -4.6630  -25.3444 Cl  0  0  0  0  0  0  0  0  0  0  0  0
   -7.0990   -5.6165  -25.3085 C   0  0  0  0  0  0  0  0  0  0  0  0
   -8.4174   -5.5901  -24.8953 C   0  0  0  0  0  0  0  0  0  0  0  0
   -8.8605   -4.6314  -23.9790 C   0  0  0  0  0  0  0  0  0  0  0  0
  -10.3118   -4.6289  -23.6096 C   0  0  0  0  0  0  0  0  0  0  0  0
  -11.0432   -5.4917  -24.0606 O   0  0  0  0  0  0  0  0  0  0  0  0
   -9.1370   -6.3111  -25.2727 H   0  0  0  0  0  0  0  0  0  0  0  0
   -6.7549   -6.3539  -26.0266 H   0  0  0  0  0  0  0  0  0  0  0  0
   -5.9084   -3.0491  -23.4497 H   0  0  0  0  0  0  0  0  0  0  0  0
   -9.5671   -3.8969  -21.0560 H   0  0  0  0  0  0  0  0  0  0  0  0
  -10.2053   -2.2603  -21.2528 H   0  0  0  0  0  0  0  0  0  0  0  0
  -12.2275   -3.4250  -21.3132 H   0  0  0  0  0  0  0  0  0  0  0  0
  -12.6490   -4.4340  -22.7038 H   0  0  0  0  0  0  0  0  0  0  0  0
  -14.2795   -2.2620  -21.5890 H   0  0  0  0  0  0  0  0  0  0  0  0
  -15.5480   -0.5246  -22.6768 H   0  0  0  0  0  0  0  0  0  0  0  0
  -14.0417    0.3854  -22.3364 H   0  0  0  0  0  0  0  0  0  0  0  0
  -14.2279   -0.4404  -23.8867 H   0  0  0  0  0  0  0  0  0  0  0  0
  1  2  1  0
  2  3  1  0
  3  4  2  0
  3  5  1  0
  5  6  1  0
  6  7  1  0
  8  7  1  1
  8  9  1  0
  9 10  2  0
  9 11  1  0
 11 12  1  0
 12 13  2  0
 13 14  1  0
 14 15  2  0
 15 16  1  0
 16 17  2  0
 17 18  1  0
 18 19  2  0
 19 20  1  0
 20 21  2  0
 20 22  1  0
 19 23  1  0
 18 24  1  0
 17 25  1  0
 15 26  1  0
 13 27  1  0
 11 28  1  0
 28 29  1  0
 29 30  1  0
 30 31  1  0
 30 32  1  0
 30 33  1  0
 29 34  1  6
 28 35  1  0
 28 36  1  0
  8 37  1  0
 37 38  2  0
 38 39  1  0
 39 40  1  0
 39 41  2  0
 41 42  1  0
 42 43  2  0
 43 44  1  0
 44 45  2  0
 42 46  1  0
 41 47  1  0
 38 48  1  0
  7 49  1  0
  7 50  1  0
  5 51  1  0
  5 52  1  0
  2 53  1  0
  1 54  1  0
  1 55  1  0
  1 56  1  0
 44  6  1  0
 29  8  1  0
 43 37  1  0
 21 12  1  0
 21 16  1  0
M  END
>  <cnnaffinities>  (76) 
[6.64745]

>  <score>  (76) 
6.64745

>  <index>  (76) 
78

>  <Smiles>  (76) 
C(N(C(=O)C(N1C([C@@]2(C(=O)N(c3c(nc(c4c(c(c(c(c34)[H])[H])[H])[H])[H])[H])C([C@@]2(C([H])([H])[H])[H])([H])[H])c2c(c(Cl)c(c(c2C1=O)[H])[H])[H])([H])[H])([H])[H])[H])([H])([H])[H]

>  <h>  (76) 
<NA>

>  <Training>  (76) 
True

>  <Success>  (76) 
True

>  <enamine_searched>  (76) 
False

>  <enamine_id>  (76) 
nan

$$$$

     RDKit          3D

 45 49  0  0  0  0  0  0  0  0999 V2000
  -10.5694   -2.6572  -22.4971 C   0  0  0  0  0  0  0  0  0  0  0  0
   -9.1666   -2.4381  -22.1784 N   0  0  0  0  0  0  0  0  0  0  0  0
   -8.7543   -1.3877  -21.4043 C   0  0  0  0  0  0  0  0  0  0  0  0
   -9.4285   -0.4623  -21.0077 O   0  0  0  0  0  0  0  0  0  0  0  0
   -7.3618   -1.5445  -21.2116 N   0  0  0  0  0  0  0  0  0  0  0  0
   -6.5973   -0.8699  -20.2004 C   0  0  0  0  0  0  0  0  0  0  0  0
   -6.9134   -1.0614  -18.8762 C   0  0  0  0  0  0  0  0  0  0  0  0
   -6.2212   -0.5428  -17.8286 N   0  0  0  0  0  0  0  0  0  0  0  0
   -5.1825    0.2081  -18.0972 C   0  0  0  0  0  0  0  0  0  0  0  0
   -4.7493    0.5193  -19.4151 C   0  0  0  0  0  0  0  0  0  0  0  0
   -3.6173    1.3535  -19.6389 C   0  0  0  0  0  0  0  0  0  0  0  0
   -3.2253    1.6582  -20.9124 C   0  0  0  0  0  0  0  0  0  0  0  0
   -3.9548    1.1449  -22.0075 C   0  0  0  0  0  0  0  0  0  0  0  0
   -5.0498    0.3377  -21.8148 C   0  0  0  0  0  0  0  0  0  0  0  0
   -5.4772   -0.0167  -20.5047 C   0  0  0  0  0  0  0  0  0  0  0  0
   -5.5978   -0.0466  -22.6675 H   0  0  0  0  0  0  0  0  0  0  0  0
   -3.6468    1.3976  -23.0167 H   0  0  0  0  0  0  0  0  0  0  0  0
   -2.3684    2.3041  -21.0885 H   0  0  0  0  0  0  0  0  0  0  0  0
   -3.0872    1.7550  -18.7780 H   0  0  0  0  0  0  0  0  0  0  0  0
   -4.6280    0.6107  -17.2475 H   0  0  0  0  0  0  0  0  0  0  0  0
   -7.7596   -1.6838  -18.6006 H   0  0  0  0  0  0  0  0  0  0  0  0
   -6.8639   -2.5343  -22.0610 C   0  0  0  0  0  0  0  0  0  0  0  0
   -5.7008   -2.8110  -22.2277 O   0  0  0  0  0  0  0  0  0  0  0  0
   -8.0639   -3.1709  -22.7466 C   0  0  0  0  0  0  0  0  0  0  0  0
   -8.0632   -4.7124  -22.6994 C   0  0  0  0  0  0  0  0  0  0  0  0
   -7.8581   -4.7630  -24.1879 N   0  0  0  0  0  0  0  0  0  0  0  0
   -8.9754   -5.7299  -25.0088 S   0  0  0  0  0  0  0  0  0  0  0  0
   -8.5489   -7.1058  -24.8790 O   0  0  0  0  0  0  0  0  0  0  0  0
  -10.2973   -5.3282  -24.5438 O   0  0  0  0  0  0  0  0  0  0  0  0
   -8.8093   -5.3079  -26.7291 C   0  0  0  0  0  0  0  0  0  0  0  0
   -7.7186   -5.9913  -27.5090 C   0  0  0  0  0  0  0  0  0  0  0  0
   -9.1404   -6.4012  -27.7217 C   0  0  0  0  0  0  0  0  0  0  0  0
   -9.6422   -6.1101  -28.6410 H   0  0  0  0  0  0  0  0  0  0  0  0
   -9.4740   -7.3507  -27.3078 H   0  0  0  0  0  0  0  0  0  0  0  0
   -7.2197   -5.4132  -28.2807 H   0  0  0  0  0  0  0  0  0  0  0  0
   -7.0716   -6.6629  -26.9510 H   0  0  0  0  0  0  0  0  0  0  0  0
   -9.0973   -4.2812  -26.9409 H   0  0  0  0  0  0  0  0  0  0  0  0
   -7.9865   -3.2863  -24.2909 C   0  0  0  0  0  0  0  0  0  0  0  0
   -8.8825   -2.9299  -24.8144 H   0  0  0  0  0  0  0  0  0  0  0  0
   -7.0956   -2.8487  -24.7414 H   0  0  0  0  0  0  0  0  0  0  0  0
   -7.2155   -5.1443  -22.1668 H   0  0  0  0  0  0  0  0  0  0  0  0
   -9.0016   -5.1532  -22.3473 H   0  0  0  0  0  0  0  0  0  0  0  0
  -11.1142   -3.0279  -21.6204 H   0  0  0  0  0  0  0  0  0  0  0  0
  -10.6680   -3.3797  -23.3136 H   0  0  0  0  0  0  0  0  0  0  0  0
  -11.0082   -1.7000  -22.7895 H   0  0  0  0  0  0  0  0  0  0  0  0
  1  2  1  0
  2  3  1  0
  3  4  2  0
  3  5  1  0
  5  6  1  0
  6  7  2  0
  7  8  1  0
  8  9  2  0
  9 10  1  0
 10 11  2  0
 11 12  1  0
 12 13  2  0
 13 14  1  0
 14 15  2  0
 14 16  1  0
 13 17  1  0
 12 18  1  0
 11 19  1  0
  9 20  1  0
  7 21  1  0
  5 22  1  0
 22 23  2  0
 22 24  1  0
 24 25  1  0
 25 26  1  0
 26 27  1  0
 27 28  2  0
 27 29  2  0
 27 30  1  0
 30 31  1  0
 31 32  1  0
 32 33  1  0
 32 34  1  0
 31 35  1  0
 31 36  1  0
 30 37  1  0
 26 38  1  0
 38 39  1  0
 38 40  1  0
 25 41  1  0
 25 42  1  0
  1 43  1  0
  1 44  1  0
  1 45  1  0
 24  2  1  0
 32 30  1  0
 15  6  1  0
 38 24  1  0
 15 10  1  0
M  END
>  <cnnaffinities>  (77) 
[5.0509, 5.3691, 5.0544, 5.66844, 5.66846, 5.06549]

>  <score>  (77) 
5.0509

>  <index>  (77) 
79

>  <Smiles>  (77) 
C(N1C(=O)N(c2c(nc(c3c(c(c(c(c23)[H])[H])[H])[H])[H])[H])C(=O)C21C(N(S(=O)(=O)C1(C(C1([H])[H])([H])[H])[H])C2([H])[H])([H])[H])([H])([H])[H]

>  <h>  (77) 
<NA>

>  <Training>  (77) 
True

>  <Success>  (77) 
True

>  <enamine_searched>  (77) 
False

>  <enamine_id>  (77) 
nan

$$$$

     RDKit          3D

 60 65  0  0  0  0  0  0  0  0999 V2000
   -8.9254   -7.8517  -25.8530 C   0  0  0  0  0  0  0  0  0  0  0  0
   -8.1866   -6.8476  -25.1141 N   0  0  0  0  0  0  0  0  0  0  0  0
   -7.4439   -7.1495  -24.0179 C   0  0  0  0  0  0  0  0  0  0  0  0
   -7.5270   -8.2035  -23.4114 O   0  0  0  0  0  0  0  0  0  0  0  0
   -6.4952   -6.0639  -23.5754 C   0  0  0  0  0  0  0  0  0  0  0  0
   -6.7996   -4.7268  -23.9751 N   0  0  0  0  0  0  0  0  0  0  0  0
   -7.9844   -4.1544  -23.3875 C   0  0  0  0  0  0  0  0  0  0  0  0
   -7.8053   -2.6452  -23.1747 C   0  0  2  0  0  0  0  0  0  0  0  0
   -6.8363   -2.4180  -21.9937 C   0  0  0  0  0  0  0  0  0  0  0  0
   -5.7745   -2.9636  -21.7690 O   0  0  0  0  0  0  0  0  0  0  0  0
   -7.3696   -1.4501  -21.1861 N   0  0  0  0  0  0  0  0  0  0  0  0
   -6.5930   -0.8446  -20.1785 C   0  0  0  0  0  0  0  0  0  0  0  0
   -6.9417   -1.0328  -18.8679 C   0  0  0  0  0  0  0  0  0  0  0  0
   -6.2642   -0.5198  -17.8160 N   0  0  0  0  0  0  0  0  0  0  0  0
   -5.2128    0.2152  -18.0949 C   0  0  0  0  0  0  0  0  0  0  0  0
   -4.7612    0.5043  -19.4139 C   0  0  0  0  0  0  0  0  0  0  0  0
   -3.6310    1.3308  -19.6360 C   0  0  0  0  0  0  0  0  0  0  0  0
   -3.2431    1.6425  -20.9078 C   0  0  0  0  0  0  0  0  0  0  0  0
   -3.9624    1.1368  -22.0159 C   0  0  0  0  0  0  0  0  0  0  0  0
   -5.0526    0.3202  -21.8356 C   0  0  0  0  0  0  0  0  0  0  0  0
   -5.4707   -0.0249  -20.5107 C   0  0  0  0  0  0  0  0  0  0  0  0
   -5.5947   -0.0592  -22.7051 H   0  0  0  0  0  0  0  0  0  0  0  0
   -3.6487    1.4123  -23.0186 H   0  0  0  0  0  0  0  0  0  0  0  0
   -2.3924    2.2979  -21.0737 H   0  0  0  0  0  0  0  0  0  0  0  0
   -3.1125    1.7304  -18.7695 H   0  0  0  0  0  0  0  0  0  0  0  0
   -4.6594    0.6280  -17.2530 H   0  0  0  0  0  0  0  0  0  0  0  0
   -7.8091   -1.6499  -18.6356 H   0  0  0  0  0  0  0  0  0  0  0  0
   -8.6611   -0.9559  -21.5963 C   0  0  0  0  0  0  0  0  0  0  0  0
   -9.1145   -1.9470  -22.6872 C   0  0  2  0  0  0  0  0  0  0  0  0
  -10.2024   -2.8779  -22.1280 C   0  0  0  0  0  0  0  0  0  0  0  0
  -11.0528   -2.2832  -21.7736 H   0  0  0  0  0  0  0  0  0  0  0  0
  -10.5820   -3.5612  -22.8934 H   0  0  0  0  0  0  0  0  0  0  0  0
   -9.8460   -3.4799  -21.2832 H   0  0  0  0  0  0  0  0  0  0  0  0
   -9.5687   -1.4155  -23.5306 H   0  0  0  0  0  0  0  0  0  0  0  0
   -9.3460   -0.9435  -20.7486 H   0  0  0  0  0  0  0  0  0  0  0  0
   -8.5994    0.0764  -21.9646 H   0  0  0  0  0  0  0  0  0  0  0  0
   -7.2485   -2.0209  -24.4574 C   0  0  0  0  0  0  0  0  0  0  0  0
   -7.4220   -0.6577  -24.7453 C   0  0  0  0  0  0  0  0  0  0  0  0
   -6.9127   -0.1107  -25.9150 C   0  0  0  0  0  0  0  0  0  0  0  0
   -7.1573    1.5912  -26.2353 Cl  0  0  0  0  0  0  0  0  0  0  0  0
   -6.2257   -0.8884  -26.8474 C   0  0  0  0  0  0  0  0  0  0  0  0
   -6.0378   -2.2269  -26.5676 C   0  0  0  0  0  0  0  0  0  0  0  0
   -6.5177   -2.7831  -25.3781 C   0  0  0  0  0  0  0  0  0  0  0  0
   -6.2307   -4.2201  -25.1194 C   0  0  0  0  0  0  0  0  0  0  0  0
   -5.5422   -4.9080  -25.8572 O   0  0  0  0  0  0  0  0  0  0  0  0
   -5.5047   -2.8587  -27.2722 H   0  0  0  0  0  0  0  0  0  0  0  0
   -5.8556   -0.4385  -27.7647 H   0  0  0  0  0  0  0  0  0  0  0  0
   -7.9716   -0.0056  -24.0729 H   0  0  0  0  0  0  0  0  0  0  0  0
   -8.1323   -4.6489  -22.4286 H   0  0  0  0  0  0  0  0  0  0  0  0
   -8.8630   -4.3468  -24.0243 H   0  0  0  0  0  0  0  0  0  0  0  0
   -5.9050   -6.2292  -22.2042 C   0  0  0  0  0  0  0  0  0  0  0  0
   -5.0372   -6.3897  -23.3962 C   0  0  0  0  0  0  0  0  0  0  0  0
   -4.6830   -7.3817  -23.6621 H   0  0  0  0  0  0  0  0  0  0  0  0
   -4.3909   -5.5611  -23.6612 H   0  0  0  0  0  0  0  0  0  0  0  0
   -5.8214   -5.3062  -21.6367 H   0  0  0  0  0  0  0  0  0  0  0  0
   -6.1593   -7.1560  -21.7018 H   0  0  0  0  0  0  0  0  0  0  0  0
   -7.9136   -6.0304  -25.6327 H   0  0  0  0  0  0  0  0  0  0  0  0
   -8.2574   -8.5955  -26.3009 H   0  0  0  0  0  0  0  0  0  0  0  0
   -9.6453   -8.3473  -25.1997 H   0  0  0  0  0  0  0  0  0  0  0  0
   -9.4806   -7.3527  -26.6512 H   0  0  0  0  0  0  0  0  0  0  0  0
  1  2  1  0
  2  3  1  0
  3  4  2  0
  3  5  1  0
  5  6  1  0
  6  7  1  0
  8  7  1  6
  8  9  1  0
  9 10  2  0
  9 11  1  0
 11 12  1  0
 12 13  2  0
 13 14  1  0
 14 15  2  0
 15 16  1  0
 16 17  2  0
 17 18  1  0
 18 19  2  0
 19 20  1  0
 20 21  2  0
 20 22  1  0
 19 23  1  0
 18 24  1  0
 17 25  1  0
 15 26  1  0
 13 27  1  0
 11 28  1  0
 28 29  1  0
 29 30  1  0
 30 31  1  0
 30 32  1  0
 30 33  1  0
 29 34  1  6
 28 35  1  0
 28 36  1  0
  8 37  1  0
 37 38  2  0
 38 39  1  0
 39 40  1  0
 39 41  2  0
 41 42  1  0
 42 43  2  0
 43 44  1  0
 44 45  2  0
 42 46  1  0
 41 47  1  0
 38 48  1  0
  7 49  1  0
  7 50  1  0
  5 51  1  0
 51 52  1  0
 52 53  1  0
 52 54  1  0
 51 55  1  0
 51 56  1  0
  2 57  1  0
  1 58  1  0
  1 59  1  0
  1 60  1  0
 52  5  1  0
 44  6  1  0
 29  8  1  0
 43 37  1  0
 21 12  1  0
 21 16  1  0
M  END
>  <cnnaffinities>  (78) 
[6.05459, 6.29944]

>  <score>  (78) 
6.05459

>  <index>  (78) 
80

>  <Smiles>  (78) 
C(N(C(=O)C1(N2C([C@@]3(C(=O)N(c4c(nc(c5c(c(c(c(c45)[H])[H])[H])[H])[H])[H])C([C@@]3(C([H])([H])[H])[H])([H])[H])c3c(c(Cl)c(c(c3C2=O)[H])[H])[H])([H])[H])C(C1([H])[H])([H])[H])[H])([H])([H])[H]

>  <h>  (78) 
<NA>

>  <Training>  (78) 
True

>  <Success>  (78) 
True

>  <enamine_searched>  (78) 
False

>  <enamine_id>  (78) 
nan

$$$$

     RDKit          3D

 36 38  0  0  0  0  0  0  0  0999 V2000
   -8.5018    0.7116  -21.4640 O   0  0  0  0  0  0  0  0  0  0  0  0
   -8.3860   -0.4023  -21.9328 C   0  0  0  0  0  0  0  0  0  0  0  0
   -7.4389   -1.4332  -21.2751 C   0  0  0  0  0  0  0  0  0  0  0  0
   -6.5820   -0.8280  -20.1837 C   0  0  0  0  0  0  0  0  0  0  0  0
   -6.8797   -1.0386  -18.8619 C   0  0  0  0  0  0  0  0  0  0  0  0
   -6.1965   -0.5335  -17.7980 N   0  0  0  0  0  0  0  0  0  0  0  0
   -5.1582    0.2222  -18.0648 C   0  0  0  0  0  0  0  0  0  0  0  0
   -4.7246    0.5334  -19.3817 C   0  0  0  0  0  0  0  0  0  0  0  0
   -3.5981    1.3632  -19.6219 C   0  0  0  0  0  0  0  0  0  0  0  0
   -3.2094    1.6574  -20.9017 C   0  0  0  0  0  0  0  0  0  0  0  0
   -3.9333    1.1296  -21.9943 C   0  0  0  0  0  0  0  0  0  0  0  0
   -5.0270    0.3227  -21.7876 C   0  0  0  0  0  0  0  0  0  0  0  0
   -5.4548    0.0010  -20.4729 C   0  0  0  0  0  0  0  0  0  0  0  0
   -5.5779   -0.0670  -22.6370 H   0  0  0  0  0  0  0  0  0  0  0  0
   -3.6228    1.3728  -23.0054 H   0  0  0  0  0  0  0  0  0  0  0  0
   -2.3534    2.3020  -21.0864 H   0  0  0  0  0  0  0  0  0  0  0  0
   -3.0600    1.7758  -18.7715 H   0  0  0  0  0  0  0  0  0  0  0  0
   -4.6021    0.6272  -17.2167 H   0  0  0  0  0  0  0  0  0  0  0  0
   -7.7290   -1.6595  -18.5853 H   0  0  0  0  0  0  0  0  0  0  0  0
   -8.0415   -2.2453  -20.8446 H   0  0  0  0  0  0  0  0  0  0  0  0
   -6.8032   -1.8995  -22.0402 H   0  0  0  0  0  0  0  0  0  0  0  0
   -9.0608   -0.7712  -23.0897 N   0  0  0  0  0  0  0  0  0  0  0  0
   -9.3682   -2.1604  -23.4044 C   0  0  0  0  0  0  0  0  0  0  0  0
  -10.4470   -2.7808  -22.5514 C   0  0  0  0  0  0  0  0  0  0  0  0
  -11.5707   -2.1755  -22.1565 C   0  0  0  0  0  0  0  0  0  0  0  0
  -12.0206   -0.7915  -22.4166 C   0  0  0  0  0  0  0  0  0  0  0  0
  -11.3801    0.2155  -23.0198 C   0  0  0  0  0  0  0  0  0  0  0  0
  -10.0067    0.1959  -23.6421 C   0  0  0  0  0  0  0  0  0  0  0  0
   -9.5588    1.1919  -23.5955 H   0  0  0  0  0  0  0  0  0  0  0  0
  -10.1142   -0.0408  -24.7076 H   0  0  0  0  0  0  0  0  0  0  0  0
  -11.8932    1.1786  -23.0818 H   0  0  0  0  0  0  0  0  0  0  0  0
  -13.0203   -0.5813  -22.0388 H   0  0  0  0  0  0  0  0  0  0  0  0
  -12.2791   -2.7641  -21.5753 H   0  0  0  0  0  0  0  0  0  0  0  0
  -10.2839   -3.8157  -22.2459 H   0  0  0  0  0  0  0  0  0  0  0  0
   -9.6850   -2.1765  -24.4538 H   0  0  0  0  0  0  0  0  0  0  0  0
   -8.4507   -2.7539  -23.3596 H   0  0  0  0  0  0  0  0  0  0  0  0
  1  2  2  0
  2  3  1  0
  3  4  1  0
  4  5  2  0
  5  6  1  0
  6  7  2  0
  7  8  1  0
  8  9  2  0
  9 10  1  0
 10 11  2  0
 11 12  1  0
 12 13  2  0
 12 14  1  0
 11 15  1  0
 10 16  1  0
  9 17  1  0
  7 18  1  0
  5 19  1  0
  3 20  1  0
  3 21  1  0
  2 22  1  0
 22 23  1  0
 23 24  1  0
 24 25  2  0
 25 26  1  0
 26 27  2  0
 27 28  1  0
 28 29  1  0
 28 30  1  0
 27 31  1  0
 26 32  1  0
 25 33  1  0
 24 34  1  0
 23 35  1  0
 23 36  1  0
 13  4  1  0
 28 22  1  0
 13  8  1  0
M  END
>  <cnnaffinities>  (79) 
[4.53055, 4.53059]

>  <score>  (79) 
4.53055

>  <index>  (79) 
81

>  <Smiles>  (79) 
O=C(C(c1c(nc(c2c(c(c(c(c12)[H])[H])[H])[H])[H])[H])([H])[H])N1C(C(=C(C(=C(C1([H])[H])[H])[H])[H])[H])([H])[H]

>  <h>  (79) 
<NA>

>  <Training>  (79) 
True

>  <Success>  (79) 
True

>  <enamine_searched>  (79) 
False

>  <enamine_id>  (79) 
nan

$$$$

     RDKit          3D

 54 57  0  0  0  0  0  0  0  0999 V2000
  -10.7323    0.3871  -25.3984 C   0  0  0  0  0  0  0  0  0  0  0  0
   -9.8363   -0.5988  -24.9272 O   0  0  0  0  0  0  0  0  0  0  0  0
   -8.5015   -0.5198  -25.2206 C   0  0  0  0  0  0  0  0  0  0  0  0
   -7.9446    0.5086  -25.9866 C   0  0  0  0  0  0  0  0  0  0  0  0
   -6.5729    0.5268  -26.2369 C   0  0  0  0  0  0  0  0  0  0  0  0
   -5.7481   -0.4651  -25.7276 C   0  0  0  0  0  0  0  0  0  0  0  0
   -6.3156   -1.4737  -24.9541 C   0  0  0  0  0  0  0  0  0  0  0  0
   -7.6791   -1.5416  -24.6897 C   0  0  0  0  0  0  0  0  0  0  0  0
   -8.2984   -2.6706  -23.8509 C   0  0  1  0  0  0  0  0  0  0  0  0
   -9.1407   -3.6538  -24.6922 C   0  0  0  0  0  0  0  0  0  0  0  0
   -8.4105   -4.8644  -25.2724 C   0  0  1  0  0  0  0  0  0  0  0  0
   -7.5086   -4.5373  -26.4630 C   0  0  0  0  0  0  0  0  0  0  0  0
   -6.6826   -3.8743  -26.1903 H   0  0  0  0  0  0  0  0  0  0  0  0
   -7.0750   -5.4496  -26.8901 H   0  0  0  0  0  0  0  0  0  0  0  0
   -8.0723   -4.0325  -27.2551 H   0  0  0  0  0  0  0  0  0  0  0  0
   -7.6725   -5.5499  -24.1293 C   0  0  0  0  0  0  0  0  0  0  0  0
   -6.7087   -4.6184  -23.4093 C   0  0  0  0  0  0  0  0  0  0  0  0
   -7.3467   -3.3675  -22.9711 N   0  0  0  0  0  0  0  0  0  0  0  0
   -6.7450   -2.7413  -21.8869 C   0  0  0  0  0  0  0  0  0  0  0  0
   -5.7263   -3.1890  -21.3899 O   0  0  0  0  0  0  0  0  0  0  0  0
   -7.4030   -1.4737  -21.2820 C   0  0  0  0  0  0  0  0  0  0  0  0
   -6.5762   -0.8356  -20.1854 C   0  0  0  0  0  0  0  0  0  0  0  0
   -6.8724   -1.0480  -18.8646 C   0  0  0  0  0  0  0  0  0  0  0  0
   -6.1931   -0.5389  -17.7985 N   0  0  0  0  0  0  0  0  0  0  0  0
   -5.1599    0.2224  -18.0661 C   0  0  0  0  0  0  0  0  0  0  0  0
   -4.7209    0.5280  -19.3815 C   0  0  0  0  0  0  0  0  0  0  0  0
   -3.5932    1.3536  -19.6240 C   0  0  0  0  0  0  0  0  0  0  0  0
   -3.1935    1.6321  -20.9014 C   0  0  0  0  0  0  0  0  0  0  0  0
   -3.9071    1.0897  -21.9947 C   0  0  0  0  0  0  0  0  0  0  0  0
   -5.0034    0.2865  -21.7908 C   0  0  0  0  0  0  0  0  0  0  0  0
   -5.4445   -0.0152  -20.4768 C   0  0  0  0  0  0  0  0  0  0  0  0
   -5.5427   -0.1204  -22.6446 H   0  0  0  0  0  0  0  0  0  0  0  0
   -3.5855    1.3200  -23.0061 H   0  0  0  0  0  0  0  0  0  0  0  0
   -2.3329    2.2732  -21.0866 H   0  0  0  0  0  0  0  0  0  0  0  0
   -3.0605    1.7730  -18.7716 H   0  0  0  0  0  0  0  0  0  0  0  0
   -4.6046    0.6283  -17.2158 H   0  0  0  0  0  0  0  0  0  0  0  0
   -7.7205   -1.6716  -18.5859 H   0  0  0  0  0  0  0  0  0  0  0  0
   -7.6275   -0.7396  -22.0679 H   0  0  0  0  0  0  0  0  0  0  0  0
   -8.3736   -1.7756  -20.8624 H   0  0  0  0  0  0  0  0  0  0  0  0
   -6.3148   -5.1115  -22.5192 H   0  0  0  0  0  0  0  0  0  0  0  0
   -5.8291   -4.4365  -24.0459 H   0  0  0  0  0  0  0  0  0  0  0  0
   -8.4011   -5.9326  -23.4088 H   0  0  0  0  0  0  0  0  0  0  0  0
   -7.1266   -6.4211  -24.5072 H   0  0  0  0  0  0  0  0  0  0  0  0
   -9.1798   -5.5591  -25.6447 H   0  0  0  0  0  0  0  0  0  0  0  0
   -9.6144   -3.0900  -25.4966 H   0  0  0  0  0  0  0  0  0  0  0  0
   -9.9586   -4.0205  -24.0603 H   0  0  0  0  0  0  0  0  0  0  0  0
   -9.0169   -2.1798  -23.1888 H   0  0  0  0  0  0  0  0  0  0  0  0
   -5.6678   -2.2513  -24.5664 H   0  0  0  0  0  0  0  0  0  0  0  0
   -4.6760   -0.4614  -25.9170 H   0  0  0  0  0  0  0  0  0  0  0  0
   -6.1420    1.3281  -26.8290 H   0  0  0  0  0  0  0  0  0  0  0  0
   -8.5702    1.3015  -26.3905 H   0  0  0  0  0  0  0  0  0  0  0  0
  -11.7118    0.0952  -25.0256 H   0  0  0  0  0  0  0  0  0  0  0  0
  -10.7937    0.4370  -26.4925 H   0  0  0  0  0  0  0  0  0  0  0  0
  -10.5203    1.3940  -25.0178 H   0  0  0  0  0  0  0  0  0  0  0  0
  1  2  1  0
  2  3  1  0
  3  4  2  0
  4  5  1  0
  5  6  2  0
  6  7  1  0
  7  8  2  0
  8  9  1  0
  9 10  1  0
 10 11  1  0
 11 12  1  0
 12 13  1  0
 12 14  1  0
 12 15  1  0
 11 16  1  0
 16 17  1  0
 17 18  1  0
 18 19  1  0
 19 20  2  0
 19 21  1  0
 21 22  1  0
 22 23  2  0
 23 24  1  0
 24 25  2  0
 25 26  1  0
 26 27  2  0
 27 28  1  0
 28 29  2  0
 29 30  1  0
 30 31  2  0
 30 32  1  0
 29 33  1  0
 28 34  1  0
 27 35  1  0
 25 36  1  0
 23 37  1  0
 21 38  1  0
 21 39  1  0
 17 40  1  0
 17 41  1  0
 16 42  1  0
 16 43  1  0
 11 44  1  6
 10 45  1  0
 10 46  1  0
  9 47  1  1
  7 48  1  0
  6 49  1  0
  5 50  1  0
  4 51  1  0
  1 52  1  0
  1 53  1  0
  1 54  1  0
  8  3  1  0
 18  9  1  0
 31 22  1  0
 31 26  1  0
M  END
>  <cnnaffinities>  (80) 
[5.49376]

>  <score>  (80) 
5.49376

>  <index>  (80) 
82

>  <Smiles>  (80) 
C(Oc1c(c(c(c(c1[C@]1(C([C@@](C([H])([H])[H])(C(C(N1C(=O)C(c1c(nc(c2c(c(c(c(c12)[H])[H])[H])[H])[H])[H])([H])[H])([H])[H])([H])[H])[H])([H])[H])[H])[H])[H])[H])[H])([H])([H])[H]

>  <h>  (80) 
<NA>

>  <Training>  (80) 
True

>  <Success>  (80) 
True

>  <enamine_searched>  (80) 
False

>  <enamine_id>  (80) 
nan

$$$$

     RDKit          3D

 46 50  0  0  0  0  0  0  0  0999 V2000
   -5.9917   -4.3434  -26.9530 N   0  0  0  0  0  0  0  0  0  0  0  0
   -5.7265   -2.7255  -26.7579 S   0  0  0  0  0  0  0  0  0  0  0  0
   -4.7550   -2.6286  -25.6826 O   0  0  0  0  0  0  0  0  0  0  0  0
   -5.4726   -2.2147  -28.0920 O   0  0  0  0  0  0  0  0  0  0  0  0
   -7.2541   -2.0171  -26.1882 C   0  0  0  0  0  0  0  0  0  0  0  0
   -8.1342   -1.4362  -27.0984 C   0  0  0  0  0  0  0  0  0  0  0  0
   -9.3147   -0.8811  -26.6399 C   0  0  0  0  0  0  0  0  0  0  0  0
   -9.6293   -0.9117  -25.2792 C   0  0  0  0  0  0  0  0  0  0  0  0
   -8.7709   -1.5426  -24.3752 C   0  0  0  0  0  0  0  0  0  0  0  0
   -7.5806   -2.0933  -24.8446 C   0  0  0  0  0  0  0  0  0  0  0  0
   -6.8955   -2.5718  -24.1545 H   0  0  0  0  0  0  0  0  0  0  0  0
   -9.0931   -1.5969  -22.8948 C   0  0  1  0  0  0  0  0  0  0  0  0
  -10.5846   -1.2796  -22.6670 C   0  0  0  0  0  0  0  0  0  0  0  0
  -11.0314   -0.1022  -23.5216 C   0  0  0  0  0  0  0  0  0  0  0  0
  -10.8071   -0.3394  -24.9140 O   0  0  0  0  0  0  0  0  0  0  0  0
  -12.1126    0.0425  -23.4370 H   0  0  0  0  0  0  0  0  0  0  0  0
  -10.5193    0.8172  -23.2088 H   0  0  0  0  0  0  0  0  0  0  0  0
  -10.7347   -1.0722  -21.6055 H   0  0  0  0  0  0  0  0  0  0  0  0
  -11.1837   -2.1650  -22.9198 H   0  0  0  0  0  0  0  0  0  0  0  0
   -8.7141   -2.8478  -22.2801 N   0  0  0  0  0  0  0  0  0  0  0  0
   -7.7983   -2.7522  -21.2767 C   0  0  0  0  0  0  0  0  0  0  0  0
   -7.3364   -3.6497  -20.6107 O   0  0  0  0  0  0  0  0  0  0  0  0
   -7.4515   -1.3824  -21.1901 N   0  0  0  0  0  0  0  0  0  0  0  0
   -6.5992   -0.8354  -20.1853 C   0  0  0  0  0  0  0  0  0  0  0  0
   -6.8996   -1.0661  -18.8669 C   0  0  0  0  0  0  0  0  0  0  0  0
   -6.2123   -0.5431  -17.8240 N   0  0  0  0  0  0  0  0  0  0  0  0
   -5.1762    0.2123  -18.0927 C   0  0  0  0  0  0  0  0  0  0  0  0
   -4.7333    0.5143  -19.4074 C   0  0  0  0  0  0  0  0  0  0  0  0
   -3.6004    1.3425  -19.6367 C   0  0  0  0  0  0  0  0  0  0  0  0
   -3.1866    1.6135  -20.9113 C   0  0  0  0  0  0  0  0  0  0  0  0
   -3.8872    1.0604  -22.0057 C   0  0  0  0  0  0  0  0  0  0  0  0
   -4.9842    0.2590  -21.8060 C   0  0  0  0  0  0  0  0  0  0  0  0
   -5.4530   -0.0281  -20.4958 C   0  0  0  0  0  0  0  0  0  0  0  0
   -5.5198   -0.1484  -22.6561 H   0  0  0  0  0  0  0  0  0  0  0  0
   -3.5606    1.2793  -23.0167 H   0  0  0  0  0  0  0  0  0  0  0  0
   -2.3265    2.2553  -21.0913 H   0  0  0  0  0  0  0  0  0  0  0  0
   -3.0804    1.7627  -18.7805 H   0  0  0  0  0  0  0  0  0  0  0  0
   -4.6273    0.6164  -17.2420 H   0  0  0  0  0  0  0  0  0  0  0  0
   -7.7486   -1.6884  -18.5953 H   0  0  0  0  0  0  0  0  0  0  0  0
   -8.2019   -0.6256  -22.0960 C   0  0  0  0  0  0  0  0  0  0  0  0
   -8.1629    0.5724  -22.2130 O   0  0  0  0  0  0  0  0  0  0  0  0
   -9.1483   -3.7263  -22.5109 H   0  0  0  0  0  0  0  0  0  0  0  0
  -10.0119   -0.4066  -27.3174 H   0  0  0  0  0  0  0  0  0  0  0  0
   -7.8804   -1.4158  -28.1526 H   0  0  0  0  0  0  0  0  0  0  0  0
   -6.1673   -4.8130  -26.0719 H   0  0  0  0  0  0  0  0  0  0  0  0
   -6.6553   -4.5410  -27.6934 H   0  0  0  0  0  0  0  0  0  0  0  0
  1  2  1  0
  2  3  2  0
  2  4  2  0
  2  5  1  0
  5  6  2  0
  6  7  1  0
  7  8  2  0
  8  9  1  0
  9 10  2  0
 10 11  1  0
  9 12  1  0
 12 13  1  0
 13 14  1  0
 14 15  1  0
 14 16  1  0
 14 17  1  0
 13 18  1  0
 13 19  1  0
 12 20  1  1
 20 21  1  0
 21 22  2  0
 21 23  1  0
 23 24  1  0
 24 25  2  0
 25 26  1  0
 26 27  2  0
 27 28  1  0
 28 29  2  0
 29 30  1  0
 30 31  2  0
 31 32  1  0
 32 33  2  0
 32 34  1  0
 31 35  1  0
 30 36  1  0
 29 37  1  0
 27 38  1  0
 25 39  1  0
 23 40  1  0
 40 41  2  0
 20 42  1  0
  7 43  1  0
  6 44  1  0
  1 45  1  0
  1 46  1  0
 10  5  1  0
 40 12  1  0
 15  8  1  0
 33 24  1  0
 33 28  1  0
M  END
>  <cnnaffinities>  (81) 
[5.68717, 5.53373, 5.57953]

>  <score>  (81) 
5.68717

>  <index>  (81) 
83

>  <Smiles>  (81) 
N(S(=O)(=O)c1c(c(c2c(c1[H])[C@@]1(C(C(O2)([H])[H])([H])[H])N(C(=O)N(c2c(nc(c3c(c(c(c(c23)[H])[H])[H])[H])[H])[H])C1=O)[H])[H])[H])([H])[H]

>  <h>  (81) 
<NA>

>  <Training>  (81) 
True

>  <Success>  (81) 
True

>  <enamine_searched>  (81) 
False

>  <enamine_id>  (81) 
nan

$$$$

     RDKit          3D

 63 68  0  0  0  0  0  0  0  0999 V2000
   -8.3346   -4.1880  -23.4476 C   0  0  0  0  0  0  0  0  0  0  0  0
   -8.5570   -2.9832  -22.5517 C   0  0  1  0  0  0  0  0  0  0  0  0
   -7.4043   -2.7775  -21.5646 C   0  0  0  0  0  0  0  0  0  0  0  0
   -7.4730   -1.3649  -21.2540 N   0  0  0  0  0  0  0  0  0  0  0  0
   -6.6912   -0.7728  -20.2294 C   0  0  0  0  0  0  0  0  0  0  0  0
   -7.0099   -1.0274  -18.9190 C   0  0  0  0  0  0  0  0  0  0  0  0
   -6.3437   -0.5335  -17.8469 N   0  0  0  0  0  0  0  0  0  0  0  0
   -5.2980    0.2212  -18.0885 C   0  0  0  0  0  0  0  0  0  0  0  0
   -4.8255    0.5315  -19.3950 C   0  0  0  0  0  0  0  0  0  0  0  0
   -3.6672    1.3302  -19.5920 C   0  0  0  0  0  0  0  0  0  0  0  0
   -3.2099    1.5900  -20.8544 C   0  0  0  0  0  0  0  0  0  0  0  0
   -3.8911    1.0666  -21.9761 C   0  0  0  0  0  0  0  0  0  0  0  0
   -5.0204    0.3028  -21.8123 C   0  0  0  0  0  0  0  0  0  0  0  0
   -5.5284    0.0205  -20.5116 C   0  0  0  0  0  0  0  0  0  0  0  0
   -5.5397   -0.0848  -22.6846 H   0  0  0  0  0  0  0  0  0  0  0  0
   -3.5200    1.2786  -22.9745 H   0  0  0  0  0  0  0  0  0  0  0  0
   -2.3255    2.2047  -21.0028 H   0  0  0  0  0  0  0  0  0  0  0  0
   -3.1627    1.7339  -18.7178 H   0  0  0  0  0  0  0  0  0  0  0  0
   -4.7589    0.6176  -17.2271 H   0  0  0  0  0  0  0  0  0  0  0  0
   -7.8689   -1.6587  -18.6938 H   0  0  0  0  0  0  0  0  0  0  0  0
   -8.2227   -0.6369  -22.1544 C   0  0  0  0  0  0  0  0  0  0  0  0
   -8.3737    0.5651  -22.0945 O   0  0  0  0  0  0  0  0  0  0  0  0
   -8.7678   -1.5919  -23.2435 C   0  0  1  0  0  0  0  0  0  0  0  0
   -7.9026   -1.3540  -24.5049 C   0  0  0  0  0  0  0  0  0  0  0  0
   -8.5155   -1.7825  -25.7592 N   0  0  0  0  0  0  0  0  0  0  0  0
   -7.6301   -2.1077  -26.8725 C   0  0  0  0  0  0  0  0  0  0  0  0
   -7.5334   -3.6144  -27.1171 C   0  0  0  0  0  0  0  0  0  0  0  0
   -6.5619   -4.2559  -26.7457 O   0  0  0  0  0  0  0  0  0  0  0  0
   -8.6088   -4.1567  -27.7571 N   0  0  0  0  0  0  0  0  0  0  0  0
   -8.8862   -5.5818  -27.7938 C   0  0  0  0  0  0  0  0  0  0  0  0
   -9.7677   -6.0109  -26.7094 C   0  0  0  0  0  0  0  0  0  0  0  0
   -9.2109   -5.9086  -25.4515 F   0  0  0  0  0  0  0  0  0  0  0  0
  -10.6939   -6.9921  -26.7039 C   0  0  0  0  0  0  0  0  0  0  0  0
  -10.8970   -6.9859  -26.9473 C   0  0  0  0  0  0  0  0  0  0  0  0
  -11.2823   -6.8336  -28.4637 H   0  0  0  0  0  0  0  0  0  0  0  0
  -10.5882   -8.2473  -26.9393 H   0  0  0  0  0  0  0  0  0  0  0  0
  -12.0419   -6.5086  -26.9160 H   0  0  0  0  0  0  0  0  0  0  0  0
  -10.8110   -7.2635  -25.5558 H   0  0  0  0  0  0  0  0  0  0  0  0
   -9.2824   -5.8183  -28.7899 H   0  0  0  0  0  0  0  0  0  0  0  0
   -7.9465   -6.1153  -27.6525 H   0  0  0  0  0  0  0  0  0  0  0  0
   -9.4050   -3.5428  -27.8858 H   0  0  0  0  0  0  0  0  0  0  0  0
   -8.0030   -1.6019  -27.7669 H   0  0  0  0  0  0  0  0  0  0  0  0
   -6.6324   -1.7282  -26.6383 H   0  0  0  0  0  0  0  0  0  0  0  0
   -9.8495   -1.6917  -26.0165 C   0  0  0  0  0  0  0  0  0  0  0  0
  -10.3171   -1.9374  -27.1332 O   0  0  0  0  0  0  0  0  0  0  0  0
  -10.7167   -1.3033  -24.8720 C   0  0  0  0  0  0  0  0  0  0  0  0
  -12.0563   -1.0128  -25.1314 C   0  0  0  0  0  0  0  0  0  0  0  0
  -12.9344   -0.7716  -24.0954 C   0  0  0  0  0  0  0  0  0  0  0  0
  -12.4455   -0.8456  -22.7969 C   0  0  0  0  0  0  0  0  0  0  0  0
  -13.3105   -0.6701  -21.7894 F   0  0  0  0  0  0  0  0  0  0  0  0
  -11.1185   -1.1016  -22.5143 C   0  0  0  0  0  0  0  0  0  0  0  0
  -10.2185   -1.3071  -23.5649 C   0  0  0  0  0  0  0  0  0  0  0  0
  -10.7872   -1.1366  -21.4819 H   0  0  0  0  0  0  0  0  0  0  0  0
  -13.9840   -0.5525  -24.2597 H   0  0  0  0  0  0  0  0  0  0  0  0
  -12.3913   -1.0138  -26.1634 H   0  0  0  0  0  0  0  0  0  0  0  0
   -7.6632   -0.2822  -24.5552 H   0  0  0  0  0  0  0  0  0  0  0  0
   -6.9573   -1.8988  -24.3996 H   0  0  0  0  0  0  0  0  0  0  0  0
   -6.4358   -3.0384  -22.0213 H   0  0  0  0  0  0  0  0  0  0  0  0
   -7.5140   -3.3829  -20.6580 H   0  0  0  0  0  0  0  0  0  0  0  0
   -9.4699   -3.1598  -21.9644 H   0  0  0  0  0  0  0  0  0  0  0  0
   -9.2169   -4.3922  -24.0544 H   0  0  0  0  0  0  0  0  0  0  0  0
   -8.1286   -5.0757  -22.8377 H   0  0  0  0  0  0  0  0  0  0  0  0
   -7.4830   -4.0578  -24.1253 H   0  0  0  0  0  0  0  0  0  0  0  0
  1  2  1  0
  2  3  1  0
  3  4  1  0
  4  5  1  0
  5  6  2  0
  6  7  1  0
  7  8  2  0
  8  9  1  0
  9 10  2  0
 10 11  1  0
 11 12  2  0
 12 13  1  0
 13 14  2  0
 13 15  1  0
 12 16  1  0
 11 17  1  0
 10 18  1  0
  8 19  1  0
  6 20  1  0
  4 21  1  0
 21 22  2  0
 21 23  1  0
 23 24  1  6
 24 25  1  0
 25 26  1  0
 26 27  1  0
 27 28  2  0
 27 29  1  0
 29 30  1  0
 30 31  1  0
 31 32  1  0
 31 33  1  0
 33 34  1  0
 34 35  1  0
 34 36  1  0
 33 37  1  0
 33 38  1  0
 30 39  1  0
 30 40  1  0
 29 41  1  0
 26 42  1  0
 26 43  1  0
 25 44  1  0
 44 45  2  0
 44 46  1  0
 46 47  2  0
 47 48  1  0
 48 49  2  0
 49 50  1  0
 49 51  1  0
 51 52  2  0
 51 53  1  0
 48 54  1  0
 47 55  1  0
 24 56  1  0
 24 57  1  0
  3 58  1  0
  3 59  1  0
  2 60  1  1
  1 61  1  0
  1 62  1  0
  1 63  1  0
 23  2  1  0
 34 31  1  0
 52 46  1  0
 14  5  1  0
 52 23  1  0
 14  9  1  0
M  END
>  <cnnaffinities>  (82) 
[6.35516]

>  <score>  (82) 
6.35516

>  <index>  (82) 
84

>  <Smiles>  (82) 
C([C@]1(C(N(c2c(nc(c3c(c(c(c(c23)[H])[H])[H])[H])[H])[H])C(=O)[C@]21C(N(C(C(=O)N(C(C1(F)C(C1([H])[H])([H])[H])([H])[H])[H])([H])[H])C(=O)c1c(c(c(F)c(c21)[H])[H])[H])([H])[H])([H])[H])[H])([H])([H])[H]

>  <h>  (82) 
<NA>

>  <Training>  (82) 
True

>  <Success>  (82) 
True

>  <enamine_searched>  (82) 
False

>  <enamine_id>  (82) 
nan

$$$$

     RDKit          3D

 57 62  0  0  0  0  0  0  0  0999 V2000
   -9.2821    1.0438  -29.3097 C   0  0  0  0  0  0  0  0  0  0  0  0
   -9.1699    1.3765  -27.9041 N   0  0  0  0  0  0  0  0  0  0  0  0
   -8.2844    0.6983  -27.1307 C   0  0  0  0  0  0  0  0  0  0  0  0
   -7.5262   -0.1541  -27.5687 O   0  0  0  0  0  0  0  0  0  0  0  0
   -8.3044    1.0830  -25.6488 C   0  0  0  0  0  0  0  0  0  0  0  0
   -9.1438    0.2037  -24.8631 N   0  0  0  0  0  0  0  0  0  0  0  0
   -8.6526   -1.1191  -24.5142 C   0  0  0  0  0  0  0  0  0  0  0  0
   -8.9549   -1.4863  -23.0443 C   0  0  2  0  0  0  0  0  0  0  0  0
   -8.1545   -0.5849  -22.0799 C   0  0  0  0  0  0  0  0  0  0  0  0
   -8.1454    0.6258  -22.0635 O   0  0  0  0  0  0  0  0  0  0  0  0
   -7.4157   -1.3698  -21.2151 N   0  0  0  0  0  0  0  0  0  0  0  0
   -6.6011   -0.8220  -20.1933 C   0  0  0  0  0  0  0  0  0  0  0  0
   -6.9010   -1.0651  -18.8753 C   0  0  0  0  0  0  0  0  0  0  0  0
   -6.2203   -0.5557  -17.8188 N   0  0  0  0  0  0  0  0  0  0  0  0
   -5.1866    0.2079  -18.0847 C   0  0  0  0  0  0  0  0  0  0  0  0
   -4.7395    0.5119  -19.4018 C   0  0  0  0  0  0  0  0  0  0  0  0
   -3.6080    1.3412  -19.6266 C   0  0  0  0  0  0  0  0  0  0  0  0
   -3.1870    1.6131  -20.8992 C   0  0  0  0  0  0  0  0  0  0  0  0
   -3.8714    1.0608  -22.0040 C   0  0  0  0  0  0  0  0  0  0  0  0
   -4.9657    0.2547  -21.8121 C   0  0  0  0  0  0  0  0  0  0  0  0
   -5.4476   -0.0236  -20.4996 C   0  0  0  0  0  0  0  0  0  0  0  0
   -5.4851   -0.1596  -22.6692 H   0  0  0  0  0  0  0  0  0  0  0  0
   -3.5340    1.2866  -23.0118 H   0  0  0  0  0  0  0  0  0  0  0  0
   -2.3296    2.2587  -21.0690 H   0  0  0  0  0  0  0  0  0  0  0  0
   -3.0985    1.7636  -18.7649 H   0  0  0  0  0  0  0  0  0  0  0  0
   -4.6366    0.6189  -17.2374 H   0  0  0  0  0  0  0  0  0  0  0  0
   -7.7630   -1.6811  -18.6226 H   0  0  0  0  0  0  0  0  0  0  0  0
   -7.6349   -2.7878  -21.3726 C   0  0  0  0  0  0  0  0  0  0  0  0
   -8.4788   -2.8969  -22.6385 C   0  0  0  0  0  0  0  0  0  0  0  0
   -9.3485   -4.1063  -22.8227 C   0  0  0  0  0  0  0  0  0  0  0  0
   -8.0986   -3.9565  -23.6403 C   0  0  0  0  0  0  0  0  0  0  0  0
   -7.2458   -4.5921  -23.4066 H   0  0  0  0  0  0  0  0  0  0  0  0
   -8.1952   -3.7217  -24.6966 H   0  0  0  0  0  0  0  0  0  0  0  0
   -9.3835   -4.8549  -22.0309 H   0  0  0  0  0  0  0  0  0  0  0  0
  -10.2999   -3.9615  -23.3258 H   0  0  0  0  0  0  0  0  0  0  0  0
   -6.6776   -3.3107  -21.4697 H   0  0  0  0  0  0  0  0  0  0  0  0
   -8.1566   -3.2153  -20.5071 H   0  0  0  0  0  0  0  0  0  0  0  0
  -10.4475   -1.2302  -22.8795 C   0  0  0  0  0  0  0  0  0  0  0  0
  -11.1577   -1.9445  -21.9270 C   0  0  0  0  0  0  0  0  0  0  0  0
  -12.5207   -1.7732  -21.8061 C   0  0  0  0  0  0  0  0  0  0  0  0
  -13.2610   -2.7810  -20.5894 Cl  0  0  0  0  0  0  0  0  0  0  0  0
  -13.2055   -0.7550  -22.4680 C   0  0  0  0  0  0  0  0  0  0  0  0
  -12.4821    0.0225  -23.3577 C   0  0  0  0  0  0  0  0  0  0  0  0
  -11.1408   -0.2509  -23.6093 C   0  0  0  0  0  0  0  0  0  0  0  0
  -10.4404    0.5653  -24.6428 C   0  0  0  0  0  0  0  0  0  0  0  0
  -10.9624    1.5051  -25.2369 O   0  0  0  0  0  0  0  0  0  0  0  0
  -12.9247    0.8655  -23.8752 H   0  0  0  0  0  0  0  0  0  0  0  0
  -14.2580   -0.5748  -22.2705 H   0  0  0  0  0  0  0  0  0  0  0  0
  -10.6745   -2.6695  -21.2813 H   0  0  0  0  0  0  0  0  0  0  0  0
   -7.5800   -1.1474  -24.7091 H   0  0  0  0  0  0  0  0  0  0  0  0
   -9.1379   -1.8663  -25.1552 H   0  0  0  0  0  0  0  0  0  0  0  0
   -8.6765    2.1024  -25.5116 H   0  0  0  0  0  0  0  0  0  0  0  0
   -7.2803    1.0051  -25.2656 H   0  0  0  0  0  0  0  0  0  0  0  0
   -9.8975    1.9146  -27.4525 H   0  0  0  0  0  0  0  0  0  0  0  0
   -9.5323   -0.0139  -29.4454 H   0  0  0  0  0  0  0  0  0  0  0  0
  -10.0548    1.6603  -29.7729 H   0  0  0  0  0  0  0  0  0  0  0  0
   -8.3317    1.2275  -29.8196 H   0  0  0  0  0  0  0  0  0  0  0  0
  1  2  1  0
  2  3  1  0
  3  4  2  0
  3  5  1  0
  5  6  1  0
  6  7  1  0
  8  7  1  6
  8  9  1  0
  9 10  2  0
  9 11  1  0
 11 12  1  0
 12 13  2  0
 13 14  1  0
 14 15  2  0
 15 16  1  0
 16 17  2  0
 17 18  1  0
 18 19  2  0
 19 20  1  0
 20 21  2  0
 20 22  1  0
 19 23  1  0
 18 24  1  0
 17 25  1  0
 15 26  1  0
 13 27  1  0
 11 28  1  0
 28 29  1  0
 29 30  1  0
 30 31  1  0
 31 32  1  0
 31 33  1  0
 30 34  1  0
 30 35  1  0
 28 36  1  0
 28 37  1  0
  8 38  1  0
 38 39  2  0
 39 40  1  0
 40 41  1  0
 40 42  2  0
 42 43  1  0
 43 44  2  0
 44 45  1  0
 45 46  2  0
 43 47  1  0
 42 48  1  0
 39 49  1  0
  7 50  1  0
  7 51  1  0
  5 52  1  0
  5 53  1  0
  2 54  1  0
  1 55  1  0
  1 56  1  0
  1 57  1  0
 45  6  1  0
 29  8  1  0
 44 38  1  0
 21 12  1  0
 31 29  1  0
 21 16  1  0
M  END
>  <cnnaffinities>  (83) 
[5.74009]

>  <score>  (83) 
5.74009

>  <index>  (83) 
85

>  <Smiles>  (83) 
C(N(C(=O)C(N1C([C@@]2(C(=O)N(c3c(nc(c4c(c(c(c(c34)[H])[H])[H])[H])[H])[H])C(C32C(C3([H])[H])([H])[H])([H])[H])c2c(c(Cl)c(c(c2C1=O)[H])[H])[H])([H])[H])([H])[H])[H])([H])([H])[H]

>  <h>  (83) 
<NA>

>  <Training>  (83) 
True

>  <Success>  (83) 
True

>  <enamine_searched>  (83) 
False

>  <enamine_id>  (83) 
nan

$$$$

     RDKit          3D

 43 45  0  0  0  0  0  0  0  0999 V2000
   -8.5464   -5.5626  -25.7829 C   0  0  0  0  0  0  0  0  0  0  0  0
   -9.0612   -5.4477  -24.3457 C   0  0  1  0  0  0  0  0  0  0  0  0
   -8.0256   -5.8773  -23.3094 C   0  0  0  0  0  0  0  0  0  0  0  0
   -6.9359   -4.8329  -23.0939 C   0  0  0  0  0  0  0  0  0  0  0  0
   -7.5097   -3.5401  -22.7128 N   0  0  0  0  0  0  0  0  0  0  0  0
   -6.7549   -2.7451  -21.8636 C   0  0  0  0  0  0  0  0  0  0  0  0
   -5.6175   -3.0512  -21.5525 O   0  0  0  0  0  0  0  0  0  0  0  0
   -7.4131   -1.4743  -21.2690 C   0  0  0  0  0  0  0  0  0  0  0  0
   -6.5792   -0.8307  -20.1833 C   0  0  0  0  0  0  0  0  0  0  0  0
   -6.8741   -1.0455  -18.8631 C   0  0  0  0  0  0  0  0  0  0  0  0
   -6.1925   -0.5397  -17.7989 N   0  0  0  0  0  0  0  0  0  0  0  0
   -5.1591    0.2223  -18.0665 C   0  0  0  0  0  0  0  0  0  0  0  0
   -4.7211    0.5286  -19.3816 C   0  0  0  0  0  0  0  0  0  0  0  0
   -3.5925    1.3546  -19.6226 C   0  0  0  0  0  0  0  0  0  0  0  0
   -3.1902    1.6319  -20.9012 C   0  0  0  0  0  0  0  0  0  0  0  0
   -3.9012    1.0886  -21.9940 C   0  0  0  0  0  0  0  0  0  0  0  0
   -4.9975    0.2872  -21.7865 C   0  0  0  0  0  0  0  0  0  0  0  0
   -5.4443   -0.0138  -20.4742 C   0  0  0  0  0  0  0  0  0  0  0  0
   -5.5287   -0.1297  -22.6355 H   0  0  0  0  0  0  0  0  0  0  0  0
   -3.5776    1.3141  -23.0057 H   0  0  0  0  0  0  0  0  0  0  0  0
   -2.3300    2.2716  -21.0850 H   0  0  0  0  0  0  0  0  0  0  0  0
   -3.0609    1.7736  -18.7707 H   0  0  0  0  0  0  0  0  0  0  0  0
   -4.6045    0.6280  -17.2171 H   0  0  0  0  0  0  0  0  0  0  0  0
   -7.7211   -1.6703  -18.5861 H   0  0  0  0  0  0  0  0  0  0  0  0
   -7.6218   -0.7476  -22.0672 H   0  0  0  0  0  0  0  0  0  0  0  0
   -8.3933   -1.7507  -20.8538 H   0  0  0  0  0  0  0  0  0  0  0  0
   -8.5360   -2.9963  -23.6099 C   0  0  1  0  0  0  0  0  0  0  0  0
   -7.9410   -2.2908  -24.8398 C   0  0  0  0  0  0  0  0  0  0  0  0
   -8.7286   -1.9764  -25.5348 H   0  0  0  0  0  0  0  0  0  0  0  0
   -7.2483   -2.9315  -25.3932 H   0  0  0  0  0  0  0  0  0  0  0  0
   -7.3906   -1.3889  -24.5492 H   0  0  0  0  0  0  0  0  0  0  0  0
   -9.5848   -4.0631  -23.9606 C   0  0  0  0  0  0  0  0  0  0  0  0
  -10.1953   -3.6633  -24.7727 H   0  0  0  0  0  0  0  0  0  0  0  0
  -10.2614   -4.1733  -23.1060 H   0  0  0  0  0  0  0  0  0  0  0  0
   -9.0794   -2.2364  -23.0430 H   0  0  0  0  0  0  0  0  0  0  0  0
   -6.2990   -4.7563  -23.9884 H   0  0  0  0  0  0  0  0  0  0  0  0
   -6.2731   -5.1464  -22.2899 H   0  0  0  0  0  0  0  0  0  0  0  0
   -7.5747   -6.8285  -23.6116 H   0  0  0  0  0  0  0  0  0  0  0  0
   -8.5201   -6.0608  -22.3512 H   0  0  0  0  0  0  0  0  0  0  0  0
   -9.9136   -6.1368  -24.2792 H   0  0  0  0  0  0  0  0  0  0  0  0
   -7.5994   -5.0393  -25.9397 H   0  0  0  0  0  0  0  0  0  0  0  0
   -8.3806   -6.6139  -26.0489 H   0  0  0  0  0  0  0  0  0  0  0  0
   -9.2678   -5.1522  -26.4973 H   0  0  0  0  0  0  0  0  0  0  0  0
  1  2  1  0
  2  3  1  0
  3  4  1  0
  4  5  1  0
  5  6  1  0
  6  7  2  0
  6  8  1  0
  8  9  1  0
  9 10  2  0
 10 11  1  0
 11 12  2  0
 12 13  1  0
 13 14  2  0
 14 15  1  0
 15 16  2  0
 16 17  1  0
 17 18  2  0
 17 19  1  0
 16 20  1  0
 15 21  1  0
 14 22  1  0
 12 23  1  0
 10 24  1  0
  8 25  1  0
  8 26  1  0
  5 27  1  0
 27 28  1  0
 28 29  1  0
 28 30  1  0
 28 31  1  0
 27 32  1  0
 32 33  1  0
 32 34  1  0
 27 35  1  1
  4 36  1  0
  4 37  1  0
  3 38  1  0
  3 39  1  0
  2 40  1  6
  1 41  1  0
  1 42  1  0
  1 43  1  0
 32  2  1  0
 18  9  1  0
 18 13  1  0
M  END
>  <cnnaffinities>  (84) 
[4.83809]

>  <score>  (84) 
4.83809

>  <index>  (84) 
86

>  <Smiles>  (84) 
C([C@]1(C(C(N(C(=O)C(c2c(nc(c3c(c(c(c(c23)[H])[H])[H])[H])[H])[H])([H])[H])[C@@](C([H])([H])[H])(C1([H])[H])[H])([H])[H])([H])[H])[H])([H])([H])[H]

>  <h>  (84) 
<NA>

>  <Training>  (84) 
True

>  <Success>  (84) 
True

>  <enamine_searched>  (84) 
False

>  <enamine_id>  (84) 
nan

$$$$

     RDKit          3D

 59 64  0  0  0  0  0  0  0  0999 V2000
   -8.0952   -4.0880  -23.6317 C   0  0  0  0  0  0  0  0  0  0  0  0
   -8.4160   -2.9693  -22.6349 C   0  0  1  0  0  0  0  0  0  0  0  0
   -7.3333   -2.7941  -21.5558 C   0  0  0  0  0  0  0  0  0  0  0  0
   -7.4125   -1.3866  -21.2016 N   0  0  0  0  0  0  0  0  0  0  0  0
   -6.6106   -0.8019  -20.1835 C   0  0  0  0  0  0  0  0  0  0  0  0
   -6.8991   -1.0521  -18.8680 C   0  0  0  0  0  0  0  0  0  0  0  0
   -6.2043   -0.5519  -17.8158 N   0  0  0  0  0  0  0  0  0  0  0  0
   -5.1724    0.2115  -18.0847 C   0  0  0  0  0  0  0  0  0  0  0  0
   -4.7341    0.5270  -19.4006 C   0  0  0  0  0  0  0  0  0  0  0  0
   -3.5965    1.3473  -19.6377 C   0  0  0  0  0  0  0  0  0  0  0  0
   -3.1842    1.6149  -20.9127 C   0  0  0  0  0  0  0  0  0  0  0  0
   -3.8845    1.0639  -22.0108 C   0  0  0  0  0  0  0  0  0  0  0  0
   -4.9841    0.2715  -21.8076 C   0  0  0  0  0  0  0  0  0  0  0  0
   -5.4601   -0.0014  -20.4933 C   0  0  0  0  0  0  0  0  0  0  0  0
   -5.5162   -0.1453  -22.6584 H   0  0  0  0  0  0  0  0  0  0  0  0
   -3.5611    1.2852  -23.0246 H   0  0  0  0  0  0  0  0  0  0  0  0
   -2.3253    2.2595  -21.0874 H   0  0  0  0  0  0  0  0  0  0  0  0
   -3.0781    1.7664  -18.7777 H   0  0  0  0  0  0  0  0  0  0  0  0
   -4.6264    0.6170  -17.2320 H   0  0  0  0  0  0  0  0  0  0  0  0
   -7.7445   -1.6877  -18.6084 H   0  0  0  0  0  0  0  0  0  0  0  0
   -8.1225   -0.6209  -22.1029 C   0  0  0  0  0  0  0  0  0  0  0  0
   -8.2546    0.5800  -22.0116 O   0  0  0  0  0  0  0  0  0  0  0  0
   -8.6440   -1.5350  -23.2315 C   0  0  1  0  0  0  0  0  0  0  0  0
   -7.8127   -1.2225  -24.4939 C   0  0  0  0  0  0  0  0  0  0  0  0
   -8.3525   -1.8657  -25.6768 N   0  0  0  0  0  0  0  0  0  0  0  0
   -7.4207   -2.2570  -26.7273 C   0  0  0  0  0  0  0  0  0  0  0  0
   -7.0368   -1.1355  -27.6434 C   0  0  0  0  0  0  0  0  0  0  0  0
   -7.6978   -0.6833  -28.7642 C   0  0  0  0  0  0  0  0  0  0  0  0
   -6.9607    0.4370  -29.1894 C   0  0  0  0  0  0  0  0  0  0  0  0
   -5.9141    0.6518  -28.4035 N   0  0  0  0  0  0  0  0  0  0  0  0
   -5.9638   -0.3188  -27.4772 N   0  0  0  0  0  0  0  0  0  0  0  0
   -4.9606   -0.3372  -26.4304 C   0  0  0  0  0  0  0  0  0  0  0  0
   -4.1116    0.2466  -26.7957 H   0  0  0  0  0  0  0  0  0  0  0  0
   -5.3456    0.1230  -25.5100 H   0  0  0  0  0  0  0  0  0  0  0  0
   -4.6480   -1.3672  -26.2311 H   0  0  0  0  0  0  0  0  0  0  0  0
   -7.1488    1.1196  -30.0134 H   0  0  0  0  0  0  0  0  0  0  0  0
   -8.6084   -1.1172  -29.1551 H   0  0  0  0  0  0  0  0  0  0  0  0
   -6.5361   -2.7020  -26.2541 H   0  0  0  0  0  0  0  0  0  0  0  0
   -7.9222   -3.0262  -27.3171 H   0  0  0  0  0  0  0  0  0  0  0  0
   -9.6818   -1.7774  -25.9971 C   0  0  0  0  0  0  0  0  0  0  0  0
  -10.1037   -2.0325  -27.1176 O   0  0  0  0  0  0  0  0  0  0  0  0
  -10.5876   -1.3795  -24.8708 C   0  0  0  0  0  0  0  0  0  0  0  0
  -11.9458   -1.1839  -25.1312 C   0  0  0  0  0  0  0  0  0  0  0  0
  -12.8337   -0.9250  -24.1051 C   0  0  0  0  0  0  0  0  0  0  0  0
  -12.3387   -0.8482  -22.8113 C   0  0  0  0  0  0  0  0  0  0  0  0
  -13.2059   -0.5952  -21.8219 F   0  0  0  0  0  0  0  0  0  0  0  0
  -11.0017   -1.0255  -22.5206 C   0  0  0  0  0  0  0  0  0  0  0  0
  -10.1008   -1.2769  -23.5606 C   0  0  0  0  0  0  0  0  0  0  0  0
  -10.6637   -0.9562  -21.4943 H   0  0  0  0  0  0  0  0  0  0  0  0
  -13.9012   -0.8118  -24.2577 H   0  0  0  0  0  0  0  0  0  0  0  0
  -12.2961   -1.3056  -26.1516 H   0  0  0  0  0  0  0  0  0  0  0  0
   -7.8085   -0.1277  -24.6116 H   0  0  0  0  0  0  0  0  0  0  0  0
   -6.7801   -1.5716  -24.3534 H   0  0  0  0  0  0  0  0  0  0  0  0
   -7.5163   -3.4226  -20.6778 H   0  0  0  0  0  0  0  0  0  0  0  0
   -6.3354   -3.0543  -21.9437 H   0  0  0  0  0  0  0  0  0  0  0  0
   -9.3594   -3.2165  -22.1260 H   0  0  0  0  0  0  0  0  0  0  0  0
   -8.8710   -4.1627  -24.3997 H   0  0  0  0  0  0  0  0  0  0  0  0
   -7.1414   -3.9065  -24.1433 H   0  0  0  0  0  0  0  0  0  0  0  0
   -8.0173   -5.0557  -23.1233 H   0  0  0  0  0  0  0  0  0  0  0  0
  1  2  1  0
  2  3  1  0
  3  4  1  0
  4  5  1  0
  5  6  2  0
  6  7  1  0
  7  8  2  0
  8  9  1  0
  9 10  2  0
 10 11  1  0
 11 12  2  0
 12 13  1  0
 13 14  2  0
 13 15  1  0
 12 16  1  0
 11 17  1  0
 10 18  1  0
  8 19  1  0
  6 20  1  0
  4 21  1  0
 21 22  2  0
 21 23  1  0
 23 24  1  6
 24 25  1  0
 25 26  1  0
 26 27  1  0
 27 28  2  0
 28 29  1  0
 29 30  2  0
 30 31  1  0
 31 32  1  0
 32 33  1  0
 32 34  1  0
 32 35  1  0
 29 36  1  0
 28 37  1  0
 26 38  1  0
 26 39  1  0
 25 40  1  0
 40 41  2  0
 40 42  1  0
 42 43  2  0
 43 44  1  0
 44 45  2  0
 45 46  1  0
 45 47  1  0
 47 48  2  0
 47 49  1  0
 44 50  1  0
 43 51  1  0
 24 52  1  0
 24 53  1  0
  3 54  1  0
  3 55  1  0
  2 56  1  1
  1 57  1  0
  1 58  1  0
  1 59  1  0
 23  2  1  0
 31 27  1  0
 48 42  1  0
 14  5  1  0
 48 23  1  0
 14  9  1  0
M  END
>  <cnnaffinities>  (85) 
[6.21528, 6.22438, 6.14274, 6.08758]

>  <score>  (85) 
6.21528

>  <index>  (85) 
87

>  <Smiles>  (85) 
C([C@]1(C(N(c2c(nc(c3c(c(c(c(c23)[H])[H])[H])[H])[H])[H])C(=O)[C@]21C(N(C(c1c(c(nn1C([H])([H])[H])[H])[H])([H])[H])C(=O)c1c(c(c(F)c(c21)[H])[H])[H])([H])[H])([H])[H])[H])([H])([H])[H]

>  <h>  (85) 
<NA>

>  <Training>  (85) 
True

>  <Success>  (85) 
True

>  <enamine_searched>  (85) 
False

>  <enamine_id>  (85) 
nan

$$$$

     RDKit          3D

 40 42  0  0  0  0  0  0  0  0999 V2000
   -5.5829   -3.0078  -21.6306 O   0  0  0  0  0  0  0  0  0  0  0  0
   -6.7748   -2.7894  -21.7894 C   0  0  0  0  0  0  0  0  0  0  0  0
   -7.4102   -1.4846  -21.2636 C   0  0  0  0  0  0  0  0  0  0  0  0
   -6.5816   -0.8300  -20.1818 C   0  0  0  0  0  0  0  0  0  0  0  0
   -6.8809   -1.0455  -18.8609 C   0  0  0  0  0  0  0  0  0  0  0  0
   -6.1975   -0.5371  -17.7995 N   0  0  0  0  0  0  0  0  0  0  0  0
   -5.1623    0.2186  -18.0705 C   0  0  0  0  0  0  0  0  0  0  0  0
   -4.7218    0.5244  -19.3847 C   0  0  0  0  0  0  0  0  0  0  0  0
   -3.5948    1.3500  -19.6223 C   0  0  0  0  0  0  0  0  0  0  0  0
   -3.1914    1.6263  -20.9003 C   0  0  0  0  0  0  0  0  0  0  0  0
   -3.9013    1.0822  -21.9950 C   0  0  0  0  0  0  0  0  0  0  0  0
   -4.9955    0.2788  -21.7902 C   0  0  0  0  0  0  0  0  0  0  0  0
   -5.4443   -0.0179  -20.4760 C   0  0  0  0  0  0  0  0  0  0  0  0
   -5.5252   -0.1481  -22.6363 H   0  0  0  0  0  0  0  0  0  0  0  0
   -3.5791    1.3140  -23.0062 H   0  0  0  0  0  0  0  0  0  0  0  0
   -2.3345    2.2696  -21.0767 H   0  0  0  0  0  0  0  0  0  0  0  0
   -3.0772    1.7685  -18.7619 H   0  0  0  0  0  0  0  0  0  0  0  0
   -4.6139    0.6279  -17.2185 H   0  0  0  0  0  0  0  0  0  0  0  0
   -7.7286   -1.6699  -18.5817 H   0  0  0  0  0  0  0  0  0  0  0  0
   -8.4096   -1.7096  -20.8640 H   0  0  0  0  0  0  0  0  0  0  0  0
   -7.5645   -0.8013  -22.1103 H   0  0  0  0  0  0  0  0  0  0  0  0
   -7.5895   -3.7062  -22.4194 N   0  0  0  0  0  0  0  0  0  0  0  0
   -7.2964   -5.1174  -22.2142 C   0  0  0  0  0  0  0  0  0  0  0  0
   -7.5128   -5.9624  -23.4615 C   0  0  0  0  0  0  0  0  0  0  0  0
   -8.9616   -5.7736  -23.8951 C   0  0  0  0  0  0  0  0  0  0  0  0
   -9.3214   -6.6021  -25.1068 C   0  0  0  0  0  0  0  0  0  0  0  0
   -8.5033   -6.2730  -26.1514 F   0  0  0  0  0  0  0  0  0  0  0  0
   -9.1378   -7.9266  -24.8354 F   0  0  0  0  0  0  0  0  0  0  0  0
  -10.3612   -6.4751  -25.4340 H   0  0  0  0  0  0  0  0  0  0  0  0
   -9.2655   -4.2904  -24.0907 C   0  0  0  0  0  0  0  0  0  0  0  0
   -8.9641   -3.4749  -22.8278 C   0  0  0  0  0  0  0  0  0  0  0  0
   -9.6767   -3.7741  -22.0292 H   0  0  0  0  0  0  0  0  0  0  0  0
   -9.0991   -2.4077  -23.0164 H   0  0  0  0  0  0  0  0  0  0  0  0
   -8.6635   -3.9156  -24.9272 H   0  0  0  0  0  0  0  0  0  0  0  0
  -10.3259   -4.1644  -24.3294 H   0  0  0  0  0  0  0  0  0  0  0  0
   -9.5864   -6.1427  -23.0847 H   0  0  0  0  0  0  0  0  0  0  0  0
   -6.8217   -5.7023  -24.2750 H   0  0  0  0  0  0  0  0  0  0  0  0
   -7.3464   -7.0138  -23.1991 H   0  0  0  0  0  0  0  0  0  0  0  0
   -6.2761   -5.1751  -21.8415 H   0  0  0  0  0  0  0  0  0  0  0  0
   -8.0089   -5.4825  -21.4503 H   0  0  0  0  0  0  0  0  0  0  0  0
  1  2  2  0
  2  3  1  0
  3  4  1  0
  4  5  2  0
  5  6  1  0
  6  7  2  0
  7  8  1  0
  8  9  2  0
  9 10  1  0
 10 11  2  0
 11 12  1  0
 12 13  2  0
 12 14  1  0
 11 15  1  0
 10 16  1  0
  9 17  1  0
  7 18  1  0
  5 19  1  0
  3 20  1  0
  3 21  1  0
  2 22  1  0
 22 23  1  0
 23 24  1  0
 24 25  1  0
 25 26  1  0
 26 27  1  0
 26 28  1  0
 26 29  1  0
 25 30  1  0
 30 31  1  0
 31 32  1  0
 31 33  1  0
 30 34  1  0
 30 35  1  0
 25 36  1  0
 24 37  1  0
 24 38  1  0
 23 39  1  0
 23 40  1  0
 13  4  1  0
 31 22  1  0
 13  8  1  0
M  END
>  <cnnaffinities>  (86) 
[4.81802, 4.80575, 4.80564, 4.80422, 4.78869, 4.54466, 4.88498, 4.86915, 4.90775, 4.90779, 4.90773]

>  <score>  (86) 
4.81802

>  <index>  (86) 
88

>  <Smiles>  (86) 
O=C(C(c1c(nc(c2c(c(c(c(c12)[H])[H])[H])[H])[H])[H])([H])[H])N1C(C(C(C(F)(F)[H])(C(C1([H])[H])([H])[H])[H])([H])[H])([H])[H]

>  <h>  (86) 
<NA>

>  <Training>  (86) 
True

>  <Success>  (86) 
True

>  <enamine_searched>  (86) 
False

>  <enamine_id>  (86) 
nan

$$$$

     RDKit          3D

 43 45  0  0  0  0  0  0  0  0999 V2000
   -9.8347    0.6074  -27.2160 C   0  0  0  0  0  0  0  0  0  0  0  0
   -8.8042    0.4572  -26.0908 C   0  0  0  0  0  0  0  0  0  0  0  0
   -7.4084    0.6988  -26.6804 C   0  0  0  0  0  0  0  0  0  0  0  0
   -6.6082    0.6042  -25.9419 H   0  0  0  0  0  0  0  0  0  0  0  0
   -7.3375    1.7034  -27.1111 H   0  0  0  0  0  0  0  0  0  0  0  0
   -7.1977   -0.0182  -27.4814 H   0  0  0  0  0  0  0  0  0  0  0  0
   -9.1182    1.4692  -24.9813 C   0  0  0  0  0  0  0  0  0  0  0  0
   -8.2847    1.2662  -23.7222 C   0  0  0  0  0  0  0  0  0  0  0  0
   -8.3470   -0.1115  -23.2422 N   0  0  0  0  0  0  0  0  0  0  0  0
   -8.3589   -0.3275  -21.8682 C   0  0  0  0  0  0  0  0  0  0  0  0
   -9.0496    0.3351  -21.1198 O   0  0  0  0  0  0  0  0  0  0  0  0
   -7.4329   -1.4132  -21.2771 C   0  0  0  0  0  0  0  0  0  0  0  0
   -6.5700   -0.8338  -20.1746 C   0  0  0  0  0  0  0  0  0  0  0  0
   -6.8771   -1.0397  -18.8549 C   0  0  0  0  0  0  0  0  0  0  0  0
   -6.1940   -0.5319  -17.7920 N   0  0  0  0  0  0  0  0  0  0  0  0
   -5.1565    0.2230  -18.0637 C   0  0  0  0  0  0  0  0  0  0  0  0
   -4.7203    0.5325  -19.3804 C   0  0  0  0  0  0  0  0  0  0  0  0
   -3.5975    1.3652  -19.6222 C   0  0  0  0  0  0  0  0  0  0  0  0
   -3.2083    1.6580  -20.9010 C   0  0  0  0  0  0  0  0  0  0  0  0
   -3.9285    1.1256  -21.9946 C   0  0  0  0  0  0  0  0  0  0  0  0
   -5.0186    0.3158  -21.7882 C   0  0  0  0  0  0  0  0  0  0  0  0
   -5.4461   -0.0043  -20.4714 C   0  0  0  0  0  0  0  0  0  0  0  0
   -5.5606   -0.0801  -22.6438 H   0  0  0  0  0  0  0  0  0  0  0  0
   -3.6152    1.3668  -23.0057 H   0  0  0  0  0  0  0  0  0  0  0  0
   -2.3542    2.3051  -21.0851 H   0  0  0  0  0  0  0  0  0  0  0  0
   -3.0632    1.7794  -18.7704 H   0  0  0  0  0  0  0  0  0  0  0  0
   -4.6015    0.6287  -17.2157 H   0  0  0  0  0  0  0  0  0  0  0  0
   -7.7296   -1.6604  -18.5833 H   0  0  0  0  0  0  0  0  0  0  0  0
   -6.8124   -1.8923  -22.0445 H   0  0  0  0  0  0  0  0  0  0  0  0
   -8.0809   -2.1864  -20.8462 H   0  0  0  0  0  0  0  0  0  0  0  0
   -8.0638   -1.1433  -24.2246 C   0  0  0  0  0  0  0  0  0  0  0  0
   -8.9072   -0.9491  -25.4893 C   0  0  0  0  0  0  0  0  0  0  0  0
   -9.9565   -1.1585  -25.2520 H   0  0  0  0  0  0  0  0  0  0  0  0
   -8.6126   -1.6892  -26.2400 H   0  0  0  0  0  0  0  0  0  0  0  0
   -6.9943   -1.1823  -24.4910 H   0  0  0  0  0  0  0  0  0  0  0  0
   -8.3138   -2.1072  -23.7812 H   0  0  0  0  0  0  0  0  0  0  0  0
   -8.6504    1.9021  -22.9166 H   0  0  0  0  0  0  0  0  0  0  0  0
   -7.2389    1.5660  -23.9110 H   0  0  0  0  0  0  0  0  0  0  0  0
  -10.1790    1.3946  -24.7167 H   0  0  0  0  0  0  0  0  0  0  0  0
   -8.9693    2.4857  -25.3637 H   0  0  0  0  0  0  0  0  0  0  0  0
   -9.7955    1.6104  -27.6568 H   0  0  0  0  0  0  0  0  0  0  0  0
  -10.8548    0.4454  -26.8498 H   0  0  0  0  0  0  0  0  0  0  0  0
   -9.6525   -0.1153  -28.0199 H   0  0  0  0  0  0  0  0  0  0  0  0
  1  2  1  0
  2  3  1  0
  3  4  1  0
  3  5  1  0
  3  6  1  0
  2  7  1  0
  7  8  1  0
  8  9  1  0
  9 10  1  0
 10 11  2  0
 10 12  1  0
 12 13  1  0
 13 14  2  0
 14 15  1  0
 15 16  2  0
 16 17  1  0
 17 18  2  0
 18 19  1  0
 19 20  2  0
 20 21  1  0
 21 22  2  0
 21 23  1  0
 20 24  1  0
 19 25  1  0
 18 26  1  0
 16 27  1  0
 14 28  1  0
 12 29  1  0
 12 30  1  0
  9 31  1  0
 31 32  1  0
 32 33  1  0
 32 34  1  0
 31 35  1  0
 31 36  1  0
  8 37  1  0
  8 38  1  0
  7 39  1  0
  7 40  1  0
  1 41  1  0
  1 42  1  0
  1 43  1  0
 32  2  1  0
 22 13  1  0
 22 17  1  0
M  END
>  <cnnaffinities>  (87) 
[4.77336, 4.86133, 4.86136, 4.86134, 4.86132, 4.59089, 4.59086, 4.59085]

>  <score>  (87) 
4.77336

>  <index>  (87) 
89

>  <Smiles>  (87) 
C(C1(C([H])([H])[H])C(C(N(C(=O)C(c2c(nc(c3c(c(c(c(c23)[H])[H])[H])[H])[H])[H])([H])[H])C(C1([H])[H])([H])[H])([H])[H])([H])[H])([H])([H])[H]

>  <h>  (87) 
<NA>

>  <Training>  (87) 
True

>  <Success>  (87) 
True

>  <enamine_searched>  (87) 
False

>  <enamine_id>  (87) 
nan

$$$$

     RDKit          3D

 64 68  0  0  0  0  0  0  0  0999 V2000
   -7.4915    3.3389  -21.8604 C   0  0  0  0  0  0  0  0  0  0  0  0
   -8.5171    2.8544  -22.7693 N   0  0  0  0  0  0  0  0  0  0  0  0
   -8.0722    2.1143  -23.8248 C   0  0  0  0  0  0  0  0  0  0  0  0
   -6.8827    1.9178  -24.0230 O   0  0  0  0  0  0  0  0  0  0  0  0
   -9.1077    1.5134  -24.7689 C   0  0  0  0  0  0  0  0  0  0  0  0
   -9.6773    0.3168  -24.1826 N   0  0  0  0  0  0  0  0  0  0  0  0
   -8.8689   -0.8927  -24.0831 C   0  0  0  0  0  0  0  0  0  0  0  0
   -9.1451   -1.6569  -22.7627 C   0  0  2  0  0  0  0  0  0  0  0  0
   -8.5974   -0.8563  -21.5590 C   0  0  0  0  0  0  0  0  0  0  0  0
   -9.1060    0.1051  -21.0227 O   0  0  0  0  0  0  0  0  0  0  0  0
   -7.3914   -1.4103  -21.1895 N   0  0  0  0  0  0  0  0  0  0  0  0
   -6.6036   -0.8269  -20.1711 C   0  0  0  0  0  0  0  0  0  0  0  0
   -6.9269   -1.0418  -18.8541 C   0  0  0  0  0  0  0  0  0  0  0  0
   -6.2328   -0.5435  -17.8033 N   0  0  0  0  0  0  0  0  0  0  0  0
   -5.1892    0.2037  -18.0743 C   0  0  0  0  0  0  0  0  0  0  0  0
   -4.7496    0.5175  -19.3939 C   0  0  0  0  0  0  0  0  0  0  0  0
   -3.6267    1.3530  -19.6331 C   0  0  0  0  0  0  0  0  0  0  0  0
   -3.2434    1.6522  -20.9110 C   0  0  0  0  0  0  0  0  0  0  0  0
   -3.9672    1.1389  -22.0100 C   0  0  0  0  0  0  0  0  0  0  0  0
   -5.0631    0.3338  -21.8068 C   0  0  0  0  0  0  0  0  0  0  0  0
   -5.4767   -0.0074  -20.4887 C   0  0  0  0  0  0  0  0  0  0  0  0
   -5.6333   -0.0131  -22.6637 H   0  0  0  0  0  0  0  0  0  0  0  0
   -3.6596    1.3894  -23.0205 H   0  0  0  0  0  0  0  0  0  0  0  0
   -2.3876    2.2962  -21.0882 H   0  0  0  0  0  0  0  0  0  0  0  0
   -3.0956    1.7583  -18.7748 H   0  0  0  0  0  0  0  0  0  0  0  0
   -4.6259    0.6052  -17.2302 H   0  0  0  0  0  0  0  0  0  0  0  0
   -7.7918   -1.6544  -18.6139 H   0  0  0  0  0  0  0  0  0  0  0  0
   -7.0006   -2.5740  -21.9547 C   0  0  0  0  0  0  0  0  0  0  0  0
   -8.3114   -2.9693  -22.6582 C   0  0  2  0  0  0  0  0  0  0  0  0
   -8.1123   -3.7506  -23.9580 C   0  0  0  0  0  0  0  0  0  0  0  0
   -7.4238   -5.3709  -23.6389 S   0  0  0  0  0  0  0  0  0  0  0  0
   -6.0461   -5.2194  -23.1990 O   0  0  0  0  0  0  0  0  0  0  0  0
   -8.3531   -6.1273  -22.8094 O   0  0  0  0  0  0  0  0  0  0  0  0
   -7.3313   -5.9948  -25.1911 N   0  0  0  0  0  0  0  0  0  0  0  0
   -8.5518   -6.4540  -25.8534 C   0  0  0  0  0  0  0  0  0  0  0  0
   -9.1430   -5.5993  -26.1980 H   0  0  0  0  0  0  0  0  0  0  0  0
   -8.2525   -7.0090  -26.7456 H   0  0  0  0  0  0  0  0  0  0  0  0
   -9.1687   -7.0999  -25.2195 H   0  0  0  0  0  0  0  0  0  0  0  0
   -6.5866   -6.6841  -25.1847 H   0  0  0  0  0  0  0  0  0  0  0  0
   -7.4231   -3.2535  -24.6466 H   0  0  0  0  0  0  0  0  0  0  0  0
   -9.0658   -3.8972  -24.4738 H   0  0  0  0  0  0  0  0  0  0  0  0
   -8.8418   -3.6442  -21.9841 H   0  0  0  0  0  0  0  0  0  0  0  0
   -6.6347   -3.3692  -21.3016 H   0  0  0  0  0  0  0  0  0  0  0  0
   -6.2026   -2.3436  -22.6768 H   0  0  0  0  0  0  0  0  0  0  0  0
  -10.6472   -1.8151  -22.6350 C   0  0  0  0  0  0  0  0  0  0  0  0
  -11.1982   -2.7984  -21.8127 C   0  0  0  0  0  0  0  0  0  0  0  0
  -12.5544   -2.8003  -21.5708 C   0  0  0  0  0  0  0  0  0  0  0  0
  -13.0279   -3.7073  -20.7025 F   0  0  0  0  0  0  0  0  0  0  0  0
  -13.4303   -1.8904  -22.1533 C   0  0  0  0  0  0  0  0  0  0  0  0
  -12.9002   -0.9453  -22.9998 C   0  0  0  0  0  0  0  0  0  0  0  0
  -11.5262   -0.8807  -23.2029 C   0  0  0  0  0  0  0  0  0  0  0  0
  -11.0231    0.2925  -23.9717 C   0  0  0  0  0  0  0  0  0  0  0  0
  -11.7697    1.1861  -24.3578 O   0  0  0  0  0  0  0  0  0  0  0  0
  -13.5166   -0.2090  -23.5026 H   0  0  0  0  0  0  0  0  0  0  0  0
  -14.4847   -1.8988  -21.9136 H   0  0  0  0  0  0  0  0  0  0  0  0
  -10.5972   -3.5553  -21.3231 H   0  0  0  0  0  0  0  0  0  0  0  0
   -7.8127   -0.6147  -24.1605 H   0  0  0  0  0  0  0  0  0  0  0  0
   -9.1031   -1.5593  -24.9241 H   0  0  0  0  0  0  0  0  0  0  0  0
   -9.9407    2.1933  -24.9687 H   0  0  0  0  0  0  0  0  0  0  0  0
   -8.6169    1.2695  -25.7197 H   0  0  0  0  0  0  0  0  0  0  0  0
   -9.4401    2.6710  -22.3948 H   0  0  0  0  0  0  0  0  0  0  0  0
   -6.7761    3.9335  -22.4320 H   0  0  0  0  0  0  0  0  0  0  0  0
   -6.9690    2.4764  -21.4167 H   0  0  0  0  0  0  0  0  0  0  0  0
   -7.9162    4.0075  -21.1100 H   0  0  0  0  0  0  0  0  0  0  0  0
  1  2  1  0
  2  3  1  0
  3  4  2  0
  3  5  1  0
  5  6  1  0
  6  7  1  0
  8  7  1  6
  8  9  1  0
  9 10  2  0
  9 11  1  0
 11 12  1  0
 12 13  2  0
 13 14  1  0
 14 15  2  0
 15 16  1  0
 16 17  2  0
 17 18  1  0
 18 19  2  0
 19 20  1  0
 20 21  2  0
 20 22  1  0
 19 23  1  0
 18 24  1  0
 17 25  1  0
 15 26  1  0
 13 27  1  0
 11 28  1  0
 28 29  1  0
 29 30  1  0
 30 31  1  0
 31 32  2  0
 31 33  2  0
 31 34  1  0
 34 35  1  0
 35 36  1  0
 35 37  1  0
 35 38  1  0
 34 39  1  0
 30 40  1  0
 30 41  1  0
 29 42  1  1
 28 43  1  0
 28 44  1  0
  8 45  1  0
 45 46  2  0
 46 47  1  0
 47 48  1  0
 47 49  2  0
 49 50  1  0
 50 51  2  0
 51 52  1  0
 52 53  2  0
 50 54  1  0
 49 55  1  0
 46 56  1  0
  7 57  1  0
  7 58  1  0
  5 59  1  0
  5 60  1  0
  2 61  1  0
  1 62  1  0
  1 63  1  0
  1 64  1  0
 52  6  1  0
 29  8  1  0
 51 45  1  0
 21 12  1  0
 21 16  1  0
M  END
>  <cnnaffinities>  (88) 
[6.27762, 6.00206]

>  <score>  (88) 
6.27762

>  <index>  (88) 
90

>  <Smiles>  (88) 
C(N(C(=O)C(N1C([C@@]2(C(=O)N(c3c(nc(c4c(c(c(c(c34)[H])[H])[H])[H])[H])[H])C([C@@]2(C(S(=O)(=O)N(C([H])([H])[H])[H])([H])[H])[H])([H])[H])c2c(c(F)c(c(c2C1=O)[H])[H])[H])([H])[H])([H])[H])[H])([H])([H])[H]

>  <h>  (88) 
<NA>

>  <Training>  (88) 
True

>  <Success>  (88) 
True

>  <enamine_searched>  (88) 
False

>  <enamine_id>  (88) 
nan

$$$$

     RDKit          3D

 66 71  0  0  0  0  0  0  0  0999 V2000
   -7.3530    3.3948  -21.9316 C   0  0  0  0  0  0  0  0  0  0  0  0
   -8.3004    2.8907  -22.9144 N   0  0  0  0  0  0  0  0  0  0  0  0
   -7.8043    2.1631  -23.9523 C   0  0  0  0  0  0  0  0  0  0  0  0
   -6.6085    1.9694  -24.0905 O   0  0  0  0  0  0  0  0  0  0  0  0
   -8.8161    1.5671  -24.9319 C   0  0  0  0  0  0  0  0  0  0  0  0
   -9.4507    0.4075  -24.3383 N   0  0  0  0  0  0  0  0  0  0  0  0
   -8.6608   -0.8118  -24.1875 C   0  0  0  0  0  0  0  0  0  0  0  0
   -9.0130   -1.5558  -22.8767 C   0  0  2  0  0  0  0  0  0  0  0  0
   -8.5091   -0.7708  -21.6473 C   0  0  0  0  0  0  0  0  0  0  0  0
   -9.0063    0.2097  -21.1299 O   0  0  0  0  0  0  0  0  0  0  0  0
   -7.3687   -1.3895  -21.1946 N   0  0  0  0  0  0  0  0  0  0  0  0
   -6.5958   -0.8123  -20.1651 C   0  0  0  0  0  0  0  0  0  0  0  0
   -6.9361   -1.0266  -18.8531 C   0  0  0  0  0  0  0  0  0  0  0  0
   -6.2438   -0.5339  -17.7990 N   0  0  0  0  0  0  0  0  0  0  0  0
   -5.1930    0.2051  -18.0697 C   0  0  0  0  0  0  0  0  0  0  0  0
   -4.7467    0.5206  -19.3851 C   0  0  0  0  0  0  0  0  0  0  0  0
   -3.6208    1.3485  -19.6270 C   0  0  0  0  0  0  0  0  0  0  0  0
   -3.2386    1.6486  -20.9063 C   0  0  0  0  0  0  0  0  0  0  0  0
   -3.9714    1.1493  -22.0073 C   0  0  0  0  0  0  0  0  0  0  0  0
   -5.0690    0.3490  -21.8028 C   0  0  0  0  0  0  0  0  0  0  0  0
   -5.4726    0.0070  -20.4807 C   0  0  0  0  0  0  0  0  0  0  0  0
   -5.6480    0.0078  -22.6567 H   0  0  0  0  0  0  0  0  0  0  0  0
   -3.6760    1.4115  -23.0187 H   0  0  0  0  0  0  0  0  0  0  0  0
   -2.3748    2.2846  -21.0824 H   0  0  0  0  0  0  0  0  0  0  0  0
   -3.0865    1.7468  -18.7708 H   0  0  0  0  0  0  0  0  0  0  0  0
   -4.6364    0.6007  -17.2230 H   0  0  0  0  0  0  0  0  0  0  0  0
   -7.8103   -1.6345  -18.6244 H   0  0  0  0  0  0  0  0  0  0  0  0
   -6.9719   -2.5621  -21.9460 C   0  0  0  0  0  0  0  0  0  0  0  0
   -8.2507   -2.9037  -22.7198 C   0  0  2  0  0  0  0  0  0  0  0  0
   -8.0384   -3.7188  -24.0021 C   0  0  0  0  0  0  0  0  0  0  0  0
   -7.6207   -5.0860  -23.7592 N   0  0  0  0  0  0  0  0  0  0  0  0
   -6.3207   -5.4360  -23.4880 C   0  0  0  0  0  0  0  0  0  0  0  0
   -5.2219   -4.6695  -23.9422 C   0  0  0  0  0  0  0  0  0  0  0  0
   -3.9785   -5.0460  -23.7186 N   0  0  0  0  0  0  0  0  0  0  0  0
   -3.7778   -6.1620  -23.0139 C   0  0  0  0  0  0  0  0  0  0  0  0
   -4.8522   -6.9057  -22.5607 C   0  0  0  0  0  0  0  0  0  0  0  0
   -6.1183   -6.5642  -22.8069 N   0  0  0  0  0  0  0  0  0  0  0  0
   -4.6931   -7.8095  -21.9783 H   0  0  0  0  0  0  0  0  0  0  0  0
   -2.7469   -6.4520  -22.8120 H   0  0  0  0  0  0  0  0  0  0  0  0
   -5.3535   -3.7417  -24.5001 H   0  0  0  0  0  0  0  0  0  0  0  0
   -8.2899   -5.7045  -23.3167 H   0  0  0  0  0  0  0  0  0  0  0  0
   -7.2830   -3.2295  -24.6275 H   0  0  0  0  0  0  0  0  0  0  0  0
   -8.9715   -3.7407  -24.5812 H   0  0  0  0  0  0  0  0  0  0  0  0
   -8.8415   -3.5272  -22.0434 H   0  0  0  0  0  0  0  0  0  0  0  0
   -6.6596   -3.3664  -21.2729 H   0  0  0  0  0  0  0  0  0  0  0  0
   -6.1254   -2.3425  -22.6143 H   0  0  0  0  0  0  0  0  0  0  0  0
  -10.5135   -1.6673  -22.7820 C   0  0  0  0  0  0  0  0  0  0  0  0
  -11.0799   -2.5764  -21.8843 C   0  0  0  0  0  0  0  0  0  0  0  0
  -12.4448   -2.6236  -21.7011 C   0  0  0  0  0  0  0  0  0  0  0  0
  -13.0418   -3.7166  -20.4845 Cl  0  0  0  0  0  0  0  0  0  0  0  0
  -13.3026   -1.7914  -22.4212 C   0  0  0  0  0  0  0  0  0  0  0  0
  -12.7455   -0.8647  -23.2845 C   0  0  0  0  0  0  0  0  0  0  0  0
  -11.3625   -0.7620  -23.4295 C   0  0  0  0  0  0  0  0  0  0  0  0
  -10.8162    0.3944  -24.2173 C   0  0  0  0  0  0  0  0  0  0  0  0
  -11.5394    1.2628  -24.6886 O   0  0  0  0  0  0  0  0  0  0  0  0
  -13.3671   -0.1702  -23.8386 H   0  0  0  0  0  0  0  0  0  0  0  0
  -14.3750   -1.8539  -22.2708 H   0  0  0  0  0  0  0  0  0  0  0  0
  -10.4746   -3.2435  -21.2823 H   0  0  0  0  0  0  0  0  0  0  0  0
   -8.8562   -1.4776  -25.0400 H   0  0  0  0  0  0  0  0  0  0  0  0
   -7.5987   -0.5434  -24.1994 H   0  0  0  0  0  0  0  0  0  0  0  0
   -8.2887    1.2916  -25.8519 H   0  0  0  0  0  0  0  0  0  0  0  0
   -9.6082    2.2726  -25.1911 H   0  0  0  0  0  0  0  0  0  0  0  0
   -9.2340    2.6769  -22.5855 H   0  0  0  0  0  0  0  0  0  0  0  0
   -6.8075    2.5593  -21.4704 H   0  0  0  0  0  0  0  0  0  0  0  0
   -6.6298    4.0466  -22.4292 H   0  0  0  0  0  0  0  0  0  0  0  0
   -7.8797    3.9849  -21.1780 H   0  0  0  0  0  0  0  0  0  0  0  0
  1  2  1  0
  2  3  1  0
  3  4  2  0
  3  5  1  0
  5  6  1  0
  6  7  1  0
  8  7  1  6
  8  9  1  0
  9 10  2  0
  9 11  1  0
 11 12  1  0
 12 13  2  0
 13 14  1  0
 14 15  2  0
 15 16  1  0
 16 17  2  0
 17 18  1  0
 18 19  2  0
 19 20  1  0
 20 21  2  0
 20 22  1  0
 19 23  1  0
 18 24  1  0
 17 25  1  0
 15 26  1  0
 13 27  1  0
 11 28  1  0
 28 29  1  0
 29 30  1  0
 30 31  1  0
 31 32  1  0
 32 33  2  0
 33 34  1  0
 34 35  2  0
 35 36  1  0
 36 37  2  0
 36 38  1  0
 35 39  1  0
 33 40  1  0
 31 41  1  0
 30 42  1  0
 30 43  1  0
 29 44  1  1
 28 45  1  0
 28 46  1  0
  8 47  1  0
 47 48  2  0
 48 49  1  0
 49 50  1  0
 49 51  2  0
 51 52  1  0
 52 53  2  0
 53 54  1  0
 54 55  2  0
 52 56  1  0
 51 57  1  0
 48 58  1  0
  7 59  1  0
  7 60  1  0
  5 61  1  0
  5 62  1  0
  2 63  1  0
  1 64  1  0
  1 65  1  0
  1 66  1  0
 54  6  1  0
 29  8  1  0
 37 32  1  0
 53 47  1  0
 21 12  1  0
 21 16  1  0
M  END
>  <cnnaffinities>  (89) 
[6.6033]

>  <score>  (89) 
6.6033

>  <index>  (89) 
91

>  <Smiles>  (89) 
C(N(C(=O)C(N1C([C@@]2(C(=O)N(c3c(nc(c4c(c(c(c(c34)[H])[H])[H])[H])[H])[H])C([C@@]2(C(N(c2c(nc(c(n2)[H])[H])[H])[H])([H])[H])[H])([H])[H])c2c(c(Cl)c(c(c2C1=O)[H])[H])[H])([H])[H])([H])[H])[H])([H])([H])[H]

>  <h>  (89) 
<NA>

>  <Training>  (89) 
True

>  <Success>  (89) 
True

>  <enamine_searched>  (89) 
False

>  <enamine_id>  (89) 
nan

$$$$

     RDKit          3D

 60 65  0  0  0  0  0  0  0  0999 V2000
   -6.7798   -3.4382  -26.0934 C   0  0  0  0  0  0  0  0  0  0  0  0
   -7.0064   -2.8925  -24.8190 O   0  0  0  0  0  0  0  0  0  0  0  0
   -7.9854   -3.5951  -24.0822 C   0  0  0  0  0  0  0  0  0  0  0  0
   -8.2882   -2.8780  -22.7701 C   0  0  1  0  0  0  0  0  0  0  0  0
   -7.0179   -2.5492  -21.9724 C   0  0  0  0  0  0  0  0  0  0  0  0
   -7.3767   -1.3514  -21.2387 N   0  0  0  0  0  0  0  0  0  0  0  0
   -6.5956   -0.8069  -20.1900 C   0  0  0  0  0  0  0  0  0  0  0  0
   -6.9312   -1.0296  -18.8790 C   0  0  0  0  0  0  0  0  0  0  0  0
   -6.2389   -0.5389  -17.8205 N   0  0  0  0  0  0  0  0  0  0  0  0
   -5.1936    0.2103  -18.0831 C   0  0  0  0  0  0  0  0  0  0  0  0
   -4.7428    0.5292  -19.3974 C   0  0  0  0  0  0  0  0  0  0  0  0
   -3.6241    1.3702  -19.6354 C   0  0  0  0  0  0  0  0  0  0  0  0
   -3.2332    1.6560  -20.9148 C   0  0  0  0  0  0  0  0  0  0  0  0
   -3.9233    1.1060  -22.0148 C   0  0  0  0  0  0  0  0  0  0  0  0
   -4.9966    0.2716  -21.8092 C   0  0  0  0  0  0  0  0  0  0  0  0
   -5.4475   -0.0163  -20.4927 C   0  0  0  0  0  0  0  0  0  0  0  0
   -5.5174   -0.1634  -22.6577 H   0  0  0  0  0  0  0  0  0  0  0  0
   -3.5957    1.3512  -23.0219 H   0  0  0  0  0  0  0  0  0  0  0  0
   -2.3781    2.3003  -21.0909 H   0  0  0  0  0  0  0  0  0  0  0  0
   -3.1015    1.7843  -18.7778 H   0  0  0  0  0  0  0  0  0  0  0  0
   -4.6406    0.6115  -17.2327 H   0  0  0  0  0  0  0  0  0  0  0  0
   -7.8003   -1.6393  -18.6424 H   0  0  0  0  0  0  0  0  0  0  0  0
   -8.5920   -0.8027  -21.5859 C   0  0  0  0  0  0  0  0  0  0  0  0
   -9.1340    0.1034  -20.9876 O   0  0  0  0  0  0  0  0  0  0  0  0
   -9.1254   -1.5605  -22.8276 C   0  0  1  0  0  0  0  0  0  0  0  0
   -8.8534   -0.7823  -24.1418 C   0  0  0  0  0  0  0  0  0  0  0  0
   -9.6992    0.3925  -24.2716 N   0  0  0  0  0  0  0  0  0  0  0  0
   -9.1180    1.6334  -24.7710 C   0  0  0  0  0  0  0  0  0  0  0  0
   -8.3314    2.3986  -23.7358 C   0  0  0  0  0  0  0  0  0  0  0  0
   -8.8693    3.3081  -22.7889 C   0  0  0  0  0  0  0  0  0  0  0  0
   -7.9384    3.7723  -21.9539 N   0  0  0  0  0  0  0  0  0  0  0  0
   -6.8112    3.1878  -22.3631 N   0  0  0  0  0  0  0  0  0  0  0  0
   -6.9876    2.3565  -23.4217 C   0  0  0  0  0  0  0  0  0  0  0  0
   -6.1371    1.8101  -23.8107 H   0  0  0  0  0  0  0  0  0  0  0  0
   -5.9251    3.3551  -21.9043 H   0  0  0  0  0  0  0  0  0  0  0  0
   -9.8975    3.6464  -22.6733 H   0  0  0  0  0  0  0  0  0  0  0  0
   -8.5017    1.3970  -25.6440 H   0  0  0  0  0  0  0  0  0  0  0  0
   -9.9597    2.2363  -25.1286 H   0  0  0  0  0  0  0  0  0  0  0  0
  -11.0533    0.3312  -24.0803 C   0  0  0  0  0  0  0  0  0  0  0  0
  -11.8173    1.1855  -24.5154 O   0  0  0  0  0  0  0  0  0  0  0  0
  -11.5333   -0.8223  -23.2585 C   0  0  0  0  0  0  0  0  0  0  0  0
  -12.9015   -0.8994  -22.9966 C   0  0  0  0  0  0  0  0  0  0  0  0
  -13.3909   -1.8406  -22.1130 C   0  0  0  0  0  0  0  0  0  0  0  0
  -12.4925   -2.7438  -21.5464 C   0  0  0  0  0  0  0  0  0  0  0  0
  -13.0440   -3.9601  -20.4346 Cl  0  0  0  0  0  0  0  0  0  0  0  0
  -11.1410   -2.6927  -21.8160 C   0  0  0  0  0  0  0  0  0  0  0  0
  -10.6278   -1.7254  -22.6832 C   0  0  0  0  0  0  0  0  0  0  0  0
  -10.5023   -3.4019  -21.3044 H   0  0  0  0  0  0  0  0  0  0  0  0
  -14.4335   -1.8645  -21.8192 H   0  0  0  0  0  0  0  0  0  0  0  0
  -13.5472   -0.1795  -23.4891 H   0  0  0  0  0  0  0  0  0  0  0  0
   -9.0267   -1.4763  -24.9749 H   0  0  0  0  0  0  0  0  0  0  0  0
   -7.8072   -0.4711  -24.1953 H   0  0  0  0  0  0  0  0  0  0  0  0
   -6.1609   -2.3796  -22.6347 H   0  0  0  0  0  0  0  0  0  0  0  0
   -6.7582   -3.3591  -21.2810 H   0  0  0  0  0  0  0  0  0  0  0  0
   -8.8729   -3.5870  -22.1798 H   0  0  0  0  0  0  0  0  0  0  0  0
   -7.6217   -4.6097  -23.8608 H   0  0  0  0  0  0  0  0  0  0  0  0
   -8.9116   -3.6978  -24.6717 H   0  0  0  0  0  0  0  0  0  0  0  0
   -6.0173   -2.8282  -26.5845 H   0  0  0  0  0  0  0  0  0  0  0  0
   -6.4150   -4.4738  -26.0283 H   0  0  0  0  0  0  0  0  0  0  0  0
   -7.6928   -3.4230  -26.7087 H   0  0  0  0  0  0  0  0  0  0  0  0
  1  2  1  0
  2  3  1  0
  3  4  1  0
  4  5  1  0
  5  6  1  0
  6  7  1  0
  7  8  2  0
  8  9  1  0
  9 10  2  0
 10 11  1  0
 11 12  2  0
 12 13  1  0
 13 14  2  0
 14 15  1  0
 15 16  2  0
 15 17  1  0
 14 18  1  0
 13 19  1  0
 12 20  1  0
 10 21  1  0
  8 22  1  0
  6 23  1  0
 23 24  2  0
 23 25  1  0
 25 26  1  6
 26 27  1  0
 27 28  1  0
 28 29  1  0
 29 30  1  0
 30 31  2  0
 31 32  1  0
 32 33  1  0
 33 34  1  0
 32 35  1  0
 30 36  1  0
 28 37  1  0
 28 38  1  0
 27 39  1  0
 39 40  2  0
 39 41  1  0
 41 42  2  0
 42 43  1  0
 43 44  2  0
 44 45  1  0
 44 46  1  0
 46 47  2  0
 46 48  1  0
 43 49  1  0
 42 50  1  0
 26 51  1  0
 26 52  1  0
  5 53  1  0
  5 54  1  0
  4 55  1  1
  3 56  1  0
  3 57  1  0
  1 58  1  0
  1 59  1  0
  1 60  1  0
 25  4  1  0
 33 29  2  0
 47 41  1  0
 16  7  1  0
 47 25  1  0
 16 11  1  0
M  END
>  <cnnaffinities>  (90) 
[6.24169, 6.27377]

>  <score>  (90) 
6.24169

>  <index>  (90) 
92

>  <Smiles>  (90) 
C(OC([C@]1(C(N(c2c(nc(c3c(c(c(c(c23)[H])[H])[H])[H])[H])[H])C(=O)[C@]21C(N(C(c1c(nn(c1[H])[H])[H])([H])[H])C(=O)c1c(c(c(Cl)c(c21)[H])[H])[H])([H])[H])([H])[H])[H])([H])[H])([H])([H])[H]

>  <h>  (90) 
<NA>

>  <Training>  (90) 
True

>  <Success>  (90) 
True

>  <enamine_searched>  (90) 
False

>  <enamine_id>  (90) 
nan

$$$$

     RDKit          3D

 62 67  0  0  0  0  0  0  0  0999 V2000
  -11.2581    4.3481  -25.2081 C   0  0  0  0  0  0  0  0  0  0  0  0
   -9.7771    4.1708  -25.5112 C   0  0  0  0  0  0  0  0  0  0  0  0
   -9.0028    3.5786  -24.4344 N   0  0  0  0  0  0  0  0  0  0  0  0
   -8.4495    4.4116  -23.5430 N   0  0  0  0  0  0  0  0  0  0  0  0
   -7.8804    3.6294  -22.6397 C   0  0  0  0  0  0  0  0  0  0  0  0
   -8.0728    2.2676  -22.9452 C   0  0  0  0  0  0  0  0  0  0  0  0
   -8.8051    2.2701  -24.1137 C   0  0  0  0  0  0  0  0  0  0  0  0
   -9.3017    1.1273  -24.9566 C   0  0  0  0  0  0  0  0  0  0  0  0
   -9.7556    0.0171  -24.1457 N   0  0  0  0  0  0  0  0  0  0  0  0
   -8.9559   -1.1829  -24.0058 C   0  0  0  0  0  0  0  0  0  0  0  0
   -9.1737   -1.8841  -22.6410 C   0  0  2  0  0  0  0  0  0  0  0  0
   -8.6374   -1.0280  -21.4720 C   0  0  0  0  0  0  0  0  0  0  0  0
   -9.2102   -0.1139  -20.9132 O   0  0  0  0  0  0  0  0  0  0  0  0
   -7.3630   -1.4511  -21.1809 N   0  0  0  0  0  0  0  0  0  0  0  0
   -6.5985   -0.8395  -20.1614 C   0  0  0  0  0  0  0  0  0  0  0  0
   -6.9238   -1.0468  -18.8447 C   0  0  0  0  0  0  0  0  0  0  0  0
   -6.2255   -0.5409  -17.7986 N   0  0  0  0  0  0  0  0  0  0  0  0
   -5.1832    0.2051  -18.0757 C   0  0  0  0  0  0  0  0  0  0  0  0
   -4.7472    0.5117  -19.3961 C   0  0  0  0  0  0  0  0  0  0  0  0
   -3.6256    1.3470  -19.6370 C   0  0  0  0  0  0  0  0  0  0  0  0
   -3.2443    1.6470  -20.9146 C   0  0  0  0  0  0  0  0  0  0  0  0
   -3.9683    1.1301  -22.0121 C   0  0  0  0  0  0  0  0  0  0  0  0
   -5.0607    0.3194  -21.8058 C   0  0  0  0  0  0  0  0  0  0  0  0
   -5.4720   -0.0196  -20.4866 C   0  0  0  0  0  0  0  0  0  0  0  0
   -5.6160   -0.0560  -22.6615 H   0  0  0  0  0  0  0  0  0  0  0  0
   -3.6642    1.3876  -23.0227 H   0  0  0  0  0  0  0  0  0  0  0  0
   -2.3908    2.2958  -21.0931 H   0  0  0  0  0  0  0  0  0  0  0  0
   -3.0976    1.7549  -18.7790 H   0  0  0  0  0  0  0  0  0  0  0  0
   -4.6201    0.6116  -17.2332 H   0  0  0  0  0  0  0  0  0  0  0  0
   -7.7852   -1.6596  -18.5866 H   0  0  0  0  0  0  0  0  0  0  0  0
   -6.9464   -2.6144  -21.9391 C   0  0  0  0  0  0  0  0  0  0  0  0
   -8.2762   -3.1484  -22.5067 C   0  0  2  0  0  0  0  0  0  0  0  0
   -8.0958   -3.9902  -23.7670 C   0  0  0  0  0  0  0  0  0  0  0  0
   -7.5639   -3.4207  -24.5398 H   0  0  0  0  0  0  0  0  0  0  0  0
   -7.5072   -4.8907  -23.5622 H   0  0  0  0  0  0  0  0  0  0  0  0
   -9.0588   -4.3027  -24.1870 H   0  0  0  0  0  0  0  0  0  0  0  0
   -8.7311   -3.7567  -21.7177 H   0  0  0  0  0  0  0  0  0  0  0  0
   -6.4377   -3.3297  -21.2861 H   0  0  0  0  0  0  0  0  0  0  0  0
   -6.2496   -2.3480  -22.7490 H   0  0  0  0  0  0  0  0  0  0  0  0
  -10.6626   -2.0668  -22.4762 C   0  0  0  0  0  0  0  0  0  0  0  0
  -11.2145   -3.1213  -21.7471 C   0  0  0  0  0  0  0  0  0  0  0  0
  -12.5311   -3.0388  -21.3414 C   0  0  0  0  0  0  0  0  0  0  0  0
  -13.0017   -3.9788  -20.5047 F   0  0  0  0  0  0  0  0  0  0  0  0
  -13.3825   -2.0097  -21.7371 C   0  0  0  0  0  0  0  0  0  0  0  0
  -12.8792   -1.0614  -22.5882 C   0  0  0  0  0  0  0  0  0  0  0  0
  -11.5329   -1.0651  -22.9274 C   0  0  0  0  0  0  0  0  0  0  0  0
  -11.0498    0.0792  -23.7405 C   0  0  0  0  0  0  0  0  0  0  0  0
  -11.7864    1.0098  -24.0419 O   0  0  0  0  0  0  0  0  0  0  0  0
  -13.5037   -0.2687  -22.9768 H   0  0  0  0  0  0  0  0  0  0  0  0
  -14.3985   -1.9338  -21.3616 H   0  0  0  0  0  0  0  0  0  0  0  0
  -10.6333   -3.9776  -21.4194 H   0  0  0  0  0  0  0  0  0  0  0  0
   -9.2029   -1.9069  -24.7966 H   0  0  0  0  0  0  0  0  0  0  0  0
   -7.9081   -0.9059  -24.1265 H   0  0  0  0  0  0  0  0  0  0  0  0
  -10.1680    1.4386  -25.5514 H   0  0  0  0  0  0  0  0  0  0  0  0
   -8.5312    0.7425  -25.6358 H   0  0  0  0  0  0  0  0  0  0  0  0
   -7.7865    1.3910  -22.3786 H   0  0  0  0  0  0  0  0  0  0  0  0
   -7.3669    4.1050  -21.8133 H   0  0  0  0  0  0  0  0  0  0  0  0
   -9.3101    5.1429  -25.6765 H   0  0  0  0  0  0  0  0  0  0  0  0
   -9.6403    3.5699  -26.4148 H   0  0  0  0  0  0  0  0  0  0  0  0
  -11.7626    3.3830  -25.0862 H   0  0  0  0  0  0  0  0  0  0  0  0
  -11.4152    4.9461  -24.3065 H   0  0  0  0  0  0  0  0  0  0  0  0
  -11.7035    4.8908  -26.0471 H   0  0  0  0  0  0  0  0  0  0  0  0
  1  2  1  0
  2  3  1  0
  3  4  1  0
  4  5  2  0
  5  6  1  0
  6  7  2  0
  7  8  1  0
  8  9  1  0
  9 10  1  0
 11 10  1  6
 11 12  1  0
 12 13  2  0
 12 14  1  0
 14 15  1  0
 15 16  2  0
 16 17  1  0
 17 18  2  0
 18 19  1  0
 19 20  2  0
 20 21  1  0
 21 22  2  0
 22 23  1  0
 23 24  2  0
 23 25  1  0
 22 26  1  0
 21 27  1  0
 20 28  1  0
 18 29  1  0
 16 30  1  0
 14 31  1  0
 31 32  1  0
 32 33  1  0
 33 34  1  0
 33 35  1  0
 33 36  1  0
 32 37  1  1
 31 38  1  0
 31 39  1  0
 11 40  1  0
 40 41  2  0
 41 42  1  0
 42 43  1  0
 42 44  2  0
 44 45  1  0
 45 46  2  0
 46 47  1  0
 47 48  2  0
 45 49  1  0
 44 50  1  0
 41 51  1  0
 10 52  1  0
 10 53  1  0
  8 54  1  0
  8 55  1  0
  6 56  1  0
  5 57  1  0
  2 58  1  0
  2 59  1  0
  1 60  1  0
  1 61  1  0
  1 62  1  0
  7  3  1  0
 47  9  1  0
 32 11  1  0
 46 40  1  0
 24 15  1  0
 24 19  1  0
M  END
>  <cnnaffinities>  (91) 
[6.59468, 6.32668, 6.18113]

>  <score>  (91) 
6.59468

>  <index>  (91) 
93

>  <Smiles>  (91) 
C(C(n1nc(c(c1C(N1C([C@@]2(C(=O)N(c3c(nc(c4c(c(c(c(c34)[H])[H])[H])[H])[H])[H])C([C@@]2(C([H])([H])[H])[H])([H])[H])c2c(c(F)c(c(c2C1=O)[H])[H])[H])([H])[H])([H])[H])[H])[H])([H])[H])([H])([H])[H]

>  <h>  (91) 
<NA>

>  <Training>  (91) 
True

>  <Success>  (91) 
True

>  <enamine_searched>  (91) 
False

>  <enamine_id>  (91) 
nan

$$$$

     RDKit          3D

 66 71  0  0  0  0  0  0  0  0999 V2000
   -7.3708    3.3864  -21.9096 C   0  0  0  0  0  0  0  0  0  0  0  0
   -8.3153    2.8965  -22.8992 N   0  0  0  0  0  0  0  0  0  0  0  0
   -7.8067    2.1689  -23.9343 C   0  0  0  0  0  0  0  0  0  0  0  0
   -6.6042    1.9835  -24.0675 O   0  0  0  0  0  0  0  0  0  0  0  0
   -8.8125    1.5765  -24.9199 C   0  0  0  0  0  0  0  0  0  0  0  0
   -9.4555    0.4146  -24.3355 N   0  0  0  0  0  0  0  0  0  0  0  0
   -8.6768   -0.8066  -24.1810 C   0  0  0  0  0  0  0  0  0  0  0  0
   -9.0359   -1.5401  -22.8664 C   0  0  2  0  0  0  0  0  0  0  0  0
   -8.5251   -0.7563  -21.6401 C   0  0  0  0  0  0  0  0  0  0  0  0
   -9.0188    0.2301  -21.1233 O   0  0  0  0  0  0  0  0  0  0  0  0
   -7.3815   -1.3754  -21.1958 N   0  0  0  0  0  0  0  0  0  0  0  0
   -6.6022   -0.8060  -20.1681 C   0  0  0  0  0  0  0  0  0  0  0  0
   -6.9347   -1.0275  -18.8562 C   0  0  0  0  0  0  0  0  0  0  0  0
   -6.2406   -0.5376  -17.8019 N   0  0  0  0  0  0  0  0  0  0  0  0
   -5.1918    0.2052  -18.0711 C   0  0  0  0  0  0  0  0  0  0  0  0
   -4.7474    0.5213  -19.3878 C   0  0  0  0  0  0  0  0  0  0  0  0
   -3.6206    1.3493  -19.6296 C   0  0  0  0  0  0  0  0  0  0  0  0
   -3.2388    1.6494  -20.9084 C   0  0  0  0  0  0  0  0  0  0  0  0
   -3.9680    1.1472  -22.0098 C   0  0  0  0  0  0  0  0  0  0  0  0
   -5.0647    0.3447  -21.8043 C   0  0  0  0  0  0  0  0  0  0  0  0
   -5.4741    0.0064  -20.4838 C   0  0  0  0  0  0  0  0  0  0  0  0
   -5.6384   -0.0013  -22.6588 H   0  0  0  0  0  0  0  0  0  0  0  0
   -3.6707    1.4054  -23.0204 H   0  0  0  0  0  0  0  0  0  0  0  0
   -2.3767    2.2845  -21.0840 H   0  0  0  0  0  0  0  0  0  0  0  0
   -3.0872    1.7500  -18.7730 H   0  0  0  0  0  0  0  0  0  0  0  0
   -4.6317    0.6008  -17.2246 H   0  0  0  0  0  0  0  0  0  0  0  0
   -7.8044   -1.6373  -18.6249 H   0  0  0  0  0  0  0  0  0  0  0  0
   -6.9984   -2.5556  -21.9428 C   0  0  0  0  0  0  0  0  0  0  0  0
   -8.2866   -2.8891  -22.7004 C   0  0  2  0  0  0  0  0  0  0  0  0
   -8.1049   -3.7301  -23.9648 C   0  0  0  0  0  0  0  0  0  0  0  0
   -7.6643   -5.0751  -23.6839 N   0  0  0  0  0  0  0  0  0  0  0  0
   -6.3616   -5.4121  -23.4995 C   0  0  0  0  0  0  0  0  0  0  0  0
   -5.2885   -4.7168  -24.0954 C   0  0  0  0  0  0  0  0  0  0  0  0
   -4.0417   -5.2977  -23.9844 C   0  0  0  0  0  0  0  0  0  0  0  0
   -3.8069   -6.3851  -23.2448 N   0  0  0  0  0  0  0  0  0  0  0  0
   -4.8752   -6.8767  -22.6291 C   0  0  0  0  0  0  0  0  0  0  0  0
   -6.1423   -6.4882  -22.7317 N   0  0  0  0  0  0  0  0  0  0  0  0
   -4.6901   -7.6995  -21.9475 H   0  0  0  0  0  0  0  0  0  0  0  0
   -3.1830   -4.8656  -24.5130 H   0  0  0  0  0  0  0  0  0  0  0  0
   -5.4275   -3.7702  -24.6095 H   0  0  0  0  0  0  0  0  0  0  0  0
   -8.3179   -5.7315  -23.2714 H   0  0  0  0  0  0  0  0  0  0  0  0
   -7.3786   -3.2500  -24.6264 H   0  0  0  0  0  0  0  0  0  0  0  0
   -9.0468   -3.7750  -24.5201 H   0  0  0  0  0  0  0  0  0  0  0  0
   -8.8777   -3.4919  -22.0086 H   0  0  0  0  0  0  0  0  0  0  0  0
   -6.1511   -2.3661  -22.6213 H   0  0  0  0  0  0  0  0  0  0  0  0
   -6.7007   -3.3518  -21.2557 H   0  0  0  0  0  0  0  0  0  0  0  0
  -10.5345   -1.6473  -22.7756 C   0  0  0  0  0  0  0  0  0  0  0  0
  -11.0953   -2.5630  -21.8859 C   0  0  0  0  0  0  0  0  0  0  0  0
  -12.4588   -2.6099  -21.7130 C   0  0  0  0  0  0  0  0  0  0  0  0
  -13.0622   -3.6956  -20.4972 Cl  0  0  0  0  0  0  0  0  0  0  0  0
  -13.3154   -1.7797  -22.4343 C   0  0  0  0  0  0  0  0  0  0  0  0
  -12.7649   -0.8467  -23.2917 C   0  0  0  0  0  0  0  0  0  0  0  0
  -11.3804   -0.7450  -23.4294 C   0  0  0  0  0  0  0  0  0  0  0  0
  -10.8209    0.4033  -24.2157 C   0  0  0  0  0  0  0  0  0  0  0  0
  -11.5296    1.2835  -24.6854 O   0  0  0  0  0  0  0  0  0  0  0  0
  -13.3873   -0.1547  -23.8465 H   0  0  0  0  0  0  0  0  0  0  0  0
  -14.3854   -1.8505  -22.2840 H   0  0  0  0  0  0  0  0  0  0  0  0
  -10.4911   -3.2375  -21.2906 H   0  0  0  0  0  0  0  0  0  0  0  0
   -7.6127   -0.5475  -24.2032 H   0  0  0  0  0  0  0  0  0  0  0  0
   -8.8727   -1.4759  -25.0309 H   0  0  0  0  0  0  0  0  0  0  0  0
   -9.6013    2.2844  -25.1944 H   0  0  0  0  0  0  0  0  0  0  0  0
   -8.2714    1.2915  -25.8302 H   0  0  0  0  0  0  0  0  0  0  0  0
   -9.2549    2.6910  -22.5808 H   0  0  0  0  0  0  0  0  0  0  0  0
   -6.8177    2.5462  -21.4608 H   0  0  0  0  0  0  0  0  0  0  0  0
   -7.9019    3.9619  -21.1485 H   0  0  0  0  0  0  0  0  0  0  0  0
   -6.6567    4.0621  -22.3875 H   0  0  0  0  0  0  0  0  0  0  0  0
  1  2  1  0
  2  3  1  0
  3  4  2  0
  3  5  1  0
  5  6  1  0
  6  7  1  0
  8  7  1  6
  8  9  1  0
  9 10  2  0
  9 11  1  0
 11 12  1  0
 12 13  2  0
 13 14  1  0
 14 15  2  0
 15 16  1  0
 16 17  2  0
 17 18  1  0
 18 19  2  0
 19 20  1  0
 20 21  2  0
 20 22  1  0
 19 23  1  0
 18 24  1  0
 17 25  1  0
 15 26  1  0
 13 27  1  0
 11 28  1  0
 28 29  1  0
 29 30  1  0
 30 31  1  0
 31 32  1  0
 32 33  2  0
 33 34  1  0
 34 35  2  0
 35 36  1  0
 36 37  2  0
 36 38  1  0
 34 39  1  0
 33 40  1  0
 31 41  1  0
 30 42  1  0
 30 43  1  0
 29 44  1  1
 28 45  1  0
 28 46  1  0
  8 47  1  0
 47 48  2  0
 48 49  1  0
 49 50  1  0
 49 51  2  0
 51 52  1  0
 52 53  2  0
 53 54  1  0
 54 55  2  0
 52 56  1  0
 51 57  1  0
 48 58  1  0
  7 59  1  0
  7 60  1  0
  5 61  1  0
  5 62  1  0
  2 63  1  0
  1 64  1  0
  1 65  1  0
  1 66  1  0
 54  6  1  0
 29  8  1  0
 37 32  1  0
 53 47  1  0
 21 12  1  0
 21 16  1  0
M  END
>  <cnnaffinities>  (92) 
[6.54657, 6.65362, 6.0796]

>  <score>  (92) 
6.54657

>  <index>  (92) 
95

>  <Smiles>  (92) 
C(N(C(=O)C(N1C([C@@]2(C(=O)N(c3c(nc(c4c(c(c(c(c34)[H])[H])[H])[H])[H])[H])C([C@@]2(C(N(c2c(c(nc(n2)[H])[H])[H])[H])([H])[H])[H])([H])[H])c2c(c(Cl)c(c(c2C1=O)[H])[H])[H])([H])[H])([H])[H])[H])([H])([H])[H]

>  <h>  (92) 
<NA>

>  <Training>  (92) 
True

>  <Success>  (92) 
True

>  <enamine_searched>  (92) 
False

>  <enamine_id>  (92) 
nan

$$$$

     RDKit          3D

 66 70  0  0  0  0  0  0  0  0999 V2000
   -7.4570    3.3140  -21.9076 C   0  0  0  0  0  0  0  0  0  0  0  0
   -8.4733    2.8185  -22.8257 N   0  0  0  0  0  0  0  0  0  0  0  0
   -8.0151    2.0930  -23.8880 C   0  0  0  0  0  0  0  0  0  0  0  0
   -6.8241    1.8959  -24.0745 O   0  0  0  0  0  0  0  0  0  0  0  0
   -9.0430    1.5018  -24.8408 C   0  0  0  0  0  0  0  0  0  0  0  0
   -9.5925    0.2896  -24.2665 N   0  0  0  0  0  0  0  0  0  0  0  0
   -8.7600   -0.8997  -24.1310 C   0  0  0  0  0  0  0  0  0  0  0  0
   -9.0629   -1.6769  -22.8177 C   0  0  2  0  0  0  0  0  0  0  0  0
   -8.5553   -0.8843  -21.5926 C   0  0  0  0  0  0  0  0  0  0  0  0
   -9.0865    0.0723  -21.0604 O   0  0  0  0  0  0  0  0  0  0  0  0
   -7.3603   -1.4358  -21.1877 N   0  0  0  0  0  0  0  0  0  0  0  0
   -6.5913   -0.8337  -20.1643 C   0  0  0  0  0  0  0  0  0  0  0  0
   -6.9276   -1.0363  -18.8501 C   0  0  0  0  0  0  0  0  0  0  0  0
   -6.2377   -0.5348  -17.7972 N   0  0  0  0  0  0  0  0  0  0  0  0
   -5.1902    0.2074  -18.0715 C   0  0  0  0  0  0  0  0  0  0  0  0
   -4.7458    0.5174  -19.3892 C   0  0  0  0  0  0  0  0  0  0  0  0
   -3.6227    1.3519  -19.6298 C   0  0  0  0  0  0  0  0  0  0  0  0
   -3.2407    1.6486  -20.9090 C   0  0  0  0  0  0  0  0  0  0  0  0
   -3.9667    1.1384  -22.0069 C   0  0  0  0  0  0  0  0  0  0  0  0
   -5.0613    0.3319  -21.8038 C   0  0  0  0  0  0  0  0  0  0  0  0
   -5.4692   -0.0099  -20.4838 C   0  0  0  0  0  0  0  0  0  0  0  0
   -5.6368   -0.0095  -22.6591 H   0  0  0  0  0  0  0  0  0  0  0  0
   -3.6605    1.3914  -23.0171 H   0  0  0  0  0  0  0  0  0  0  0  0
   -2.3841    2.2918  -21.0851 H   0  0  0  0  0  0  0  0  0  0  0  0
   -3.0940    1.7578  -18.7717 H   0  0  0  0  0  0  0  0  0  0  0  0
   -4.6348    0.6128  -17.2260 H   0  0  0  0  0  0  0  0  0  0  0  0
   -7.7952   -1.6479  -18.6153 H   0  0  0  0  0  0  0  0  0  0  0  0
   -6.9353   -2.5933  -21.9524 C   0  0  0  0  0  0  0  0  0  0  0  0
   -8.2147   -2.9827  -22.7161 C   0  0  2  0  0  0  0  0  0  0  0  0
   -7.9300   -3.6805  -24.0410 C   0  0  0  0  0  0  0  0  0  0  0  0
   -7.2184   -4.8755  -23.8040 O   0  0  0  0  0  0  0  0  0  0  0  0
   -7.0451   -5.6944  -24.9557 C   0  0  0  0  0  0  0  0  0  0  0  0
   -5.6711   -6.3475  -24.8671 C   0  0  0  0  0  0  0  0  0  0  0  0
   -5.4906   -6.9638  -25.7586 H   0  0  0  0  0  0  0  0  0  0  0  0
   -4.8851   -5.5872  -24.8006 H   0  0  0  0  0  0  0  0  0  0  0  0
   -5.6202   -6.9874  -23.9777 H   0  0  0  0  0  0  0  0  0  0  0  0
   -8.1511   -6.7447  -25.0378 C   0  0  0  0  0  0  0  0  0  0  0  0
   -8.1243   -7.3873  -24.1497 H   0  0  0  0  0  0  0  0  0  0  0  0
   -9.1455   -6.2854  -25.1008 H   0  0  0  0  0  0  0  0  0  0  0  0
   -8.0060   -7.3703  -25.9279 H   0  0  0  0  0  0  0  0  0  0  0  0
   -7.0813   -5.0667  -25.8623 H   0  0  0  0  0  0  0  0  0  0  0  0
   -8.8806   -3.8850  -24.5585 H   0  0  0  0  0  0  0  0  0  0  0  0
   -7.3254   -3.0288  -24.6942 H   0  0  0  0  0  0  0  0  0  0  0  0
   -8.7557   -3.6994  -22.0923 H   0  0  0  0  0  0  0  0  0  0  0  0
   -6.1057   -2.3479  -22.6344 H   0  0  0  0  0  0  0  0  0  0  0  0
   -6.5920   -3.3923  -21.2874 H   0  0  0  0  0  0  0  0  0  0  0  0
  -10.5633   -1.8569  -22.7256 C   0  0  0  0  0  0  0  0  0  0  0  0
  -11.1122   -2.8090  -21.8625 C   0  0  0  0  0  0  0  0  0  0  0  0
  -12.4758   -2.8345  -21.6392 C   0  0  0  0  0  0  0  0  0  0  0  0
  -13.0854   -3.9263  -20.4333 Cl  0  0  0  0  0  0  0  0  0  0  0  0
  -13.3462   -1.9795  -22.3191 C   0  0  0  0  0  0  0  0  0  0  0  0
  -12.8166   -1.0713  -23.2049 C   0  0  0  0  0  0  0  0  0  0  0  0
  -11.4393   -0.9681  -23.3621 C   0  0  0  0  0  0  0  0  0  0  0  0
  -10.9470    0.2113  -24.1318 C   0  0  0  0  0  0  0  0  0  0  0  0
  -11.7110    1.0641  -24.5678 O   0  0  0  0  0  0  0  0  0  0  0  0
  -13.4466   -0.3826  -23.7579 H   0  0  0  0  0  0  0  0  0  0  0  0
  -14.4137   -1.9751  -22.1362 H   0  0  0  0  0  0  0  0  0  0  0  0
  -10.4928   -3.5199  -21.3274 H   0  0  0  0  0  0  0  0  0  0  0  0
   -8.9435   -1.5756  -24.9804 H   0  0  0  0  0  0  0  0  0  0  0  0
   -7.7071   -0.5986  -24.1617 H   0  0  0  0  0  0  0  0  0  0  0  0
   -8.5671    1.2781  -25.8018 H   0  0  0  0  0  0  0  0  0  0  0  0
   -9.8885    2.1657  -25.0316 H   0  0  0  0  0  0  0  0  0  0  0  0
   -9.3977    2.6275  -22.4485 H   0  0  0  0  0  0  0  0  0  0  0  0
   -6.7197    3.8870  -22.4803 H   0  0  0  0  0  0  0  0  0  0  0  0
   -7.9004    3.9963  -21.1733 H   0  0  0  0  0  0  0  0  0  0  0  0
   -6.9453    2.4595  -21.4293 H   0  0  0  0  0  0  0  0  0  0  0  0
  1  2  1  0
  2  3  1  0
  3  4  2  0
  3  5  1  0
  5  6  1  0
  6  7  1  0
  8  7  1  6
  8  9  1  0
  9 10  2  0
  9 11  1  0
 11 12  1  0
 12 13  2  0
 13 14  1  0
 14 15  2  0
 15 16  1  0
 16 17  2  0
 17 18  1  0
 18 19  2  0
 19 20  1  0
 20 21  2  0
 20 22  1  0
 19 23  1  0
 18 24  1  0
 17 25  1  0
 15 26  1  0
 13 27  1  0
 11 28  1  0
 28 29  1  0
 29 30  1  0
 30 31  1  0
 31 32  1  0
 32 33  1  0
 33 34  1  0
 33 35  1  0
 33 36  1  0
 32 37  1  0
 37 38  1  0
 37 39  1  0
 37 40  1  0
 32 41  1  0
 30 42  1  0
 30 43  1  0
 29 44  1  1
 28 45  1  0
 28 46  1  0
  8 47  1  0
 47 48  2  0
 48 49  1  0
 49 50  1  0
 49 51  2  0
 51 52  1  0
 52 53  2  0
 53 54  1  0
 54 55  2  0
 52 56  1  0
 51 57  1  0
 48 58  1  0
  7 59  1  0
  7 60  1  0
  5 61  1  0
  5 62  1  0
  2 63  1  0
  1 64  1  0
  1 65  1  0
  1 66  1  0
 54  6  1  0
 29  8  1  0
 53 47  1  0
 21 12  1  0
 21 16  1  0
M  END
>  <cnnaffinities>  (93) 
[6.48068]

>  <score>  (93) 
6.48068

>  <index>  (93) 
96

>  <Smiles>  (93) 
C(N(C(=O)C(N1C([C@@]2(C(=O)N(c3c(nc(c4c(c(c(c(c34)[H])[H])[H])[H])[H])[H])C([C@@]2(C(OC(C([H])([H])[H])(C([H])([H])[H])[H])([H])[H])[H])([H])[H])c2c(c(Cl)c(c(c2C1=O)[H])[H])[H])([H])[H])([H])[H])[H])([H])([H])[H]

>  <h>  (93) 
<NA>

>  <Training>  (93) 
True

>  <Success>  (93) 
True

>  <enamine_searched>  (93) 
False

>  <enamine_id>  (93) 
nan

$$$$

     RDKit          3D

 40 43  0  0  0  0  0  0  0  0999 V2000
  -12.6272   -3.7715  -20.9918 C   0  0  0  0  0  0  0  0  0  0  0  0
  -11.5290   -2.8896  -21.5898 C   0  0  2  0  0  0  0  0  0  0  0  0
  -12.0501   -2.3484  -22.9090 C   0  0  0  0  0  0  0  0  0  0  0  0
  -11.1657   -1.3988  -23.4480 O   0  0  0  0  0  0  0  0  0  0  0  0
   -9.8784   -1.9239  -23.6683 C   0  0  0  0  0  0  0  0  0  0  0  0
   -9.1767   -2.4428  -22.3964 C   0  0  1  0  0  0  0  0  0  0  0  0
  -10.1207   -3.4687  -21.7234 C   0  0  0  0  0  0  0  0  0  0  0  0
  -10.1120   -4.3818  -22.3315 H   0  0  0  0  0  0  0  0  0  0  0  0
   -9.7154   -3.7579  -20.7454 H   0  0  0  0  0  0  0  0  0  0  0  0
   -7.8974   -3.0308  -22.7522 N   0  0  0  0  0  0  0  0  0  0  0  0
   -6.8359   -2.5720  -22.0257 C   0  0  0  0  0  0  0  0  0  0  0  0
   -5.6786   -2.9208  -22.0779 O   0  0  0  0  0  0  0  0  0  0  0  0
   -7.3503   -1.5574  -21.2020 N   0  0  0  0  0  0  0  0  0  0  0  0
   -6.5922   -0.8939  -20.1998 C   0  0  0  0  0  0  0  0  0  0  0  0
   -6.9421   -1.0693  -18.8837 C   0  0  0  0  0  0  0  0  0  0  0  0
   -6.2674   -0.5470  -17.8305 N   0  0  0  0  0  0  0  0  0  0  0  0
   -5.2202    0.1896  -18.1116 C   0  0  0  0  0  0  0  0  0  0  0  0
   -4.7692    0.4771  -19.4291 C   0  0  0  0  0  0  0  0  0  0  0  0
   -3.6510    1.3180  -19.6413 C   0  0  0  0  0  0  0  0  0  0  0  0
   -3.2554    1.6332  -20.9106 C   0  0  0  0  0  0  0  0  0  0  0  0
   -3.9693    1.1285  -22.0184 C   0  0  0  0  0  0  0  0  0  0  0  0
   -5.0554    0.3079  -21.8420 C   0  0  0  0  0  0  0  0  0  0  0  0
   -5.4749   -0.0586  -20.5275 C   0  0  0  0  0  0  0  0  0  0  0  0
   -5.6002   -0.0485  -22.7119 H   0  0  0  0  0  0  0  0  0  0  0  0
   -3.6560    1.4093  -23.0195 H   0  0  0  0  0  0  0  0  0  0  0  0
   -2.4034    2.2851  -21.0669 H   0  0  0  0  0  0  0  0  0  0  0  0
   -3.1481    1.7172  -18.7670 H   0  0  0  0  0  0  0  0  0  0  0  0
   -4.6702    0.6129  -17.2730 H   0  0  0  0  0  0  0  0  0  0  0  0
   -7.8063   -1.6807  -18.6331 H   0  0  0  0  0  0  0  0  0  0  0  0
   -8.7015   -1.3130  -21.4586 C   0  0  0  0  0  0  0  0  0  0  0  0
   -9.3112   -0.3572  -21.0470 O   0  0  0  0  0  0  0  0  0  0  0  0
   -7.8209   -3.9083  -23.2398 H   0  0  0  0  0  0  0  0  0  0  0  0
   -9.2817   -1.1272  -24.1223 H   0  0  0  0  0  0  0  0  0  0  0  0
   -9.9267   -2.7848  -24.3566 H   0  0  0  0  0  0  0  0  0  0  0  0
  -13.0149   -1.8430  -22.7601 H   0  0  0  0  0  0  0  0  0  0  0  0
  -12.2107   -3.1867  -23.6104 H   0  0  0  0  0  0  0  0  0  0  0  0
  -11.3649   -2.0277  -20.9546 H   0  0  0  0  0  0  0  0  0  0  0  0
  -12.3062   -4.4468  -20.1939 H   0  0  0  0  0  0  0  0  0  0  0  0
  -13.1146   -4.3954  -21.7500 H   0  0  0  0  0  0  0  0  0  0  0  0
  -13.3700   -3.1013  -20.5443 H   0  0  0  0  0  0  0  0  0  0  0  0
  1  2  1  0
  2  3  1  0
  3  4  1  0
  4  5  1  0
  5  6  1  0
  6  7  1  0
  7  8  1  0
  7  9  1  0
  6 10  1  6
 10 11  1  0
 11 12  2  0
 11 13  1  0
 13 14  1  0
 14 15  2  0
 15 16  1  0
 16 17  2  0
 17 18  1  0
 18 19  2  0
 19 20  1  0
 20 21  2  0
 21 22  1  0
 22 23  2  0
 22 24  1  0
 21 25  1  0
 20 26  1  0
 19 27  1  0
 17 28  1  0
 15 29  1  0
 13 30  1  0
 30 31  2  0
 10 32  1  0
  5 33  1  0
  5 34  1  0
  3 35  1  0
  3 36  1  0
  2 37  1  1
  1 38  1  0
  1 39  1  0
  1 40  1  0
  7  2  1  0
 23 14  1  0
 30  6  1  0
 23 18  1  0
M  END
>  <cnnaffinities>  (94) 
[5.4271, 5.13432]

>  <score>  (94) 
5.4271

>  <index>  (94) 
97

>  <Smiles>  (94) 
C([C@@]1(C(OC([C@@]2(C1([H])[H])N(C(=O)N(c1c(nc(c3c(c(c(c(c13)[H])[H])[H])[H])[H])[H])C2=O)[H])([H])[H])([H])[H])[H])([H])([H])[H]

>  <h>  (94) 
<NA>

>  <Training>  (94) 
True

>  <Success>  (94) 
True

>  <enamine_searched>  (94) 
False

>  <enamine_id>  (94) 
nan

$$$$
