
     RDKit          3D

 66 71  0  0  0  0  0  0  0  0999 V2000
   -7.5993    3.2357  -21.8595 C   0  0  0  0  0  0  0  0  0  0  0  0
   -8.7104    2.7686  -22.6721 N   0  0  0  0  0  0  0  0  0  0  0  0
   -8.3641    1.9733  -23.7223 C   0  0  0  0  0  0  0  0  0  0  0  0
   -7.1950    1.7148  -23.9787 O   0  0  0  0  0  0  0  0  0  0  0  0
   -9.4891    1.3788  -24.5615 C   0  0  0  0  0  0  0  0  0  0  0  0
   -9.9689    0.1767  -23.9187 N   0  0  0  0  0  0  0  0  0  0  0  0
   -9.1505   -1.0254  -23.9485 C   0  0  0  0  0  0  0  0  0  0  0  0
   -9.2638   -1.8177  -22.6160 C   0  0  2  0  0  0  0  0  0  0  0  0
   -8.6636   -0.9478  -21.4847 C   0  0  0  0  0  0  0  0  0  0  0  0
   -9.1798    0.0203  -20.9586 O   0  0  0  0  0  0  0  0  0  0  0  0
   -7.4057   -1.4233  -21.1904 N   0  0  0  0  0  0  0  0  0  0  0  0
   -6.6114   -0.8302  -20.1783 C   0  0  0  0  0  0  0  0  0  0  0  0
   -6.9208   -1.0485  -18.8580 C   0  0  0  0  0  0  0  0  0  0  0  0
   -6.2116   -0.5559  -17.8168 N   0  0  0  0  0  0  0  0  0  0  0  0
   -5.1738    0.1951  -18.0902 C   0  0  0  0  0  0  0  0  0  0  0  0
   -4.7455    0.5100  -19.4098 C   0  0  0  0  0  0  0  0  0  0  0  0
   -3.6250    1.3480  -19.6484 C   0  0  0  0  0  0  0  0  0  0  0  0
   -3.2551    1.6621  -20.9268 C   0  0  0  0  0  0  0  0  0  0  0  0
   -3.9887    1.1585  -22.0218 C   0  0  0  0  0  0  0  0  0  0  0  0
   -5.0790    0.3431  -21.8186 C   0  0  0  0  0  0  0  0  0  0  0  0
   -5.4820   -0.0115  -20.5010 C   0  0  0  0  0  0  0  0  0  0  0  0
   -5.6534    0.0038  -22.6753 H   0  0  0  0  0  0  0  0  0  0  0  0
   -3.6904    1.4186  -23.0331 H   0  0  0  0  0  0  0  0  0  0  0  0
   -2.4036    2.3118  -21.1025 H   0  0  0  0  0  0  0  0  0  0  0  0
   -3.0917    1.7497  -18.7915 H   0  0  0  0  0  0  0  0  0  0  0  0
   -4.6072    0.5968  -17.2485 H   0  0  0  0  0  0  0  0  0  0  0  0
   -7.7833   -1.6599  -18.6037 H   0  0  0  0  0  0  0  0  0  0  0  0
   -7.0121   -2.5824  -21.9713 C   0  0  0  0  0  0  0  0  0  0  0  0
   -8.3441   -3.0717  -22.5745 C   0  0  2  0  0  0  0  0  0  0  0  0
   -8.1941   -3.8087  -23.9062 C   0  0  0  0  0  0  0  0  0  0  0  0
   -7.5355   -5.0812  -23.7498 N   0  0  0  0  0  0  0  0  0  0  0  0
   -7.1778   -5.8651  -24.7970 C   0  0  0  0  0  0  0  0  0  0  0  0
   -7.5787   -5.6063  -26.1218 C   0  0  0  0  0  0  0  0  0  0  0  0
   -7.1685   -6.5140  -27.0778 C   0  0  0  0  0  0  0  0  0  0  0  0
   -6.3903   -7.5685  -26.8109 N   0  0  0  0  0  0  0  0  0  0  0  0
   -6.0672   -7.6989  -25.5298 C   0  0  0  0  0  0  0  0  0  0  0  0
   -6.4205   -6.9318  -24.5039 N   0  0  0  0  0  0  0  0  0  0  0  0
   -5.4344   -8.5462  -25.2730 H   0  0  0  0  0  0  0  0  0  0  0  0
   -7.4742   -6.3958  -28.1165 H   0  0  0  0  0  0  0  0  0  0  0  0
   -8.1680   -4.7383  -26.3938 H   0  0  0  0  0  0  0  0  0  0  0  0
   -7.1217   -5.3539  -22.8739 H   0  0  0  0  0  0  0  0  0  0  0  0
   -9.1878   -3.9776  -24.3418 H   0  0  0  0  0  0  0  0  0  0  0  0
   -7.6281   -3.1845  -24.6166 H   0  0  0  0  0  0  0  0  0  0  0  0
   -8.7714   -3.7775  -21.8546 H   0  0  0  0  0  0  0  0  0  0  0  0
   -6.5508   -3.3348  -21.3250 H   0  0  0  0  0  0  0  0  0  0  0  0
   -6.2785   -2.3160  -22.7500 H   0  0  0  0  0  0  0  0  0  0  0  0
  -10.7454   -2.0534  -22.3797 C   0  0  0  0  0  0  0  0  0  0  0  0
  -11.2328   -3.1446  -21.6585 C   0  0  0  0  0  0  0  0  0  0  0  0
  -12.5820   -3.2097  -21.3618 C   0  0  0  0  0  0  0  0  0  0  0  0
  -13.1498   -4.3376  -20.1816 Cl  0  0  0  0  0  0  0  0  0  0  0  0
  -13.5126   -2.3117  -21.8680 C   0  0  0  0  0  0  0  0  0  0  0  0
  -13.0431   -1.2413  -22.5934 C   0  0  0  0  0  0  0  0  0  0  0  0
  -11.6716   -1.0705  -22.7658 C   0  0  0  0  0  0  0  0  0  0  0  0
  -11.1911    0.2229  -23.3292 C   0  0  0  0  0  0  0  0  0  0  0  0
  -11.8371    1.2637  -23.2585 O   0  0  0  0  0  0  0  0  0  0  0  0
  -13.7297   -0.5048  -22.9896 H   0  0  0  0  0  0  0  0  0  0  0  0
  -14.5575   -2.4371  -21.6061 H   0  0  0  0  0  0  0  0  0  0  0  0
  -10.5851   -3.9134  -21.2528 H   0  0  0  0  0  0  0  0  0  0  0  0
   -8.1167   -0.7102  -24.1225 H   0  0  0  0  0  0  0  0  0  0  0  0
   -9.4776   -1.6575  -24.7843 H   0  0  0  0  0  0  0  0  0  0  0  0
   -9.0933    1.1325  -25.5553 H   0  0  0  0  0  0  0  0  0  0  0  0
  -10.3401    2.0597  -24.6537 H   0  0  0  0  0  0  0  0  0  0  0  0
   -9.6068    2.6516  -22.2151 H   0  0  0  0  0  0  0  0  0  0  0  0
   -7.9294    3.9394  -21.0903 H   0  0  0  0  0  0  0  0  0  0  0  0
   -7.0642    2.3718  -21.4322 H   0  0  0  0  0  0  0  0  0  0  0  0
   -6.9114    3.7745  -22.5111 H   0  0  0  0  0  0  0  0  0  0  0  0
  1  2  1  0
  2  3  1  0
  3  4  2  0
  3  5  1  0
  5  6  1  0
  6  7  1  0
  8  7  1  6
  8  9  1  0
  9 10  2  0
  9 11  1  0
 11 12  1  0
 12 13  2  0
 13 14  1  0
 14 15  2  0
 15 16  1  0
 16 17  2  0
 17 18  1  0
 18 19  2  0
 19 20  1  0
 20 21  2  0
 20 22  1  0
 19 23  1  0
 18 24  1  0
 17 25  1  0
 15 26  1  0
 13 27  1  0
 11 28  1  0
 28 29  1  0
 29 30  1  0
 30 31  1  0
 31 32  1  0
 32 33  2  0
 33 34  1  0
 34 35  2  0
 35 36  1  0
 36 37  2  0
 36 38  1  0
 34 39  1  0
 33 40  1  0
 31 41  1  0
 30 42  1  0
 30 43  1  0
 29 44  1  1
 28 45  1  0
 28 46  1  0
  8 47  1  0
 47 48  2  0
 48 49  1  0
 49 50  1  0
 49 51  2  0
 51 52  1  0
 52 53  2  0
 53 54  1  0
 54 55  2  0
 52 56  1  0
 51 57  1  0
 48 58  1  0
  7 59  1  0
  7 60  1  0
  5 61  1  0
  5 62  1  0
  2 63  1  0
  1 64  1  0
  1 65  1  0
  1 66  1  0
 54  6  1  0
 29  8  1  0
 37 32  1  0
 53 47  1  0
 21 12  1  0
 21 16  1  0
M  END
>  <cnnaffinities>  (1) 
[6.83438, 6.95481]

>  <score>  (1) 
6.83438

>  <index>  (1) 
0

>  <Smiles>  (1) 
C(N(C(=O)C(N1C([C@@]2(C(=O)N(c3c(nc(c4c(c(c(c(c34)[H])[H])[H])[H])[H])[H])C([C@@]2(C(N(c2c(c(nc(n2)[H])[H])[H])[H])([H])[H])[H])([H])[H])c2c(c(Cl)c(c(c2C1=O)[H])[H])[H])([H])[H])([H])[H])[H])([H])([H])[H]

>  <h>  (1) 
<NA>

>  <Training>  (1) 
True

>  <Success>  (1) 
True

>  <enamine_searched>  (1) 
False

>  <enamine_id>  (1) 
nan

$$$$

     RDKit          3D

 68 73  0  0  0  0  0  0  0  0999 V2000
   -7.5009    3.2536  -21.9707 C   0  0  0  0  0  0  0  0  0  0  0  0
   -8.6243    2.7367  -22.7291 N   0  0  0  0  0  0  0  0  0  0  0  0
   -8.3429    1.9256  -23.7822 C   0  0  0  0  0  0  0  0  0  0  0  0
   -7.1919    1.6440  -24.0898 O   0  0  0  0  0  0  0  0  0  0  0  0
   -9.5361    1.3633  -24.5560 C   0  0  0  0  0  0  0  0  0  0  0  0
  -10.0186    0.1664  -23.9025 N   0  0  0  0  0  0  0  0  0  0  0  0
   -9.2012   -1.0375  -23.9276 C   0  0  0  0  0  0  0  0  0  0  0  0
   -9.3036   -1.8129  -22.5837 C   0  0  2  0  0  0  0  0  0  0  0  0
   -8.6888   -0.9237  -21.4751 C   0  0  0  0  0  0  0  0  0  0  0  0
   -9.1893    0.0566  -20.9567 O   0  0  0  0  0  0  0  0  0  0  0  0
   -7.4276   -1.3935  -21.1841 N   0  0  0  0  0  0  0  0  0  0  0  0
   -6.6363   -0.8020  -20.1718 C   0  0  0  0  0  0  0  0  0  0  0  0
   -6.9369   -1.0328  -18.8512 C   0  0  0  0  0  0  0  0  0  0  0  0
   -6.2128   -0.5559  -17.8130 N   0  0  0  0  0  0  0  0  0  0  0  0
   -5.1711    0.1875  -18.0892 C   0  0  0  0  0  0  0  0  0  0  0  0
   -4.7487    0.5089  -19.4094 C   0  0  0  0  0  0  0  0  0  0  0  0
   -3.6233    1.3398  -19.6537 C   0  0  0  0  0  0  0  0  0  0  0  0
   -3.2608    1.6562  -20.9337 C   0  0  0  0  0  0  0  0  0  0  0  0
   -4.0097    1.1658  -22.0264 C   0  0  0  0  0  0  0  0  0  0  0  0
   -5.1094    0.3634  -21.8167 C   0  0  0  0  0  0  0  0  0  0  0  0
   -5.5018    0.0063  -20.4968 C   0  0  0  0  0  0  0  0  0  0  0  0
   -5.7055    0.0416  -22.6652 H   0  0  0  0  0  0  0  0  0  0  0  0
   -3.7248    1.4332  -23.0397 H   0  0  0  0  0  0  0  0  0  0  0  0
   -2.4073    2.3044  -21.1147 H   0  0  0  0  0  0  0  0  0  0  0  0
   -3.0829    1.7351  -18.7977 H   0  0  0  0  0  0  0  0  0  0  0  0
   -4.6001    0.5804  -17.2468 H   0  0  0  0  0  0  0  0  0  0  0  0
   -7.7975   -1.6460  -18.5945 H   0  0  0  0  0  0  0  0  0  0  0  0
   -7.0259   -2.5417  -21.9714 C   0  0  0  0  0  0  0  0  0  0  0  0
   -8.3728   -3.0476  -22.5279 C   0  0  2  0  0  0  0  0  0  0  0  0
   -8.2754   -3.8300  -23.8291 C   0  0  0  0  0  0  0  0  0  0  0  0
   -7.7618   -5.1692  -23.6134 N   0  0  0  0  0  0  0  0  0  0  0  0
   -7.3070   -5.8472  -24.7532 C   0  0  0  0  0  0  0  0  0  0  0  0
   -7.5970   -5.6194  -26.1223 C   0  0  0  0  0  0  0  0  0  0  0  0
   -6.9389   -6.4752  -26.9039 N   0  0  0  0  0  0  0  0  0  0  0  0
   -6.2685   -7.2700  -26.0683 N   0  0  0  0  0  0  0  0  0  0  0  0
   -5.3319   -8.2609  -26.5467 C   0  0  0  0  0  0  0  0  0  0  0  0
   -4.3132   -7.8557  -26.5870 H   0  0  0  0  0  0  0  0  0  0  0  0
   -5.3356   -9.0886  -25.8412 H   0  0  0  0  0  0  0  0  0  0  0  0
   -5.6536   -8.6230  -27.5250 H   0  0  0  0  0  0  0  0  0  0  0  0
   -6.4584   -6.9335  -24.7687 C   0  0  0  0  0  0  0  0  0  0  0  0
   -6.0288   -7.5201  -23.9690 H   0  0  0  0  0  0  0  0  0  0  0  0
   -8.2691   -4.8803  -26.5588 H   0  0  0  0  0  0  0  0  0  0  0  0
   -7.0703   -5.2217  -22.8740 H   0  0  0  0  0  0  0  0  0  0  0  0
   -7.6532   -3.2759  -24.5512 H   0  0  0  0  0  0  0  0  0  0  0  0
   -9.2681   -3.9128  -24.2853 H   0  0  0  0  0  0  0  0  0  0  0  0
   -8.7668   -3.7238  -21.7664 H   0  0  0  0  0  0  0  0  0  0  0  0
   -6.3233   -2.2503  -22.7695 H   0  0  0  0  0  0  0  0  0  0  0  0
   -6.5187   -3.2800  -21.3401 H   0  0  0  0  0  0  0  0  0  0  0  0
  -10.7826   -2.0818  -22.3490 C   0  0  0  0  0  0  0  0  0  0  0  0
  -11.2813   -3.2038  -21.6689 C   0  0  0  0  0  0  0  0  0  0  0  0
  -12.6272   -3.2506  -21.3375 C   0  0  0  0  0  0  0  0  0  0  0  0
  -13.2203   -4.3874  -20.1713 Cl  0  0  0  0  0  0  0  0  0  0  0  0
  -13.5477   -2.3235  -21.8167 C   0  0  0  0  0  0  0  0  0  0  0  0
  -13.0679   -1.2351  -22.5070 C   0  0  0  0  0  0  0  0  0  0  0  0
  -11.7009   -1.0843  -22.7119 C   0  0  0  0  0  0  0  0  0  0  0  0
  -11.2295    0.2155  -23.2817 C   0  0  0  0  0  0  0  0  0  0  0  0
  -11.8811    1.2499  -23.2003 O   0  0  0  0  0  0  0  0  0  0  0  0
  -13.7367   -0.4676  -22.8742 H   0  0  0  0  0  0  0  0  0  0  0  0
  -14.6054   -2.4596  -21.6168 H   0  0  0  0  0  0  0  0  0  0  0  0
  -10.6457   -4.0226  -21.3458 H   0  0  0  0  0  0  0  0  0  0  0  0
   -8.1642   -0.7466  -24.1167 H   0  0  0  0  0  0  0  0  0  0  0  0
   -9.5261   -1.6739  -24.7595 H   0  0  0  0  0  0  0  0  0  0  0  0
   -9.2308    1.1403  -25.5866 H   0  0  0  0  0  0  0  0  0  0  0  0
  -10.3664    2.0712  -24.5934 H   0  0  0  0  0  0  0  0  0  0  0  0
   -9.5154    2.6473  -22.2585 H   0  0  0  0  0  0  0  0  0  0  0  0
   -6.9786    2.4429  -21.4482 H   0  0  0  0  0  0  0  0  0  0  0  0
   -6.7852    3.7127  -22.6566 H   0  0  0  0  0  0  0  0  0  0  0  0
   -7.8468    4.0094  -21.2652 H   0  0  0  0  0  0  0  0  0  0  0  0
  1  2  1  0
  2  3  1  0
  3  4  2  0
  3  5  1  0
  5  6  1  0
  6  7  1  0
  8  7  1  6
  8  9  1  0
  9 10  2  0
  9 11  1  0
 11 12  1  0
 12 13  2  0
 13 14  1  0
 14 15  2  0
 15 16  1  0
 16 17  2  0
 17 18  1  0
 18 19  2  0
 19 20  1  0
 20 21  2  0
 20 22  1  0
 19 23  1  0
 18 24  1  0
 17 25  1  0
 15 26  1  0
 13 27  1  0
 11 28  1  0
 28 29  1  0
 29 30  1  0
 30 31  1  0
 31 32  1  0
 32 33  1  0
 33 34  2  0
 34 35  1  0
 35 36  1  0
 36 37  1  0
 36 38  1  0
 36 39  1  0
 35 40  1  0
 40 41  1  0
 33 42  1  0
 31 43  1  0
 30 44  1  0
 30 45  1  0
 29 46  1  1
 28 47  1  0
 28 48  1  0
  8 49  1  0
 49 50  2  0
 50 51  1  0
 51 52  1  0
 51 53  2  0
 53 54  1  0
 54 55  2  0
 55 56  1  0
 56 57  2  0
 54 58  1  0
 53 59  1  0
 50 60  1  0
  7 61  1  0
  7 62  1  0
  5 63  1  0
  5 64  1  0
  2 65  1  0
  1 66  1  0
  1 67  1  0
  1 68  1  0
 56  6  1  0
 29  8  1  0
 40 32  2  0
 55 49  1  0
 21 12  1  0
 21 16  1  0
M  END
>  <cnnaffinities>  (2) 
[6.98972]

>  <score>  (2) 
6.98972

>  <index>  (2) 
1

>  <Smiles>  (2) 
C(N(C(=O)C(N1C([C@@]2(C(=O)N(c3c(nc(c4c(c(c(c(c34)[H])[H])[H])[H])[H])[H])C([C@@]2(C(N(c2c(nn(C([H])([H])[H])c2[H])[H])[H])([H])[H])[H])([H])[H])c2c(c(Cl)c(c(c2C1=O)[H])[H])[H])([H])[H])([H])[H])[H])([H])([H])[H]

>  <h>  (2) 
<NA>

>  <Training>  (2) 
True

>  <Success>  (2) 
True

>  <enamine_searched>  (2) 
False

>  <enamine_id>  (2) 
nan

$$$$

     RDKit          3D

 60 65  0  0  0  0  0  0  0  0999 V2000
   -6.3387    1.0812  -30.6011 C   0  0  0  0  0  0  0  0  0  0  0  0
   -6.7142    1.1934  -29.1448 C   0  0  0  0  0  0  0  0  0  0  0  0
   -6.0756    0.4345  -28.1633 C   0  0  0  0  0  0  0  0  0  0  0  0
   -6.3918    0.4960  -26.8708 N   0  0  0  0  0  0  0  0  0  0  0  0
   -7.3677    1.3452  -26.5313 C   0  0  0  0  0  0  0  0  0  0  0  0
   -7.7299    1.5078  -25.0702 C   0  0  0  0  0  0  0  0  0  0  0  0
   -8.7408    0.5800  -24.5678 N   0  0  0  0  0  0  0  0  0  0  0  0
   -8.3171   -0.7893  -24.3338 C   0  0  0  0  0  0  0  0  0  0  0  0
   -8.8311   -1.3519  -22.9824 C   0  0  2  0  0  0  0  0  0  0  0  0
   -8.2211   -0.5716  -21.8094 C   0  0  0  0  0  0  0  0  0  0  0  0
   -8.4321    0.5827  -21.4922 O   0  0  0  0  0  0  0  0  0  0  0  0
   -7.3618   -1.4025  -21.1408 N   0  0  0  0  0  0  0  0  0  0  0  0
   -6.5453   -0.8497  -20.1352 C   0  0  0  0  0  0  0  0  0  0  0  0
   -6.8621   -1.0657  -18.8222 C   0  0  0  0  0  0  0  0  0  0  0  0
   -6.1669   -0.5578  -17.7790 N   0  0  0  0  0  0  0  0  0  0  0  0
   -5.1378    0.2034  -18.0580 C   0  0  0  0  0  0  0  0  0  0  0  0
   -4.7136    0.5152  -19.3811 C   0  0  0  0  0  0  0  0  0  0  0  0
   -3.5964    1.3539  -19.6240 C   0  0  0  0  0  0  0  0  0  0  0  0
   -3.2115    1.6459  -20.9031 C   0  0  0  0  0  0  0  0  0  0  0  0
   -3.9301    1.1198  -22.0001 C   0  0  0  0  0  0  0  0  0  0  0  0
   -5.0164    0.3060  -21.7938 C   0  0  0  0  0  0  0  0  0  0  0  0
   -5.4359   -0.0177  -20.4674 C   0  0  0  0  0  0  0  0  0  0  0  0
   -5.5716   -0.0812  -22.6456 H   0  0  0  0  0  0  0  0  0  0  0  0
   -3.6161    1.3660  -23.0102 H   0  0  0  0  0  0  0  0  0  0  0  0
   -2.3540    2.2880  -21.0822 H   0  0  0  0  0  0  0  0  0  0  0  0
   -3.0690    1.7635  -18.7676 H   0  0  0  0  0  0  0  0  0  0  0  0
   -4.5824    0.6205  -17.2169 H   0  0  0  0  0  0  0  0  0  0  0  0
   -7.7320   -1.6715  -18.5780 H   0  0  0  0  0  0  0  0  0  0  0  0
   -7.1675   -2.6946  -21.7602 C   0  0  0  0  0  0  0  0  0  0  0  0
   -8.3610   -2.8117  -22.7163 C   0  0  2  0  0  0  0  0  0  0  0  0
   -8.0620   -3.6712  -23.9381 C   0  0  0  0  0  0  0  0  0  0  0  0
   -7.2096   -3.2746  -24.5032 H   0  0  0  0  0  0  0  0  0  0  0  0
   -8.9283   -3.7184  -24.6064 H   0  0  0  0  0  0  0  0  0  0  0  0
   -7.8193   -4.6891  -23.6169 H   0  0  0  0  0  0  0  0  0  0  0  0
   -9.1546   -3.3137  -22.1613 H   0  0  0  0  0  0  0  0  0  0  0  0
   -6.2165   -2.7502  -22.3090 H   0  0  0  0  0  0  0  0  0  0  0  0
   -7.1669   -3.4866  -21.0081 H   0  0  0  0  0  0  0  0  0  0  0  0
  -10.3203   -1.1279  -22.9177 C   0  0  0  0  0  0  0  0  0  0  0  0
  -11.1415   -1.9613  -22.1519 C   0  0  0  0  0  0  0  0  0  0  0  0
  -12.5025   -1.7487  -22.1418 C   0  0  0  0  0  0  0  0  0  0  0  0
  -13.2954   -2.6031  -21.4699 F   0  0  0  0  0  0  0  0  0  0  0  0
  -13.0735   -0.6475  -22.7706 C   0  0  0  0  0  0  0  0  0  0  0  0
  -12.2314    0.2626  -23.3821 C   0  0  0  0  0  0  0  0  0  0  0  0
  -10.8601    0.0327  -23.4825 C   0  0  0  0  0  0  0  0  0  0  0  0
   -9.9861    1.0259  -24.2051 C   0  0  0  0  0  0  0  0  0  0  0  0
  -10.3671    2.1674  -24.4454 O   0  0  0  0  0  0  0  0  0  0  0  0
  -12.6206    1.1901  -23.7716 H   0  0  0  0  0  0  0  0  0  0  0  0
  -14.1517   -0.5206  -22.7449 H   0  0  0  0  0  0  0  0  0  0  0  0
  -10.7363   -2.6958  -21.4646 H   0  0  0  0  0  0  0  0  0  0  0  0
   -7.2243   -0.7919  -24.3408 H   0  0  0  0  0  0  0  0  0  0  0  0
   -8.6583   -1.4416  -25.1489 H   0  0  0  0  0  0  0  0  0  0  0  0
   -6.8151    1.3499  -24.4828 H   0  0  0  0  0  0  0  0  0  0  0  0
   -8.0942    2.5226  -24.8841 H   0  0  0  0  0  0  0  0  0  0  0  0
   -7.9975    2.1075  -27.5060 C   0  0  0  0  0  0  0  0  0  0  0  0
   -7.6857    2.0411  -28.8010 N   0  0  0  0  0  0  0  0  0  0  0  0
   -8.7793    2.8037  -27.2120 H   0  0  0  0  0  0  0  0  0  0  0  0
   -5.2675   -0.2361  -28.4363 H   0  0  0  0  0  0  0  0  0  0  0  0
   -6.5105    0.0592  -30.9656 H   0  0  0  0  0  0  0  0  0  0  0  0
   -6.9476    1.7778  -31.1832 H   0  0  0  0  0  0  0  0  0  0  0  0
   -5.2763    1.3121  -30.7617 H   0  0  0  0  0  0  0  0  0  0  0  0
  1  2  1  0
  2  3  2  0
  3  4  1  0
  4  5  2  0
  5  6  1  0
  6  7  1  0
  7  8  1  0
  9  8  1  6
  9 10  1  0
 10 11  2  0
 10 12  1  0
 12 13  1  0
 13 14  2  0
 14 15  1  0
 15 16  2  0
 16 17  1  0
 17 18  2  0
 18 19  1  0
 19 20  2  0
 20 21  1  0
 21 22  2  0
 21 23  1  0
 20 24  1  0
 19 25  1  0
 18 26  1  0
 16 27  1  0
 14 28  1  0
 12 29  1  0
 29 30  1  0
 30 31  1  0
 31 32  1  0
 31 33  1  0
 31 34  1  0
 30 35  1  1
 29 36  1  0
 29 37  1  0
  9 38  1  0
 38 39  2  0
 39 40  1  0
 40 41  1  0
 40 42  2  0
 42 43  1  0
 43 44  2  0
 44 45  1  0
 45 46  2  0
 43 47  1  0
 42 48  1  0
 39 49  1  0
  8 50  1  0
  8 51  1  0
  6 52  1  0
  6 53  1  0
  5 54  1  0
 54 55  2  0
 54 56  1  0
  3 57  1  0
  1 58  1  0
  1 59  1  0
  1 60  1  0
 55  2  1  0
 45  7  1  0
 30  9  1  0
 44 38  1  0
 22 13  1  0
 22 17  1  0
M  END
>  <cnnaffinities>  (3) 
[6.70106]

>  <score>  (3) 
6.70106

>  <index>  (3) 
2

>  <Smiles>  (3) 
C(c1c(nc(C(N2C([C@@]3(C(=O)N(c4c(nc(c5c(c(c(c(c45)[H])[H])[H])[H])[H])[H])C([C@@]3(C([H])([H])[H])[H])([H])[H])c3c(c(F)c(c(c3C2=O)[H])[H])[H])([H])[H])([H])[H])c(n1)[H])[H])([H])([H])[H]

>  <h>  (3) 
<NA>

>  <Training>  (3) 
True

>  <Success>  (3) 
True

>  <enamine_searched>  (3) 
False

>  <enamine_id>  (3) 
nan

$$$$

     RDKit          3D

 66 70  0  0  0  0  0  0  0  0999 V2000
   -6.8081    3.4545  -23.0566 C   0  0  0  0  0  0  0  0  0  0  0  0
   -7.4937    2.7488  -24.1246 N   0  0  0  0  0  0  0  0  0  0  0  0
   -6.9759    1.6485  -24.7156 C   0  0  0  0  0  0  0  0  0  0  0  0
   -5.8038    1.3030  -24.6264 O   0  0  0  0  0  0  0  0  0  0  0  0
   -7.9817    0.8080  -25.5190 C   0  0  0  0  0  0  0  0  0  0  0  0
   -8.8736    0.0792  -24.6338 N   0  0  0  0  0  0  0  0  0  0  0  0
   -8.5210   -1.2784  -24.2681 C   0  0  0  0  0  0  0  0  0  0  0  0
   -8.9435   -1.6056  -22.8074 C   0  0  2  0  0  0  0  0  0  0  0  0
   -8.1600   -0.6890  -21.8435 C   0  0  0  0  0  0  0  0  0  0  0  0
   -8.2834    0.5152  -21.7137 O   0  0  0  0  0  0  0  0  0  0  0  0
   -7.2762   -1.4538  -21.1222 N   0  0  0  0  0  0  0  0  0  0  0  0
   -6.4856   -0.8772  -20.0980 C   0  0  0  0  0  0  0  0  0  0  0  0
   -6.7880   -1.1021  -18.7791 C   0  0  0  0  0  0  0  0  0  0  0  0
   -6.1057   -0.5632  -17.7415 N   0  0  0  0  0  0  0  0  0  0  0  0
   -5.0906    0.2170  -18.0204 C   0  0  0  0  0  0  0  0  0  0  0  0
   -4.6623    0.5241  -19.3422 C   0  0  0  0  0  0  0  0  0  0  0  0
   -3.5490    1.3668  -19.6038 C   0  0  0  0  0  0  0  0  0  0  0  0
   -3.1915    1.6718  -20.8885 C   0  0  0  0  0  0  0  0  0  0  0  0
   -3.9306    1.1509  -21.9734 C   0  0  0  0  0  0  0  0  0  0  0  0
   -4.9996    0.3225  -21.7461 C   0  0  0  0  0  0  0  0  0  0  0  0
   -5.3909   -0.0204  -20.4225 C   0  0  0  0  0  0  0  0  0  0  0  0
   -5.5757   -0.0420  -22.5895 H   0  0  0  0  0  0  0  0  0  0  0  0
   -3.6884    1.4209  -22.9969 H   0  0  0  0  0  0  0  0  0  0  0  0
   -2.3525    2.3342  -21.0800 H   0  0  0  0  0  0  0  0  0  0  0  0
   -3.0066    1.7834  -18.7610 H   0  0  0  0  0  0  0  0  0  0  0  0
   -4.5577    0.6546  -17.1766 H   0  0  0  0  0  0  0  0  0  0  0  0
   -7.6376   -1.7325  -18.5142 H   0  0  0  0  0  0  0  0  0  0  0  0
   -7.2247   -2.8477  -21.5076 C   0  0  0  0  0  0  0  0  0  0  0  0
   -8.4968   -3.0225  -22.3696 C   0  0  2  0  0  0  0  0  0  0  0  0
   -8.3267   -4.0371  -23.4951 C   0  0  0  0  0  0  0  0  0  0  0  0
   -8.0502   -5.2839  -22.9040 O   0  0  0  0  0  0  0  0  0  0  0  0
   -7.5306   -6.2483  -23.8019 C   0  0  0  0  0  0  0  0  0  0  0  0
   -8.0737   -7.5949  -23.3702 C   0  0  0  0  0  0  0  0  0  0  0  0
   -9.1616   -7.5895  -23.3941 H   0  0  0  0  0  0  0  0  0  0  0  0
   -7.7454   -7.8320  -22.3536 H   0  0  0  0  0  0  0  0  0  0  0  0
   -7.7267   -8.3604  -24.0609 H   0  0  0  0  0  0  0  0  0  0  0  0
   -6.0092   -6.2129  -23.7770 C   0  0  0  0  0  0  0  0  0  0  0  0
   -5.6029   -6.9592  -24.4667 H   0  0  0  0  0  0  0  0  0  0  0  0
   -5.6651   -6.4454  -22.7651 H   0  0  0  0  0  0  0  0  0  0  0  0
   -5.6155   -5.2289  -24.0566 H   0  0  0  0  0  0  0  0  0  0  0  0
   -7.8946   -6.0271  -24.8181 H   0  0  0  0  0  0  0  0  0  0  0  0
   -7.5097   -3.7340  -24.1735 H   0  0  0  0  0  0  0  0  0  0  0  0
   -9.2420   -4.1046  -24.1094 H   0  0  0  0  0  0  0  0  0  0  0  0
   -9.2602   -3.4279  -21.7062 H   0  0  0  0  0  0  0  0  0  0  0  0
   -6.2979   -3.0894  -22.0541 H   0  0  0  0  0  0  0  0  0  0  0  0
   -7.2472   -3.4785  -20.6163 H   0  0  0  0  0  0  0  0  0  0  0  0
  -10.4314   -1.3040  -22.6878 C   0  0  0  0  0  0  0  0  0  0  0  0
  -11.3496   -2.0982  -21.9808 C   0  0  0  0  0  0  0  0  0  0  0  0
  -12.6844   -1.7256  -21.9423 C   0  0  0  0  0  0  0  0  0  0  0  0
  -13.8361   -2.7439  -21.1214 Cl  0  0  0  0  0  0  0  0  0  0  0  0
  -13.1335   -0.5383  -22.5145 C   0  0  0  0  0  0  0  0  0  0  0  0
  -12.2246    0.2808  -23.1504 C   0  0  0  0  0  0  0  0  0  0  0  0
  -10.8993   -0.1286  -23.2998 C   0  0  0  0  0  0  0  0  0  0  0  0
   -9.9953    0.6945  -24.1774 C   0  0  0  0  0  0  0  0  0  0  0  0
  -10.2543    1.8644  -24.4701 O   0  0  0  0  0  0  0  0  0  0  0  0
  -12.5398    1.2381  -23.5494 H   0  0  0  0  0  0  0  0  0  0  0  0
  -14.1850   -0.2787  -22.4768 H   0  0  0  0  0  0  0  0  0  0  0  0
  -11.0652   -3.0158  -21.4762 H   0  0  0  0  0  0  0  0  0  0  0  0
   -7.4300   -1.3622  -24.3568 H   0  0  0  0  0  0  0  0  0  0  0  0
   -9.0237   -1.9729  -24.9588 H   0  0  0  0  0  0  0  0  0  0  0  0
   -7.4058    0.0879  -26.1088 H   0  0  0  0  0  0  0  0  0  0  0  0
   -8.5945    1.4291  -26.1802 H   0  0  0  0  0  0  0  0  0  0  0  0
   -8.4948    2.8715  -24.2159 H   0  0  0  0  0  0  0  0  0  0  0  0
   -6.4828    2.7582  -22.2691 H   0  0  0  0  0  0  0  0  0  0  0  0
   -7.5075    4.1720  -22.6201 H   0  0  0  0  0  0  0  0  0  0  0  0
   -5.9418    4.0075  -23.4324 H   0  0  0  0  0  0  0  0  0  0  0  0
  1  2  1  0
  2  3  1  0
  3  4  2  0
  3  5  1  0
  5  6  1  0
  6  7  1  0
  8  7  1  6
  8  9  1  0
  9 10  2  0
  9 11  1  0
 11 12  1  0
 12 13  2  0
 13 14  1  0
 14 15  2  0
 15 16  1  0
 16 17  2  0
 17 18  1  0
 18 19  2  0
 19 20  1  0
 20 21  2  0
 20 22  1  0
 19 23  1  0
 18 24  1  0
 17 25  1  0
 15 26  1  0
 13 27  1  0
 11 28  1  0
 28 29  1  0
 29 30  1  0
 30 31  1  0
 31 32  1  0
 32 33  1  0
 33 34  1  0
 33 35  1  0
 33 36  1  0
 32 37  1  0
 37 38  1  0
 37 39  1  0
 37 40  1  0
 32 41  1  0
 30 42  1  0
 30 43  1  0
 29 44  1  1
 28 45  1  0
 28 46  1  0
  8 47  1  0
 47 48  2  0
 48 49  1  0
 49 50  1  0
 49 51  2  0
 51 52  1  0
 52 53  2  0
 53 54  1  0
 54 55  2  0
 52 56  1  0
 51 57  1  0
 48 58  1  0
  7 59  1  0
  7 60  1  0
  5 61  1  0
  5 62  1  0
  2 63  1  0
  1 64  1  0
  1 65  1  0
  1 66  1  0
 54  6  1  0
 29  8  1  0
 53 47  1  0
 21 12  1  0
 21 16  1  0
M  END
>  <cnnaffinities>  (4) 
[6.92477]

>  <score>  (4) 
6.92477

>  <index>  (4) 
3

>  <Smiles>  (4) 
C(N(C(=O)C(N1C([C@@]2(C(=O)N(c3c(nc(c4c(c(c(c(c34)[H])[H])[H])[H])[H])[H])C([C@@]2(C(OC(C([H])([H])[H])(C([H])([H])[H])[H])([H])[H])[H])([H])[H])c2c(c(Cl)c(c(c2C1=O)[H])[H])[H])([H])[H])([H])[H])[H])([H])([H])[H]

>  <h>  (4) 
<NA>

>  <Training>  (4) 
True

>  <Success>  (4) 
True

>  <enamine_searched>  (4) 
False

>  <enamine_id>  (4) 
nan

$$$$

     RDKit          3D

 59 64  0  0  0  0  0  0  0  0999 V2000
   -7.8519   -3.6779  -23.9982 C   0  0  0  0  0  0  0  0  0  0  0  0
   -8.2223   -2.8654  -22.7615 C   0  0  1  0  0  0  0  0  0  0  0  0
   -7.0550   -2.7148  -21.7752 C   0  0  0  0  0  0  0  0  0  0  0  0
   -7.3256   -1.4489  -21.1323 N   0  0  0  0  0  0  0  0  0  0  0  0
   -6.5295   -0.8651  -20.1275 C   0  0  0  0  0  0  0  0  0  0  0  0
   -6.8564   -1.0635  -18.8151 C   0  0  0  0  0  0  0  0  0  0  0  0
   -6.1648   -0.5448  -17.7752 N   0  0  0  0  0  0  0  0  0  0  0  0
   -5.1322    0.2121  -18.0556 C   0  0  0  0  0  0  0  0  0  0  0  0
   -4.7052    0.5149  -19.3805 C   0  0  0  0  0  0  0  0  0  0  0  0
   -3.5890    1.3543  -19.6302 C   0  0  0  0  0  0  0  0  0  0  0  0
   -3.2097    1.6437  -20.9123 C   0  0  0  0  0  0  0  0  0  0  0  0
   -3.9340    1.1152  -22.0050 C   0  0  0  0  0  0  0  0  0  0  0  0
   -5.0172    0.2981  -21.7915 C   0  0  0  0  0  0  0  0  0  0  0  0
   -5.4272   -0.0252  -20.4624 C   0  0  0  0  0  0  0  0  0  0  0  0
   -5.5741   -0.0991  -22.6374 H   0  0  0  0  0  0  0  0  0  0  0  0
   -3.6324    1.3622  -23.0191 H   0  0  0  0  0  0  0  0  0  0  0  0
   -2.3561    2.2903  -21.0959 H   0  0  0  0  0  0  0  0  0  0  0  0
   -3.0593    1.7689  -18.7779 H   0  0  0  0  0  0  0  0  0  0  0  0
   -4.5803    0.6335  -17.2147 H   0  0  0  0  0  0  0  0  0  0  0  0
   -7.7296   -1.6643  -18.5677 H   0  0  0  0  0  0  0  0  0  0  0  0
   -8.2152   -0.6464  -21.7994 C   0  0  0  0  0  0  0  0  0  0  0  0
   -8.4794    0.4879  -21.4687 O   0  0  0  0  0  0  0  0  0  0  0  0
   -8.7677   -1.4300  -22.9994 C   0  0  1  0  0  0  0  0  0  0  0  0
   -8.2516   -0.7857  -24.3178 C   0  0  0  0  0  0  0  0  0  0  0  0
   -8.7279    0.5741  -24.4856 N   0  0  0  0  0  0  0  0  0  0  0  0
   -7.7823    1.6138  -24.8625 C   0  0  0  0  0  0  0  0  0  0  0  0
   -7.5983    1.8548  -26.3439 C   0  0  0  0  0  0  0  0  0  0  0  0
   -8.2731    2.7622  -27.0139 N   0  0  0  0  0  0  0  0  0  0  0  0
   -7.7780    2.7335  -28.2948 C   0  0  0  0  0  0  0  0  0  0  0  0
   -6.7860    1.8020  -28.3897 C   0  0  0  0  0  0  0  0  0  0  0  0
   -6.6616    1.2401  -27.1345 N   0  0  0  0  0  0  0  0  0  0  0  0
   -5.6815    0.2360  -26.7502 C   0  0  0  0  0  0  0  0  0  0  0  0
   -4.9304    0.1614  -27.5396 H   0  0  0  0  0  0  0  0  0  0  0  0
   -5.1647    0.5098  -25.8217 H   0  0  0  0  0  0  0  0  0  0  0  0
   -6.1446   -0.7490  -26.6244 H   0  0  0  0  0  0  0  0  0  0  0  0
   -6.1618    1.4976  -29.2189 H   0  0  0  0  0  0  0  0  0  0  0  0
   -8.1409    3.4077  -29.0642 H   0  0  0  0  0  0  0  0  0  0  0  0
   -6.8168    1.3864  -24.3819 H   0  0  0  0  0  0  0  0  0  0  0  0
   -8.1697    2.5448  -24.4356 H   0  0  0  0  0  0  0  0  0  0  0  0
   -9.9919    0.9470  -24.1085 C   0  0  0  0  0  0  0  0  0  0  0  0
  -10.4124    2.0849  -24.2758 O   0  0  0  0  0  0  0  0  0  0  0  0
  -10.8413   -0.1178  -23.4761 C   0  0  0  0  0  0  0  0  0  0  0  0
  -12.2198    0.0772  -23.3974 C   0  0  0  0  0  0  0  0  0  0  0  0
  -13.0473   -0.8916  -22.8639 C   0  0  0  0  0  0  0  0  0  0  0  0
  -12.4585   -2.0144  -22.2850 C   0  0  0  0  0  0  0  0  0  0  0  0
  -13.2489   -2.9237  -21.6852 F   0  0  0  0  0  0  0  0  0  0  0  0
  -11.0892   -2.1884  -22.2675 C   0  0  0  0  0  0  0  0  0  0  0  0
  -10.2713   -1.2856  -22.9616 C   0  0  0  0  0  0  0  0  0  0  0  0
  -10.6824   -2.9582  -21.6200 H   0  0  0  0  0  0  0  0  0  0  0  0
  -14.1253   -0.7772  -22.8593 H   0  0  0  0  0  0  0  0  0  0  0  0
  -12.6393    1.0002  -23.7734 H   0  0  0  0  0  0  0  0  0  0  0  0
   -8.5585   -1.4044  -25.1707 H   0  0  0  0  0  0  0  0  0  0  0  0
   -7.1596   -0.7462  -24.3147 H   0  0  0  0  0  0  0  0  0  0  0  0
   -7.0297   -3.5258  -21.0428 H   0  0  0  0  0  0  0  0  0  0  0  0
   -6.0876   -2.7104  -22.2973 H   0  0  0  0  0  0  0  0  0  0  0  0
   -9.0038   -3.4130  -22.2331 H   0  0  0  0  0  0  0  0  0  0  0  0
   -7.5577   -4.6906  -23.7012 H   0  0  0  0  0  0  0  0  0  0  0  0
   -8.6994   -3.7545  -24.6883 H   0  0  0  0  0  0  0  0  0  0  0  0
   -7.0100   -3.2231  -24.5359 H   0  0  0  0  0  0  0  0  0  0  0  0
  1  2  1  0
  2  3  1  0
  3  4  1  0
  4  5  1  0
  5  6  2  0
  6  7  1  0
  7  8  2  0
  8  9  1  0
  9 10  2  0
 10 11  1  0
 11 12  2  0
 12 13  1  0
 13 14  2  0
 13 15  1  0
 12 16  1  0
 11 17  1  0
 10 18  1  0
  8 19  1  0
  6 20  1  0
  4 21  1  0
 21 22  2  0
 21 23  1  0
 23 24  1  6
 24 25  1  0
 25 26  1  0
 26 27  1  0
 27 28  2  0
 28 29  1  0
 29 30  2  0
 30 31  1  0
 31 32  1  0
 32 33  1  0
 32 34  1  0
 32 35  1  0
 30 36  1  0
 29 37  1  0
 26 38  1  0
 26 39  1  0
 25 40  1  0
 40 41  2  0
 40 42  1  0
 42 43  2  0
 43 44  1  0
 44 45  2  0
 45 46  1  0
 45 47  1  0
 47 48  2  0
 47 49  1  0
 44 50  1  0
 43 51  1  0
 24 52  1  0
 24 53  1  0
  3 54  1  0
  3 55  1  0
  2 56  1  1
  1 57  1  0
  1 58  1  0
  1 59  1  0
 23  2  1  0
 31 27  1  0
 48 42  1  0
 14  5  1  0
 48 23  1  0
 14  9  1  0
M  END
>  <cnnaffinities>  (5) 
[6.51156, 6.50388]

>  <score>  (5) 
6.51156

>  <index>  (5) 
4

>  <Smiles>  (5) 
C([C@]1(C(N(c2c(nc(c3c(c(c(c(c23)[H])[H])[H])[H])[H])[H])C(=O)[C@]21C(N(C(c1nc(c(n1C([H])([H])[H])[H])[H])([H])[H])C(=O)c1c(c(c(F)c(c21)[H])[H])[H])([H])[H])([H])[H])[H])([H])([H])[H]

>  <h>  (5) 
<NA>

>  <Training>  (5) 
True

>  <Success>  (5) 
True

>  <enamine_searched>  (5) 
False

>  <enamine_id>  (5) 
nan

$$$$

     RDKit          3D

 58 61  0  0  0  0  0  0  0  0999 V2000
   -5.2060   -3.1709  -22.4034 C   0  0  0  0  0  0  0  0  0  0  0  0
   -6.5272   -3.2928  -22.3250 C   0  0  0  0  0  0  0  0  0  0  0  0
   -7.4916   -2.8109  -21.2841 C   0  0  0  0  0  0  0  0  0  0  0  0
   -7.4578   -1.3597  -21.1540 N   0  0  0  0  0  0  0  0  0  0  0  0
   -8.2389   -0.4684  -21.8819 C   0  0  0  0  0  0  0  0  0  0  0  0
   -8.3222    0.6935  -21.5225 O   0  0  0  0  0  0  0  0  0  0  0  0
   -8.9788   -0.9680  -23.1434 C   0  0  2  0  0  0  0  0  0  0  0  0
   -8.5097   -0.1453  -24.3681 C   0  0  0  0  0  0  0  0  0  0  0  0
   -9.0140    1.2251  -24.3495 N   0  0  0  0  0  0  0  0  0  0  0  0
   -8.1793    2.2966  -24.8607 C   0  0  0  0  0  0  0  0  0  0  0  0
   -7.1445    2.7405  -23.8208 C   0  0  0  0  0  0  0  0  0  0  0  0
   -5.9630    2.4576  -23.9349 O   0  0  0  0  0  0  0  0  0  0  0  0
   -7.6241    3.4676  -22.7774 N   0  0  0  0  0  0  0  0  0  0  0  0
   -6.7190    3.7851  -21.6865 C   0  0  0  0  0  0  0  0  0  0  0  0
   -7.2804    4.3121  -20.9124 H   0  0  0  0  0  0  0  0  0  0  0  0
   -5.9145    4.4355  -22.0396 H   0  0  0  0  0  0  0  0  0  0  0  0
   -6.2581    2.8714  -21.2803 H   0  0  0  0  0  0  0  0  0  0  0  0
   -8.6117    3.4226  -22.5693 H   0  0  0  0  0  0  0  0  0  0  0  0
   -8.8440    3.1254  -25.1241 H   0  0  0  0  0  0  0  0  0  0  0  0
   -7.6484    1.9676  -25.7593 H   0  0  0  0  0  0  0  0  0  0  0  0
  -10.2551    1.5563  -23.8882 C   0  0  0  0  0  0  0  0  0  0  0  0
  -10.6996    2.6961  -23.9654 O   0  0  0  0  0  0  0  0  0  0  0  0
  -11.0605    0.4472  -23.2925 C   0  0  0  0  0  0  0  0  0  0  0  0
  -12.4179    0.6723  -23.0667 C   0  0  0  0  0  0  0  0  0  0  0  0
  -13.2060   -0.3174  -22.5139 C   0  0  0  0  0  0  0  0  0  0  0  0
  -12.6179   -1.5347  -22.1654 C   0  0  0  0  0  0  0  0  0  0  0  0
  -13.6058   -2.7758  -21.4374 Cl  0  0  0  0  0  0  0  0  0  0  0  0
  -11.2651   -1.7643  -22.3770 C   0  0  0  0  0  0  0  0  0  0  0  0
  -10.4727   -0.7710  -22.9595 C   0  0  0  0  0  0  0  0  0  0  0  0
  -10.8426   -2.7265  -22.0947 H   0  0  0  0  0  0  0  0  0  0  0  0
  -14.2658   -0.1545  -22.3476 H   0  0  0  0  0  0  0  0  0  0  0  0
  -12.8339    1.6369  -23.3391 H   0  0  0  0  0  0  0  0  0  0  0  0
   -7.4147   -0.0952  -24.3786 H   0  0  0  0  0  0  0  0  0  0  0  0
   -8.8481   -0.6538  -25.2813 H   0  0  0  0  0  0  0  0  0  0  0  0
   -8.7681   -2.0309  -23.3436 H   0  0  0  0  0  0  0  0  0  0  0  0
   -6.6249   -0.8086  -20.1496 C   0  0  0  0  0  0  0  0  0  0  0  0
   -6.9285   -1.0418  -18.8314 C   0  0  0  0  0  0  0  0  0  0  0  0
   -6.2295   -0.5422  -17.7919 N   0  0  0  0  0  0  0  0  0  0  0  0
   -5.1889    0.2047  -18.0748 C   0  0  0  0  0  0  0  0  0  0  0  0
   -4.7569    0.5120  -19.3943 C   0  0  0  0  0  0  0  0  0  0  0  0
   -3.6210    1.3236  -19.6450 C   0  0  0  0  0  0  0  0  0  0  0  0
   -3.2341    1.6140  -20.9251 C   0  0  0  0  0  0  0  0  0  0  0  0
   -3.9639    1.1012  -22.0191 C   0  0  0  0  0  0  0  0  0  0  0  0
   -5.0486    0.2823  -21.8035 C   0  0  0  0  0  0  0  0  0  0  0  0
   -5.4930   -0.0077  -20.4822 C   0  0  0  0  0  0  0  0  0  0  0  0
   -5.5800   -0.1459  -22.6523 H   0  0  0  0  0  0  0  0  0  0  0  0
   -3.6865    1.3802  -23.0304 H   0  0  0  0  0  0  0  0  0  0  0  0
   -2.3722    2.2536  -21.1021 H   0  0  0  0  0  0  0  0  0  0  0  0
   -3.0825    1.7205  -18.7908 H   0  0  0  0  0  0  0  0  0  0  0  0
   -4.6280    0.6093  -17.2338 H   0  0  0  0  0  0  0  0  0  0  0  0
   -7.8018   -1.6477  -18.5868 H   0  0  0  0  0  0  0  0  0  0  0  0
   -8.4716   -3.1443  -21.6295 H   0  0  0  0  0  0  0  0  0  0  0  0
   -7.2534   -3.2380  -20.3036 H   0  0  0  0  0  0  0  0  0  0  0  0
   -7.2521   -3.8876  -23.5061 C   0  0  0  0  0  0  0  0  0  0  0  0
   -8.4924   -3.8686  -23.4437 O   0  0  0  0  0  0  0  0  0  0  0  0
   -6.5278   -4.3050  -24.4357 O   0  0  0  0  0  1  0  0  0  0  0  0
   -4.7236   -3.6415  -23.2535 H   0  0  0  0  0  0  0  0  0  0  0  0
   -4.6262   -2.5883  -21.6851 H   0  0  0  0  0  0  0  0  0  0  0  0
  1  2  2  0
  2  3  1  0
  3  4  1  0
  4  5  1  0
  5  6  2  0
  5  7  1  0
  7  8  1  0
  8  9  1  0
  9 10  1  0
 10 11  1  0
 11 12  2  0
 11 13  1  0
 13 14  1  0
 14 15  1  0
 14 16  1  0
 14 17  1  0
 13 18  1  0
 10 19  1  0
 10 20  1  0
  9 21  1  0
 21 22  2  0
 21 23  1  0
 23 24  2  0
 24 25  1  0
 25 26  2  0
 26 27  1  0
 26 28  1  0
 28 29  2  0
 28 30  1  0
 25 31  1  0
 24 32  1  0
  8 33  1  0
  8 34  1  0
  7 35  1  6
  4 36  1  0
 36 37  2  0
 37 38  1  0
 38 39  2  0
 39 40  1  0
 40 41  2  0
 41 42  1  0
 42 43  2  0
 43 44  1  0
 44 45  2  0
 44 46  1  0
 43 47  1  0
 42 48  1  0
 41 49  1  0
 39 50  1  0
 37 51  1  0
  3 52  1  0
  3 53  1  0
  2 54  1  0
 54 55  2  0
 54 56  1  0
  1 57  1  0
  1 58  1  0
 29  7  1  0
 45 36  1  0
 29 23  1  0
 45 40  1  0
M  CHG  1  56  -1
M  END
>  <cnnaffinities>  (6) 
[6.66565, 6.43545]

>  <score>  (6) 
6.66565

>  <index>  (6) 
5

>  <Smiles>  (6) 
C(=C(C(N(C(=O)[C@@]1(C(N(C(C(=O)N(C([H])([H])[H])[H])([H])[H])C(=O)c2c(c(c(Cl)c(c12)[H])[H])[H])([H])[H])[H])c1c(nc(c2c(c(c(c(c12)[H])[H])[H])[H])[H])[H])([H])[H])C(=O)[O-])([H])[H]

>  <h>  (6) 
<NA>

>  <Training>  (6) 
True

>  <Success>  (6) 
True

>  <enamine_searched>  (6) 
False

>  <enamine_id>  (6) 
nan

$$$$

     RDKit          3D

 43 45  0  0  0  0  0  0  0  0999 V2000
  -14.7834   -2.2178  -23.0422 C   0  0  0  0  0  0  0  0  0  0  0  0
  -13.4489   -2.9046  -22.6960 C   0  0  0  0  0  0  0  0  0  0  0  0
  -12.1802   -2.2059  -23.2127 C   0  0  0  0  0  0  0  0  0  0  0  0
  -10.9133   -3.0368  -22.9423 C   0  0  0  0  0  0  0  0  0  0  0  0
   -9.6085   -2.2640  -23.2137 C   0  0  0  0  0  0  0  0  0  0  0  0
   -9.5913   -0.9671  -22.5233 N   0  0  0  0  0  0  0  0  0  0  0  0
   -8.6062   -0.4522  -21.7163 C   0  0  0  0  0  0  0  0  0  0  0  0
   -8.6010    0.7083  -21.3472 O   0  0  0  0  0  0  0  0  0  0  0  0
   -7.4975   -1.4246  -21.2797 C   0  0  0  0  0  0  0  0  0  0  0  0
   -6.6124   -0.8435  -20.2135 C   0  0  0  0  0  0  0  0  0  0  0  0
   -6.9156   -1.0638  -18.8962 C   0  0  0  0  0  0  0  0  0  0  0  0
   -6.2302   -0.5678  -17.8337 N   0  0  0  0  0  0  0  0  0  0  0  0
   -5.1959    0.1902  -18.0943 C   0  0  0  0  0  0  0  0  0  0  0  0
   -4.7573    0.5080  -19.4075 C   0  0  0  0  0  0  0  0  0  0  0  0
   -3.6255    1.3316  -19.6383 C   0  0  0  0  0  0  0  0  0  0  0  0
   -3.2422    1.6353  -20.9151 C   0  0  0  0  0  0  0  0  0  0  0  0
   -3.9775    1.1394  -22.0131 C   0  0  0  0  0  0  0  0  0  0  0  0
   -5.0766    0.3395  -21.8166 C   0  0  0  0  0  0  0  0  0  0  0  0
   -5.4915   -0.0100  -20.5034 C   0  0  0  0  0  0  0  0  0  0  0  0
   -5.6370   -0.0269  -22.6706 H   0  0  0  0  0  0  0  0  0  0  0  0
   -3.6648    1.3989  -23.0215 H   0  0  0  0  0  0  0  0  0  0  0  0
   -2.3820    2.2762  -21.0880 H   0  0  0  0  0  0  0  0  0  0  0  0
   -3.0835    1.7239  -18.7802 H   0  0  0  0  0  0  0  0  0  0  0  0
   -4.6440    0.5928  -17.2411 H   0  0  0  0  0  0  0  0  0  0  0  0
   -7.7769   -1.6811  -18.6434 H   0  0  0  0  0  0  0  0  0  0  0  0
   -7.9813   -2.3264  -20.8814 H   0  0  0  0  0  0  0  0  0  0  0  0
   -6.9076   -1.7324  -22.1532 H   0  0  0  0  0  0  0  0  0  0  0  0
  -10.7580   -0.1364  -22.8186 C   0  0  0  0  0  0  0  0  0  0  0  0
  -12.0079   -0.9132  -22.4408 C   0  0  0  0  0  0  0  0  0  0  0  0
  -11.9158   -1.2804  -21.4139 H   0  0  0  0  0  0  0  0  0  0  0  0
  -12.8919   -0.2710  -22.4740 H   0  0  0  0  0  0  0  0  0  0  0  0
  -10.6934    0.8075  -22.2666 H   0  0  0  0  0  0  0  0  0  0  0  0
  -10.7638    0.1012  -23.8951 H   0  0  0  0  0  0  0  0  0  0  0  0
   -8.7585   -2.8904  -22.9197 H   0  0  0  0  0  0  0  0  0  0  0  0
   -9.5053   -2.0746  -24.2950 H   0  0  0  0  0  0  0  0  0  0  0  0
  -10.9221   -3.3215  -21.8780 H   0  0  0  0  0  0  0  0  0  0  0  0
  -10.9236   -3.9661  -23.5265 H   0  0  0  0  0  0  0  0  0  0  0  0
  -12.2729   -1.9735  -24.2828 H   0  0  0  0  0  0  0  0  0  0  0  0
  -13.4585   -3.9544  -23.0074 H   0  0  0  0  0  0  0  0  0  0  0  0
  -13.3578   -2.9372  -21.6015 H   0  0  0  0  0  0  0  0  0  0  0  0
  -14.7909   -1.7760  -24.0482 H   0  0  0  0  0  0  0  0  0  0  0  0
  -15.0150   -1.4191  -22.3233 H   0  0  0  0  0  0  0  0  0  0  0  0
  -15.5891   -2.9565  -23.0043 H   0  0  0  0  0  0  0  0  0  0  0  0
  1  2  1  0
  2  3  1  0
  3  4  1  0
  4  5  1  0
  5  6  1  0
  6  7  1  0
  7  8  2  0
  7  9  1  0
  9 10  1  0
 10 11  2  0
 11 12  1  0
 12 13  2  0
 13 14  1  0
 14 15  2  0
 15 16  1  0
 16 17  2  0
 17 18  1  0
 18 19  2  0
 18 20  1  0
 17 21  1  0
 16 22  1  0
 15 23  1  0
 13 24  1  0
 11 25  1  0
  9 26  1  0
  9 27  1  0
  6 28  1  0
 28 29  1  0
 29 30  1  0
 29 31  1  0
 28 32  1  0
 28 33  1  0
  5 34  1  0
  5 35  1  0
  4 36  1  0
  4 37  1  0
  3 38  1  0
  2 39  1  0
  2 40  1  0
  1 41  1  0
  1 42  1  0
  1 43  1  0
 29  3  1  0
 19 10  1  0
 19 14  1  0
M  END
>  <cnnaffinities>  (7) 
[4.73169, 4.84809, 4.84659, 5.25928, 5.25928]

>  <score>  (7) 
4.73169

>  <index>  (7) 
6

>  <Smiles>  (7) 
C(C(C1(C(C(N(C(=O)C(c2c(nc(c3c(c(c(c(c23)[H])[H])[H])[H])[H])[H])([H])[H])C(C1([H])[H])([H])[H])([H])[H])([H])[H])[H])([H])[H])([H])([H])[H]

>  <h>  (7) 
<NA>

>  <Training>  (7) 
True

>  <Success>  (7) 
True

>  <enamine_searched>  (7) 
False

>  <enamine_id>  (7) 
nan

$$$$

     RDKit          3D

 44 47  0  0  0  0  0  0  0  0999 V2000
  -13.2423   -3.8028  -20.7071 C   0  0  0  0  0  0  0  0  0  0  0  0
  -13.6917   -3.4420  -22.1146 C   0  0  0  0  0  0  0  0  0  0  0  0
  -12.6240   -2.2880  -22.9998 S   0  0  0  0  0  0  0  0  0  0  0  0
  -13.1844   -2.1672  -24.3293 O   0  0  0  0  0  0  0  0  0  0  0  0
  -12.4938   -1.1118  -22.1431 O   0  0  0  0  0  0  0  0  0  0  0  0
  -11.0919   -2.9995  -23.2128 N   0  0  0  0  0  0  0  0  0  0  0  0
  -10.2265   -3.3826  -22.0712 C   0  0  0  0  0  0  0  0  0  0  0  0
   -9.0988   -2.4669  -22.5893 C   0  0  0  0  0  0  0  0  0  0  0  0
  -10.0462   -2.0457  -23.7189 C   0  0  0  0  0  0  0  0  0  0  0  0
   -9.6979   -2.2454  -24.7383 H   0  0  0  0  0  0  0  0  0  0  0  0
  -10.3701   -1.0087  -23.6265 H   0  0  0  0  0  0  0  0  0  0  0  0
   -8.7070   -1.3738  -21.6078 C   0  0  0  0  0  0  0  0  0  0  0  0
   -9.4071   -0.5303  -21.0947 O   0  0  0  0  0  0  0  0  0  0  0  0
   -7.3526   -1.5579  -21.3651 N   0  0  0  0  0  0  0  0  0  0  0  0
   -6.6401   -0.9182  -20.3154 C   0  0  0  0  0  0  0  0  0  0  0  0
   -7.0147   -1.1257  -19.0136 C   0  0  0  0  0  0  0  0  0  0  0  0
   -6.3468   -0.6259  -17.9460 N   0  0  0  0  0  0  0  0  0  0  0  0
   -5.2935    0.1174  -18.1776 C   0  0  0  0  0  0  0  0  0  0  0  0
   -4.8155    0.4334  -19.4807 C   0  0  0  0  0  0  0  0  0  0  0  0
   -3.6855    1.2712  -19.6771 C   0  0  0  0  0  0  0  0  0  0  0  0
   -3.2944    1.6132  -20.9429 C   0  0  0  0  0  0  0  0  0  0  0  0
   -4.0074    1.1239  -22.0630 C   0  0  0  0  0  0  0  0  0  0  0  0
   -5.0875    0.2891  -21.9004 C   0  0  0  0  0  0  0  0  0  0  0  0
   -5.5144   -0.0813  -20.5944 C   0  0  0  0  0  0  0  0  0  0  0  0
   -5.6392   -0.0827  -22.7602 H   0  0  0  0  0  0  0  0  0  0  0  0
   -3.7067    1.4246  -23.0628 H   0  0  0  0  0  0  0  0  0  0  0  0
   -2.4506    2.2842  -21.0943 H   0  0  0  0  0  0  0  0  0  0  0  0
   -3.1721    1.6563  -18.7992 H   0  0  0  0  0  0  0  0  0  0  0  0
   -4.7647    0.5251  -17.3130 H   0  0  0  0  0  0  0  0  0  0  0  0
   -7.8862   -1.7372  -18.7868 H   0  0  0  0  0  0  0  0  0  0  0  0
   -6.8324   -2.6536  -22.0877 C   0  0  0  0  0  0  0  0  0  0  0  0
   -5.7234   -3.1167  -21.9684 O   0  0  0  0  0  0  0  0  0  0  0  0
   -7.8303   -3.0732  -22.9266 N   0  0  0  0  0  0  0  0  0  0  0  0
   -7.6659   -4.2352  -23.7823 C   0  0  0  0  0  0  0  0  0  0  0  0
   -7.1590   -5.0356  -23.2391 H   0  0  0  0  0  0  0  0  0  0  0  0
   -8.6380   -4.5978  -24.1322 H   0  0  0  0  0  0  0  0  0  0  0  0
   -7.0447   -3.9889  -24.6459 H   0  0  0  0  0  0  0  0  0  0  0  0
   -9.9483   -4.4416  -22.0489 H   0  0  0  0  0  0  0  0  0  0  0  0
  -10.5887   -3.0323  -21.1111 H   0  0  0  0  0  0  0  0  0  0  0  0
  -14.6306   -2.8794  -22.0721 H   0  0  0  0  0  0  0  0  0  0  0  0
  -13.8679   -4.3010  -22.7689 H   0  0  0  0  0  0  0  0  0  0  0  0
  -12.2780   -4.3198  -20.6954 H   0  0  0  0  0  0  0  0  0  0  0  0
  -13.9922   -4.4679  -20.2618 H   0  0  0  0  0  0  0  0  0  0  0  0
  -13.1467   -2.8907  -20.1081 H   0  0  0  0  0  0  0  0  0  0  0  0
  1  2  1  0
  2  3  1  0
  3  4  2  0
  3  5  2  0
  3  6  1  0
  6  7  1  0
  7  8  1  0
  8  9  1  0
  9 10  1  0
  9 11  1  0
  8 12  1  0
 12 13  2  0
 12 14  1  0
 14 15  1  0
 15 16  2  0
 16 17  1  0
 17 18  2  0
 18 19  1  0
 19 20  2  0
 20 21  1  0
 21 22  2  0
 22 23  1  0
 23 24  2  0
 23 25  1  0
 22 26  1  0
 21 27  1  0
 20 28  1  0
 18 29  1  0
 16 30  1  0
 14 31  1  0
 31 32  2  0
 31 33  1  0
 33 34  1  0
 34 35  1  0
 34 36  1  0
 34 37  1  0
  7 38  1  0
  7 39  1  0
  2 40  1  0
  2 41  1  0
  1 42  1  0
  1 43  1  0
  1 44  1  0
  9  6  1  0
 24 15  1  0
 33  8  1  0
 24 19  1  0
M  END
>  <cnnaffinities>  (8) 
[5.82828, 5.12833, 5.13024, 5.12683, 5.19834, 5.26774, 5.21713]

>  <score>  (8) 
5.82828

>  <index>  (8) 
7

>  <Smiles>  (8) 
C(C(S(=O)(=O)N1C(C2(C1([H])[H])C(=O)N(c1c(nc(c3c(c(c(c(c13)[H])[H])[H])[H])[H])[H])C(=O)N2C([H])([H])[H])([H])[H])([H])[H])([H])([H])[H]

>  <h>  (8) 
<NA>

>  <Training>  (8) 
True

>  <Success>  (8) 
True

>  <enamine_searched>  (8) 
False

>  <enamine_id>  (8) 
nan

$$$$

     RDKit          3D

 60 64  0  0  0  0  0  0  0  0999 V2000
   -7.6108    3.1068  -21.9259 C   0  0  0  0  0  0  0  0  0  0  0  0
   -8.7463    2.6091  -22.6827 N   0  0  0  0  0  0  0  0  0  0  0  0
   -8.4501    1.8158  -23.7508 C   0  0  0  0  0  0  0  0  0  0  0  0
   -7.2951    1.5544  -24.0584 O   0  0  0  0  0  0  0  0  0  0  0  0
   -9.6190    1.2346  -24.5349 C   0  0  0  0  0  0  0  0  0  0  0  0
  -10.0720    0.0346  -23.8692 N   0  0  0  0  0  0  0  0  0  0  0  0
   -9.2261   -1.1498  -23.8934 C   0  0  0  0  0  0  0  0  0  0  0  0
   -9.3030   -1.9143  -22.5422 C   0  0  2  0  0  0  0  0  0  0  0  0
   -8.7045   -0.9899  -21.4436 C   0  0  0  0  0  0  0  0  0  0  0  0
   -9.2340   -0.0156  -20.9444 O   0  0  0  0  0  0  0  0  0  0  0  0
   -7.4195   -1.4172  -21.1716 N   0  0  0  0  0  0  0  0  0  0  0  0
   -6.6208   -0.8218  -20.1624 C   0  0  0  0  0  0  0  0  0  0  0  0
   -6.9234   -1.0400  -18.8411 C   0  0  0  0  0  0  0  0  0  0  0  0
   -6.2083   -0.5498  -17.8006 N   0  0  0  0  0  0  0  0  0  0  0  0
   -5.1693    0.1941  -18.0823 C   0  0  0  0  0  0  0  0  0  0  0  0
   -4.7435    0.5063  -19.4033 C   0  0  0  0  0  0  0  0  0  0  0  0
   -3.6239    1.3430  -19.6491 C   0  0  0  0  0  0  0  0  0  0  0  0
   -3.2602    1.6542  -20.9284 C   0  0  0  0  0  0  0  0  0  0  0  0
   -4.0012    1.1538  -22.0213 C   0  0  0  0  0  0  0  0  0  0  0  0
   -5.0925    0.3430  -21.8122 C   0  0  0  0  0  0  0  0  0  0  0  0
   -5.4878   -0.0130  -20.4928 C   0  0  0  0  0  0  0  0  0  0  0  0
   -5.6815    0.0206  -22.6662 H   0  0  0  0  0  0  0  0  0  0  0  0
   -3.7077    1.4170  -23.0329 H   0  0  0  0  0  0  0  0  0  0  0  0
   -2.4084    2.3020  -21.1087 H   0  0  0  0  0  0  0  0  0  0  0  0
   -3.0857    1.7446  -18.7936 H   0  0  0  0  0  0  0  0  0  0  0  0
   -4.5993    0.5995  -17.2437 H   0  0  0  0  0  0  0  0  0  0  0  0
   -7.7840   -1.6556  -18.5928 H   0  0  0  0  0  0  0  0  0  0  0  0
   -6.9961   -2.5570  -21.9680 C   0  0  0  0  0  0  0  0  0  0  0  0
   -8.3338   -3.1248  -22.4855 C   0  0  2  0  0  0  0  0  0  0  0  0
   -8.1917   -3.9163  -23.7850 C   0  0  0  0  0  0  0  0  0  0  0  0
   -7.4231   -5.0834  -23.5993 O   0  0  0  0  0  0  0  0  0  0  0  0
   -8.1820   -6.2457  -23.3986 C   0  0  0  0  0  0  0  0  0  0  0  0
   -8.7482   -6.5165  -24.3009 H   0  0  0  0  0  0  0  0  0  0  0  0
   -8.8863   -6.1358  -22.5626 H   0  0  0  0  0  0  0  0  0  0  0  0
   -7.4883   -7.0567  -23.1658 H   0  0  0  0  0  0  0  0  0  0  0  0
   -7.6625   -3.2978  -24.5244 H   0  0  0  0  0  0  0  0  0  0  0  0
   -9.1862   -4.1475  -24.2027 H   0  0  0  0  0  0  0  0  0  0  0  0
   -8.6871   -3.8016  -21.7003 H   0  0  0  0  0  0  0  0  0  0  0  0
   -6.3408   -2.2471  -22.7981 H   0  0  0  0  0  0  0  0  0  0  0  0
   -6.4467   -3.2801  -21.3569 H   0  0  0  0  0  0  0  0  0  0  0  0
  -10.7789   -2.2076  -22.3056 C   0  0  0  0  0  0  0  0  0  0  0  0
  -11.2472   -3.3185  -21.5989 C   0  0  0  0  0  0  0  0  0  0  0  0
  -12.5847   -3.3871  -21.2435 C   0  0  0  0  0  0  0  0  0  0  0  0
  -13.1183   -4.4699  -20.0085 Cl  0  0  0  0  0  0  0  0  0  0  0  0
  -13.5391   -2.5079  -21.7393 C   0  0  0  0  0  0  0  0  0  0  0  0
  -13.0952   -1.4421  -22.4808 C   0  0  0  0  0  0  0  0  0  0  0  0
  -11.7337   -1.2508  -22.6902 C   0  0  0  0  0  0  0  0  0  0  0  0
  -11.3123    0.0386  -23.3123 C   0  0  0  0  0  0  0  0  0  0  0  0
  -12.0292    1.0317  -23.3187 O   0  0  0  0  0  0  0  0  0  0  0  0
  -13.7981   -0.7189  -22.8705 H   0  0  0  0  0  0  0  0  0  0  0  0
  -14.5795   -2.6368  -21.4619 H   0  0  0  0  0  0  0  0  0  0  0  0
  -10.5737   -4.0921  -21.2458 H   0  0  0  0  0  0  0  0  0  0  0  0
   -8.1997   -0.8284  -24.1005 H   0  0  0  0  0  0  0  0  0  0  0  0
   -9.5458   -1.8132  -24.7075 H   0  0  0  0  0  0  0  0  0  0  0  0
  -10.4585    1.9291  -24.5903 H   0  0  0  0  0  0  0  0  0  0  0  0
   -9.2952    0.9845  -25.5514 H   0  0  0  0  0  0  0  0  0  0  0  0
   -9.6072    2.4820  -22.1572 H   0  0  0  0  0  0  0  0  0  0  0  0
   -7.9305    3.8756  -21.2217 H   0  0  0  0  0  0  0  0  0  0  0  0
   -6.9086    3.5783  -22.6175 H   0  0  0  0  0  0  0  0  0  0  0  0
   -7.0977    2.2906  -21.3889 H   0  0  0  0  0  0  0  0  0  0  0  0
  1  2  1  0
  2  3  1  0
  3  4  2  0
  3  5  1  0
  5  6  1  0
  6  7  1  0
  8  7  1  6
  8  9  1  0
  9 10  2  0
  9 11  1  0
 11 12  1  0
 12 13  2  0
 13 14  1  0
 14 15  2  0
 15 16  1  0
 16 17  2  0
 17 18  1  0
 18 19  2  0
 19 20  1  0
 20 21  2  0
 20 22  1  0
 19 23  1  0
 18 24  1  0
 17 25  1  0
 15 26  1  0
 13 27  1  0
 11 28  1  0
 28 29  1  0
 29 30  1  0
 30 31  1  0
 31 32  1  0
 32 33  1  0
 32 34  1  0
 32 35  1  0
 30 36  1  0
 30 37  1  0
 29 38  1  1
 28 39  1  0
 28 40  1  0
  8 41  1  0
 41 42  2  0
 42 43  1  0
 43 44  1  0
 43 45  2  0
 45 46  1  0
 46 47  2  0
 47 48  1  0
 48 49  2  0
 46 50  1  0
 45 51  1  0
 42 52  1  0
  7 53  1  0
  7 54  1  0
  5 55  1  0
  5 56  1  0
  2 57  1  0
  1 58  1  0
  1 59  1  0
  1 60  1  0
 48  6  1  0
 29  8  1  0
 47 41  1  0
 21 12  1  0
 21 16  1  0
M  END
>  <cnnaffinities>  (9) 
[6.56779]

>  <score>  (9) 
6.56779

>  <index>  (9) 
8

>  <Smiles>  (9) 
C(N(C(=O)C(N1C([C@@]2(C(=O)N(c3c(nc(c4c(c(c(c(c34)[H])[H])[H])[H])[H])[H])C([C@@]2(C(OC([H])([H])[H])([H])[H])[H])([H])[H])c2c(c(Cl)c(c(c2C1=O)[H])[H])[H])([H])[H])([H])[H])[H])([H])([H])[H]

>  <h>  (9) 
<NA>

>  <Training>  (9) 
True

>  <Success>  (9) 
True

>  <enamine_searched>  (9) 
False

>  <enamine_id>  (9) 
nan

$$$$

     RDKit          3D

 41 43  0  0  0  0  0  0  0  0999 V2000
  -13.1736   -2.9110  -22.7511 C   0  0  0  0  0  0  0  0  0  0  0  0
  -11.9767   -2.0551  -23.1739 C   0  0  1  0  0  0  0  0  0  0  0  0
  -12.1510   -0.6453  -22.6476 C   0  0  0  0  0  0  0  0  0  0  0  0
  -11.2980    0.3651  -22.8331 C   0  0  0  0  0  0  0  0  0  0  0  0
   -9.9719    0.2356  -23.5683 C   0  0  0  0  0  0  0  0  0  0  0  0
   -9.0787   -0.7776  -23.0115 N   0  0  0  0  0  0  0  0  0  0  0  0
   -8.3616   -0.3909  -21.9023 C   0  0  0  0  0  0  0  0  0  0  0  0
   -8.4691    0.7337  -21.4439 O   0  0  0  0  0  0  0  0  0  0  0  0
   -7.4213   -1.4279  -21.2735 C   0  0  0  0  0  0  0  0  0  0  0  0
   -6.5738   -0.8333  -20.1843 C   0  0  0  0  0  0  0  0  0  0  0  0
   -6.8840   -1.0392  -18.8662 C   0  0  0  0  0  0  0  0  0  0  0  0
   -6.1962   -0.5364  -17.8094 N   0  0  0  0  0  0  0  0  0  0  0  0
   -5.1605    0.2184  -18.0753 C   0  0  0  0  0  0  0  0  0  0  0  0
   -4.7233    0.5293  -19.3902 C   0  0  0  0  0  0  0  0  0  0  0  0
   -3.5968    1.3561  -19.6258 C   0  0  0  0  0  0  0  0  0  0  0  0
   -3.2109    1.6513  -20.9050 C   0  0  0  0  0  0  0  0  0  0  0  0
   -3.9377    1.1323  -21.9982 C   0  0  0  0  0  0  0  0  0  0  0  0
   -5.0302    0.3242  -21.7955 C   0  0  0  0  0  0  0  0  0  0  0  0
   -5.4541    0.0014  -20.4784 C   0  0  0  0  0  0  0  0  0  0  0  0
   -5.5861   -0.0698  -22.6403 H   0  0  0  0  0  0  0  0  0  0  0  0
   -3.6321    1.3814  -23.0101 H   0  0  0  0  0  0  0  0  0  0  0  0
   -2.3599    2.3029  -21.0803 H   0  0  0  0  0  0  0  0  0  0  0  0
   -3.0730    1.7648  -18.7663 H   0  0  0  0  0  0  0  0  0  0  0  0
   -4.6119    0.6211  -17.2234 H   0  0  0  0  0  0  0  0  0  0  0  0
   -7.7350   -1.6601  -18.5877 H   0  0  0  0  0  0  0  0  0  0  0  0
   -6.8076   -1.8971  -22.0553 H   0  0  0  0  0  0  0  0  0  0  0  0
   -8.0495   -2.2283  -20.8577 H   0  0  0  0  0  0  0  0  0  0  0  0
   -9.3822   -2.1572  -23.3758 C   0  0  0  0  0  0  0  0  0  0  0  0
  -10.6575   -2.7165  -22.7237 C   0  0  0  0  0  0  0  0  0  0  0  0
  -10.5848   -2.6557  -21.6271 H   0  0  0  0  0  0  0  0  0  0  0  0
  -10.7279   -3.7778  -22.9871 H   0  0  0  0  0  0  0  0  0  0  0  0
   -8.5175   -2.7880  -23.1378 H   0  0  0  0  0  0  0  0  0  0  0  0
   -9.4996   -2.1788  -24.4720 H   0  0  0  0  0  0  0  0  0  0  0  0
  -10.1070   -0.0638  -24.6146 H   0  0  0  0  0  0  0  0  0  0  0  0
   -9.4434    1.1951  -23.5422 H   0  0  0  0  0  0  0  0  0  0  0  0
  -11.5305    1.3448  -22.4077 H   0  0  0  0  0  0  0  0  0  0  0  0
  -13.0416   -0.4738  -22.0360 H   0  0  0  0  0  0  0  0  0  0  0  0
  -11.9389   -2.0163  -24.2759 H   0  0  0  0  0  0  0  0  0  0  0  0
  -13.0483   -3.9577  -23.0534 H   0  0  0  0  0  0  0  0  0  0  0  0
  -13.3062   -2.8751  -21.6631 H   0  0  0  0  0  0  0  0  0  0  0  0
  -14.0883   -2.5270  -23.2105 H   0  0  0  0  0  0  0  0  0  0  0  0
  1  2  1  0
  2  3  1  0
  3  4  2  0
  4  5  1  0
  5  6  1  0
  6  7  1  0
  7  8  2  0
  7  9  1  0
  9 10  1  0
 10 11  2  0
 11 12  1  0
 12 13  2  0
 13 14  1  0
 14 15  2  0
 15 16  1  0
 16 17  2  0
 17 18  1  0
 18 19  2  0
 18 20  1  0
 17 21  1  0
 16 22  1  0
 15 23  1  0
 13 24  1  0
 11 25  1  0
  9 26  1  0
  9 27  1  0
  6 28  1  0
 28 29  1  0
 29 30  1  0
 29 31  1  0
 28 32  1  0
 28 33  1  0
  5 34  1  0
  5 35  1  0
  4 36  1  0
  3 37  1  0
  2 38  1  6
  1 39  1  0
  1 40  1  0
  1 41  1  0
 29  2  1  0
 19 10  1  0
 19 14  1  0
M  END
>  <cnnaffinities>  (10) 
[5.08029, 5.21566]

>  <score>  (10) 
5.08029

>  <index>  (10) 
9

>  <Smiles>  (10) 
C([C@]1(C(=C(C(N(C(=O)C(c2c(nc(c3c(c(c(c(c23)[H])[H])[H])[H])[H])[H])([H])[H])C(C1([H])[H])([H])[H])([H])[H])[H])[H])[H])([H])([H])[H]

>  <h>  (10) 
<NA>

>  <Training>  (10) 
True

>  <Success>  (10) 
True

>  <enamine_searched>  (10) 
False

>  <enamine_id>  (10) 
nan

$$$$

     RDKit          3D

 57 62  0  0  0  0  0  0  0  0999 V2000
  -10.3193   -0.9622  -23.4380 C   0  0  0  0  0  0  0  0  0  0  0  0
   -8.9170   -1.3293  -22.9633 C   0  0  1  0  0  0  0  0  0  0  0  0
   -8.3477   -0.4123  -21.8712 C   0  0  0  0  0  0  0  0  0  0  0  0
   -7.3481   -1.2537  -21.2318 N   0  0  0  0  0  0  0  0  0  0  0  0
   -6.5329   -0.8026  -20.1740 C   0  0  0  0  0  0  0  0  0  0  0  0
   -6.8225   -1.1111  -18.8710 C   0  0  0  0  0  0  0  0  0  0  0  0
   -6.1498   -0.5926  -17.8139 N   0  0  0  0  0  0  0  0  0  0  0  0
   -5.1514    0.2184  -18.0618 C   0  0  0  0  0  0  0  0  0  0  0  0
   -4.7046    0.5600  -19.3729 C   0  0  0  0  0  0  0  0  0  0  0  0
   -3.5879    1.4008  -19.6213 C   0  0  0  0  0  0  0  0  0  0  0  0
   -3.2106    1.6948  -20.9043 C   0  0  0  0  0  0  0  0  0  0  0  0
   -3.9169    1.1555  -22.0027 C   0  0  0  0  0  0  0  0  0  0  0  0
   -4.9904    0.3296  -21.7893 C   0  0  0  0  0  0  0  0  0  0  0  0
   -5.4163    0.0313  -20.4690 C   0  0  0  0  0  0  0  0  0  0  0  0
   -5.5246   -0.1160  -22.6218 H   0  0  0  0  0  0  0  0  0  0  0  0
   -3.6113    1.3995  -23.0172 H   0  0  0  0  0  0  0  0  0  0  0  0
   -2.3634    2.3489  -21.0903 H   0  0  0  0  0  0  0  0  0  0  0  0
   -3.0464    1.8141  -18.7758 H   0  0  0  0  0  0  0  0  0  0  0  0
   -4.6364    0.6389  -17.1965 H   0  0  0  0  0  0  0  0  0  0  0  0
   -7.6346   -1.7980  -18.6365 H   0  0  0  0  0  0  0  0  0  0  0  0
   -7.5865   -2.5956  -21.4024 C   0  0  0  0  0  0  0  0  0  0  0  0
   -6.9428   -3.4743  -20.8596 O   0  0  0  0  0  0  0  0  0  0  0  0
   -8.7800   -2.7604  -22.3500 C   0  0  1  0  0  0  0  0  0  0  0  0
   -9.9935   -3.1310  -21.4578 C   0  0  0  0  0  0  0  0  0  0  0  0
  -11.1335   -3.6715  -22.1803 N   0  0  0  0  0  0  0  0  0  0  0  0
  -12.4781   -3.6614  -21.5866 C   0  0  0  0  0  0  0  0  0  0  0  0
  -13.3809   -2.5715  -22.0604 C   0  0  0  0  0  0  0  0  0  0  0  0
  -14.0921   -1.6262  -21.4078 C   0  0  0  0  0  0  0  0  0  0  0  0
  -14.8565   -0.9553  -22.3384 N   0  0  0  0  0  4  0  0  0  0  0  0
  -14.6009   -1.4777  -23.5463 C   0  0  0  0  0  0  0  0  0  0  0  0
  -13.7020   -2.4625  -23.3985 N   0  0  0  0  0  0  0  0  0  0  0  0
  -13.3326   -3.0838  -24.1134 H   0  0  0  0  0  0  0  0  0  0  0  0
  -15.0425   -1.1788  -24.4807 H   0  0  0  0  0  0  0  0  0  0  0  0
  -15.4802   -0.1870  -22.1074 H   0  0  0  0  0  0  0  0  0  0  0  0
  -14.1081   -1.3558  -20.3698 H   0  0  0  0  0  0  0  0  0  0  0  0
  -12.9337   -4.6055  -21.8874 H   0  0  0  0  0  0  0  0  0  0  0  0
  -12.4552   -3.6618  -20.5005 H   0  0  0  0  0  0  0  0  0  0  0  0
  -10.9347   -4.5640  -23.1934 C   0  0  0  0  0  0  0  0  0  0  0  0
  -11.8538   -5.2481  -23.6083 O   0  0  0  0  0  0  0  0  0  0  0  0
   -9.5687   -4.6710  -23.7888 C   0  0  0  0  0  0  0  0  0  0  0  0
   -9.3644   -5.6530  -24.7589 C   0  0  0  0  0  0  0  0  0  0  0  0
   -8.1210   -5.8358  -25.3291 C   0  0  0  0  0  0  0  0  0  0  0  0
   -7.0879   -5.0131  -24.9014 C   0  0  0  0  0  0  0  0  0  0  0  0
   -5.8800   -5.1807  -25.4625 F   0  0  0  0  0  0  0  0  0  0  0  0
   -7.2589   -4.0379  -23.9390 C   0  0  0  0  0  0  0  0  0  0  0  0
   -8.5261   -3.8448  -23.3695 C   0  0  0  0  0  0  0  0  0  0  0  0
   -6.3966   -3.4535  -23.6399 H   0  0  0  0  0  0  0  0  0  0  0  0
   -7.9291   -6.5894  -26.0857 H   0  0  0  0  0  0  0  0  0  0  0  0
  -10.2104   -6.2728  -25.0339 H   0  0  0  0  0  0  0  0  0  0  0  0
   -9.6262   -3.8575  -20.7284 H   0  0  0  0  0  0  0  0  0  0  0  0
  -10.3445   -2.2474  -20.9163 H   0  0  0  0  0  0  0  0  0  0  0  0
   -7.8829    0.4921  -22.2706 H   0  0  0  0  0  0  0  0  0  0  0  0
   -9.1224   -0.1093  -21.1466 H   0  0  0  0  0  0  0  0  0  0  0  0
   -8.2299   -1.2985  -23.8219 H   0  0  0  0  0  0  0  0  0  0  0  0
  -11.0520   -1.0142  -22.6223 H   0  0  0  0  0  0  0  0  0  0  0  0
  -10.6455   -1.6638  -24.2134 H   0  0  0  0  0  0  0  0  0  0  0  0
  -10.3415    0.0516  -23.8493 H   0  0  0  0  0  0  0  0  0  0  0  0
  1  2  1  0
  2  3  1  0
  3  4  1  0
  4  5  1  0
  5  6  2  0
  6  7  1  0
  7  8  2  0
  8  9  1  0
  9 10  2  0
 10 11  1  0
 11 12  2  0
 12 13  1  0
 13 14  2  0
 13 15  1  0
 12 16  1  0
 11 17  1  0
 10 18  1  0
  8 19  1  0
  6 20  1  0
  4 21  1  0
 21 22  2  0
 21 23  1  0
 23 24  1  1
 24 25  1  0
 25 26  1  0
 26 27  1  0
 27 28  2  0
 28 29  1  0
 29 30  2  0
 30 31  1  0
 31 32  1  0
 30 33  1  0
 29 34  1  0
 28 35  1  0
 26 36  1  0
 26 37  1  0
 25 38  1  0
 38 39  2  0
 38 40  1  0
 40 41  2  0
 41 42  1  0
 42 43  2  0
 43 44  1  0
 43 45  1  0
 45 46  2  0
 45 47  1  0
 42 48  1  0
 41 49  1  0
 24 50  1  0
 24 51  1  0
  3 52  1  0
  3 53  1  0
  2 54  1  6
  1 55  1  0
  1 56  1  0
  1 57  1  0
 23  2  1  0
 31 27  1  0
 46 40  1  0
 14  5  1  0
 46 23  1  0
 14  9  1  0
M  CHG  1  29   1
M  END
>  <cnnaffinities>  (11) 
[6.72976]

>  <score>  (11) 
6.72976

>  <index>  (11) 
10

>  <Smiles>  (11) 
C([C@]1(C(N(c2c(nc(c3c(c(c(c(c23)[H])[H])[H])[H])[H])[H])C(=O)[C@]21C(N(C(c1c([n+](c(n1[H])[H])[H])[H])([H])[H])C(=O)c1c(c(c(F)c(c21)[H])[H])[H])([H])[H])([H])[H])[H])([H])([H])[H]

>  <h>  (11) 
<NA>

>  <Training>  (11) 
True

>  <Success>  (11) 
True

>  <enamine_searched>  (11) 
False

>  <enamine_id>  (11) 
nan

$$$$

     RDKit          3D

 48 52  0  0  0  0  0  0  0  0999 V2000
   -9.6807   -0.9307  -24.0221 C   0  0  0  0  0  0  0  0  0  0  0  0
   -8.6802   -1.3718  -23.0792 N   0  0  0  0  0  0  0  0  0  0  0  0
   -8.4406   -0.7221  -21.8928 C   0  0  0  0  0  0  0  0  0  0  0  0
   -9.0217    0.2411  -21.4461 O   0  0  0  0  0  0  0  0  0  0  0  0
   -7.3665   -1.3934  -21.2804 N   0  0  0  0  0  0  0  0  0  0  0  0
   -6.5882   -0.8256  -20.2227 C   0  0  0  0  0  0  0  0  0  0  0  0
   -6.9091   -1.0613  -18.9116 C   0  0  0  0  0  0  0  0  0  0  0  0
   -6.2139   -0.5584  -17.8603 N   0  0  0  0  0  0  0  0  0  0  0  0
   -5.1773    0.2010  -18.1035 C   0  0  0  0  0  0  0  0  0  0  0  0
   -4.7244    0.5226  -19.4105 C   0  0  0  0  0  0  0  0  0  0  0  0
   -3.5949    1.3520  -19.6372 C   0  0  0  0  0  0  0  0  0  0  0  0
   -3.2031    1.6503  -20.9127 C   0  0  0  0  0  0  0  0  0  0  0  0
   -3.9269    1.1330  -22.0100 C   0  0  0  0  0  0  0  0  0  0  0  0
   -5.0190    0.3285  -21.8121 C   0  0  0  0  0  0  0  0  0  0  0  0
   -5.4476   -0.0016  -20.5023 C   0  0  0  0  0  0  0  0  0  0  0  0
   -5.5764   -0.0595  -22.6561 H   0  0  0  0  0  0  0  0  0  0  0  0
   -3.6256    1.3770  -23.0210 H   0  0  0  0  0  0  0  0  0  0  0  0
   -2.3518    2.3003  -21.0908 H   0  0  0  0  0  0  0  0  0  0  0  0
   -3.0741    1.7630  -18.7782 H   0  0  0  0  0  0  0  0  0  0  0  0
   -4.6402    0.6011  -17.2437 H   0  0  0  0  0  0  0  0  0  0  0  0
   -7.7581   -1.6832  -18.6412 H   0  0  0  0  0  0  0  0  0  0  0  0
   -6.9225   -2.4599  -22.0695 C   0  0  0  0  0  0  0  0  0  0  0  0
   -6.0088   -3.1917  -21.7938 O   0  0  0  0  0  0  0  0  0  0  0  0
   -7.7877   -2.4703  -23.3265 C   0  0  0  0  0  0  0  0  0  0  0  0
   -7.0002   -2.5103  -24.6628 C   0  0  0  0  0  0  0  0  0  0  0  0
   -7.5808   -3.8563  -24.9793 N   0  0  0  0  0  0  0  0  0  0  0  0
   -8.4201   -3.9151  -26.4416 S   0  0  0  0  0  0  0  0  0  0  0  0
   -9.4701   -2.8990  -26.4039 O   0  0  0  0  0  0  0  0  0  0  0  0
   -7.4261   -3.9063  -27.5016 O   0  0  0  0  0  0  0  0  0  0  0  0
   -9.2574   -5.4694  -26.4378 C   0  0  0  0  0  0  0  0  0  0  0  0
   -8.6662   -6.6254  -25.9492 C   0  0  0  0  0  0  0  0  0  0  0  0
   -9.3686   -7.8236  -26.0412 C   0  0  0  0  0  0  0  0  0  0  0  0
  -10.6294   -7.8747  -26.6320 C   0  0  0  0  0  0  0  0  0  0  0  0
  -11.2024   -6.7032  -27.1221 C   0  0  0  0  0  0  0  0  0  0  0  0
  -10.5164   -5.5056  -27.0256 C   0  0  0  0  0  0  0  0  0  0  0  0
  -10.9572   -4.6036  -27.4233 H   0  0  0  0  0  0  0  0  0  0  0  0
  -12.1677   -6.6683  -27.6107 H   0  0  0  0  0  0  0  0  0  0  0  0
  -11.1344   -8.8342  -26.7308 H   0  0  0  0  0  0  0  0  0  0  0  0
   -8.9165   -8.7364  -25.6786 H   0  0  0  0  0  0  0  0  0  0  0  0
   -7.6664   -6.5860  -25.5288 H   0  0  0  0  0  0  0  0  0  0  0  0
   -8.3911   -3.8387  -23.7361 C   0  0  0  0  0  0  0  0  0  0  0  0
   -9.4798   -3.8599  -23.8741 H   0  0  0  0  0  0  0  0  0  0  0  0
   -8.0861   -4.6555  -23.0827 H   0  0  0  0  0  0  0  0  0  0  0  0
   -5.9206   -2.5879  -24.5349 H   0  0  0  0  0  0  0  0  0  0  0  0
   -7.2308   -1.7112  -25.3792 H   0  0  0  0  0  0  0  0  0  0  0  0
   -9.2140   -0.5563  -24.9420 H   0  0  0  0  0  0  0  0  0  0  0  0
  -10.3422   -1.7642  -24.2834 H   0  0  0  0  0  0  0  0  0  0  0  0
  -10.2359   -0.1264  -23.5352 H   0  0  0  0  0  0  0  0  0  0  0  0
  1  2  1  0
  2  3  1  0
  3  4  2  0
  3  5  1  0
  5  6  1  0
  6  7  2  0
  7  8  1  0
  8  9  2  0
  9 10  1  0
 10 11  2  0
 11 12  1  0
 12 13  2  0
 13 14  1  0
 14 15  2  0
 14 16  1  0
 13 17  1  0
 12 18  1  0
 11 19  1  0
  9 20  1  0
  7 21  1  0
  5 22  1  0
 22 23  2  0
 22 24  1  0
 24 25  1  0
 25 26  1  0
 26 27  1  0
 27 28  2  0
 27 29  2  0
 27 30  1  0
 30 31  2  0
 31 32  1  0
 32 33  2  0
 33 34  1  0
 34 35  2  0
 35 36  1  0
 34 37  1  0
 33 38  1  0
 32 39  1  0
 31 40  1  0
 26 41  1  0
 41 42  1  0
 41 43  1  0
 25 44  1  0
 25 45  1  0
  1 46  1  0
  1 47  1  0
  1 48  1  0
 24  2  1  0
 35 30  1  0
 15  6  1  0
 41 24  1  0
 15 10  1  0
M  END
>  <cnnaffinities>  (12) 
[5.50215, 5.50223, 5.5081]

>  <score>  (12) 
5.50215

>  <index>  (12) 
11

>  <Smiles>  (12) 
C(N1C(=O)N(c2c(nc(c3c(c(c(c(c23)[H])[H])[H])[H])[H])[H])C(=O)C21C(N(S(=O)(=O)c1c(c(c(c(c1[H])[H])[H])[H])[H])C2([H])[H])([H])[H])([H])([H])[H]

>  <h>  (12) 
<NA>

>  <Training>  (12) 
True

>  <Success>  (12) 
True

>  <enamine_searched>  (12) 
False

>  <enamine_id>  (12) 
nan

$$$$

     RDKit          3D

 76 82  0  0  0  0  0  0  0  0999 V2000
  -10.5453    1.8790  -24.0960 O   0  0  0  0  0  0  0  0  0  0  0  0
  -10.0695    0.7494  -24.0027 C   0  0  0  0  0  0  0  0  0  0  0  0
  -10.8699   -0.3856  -23.4576 C   0  0  0  0  0  0  0  0  0  0  0  0
  -12.2550   -0.2697  -23.4396 C   0  0  0  0  0  0  0  0  0  0  0  0
  -13.0533   -1.3027  -22.9945 C   0  0  0  0  0  0  0  0  0  0  0  0
  -12.4257   -2.4191  -22.4470 C   0  0  0  0  0  0  0  0  0  0  0  0
  -13.3781   -3.6839  -21.7330 Cl  0  0  0  0  0  0  0  0  0  0  0  0
  -11.0488   -2.5248  -22.3988 C   0  0  0  0  0  0  0  0  0  0  0  0
  -10.2586   -1.5489  -23.0010 C   0  0  0  0  0  0  0  0  0  0  0  0
   -8.7581   -1.6057  -22.9903 C   0  0  1  0  0  0  0  0  0  0  0  0
   -8.2390   -0.8694  -24.2574 C   0  0  0  0  0  0  0  0  0  0  0  0
   -8.7875    0.4656  -24.3651 N   0  0  0  0  0  0  0  0  0  0  0  0
   -7.9328    1.5866  -24.7066 C   0  0  0  0  0  0  0  0  0  0  0  0
   -7.8201    2.5456  -23.5159 C   0  0  0  0  0  0  0  0  0  0  0  0
   -7.3145    3.8836  -23.8765 N   0  0  0  0  0  4  0  0  0  0  0  0
   -8.3489    4.7707  -24.5292 C   0  0  0  0  0  0  0  0  0  0  0  0
   -7.6461    6.0635  -24.9776 C   0  0  0  0  0  0  0  0  0  0  0  0
   -6.4721    6.2455  -24.2113 O   0  0  0  0  0  0  0  0  0  0  0  0
   -5.4666    5.3310  -24.6108 C   0  0  0  0  0  0  0  0  0  0  0  0
   -6.0085    3.8878  -24.6145 C   0  0  0  0  0  0  0  0  0  0  0  0
   -5.3119    3.2123  -24.1101 H   0  0  0  0  0  0  0  0  0  0  0  0
   -6.1515    3.5210  -25.6350 H   0  0  0  0  0  0  0  0  0  0  0  0
   -5.0894    5.5964  -25.6098 H   0  0  0  0  0  0  0  0  0  0  0  0
   -4.6502    5.4463  -23.8917 H   0  0  0  0  0  0  0  0  0  0  0  0
   -7.3998    6.0280  -26.0503 H   0  0  0  0  0  0  0  0  0  0  0  0
   -8.2872    6.9320  -24.8062 H   0  0  0  0  0  0  0  0  0  0  0  0
   -8.8150    4.2552  -25.3727 H   0  0  0  0  0  0  0  0  0  0  0  0
   -9.1252    4.9824  -23.7851 H   0  0  0  0  0  0  0  0  0  0  0  0
   -7.1087    4.3657  -22.9857 H   0  0  0  0  0  0  0  0  0  0  0  0
   -7.1580    2.1072  -22.7628 H   0  0  0  0  0  0  0  0  0  0  0  0
   -8.8015    2.6781  -23.0559 H   0  0  0  0  0  0  0  0  0  0  0  0
   -6.9521    1.1744  -24.9807 H   0  0  0  0  0  0  0  0  0  0  0  0
   -8.3242    2.1094  -25.5901 H   0  0  0  0  0  0  0  0  0  0  0  0
   -8.5035   -1.4653  -25.1438 H   0  0  0  0  0  0  0  0  0  0  0  0
   -7.1469   -0.7742  -24.1907 H   0  0  0  0  0  0  0  0  0  0  0  0
   -8.3092   -0.8459  -21.7332 C   0  0  0  0  0  0  0  0  0  0  0  0
   -8.7621    0.1906  -21.2855 O   0  0  0  0  0  0  0  0  0  0  0  0
   -7.2767   -1.5394  -21.1649 N   0  0  0  0  0  0  0  0  0  0  0  0
   -6.5201   -0.9027  -20.1595 C   0  0  0  0  0  0  0  0  0  0  0  0
   -6.8780   -1.0721  -18.8503 C   0  0  0  0  0  0  0  0  0  0  0  0
   -6.2008   -0.5458  -17.8056 N   0  0  0  0  0  0  0  0  0  0  0  0
   -5.1635    0.2055  -18.0787 C   0  0  0  0  0  0  0  0  0  0  0  0
   -4.7218    0.5079  -19.3988 C   0  0  0  0  0  0  0  0  0  0  0  0
   -3.6077    1.3527  -19.6382 C   0  0  0  0  0  0  0  0  0  0  0  0
   -3.2333    1.6629  -20.9150 C   0  0  0  0  0  0  0  0  0  0  0  0
   -3.9600    1.1511  -22.0130 C   0  0  0  0  0  0  0  0  0  0  0  0
   -5.0339    0.3190  -21.8095 C   0  0  0  0  0  0  0  0  0  0  0  0
   -5.4340   -0.0373  -20.4885 C   0  0  0  0  0  0  0  0  0  0  0  0
   -5.5879   -0.0523  -22.6672 H   0  0  0  0  0  0  0  0  0  0  0  0
   -3.6634    1.4181  -23.0239 H   0  0  0  0  0  0  0  0  0  0  0  0
   -2.3841    2.3149  -21.0910 H   0  0  0  0  0  0  0  0  0  0  0  0
   -3.0833    1.7629  -18.7803 H   0  0  0  0  0  0  0  0  0  0  0  0
   -4.6165    0.6198  -17.2316 H   0  0  0  0  0  0  0  0  0  0  0  0
   -7.7562   -1.6691  -18.6165 H   0  0  0  0  0  0  0  0  0  0  0  0
   -6.8946   -2.7443  -21.8743 C   0  0  0  0  0  0  0  0  0  0  0  0
   -8.0929   -3.0015  -22.8081 C   0  0  2  0  0  0  0  0  0  0  0  0
   -7.6954   -3.7264  -24.1035 C   0  0  0  0  0  0  0  0  0  0  0  0
   -7.2785   -5.0917  -23.8479 N   0  0  0  0  0  0  0  0  0  0  0  0
   -6.7576   -5.8809  -24.8233 C   0  0  0  0  0  0  0  0  0  0  0  0
   -6.1525   -7.0131  -24.4045 N   0  0  0  0  0  0  0  0  0  0  0  0
   -5.7185   -7.8225  -25.3610 C   0  0  0  0  0  0  0  0  0  0  0  0
   -5.8631   -7.5484  -26.7189 C   0  0  0  0  0  0  0  0  0  0  0  0
   -6.4635   -6.3366  -27.0248 C   0  0  0  0  0  0  0  0  0  0  0  0
   -6.9028   -5.4862  -26.0986 N   0  0  0  0  0  0  0  0  0  0  0  0
   -6.5956   -6.0247  -28.0624 H   0  0  0  0  0  0  0  0  0  0  0  0
   -5.5396   -8.2362  -27.4911 H   0  0  0  0  0  0  0  0  0  0  0  0
   -5.2405   -8.7486  -25.0340 H   0  0  0  0  0  0  0  0  0  0  0  0
   -7.0743   -5.4069  -22.9129 H   0  0  0  0  0  0  0  0  0  0  0  0
   -6.8742   -3.1876  -24.6070 H   0  0  0  0  0  0  0  0  0  0  0  0
   -8.5432   -3.7573  -24.8005 H   0  0  0  0  0  0  0  0  0  0  0  0
   -8.7968   -3.6452  -22.2687 H   0  0  0  0  0  0  0  0  0  0  0  0
   -5.9653   -2.6001  -22.4489 H   0  0  0  0  0  0  0  0  0  0  0  0
   -6.7267   -3.5547  -21.1607 H   0  0  0  0  0  0  0  0  0  0  0  0
  -10.6122   -3.3227  -21.8111 H   0  0  0  0  0  0  0  0  0  0  0  0
  -14.1350   -1.2616  -23.0821 H   0  0  0  0  0  0  0  0  0  0  0  0
  -12.6618    0.6533  -23.8196 H   0  0  0  0  0  0  0  0  0  0  0  0
  1  2  2  0
  2  3  1  0
  3  4  2  0
  4  5  1  0
  5  6  2  0
  6  7  1  0
  6  8  1  0
  8  9  2  0
  9 10  1  0
 10 11  1  6
 11 12  1  0
 12 13  1  0
 13 14  1  0
 14 15  1  0
 15 16  1  0
 16 17  1  0
 17 18  1  0
 18 19  1  0
 19 20  1  0
 20 21  1  0
 20 22  1  0
 19 23  1  0
 19 24  1  0
 17 25  1  0
 17 26  1  0
 16 27  1  0
 16 28  1  0
 15 29  1  0
 14 30  1  0
 14 31  1  0
 13 32  1  0
 13 33  1  0
 11 34  1  0
 11 35  1  0
 10 36  1  0
 36 37  2  0
 36 38  1  0
 38 39  1  0
 39 40  2  0
 40 41  1  0
 41 42  2  0
 42 43  1  0
 43 44  2  0
 44 45  1  0
 45 46  2  0
 46 47  1  0
 47 48  2  0
 47 49  1  0
 46 50  1  0
 45 51  1  0
 44 52  1  0
 42 53  1  0
 40 54  1  0
 38 55  1  0
 55 56  1  0
 56 57  1  0
 57 58  1  0
 58 59  1  0
 59 60  2  0
 60 61  1  0
 61 62  2  0
 62 63  1  0
 63 64  2  0
 63 65  1  0
 62 66  1  0
 61 67  1  0
 58 68  1  0
 57 69  1  0
 57 70  1  0
 56 71  1  1
 55 72  1  0
 55 73  1  0
  8 74  1  0
  5 75  1  0
  4 76  1  0
 12  2  1  0
 20 15  1  0
 48 39  1  0
 64 59  1  0
  9  3  1  0
 56 10  1  0
 48 43  1  0
M  CHG  1  15   1
M  END
>  <cnnaffinities>  (13) 
[6.83172, 6.90447]

>  <score>  (13) 
6.83172

>  <index>  (13) 
12

>  <Smiles>  (13) 
O=C1c2c(c(c(Cl)c(c2[C@@]2(C(N1C(C([N+]1(C(C(OC(C1([H])[H])([H])[H])([H])[H])([H])[H])[H])([H])[H])([H])[H])([H])[H])C(=O)N(c1c(nc(c3c(c(c(c(c13)[H])[H])[H])[H])[H])[H])C([C@@]2(C(N(c1nc(c(c(n1)[H])[H])[H])[H])([H])[H])[H])([H])[H])[H])[H])[H]

>  <h>  (13) 
<NA>

>  <Training>  (13) 
True

>  <Success>  (13) 
True

>  <enamine_searched>  (13) 
False

>  <enamine_id>  (13) 
nan

$$$$

     RDKit          3D

 69 74  0  0  0  0  0  0  0  0999 V2000
   -4.9871   -4.0289  -19.4043 C   0  0  0  0  0  0  0  0  0  0  0  0
   -6.1266   -4.7249  -19.9690 N   0  0  0  0  0  0  0  0  0  0  0  0
   -5.9444   -5.7395  -20.8648 C   0  0  0  0  0  0  0  0  0  0  0  0
   -4.8522   -6.2475  -21.0607 O   0  0  0  0  0  0  0  0  0  0  0  0
   -7.2043   -6.2137  -21.6185 C   0  0  0  0  0  0  0  0  0  0  0  0
   -7.5580   -5.3058  -22.6964 N   0  0  0  0  0  0  0  0  0  0  0  0
   -8.4864   -4.2152  -22.4954 C   0  0  0  0  0  0  0  0  0  0  0  0
   -7.9270   -2.8611  -23.0105 C   0  0  2  0  0  0  0  0  0  0  0  0
   -6.7926   -2.3593  -22.0947 C   0  0  0  0  0  0  0  0  0  0  0  0
   -5.6332   -2.7291  -22.0835 O   0  0  0  0  0  0  0  0  0  0  0  0
   -7.3045   -1.4138  -21.2378 N   0  0  0  0  0  0  0  0  0  0  0  0
   -6.5516   -0.8410  -20.1991 C   0  0  0  0  0  0  0  0  0  0  0  0
   -6.9044   -1.0536  -18.8886 C   0  0  0  0  0  0  0  0  0  0  0  0
   -6.2161   -0.5647  -17.8324 N   0  0  0  0  0  0  0  0  0  0  0  0
   -5.1662    0.1805  -18.0846 C   0  0  0  0  0  0  0  0  0  0  0  0
   -4.7130    0.4969  -19.3973 C   0  0  0  0  0  0  0  0  0  0  0  0
   -3.5875    1.3311  -19.6217 C   0  0  0  0  0  0  0  0  0  0  0  0
   -3.2093    1.6602  -20.8946 C   0  0  0  0  0  0  0  0  0  0  0  0
   -3.9344    1.1712  -22.0035 C   0  0  0  0  0  0  0  0  0  0  0  0
   -5.0187    0.3519  -21.8153 C   0  0  0  0  0  0  0  0  0  0  0  0
   -5.4259   -0.0143  -20.4997 C   0  0  0  0  0  0  0  0  0  0  0  0
   -5.5735   -0.0273  -22.6677 H   0  0  0  0  0  0  0  0  0  0  0  0
   -3.6342    1.4492  -23.0096 H   0  0  0  0  0  0  0  0  0  0  0  0
   -2.3581    2.3141  -21.0590 H   0  0  0  0  0  0  0  0  0  0  0  0
   -3.0596    1.7232  -18.7576 H   0  0  0  0  0  0  0  0  0  0  0  0
   -4.6202    0.5740  -17.2296 H   0  0  0  0  0  0  0  0  0  0  0  0
   -7.7758   -1.6612  -18.6493 H   0  0  0  0  0  0  0  0  0  0  0  0
   -8.7255   -1.2027  -21.3954 C   0  0  0  0  0  0  0  0  0  0  0  0
   -8.9720   -1.7471  -22.8048 C   0  0  2  0  0  0  0  0  0  0  0  0
  -10.4105   -2.1565  -23.0280 C   0  0  0  0  0  0  0  0  0  0  0  0
  -11.2520   -0.9922  -23.0021 N   0  0  0  0  0  0  0  0  0  0  0  0
  -12.5843   -1.1203  -23.1331 C   0  0  0  0  0  0  0  0  0  0  0  0
  -13.4368   -0.0042  -23.0028 C   0  0  0  0  0  0  0  0  0  0  0  0
  -14.7717   -0.3065  -22.9761 C   0  0  0  0  0  0  0  0  0  0  0  0
  -15.2566   -1.5376  -23.1558 N   0  0  0  0  0  0  0  0  0  0  0  0
  -14.3829   -2.4945  -23.4221 C   0  0  0  0  0  0  0  0  0  0  0  0
  -14.9447   -3.8323  -23.8222 C   0  0  0  0  0  0  0  0  0  0  0  0
  -14.7785   -4.0156  -24.8895 H   0  0  0  0  0  0  0  0  0  0  0  0
  -14.4788   -4.6263  -23.2354 H   0  0  0  0  0  0  0  0  0  0  0  0
  -16.0213   -3.8616  -23.6880 H   0  0  0  0  0  0  0  0  0  0  0  0
  -13.0526   -2.3572  -23.3660 N   0  0  0  0  0  0  0  0  0  0  0  0
  -15.5114    0.4703  -22.8033 H   0  0  0  0  0  0  0  0  0  0  0  0
  -13.0698    1.0138  -22.8786 H   0  0  0  0  0  0  0  0  0  0  0  0
  -10.8491   -0.0722  -22.9207 H   0  0  0  0  0  0  0  0  0  0  0  0
  -10.5410   -2.7074  -23.9679 H   0  0  0  0  0  0  0  0  0  0  0  0
  -10.7332   -2.8507  -22.2405 H   0  0  0  0  0  0  0  0  0  0  0  0
   -8.7314   -0.9367  -23.4923 H   0  0  0  0  0  0  0  0  0  0  0  0
   -9.3112   -1.7587  -20.6501 H   0  0  0  0  0  0  0  0  0  0  0  0
   -8.9680   -0.1397  -21.2975 H   0  0  0  0  0  0  0  0  0  0  0  0
   -7.4375   -3.0587  -24.4288 C   0  0  0  0  0  0  0  0  0  0  0  0
   -7.3274   -1.9836  -25.3240 C   0  0  0  0  0  0  0  0  0  0  0  0
   -6.8142   -2.1827  -26.5928 C   0  0  0  0  0  0  0  0  0  0  0  0
   -6.6608   -0.8155  -27.6670 Cl  0  0  0  0  0  0  0  0  0  0  0  0
   -6.4034   -3.4447  -27.0202 C   0  0  0  0  0  0  0  0  0  0  0  0
   -6.4922   -4.5061  -26.1395 C   0  0  0  0  0  0  0  0  0  0  0  0
   -6.9872   -4.3178  -24.8494 C   0  0  0  0  0  0  0  0  0  0  0  0
   -6.9475   -5.4903  -23.9115 C   0  0  0  0  0  0  0  0  0  0  0  0
   -6.3815   -6.5344  -24.2011 O   0  0  0  0  0  0  0  0  0  0  0  0
   -6.1631   -5.5014  -26.4206 H   0  0  0  0  0  0  0  0  0  0  0  0
   -6.0103   -3.5781  -28.0217 H   0  0  0  0  0  0  0  0  0  0  0  0
   -7.6236   -0.9781  -25.0505 H   0  0  0  0  0  0  0  0  0  0  0  0
   -9.4143   -4.4326  -23.0422 H   0  0  0  0  0  0  0  0  0  0  0  0
   -8.7359   -4.1373  -21.4324 H   0  0  0  0  0  0  0  0  0  0  0  0
   -6.9724   -7.1754  -22.0761 H   0  0  0  0  0  0  0  0  0  0  0  0
   -8.0681   -6.3508  -20.9552 H   0  0  0  0  0  0  0  0  0  0  0  0
   -6.9784   -4.1810  -20.0360 H   0  0  0  0  0  0  0  0  0  0  0  0
   -4.2324   -4.7824  -19.2456 H   0  0  0  0  0  0  0  0  0  0  0  0
   -5.2572   -3.5571  -18.4508 H   0  0  0  0  0  0  0  0  0  0  0  0
   -4.6044   -3.2664  -20.0932 H   0  0  0  0  0  0  0  0  0  0  0  0
  1  2  1  0
  2  3  1  0
  3  4  2  0
  3  5  1  0
  5  6  1  0
  6  7  1  0
  8  7  1  1
  8  9  1  0
  9 10  2  0
  9 11  1  0
 11 12  1  0
 12 13  2  0
 13 14  1  0
 14 15  2  0
 15 16  1  0
 16 17  2  0
 17 18  1  0
 18 19  2  0
 19 20  1  0
 20 21  2  0
 20 22  1  0
 19 23  1  0
 18 24  1  0
 17 25  1  0
 15 26  1  0
 13 27  1  0
 11 28  1  0
 28 29  1  0
 29 30  1  0
 30 31  1  0
 31 32  1  0
 32 33  2  0
 33 34  1  0
 34 35  2  0
 35 36  1  0
 36 37  1  0
 37 38  1  0
 37 39  1  0
 37 40  1  0
 36 41  2  0
 34 42  1  0
 33 43  1  0
 31 44  1  0
 30 45  1  0
 30 46  1  0
 29 47  1  6
 28 48  1  0
 28 49  1  0
  8 50  1  0
 50 51  2  0
 51 52  1  0
 52 53  1  0
 52 54  2  0
 54 55  1  0
 55 56  2  0
 56 57  1  0
 57 58  2  0
 55 59  1  0
 54 60  1  0
 51 61  1  0
  7 62  1  0
  7 63  1  0
  5 64  1  0
  5 65  1  0
  2 66  1  0
  1 67  1  0
  1 68  1  0
  1 69  1  0
 57  6  1  0
 29  8  1  0
 41 32  1  0
 56 50  1  0
 21 12  1  0
 21 16  1  0
M  END
>  <cnnaffinities>  (14) 
[6.75945]

>  <score>  (14) 
6.75945

>  <index>  (14) 
13

>  <Smiles>  (14) 
C(N(C(=O)C(N1C([C@@]2(C(=O)N(c3c(nc(c4c(c(c(c(c34)[H])[H])[H])[H])[H])[H])C([C@@]2(C(N(c2c(c(nc(C([H])([H])[H])n2)[H])[H])[H])([H])[H])[H])([H])[H])c2c(c(Cl)c(c(c2C1=O)[H])[H])[H])([H])[H])([H])[H])[H])([H])([H])[H]

>  <h>  (14) 
<NA>

>  <Training>  (14) 
True

>  <Success>  (14) 
True

>  <enamine_searched>  (14) 
False

>  <enamine_id>  (14) 
nan

$$$$

     RDKit          3D

 73 78  0  0  0  0  0  0  0  0999 V2000
   -7.6102   -4.1242  -23.6767 C   0  0  0  0  0  0  0  0  0  0  0  0
   -8.0720   -3.2686  -22.4943 C   0  0  1  0  0  0  0  0  0  0  0  0
   -6.8583   -2.8027  -21.6765 C   0  0  0  0  0  0  0  0  0  0  0  0
   -7.2891   -1.5597  -21.0658 N   0  0  0  0  0  0  0  0  0  0  0  0
   -6.5402   -0.8695  -20.0676 C   0  0  0  0  0  0  0  0  0  0  0  0
   -6.8673   -1.0192  -18.7470 C   0  0  0  0  0  0  0  0  0  0  0  0
   -6.1702   -0.4774  -17.7150 N   0  0  0  0  0  0  0  0  0  0  0  0
   -5.1258    0.2580  -18.0002 C   0  0  0  0  0  0  0  0  0  0  0  0
   -4.6824    0.5258  -19.3260 C   0  0  0  0  0  0  0  0  0  0  0  0
   -3.5686    1.3632  -19.5954 C   0  0  0  0  0  0  0  0  0  0  0  0
   -3.2199    1.6610  -20.8828 C   0  0  0  0  0  0  0  0  0  0  0  0
   -3.9646    1.1307  -21.9584 C   0  0  0  0  0  0  0  0  0  0  0  0
   -5.0284    0.2943  -21.7257 C   0  0  0  0  0  0  0  0  0  0  0  0
   -5.4168   -0.0356  -20.3999 C   0  0  0  0  0  0  0  0  0  0  0  0
   -5.6076   -0.0980  -22.5569 H   0  0  0  0  0  0  0  0  0  0  0  0
   -3.6958    1.3970  -22.9751 H   0  0  0  0  0  0  0  0  0  0  0  0
   -2.3840    2.3248  -21.0849 H   0  0  0  0  0  0  0  0  0  0  0  0
   -3.0271    1.7925  -18.7573 H   0  0  0  0  0  0  0  0  0  0  0  0
   -4.5774    0.6926  -17.1620 H   0  0  0  0  0  0  0  0  0  0  0  0
   -7.7352   -1.6132  -18.4676 H   0  0  0  0  0  0  0  0  0  0  0  0
   -8.4893   -1.0879  -21.5528 C   0  0  0  0  0  0  0  0  0  0  0  0
   -9.0551   -0.1008  -21.1214 O   0  0  0  0  0  0  0  0  0  0  0  0
   -8.8910   -1.9624  -22.7665 C   0  0  1  0  0  0  0  0  0  0  0  0
   -8.4609   -1.1780  -24.0303 C   0  0  0  0  0  0  0  0  0  0  0  0
   -8.8165   -1.8323  -25.2845 N   0  0  0  0  0  0  0  0  0  0  0  0
   -8.3552   -1.1331  -26.4957 C   0  0  0  0  0  0  0  0  0  0  0  0
   -7.9088   -2.0114  -27.6725 C   0  0  0  0  0  0  0  0  0  0  0  0
   -6.9275   -3.0734  -27.3010 N   0  0  0  0  0  4  0  0  0  0  0  0
   -6.8880   -4.1691  -28.3479 C   0  0  0  0  0  0  0  0  0  0  0  0
   -5.9318   -5.2866  -27.9442 C   0  0  0  0  0  0  0  0  0  0  0  0
   -4.5699   -4.7981  -27.6824 N   0  0  0  0  0  0  0  0  0  0  0  0
   -3.6175   -4.5825  -29.0609 S   0  0  0  0  0  0  0  0  0  0  0  0
   -3.8573   -3.2701  -29.6466 O   0  0  0  0  0  0  0  0  0  0  0  0
   -3.7561   -5.7682  -29.8857 O   0  0  0  0  0  0  0  0  0  0  0  0
   -1.9682   -4.5815  -28.3907 C   0  0  0  0  0  0  0  0  0  0  0  0
   -1.8544   -5.4257  -27.7091 H   0  0  0  0  0  0  0  0  0  0  0  0
   -1.7578   -3.6401  -27.8801 H   0  0  0  0  0  0  0  0  0  0  0  0
   -1.2883   -4.6978  -29.2374 H   0  0  0  0  0  0  0  0  0  0  0  0
   -4.5725   -3.6959  -26.7139 C   0  0  0  0  0  0  0  0  0  0  0  0
   -5.5200   -2.5555  -27.0815 C   0  0  0  0  0  0  0  0  0  0  0  0
   -5.1715   -2.0836  -28.0036 H   0  0  0  0  0  0  0  0  0  0  0  0
   -5.5220   -1.8064  -26.2881 H   0  0  0  0  0  0  0  0  0  0  0  0
   -3.5558   -3.3230  -26.5799 H   0  0  0  0  0  0  0  0  0  0  0  0
   -4.8788   -4.1334  -25.7567 H   0  0  0  0  0  0  0  0  0  0  0  0
   -6.2806   -5.7520  -27.0143 H   0  0  0  0  0  0  0  0  0  0  0  0
   -5.8736   -6.0554  -28.7172 H   0  0  0  0  0  0  0  0  0  0  0  0
   -7.8963   -4.5692  -28.4788 H   0  0  0  0  0  0  0  0  0  0  0  0
   -6.5705   -3.7373  -29.3061 H   0  0  0  0  0  0  0  0  0  0  0  0
   -7.2867   -3.4740  -26.4086 H   0  0  0  0  0  0  0  0  0  0  0  0
   -7.4635   -1.3552  -28.4388 H   0  0  0  0  0  0  0  0  0  0  0  0
   -8.7751   -2.4990  -28.1228 H   0  0  0  0  0  0  0  0  0  0  0  0
   -9.1383   -0.4641  -26.8787 H   0  0  0  0  0  0  0  0  0  0  0  0
   -7.5195   -0.5018  -26.1894 H   0  0  0  0  0  0  0  0  0  0  0  0
  -10.0748   -2.4003  -25.3799 C   0  0  0  0  0  0  0  0  0  0  0  0
  -10.4357   -2.9214  -26.4247 O   0  0  0  0  0  0  0  0  0  0  0  0
  -10.9534   -2.3069  -24.1508 C   0  0  0  0  0  0  0  0  0  0  0  0
  -12.3459   -2.3057  -24.2765 C   0  0  0  0  0  0  0  0  0  0  0  0
  -13.1870   -2.3993  -23.1854 C   0  0  0  0  0  0  0  0  0  0  0  0
  -12.5940   -2.4007  -21.9237 C   0  0  0  0  0  0  0  0  0  0  0  0
  -13.6311   -2.6986  -20.5567 Cl  0  0  0  0  0  0  0  0  0  0  0  0
  -11.2293   -2.2077  -21.7661 C   0  0  0  0  0  0  0  0  0  0  0  0
  -10.3827   -2.1714  -22.8847 C   0  0  0  0  0  0  0  0  0  0  0  0
  -10.8291   -2.0007  -20.7827 H   0  0  0  0  0  0  0  0  0  0  0  0
  -14.2666   -2.4715  -23.3236 H   0  0  0  0  0  0  0  0  0  0  0  0
  -12.7666   -2.2415  -25.2749 H   0  0  0  0  0  0  0  0  0  0  0  0
   -8.9280   -0.1859  -23.9570 H   0  0  0  0  0  0  0  0  0  0  0  0
   -7.3775   -1.0355  -24.0199 H   0  0  0  0  0  0  0  0  0  0  0  0
   -6.5700   -3.5408  -20.9187 H   0  0  0  0  0  0  0  0  0  0  0  0
   -5.9947   -2.6523  -22.3438 H   0  0  0  0  0  0  0  0  0  0  0  0
   -8.7155   -3.8849  -21.8524 H   0  0  0  0  0  0  0  0  0  0  0  0
   -6.9091   -3.5537  -24.3024 H   0  0  0  0  0  0  0  0  0  0  0  0
   -7.0760   -5.0005  -23.2859 H   0  0  0  0  0  0  0  0  0  0  0  0
   -8.4355   -4.4727  -24.3083 H   0  0  0  0  0  0  0  0  0  0  0  0
  1  2  1  0
  2  3  1  0
  3  4  1  0
  4  5  1  0
  5  6  2  0
  6  7  1  0
  7  8  2  0
  8  9  1  0
  9 10  2  0
 10 11  1  0
 11 12  2  0
 12 13  1  0
 13 14  2  0
 13 15  1  0
 12 16  1  0
 11 17  1  0
 10 18  1  0
  8 19  1  0
  6 20  1  0
  4 21  1  0
 21 22  2  0
 21 23  1  0
 23 24  1  6
 24 25  1  0
 25 26  1  0
 26 27  1  0
 27 28  1  0
 28 29  1  0
 29 30  1  0
 30 31  1  0
 31 32  1  0
 32 33  2  0
 32 34  2  0
 32 35  1  0
 35 36  1  0
 35 37  1  0
 35 38  1  0
 31 39  1  0
 39 40  1  0
 40 41  1  0
 40 42  1  0
 39 43  1  0
 39 44  1  0
 30 45  1  0
 30 46  1  0
 29 47  1  0
 29 48  1  0
 28 49  1  0
 27 50  1  0
 27 51  1  0
 26 52  1  0
 26 53  1  0
 25 54  1  0
 54 55  2  0
 54 56  1  0
 56 57  2  0
 57 58  1  0
 58 59  2  0
 59 60  1  0
 59 61  1  0
 61 62  2  0
 61 63  1  0
 58 64  1  0
 57 65  1  0
 24 66  1  0
 24 67  1  0
  3 68  1  0
  3 69  1  0
  2 70  1  1
  1 71  1  0
  1 72  1  0
  1 73  1  0
 23  2  1  0
 40 28  1  0
 62 56  1  0
 14  5  1  0
 62 23  1  0
 14  9  1  0
M  CHG  1  28   1
M  END
>  <cnnaffinities>  (15) 
[6.7189]

>  <score>  (15) 
6.7189

>  <index>  (15) 
14

>  <Smiles>  (15) 
C([C@]1(C(N(c2c(nc(c3c(c(c(c(c23)[H])[H])[H])[H])[H])[H])C(=O)[C@]21C(N(C(C([N+]1(C(C(N(S(=O)(=O)C([H])([H])[H])C(C1([H])[H])([H])[H])([H])[H])([H])[H])[H])([H])[H])([H])[H])C(=O)c1c(c(c(Cl)c(c21)[H])[H])[H])([H])[H])([H])[H])[H])([H])([H])[H]

>  <h>  (15) 
<NA>

>  <Training>  (15) 
True

>  <Success>  (15) 
True

>  <enamine_searched>  (15) 
False

>  <enamine_id>  (15) 
nan

$$$$

     RDKit          3D

 63 68  0  0  0  0  0  0  0  0999 V2000
   -7.6098    3.2375  -21.8329 C   0  0  0  0  0  0  0  0  0  0  0  0
   -8.6971    2.7610  -22.6642 N   0  0  0  0  0  0  0  0  0  0  0  0
   -8.3291    1.9903  -23.7187 C   0  0  0  0  0  0  0  0  0  0  0  0
   -7.1515    1.7632  -23.9679 O   0  0  0  0  0  0  0  0  0  0  0  0
   -9.4285    1.3913  -24.5855 C   0  0  0  0  0  0  0  0  0  0  0  0
   -9.9200    0.1845  -23.9572 N   0  0  0  0  0  0  0  0  0  0  0  0
   -9.1051   -1.0225  -23.9629 C   0  0  0  0  0  0  0  0  0  0  0  0
   -9.2431   -1.7988  -22.6220 C   0  0  2  0  0  0  0  0  0  0  0  0
   -8.6515   -0.9292  -21.4862 C   0  0  0  0  0  0  0  0  0  0  0  0
   -9.1710    0.0351  -20.9619 O   0  0  0  0  0  0  0  0  0  0  0  0
   -7.3944   -1.4075  -21.1861 N   0  0  0  0  0  0  0  0  0  0  0  0
   -6.6037   -0.8188  -20.1715 C   0  0  0  0  0  0  0  0  0  0  0  0
   -6.9154   -1.0421  -18.8538 C   0  0  0  0  0  0  0  0  0  0  0  0
   -6.2069   -0.5515  -17.8111 N   0  0  0  0  0  0  0  0  0  0  0  0
   -5.1690    0.1988  -18.0844 C   0  0  0  0  0  0  0  0  0  0  0  0
   -4.7383    0.5163  -19.4025 C   0  0  0  0  0  0  0  0  0  0  0  0
   -3.6166    1.3510  -19.6449 C   0  0  0  0  0  0  0  0  0  0  0  0
   -3.2483    1.6614  -20.9238 C   0  0  0  0  0  0  0  0  0  0  0  0
   -3.9833    1.1588  -22.0181 C   0  0  0  0  0  0  0  0  0  0  0  0
   -5.0748    0.3468  -21.8129 C   0  0  0  0  0  0  0  0  0  0  0  0
   -5.4746   -0.0031  -20.4939 C   0  0  0  0  0  0  0  0  0  0  0  0
   -5.6528    0.0049  -22.6666 H   0  0  0  0  0  0  0  0  0  0  0  0
   -3.6848    1.4171  -23.0294 H   0  0  0  0  0  0  0  0  0  0  0  0
   -2.3942    2.3072  -21.1020 H   0  0  0  0  0  0  0  0  0  0  0  0
   -3.0809    1.7524  -18.7898 H   0  0  0  0  0  0  0  0  0  0  0  0
   -4.6058    0.5999  -17.2410 H   0  0  0  0  0  0  0  0  0  0  0  0
   -7.7771   -1.6576  -18.6070 H   0  0  0  0  0  0  0  0  0  0  0  0
   -6.9968   -2.5663  -21.9611 C   0  0  0  0  0  0  0  0  0  0  0  0
   -8.3290   -3.0514  -22.5597 C   0  0  2  0  0  0  0  0  0  0  0  0
   -8.1405   -3.8122  -23.8775 C   0  0  0  0  0  0  0  0  0  0  0  0
   -7.4098   -5.0504  -23.6831 N   0  0  0  0  0  0  0  0  0  0  0  0
   -6.0742   -5.2393  -23.7815 C   0  0  0  0  0  0  0  0  0  0  0  0
   -5.8291   -6.5495  -23.4424 C   0  0  0  0  0  0  0  0  0  0  0  0
   -7.1024   -7.0719  -23.1446 C   0  0  0  0  0  0  0  0  0  0  0  0
   -8.0528   -6.1542  -23.2791 N   0  0  0  0  0  0  0  0  0  0  0  0
   -7.3653   -8.0815  -22.8447 H   0  0  0  0  0  0  0  0  0  0  0  0
   -4.8778   -7.0599  -23.4193 H   0  0  0  0  0  0  0  0  0  0  0  0
   -5.4042   -4.4427  -24.0822 H   0  0  0  0  0  0  0  0  0  0  0  0
   -7.5853   -3.1973  -24.5946 H   0  0  0  0  0  0  0  0  0  0  0  0
   -9.1059   -4.0699  -24.3200 H   0  0  0  0  0  0  0  0  0  0  0  0
   -8.7590   -3.7531  -21.8403 H   0  0  0  0  0  0  0  0  0  0  0  0
   -6.5396   -3.3257  -21.3204 H   0  0  0  0  0  0  0  0  0  0  0  0
   -6.2662   -2.3073  -22.7472 H   0  0  0  0  0  0  0  0  0  0  0  0
  -10.7248   -2.0278  -22.3961 C   0  0  0  0  0  0  0  0  0  0  0  0
  -11.2200   -3.1051  -21.6572 C   0  0  0  0  0  0  0  0  0  0  0  0
  -12.5767   -3.1837  -21.3971 C   0  0  0  0  0  0  0  0  0  0  0  0
  -13.1611   -4.3229  -20.2356 Cl  0  0  0  0  0  0  0  0  0  0  0  0
  -13.5055   -2.3103  -21.9528 C   0  0  0  0  0  0  0  0  0  0  0  0
  -13.0198   -1.2432  -22.6743 C   0  0  0  0  0  0  0  0  0  0  0  0
  -11.6467   -1.0536  -22.8134 C   0  0  0  0  0  0  0  0  0  0  0  0
  -11.1511    0.2378  -23.3840 C   0  0  0  0  0  0  0  0  0  0  0  0
  -11.7887    1.2825  -23.3226 O   0  0  0  0  0  0  0  0  0  0  0  0
  -13.7047   -0.5306  -23.1151 H   0  0  0  0  0  0  0  0  0  0  0  0
  -14.5655   -2.4520  -21.7563 H   0  0  0  0  0  0  0  0  0  0  0  0
  -10.5784   -3.8593  -21.2124 H   0  0  0  0  0  0  0  0  0  0  0  0
   -8.0629   -0.7280  -24.1248 H   0  0  0  0  0  0  0  0  0  0  0  0
   -9.4205   -1.6662  -24.7948 H   0  0  0  0  0  0  0  0  0  0  0  0
  -10.2840    2.0610  -24.7191 H   0  0  0  0  0  0  0  0  0  0  0  0
   -9.0076    1.1458  -25.5649 H   0  0  0  0  0  0  0  0  0  0  0  0
   -9.6033    2.6755  -22.2153 H   0  0  0  0  0  0  0  0  0  0  0  0
   -7.9777    3.9459  -21.0897 H   0  0  0  0  0  0  0  0  0  0  0  0
   -6.9009    3.7798  -22.4552 H   0  0  0  0  0  0  0  0  0  0  0  0
   -7.0714    2.3897  -21.3788 H   0  0  0  0  0  0  0  0  0  0  0  0
  1  2  1  0
  2  3  1  0
  3  4  2  0
  3  5  1  0
  5  6  1  0
  6  7  1  0
  8  7  1  6
  8  9  1  0
  9 10  2  0
  9 11  1  0
 11 12  1  0
 12 13  2  0
 13 14  1  0
 14 15  2  0
 15 16  1  0
 16 17  2  0
 17 18  1  0
 18 19  2  0
 19 20  1  0
 20 21  2  0
 20 22  1  0
 19 23  1  0
 18 24  1  0
 17 25  1  0
 15 26  1  0
 13 27  1  0
 11 28  1  0
 28 29  1  0
 29 30  1  0
 30 31  1  0
 31 32  1  0
 32 33  2  0
 33 34  1  0
 34 35  2  0
 34 36  1  0
 33 37  1  0
 32 38  1  0
 30 39  1  0
 30 40  1  0
 29 41  1  1
 28 42  1  0
 28 43  1  0
  8 44  1  0
 44 45  2  0
 45 46  1  0
 46 47  1  0
 46 48  2  0
 48 49  1  0
 49 50  2  0
 50 51  1  0
 51 52  2  0
 49 53  1  0
 48 54  1  0
 45 55  1  0
  7 56  1  0
  7 57  1  0
  5 58  1  0
  5 59  1  0
  2 60  1  0
  1 61  1  0
  1 62  1  0
  1 63  1  0
 51  6  1  0
 29  8  1  0
 35 31  1  0
 50 44  1  0
 21 12  1  0
 21 16  1  0
M  END
>  <cnnaffinities>  (16) 
[6.71223]

>  <score>  (16) 
6.71223

>  <index>  (16) 
15

>  <Smiles>  (16) 
C(N(C(=O)C(N1C([C@@]2(C(=O)N(c3c(nc(c4c(c(c(c(c34)[H])[H])[H])[H])[H])[H])C([C@@]2(C(n2c(c(c(n2)[H])[H])[H])([H])[H])[H])([H])[H])c2c(c(Cl)c(c(c2C1=O)[H])[H])[H])([H])[H])([H])[H])[H])([H])([H])[H]

>  <h>  (16) 
<NA>

>  <Training>  (16) 
True

>  <Success>  (16) 
True

>  <enamine_searched>  (16) 
False

>  <enamine_id>  (16) 
nan

$$$$

     RDKit          3D

 61 66  0  0  0  0  0  0  0  0999 V2000
  -14.3912   -0.4157  -22.6796 C   0  0  0  0  0  0  0  0  0  0  0  0
  -13.4931   -1.3631  -22.0395 N   0  0  0  0  0  0  0  0  0  0  0  0
  -13.4517   -2.6494  -22.4931 C   0  0  0  0  0  0  0  0  0  0  0  0
  -14.1518   -3.0003  -23.4283 O   0  0  0  0  0  0  0  0  0  0  0  0
  -12.5039   -3.6471  -21.8007 C   0  0  0  0  0  0  0  0  0  0  0  0
  -11.1282   -3.6277  -22.3243 N   0  0  0  0  0  0  0  0  0  0  0  0
  -10.0113   -3.1591  -21.5052 C   0  0  0  0  0  0  0  0  0  0  0  0
   -8.7384   -2.8114  -22.3334 C   0  0  2  0  0  0  0  0  0  0  0  0
   -7.5613   -2.6834  -21.3507 C   0  0  0  0  0  0  0  0  0  0  0  0
   -6.9450   -3.5801  -20.8090 O   0  0  0  0  0  0  0  0  0  0  0  0
   -7.2796   -1.3469  -21.1773 N   0  0  0  0  0  0  0  0  0  0  0  0
   -6.4781   -0.8737  -20.1221 C   0  0  0  0  0  0  0  0  0  0  0  0
   -6.7899   -1.1282  -18.8129 C   0  0  0  0  0  0  0  0  0  0  0  0
   -6.1296   -0.5704  -17.7690 N   0  0  0  0  0  0  0  0  0  0  0  0
   -5.1297    0.2366  -18.0320 C   0  0  0  0  0  0  0  0  0  0  0  0
   -4.6807    0.5485  -19.3495 C   0  0  0  0  0  0  0  0  0  0  0  0
   -3.5713    1.3933  -19.6145 C   0  0  0  0  0  0  0  0  0  0  0  0
   -3.2081    1.6817  -20.9038 C   0  0  0  0  0  0  0  0  0  0  0  0
   -3.9294    1.1380  -21.9898 C   0  0  0  0  0  0  0  0  0  0  0  0
   -4.9886    0.3005  -21.7579 C   0  0  0  0  0  0  0  0  0  0  0  0
   -5.3877   -0.0087  -20.4320 C   0  0  0  0  0  0  0  0  0  0  0  0
   -5.5333   -0.1444  -22.5834 H   0  0  0  0  0  0  0  0  0  0  0  0
   -3.6469    1.3850  -23.0096 H   0  0  0  0  0  0  0  0  0  0  0  0
   -2.3641    2.3353  -21.1018 H   0  0  0  0  0  0  0  0  0  0  0  0
   -3.0250    1.8138  -18.7761 H   0  0  0  0  0  0  0  0  0  0  0  0
   -4.6179    0.6801  -17.1769 H   0  0  0  0  0  0  0  0  0  0  0  0
   -7.6178   -1.7894  -18.5578 H   0  0  0  0  0  0  0  0  0  0  0  0
   -8.2273   -0.4708  -21.8344 C   0  0  0  0  0  0  0  0  0  0  0  0
   -8.7973   -1.3674  -22.9299 C   0  0  2  0  0  0  0  0  0  0  0  0
  -10.1489   -0.8760  -23.4471 C   0  0  0  0  0  0  0  0  0  0  0  0
  -10.0777    0.4907  -23.9373 N   0  0  0  0  0  0  0  0  0  0  0  0
  -10.6296    1.5169  -23.3066 N   0  0  0  0  0  0  0  0  0  0  0  0
  -10.1390    2.5335  -23.9981 C   0  0  0  0  0  0  0  0  0  0  0  0
   -9.3454    2.1350  -25.0144 N   0  0  0  0  0  0  0  0  0  0  0  0
   -9.3128    0.8317  -24.9453 N   0  0  0  0  0  0  0  0  0  0  0  0
  -10.3449    3.5744  -23.7983 H   0  0  0  0  0  0  0  0  0  0  0  0
  -10.8974   -0.8329  -22.6698 H   0  0  0  0  0  0  0  0  0  0  0  0
  -10.5072   -1.5398  -24.2290 H   0  0  0  0  0  0  0  0  0  0  0  0
   -8.0971   -1.3658  -23.7725 H   0  0  0  0  0  0  0  0  0  0  0  0
   -8.9981   -0.1411  -21.1215 H   0  0  0  0  0  0  0  0  0  0  0  0
   -7.7326    0.4201  -22.2254 H   0  0  0  0  0  0  0  0  0  0  0  0
   -8.4526   -3.8913  -23.3598 C   0  0  0  0  0  0  0  0  0  0  0  0
   -7.1750   -4.0757  -23.9277 C   0  0  0  0  0  0  0  0  0  0  0  0
   -6.9806   -5.0356  -24.9097 C   0  0  0  0  0  0  0  0  0  0  0  0
   -5.4192   -5.2321  -25.6562 Cl  0  0  0  0  0  0  0  0  0  0  0  0
   -8.0208   -5.8607  -25.3353 C   0  0  0  0  0  0  0  0  0  0  0  0
   -9.2667   -5.6881  -24.7690 C   0  0  0  0  0  0  0  0  0  0  0  0
   -9.4866   -4.7122  -23.8005 C   0  0  0  0  0  0  0  0  0  0  0  0
  -10.8761   -4.5891  -23.2708 C   0  0  0  0  0  0  0  0  0  0  0  0
  -11.7560   -5.3235  -23.6698 O   0  0  0  0  0  0  0  0  0  0  0  0
  -10.1132   -6.2976  -25.0611 H   0  0  0  0  0  0  0  0  0  0  0  0
   -7.8495   -6.6245  -26.0868 H   0  0  0  0  0  0  0  0  0  0  0  0
   -6.3143   -3.5071  -23.5874 H   0  0  0  0  0  0  0  0  0  0  0  0
  -10.3386   -2.2701  -20.9527 H   0  0  0  0  0  0  0  0  0  0  0  0
   -9.7229   -3.9225  -20.7725 H   0  0  0  0  0  0  0  0  0  0  0  0
  -12.9335   -4.6128  -22.0810 H   0  0  0  0  0  0  0  0  0  0  0  0
  -12.4884   -3.5695  -20.7093 H   0  0  0  0  0  0  0  0  0  0  0  0
  -13.1521   -1.1382  -21.1185 H   0  0  0  0  0  0  0  0  0  0  0  0
  -15.4330   -0.7529  -22.6626 H   0  0  0  0  0  0  0  0  0  0  0  0
  -14.3117    0.5331  -22.1540 H   0  0  0  0  0  0  0  0  0  0  0  0
  -14.1051   -0.2517  -23.7221 H   0  0  0  0  0  0  0  0  0  0  0  0
  1  2  1  0
  2  3  1  0
  3  4  2  0
  3  5  1  0
  5  6  1  0
  6  7  1  0
  8  7  1  1
  8  9  1  0
  9 10  2  0
  9 11  1  0
 11 12  1  0
 12 13  2  0
 13 14  1  0
 14 15  2  0
 15 16  1  0
 16 17  2  0
 17 18  1  0
 18 19  2  0
 19 20  1  0
 20 21  2  0
 20 22  1  0
 19 23  1  0
 18 24  1  0
 17 25  1  0
 15 26  1  0
 13 27  1  0
 11 28  1  0
 28 29  1  0
 29 30  1  0
 30 31  1  0
 31 32  1  0
 32 33  2  0
 33 34  1  0
 34 35  2  0
 33 36  1  0
 30 37  1  0
 30 38  1  0
 29 39  1  6
 28 40  1  0
 28 41  1  0
  8 42  1  0
 42 43  2  0
 43 44  1  0
 44 45  1  0
 44 46  2  0
 46 47  1  0
 47 48  2  0
 48 49  1  0
 49 50  2  0
 47 51  1  0
 46 52  1  0
 43 53  1  0
  7 54  1  0
  7 55  1  0
  5 56  1  0
  5 57  1  0
  2 58  1  0
  1 59  1  0
  1 60  1  0
  1 61  1  0
 49  6  1  0
 29  8  1  0
 35 31  1  0
 48 42  1  0
 21 12  1  0
 21 16  1  0
M  END
>  <cnnaffinities>  (17) 
[6.68412, 6.57619]

>  <score>  (17) 
6.68412

>  <index>  (17) 
16

>  <Smiles>  (17) 
C(N(C(=O)C(N1C([C@@]2(C(=O)N(c3c(nc(c4c(c(c(c(c34)[H])[H])[H])[H])[H])[H])C([C@@]2(C(n2nc(nn2)[H])([H])[H])[H])([H])[H])c2c(c(Cl)c(c(c2C1=O)[H])[H])[H])([H])[H])([H])[H])[H])([H])([H])[H]

>  <h>  (17) 
<NA>

>  <Training>  (17) 
True

>  <Success>  (17) 
True

>  <enamine_searched>  (17) 
False

>  <enamine_id>  (17) 
nan

$$$$

     RDKit          3D

 38 41  0  0  0  0  0  0  0  0999 V2000
  -10.8165   -4.6673  -22.9191 C   0  0  0  0  0  0  0  0  0  0  0  0
  -10.5611   -3.4179  -23.7456 C   0  0  2  0  0  0  0  0  0  0  0  0
   -9.4005   -3.6351  -24.7230 C   0  0  0  0  0  0  0  0  0  0  0  0
   -8.0629   -3.7841  -23.9722 C   0  0  0  0  0  0  0  0  0  0  0  0
   -7.9547   -2.8088  -22.8825 C   0  0  0  0  0  0  0  0  0  0  0  0
   -6.8121   -2.4343  -22.0979 C   0  0  0  0  0  0  0  0  0  0  0  0
   -5.6571   -2.8038  -22.1530 O   0  0  0  0  0  1  0  0  0  0  0  0
   -7.3126   -1.4471  -21.1993 N   0  0  0  0  0  0  0  0  0  0  0  0
   -6.5677   -0.8309  -20.1687 C   0  0  0  0  0  0  0  0  0  0  0  0
   -6.8939   -1.0480  -18.8523 C   0  0  0  0  0  0  0  0  0  0  0  0
   -6.1928   -0.5462  -17.8060 N   0  0  0  0  0  0  0  0  0  0  0  0
   -5.1617    0.2086  -18.0834 C   0  0  0  0  0  0  0  0  0  0  0  0
   -4.7251    0.5248  -19.4005 C   0  0  0  0  0  0  0  0  0  0  0  0
   -3.5986    1.3554  -19.6326 C   0  0  0  0  0  0  0  0  0  0  0  0
   -3.2192    1.6676  -20.9085 C   0  0  0  0  0  0  0  0  0  0  0  0
   -3.9556    1.1693  -22.0078 C   0  0  0  0  0  0  0  0  0  0  0  0
   -5.0489    0.3675  -21.8110 C   0  0  0  0  0  0  0  0  0  0  0  0
   -5.4533    0.0084  -20.4915 C   0  0  0  0  0  0  0  0  0  0  0  0
   -5.6164   -0.0003  -22.6629 H   0  0  0  0  0  0  0  0  0  0  0  0
   -3.6536    1.4333  -23.0180 H   0  0  0  0  0  0  0  0  0  0  0  0
   -2.3642    2.3141  -21.0807 H   0  0  0  0  0  0  0  0  0  0  0  0
   -3.0725    1.7500  -18.7695 H   0  0  0  0  0  0  0  0  0  0  0  0
   -4.6087    0.6144  -17.2373 H   0  0  0  0  0  0  0  0  0  0  0  0
   -7.7499   -1.6735  -18.5998 H   0  0  0  0  0  0  0  0  0  0  0  0
   -8.6528   -1.1595  -21.4675 C   0  0  0  0  0  0  0  0  0  0  0  0
   -9.3352   -0.2752  -20.9985 O   0  0  0  0  0  0  0  0  0  0  0  0
   -9.0087   -2.0890  -22.4249 N   0  0  0  0  0  0  0  0  0  0  0  0
  -10.3597   -2.1493  -22.9389 C   0  0  0  0  0  0  0  0  0  0  0  0
  -10.5247   -1.2709  -23.5746 H   0  0  0  0  0  0  0  0  0  0  0  0
  -11.0476   -2.1071  -22.0896 H   0  0  0  0  0  0  0  0  0  0  0  0
   -7.2096   -3.6741  -24.6520 H   0  0  0  0  0  0  0  0  0  0  0  0
   -7.9483   -4.7925  -23.5499 H   0  0  0  0  0  0  0  0  0  0  0  0
   -9.5868   -4.5307  -25.3270 H   0  0  0  0  0  0  0  0  0  0  0  0
   -9.3414   -2.7890  -25.4155 H   0  0  0  0  0  0  0  0  0  0  0  0
  -11.4856   -3.2062  -24.2764 H   0  0  0  0  0  0  0  0  0  0  0  0
  -10.8763   -5.5095  -23.6126 H   0  0  0  0  0  0  0  0  0  0  0  0
  -10.0267   -4.8853  -22.1952 H   0  0  0  0  0  0  0  0  0  0  0  0
  -11.7580   -4.5925  -22.3701 H   0  0  0  0  0  0  0  0  0  0  0  0
  1  2  1  0
  2  3  1  0
  3  4  1  0
  4  5  1  0
  5  6  2  0
  6  7  1  0
  6  8  1  0
  8  9  1  0
  9 10  2  0
 10 11  1  0
 11 12  2  0
 12 13  1  0
 13 14  2  0
 14 15  1  0
 15 16  2  0
 16 17  1  0
 17 18  2  0
 17 19  1  0
 16 20  1  0
 15 21  1  0
 14 22  1  0
 12 23  1  0
 10 24  1  0
  8 25  1  0
 25 26  2  0
 25 27  1  0
 27 28  1  0
 28 29  1  0
 28 30  1  0
  4 31  1  0
  4 32  1  0
  3 33  1  0
  3 34  1  0
  2 35  1  6
  1 36  1  0
  1 37  1  0
  1 38  1  0
 28  2  1  0
 27  5  1  0
 18  9  1  0
 18 13  1  0
M  CHG  1   7  -1
M  END
>  <cnnaffinities>  (18) 
[4.72724, 5.08174]

>  <score>  (18) 
4.72724

>  <index>  (18) 
17

>  <Smiles>  (18) 
C([C@@]1(C(C(c2c([O-])n(c3c(nc(c4c(c(c(c(c34)[H])[H])[H])[H])[H])[H])c(=O)n2C1([H])[H])([H])[H])([H])[H])[H])([H])([H])[H]

>  <h>  (18) 
<NA>

>  <Training>  (18) 
True

>  <Success>  (18) 
True

>  <enamine_searched>  (18) 
False

>  <enamine_id>  (18) 
nan

$$$$

     RDKit          3D

 56 61  0  0  0  0  0  0  0  0999 V2000
  -10.2256   -2.9580  -22.0569 C   0  0  0  0  0  0  0  0  0  0  0  0
   -9.1646   -2.0080  -22.6364 C   0  0  1  0  0  0  0  0  0  0  0  0
   -8.6998   -1.0021  -21.5606 C   0  0  0  0  0  0  0  0  0  0  0  0
   -7.3733   -1.4410  -21.1966 N   0  0  0  0  0  0  0  0  0  0  0  0
   -6.5873   -0.8354  -20.1863 C   0  0  0  0  0  0  0  0  0  0  0  0
   -6.9115   -1.0398  -18.8705 C   0  0  0  0  0  0  0  0  0  0  0  0
   -6.2177   -0.5360  -17.8240 N   0  0  0  0  0  0  0  0  0  0  0  0
   -5.1753    0.2093  -18.0953 C   0  0  0  0  0  0  0  0  0  0  0  0
   -4.7360    0.5137  -19.4142 C   0  0  0  0  0  0  0  0  0  0  0  0
   -3.6070    1.3431  -19.6419 C   0  0  0  0  0  0  0  0  0  0  0  0
   -3.2266    1.6609  -20.9150 C   0  0  0  0  0  0  0  0  0  0  0  0
   -3.9589    1.1626  -22.0170 C   0  0  0  0  0  0  0  0  0  0  0  0
   -5.0475    0.3487  -21.8271 C   0  0  0  0  0  0  0  0  0  0  0  0
   -5.4616   -0.0080  -20.5079 C   0  0  0  0  0  0  0  0  0  0  0  0
   -5.5956   -0.0322  -22.6897 H   0  0  0  0  0  0  0  0  0  0  0  0
   -3.6563    1.4354  -23.0239 H   0  0  0  0  0  0  0  0  0  0  0  0
   -2.3748    2.3142  -21.0850 H   0  0  0  0  0  0  0  0  0  0  0  0
   -3.0788    1.7411  -18.7796 H   0  0  0  0  0  0  0  0  0  0  0  0
   -4.6211    0.6158  -17.2487 H   0  0  0  0  0  0  0  0  0  0  0  0
   -7.7683   -1.6651  -18.6218 H   0  0  0  0  0  0  0  0  0  0  0  0
   -6.8378   -2.3806  -22.0388 C   0  0  0  0  0  0  0  0  0  0  0  0
   -5.7254   -2.8437  -21.9146 O   0  0  0  0  0  0  0  0  0  0  0  0
   -7.8583   -2.6943  -23.1548 C   0  0  1  0  0  0  0  0  0  0  0  0
   -8.0233   -4.2210  -23.3516 C   0  0  0  0  0  0  0  0  0  0  0  0
   -6.8445   -4.8454  -23.9366 N   0  0  0  0  0  0  0  0  0  0  0  0
   -6.4057   -6.1515  -23.4627 C   0  0  0  0  0  0  0  0  0  0  0  0
   -5.3171   -6.0402  -22.4899 C   0  0  0  0  0  0  0  0  0  0  0  0
   -3.8205   -6.1797  -22.8638 C   0  0  0  0  0  0  0  0  0  0  0  0
   -3.9823   -6.0519  -23.0585 C   0  0  0  0  0  0  0  0  0  0  0  0
   -4.7441   -5.7770  -20.4009 N   0  0  0  0  0  0  0  0  0  0  0  0
   -5.7245   -5.8800  -21.1910 N   0  0  0  0  0  0  0  0  0  0  0  0
   -5.1657   -5.6205  -19.4753 H   0  0  0  0  0  0  0  0  0  0  0  0
   -1.6738   -5.4678  -23.6949 H   0  0  0  0  0  0  0  0  0  0  0  0
   -3.0119   -5.5954  -23.5126 H   0  0  0  0  0  0  0  0  0  0  0  0
   -7.2477   -6.6098  -22.9452 H   0  0  0  0  0  0  0  0  0  0  0  0
   -6.1629   -6.7852  -24.3194 H   0  0  0  0  0  0  0  0  0  0  0  0
   -6.2064   -4.3061  -25.0156 C   0  0  0  0  0  0  0  0  0  0  0  0
   -5.4076   -4.9423  -25.6872 O   0  0  0  0  0  0  0  0  0  0  0  0
   -6.5697   -2.8810  -25.3398 C   0  0  0  0  0  0  0  0  0  0  0  0
   -6.0684   -2.3420  -26.5240 C   0  0  0  0  0  0  0  0  0  0  0  0
   -6.2958   -1.0188  -26.8458 C   0  0  0  0  0  0  0  0  0  0  0  0
   -7.0207   -0.2431  -25.9496 C   0  0  0  0  0  0  0  0  0  0  0  0
   -7.2317    1.0521  -26.2461 F   0  0  0  0  0  0  0  0  0  0  0  0
   -7.5342   -0.7532  -24.7722 C   0  0  0  0  0  0  0  0  0  0  0  0
   -7.3389   -2.1056  -24.4636 C   0  0  0  0  0  0  0  0  0  0  0  0
   -8.0897   -0.0835  -24.1234 H   0  0  0  0  0  0  0  0  0  0  0  0
   -5.9200   -0.5740  -27.7598 H   0  0  0  0  0  0  0  0  0  0  0  0
   -5.4914   -2.9907  -27.1742 H   0  0  0  0  0  0  0  0  0  0  0  0
   -8.8951   -4.3929  -24.0015 H   0  0  0  0  0  0  0  0  0  0  0  0
   -8.2173   -4.6894  -22.3836 H   0  0  0  0  0  0  0  0  0  0  0  0
   -9.3564   -1.0288  -20.6960 H   0  0  0  0  0  0  0  0  0  0  0  0
   -8.6897    0.0342  -21.9238 H   0  0  0  0  0  0  0  0  0  0  0  0
   -9.6453   -1.4820  -23.4686 H   0  0  0  0  0  0  0  0  0  0  0  0
  -11.0843   -2.3867  -21.6876 H   0  0  0  0  0  0  0  0  0  0  0  0
   -9.8321   -3.5434  -21.2179 H   0  0  0  0  0  0  0  0  0  0  0  0
  -10.6033   -3.6522  -22.8132 H   0  0  0  0  0  0  0  0  0  0  0  0
  1  2  1  0
  2  3  1  0
  3  4  1  0
  4  5  1  0
  5  6  2  0
  6  7  1  0
  7  8  2  0
  8  9  1  0
  9 10  2  0
 10 11  1  0
 11 12  2  0
 12 13  1  0
 13 14  2  0
 13 15  1  0
 12 16  1  0
 11 17  1  0
 10 18  1  0
  8 19  1  0
  6 20  1  0
  4 21  1  0
 21 22  2  0
 21 23  1  0
 23 24  1  6
 24 25  1  0
 25 26  1  0
 26 27  1  0
 27 28  1  0
 28 29  2  0
 29 30  1  0
 30 31  1  0
 30 32  1  0
 29 33  1  0
 28 34  1  0
 26 35  1  0
 26 36  1  0
 25 37  1  0
 37 38  2  0
 37 39  1  0
 39 40  2  0
 40 41  1  0
 41 42  2  0
 42 43  1  0
 42 44  1  0
 44 45  2  0
 44 46  1  0
 41 47  1  0
 40 48  1  0
 24 49  1  0
 24 50  1  0
  3 51  1  0
  3 52  1  0
  2 53  1  6
  1 54  1  0
  1 55  1  0
  1 56  1  0
 23  2  1  0
 31 27  2  0
 45 39  1  0
 14  5  1  0
 45 23  1  0
 14  9  1  0
M  END
>  <cnnaffinities>  (19) 
[5.9594, 6.03953]

>  <score>  (19) 
5.9594

>  <index>  (19) 
18

>  <Smiles>  (19) 
C([C@]1(C(N(c2c(nc(c3c(c(c(c(c23)[H])[H])[H])[H])[H])[H])C(=O)[C@]21C(N(C(c1c(c(n(n1)[H])[H])[H])([H])[H])C(=O)c1c(c(c(F)c(c21)[H])[H])[H])([H])[H])([H])[H])[H])([H])([H])[H]

>  <h>  (19) 
<NA>

>  <Training>  (19) 
True

>  <Success>  (19) 
True

>  <enamine_searched>  (19) 
False

>  <enamine_id>  (19) 
nan

$$$$

     RDKit          3D

 42 45  0  0  0  0  0  0  0  0999 V2000
   -9.0851   -0.0189  -20.7364 O   0  0  0  0  0  0  0  0  0  0  0  0
   -8.6191   -0.8986  -21.4345 C   0  0  0  0  0  0  0  0  0  0  0  0
   -9.3442   -1.5212  -22.6296 C   0  0  1  0  0  0  0  0  0  0  0  0
  -10.4657   -0.5839  -23.0131 C   0  0  0  0  0  0  0  0  0  0  0  0
  -10.1664    0.7665  -23.2277 C   0  0  0  0  0  0  0  0  0  0  0  0
  -11.1900    1.7000  -23.3540 C   0  0  0  0  0  0  0  0  0  0  0  0
  -12.5164    1.2578  -23.3655 C   0  0  0  0  0  0  0  0  0  0  0  0
  -13.7684    2.4446  -23.5582 Cl  0  0  0  0  0  0  0  0  0  0  0  0
  -12.8036   -0.1162  -23.3859 C   0  0  0  0  0  0  0  0  0  0  0  0
  -14.3786   -0.7141  -23.8081 Cl  0  0  0  0  0  0  0  0  0  0  0  0
  -11.7732   -1.0356  -23.1754 C   0  0  0  0  0  0  0  0  0  0  0  0
  -12.0050   -2.1009  -23.1906 H   0  0  0  0  0  0  0  0  0  0  0  0
  -10.9699    2.7662  -23.4592 H   0  0  0  0  0  0  0  0  0  0  0  0
   -9.1267    1.0852  -23.3070 H   0  0  0  0  0  0  0  0  0  0  0  0
   -8.3311   -1.7850  -23.7611 C   0  0  0  0  0  0  0  0  0  0  0  0
   -7.2228   -2.7573  -23.3376 C   0  0  2  0  0  0  0  0  0  0  0  0
   -7.5221   -4.1144  -23.6427 O   0  0  0  0  0  0  0  0  0  0  0  0
   -8.3912   -4.3244  -23.2759 H   0  0  0  0  0  0  0  0  0  0  0  0
   -6.9113   -2.6259  -21.8384 C   0  0  0  0  0  0  0  0  0  0  0  0
   -7.3432   -1.3688  -21.2571 N   0  0  0  0  0  0  0  0  0  0  0  0
   -6.5862   -0.8115  -20.2008 C   0  0  0  0  0  0  0  0  0  0  0  0
   -6.9193   -1.0562  -18.8940 C   0  0  0  0  0  0  0  0  0  0  0  0
   -6.2158   -0.5759  -17.8433 N   0  0  0  0  0  0  0  0  0  0  0  0
   -5.1777    0.1814  -18.0992 C   0  0  0  0  0  0  0  0  0  0  0  0
   -4.7263    0.5058  -19.4102 C   0  0  0  0  0  0  0  0  0  0  0  0
   -3.6021    1.3367  -19.6452 C   0  0  0  0  0  0  0  0  0  0  0  0
   -3.2163    1.6327  -20.9231 C   0  0  0  0  0  0  0  0  0  0  0  0
   -3.9333    1.1120  -22.0250 C   0  0  0  0  0  0  0  0  0  0  0  0
   -5.0206    0.3002  -21.8232 C   0  0  0  0  0  0  0  0  0  0  0  0
   -5.4430   -0.0132  -20.5039 C   0  0  0  0  0  0  0  0  0  0  0  0
   -5.5798   -0.0938  -22.6661 H   0  0  0  0  0  0  0  0  0  0  0  0
   -3.6300    1.3695  -23.0348 H   0  0  0  0  0  0  0  0  0  0  0  0
   -2.3675    2.2878  -21.0983 H   0  0  0  0  0  0  0  0  0  0  0  0
   -3.0828    1.7494  -18.7865 H   0  0  0  0  0  0  0  0  0  0  0  0
   -4.6352    0.5821  -17.2449 H   0  0  0  0  0  0  0  0  0  0  0  0
   -7.7923   -1.6581  -18.6443 H   0  0  0  0  0  0  0  0  0  0  0  0
   -7.3977   -3.4817  -21.3443 H   0  0  0  0  0  0  0  0  0  0  0  0
   -5.8391   -2.6921  -21.6468 H   0  0  0  0  0  0  0  0  0  0  0  0
   -6.3223   -2.5620  -23.9310 H   0  0  0  0  0  0  0  0  0  0  0  0
   -7.8835   -0.8298  -24.0662 H   0  0  0  0  0  0  0  0  0  0  0  0
   -8.8193   -2.2004  -24.6500 H   0  0  0  0  0  0  0  0  0  0  0  0
   -9.7542   -2.4920  -22.3090 H   0  0  0  0  0  0  0  0  0  0  0  0
  1  2  2  0
  2  3  1  0
  3  4  1  0
  4  5  2  0
  5  6  1  0
  6  7  2  0
  7  8  1  0
  7  9  1  0
  9 10  1  0
  9 11  2  0
 11 12  1  0
  6 13  1  0
  5 14  1  0
  3 15  1  0
 15 16  1  0
 16 17  1  0
 17 18  1  0
 16 19  1  0
 19 20  1  0
 20 21  1  0
 21 22  2  0
 22 23  1  0
 23 24  2  0
 24 25  1  0
 25 26  2  0
 26 27  1  0
 27 28  2  0
 28 29  1  0
 29 30  2  0
 29 31  1  0
 28 32  1  0
 27 33  1  0
 26 34  1  0
 24 35  1  0
 22 36  1  0
 19 37  1  0
 19 38  1  0
 16 39  1  6
 15 40  1  0
 15 41  1  0
  3 42  1  1
 20  2  1  0
 30 21  1  0
 11  4  1  0
 30 25  1  0
M  END
>  <cnnaffinities>  (20) 
[5.86819]

>  <score>  (20) 
5.86819

>  <index>  (20) 
19

>  <Smiles>  (20) 
O=C1[C@@](c2c(c(c(Cl)c(Cl)c2[H])[H])[H])(C([C@](O[H])(C(N1c1c(nc(c2c(c(c(c(c12)[H])[H])[H])[H])[H])[H])([H])[H])[H])([H])[H])[H]

>  <h>  (20) 
<NA>

>  <Training>  (20) 
True

>  <Success>  (20) 
True

>  <enamine_searched>  (20) 
False

>  <enamine_id>  (20) 
nan

$$$$

     RDKit          3D

 66 71  0  0  0  0  0  0  0  0999 V2000
   -7.2701    2.9279  -22.5665 C   0  0  0  0  0  0  0  0  0  0  0  0
   -8.3309    2.2354  -23.2715 N   0  0  0  0  0  0  0  0  0  0  0  0
   -8.0994    1.6146  -24.4539 C   0  0  0  0  0  0  0  0  0  0  0  0
   -7.0061    1.6091  -24.9993 O   0  0  0  0  0  0  0  0  0  0  0  0
   -9.3198    0.9067  -25.0632 C   0  0  0  0  0  0  0  0  0  0  0  0
   -9.9189   -0.0365  -24.1460 N   0  0  0  0  0  0  0  0  0  0  0  0
   -9.2732   -1.3203  -24.0501 C   0  0  0  0  0  0  0  0  0  0  0  0
   -9.4059   -1.9041  -22.6324 C   0  0  2  0  0  0  0  0  0  0  0  0
   -8.8196   -0.9495  -21.5587 C   0  0  0  0  0  0  0  0  0  0  0  0
   -9.3700    0.0099  -21.0550 O   0  0  0  0  0  0  0  0  0  0  0  0
   -7.5426   -1.3628  -21.2662 N   0  0  0  0  0  0  0  0  0  0  0  0
   -6.7721   -0.7876  -20.2320 C   0  0  0  0  0  0  0  0  0  0  0  0
   -7.1195   -0.9748  -18.9157 C   0  0  0  0  0  0  0  0  0  0  0  0
   -6.3650   -0.5478  -17.8760 N   0  0  0  0  0  0  0  0  0  0  0  0
   -5.2658    0.1095  -18.1508 C   0  0  0  0  0  0  0  0  0  0  0  0
   -4.8135    0.4056  -19.4674 C   0  0  0  0  0  0  0  0  0  0  0  0
   -3.6551    1.1884  -19.7191 C   0  0  0  0  0  0  0  0  0  0  0  0
   -3.2860    1.5010  -20.9989 C   0  0  0  0  0  0  0  0  0  0  0  0
   -4.0436    1.0252  -22.0930 C   0  0  0  0  0  0  0  0  0  0  0  0
   -5.1586    0.2472  -21.8738 C   0  0  0  0  0  0  0  0  0  0  0  0
   -5.5827   -0.0662  -20.5542 C   0  0  0  0  0  0  0  0  0  0  0  0
   -5.7662   -0.0686  -22.7174 H   0  0  0  0  0  0  0  0  0  0  0  0
   -3.7679    1.3038  -23.1071 H   0  0  0  0  0  0  0  0  0  0  0  0
   -2.4250    2.1393  -21.1810 H   0  0  0  0  0  0  0  0  0  0  0  0
   -3.0961    1.5601  -18.8653 H   0  0  0  0  0  0  0  0  0  0  0  0
   -4.6655    0.4550  -17.3081 H   0  0  0  0  0  0  0  0  0  0  0  0
   -8.0368   -1.5025  -18.6571 H   0  0  0  0  0  0  0  0  0  0  0  0
   -7.1429   -2.5689  -21.9569 C   0  0  0  0  0  0  0  0  0  0  0  0
   -8.4917   -3.1453  -22.4274 C   0  0  2  0  0  0  0  0  0  0  0  0
   -8.3538   -4.2246  -23.5322 C   0  0  0  0  0  0  0  0  0  0  0  0
   -7.2943   -4.0296  -24.6086 C   0  0  0  0  0  0  0  0  0  0  0  0
   -5.9654   -4.4092  -24.3725 C   0  0  0  0  0  0  0  0  0  0  0  0
   -4.9689   -4.2065  -25.3245 C   0  0  0  0  0  0  0  0  0  0  0  0
   -5.2756   -3.6156  -26.5458 C   0  0  0  0  0  0  0  0  0  0  0  0
   -6.5957   -3.2684  -26.8128 C   0  0  0  0  0  0  0  0  0  0  0  0
   -7.5903   -3.4923  -25.8643 C   0  0  0  0  0  0  0  0  0  0  0  0
   -8.6194   -3.2372  -26.1096 H   0  0  0  0  0  0  0  0  0  0  0  0
   -6.8638   -2.8198  -27.7648 H   0  0  0  0  0  0  0  0  0  0  0  0
   -4.4985   -3.4333  -27.2833 H   0  0  0  0  0  0  0  0  0  0  0  0
   -3.9465   -4.5057  -25.1093 H   0  0  0  0  0  0  0  0  0  0  0  0
   -5.7069   -4.8590  -23.4142 H   0  0  0  0  0  0  0  0  0  0  0  0
   -8.1102   -5.1658  -23.0218 H   0  0  0  0  0  0  0  0  0  0  0  0
   -9.3398   -4.3766  -23.9866 H   0  0  0  0  0  0  0  0  0  0  0  0
   -8.9188   -3.6378  -21.5472 H   0  0  0  0  0  0  0  0  0  0  0  0
   -6.6031   -3.2392  -21.2777 H   0  0  0  0  0  0  0  0  0  0  0  0
   -6.4738   -2.3287  -22.7969 H   0  0  0  0  0  0  0  0  0  0  0  0
  -10.8970   -2.0294  -22.3958 C   0  0  0  0  0  0  0  0  0  0  0  0
  -11.5038   -3.0617  -21.6846 C   0  0  0  0  0  0  0  0  0  0  0  0
  -12.8574   -2.9912  -21.3958 C   0  0  0  0  0  0  0  0  0  0  0  0
  -13.6257   -4.2245  -20.4501 Cl  0  0  0  0  0  0  0  0  0  0  0  0
  -13.6529   -1.9420  -21.8398 C   0  0  0  0  0  0  0  0  0  0  0  0
  -13.0631   -0.9119  -22.5346 C   0  0  0  0  0  0  0  0  0  0  0  0
  -11.7004   -0.9546  -22.8012 C   0  0  0  0  0  0  0  0  0  0  0  0
  -11.0853    0.2245  -23.4873 C   0  0  0  0  0  0  0  0  0  0  0  0
  -11.5991    1.3379  -23.4735 O   0  0  0  0  0  0  0  0  0  0  0  0
  -13.6201   -0.0370  -22.8498 H   0  0  0  0  0  0  0  0  0  0  0  0
  -14.7111   -1.9392  -21.6181 H   0  0  0  0  0  0  0  0  0  0  0  0
  -10.9294   -3.9088  -21.3415 H   0  0  0  0  0  0  0  0  0  0  0  0
   -9.7544   -2.0296  -24.7354 H   0  0  0  0  0  0  0  0  0  0  0  0
   -8.2235   -1.2049  -24.3340 H   0  0  0  0  0  0  0  0  0  0  0  0
  -10.0864    1.6308  -25.3461 H   0  0  0  0  0  0  0  0  0  0  0  0
   -8.9609    0.3986  -25.9683 H   0  0  0  0  0  0  0  0  0  0  0  0
   -9.1756    2.0285  -22.7606 H   0  0  0  0  0  0  0  0  0  0  0  0
   -7.6781    3.7948  -22.0370 H   0  0  0  0  0  0  0  0  0  0  0  0
   -6.7621    2.2691  -21.8482 H   0  0  0  0  0  0  0  0  0  0  0  0
   -6.5398    3.2748  -23.3025 H   0  0  0  0  0  0  0  0  0  0  0  0
  1  2  1  0
  2  3  1  0
  3  4  2  0
  3  5  1  0
  5  6  1  0
  6  7  1  0
  8  7  1  6
  8  9  1  0
  9 10  2  0
  9 11  1  0
 11 12  1  0
 12 13  2  0
 13 14  1  0
 14 15  2  0
 15 16  1  0
 16 17  2  0
 17 18  1  0
 18 19  2  0
 19 20  1  0
 20 21  2  0
 20 22  1  0
 19 23  1  0
 18 24  1  0
 17 25  1  0
 15 26  1  0
 13 27  1  0
 11 28  1  0
 28 29  1  0
 29 30  1  0
 30 31  1  0
 31 32  2  0
 32 33  1  0
 33 34  2  0
 34 35  1  0
 35 36  2  0
 36 37  1  0
 35 38  1  0
 34 39  1  0
 33 40  1  0
 32 41  1  0
 30 42  1  0
 30 43  1  0
 29 44  1  1
 28 45  1  0
 28 46  1  0
  8 47  1  0
 47 48  2  0
 48 49  1  0
 49 50  1  0
 49 51  2  0
 51 52  1  0
 52 53  2  0
 53 54  1  0
 54 55  2  0
 52 56  1  0
 51 57  1  0
 48 58  1  0
  7 59  1  0
  7 60  1  0
  5 61  1  0
  5 62  1  0
  2 63  1  0
  1 64  1  0
  1 65  1  0
  1 66  1  0
 54  6  1  0
 29  8  1  0
 36 31  1  0
 53 47  1  0
 21 12  1  0
 21 16  1  0
M  END
>  <cnnaffinities>  (21) 
[6.8828, 6.85768, 6.85137]

>  <score>  (21) 
6.8828

>  <index>  (21) 
20

>  <Smiles>  (21) 
C(N(C(=O)C(N1C([C@@]2(C(=O)N(c3c(nc(c4c(c(c(c(c34)[H])[H])[H])[H])[H])[H])C([C@@]2(C(c2c(c(c(c(c2[H])[H])[H])[H])[H])([H])[H])[H])([H])[H])c2c(c(Cl)c(c(c2C1=O)[H])[H])[H])([H])[H])([H])[H])[H])([H])([H])[H]

>  <h>  (21) 
<NA>

>  <Training>  (21) 
True

>  <Success>  (21) 
True

>  <enamine_searched>  (21) 
False

>  <enamine_id>  (21) 
nan

$$$$

     RDKit          3D

 63 68  0  0  0  0  0  0  0  0999 V2000
  -10.3062   -2.7313  -22.1924 C   0  0  0  0  0  0  0  0  0  0  0  0
   -9.0959   -1.9344  -22.7091 C   0  0  1  0  0  0  0  0  0  0  0  0
   -8.6173   -0.9340  -21.6333 C   0  0  0  0  0  0  0  0  0  0  0  0
   -7.3540   -1.4658  -21.1907 N   0  0  0  0  0  0  0  0  0  0  0  0
   -6.5710   -0.8582  -20.1858 C   0  0  0  0  0  0  0  0  0  0  0  0
   -6.9081   -1.0556  -18.8718 C   0  0  0  0  0  0  0  0  0  0  0  0
   -6.2207   -0.5430  -17.8247 N   0  0  0  0  0  0  0  0  0  0  0  0
   -5.1799    0.2030  -18.1005 C   0  0  0  0  0  0  0  0  0  0  0  0
   -4.7369    0.5004  -19.4209 C   0  0  0  0  0  0  0  0  0  0  0  0
   -3.6197    1.3431  -19.6490 C   0  0  0  0  0  0  0  0  0  0  0  0
   -3.2373    1.6610  -20.9216 C   0  0  0  0  0  0  0  0  0  0  0  0
   -3.9537    1.1472  -22.0277 C   0  0  0  0  0  0  0  0  0  0  0  0
   -5.0316    0.3147  -21.8415 C   0  0  0  0  0  0  0  0  0  0  0  0
   -5.4472   -0.0353  -20.5164 C   0  0  0  0  0  0  0  0  0  0  0  0
   -5.5752   -0.0630  -22.7100 H   0  0  0  0  0  0  0  0  0  0  0  0
   -3.6486    1.4273  -23.0331 H   0  0  0  0  0  0  0  0  0  0  0  0
   -2.3889    2.3204  -21.0898 H   0  0  0  0  0  0  0  0  0  0  0  0
   -3.1045    1.7519  -18.7850 H   0  0  0  0  0  0  0  0  0  0  0  0
   -4.6306    0.6265  -17.2598 H   0  0  0  0  0  0  0  0  0  0  0  0
   -7.7659   -1.6840  -18.6273 H   0  0  0  0  0  0  0  0  0  0  0  0
   -6.8536   -2.4930  -21.9492 C   0  0  0  0  0  0  0  0  0  0  0  0
   -5.8004   -3.0484  -21.7283 O   0  0  0  0  0  0  0  0  0  0  0  0
   -7.8359   -2.7714  -23.0975 C   0  0  1  0  0  0  0  0  0  0  0  0
   -8.1409   -4.2762  -23.2124 C   0  0  0  0  0  0  0  0  0  0  0  0
   -7.0227   -5.0309  -23.7462 N   0  0  0  0  0  0  0  0  0  0  0  0
   -6.7345   -6.3246  -23.1630 C   0  0  0  0  0  0  0  0  0  0  0  0
   -7.8532   -7.3173  -23.4689 C   0  0  0  0  0  0  0  0  0  0  0  0
   -8.6571   -7.6586  -22.6144 O   0  0  0  0  0  0  0  0  0  0  0  0
   -7.9098   -7.7106  -24.7744 N   0  0  0  0  0  0  0  0  0  0  0  0
   -9.1820   -8.1168  -25.3455 C   0  0  0  0  0  0  0  0  0  0  0  0
  -10.1158   -6.9510  -25.5569 C   0  0  0  0  0  0  0  0  0  0  0  0
   -9.9166   -5.9703  -26.6662 C   0  0  0  0  0  0  0  0  0  0  0  0
  -11.0703   -6.9387  -26.7002 C   0  0  0  0  0  0  0  0  0  0  0  0
  -12.0888   -6.5929  -26.5544 H   0  0  0  0  0  0  0  0  0  0  0  0
  -10.9909   -7.7765  -27.3781 H   0  0  0  0  0  0  0  0  0  0  0  0
  -10.1258   -4.9299  -26.4336 H   0  0  0  0  0  0  0  0  0  0  0  0
   -9.0981   -6.1120  -27.3652 H   0  0  0  0  0  0  0  0  0  0  0  0
  -10.4798   -6.4909  -24.6476 H   0  0  0  0  0  0  0  0  0  0  0  0
   -8.9975   -8.6389  -26.2928 H   0  0  0  0  0  0  0  0  0  0  0  0
   -9.6454   -8.8181  -24.6535 H   0  0  0  0  0  0  0  0  0  0  0  0
   -7.2100   -7.3467  -25.4062 H   0  0  0  0  0  0  0  0  0  0  0  0
   -6.6626   -6.2230  -22.0734 H   0  0  0  0  0  0  0  0  0  0  0  0
   -5.7880   -6.6463  -23.6034 H   0  0  0  0  0  0  0  0  0  0  0  0
   -6.3777   -4.6557  -24.8838 C   0  0  0  0  0  0  0  0  0  0  0  0
   -5.7001   -5.4382  -25.5498 O   0  0  0  0  0  0  0  0  0  0  0  0
   -6.5303   -3.2165  -25.2466 C   0  0  0  0  0  0  0  0  0  0  0  0
   -5.9458   -2.8051  -26.4412 C   0  0  0  0  0  0  0  0  0  0  0  0
   -6.0163   -1.4813  -26.8276 C   0  0  0  0  0  0  0  0  0  0  0  0
   -6.6664   -0.5850  -25.9848 C   0  0  0  0  0  0  0  0  0  0  0  0
   -6.7236    0.7114  -26.3450 F   0  0  0  0  0  0  0  0  0  0  0  0
   -7.2524   -0.9703  -24.7926 C   0  0  0  0  0  0  0  0  0  0  0  0
   -7.2119   -2.3186  -24.4138 C   0  0  0  0  0  0  0  0  0  0  0  0
   -7.7521   -0.2130  -24.1926 H   0  0  0  0  0  0  0  0  0  0  0  0
   -5.5730   -1.1138  -27.7456 H   0  0  0  0  0  0  0  0  0  0  0  0
   -5.4384   -3.5661  -27.0289 H   0  0  0  0  0  0  0  0  0  0  0  0
   -9.0092   -4.3923  -23.8752 H   0  0  0  0  0  0  0  0  0  0  0  0
   -8.3737   -4.6992  -22.2338 H   0  0  0  0  0  0  0  0  0  0  0  0
   -9.3201   -0.8656  -20.7975 H   0  0  0  0  0  0  0  0  0  0  0  0
   -8.4939    0.0840  -22.0284 H   0  0  0  0  0  0  0  0  0  0  0  0
   -9.4478   -1.4066  -23.6016 H   0  0  0  0  0  0  0  0  0  0  0  0
  -10.0515   -3.3277  -21.3075 H   0  0  0  0  0  0  0  0  0  0  0  0
  -11.1175   -2.0479  -21.9095 H   0  0  0  0  0  0  0  0  0  0  0  0
  -10.7100   -3.4034  -22.9581 H   0  0  0  0  0  0  0  0  0  0  0  0
  1  2  1  0
  2  3  1  0
  3  4  1  0
  4  5  1  0
  5  6  2  0
  6  7  1  0
  7  8  2  0
  8  9  1  0
  9 10  2  0
 10 11  1  0
 11 12  2  0
 12 13  1  0
 13 14  2  0
 13 15  1  0
 12 16  1  0
 11 17  1  0
 10 18  1  0
  8 19  1  0
  6 20  1  0
  4 21  1  0
 21 22  2  0
 21 23  1  0
 23 24  1  6
 24 25  1  0
 25 26  1  0
 26 27  1  0
 27 28  2  0
 27 29  1  0
 29 30  1  0
 30 31  1  0
 31 32  1  0
 32 33  1  0
 33 34  1  0
 33 35  1  0
 32 36  1  0
 32 37  1  0
 31 38  1  0
 30 39  1  0
 30 40  1  0
 29 41  1  0
 26 42  1  0
 26 43  1  0
 25 44  1  0
 44 45  2  0
 44 46  1  0
 46 47  2  0
 47 48  1  0
 48 49  2  0
 49 50  1  0
 49 51  1  0
 51 52  2  0
 51 53  1  0
 48 54  1  0
 47 55  1  0
 24 56  1  0
 24 57  1  0
  3 58  1  0
  3 59  1  0
  2 60  1  6
  1 61  1  0
  1 62  1  0
  1 63  1  0
 23  2  1  0
 33 31  1  0
 52 46  1  0
 14  5  1  0
 52 23  1  0
 14  9  1  0
M  END
>  <cnnaffinities>  (22) 
[6.68473]

>  <score>  (22) 
6.68473

>  <index>  (22) 
21

>  <Smiles>  (22) 
C([C@]1(C(N(c2c(nc(c3c(c(c(c(c23)[H])[H])[H])[H])[H])[H])C(=O)[C@]21C(N(C(C(=O)N(C(C1(C(C1([H])[H])([H])[H])[H])([H])[H])[H])([H])[H])C(=O)c1c(c(c(F)c(c21)[H])[H])[H])([H])[H])([H])[H])[H])([H])([H])[H]

>  <h>  (22) 
<NA>

>  <Training>  (22) 
True

>  <Success>  (22) 
True

>  <enamine_searched>  (22) 
False

>  <enamine_id>  (22) 
nan

$$$$

     RDKit          3D

 68 73  0  0  0  0  0  0  0  0999 V2000
   -7.5313    3.0778  -21.9038 C   0  0  0  0  0  0  0  0  0  0  0  0
   -8.6719    2.6407  -22.6956 N   0  0  0  0  0  0  0  0  0  0  0  0
   -8.3892    1.8159  -23.7476 C   0  0  0  0  0  0  0  0  0  0  0  0
   -7.2393    1.5437  -24.0791 O   0  0  0  0  0  0  0  0  0  0  0  0
   -9.5727    1.2335  -24.5055 C   0  0  0  0  0  0  0  0  0  0  0  0
  -10.0445    0.0353  -23.8612 N   0  0  0  0  0  0  0  0  0  0  0  0
   -9.2175   -1.1592  -23.8969 C   0  0  0  0  0  0  0  0  0  0  0  0
   -9.2944   -1.9158  -22.5466 C   0  0  2  0  0  0  0  0  0  0  0  0
   -8.6943   -0.9860  -21.4506 C   0  0  0  0  0  0  0  0  0  0  0  0
   -9.2187   -0.0147  -20.9434 O   0  0  0  0  0  0  0  0  0  0  0  0
   -7.4076   -1.4073  -21.1854 N   0  0  0  0  0  0  0  0  0  0  0  0
   -6.6248   -0.8109  -20.1678 C   0  0  0  0  0  0  0  0  0  0  0  0
   -6.9308   -1.0374  -18.8464 C   0  0  0  0  0  0  0  0  0  0  0  0
   -6.2127   -0.5523  -17.8083 N   0  0  0  0  0  0  0  0  0  0  0  0
   -5.1721    0.1937  -18.0844 C   0  0  0  0  0  0  0  0  0  0  0  0
   -4.7446    0.5114  -19.4039 C   0  0  0  0  0  0  0  0  0  0  0  0
   -3.6202    1.3421  -19.6485 C   0  0  0  0  0  0  0  0  0  0  0  0
   -3.2523    1.6536  -20.9290 C   0  0  0  0  0  0  0  0  0  0  0  0
   -3.9959    1.1575  -22.0214 C   0  0  0  0  0  0  0  0  0  0  0  0
   -5.0933    0.3519  -21.8114 C   0  0  0  0  0  0  0  0  0  0  0  0
   -5.4917    0.0001  -20.4917 C   0  0  0  0  0  0  0  0  0  0  0  0
   -5.6859    0.0256  -22.6604 H   0  0  0  0  0  0  0  0  0  0  0  0
   -3.7082    1.4217  -23.0350 H   0  0  0  0  0  0  0  0  0  0  0  0
   -2.3998    2.3033  -21.1074 H   0  0  0  0  0  0  0  0  0  0  0  0
   -3.0831    1.7414  -18.7926 H   0  0  0  0  0  0  0  0  0  0  0  0
   -4.6067    0.5914  -17.2413 H   0  0  0  0  0  0  0  0  0  0  0  0
   -7.7881   -1.6544  -18.5865 H   0  0  0  0  0  0  0  0  0  0  0  0
   -6.9869   -2.5501  -21.9759 C   0  0  0  0  0  0  0  0  0  0  0  0
   -8.3277   -3.1328  -22.4563 C   0  0  2  0  0  0  0  0  0  0  0  0
   -8.1914   -4.0023  -23.7202 C   0  0  0  0  0  0  0  0  0  0  0  0
   -7.5849   -5.2927  -23.5058 N   0  0  0  0  0  0  0  0  0  0  0  0
   -6.2250   -5.5481  -23.4228 C   0  0  0  0  0  0  0  0  0  0  0  0
   -5.7663   -6.5075  -22.5089 C   0  0  0  0  0  0  0  0  0  0  0  0
   -4.4136   -6.7773  -22.3899 C   0  0  0  0  0  0  0  0  0  0  0  0
   -3.4849   -6.1942  -23.2459 C   0  0  0  0  0  0  0  0  0  0  0  0
   -3.9357   -5.2775  -24.1902 C   0  0  0  0  0  0  0  0  0  0  0  0
   -5.2816   -4.9215  -24.2484 C   0  0  0  0  0  0  0  0  0  0  0  0
   -5.5997   -4.1445  -24.9351 H   0  0  0  0  0  0  0  0  0  0  0  0
   -3.2326   -4.7903  -24.8698 H   0  0  0  0  0  0  0  0  0  0  0  0
   -2.4305   -6.4411  -23.1551 H   0  0  0  0  0  0  0  0  0  0  0  0
   -4.0953   -7.4534  -21.6047 H   0  0  0  0  0  0  0  0  0  0  0  0
   -6.4889   -7.0640  -21.9163 H   0  0  0  0  0  0  0  0  0  0  0  0
   -8.1778   -5.9994  -23.1064 H   0  0  0  0  0  0  0  0  0  0  0  0
   -9.1835   -4.1724  -24.1521 H   0  0  0  0  0  0  0  0  0  0  0  0
   -7.6009   -3.4571  -24.4661 H   0  0  0  0  0  0  0  0  0  0  0  0
   -8.6922   -3.7554  -21.6313 H   0  0  0  0  0  0  0  0  0  0  0  0
   -6.3533   -2.2390  -22.8230 H   0  0  0  0  0  0  0  0  0  0  0  0
   -6.4042   -3.2521  -21.3722 H   0  0  0  0  0  0  0  0  0  0  0  0
  -10.7724   -2.1972  -22.3133 C   0  0  0  0  0  0  0  0  0  0  0  0
  -11.2478   -3.3039  -21.6034 C   0  0  0  0  0  0  0  0  0  0  0  0
  -12.5893   -3.3597  -21.2553 C   0  0  0  0  0  0  0  0  0  0  0  0
  -13.1338   -4.4513  -20.0301 Cl  0  0  0  0  0  0  0  0  0  0  0  0
  -13.5354   -2.4667  -21.7474 C   0  0  0  0  0  0  0  0  0  0  0  0
  -13.0862   -1.4014  -22.4916 C   0  0  0  0  0  0  0  0  0  0  0  0
  -11.7206   -1.2398  -22.7085 C   0  0  0  0  0  0  0  0  0  0  0  0
  -11.2917    0.0458  -23.3203 C   0  0  0  0  0  0  0  0  0  0  0  0
  -12.0133    1.0365  -23.3227 O   0  0  0  0  0  0  0  0  0  0  0  0
  -13.7696   -0.6554  -22.8819 H   0  0  0  0  0  0  0  0  0  0  0  0
  -14.5796   -2.5937  -21.4802 H   0  0  0  0  0  0  0  0  0  0  0  0
  -10.5788   -4.0788  -21.2463 H   0  0  0  0  0  0  0  0  0  0  0  0
   -9.5558   -1.8177  -24.7081 H   0  0  0  0  0  0  0  0  0  0  0  0
   -8.1930   -0.8384  -24.0992 H   0  0  0  0  0  0  0  0  0  0  0  0
   -9.2389    1.0055  -25.5197 H   0  0  0  0  0  0  0  0  0  0  0  0
  -10.4152    1.9231  -24.5444 H   0  0  0  0  0  0  0  0  0  0  0  0
   -9.5555    2.5332  -22.2023 H   0  0  0  0  0  0  0  0  0  0  0  0
   -7.7780    3.9248  -21.2595 H   0  0  0  0  0  0  0  0  0  0  0  0
   -6.7548    3.4155  -22.5862 H   0  0  0  0  0  0  0  0  0  0  0  0
   -7.1283    2.2316  -21.3281 H   0  0  0  0  0  0  0  0  0  0  0  0
  1  2  1  0
  2  3  1  0
  3  4  2  0
  3  5  1  0
  5  6  1  0
  6  7  1  0
  8  7  1  6
  8  9  1  0
  9 10  2  0
  9 11  1  0
 11 12  1  0
 12 13  2  0
 13 14  1  0
 14 15  2  0
 15 16  1  0
 16 17  2  0
 17 18  1  0
 18 19  2  0
 19 20  1  0
 20 21  2  0
 20 22  1  0
 19 23  1  0
 18 24  1  0
 17 25  1  0
 15 26  1  0
 13 27  1  0
 11 28  1  0
 28 29  1  0
 29 30  1  0
 30 31  1  0
 31 32  1  0
 32 33  2  0
 33 34  1  0
 34 35  2  0
 35 36  1  0
 36 37  2  0
 37 38  1  0
 36 39  1  0
 35 40  1  0
 34 41  1  0
 33 42  1  0
 31 43  1  0
 30 44  1  0
 30 45  1  0
 29 46  1  1
 28 47  1  0
 28 48  1  0
  8 49  1  0
 49 50  2  0
 50 51  1  0
 51 52  1  0
 51 53  2  0
 53 54  1  0
 54 55  2  0
 55 56  1  0
 56 57  2  0
 54 58  1  0
 53 59  1  0
 50 60  1  0
  7 61  1  0
  7 62  1  0
  5 63  1  0
  5 64  1  0
  2 65  1  0
  1 66  1  0
  1 67  1  0
  1 68  1  0
 56  6  1  0
 29  8  1  0
 37 32  1  0
 55 49  1  0
 21 12  1  0
 21 16  1  0
M  END
>  <cnnaffinities>  (23) 
[6.84719]

>  <score>  (23) 
6.84719

>  <index>  (23) 
23

>  <Smiles>  (23) 
C(N(C(=O)C(N1C([C@@]2(C(=O)N(c3c(nc(c4c(c(c(c(c34)[H])[H])[H])[H])[H])[H])C([C@@]2(C(N(c2c(c(c(c(c2[H])[H])[H])[H])[H])[H])([H])[H])[H])([H])[H])c2c(c(Cl)c(c(c2C1=O)[H])[H])[H])([H])[H])([H])[H])[H])([H])([H])[H]

>  <h>  (23) 
<NA>

>  <Training>  (23) 
True

>  <Success>  (23) 
True

>  <enamine_searched>  (23) 
False

>  <enamine_id>  (23) 
nan

$$$$

     RDKit          3D

 65 70  0  0  0  0  0  0  0  0999 V2000
   -6.0996   -7.8203  -25.3813 O   0  0  0  0  0  0  0  0  0  0  0  0
   -6.0032   -7.2772  -24.2916 C   0  0  0  0  0  0  0  0  0  0  0  0
   -7.1776   -6.5839  -23.6003 C   0  0  0  0  0  0  0  0  0  0  0  0
   -7.0902   -5.0931  -23.7810 N   0  0  1  0  0  4  0  0  0  0  0  0
   -7.2690   -4.7492  -25.2784 C   0  0  0  0  0  0  0  0  0  0  0  0
   -7.2089   -3.2668  -25.5152 C   0  0  0  0  0  0  0  0  0  0  0  0
   -6.8454   -2.7857  -26.7703 C   0  0  0  0  0  0  0  0  0  0  0  0
   -6.7777   -1.4249  -27.0345 C   0  0  0  0  0  0  0  0  0  0  0  0
   -7.0853   -0.5292  -26.0154 C   0  0  0  0  0  0  0  0  0  0  0  0
   -6.9905    1.1864  -26.3156 Cl  0  0  0  0  0  0  0  0  0  0  0  0
   -7.4676   -0.9851  -24.7635 C   0  0  0  0  0  0  0  0  0  0  0  0
   -7.5433   -2.3602  -24.5065 C   0  0  0  0  0  0  0  0  0  0  0  0
   -7.9445   -2.8131  -23.1142 C   0  0  2  0  0  0  0  0  0  0  0  0
   -9.1884   -2.0931  -22.5706 C   0  0  0  0  0  0  0  0  0  0  0  0
   -8.7224   -1.1442  -21.4599 C   0  0  0  0  0  0  0  0  0  0  0  0
   -7.3210   -1.4852  -21.2436 N   0  0  0  0  0  0  0  0  0  0  0  0
   -6.5526   -0.8882  -20.2035 C   0  0  0  0  0  0  0  0  0  0  0  0
   -6.8936   -1.0639  -18.8820 C   0  0  0  0  0  0  0  0  0  0  0  0
   -6.2126   -0.5409  -17.8339 N   0  0  0  0  0  0  0  0  0  0  0  0
   -5.1726    0.2091  -18.0959 C   0  0  0  0  0  0  0  0  0  0  0  0
   -4.7278    0.5120  -19.4123 C   0  0  0  0  0  0  0  0  0  0  0  0
   -3.6069    1.3550  -19.6399 C   0  0  0  0  0  0  0  0  0  0  0  0
   -3.2244    1.6660  -20.9143 C   0  0  0  0  0  0  0  0  0  0  0  0
   -3.9503    1.1587  -22.0127 C   0  0  0  0  0  0  0  0  0  0  0  0
   -5.0314    0.3345  -21.8231 C   0  0  0  0  0  0  0  0  0  0  0  0
   -5.4418   -0.0298  -20.5074 C   0  0  0  0  0  0  0  0  0  0  0  0
   -5.5833   -0.0420  -22.6822 H   0  0  0  0  0  0  0  0  0  0  0  0
   -3.6488    1.4229  -23.0224 H   0  0  0  0  0  0  0  0  0  0  0  0
   -2.3725    2.3205  -21.0851 H   0  0  0  0  0  0  0  0  0  0  0  0
   -3.0843    1.7608  -18.7770 H   0  0  0  0  0  0  0  0  0  0  0  0
   -4.6259    0.6155  -17.2437 H   0  0  0  0  0  0  0  0  0  0  0  0
   -7.7506   -1.6778  -18.6043 H   0  0  0  0  0  0  0  0  0  0  0  0
   -6.8411   -2.4347  -22.1193 C   0  0  0  0  0  0  0  0  0  0  0  0
   -5.7392   -2.9619  -22.1279 O   0  0  0  0  0  0  0  0  0  0  0  0
   -9.2962   -1.3423  -20.5613 H   0  0  0  0  0  0  0  0  0  0  0  0
   -8.8468   -0.0814  -21.7129 H   0  0  0  0  0  0  0  0  0  0  0  0
   -9.8608   -2.8391  -22.1370 H   0  0  0  0  0  0  0  0  0  0  0  0
   -9.7494   -1.5839  -23.3585 H   0  0  0  0  0  0  0  0  0  0  0  0
   -8.1520   -4.3337  -23.0169 C   0  0  0  0  0  0  0  0  0  0  0  0
   -8.1336   -4.6117  -21.9605 H   0  0  0  0  0  0  0  0  0  0  0  0
   -9.1310   -4.5911  -23.4319 H   0  0  0  0  0  0  0  0  0  0  0  0
   -7.7045   -0.2570  -23.9894 H   0  0  0  0  0  0  0  0  0  0  0  0
   -6.4854   -1.0519  -28.0100 H   0  0  0  0  0  0  0  0  0  0  0  0
   -6.5991   -3.4934  -27.5578 H   0  0  0  0  0  0  0  0  0  0  0  0
   -6.5066   -5.2698  -25.8558 H   0  0  0  0  0  0  0  0  0  0  0  0
   -8.2375   -5.1567  -25.5972 H   0  0  0  0  0  0  0  0  0  0  0  0
   -6.1658   -4.7126  -23.4584 H   0  0  0  0  0  0  0  0  0  0  0  0
   -7.2243   -6.8112  -22.5323 H   0  0  0  0  0  0  0  0  0  0  0  0
   -8.0993   -6.9620  -24.0504 H   0  0  0  0  0  0  0  0  0  0  0  0
   -4.8311   -7.2131  -23.6238 N   0  0  0  0  0  0  0  0  0  0  0  0
   -3.6682   -7.8619  -24.2073 C   0  0  0  0  0  0  0  0  0  0  0  0
   -2.4066   -7.5599  -23.4156 C   0  0  1  0  0  0  0  0  0  0  0  0
   -1.0895   -8.0315  -24.0955 C   0  0  0  0  0  0  0  0  0  0  0  0
   -0.6173   -6.5672  -24.2071 C   0  0  1  0  0  0  0  0  0  0  0  0
   -0.4998   -6.1276  -25.5189 F   0  0  0  0  0  0  0  0  0  0  0  0
   -1.9074   -6.0839  -23.5111 C   0  0  0  0  0  0  0  0  0  0  0  0
   -1.7697   -5.5704  -22.5514 H   0  0  0  0  0  0  0  0  0  0  0  0
   -2.5143   -5.4291  -24.1508 H   0  0  0  0  0  0  0  0  0  0  0  0
    0.3308   -6.3214  -23.7130 H   0  0  0  0  0  0  0  0  0  0  0  0
   -1.2263   -8.5196  -25.0684 H   0  0  0  0  0  0  0  0  0  0  0  0
   -0.4583   -8.6877  -23.4869 H   0  0  0  0  0  0  0  0  0  0  0  0
   -2.5406   -7.9280  -22.3845 H   0  0  0  0  0  0  0  0  0  0  0  0
   -3.5705   -7.5130  -25.2473 H   0  0  0  0  0  0  0  0  0  0  0  0
   -3.8593   -8.9434  -24.2643 H   0  0  0  0  0  0  0  0  0  0  0  0
   -4.7854   -6.7081  -22.7494 H   0  0  0  0  0  0  0  0  0  0  0  0
  1  2  2  0
  2  3  1  0
  3  4  1  0
  4  5  1  0
  5  6  1  0
  6  7  2  0
  7  8  1  0
  8  9  2  0
  9 10  1  0
  9 11  1  0
 11 12  2  0
 12 13  1  0
 13 14  1  1
 14 15  1  0
 15 16  1  0
 16 17  1  0
 17 18  2  0
 18 19  1  0
 19 20  2  0
 20 21  1  0
 21 22  2  0
 22 23  1  0
 23 24  2  0
 24 25  1  0
 25 26  2  0
 25 27  1  0
 24 28  1  0
 23 29  1  0
 22 30  1  0
 20 31  1  0
 18 32  1  0
 16 33  1  0
 33 34  2  0
 15 35  1  0
 15 36  1  0
 14 37  1  0
 14 38  1  0
 13 39  1  0
 39 40  1  0
 39 41  1  0
 11 42  1  0
  8 43  1  0
  7 44  1  0
  5 45  1  0
  5 46  1  0
  4 47  1  1
  3 48  1  0
  3 49  1  0
  2 50  1  0
 50 51  1  0
 51 52  1  0
 52 53  1  0
 53 54  1  0
 54 55  1  0
 54 56  1  0
 56 57  1  0
 56 58  1  0
 54 59  1  1
 53 60  1  0
 53 61  1  0
 52 62  1  1
 51 63  1  0
 51 64  1  0
 50 65  1  0
 39  4  1  0
 56 52  1  0
 12  6  1  0
 33 13  1  0
 26 17  1  0
 26 21  1  0
M  CHG  1   4   1
M  END
>  <cnnaffinities>  (24) 
[6.51048, 6.41887, 6.35795, 6.62774]

>  <score>  (24) 
6.51048

>  <index>  (24) 
24

>  <Smiles>  (24) 
O=C(C([N@+]1(C(c2c(c(c(Cl)c(c2[C@@]2(C(C(N(c3c(nc(c4c(c(c(c(c34)[H])[H])[H])[H])[H])[H])C2=O)([H])[H])([H])[H])C1([H])[H])[H])[H])[H])([H])[H])[H])([H])[H])N(C([C@]1(C([C@@](F)(C1([H])[H])[H])([H])[H])[H])([H])[H])[H]

>  <h>  (24) 
<NA>

>  <Training>  (24) 
True

>  <Success>  (24) 
True

>  <enamine_searched>  (24) 
False

>  <enamine_id>  (24) 
nan

$$$$

     RDKit          3D

 70 75  0  0  0  0  0  0  0  0999 V2000
   -5.7799   -7.7666  -25.5528 O   0  0  0  0  0  0  0  0  0  0  0  0
   -5.6664   -7.1678  -24.4976 C   0  0  0  0  0  0  0  0  0  0  0  0
   -6.8463   -6.4171  -23.8686 C   0  0  0  0  0  0  0  0  0  0  0  0
   -6.7804   -4.9104  -23.9719 N   0  0  1  0  0  4  0  0  0  0  0  0
   -6.7605   -4.5226  -25.4507 C   0  0  0  0  0  0  0  0  0  0  0  0
   -6.7679   -3.0265  -25.6391 C   0  0  0  0  0  0  0  0  0  0  0  0
   -6.2811   -2.4791  -26.8283 C   0  0  0  0  0  0  0  0  0  0  0  0
   -6.2986   -1.1086  -27.0496 C   0  0  0  0  0  0  0  0  0  0  0  0
   -6.8110   -0.2773  -26.0602 C   0  0  0  0  0  0  0  0  0  0  0  0
   -6.8462    1.4474  -26.3163 Cl  0  0  0  0  0  0  0  0  0  0  0  0
   -7.3011   -0.8052  -24.8743 C   0  0  0  0  0  0  0  0  0  0  0  0
   -7.2935   -2.1847  -24.6584 C   0  0  0  0  0  0  0  0  0  0  0  0
   -7.8071   -2.6999  -23.3245 C   0  0  2  0  0  0  0  0  0  0  0  0
   -6.8331   -2.3302  -22.2108 C   0  0  0  0  0  0  0  0  0  0  0  0
   -5.7195   -2.8326  -22.1961 O   0  0  0  0  0  0  0  0  0  0  0  0
   -7.3104   -1.4324  -21.2725 N   0  0  0  0  0  0  0  0  0  0  0  0
   -6.5548   -0.8574  -20.2177 C   0  0  0  0  0  0  0  0  0  0  0  0
   -6.8932   -1.0604  -18.8977 C   0  0  0  0  0  0  0  0  0  0  0  0
   -6.2071   -0.5562  -17.8431 N   0  0  0  0  0  0  0  0  0  0  0  0
   -5.1687    0.1996  -18.0928 C   0  0  0  0  0  0  0  0  0  0  0  0
   -4.7273    0.5181  -19.4064 C   0  0  0  0  0  0  0  0  0  0  0  0
   -3.6077    1.3630  -19.6312 C   0  0  0  0  0  0  0  0  0  0  0  0
   -3.2375    1.6924  -20.9062 C   0  0  0  0  0  0  0  0  0  0  0  0
   -3.9745    1.2042  -22.0109 C   0  0  0  0  0  0  0  0  0  0  0  0
   -5.0550    0.3790  -21.8188 C   0  0  0  0  0  0  0  0  0  0  0  0
   -5.4452   -0.0029  -20.5038 C   0  0  0  0  0  0  0  0  0  0  0  0
   -5.6224    0.0121  -22.6679 H   0  0  0  0  0  0  0  0  0  0  0  0
   -3.6852    1.4836  -23.0197 H   0  0  0  0  0  0  0  0  0  0  0  0
   -2.3891    2.3502  -21.0753 H   0  0  0  0  0  0  0  0  0  0  0  0
   -3.0802    1.7562  -18.7652 H   0  0  0  0  0  0  0  0  0  0  0  0
   -4.6239    0.5993  -17.2365 H   0  0  0  0  0  0  0  0  0  0  0  0
   -7.7505   -1.6753  -18.6248 H   0  0  0  0  0  0  0  0  0  0  0  0
   -8.3152   -1.3769  -21.1686 H   0  0  0  0  0  0  0  0  0  0  0  0
   -7.9840   -4.2212  -23.3137 C   0  0  0  0  0  0  0  0  0  0  0  0
   -8.8838   -4.4930  -23.8735 H   0  0  0  0  0  0  0  0  0  0  0  0
   -8.0808   -4.5734  -22.2841 H   0  0  0  0  0  0  0  0  0  0  0  0
   -8.7639   -2.2195  -23.1048 H   0  0  0  0  0  0  0  0  0  0  0  0
   -7.6927   -0.1410  -24.1092 H   0  0  0  0  0  0  0  0  0  0  0  0
   -5.9231   -0.6795  -27.9736 H   0  0  0  0  0  0  0  0  0  0  0  0
   -5.8794   -3.1370  -27.5970 H   0  0  0  0  0  0  0  0  0  0  0  0
   -7.6434   -4.9734  -25.9281 H   0  0  0  0  0  0  0  0  0  0  0  0
   -5.8907   -4.9743  -25.9322 H   0  0  0  0  0  0  0  0  0  0  0  0
   -5.9383   -4.4969  -23.5002 H   0  0  0  0  0  0  0  0  0  0  0  0
   -7.7243   -6.7788  -24.4092 H   0  0  0  0  0  0  0  0  0  0  0  0
   -6.9714   -6.6948  -22.8205 H   0  0  0  0  0  0  0  0  0  0  0  0
   -4.5027   -7.1194  -23.7833 N   0  0  0  0  0  0  0  0  0  0  0  0
   -3.2942   -7.7515  -24.1741 C   0  0  0  0  0  0  0  0  0  0  0  0
   -2.0724   -7.1089  -23.9627 C   0  0  0  0  0  0  0  0  0  0  0  0
   -0.8877   -7.7073  -24.3870 C   0  0  0  0  0  0  0  0  0  0  0  0
   -0.9063   -8.9499  -25.0260 C   0  0  0  0  0  0  0  0  0  0  0  0
    0.3187   -9.5439  -25.4775 N   0  0  0  0  0  0  0  0  0  0  0  0
    1.3329   -9.8743  -24.4779 C   0  0  0  0  0  0  0  0  0  0  0  0
    2.6527  -10.2405  -25.1423 C   0  0  0  0  0  0  0  0  0  0  0  0
    2.4255  -11.1940  -26.1512 O   0  0  0  0  0  0  0  0  0  0  0  0
    1.7029  -10.6246  -27.2096 C   0  0  0  0  0  0  0  0  0  0  0  0
    0.4032   -9.9434  -26.7883 C   0  0  0  0  0  0  0  0  0  0  0  0
   -0.4692   -9.7263  -27.6106 O   0  0  0  0  0  0  0  0  0  0  0  0
    2.3108   -9.8659  -27.7322 H   0  0  0  0  0  0  0  0  0  0  0  0
    1.4532  -11.4283  -27.9054 H   0  0  0  0  0  0  0  0  0  0  0  0
    3.1446   -9.3540  -25.5710 H   0  0  0  0  0  0  0  0  0  0  0  0
    3.3353  -10.6982  -24.4181 H   0  0  0  0  0  0  0  0  0  0  0  0
    1.4726   -9.0106  -23.8202 H   0  0  0  0  0  0  0  0  0  0  0  0
    0.9788  -10.7224  -23.8770 H   0  0  0  0  0  0  0  0  0  0  0  0
   -2.1290   -9.6078  -25.1946 C   0  0  0  0  0  0  0  0  0  0  0  0
   -3.3121   -9.0105  -24.7737 C   0  0  0  0  0  0  0  0  0  0  0  0
   -4.2639   -9.5033  -24.9306 H   0  0  0  0  0  0  0  0  0  0  0  0
   -2.1631  -10.5819  -25.6828 H   0  0  0  0  0  0  0  0  0  0  0  0
    0.0588   -7.1893  -24.2334 H   0  0  0  0  0  0  0  0  0  0  0  0
   -2.0434   -6.1388  -23.4717 H   0  0  0  0  0  0  0  0  0  0  0  0
   -4.4921   -6.5149  -22.9789 H   0  0  0  0  0  0  0  0  0  0  0  0
  1  2  2  0
  2  3  1  0
  3  4  1  0
  4  5  1  0
  5  6  1  0
  6  7  2  0
  7  8  1  0
  8  9  2  0
  9 10  1  0
  9 11  1  0
 11 12  2  0
 12 13  1  0
 13 14  1  0
 14 15  2  0
 14 16  1  0
 16 17  1  0
 17 18  2  0
 18 19  1  0
 19 20  2  0
 20 21  1  0
 21 22  2  0
 22 23  1  0
 23 24  2  0
 24 25  1  0
 25 26  2  0
 25 27  1  0
 24 28  1  0
 23 29  1  0
 22 30  1  0
 20 31  1  0
 18 32  1  0
 16 33  1  0
 13 34  1  0
 34 35  1  0
 34 36  1  0
 13 37  1  1
 11 38  1  0
  8 39  1  0
  7 40  1  0
  5 41  1  0
  5 42  1  0
  4 43  1  1
  3 44  1  0
  3 45  1  0
  2 46  1  0
 46 47  1  0
 47 48  2  0
 48 49  1  0
 49 50  2  0
 50 51  1  0
 51 52  1  0
 52 53  1  0
 53 54  1  0
 54 55  1  0
 55 56  1  0
 56 57  2  0
 55 58  1  0
 55 59  1  0
 53 60  1  0
 53 61  1  0
 52 62  1  0
 52 63  1  0
 50 64  1  0
 64 65  2  0
 65 66  1  0
 64 67  1  0
 49 68  1  0
 48 69  1  0
 46 70  1  0
 34  4  1  0
 65 47  1  0
 12  6  1  0
 26 17  1  0
 56 51  1  0
 26 21  1  0
M  CHG  1   4   1
M  END
>  <cnnaffinities>  (25) 
[6.18785]

>  <score>  (25) 
6.18785

>  <index>  (25) 
25

>  <Smiles>  (25) 
O=C(C([N@+]1(C(c2c(c(c(Cl)c(c2[C@](C(=O)N(c2c(nc(c3c(c(c(c(c23)[H])[H])[H])[H])[H])[H])[H])(C1([H])[H])[H])[H])[H])[H])([H])[H])[H])([H])[H])N(c1c(c(c(N2C(C(OC(C2=O)([H])[H])([H])[H])([H])[H])c(c1[H])[H])[H])[H])[H]

>  <h>  (25) 
<NA>

>  <Training>  (25) 
True

>  <Success>  (25) 
True

>  <enamine_searched>  (25) 
False

>  <enamine_id>  (25) 
nan

$$$$

     RDKit          3D

 55 60  0  0  0  0  0  0  0  0999 V2000
  -10.2214   -2.9758  -22.0764 C   0  0  0  0  0  0  0  0  0  0  0  0
   -9.1540   -2.0198  -22.6283 C   0  0  1  0  0  0  0  0  0  0  0  0
   -8.6894   -1.0392  -21.5344 C   0  0  0  0  0  0  0  0  0  0  0  0
   -7.3488   -1.4532  -21.1997 N   0  0  0  0  0  0  0  0  0  0  0  0
   -6.5712   -0.8499  -20.1899 C   0  0  0  0  0  0  0  0  0  0  0  0
   -6.9080   -1.0501  -18.8765 C   0  0  0  0  0  0  0  0  0  0  0  0
   -6.2198   -0.5451  -17.8275 N   0  0  0  0  0  0  0  0  0  0  0  0
   -5.1772    0.2014  -18.0989 C   0  0  0  0  0  0  0  0  0  0  0  0
   -4.7342    0.5040  -19.4183 C   0  0  0  0  0  0  0  0  0  0  0  0
   -3.6120    1.3412  -19.6445 C   0  0  0  0  0  0  0  0  0  0  0  0
   -3.2307    1.6616  -20.9171 C   0  0  0  0  0  0  0  0  0  0  0  0
   -3.9546    1.1605  -22.0236 C   0  0  0  0  0  0  0  0  0  0  0  0
   -5.0375    0.3370  -21.8366 C   0  0  0  0  0  0  0  0  0  0  0  0
   -5.4486   -0.0232  -20.5152 C   0  0  0  0  0  0  0  0  0  0  0  0
   -5.5888   -0.0326  -22.7026 H   0  0  0  0  0  0  0  0  0  0  0  0
   -3.6532    1.4416  -23.0292 H   0  0  0  0  0  0  0  0  0  0  0  0
   -2.3791    2.3146  -21.0847 H   0  0  0  0  0  0  0  0  0  0  0  0
   -3.0884    1.7415  -18.7810 H   0  0  0  0  0  0  0  0  0  0  0  0
   -4.6254    0.6184  -17.2557 H   0  0  0  0  0  0  0  0  0  0  0  0
   -7.7657   -1.6795  -18.6383 H   0  0  0  0  0  0  0  0  0  0  0  0
   -6.8257   -2.4036  -22.0341 C   0  0  0  0  0  0  0  0  0  0  0  0
   -5.7399   -2.9285  -21.8767 O   0  0  0  0  0  0  0  0  0  0  0  0
   -7.8448   -2.6723  -23.1572 C   0  0  1  0  0  0  0  0  0  0  0  0
   -7.9346   -4.1825  -23.3643 C   0  0  0  0  0  0  0  0  0  0  0  0
   -6.6768   -4.6577  -23.8946 N   0  0  0  0  0  0  0  0  0  0  0  0
   -6.2446   -5.9565  -23.4393 C   0  0  0  0  0  0  0  0  0  0  0  0
   -7.1321   -7.0101  -24.0399 C   0  0  0  0  0  0  0  0  0  0  0  0
   -8.4029   -7.4734  -23.6666 C   0  0  0  0  0  0  0  0  0  0  0  0
   -8.9142   -8.1935  -24.6550 N   0  0  0  0  0  0  0  0  0  0  0  0
   -7.9687   -8.1399  -25.5777 N   0  0  0  0  0  0  0  0  0  0  0  0
   -6.8871   -7.4521  -25.2676 N   0  0  0  0  0  0  0  0  0  0  0  0
   -7.9984   -8.7175  -26.4127 H   0  0  0  0  0  0  0  0  0  0  0  0
   -8.9507   -7.3051  -22.7504 H   0  0  0  0  0  0  0  0  0  0  0  0
   -5.2170   -6.0864  -23.7783 H   0  0  0  0  0  0  0  0  0  0  0  0
   -6.2638   -5.9256  -22.3441 H   0  0  0  0  0  0  0  0  0  0  0  0
   -6.2003   -4.1872  -25.0840 C   0  0  0  0  0  0  0  0  0  0  0  0
   -5.4636   -4.8353  -25.8138 O   0  0  0  0  0  0  0  0  0  0  0  0
   -6.6208   -2.7979  -25.3922 C   0  0  0  0  0  0  0  0  0  0  0  0
   -6.1746   -2.2561  -26.5944 C   0  0  0  0  0  0  0  0  0  0  0  0
   -6.4002   -0.9246  -26.8710 C   0  0  0  0  0  0  0  0  0  0  0  0
   -7.0784   -0.1698  -25.9179 C   0  0  0  0  0  0  0  0  0  0  0  0
   -7.2758    1.1369  -26.1630 F   0  0  0  0  0  0  0  0  0  0  0  0
   -7.5560   -0.6979  -24.7336 C   0  0  0  0  0  0  0  0  0  0  0  0
   -7.3550   -2.0539  -24.4634 C   0  0  0  0  0  0  0  0  0  0  0  0
   -8.0849   -0.0508  -24.0413 H   0  0  0  0  0  0  0  0  0  0  0  0
   -6.0370   -0.4535  -27.7761 H   0  0  0  0  0  0  0  0  0  0  0  0
   -5.6303   -2.9153  -27.2653 H   0  0  0  0  0  0  0  0  0  0  0  0
   -8.1214   -4.6936  -22.4167 H   0  0  0  0  0  0  0  0  0  0  0  0
   -8.7588   -4.4223  -24.0508 H   0  0  0  0  0  0  0  0  0  0  0  0
   -9.3319   -1.1066  -20.6633 H   0  0  0  0  0  0  0  0  0  0  0  0
   -8.7009    0.0043  -21.8698 H   0  0  0  0  0  0  0  0  0  0  0  0
   -9.6290   -1.4853  -23.4568 H   0  0  0  0  0  0  0  0  0  0  0  0
   -9.8344   -3.5771  -21.2468 H   0  0  0  0  0  0  0  0  0  0  0  0
  -11.0748   -2.4001  -21.7002 H   0  0  0  0  0  0  0  0  0  0  0  0
  -10.5999   -3.6519  -22.8488 H   0  0  0  0  0  0  0  0  0  0  0  0
  1  2  1  0
  2  3  1  0
  3  4  1  0
  4  5  1  0
  5  6  2  0
  6  7  1  0
  7  8  2  0
  8  9  1  0
  9 10  2  0
 10 11  1  0
 11 12  2  0
 12 13  1  0
 13 14  2  0
 13 15  1  0
 12 16  1  0
 11 17  1  0
 10 18  1  0
  8 19  1  0
  6 20  1  0
  4 21  1  0
 21 22  2  0
 21 23  1  0
 23 24  1  6
 24 25  1  0
 25 26  1  0
 26 27  1  0
 27 28  1  0
 28 29  2  0
 29 30  1  0
 30 31  1  0
 30 32  1  0
 28 33  1  0
 26 34  1  0
 26 35  1  0
 25 36  1  0
 36 37  2  0
 36 38  1  0
 38 39  2  0
 39 40  1  0
 40 41  2  0
 41 42  1  0
 41 43  1  0
 43 44  2  0
 43 45  1  0
 40 46  1  0
 39 47  1  0
 24 48  1  0
 24 49  1  0
  3 50  1  0
  3 51  1  0
  2 52  1  6
  1 53  1  0
  1 54  1  0
  1 55  1  0
 23  2  1  0
 31 27  2  0
 44 38  1  0
 14  5  1  0
 44 23  1  0
 14  9  1  0
M  END
>  <cnnaffinities>  (26) 
[6.27482, 6.70884, 6.1925]

>  <score>  (26) 
6.27482

>  <index>  (26) 
26

>  <Smiles>  (26) 
C([C@]1(C(N(c2c(nc(c3c(c(c(c(c23)[H])[H])[H])[H])[H])[H])C(=O)[C@]21C(N(C(c1c(nn(n1)[H])[H])([H])[H])C(=O)c1c(c(c(F)c(c21)[H])[H])[H])([H])[H])([H])[H])[H])([H])([H])[H]

>  <h>  (26) 
<NA>

>  <Training>  (26) 
True

>  <Success>  (26) 
True

>  <enamine_searched>  (26) 
False

>  <enamine_id>  (26) 
nan

$$$$

     RDKit          3D

 58 62  0  0  0  0  0  0  0  0999 V2000
   -8.4353    4.4678  -24.6464 C   0  0  0  0  0  0  0  0  0  0  0  0
   -8.2041    3.3376  -23.7205 N   0  0  0  0  0  4  0  0  0  0  0  0
   -7.2629    2.3194  -24.2641 C   0  0  0  0  0  0  0  0  0  0  0  0
   -7.9420    1.2795  -25.1707 C   0  0  0  0  0  0  0  0  0  0  0  0
   -8.7960    0.3414  -24.4447 N   0  0  0  0  0  0  0  0  0  0  0  0
   -8.3619   -1.0350  -24.2283 C   0  0  0  0  0  0  0  0  0  0  0  0
   -8.8123   -1.5668  -22.8371 C   0  0  2  0  0  0  0  0  0  0  0  0
   -8.1331   -0.7104  -21.7433 C   0  0  0  0  0  0  0  0  0  0  0  0
   -8.3061    0.4745  -21.5351 O   0  0  0  0  0  0  0  0  0  0  0  0
   -7.2490   -1.4920  -21.0389 N   0  0  0  0  0  0  0  0  0  0  0  0
   -6.4413   -0.9017  -20.0279 C   0  0  0  0  0  0  0  0  0  0  0  0
   -6.7270   -1.1046  -18.7011 C   0  0  0  0  0  0  0  0  0  0  0  0
   -6.0348   -0.5422  -17.6785 N   0  0  0  0  0  0  0  0  0  0  0  0
   -5.0365    0.2508  -17.9788 C   0  0  0  0  0  0  0  0  0  0  0  0
   -4.6263    0.5411  -19.3109 C   0  0  0  0  0  0  0  0  0  0  0  0
   -3.5379    1.4083  -19.5971 C   0  0  0  0  0  0  0  0  0  0  0  0
   -3.2084    1.7051  -20.8909 C   0  0  0  0  0  0  0  0  0  0  0  0
   -3.9388    1.1411  -21.9599 C   0  0  0  0  0  0  0  0  0  0  0  0
   -4.9757    0.2782  -21.7092 C   0  0  0  0  0  0  0  0  0  0  0  0
   -5.3543   -0.0388  -20.3733 C   0  0  0  0  0  0  0  0  0  0  0  0
   -5.5318   -0.1579  -22.5337 H   0  0  0  0  0  0  0  0  0  0  0  0
   -3.6846    1.4019  -22.9825 H   0  0  0  0  0  0  0  0  0  0  0  0
   -2.3911    2.3873  -21.1026 H   0  0  0  0  0  0  0  0  0  0  0  0
   -2.9971    1.8512  -18.7650 H   0  0  0  0  0  0  0  0  0  0  0  0
   -4.4940    0.7087  -17.1489 H   0  0  0  0  0  0  0  0  0  0  0  0
   -7.5679   -1.7331  -18.4090 H   0  0  0  0  0  0  0  0  0  0  0  0
   -7.0316   -2.8011  -21.6268 C   0  0  0  0  0  0  0  0  0  0  0  0
   -8.2668   -2.9953  -22.5395 C   0  0  2  0  0  0  0  0  0  0  0  0
   -8.0089   -3.8845  -23.7610 C   0  0  0  0  0  0  0  0  0  0  0  0
   -7.7378   -4.9016  -23.4663 H   0  0  0  0  0  0  0  0  0  0  0  0
   -7.1948   -3.5066  -24.3887 H   0  0  0  0  0  0  0  0  0  0  0  0
   -8.8978   -3.9663  -24.3955 H   0  0  0  0  0  0  0  0  0  0  0  0
   -9.0208   -3.4921  -21.9268 H   0  0  0  0  0  0  0  0  0  0  0  0
   -6.9813   -3.5617  -20.8418 H   0  0  0  0  0  0  0  0  0  0  0  0
   -6.0877   -2.8384  -22.1958 H   0  0  0  0  0  0  0  0  0  0  0  0
  -10.3259   -1.3781  -22.7461 C   0  0  0  0  0  0  0  0  0  0  0  0
  -11.1906   -2.2486  -22.0634 C   0  0  0  0  0  0  0  0  0  0  0  0
  -12.5245   -1.9036  -21.9396 C   0  0  0  0  0  0  0  0  0  0  0  0
  -13.3387   -2.7319  -21.2631 F   0  0  0  0  0  0  0  0  0  0  0  0
  -13.0587   -0.7173  -22.4268 C   0  0  0  0  0  0  0  0  0  0  0  0
  -12.2184    0.1243  -23.1222 C   0  0  0  0  0  0  0  0  0  0  0  0
  -10.8685   -0.1932  -23.2732 C   0  0  0  0  0  0  0  0  0  0  0  0
  -10.0051    0.7719  -24.0154 C   0  0  0  0  0  0  0  0  0  0  0  0
  -10.3859    1.9422  -24.2033 O   0  0  0  0  0  0  0  0  0  0  0  0
  -12.5957    1.0333  -23.5761 H   0  0  0  0  0  0  0  0  0  0  0  0
  -14.1047   -0.4764  -22.2676 H   0  0  0  0  0  0  0  0  0  0  0  0
  -10.8650   -3.1759  -21.6025 H   0  0  0  0  0  0  0  0  0  0  0  0
   -8.7757   -1.6883  -25.0090 H   0  0  0  0  0  0  0  0  0  0  0  0
   -7.2676   -1.0723  -24.3019 H   0  0  0  0  0  0  0  0  0  0  0  0
   -8.5538    1.7767  -25.9347 H   0  0  0  0  0  0  0  0  0  0  0  0
   -7.1800    0.6924  -25.6945 H   0  0  0  0  0  0  0  0  0  0  0  0
   -6.4797    2.8315  -24.8314 H   0  0  0  0  0  0  0  0  0  0  0  0
   -6.7866    1.8104  -23.4238 H   0  0  0  0  0  0  0  0  0  0  0  0
   -9.1251    2.8872  -23.5505 H   0  0  0  0  0  0  0  0  0  0  0  0
   -7.8504    3.6968  -22.8174 H   0  0  0  0  0  0  0  0  0  0  0  0
   -7.4871    4.9151  -24.9629 H   0  0  0  0  0  0  0  0  0  0  0  0
   -9.0390    5.2345  -24.1586 H   0  0  0  0  0  0  0  0  0  0  0  0
   -8.9747    4.1285  -25.5354 H   0  0  0  0  0  0  0  0  0  0  0  0
  1  2  1  0
  2  3  1  0
  3  4  1  0
  4  5  1  0
  5  6  1  0
  7  6  1  6
  7  8  1  0
  8  9  2  0
  8 10  1  0
 10 11  1  0
 11 12  2  0
 12 13  1  0
 13 14  2  0
 14 15  1  0
 15 16  2  0
 16 17  1  0
 17 18  2  0
 18 19  1  0
 19 20  2  0
 19 21  1  0
 18 22  1  0
 17 23  1  0
 16 24  1  0
 14 25  1  0
 12 26  1  0
 10 27  1  0
 27 28  1  0
 28 29  1  0
 29 30  1  0
 29 31  1  0
 29 32  1  0
 28 33  1  1
 27 34  1  0
 27 35  1  0
  7 36  1  0
 36 37  2  0
 37 38  1  0
 38 39  1  0
 38 40  2  0
 40 41  1  0
 41 42  2  0
 42 43  1  0
 43 44  2  0
 41 45  1  0
 40 46  1  0
 37 47  1  0
  6 48  1  0
  6 49  1  0
  4 50  1  0
  4 51  1  0
  3 52  1  0
  3 53  1  0
  2 54  1  0
  2 55  1  0
  1 56  1  0
  1 57  1  0
  1 58  1  0
 43  5  1  0
 28  7  1  0
 42 36  1  0
 20 11  1  0
 20 15  1  0
M  CHG  1   2   1
M  END
>  <cnnaffinities>  (27) 
[6.34298]

>  <score>  (27) 
6.34298

>  <index>  (27) 
27

>  <Smiles>  (27) 
C([N+](C(C(N1C([C@@]2(C(=O)N(c3c(nc(c4c(c(c(c(c34)[H])[H])[H])[H])[H])[H])C([C@@]2(C([H])([H])[H])[H])([H])[H])c2c(c(F)c(c(c2C1=O)[H])[H])[H])([H])[H])([H])[H])([H])[H])([H])[H])([H])([H])[H]

>  <h>  (27) 
<NA>

>  <Training>  (27) 
True

>  <Success>  (27) 
True

>  <enamine_searched>  (27) 
False

>  <enamine_id>  (27) 
nan

$$$$

     RDKit          3D

 64 68  0  0  0  0  0  0  0  0999 V2000
   -7.4686    3.1467  -22.0683 C   0  0  0  0  0  0  0  0  0  0  0  0
   -8.5784    2.5751  -22.8173 N   0  0  0  0  0  0  0  0  0  0  0  0
   -8.3260    1.7669  -23.8924 C   0  0  0  0  0  0  0  0  0  0  0  0
   -7.1944    1.4931  -24.2733 O   0  0  0  0  0  0  0  0  0  0  0  0
   -9.5827    1.2214  -24.5899 C   0  0  0  0  0  0  0  0  0  0  0  0
  -10.0528    0.0200  -23.9280 N   0  0  0  0  0  0  0  0  0  0  0  0
   -9.2197   -1.1743  -23.9363 C   0  0  0  0  0  0  0  0  0  0  0  0
   -9.3045   -1.9172  -22.5698 C   0  0  2  0  0  0  0  0  0  0  0  0
   -8.6994   -0.9869  -21.4849 C   0  0  0  0  0  0  0  0  0  0  0  0
   -9.2217   -0.0099  -20.9782 O   0  0  0  0  0  0  0  0  0  0  0  0
   -7.4246   -1.4235  -21.1900 N   0  0  0  0  0  0  0  0  0  0  0  0
   -6.6452   -0.8202  -20.1752 C   0  0  0  0  0  0  0  0  0  0  0  0
   -6.9530   -1.0432  -18.8542 C   0  0  0  0  0  0  0  0  0  0  0  0
   -6.2295   -0.5634  -17.8170 N   0  0  0  0  0  0  0  0  0  0  0  0
   -5.1838    0.1750  -18.0928 C   0  0  0  0  0  0  0  0  0  0  0  0
   -4.7569    0.4925  -19.4133 C   0  0  0  0  0  0  0  0  0  0  0  0
   -3.6288    1.3195  -19.6611 C   0  0  0  0  0  0  0  0  0  0  0  0
   -3.2732    1.6402  -20.9418 C   0  0  0  0  0  0  0  0  0  0  0  0
   -4.0295    1.1591  -22.0330 C   0  0  0  0  0  0  0  0  0  0  0  0
   -5.1300    0.3580  -21.8187 C   0  0  0  0  0  0  0  0  0  0  0  0
   -5.5133   -0.0071  -20.4988 C   0  0  0  0  0  0  0  0  0  0  0  0
   -5.7392    0.0514  -22.6623 H   0  0  0  0  0  0  0  0  0  0  0  0
   -3.7538    1.4338  -23.0464 H   0  0  0  0  0  0  0  0  0  0  0  0
   -2.4221    2.2920  -21.1229 H   0  0  0  0  0  0  0  0  0  0  0  0
   -3.0888    1.7162  -18.8054 H   0  0  0  0  0  0  0  0  0  0  0  0
   -4.6158    0.5714  -17.2503 H   0  0  0  0  0  0  0  0  0  0  0  0
   -7.8146   -1.6541  -18.5931 H   0  0  0  0  0  0  0  0  0  0  0  0
   -6.9935   -2.5568  -21.9775 C   0  0  0  0  0  0  0  0  0  0  0  0
   -8.3351   -3.1249  -22.4749 C   0  0  2  0  0  0  0  0  0  0  0  0
   -8.2137   -3.9662  -23.7370 C   0  0  0  0  0  0  0  0  0  0  0  0
   -7.4050   -5.5240  -23.4269 S   0  0  0  0  0  0  0  0  0  0  0  0
   -8.2589   -6.3135  -22.5467 O   0  0  0  0  0  0  0  0  0  0  0  0
   -6.0062   -5.3004  -23.0870 O   0  0  0  0  0  0  0  0  0  0  0  0
   -7.3936   -6.1570  -24.9591 N   0  0  0  0  0  0  0  0  0  0  0  0
   -8.5971   -6.7785  -25.4914 C   0  0  0  0  0  0  0  0  0  0  0  0
   -9.0935   -7.4296  -24.7645 H   0  0  0  0  0  0  0  0  0  0  0  0
   -8.3093   -7.3575  -26.3717 H   0  0  0  0  0  0  0  0  0  0  0  0
   -9.3062   -6.0089  -25.8141 H   0  0  0  0  0  0  0  0  0  0  0  0
   -6.5197   -6.6397  -25.1221 H   0  0  0  0  0  0  0  0  0  0  0  0
   -9.2046   -4.2135  -24.1302 H   0  0  0  0  0  0  0  0  0  0  0  0
   -7.6273   -3.4614  -24.5114 H   0  0  0  0  0  0  0  0  0  0  0  0
   -8.6991   -3.7707  -21.6735 H   0  0  0  0  0  0  0  0  0  0  0  0
   -6.3447   -2.2423  -22.8095 H   0  0  0  0  0  0  0  0  0  0  0  0
   -6.4300   -3.2775  -21.3789 H   0  0  0  0  0  0  0  0  0  0  0  0
  -10.7806   -2.2070  -22.3154 C   0  0  0  0  0  0  0  0  0  0  0  0
  -11.2668   -3.3260  -21.6223 C   0  0  0  0  0  0  0  0  0  0  0  0
  -12.6110   -3.3747  -21.2832 C   0  0  0  0  0  0  0  0  0  0  0  0
  -13.1964   -4.4614  -20.0734 Cl  0  0  0  0  0  0  0  0  0  0  0  0
  -13.5398   -2.4656  -21.7684 C   0  0  0  0  0  0  0  0  0  0  0  0
  -13.0818   -1.3943  -22.4946 C   0  0  0  0  0  0  0  0  0  0  0  0
  -11.7169   -1.2394  -22.7109 C   0  0  0  0  0  0  0  0  0  0  0  0
  -11.2722    0.0495  -23.3220 C   0  0  0  0  0  0  0  0  0  0  0  0
  -11.9477    1.0712  -23.2555 O   0  0  0  0  0  0  0  0  0  0  0  0
  -13.7680   -0.6553  -22.8851 H   0  0  0  0  0  0  0  0  0  0  0  0
  -14.5881   -2.6089  -21.5406 H   0  0  0  0  0  0  0  0  0  0  0  0
  -10.6154   -4.1310  -21.3017 H   0  0  0  0  0  0  0  0  0  0  0  0
   -8.1922   -0.8512  -24.1332 H   0  0  0  0  0  0  0  0  0  0  0  0
   -9.5375   -1.8384  -24.7538 H   0  0  0  0  0  0  0  0  0  0  0  0
  -10.4066    1.9401  -24.5527 H   0  0  0  0  0  0  0  0  0  0  0  0
   -9.3633    1.0150  -25.6452 H   0  0  0  0  0  0  0  0  0  0  0  0
   -9.4546    2.4533  -22.3185 H   0  0  0  0  0  0  0  0  0  0  0  0
   -6.9796    2.4001  -21.4193 H   0  0  0  0  0  0  0  0  0  0  0  0
   -7.8119    4.0125  -21.4857 H   0  0  0  0  0  0  0  0  0  0  0  0
   -6.7153    3.4831  -22.7854 H   0  0  0  0  0  0  0  0  0  0  0  0
  1  2  1  0
  2  3  1  0
  3  4  2  0
  3  5  1  0
  5  6  1  0
  6  7  1  0
  8  7  1  6
  8  9  1  0
  9 10  2  0
  9 11  1  0
 11 12  1  0
 12 13  2  0
 13 14  1  0
 14 15  2  0
 15 16  1  0
 16 17  2  0
 17 18  1  0
 18 19  2  0
 19 20  1  0
 20 21  2  0
 20 22  1  0
 19 23  1  0
 18 24  1  0
 17 25  1  0
 15 26  1  0
 13 27  1  0
 11 28  1  0
 28 29  1  0
 29 30  1  0
 30 31  1  0
 31 32  2  0
 31 33  2  0
 31 34  1  0
 34 35  1  0
 35 36  1  0
 35 37  1  0
 35 38  1  0
 34 39  1  0
 30 40  1  0
 30 41  1  0
 29 42  1  1
 28 43  1  0
 28 44  1  0
  8 45  1  0
 45 46  2  0
 46 47  1  0
 47 48  1  0
 47 49  2  0
 49 50  1  0
 50 51  2  0
 51 52  1  0
 52 53  2  0
 50 54  1  0
 49 55  1  0
 46 56  1  0
  7 57  1  0
  7 58  1  0
  5 59  1  0
  5 60  1  0
  2 61  1  0
  1 62  1  0
  1 63  1  0
  1 64  1  0
 52  6  1  0
 29  8  1  0
 51 45  1  0
 21 12  1  0
 21 16  1  0
M  END
>  <cnnaffinities>  (28) 
[6.67334, 6.74892]

>  <score>  (28) 
6.67334

>  <index>  (28) 
28

>  <Smiles>  (28) 
C(N(C(=O)C(N1C([C@@]2(C(=O)N(c3c(nc(c4c(c(c(c(c34)[H])[H])[H])[H])[H])[H])C([C@@]2(C(S(=O)(=O)N(C([H])([H])[H])[H])([H])[H])[H])([H])[H])c2c(c(Cl)c(c(c2C1=O)[H])[H])[H])([H])[H])([H])[H])[H])([H])([H])[H]

>  <h>  (28) 
<NA>

>  <Training>  (28) 
True

>  <Success>  (28) 
True

>  <enamine_searched>  (28) 
False

>  <enamine_id>  (28) 
nan

$$$$

     RDKit          3D

 55 60  0  0  0  0  0  0  0  0999 V2000
  -10.2214   -2.9758  -22.0764 C   0  0  0  0  0  0  0  0  0  0  0  0
   -9.1540   -2.0198  -22.6283 C   0  0  1  0  0  0  0  0  0  0  0  0
   -8.6894   -1.0391  -21.5344 C   0  0  0  0  0  0  0  0  0  0  0  0
   -7.3488   -1.4531  -21.1996 N   0  0  0  0  0  0  0  0  0  0  0  0
   -6.5712   -0.8499  -20.1899 C   0  0  0  0  0  0  0  0  0  0  0  0
   -6.9080   -1.0501  -18.8765 C   0  0  0  0  0  0  0  0  0  0  0  0
   -6.2198   -0.5451  -17.8275 N   0  0  0  0  0  0  0  0  0  0  0  0
   -5.1772    0.2014  -18.0989 C   0  0  0  0  0  0  0  0  0  0  0  0
   -4.7342    0.5040  -19.4183 C   0  0  0  0  0  0  0  0  0  0  0  0
   -3.6120    1.3412  -19.6445 C   0  0  0  0  0  0  0  0  0  0  0  0
   -3.2307    1.6616  -20.9171 C   0  0  0  0  0  0  0  0  0  0  0  0
   -3.9546    1.1605  -22.0236 C   0  0  0  0  0  0  0  0  0  0  0  0
   -5.0375    0.3370  -21.8366 C   0  0  0  0  0  0  0  0  0  0  0  0
   -5.4486   -0.0232  -20.5152 C   0  0  0  0  0  0  0  0  0  0  0  0
   -5.5888   -0.0326  -22.7027 H   0  0  0  0  0  0  0  0  0  0  0  0
   -3.6532    1.4416  -23.0292 H   0  0  0  0  0  0  0  0  0  0  0  0
   -2.3791    2.3146  -21.0847 H   0  0  0  0  0  0  0  0  0  0  0  0
   -3.0884    1.7415  -18.7810 H   0  0  0  0  0  0  0  0  0  0  0  0
   -4.6254    0.6184  -17.2557 H   0  0  0  0  0  0  0  0  0  0  0  0
   -7.7657   -1.6795  -18.6383 H   0  0  0  0  0  0  0  0  0  0  0  0
   -6.8256   -2.4036  -22.0341 C   0  0  0  0  0  0  0  0  0  0  0  0
   -5.7400   -2.9285  -21.8766 O   0  0  0  0  0  0  0  0  0  0  0  0
   -7.8448   -2.6723  -23.1572 C   0  0  1  0  0  0  0  0  0  0  0  0
   -7.9346   -4.1825  -23.3643 C   0  0  0  0  0  0  0  0  0  0  0  0
   -6.6768   -4.6577  -23.8946 N   0  0  0  0  0  0  0  0  0  0  0  0
   -6.2446   -5.9565  -23.4393 C   0  0  0  0  0  0  0  0  0  0  0  0
   -7.1321   -7.0100  -24.0399 C   0  0  0  0  0  0  0  0  0  0  0  0
   -8.4029   -7.4734  -23.6666 C   0  0  0  0  0  0  0  0  0  0  0  0
   -8.9142   -8.1935  -24.6550 N   0  0  0  0  0  0  0  0  0  0  0  0
   -7.9687   -8.1399  -25.5777 N   0  0  0  0  0  0  0  0  0  0  0  0
   -6.8871   -7.4520  -25.2676 N   0  0  0  0  0  0  0  0  0  0  0  0
   -7.9986   -8.7173  -26.4128 H   0  0  0  0  0  0  0  0  0  0  0  0
   -8.9508   -7.3050  -22.7504 H   0  0  0  0  0  0  0  0  0  0  0  0
   -5.2170   -6.0865  -23.7783 H   0  0  0  0  0  0  0  0  0  0  0  0
   -6.2637   -5.9256  -22.3441 H   0  0  0  0  0  0  0  0  0  0  0  0
   -6.2003   -4.1871  -25.0840 C   0  0  0  0  0  0  0  0  0  0  0  0
   -5.4635   -4.8353  -25.8138 O   0  0  0  0  0  0  0  0  0  0  0  0
   -6.6208   -2.7979  -25.3922 C   0  0  0  0  0  0  0  0  0  0  0  0
   -6.1746   -2.2561  -26.5944 C   0  0  0  0  0  0  0  0  0  0  0  0
   -6.4002   -0.9246  -26.8711 C   0  0  0  0  0  0  0  0  0  0  0  0
   -7.0784   -0.1698  -25.9179 C   0  0  0  0  0  0  0  0  0  0  0  0
   -7.2758    1.1369  -26.1630 F   0  0  0  0  0  0  0  0  0  0  0  0
   -7.5560   -0.6979  -24.7336 C   0  0  0  0  0  0  0  0  0  0  0  0
   -7.3550   -2.0538  -24.4634 C   0  0  0  0  0  0  0  0  0  0  0  0
   -8.0849   -0.0508  -24.0413 H   0  0  0  0  0  0  0  0  0  0  0  0
   -6.0370   -0.4535  -27.7761 H   0  0  0  0  0  0  0  0  0  0  0  0
   -5.6303   -2.9152  -27.2653 H   0  0  0  0  0  0  0  0  0  0  0  0
   -8.1214   -4.6936  -22.4167 H   0  0  0  0  0  0  0  0  0  0  0  0
   -8.7588   -4.4223  -24.0508 H   0  0  0  0  0  0  0  0  0  0  0  0
   -9.3319   -1.1065  -20.6633 H   0  0  0  0  0  0  0  0  0  0  0  0
   -8.7009    0.0043  -21.8698 H   0  0  0  0  0  0  0  0  0  0  0  0
   -9.6290   -1.4853  -23.4568 H   0  0  0  0  0  0  0  0  0  0  0  0
   -9.8343   -3.5771  -21.2468 H   0  0  0  0  0  0  0  0  0  0  0  0
  -11.0748   -2.4001  -21.7003 H   0  0  0  0  0  0  0  0  0  0  0  0
  -10.5999   -3.6519  -22.8488 H   0  0  0  0  0  0  0  0  0  0  0  0
  1  2  1  0
  2  3  1  0
  3  4  1  0
  4  5  1  0
  5  6  2  0
  6  7  1  0
  7  8  2  0
  8  9  1  0
  9 10  2  0
 10 11  1  0
 11 12  2  0
 12 13  1  0
 13 14  2  0
 13 15  1  0
 12 16  1  0
 11 17  1  0
 10 18  1  0
  8 19  1  0
  6 20  1  0
  4 21  1  0
 21 22  2  0
 21 23  1  0
 23 24  1  6
 24 25  1  0
 25 26  1  0
 26 27  1  0
 27 28  1  0
 28 29  2  0
 29 30  1  0
 30 31  1  0
 30 32  1  0
 28 33  1  0
 26 34  1  0
 26 35  1  0
 25 36  1  0
 36 37  2  0
 36 38  1  0
 38 39  2  0
 39 40  1  0
 40 41  2  0
 41 42  1  0
 41 43  1  0
 43 44  2  0
 43 45  1  0
 40 46  1  0
 39 47  1  0
 24 48  1  0
 24 49  1  0
  3 50  1  0
  3 51  1  0
  2 52  1  6
  1 53  1  0
  1 54  1  0
  1 55  1  0
 23  2  1  0
 31 27  2  0
 44 38  1  0
 14  5  1  0
 44 23  1  0
 14  9  1  0
M  END
>  <cnnaffinities>  (29) 
[6.27482, 6.70884, 6.19254]

>  <score>  (29) 
6.27482

>  <index>  (29) 
29

>  <Smiles>  (29) 
C([C@]1(C(N(c2c(nc(c3c(c(c(c(c23)[H])[H])[H])[H])[H])[H])C(=O)[C@]21C(N(C(c1c(nn(n1)[H])[H])([H])[H])C(=O)c1c(c(c(F)c(c21)[H])[H])[H])([H])[H])([H])[H])[H])([H])([H])[H]

>  <h>  (29) 
<NA>

>  <Training>  (29) 
True

>  <Success>  (29) 
True

>  <enamine_searched>  (29) 
False

>  <enamine_id>  (29) 
nan

$$$$

     RDKit          3D

 58 63  0  0  0  0  0  0  0  0999 V2000
  -10.4548   -1.1475  -23.2410 C   0  0  0  0  0  0  0  0  0  0  0  0
   -9.0015   -1.4940  -22.9211 C   0  0  1  0  0  0  0  0  0  0  0  0
   -8.3632   -0.5338  -21.9067 C   0  0  0  0  0  0  0  0  0  0  0  0
   -7.3635   -1.3506  -21.2342 N   0  0  0  0  0  0  0  0  0  0  0  0
   -6.5637   -0.8477  -20.1844 C   0  0  0  0  0  0  0  0  0  0  0  0
   -6.8814   -1.0912  -18.8720 C   0  0  0  0  0  0  0  0  0  0  0  0
   -6.2054   -0.5649  -17.8218 N   0  0  0  0  0  0  0  0  0  0  0  0
   -5.1807    0.2068  -18.0848 C   0  0  0  0  0  0  0  0  0  0  0  0
   -4.7315    0.5131  -19.4008 C   0  0  0  0  0  0  0  0  0  0  0  0
   -3.6064    1.3401  -19.6399 C   0  0  0  0  0  0  0  0  0  0  0  0
   -3.2156    1.6196  -20.9198 C   0  0  0  0  0  0  0  0  0  0  0  0
   -3.9271    1.0887  -22.0183 C   0  0  0  0  0  0  0  0  0  0  0  0
   -5.0138    0.2747  -21.8147 C   0  0  0  0  0  0  0  0  0  0  0  0
   -5.4438   -0.0212  -20.4940 C   0  0  0  0  0  0  0  0  0  0  0  0
   -5.5480   -0.1527  -22.6574 H   0  0  0  0  0  0  0  0  0  0  0  0
   -3.6139    1.3319  -23.0289 H   0  0  0  0  0  0  0  0  0  0  0  0
   -2.3619    2.2658  -21.0991 H   0  0  0  0  0  0  0  0  0  0  0  0
   -3.0847    1.7583  -18.7844 H   0  0  0  0  0  0  0  0  0  0  0  0
   -4.6428    0.6323  -17.2361 H   0  0  0  0  0  0  0  0  0  0  0  0
   -7.7258   -1.7299  -18.6201 H   0  0  0  0  0  0  0  0  0  0  0  0
   -7.5843   -2.7026  -21.3678 C   0  0  0  0  0  0  0  0  0  0  0  0
   -6.9146   -3.5673  -20.8329 O   0  0  0  0  0  0  0  0  0  0  0  0
   -8.7866   -2.9136  -22.2891 C   0  0  1  0  0  0  0  0  0  0  0  0
   -9.9987   -3.3239  -21.4191 C   0  0  0  0  0  0  0  0  0  0  0  0
  -11.1399   -3.7625  -22.2072 N   0  0  0  0  0  0  0  0  0  0  0  0
  -12.4911   -3.7911  -21.6092 C   0  0  0  0  0  0  0  0  0  0  0  0
  -13.5011   -2.8007  -22.1876 C   0  0  0  0  0  0  0  0  0  0  0  0
  -14.0524   -1.6749  -21.6373 C   0  0  0  0  0  0  0  0  0  0  0  0
  -14.7497   -0.7263  -22.4971 C   0  0  0  0  0  0  0  0  0  0  0  0
  -15.1795    0.3782  -22.2269 O   0  0  0  0  0  0  0  0  0  0  0  0
  -14.9030   -1.1838  -23.8089 N   0  0  0  0  0  0  0  0  0  0  0  0
  -14.5904   -2.4406  -24.1817 C   0  0  0  0  0  0  0  0  0  0  0  0
  -13.9314   -3.2320  -23.4200 N   0  0  0  0  0  0  0  0  0  0  0  0
  -14.9232   -2.7606  -25.1645 H   0  0  0  0  0  0  0  0  0  0  0  0
  -15.4642   -0.5909  -24.3972 H   0  0  0  0  0  0  0  0  0  0  0  0
  -14.0345   -1.4085  -20.5876 H   0  0  0  0  0  0  0  0  0  0  0  0
  -12.8944   -4.7436  -21.9352 H   0  0  0  0  0  0  0  0  0  0  0  0
  -12.4535   -3.7864  -20.5180 H   0  0  0  0  0  0  0  0  0  0  0  0
  -10.8990   -4.6742  -23.2078 C   0  0  0  0  0  0  0  0  0  0  0  0
  -11.7926   -5.3532  -23.6669 O   0  0  0  0  0  0  0  0  0  0  0  0
   -9.5126   -4.8125  -23.7525 C   0  0  0  0  0  0  0  0  0  0  0  0
   -9.2774   -5.7540  -24.7591 C   0  0  0  0  0  0  0  0  0  0  0  0
   -8.0357   -5.8599  -25.3567 C   0  0  0  0  0  0  0  0  0  0  0  0
   -7.0306   -5.0073  -24.9144 C   0  0  0  0  0  0  0  0  0  0  0  0
   -5.8288   -5.0798  -25.5064 F   0  0  0  0  0  0  0  0  0  0  0  0
   -7.2277   -4.0834  -23.9075 C   0  0  0  0  0  0  0  0  0  0  0  0
   -8.4920   -3.9779  -23.3136 C   0  0  0  0  0  0  0  0  0  0  0  0
   -6.4020   -3.4541  -23.5930 H   0  0  0  0  0  0  0  0  0  0  0  0
   -7.8302   -6.5662  -26.1572 H   0  0  0  0  0  0  0  0  0  0  0  0
  -10.0938   -6.3919  -25.0749 H   0  0  0  0  0  0  0  0  0  0  0  0
   -9.7052   -4.1287  -20.7410 H   0  0  0  0  0  0  0  0  0  0  0  0
  -10.2922   -2.4482  -20.8361 H   0  0  0  0  0  0  0  0  0  0  0  0
   -9.1132   -0.1649  -21.1893 H   0  0  0  0  0  0  0  0  0  0  0  0
   -7.9035    0.3349  -22.3871 H   0  0  0  0  0  0  0  0  0  0  0  0
   -8.4104   -1.4736  -23.8488 H   0  0  0  0  0  0  0  0  0  0  0  0
  -11.0486   -1.1084  -22.3208 H   0  0  0  0  0  0  0  0  0  0  0  0
  -10.9047   -1.9225  -23.8675 H   0  0  0  0  0  0  0  0  0  0  0  0
  -10.5335   -0.1818  -23.7434 H   0  0  0  0  0  0  0  0  0  0  0  0
  1  2  1  0
  2  3  1  0
  3  4  1  0
  4  5  1  0
  5  6  2  0
  6  7  1  0
  7  8  2  0
  8  9  1  0
  9 10  2  0
 10 11  1  0
 11 12  2  0
 12 13  1  0
 13 14  2  0
 13 15  1  0
 12 16  1  0
 11 17  1  0
 10 18  1  0
  8 19  1  0
  6 20  1  0
  4 21  1  0
 21 22  2  0
 21 23  1  0
 23 24  1  1
 24 25  1  0
 25 26  1  0
 26 27  1  0
 27 28  2  0
 28 29  1  0
 29 30  2  0
 29 31  1  0
 31 32  1  0
 32 33  2  0
 32 34  1  0
 31 35  1  0
 28 36  1  0
 26 37  1  0
 26 38  1  0
 25 39  1  0
 39 40  2  0
 39 41  1  0
 41 42  2  0
 42 43  1  0
 43 44  2  0
 44 45  1  0
 44 46  1  0
 46 47  2  0
 46 48  1  0
 43 49  1  0
 42 50  1  0
 24 51  1  0
 24 52  1  0
  3 53  1  0
  3 54  1  0
  2 55  1  6
  1 56  1  0
  1 57  1  0
  1 58  1  0
 23  2  1  0
 33 27  1  0
 47 41  1  0
 14  5  1  0
 47 23  1  0
 14  9  1  0
M  END
>  <cnnaffinities>  (30) 
[6.72445]

>  <score>  (30) 
6.72445

>  <index>  (30) 
30

>  <Smiles>  (30) 
C([C@]1(C(N(c2c(nc(c3c(c(c(c(c23)[H])[H])[H])[H])[H])[H])C(=O)[C@]21C(N(C(c1c(c(=O)n(c(n1)[H])[H])[H])([H])[H])C(=O)c1c(c(c(F)c(c21)[H])[H])[H])([H])[H])([H])[H])[H])([H])([H])[H]

>  <h>  (30) 
<NA>

>  <Training>  (30) 
True

>  <Success>  (30) 
True

>  <enamine_searched>  (30) 
False

>  <enamine_id>  (30) 
nan

$$$$

     RDKit          3D

 66 71  0  0  0  0  0  0  0  0999 V2000
   -7.5993    3.2357  -21.8595 C   0  0  0  0  0  0  0  0  0  0  0  0
   -8.7104    2.7686  -22.6721 N   0  0  0  0  0  0  0  0  0  0  0  0
   -8.3641    1.9733  -23.7223 C   0  0  0  0  0  0  0  0  0  0  0  0
   -7.1950    1.7148  -23.9787 O   0  0  0  0  0  0  0  0  0  0  0  0
   -9.4891    1.3788  -24.5615 C   0  0  0  0  0  0  0  0  0  0  0  0
   -9.9689    0.1767  -23.9187 N   0  0  0  0  0  0  0  0  0  0  0  0
   -9.1505   -1.0254  -23.9485 C   0  0  0  0  0  0  0  0  0  0  0  0
   -9.2638   -1.8177  -22.6160 C   0  0  2  0  0  0  0  0  0  0  0  0
   -8.6636   -0.9478  -21.4847 C   0  0  0  0  0  0  0  0  0  0  0  0
   -9.1797    0.0203  -20.9586 O   0  0  0  0  0  0  0  0  0  0  0  0
   -7.4057   -1.4233  -21.1904 N   0  0  0  0  0  0  0  0  0  0  0  0
   -6.6114   -0.8302  -20.1783 C   0  0  0  0  0  0  0  0  0  0  0  0
   -6.9208   -1.0485  -18.8580 C   0  0  0  0  0  0  0  0  0  0  0  0
   -6.2116   -0.5559  -17.8168 N   0  0  0  0  0  0  0  0  0  0  0  0
   -5.1738    0.1951  -18.0902 C   0  0  0  0  0  0  0  0  0  0  0  0
   -4.7455    0.5100  -19.4098 C   0  0  0  0  0  0  0  0  0  0  0  0
   -3.6250    1.3480  -19.6484 C   0  0  0  0  0  0  0  0  0  0  0  0
   -3.2551    1.6621  -20.9268 C   0  0  0  0  0  0  0  0  0  0  0  0
   -3.9887    1.1585  -22.0218 C   0  0  0  0  0  0  0  0  0  0  0  0
   -5.0790    0.3431  -21.8186 C   0  0  0  0  0  0  0  0  0  0  0  0
   -5.4820   -0.0115  -20.5010 C   0  0  0  0  0  0  0  0  0  0  0  0
   -5.6534    0.0038  -22.6753 H   0  0  0  0  0  0  0  0  0  0  0  0
   -3.6904    1.4186  -23.0331 H   0  0  0  0  0  0  0  0  0  0  0  0
   -2.4036    2.3118  -21.1025 H   0  0  0  0  0  0  0  0  0  0  0  0
   -3.0917    1.7497  -18.7915 H   0  0  0  0  0  0  0  0  0  0  0  0
   -4.6072    0.5968  -17.2485 H   0  0  0  0  0  0  0  0  0  0  0  0
   -7.7833   -1.6599  -18.6037 H   0  0  0  0  0  0  0  0  0  0  0  0
   -7.0121   -2.5824  -21.9713 C   0  0  0  0  0  0  0  0  0  0  0  0
   -8.3441   -3.0717  -22.5745 C   0  0  2  0  0  0  0  0  0  0  0  0
   -8.1941   -3.8087  -23.9062 C   0  0  0  0  0  0  0  0  0  0  0  0
   -7.5355   -5.0812  -23.7498 N   0  0  0  0  0  0  0  0  0  0  0  0
   -7.1779   -5.8651  -24.7970 C   0  0  0  0  0  0  0  0  0  0  0  0
   -7.5787   -5.6063  -26.1218 C   0  0  0  0  0  0  0  0  0  0  0  0
   -7.1685   -6.5140  -27.0778 C   0  0  0  0  0  0  0  0  0  0  0  0
   -6.3903   -7.5684  -26.8109 N   0  0  0  0  0  0  0  0  0  0  0  0
   -6.0672   -7.6989  -25.5298 C   0  0  0  0  0  0  0  0  0  0  0  0
   -6.4205   -6.9318  -24.5039 N   0  0  0  0  0  0  0  0  0  0  0  0
   -5.4344   -8.5462  -25.2730 H   0  0  0  0  0  0  0  0  0  0  0  0
   -7.4742   -6.3958  -28.1165 H   0  0  0  0  0  0  0  0  0  0  0  0
   -8.1680   -4.7383  -26.3938 H   0  0  0  0  0  0  0  0  0  0  0  0
   -7.1217   -5.3539  -22.8739 H   0  0  0  0  0  0  0  0  0  0  0  0
   -9.1878   -3.9776  -24.3418 H   0  0  0  0  0  0  0  0  0  0  0  0
   -7.6281   -3.1845  -24.6166 H   0  0  0  0  0  0  0  0  0  0  0  0
   -8.7714   -3.7775  -21.8546 H   0  0  0  0  0  0  0  0  0  0  0  0
   -6.5508   -3.3348  -21.3250 H   0  0  0  0  0  0  0  0  0  0  0  0
   -6.2784   -2.3160  -22.7500 H   0  0  0  0  0  0  0  0  0  0  0  0
  -10.7454   -2.0534  -22.3797 C   0  0  0  0  0  0  0  0  0  0  0  0
  -11.2328   -3.1446  -21.6585 C   0  0  0  0  0  0  0  0  0  0  0  0
  -12.5820   -3.2097  -21.3618 C   0  0  0  0  0  0  0  0  0  0  0  0
  -13.1498   -4.3376  -20.1816 Cl  0  0  0  0  0  0  0  0  0  0  0  0
  -13.5126   -2.3117  -21.8680 C   0  0  0  0  0  0  0  0  0  0  0  0
  -13.0431   -1.2413  -22.5934 C   0  0  0  0  0  0  0  0  0  0  0  0
  -11.6716   -1.0704  -22.7658 C   0  0  0  0  0  0  0  0  0  0  0  0
  -11.1911    0.2229  -23.3292 C   0  0  0  0  0  0  0  0  0  0  0  0
  -11.8371    1.2637  -23.2585 O   0  0  0  0  0  0  0  0  0  0  0  0
  -13.7297   -0.5048  -22.9896 H   0  0  0  0  0  0  0  0  0  0  0  0
  -14.5575   -2.4371  -21.6061 H   0  0  0  0  0  0  0  0  0  0  0  0
  -10.5851   -3.9134  -21.2528 H   0  0  0  0  0  0  0  0  0  0  0  0
   -8.1167   -0.7102  -24.1225 H   0  0  0  0  0  0  0  0  0  0  0  0
   -9.4776   -1.6575  -24.7843 H   0  0  0  0  0  0  0  0  0  0  0  0
   -9.0933    1.1325  -25.5553 H   0  0  0  0  0  0  0  0  0  0  0  0
  -10.3401    2.0597  -24.6537 H   0  0  0  0  0  0  0  0  0  0  0  0
   -9.6068    2.6516  -22.2151 H   0  0  0  0  0  0  0  0  0  0  0  0
   -7.9294    3.9394  -21.0903 H   0  0  0  0  0  0  0  0  0  0  0  0
   -7.0642    2.3718  -21.4322 H   0  0  0  0  0  0  0  0  0  0  0  0
   -6.9114    3.7745  -22.5111 H   0  0  0  0  0  0  0  0  0  0  0  0
  1  2  1  0
  2  3  1  0
  3  4  2  0
  3  5  1  0
  5  6  1  0
  6  7  1  0
  8  7  1  6
  8  9  1  0
  9 10  2  0
  9 11  1  0
 11 12  1  0
 12 13  2  0
 13 14  1  0
 14 15  2  0
 15 16  1  0
 16 17  2  0
 17 18  1  0
 18 19  2  0
 19 20  1  0
 20 21  2  0
 20 22  1  0
 19 23  1  0
 18 24  1  0
 17 25  1  0
 15 26  1  0
 13 27  1  0
 11 28  1  0
 28 29  1  0
 29 30  1  0
 30 31  1  0
 31 32  1  0
 32 33  2  0
 33 34  1  0
 34 35  2  0
 35 36  1  0
 36 37  2  0
 36 38  1  0
 34 39  1  0
 33 40  1  0
 31 41  1  0
 30 42  1  0
 30 43  1  0
 29 44  1  1
 28 45  1  0
 28 46  1  0
  8 47  1  0
 47 48  2  0
 48 49  1  0
 49 50  1  0
 49 51  2  0
 51 52  1  0
 52 53  2  0
 53 54  1  0
 54 55  2  0
 52 56  1  0
 51 57  1  0
 48 58  1  0
  7 59  1  0
  7 60  1  0
  5 61  1  0
  5 62  1  0
  2 63  1  0
  1 64  1  0
  1 65  1  0
  1 66  1  0
 54  6  1  0
 29  8  1  0
 37 32  1  0
 53 47  1  0
 21 12  1  0
 21 16  1  0
M  END
>  <cnnaffinities>  (31) 
[6.83439]

>  <score>  (31) 
6.83439

>  <index>  (31) 
31

>  <Smiles>  (31) 
C(N(C(=O)C(N1C([C@@]2(C(=O)N(c3c(nc(c4c(c(c(c(c34)[H])[H])[H])[H])[H])[H])C([C@@]2(C(N(c2c(c(nc(n2)[H])[H])[H])[H])([H])[H])[H])([H])[H])c2c(c(Cl)c(c(c2C1=O)[H])[H])[H])([H])[H])([H])[H])[H])([H])([H])[H]

>  <h>  (31) 
<NA>

>  <Training>  (31) 
True

>  <Success>  (31) 
True

>  <enamine_searched>  (31) 
False

>  <enamine_id>  (31) 
nan

$$$$

     RDKit          3D

 57 62  0  0  0  0  0  0  0  0999 V2000
  -10.2069   -2.0747  -23.4344 C   0  0  0  0  0  0  0  0  0  0  0  0
   -8.8585   -1.4225  -23.1520 C   0  0  1  0  0  0  0  0  0  0  0  0
   -8.5832   -1.2226  -21.6586 C   0  0  0  0  0  0  0  0  0  0  0  0
   -7.1410   -0.9987  -21.6421 N   0  0  0  0  0  0  0  0  0  0  0  0
   -6.4551   -0.5273  -20.5065 C   0  0  0  0  0  0  0  0  0  0  0  0
   -6.9010   -0.8407  -19.2420 C   0  0  0  0  0  0  0  0  0  0  0  0
   -6.2391   -0.5322  -18.1025 N   0  0  0  0  0  0  0  0  0  0  0  0
   -5.1253    0.1489  -18.2070 C   0  0  0  0  0  0  0  0  0  0  0  0
   -4.5992    0.6146  -19.4440 C   0  0  0  0  0  0  0  0  0  0  0  0
   -3.4244    1.4070  -19.4979 C   0  0  0  0  0  0  0  0  0  0  0  0
   -2.9673    1.8999  -20.6890 C   0  0  0  0  0  0  0  0  0  0  0  0
   -3.6835    1.6356  -21.8768 C   0  0  0  0  0  0  0  0  0  0  0  0
   -4.8259    0.8772  -21.8520 C   0  0  0  0  0  0  0  0  0  0  0  0
   -5.2923    0.3101  -20.6318 C   0  0  0  0  0  0  0  0  0  0  0  0
   -5.3793    0.6961  -22.7674 H   0  0  0  0  0  0  0  0  0  0  0  0
   -3.3292    2.0416  -22.8180 H   0  0  0  0  0  0  0  0  0  0  0  0
   -2.0751    2.5184  -20.7249 H   0  0  0  0  0  0  0  0  0  0  0  0
   -2.9181    1.6286  -18.5650 H   0  0  0  0  0  0  0  0  0  0  0  0
   -4.5822    0.3689  -17.2864 H   0  0  0  0  0  0  0  0  0  0  0  0
   -7.8306   -1.3908  -19.0893 H   0  0  0  0  0  0  0  0  0  0  0  0
   -6.5217   -1.6860  -22.6814 C   0  0  0  0  0  0  0  0  0  0  0  0
   -5.3384   -1.9500  -22.7251 O   0  0  0  0  0  0  0  0  0  0  0  0
   -7.5991   -2.1778  -23.6793 C   0  0  1  0  0  0  0  0  0  0  0  0
   -7.7012   -3.7061  -23.4623 C   0  0  0  0  0  0  0  0  0  0  0  0
   -6.5249   -4.3790  -23.9842 N   0  0  0  0  0  0  0  0  0  0  0  0
   -5.8256   -5.3400  -23.1551 C   0  0  0  0  0  0  0  0  0  0  0  0
   -6.7772   -6.2613  -22.4613 C   0  0  0  0  0  0  0  0  0  0  0  0
   -6.9873   -6.3797  -21.1697 N   0  0  0  0  0  0  0  0  0  0  0  0
   -8.0795   -7.1650  -21.0498 N   0  0  0  0  0  0  0  0  0  0  0  0
   -8.5171   -7.5276  -22.2011 N   0  0  0  0  0  0  0  0  0  0  0  0
   -7.7027   -6.9883  -23.1147 N   0  0  0  0  0  0  0  0  0  0  0  0
   -7.9000   -7.2106  -24.5397 C   0  0  0  0  0  0  0  0  0  0  0  0
   -8.5794   -6.4601  -24.9719 H   0  0  0  0  0  0  0  0  0  0  0  0
   -8.3149   -8.2174  -24.6734 H   0  0  0  0  0  0  0  0  0  0  0  0
   -6.9264   -7.1518  -25.0302 H   0  0  0  0  0  0  0  0  0  0  0  0
   -5.2403   -4.8118  -22.4011 H   0  0  0  0  0  0  0  0  0  0  0  0
   -5.1543   -5.8799  -23.8298 H   0  0  0  0  0  0  0  0  0  0  0  0
   -6.1368   -4.2179  -25.2778 C   0  0  0  0  0  0  0  0  0  0  0  0
   -5.4202   -5.0218  -25.8657 O   0  0  0  0  0  0  0  0  0  0  0  0
   -6.6766   -2.9881  -25.9225 C   0  0  0  0  0  0  0  0  0  0  0  0
   -6.5320   -2.8897  -27.3019 C   0  0  0  0  0  0  0  0  0  0  0  0
   -6.9886   -1.7799  -27.9744 C   0  0  0  0  0  0  0  0  0  0  0  0
   -7.5514   -0.7564  -27.2268 C   0  0  0  0  0  0  0  0  0  0  0  0
   -7.9862    0.3364  -27.8799 F   0  0  0  0  0  0  0  0  0  0  0  0
   -7.6900   -0.8208  -25.8541 C   0  0  0  0  0  0  0  0  0  0  0  0
   -7.2937   -1.9765  -25.1620 C   0  0  0  0  0  0  0  0  0  0  0  0
   -8.1048    0.0500  -25.3645 H   0  0  0  0  0  0  0  0  0  0  0  0
   -6.9052   -1.6985  -29.0493 H   0  0  0  0  0  0  0  0  0  0  0  0
   -6.0518   -3.7207  -27.8078 H   0  0  0  0  0  0  0  0  0  0  0  0
   -7.7664   -3.9385  -22.3997 H   0  0  0  0  0  0  0  0  0  0  0  0
   -8.6061   -4.0815  -23.9622 H   0  0  0  0  0  0  0  0  0  0  0  0
   -9.1116   -0.3640  -21.2373 H   0  0  0  0  0  0  0  0  0  0  0  0
   -8.8789   -2.1227  -21.0871 H   0  0  0  0  0  0  0  0  0  0  0  0
   -8.8384   -0.4183  -23.5929 H   0  0  0  0  0  0  0  0  0  0  0  0
  -10.3174   -3.0039  -22.8585 H   0  0  0  0  0  0  0  0  0  0  0  0
  -10.3080   -2.3233  -24.4971 H   0  0  0  0  0  0  0  0  0  0  0  0
  -11.0332   -1.4098  -23.1559 H   0  0  0  0  0  0  0  0  0  0  0  0
  1  2  1  0
  2  3  1  0
  3  4  1  0
  4  5  1  0
  5  6  2  0
  6  7  1  0
  7  8  2  0
  8  9  1  0
  9 10  2  0
 10 11  1  0
 11 12  2  0
 12 13  1  0
 13 14  2  0
 13 15  1  0
 12 16  1  0
 11 17  1  0
 10 18  1  0
  8 19  1  0
  6 20  1  0
  4 21  1  0
 21 22  2  0
 21 23  1  0
 23 24  1  6
 24 25  1  0
 25 26  1  0
 26 27  1  0
 27 28  2  0
 28 29  1  0
 29 30  2  0
 30 31  1  0
 31 32  1  0
 32 33  1  0
 32 34  1  0
 32 35  1  0
 26 36  1  0
 26 37  1  0
 25 38  1  0
 38 39  2  0
 38 40  1  0
 40 41  2  0
 41 42  1  0
 42 43  2  0
 43 44  1  0
 43 45  1  0
 45 46  2  0
 45 47  1  0
 42 48  1  0
 41 49  1  0
 24 50  1  0
 24 51  1  0
  3 52  1  0
  3 53  1  0
  2 54  1  6
  1 55  1  0
  1 56  1  0
  1 57  1  0
 23  2  1  0
 31 27  1  0
 46 40  1  0
 14  5  1  0
 46 23  1  0
 14  9  1  0
M  END
>  <cnnaffinities>  (32) 
[6.27874, 6.41833]

>  <score>  (32) 
6.27874

>  <index>  (32) 
32

>  <Smiles>  (32) 
C([C@]1(C(N(c2c(nc(c3c(c(c(c(c23)[H])[H])[H])[H])[H])[H])C(=O)[C@]21C(N(C(c1nnnn1C([H])([H])[H])([H])[H])C(=O)c1c(c(c(F)c(c21)[H])[H])[H])([H])[H])([H])[H])[H])([H])([H])[H]

>  <h>  (32) 
<NA>

>  <Training>  (32) 
True

>  <Success>  (32) 
True

>  <enamine_searched>  (32) 
False

>  <enamine_id>  (32) 
nan

$$$$

     RDKit          3D

 66 70  0  0  0  0  0  0  0  0999 V2000
   -6.8066    3.4542  -23.0553 C   0  0  0  0  0  0  0  0  0  0  0  0
   -7.4936    2.7503  -24.1239 N   0  0  0  0  0  0  0  0  0  0  0  0
   -6.9775    1.6485  -24.7143 C   0  0  0  0  0  0  0  0  0  0  0  0
   -5.8062    1.2998  -24.6239 O   0  0  0  0  0  0  0  0  0  0  0  0
   -7.9847    0.8095  -25.5174 C   0  0  0  0  0  0  0  0  0  0  0  0
   -8.8744    0.0789  -24.6317 N   0  0  0  0  0  0  0  0  0  0  0  0
   -8.5212   -1.2793  -24.2665 C   0  0  0  0  0  0  0  0  0  0  0  0
   -8.9433   -1.6067  -22.8057 C   0  0  2  0  0  0  0  0  0  0  0  0
   -8.1597   -0.6886  -21.8421 C   0  0  0  0  0  0  0  0  0  0  0  0
   -8.2836    0.5135  -21.7112 O   0  0  0  0  0  0  0  0  0  0  0  0
   -7.2747   -1.4541  -21.1214 N   0  0  0  0  0  0  0  0  0  0  0  0
   -6.4841   -0.8773  -20.0967 C   0  0  0  0  0  0  0  0  0  0  0  0
   -6.7858   -1.1029  -18.7776 C   0  0  0  0  0  0  0  0  0  0  0  0
   -6.1037   -0.5635  -17.7399 N   0  0  0  0  0  0  0  0  0  0  0  0
   -5.0888    0.2171  -18.0191 C   0  0  0  0  0  0  0  0  0  0  0  0
   -4.6606    0.5244  -19.3411 C   0  0  0  0  0  0  0  0  0  0  0  0
   -3.5479    1.3677  -19.6030 C   0  0  0  0  0  0  0  0  0  0  0  0
   -3.1912    1.6729  -20.8880 C   0  0  0  0  0  0  0  0  0  0  0  0
   -3.9308    1.1518  -21.9724 C   0  0  0  0  0  0  0  0  0  0  0  0
   -4.9993    0.3232  -21.7449 C   0  0  0  0  0  0  0  0  0  0  0  0
   -5.3894   -0.0202  -20.4211 C   0  0  0  0  0  0  0  0  0  0  0  0
   -5.5762   -0.0410  -22.5880 H   0  0  0  0  0  0  0  0  0  0  0  0
   -3.6893    1.4222  -22.9958 H   0  0  0  0  0  0  0  0  0  0  0  0
   -2.3527    2.3355  -21.0796 H   0  0  0  0  0  0  0  0  0  0  0  0
   -3.0049    1.7839  -18.7607 H   0  0  0  0  0  0  0  0  0  0  0  0
   -4.5565    0.6548  -17.1754 H   0  0  0  0  0  0  0  0  0  0  0  0
   -7.6351   -1.7338  -18.5129 H   0  0  0  0  0  0  0  0  0  0  0  0
   -7.2221   -2.8479  -21.5078 C   0  0  0  0  0  0  0  0  0  0  0  0
   -8.4950   -3.0232  -22.3687 C   0  0  2  0  0  0  0  0  0  0  0  0
   -8.3262   -4.0375  -23.4944 C   0  0  0  0  0  0  0  0  0  0  0  0
   -8.0491   -5.2841  -22.9034 O   0  0  0  0  0  0  0  0  0  0  0  0
   -7.5288   -6.2480  -23.8014 C   0  0  0  0  0  0  0  0  0  0  0  0
   -8.0710   -7.5946  -23.3691 C   0  0  0  0  0  0  0  0  0  0  0  0
   -9.1590   -7.5893  -23.3917 H   0  0  0  0  0  0  0  0  0  0  0  0
   -7.7422   -7.8310  -22.3525 H   0  0  0  0  0  0  0  0  0  0  0  0
   -7.7252   -8.3605  -24.0600 H   0  0  0  0  0  0  0  0  0  0  0  0
   -6.0072   -6.2105  -23.7770 C   0  0  0  0  0  0  0  0  0  0  0  0
   -5.5993   -6.9559  -24.4668 H   0  0  0  0  0  0  0  0  0  0  0  0
   -5.6628   -6.4423  -22.7651 H   0  0  0  0  0  0  0  0  0  0  0  0
   -5.6152   -5.2256  -24.0561 H   0  0  0  0  0  0  0  0  0  0  0  0
   -7.8931   -6.0281  -24.8178 H   0  0  0  0  0  0  0  0  0  0  0  0
   -7.5101   -3.7344  -24.1738 H   0  0  0  0  0  0  0  0  0  0  0  0
   -9.2420   -4.1049  -24.1080 H   0  0  0  0  0  0  0  0  0  0  0  0
   -9.2569   -3.4288  -21.7042 H   0  0  0  0  0  0  0  0  0  0  0  0
   -6.2955   -3.0879  -22.0556 H   0  0  0  0  0  0  0  0  0  0  0  0
   -7.2430   -3.4793  -20.6168 H   0  0  0  0  0  0  0  0  0  0  0  0
  -10.4321   -1.3062  -22.6854 C   0  0  0  0  0  0  0  0  0  0  0  0
  -11.3516   -2.1034  -21.9827 C   0  0  0  0  0  0  0  0  0  0  0  0
  -12.6853   -1.7274  -21.9421 C   0  0  0  0  0  0  0  0  0  0  0  0
  -13.8390   -2.7478  -21.1259 Cl  0  0  0  0  0  0  0  0  0  0  0  0
  -13.1329   -0.5367  -22.5104 C   0  0  0  0  0  0  0  0  0  0  0  0
  -12.2235    0.2824  -23.1459 C   0  0  0  0  0  0  0  0  0  0  0  0
  -10.8994   -0.1293  -23.2967 C   0  0  0  0  0  0  0  0  0  0  0  0
   -9.9956    0.6935  -24.1741 C   0  0  0  0  0  0  0  0  0  0  0  0
  -10.2562    1.8643  -24.4657 O   0  0  0  0  0  0  0  0  0  0  0  0
  -12.5386    1.2405  -23.5444 H   0  0  0  0  0  0  0  0  0  0  0  0
  -14.1840   -0.2756  -22.4708 H   0  0  0  0  0  0  0  0  0  0  0  0
  -11.0685   -3.0258  -21.4858 H   0  0  0  0  0  0  0  0  0  0  0  0
   -7.4300   -1.3642  -24.3568 H   0  0  0  0  0  0  0  0  0  0  0  0
   -9.0261   -1.9730  -24.9564 H   0  0  0  0  0  0  0  0  0  0  0  0
   -7.4107    0.0911  -26.1104 H   0  0  0  0  0  0  0  0  0  0  0  0
   -8.6001    1.4319  -26.1747 H   0  0  0  0  0  0  0  0  0  0  0  0
   -8.4946    2.8744  -24.2148 H   0  0  0  0  0  0  0  0  0  0  0  0
   -6.4832    2.7568  -22.2679 H   0  0  0  0  0  0  0  0  0  0  0  0
   -7.5045    4.1729  -22.6186 H   0  0  0  0  0  0  0  0  0  0  0  0
   -5.9393    4.0061  -23.4309 H   0  0  0  0  0  0  0  0  0  0  0  0
  1  2  1  0
  2  3  1  0
  3  4  2  0
  3  5  1  0
  5  6  1  0
  6  7  1  0
  8  7  1  6
  8  9  1  0
  9 10  2  0
  9 11  1  0
 11 12  1  0
 12 13  2  0
 13 14  1  0
 14 15  2  0
 15 16  1  0
 16 17  2  0
 17 18  1  0
 18 19  2  0
 19 20  1  0
 20 21  2  0
 20 22  1  0
 19 23  1  0
 18 24  1  0
 17 25  1  0
 15 26  1  0
 13 27  1  0
 11 28  1  0
 28 29  1  0
 29 30  1  0
 30 31  1  0
 31 32  1  0
 32 33  1  0
 33 34  1  0
 33 35  1  0
 33 36  1  0
 32 37  1  0
 37 38  1  0
 37 39  1  0
 37 40  1  0
 32 41  1  0
 30 42  1  0
 30 43  1  0
 29 44  1  1
 28 45  1  0
 28 46  1  0
  8 47  1  0
 47 48  2  0
 48 49  1  0
 49 50  1  0
 49 51  2  0
 51 52  1  0
 52 53  2  0
 53 54  1  0
 54 55  2  0
 52 56  1  0
 51 57  1  0
 48 58  1  0
  7 59  1  0
  7 60  1  0
  5 61  1  0
  5 62  1  0
  2 63  1  0
  1 64  1  0
  1 65  1  0
  1 66  1  0
 54  6  1  0
 29  8  1  0
 53 47  1  0
 21 12  1  0
 21 16  1  0
M  END
>  <cnnaffinities>  (33) 
[6.92632]

>  <score>  (33) 
6.92632

>  <index>  (33) 
34

>  <Smiles>  (33) 
C(N(C(=O)C(N1C([C@@]2(C(=O)N(c3c(nc(c4c(c(c(c(c34)[H])[H])[H])[H])[H])[H])C([C@@]2(C(OC(C([H])([H])[H])(C([H])([H])[H])[H])([H])[H])[H])([H])[H])c2c(c(Cl)c(c(c2C1=O)[H])[H])[H])([H])[H])([H])[H])[H])([H])([H])[H]

>  <h>  (33) 
<NA>

>  <Training>  (33) 
True

>  <Success>  (33) 
True

>  <enamine_searched>  (33) 
False

>  <enamine_id>  (33) 
nan

$$$$

     RDKit          3D

 40 42  0  0  0  0  0  0  0  0999 V2000
   -9.3820   -1.7680  -22.3454 O   0  0  0  0  0  0  0  0  0  0  0  0
   -8.4424   -0.9948  -22.1755 C   0  0  0  0  0  0  0  0  0  0  0  0
   -7.0750   -1.5273  -21.7735 C   0  0  0  0  0  0  0  0  0  0  0  0
   -6.4354   -0.8262  -20.5804 C   0  0  0  0  0  0  0  0  0  0  0  0
   -6.9757   -0.9670  -19.3211 C   0  0  0  0  0  0  0  0  0  0  0  0
   -6.4430   -0.4695  -18.1756 N   0  0  0  0  0  0  0  0  0  0  0  0
   -5.3396    0.2264  -18.2796 C   0  0  0  0  0  0  0  0  0  0  0  0
   -4.6963    0.5111  -19.5119 C   0  0  0  0  0  0  0  0  0  0  0  0
   -3.5678    1.3628  -19.5844 C   0  0  0  0  0  0  0  0  0  0  0  0
   -3.0272    1.7043  -20.7925 C   0  0  0  0  0  0  0  0  0  0  0  0
   -3.5624    1.1642  -21.9790 C   0  0  0  0  0  0  0  0  0  0  0  0
   -4.6140    0.2777  -21.9277 C   0  0  0  0  0  0  0  0  0  0  0  0
   -5.2431   -0.0400  -20.6960 C   0  0  0  0  0  0  0  0  0  0  0  0
   -4.9813   -0.1606  -22.8530 H   0  0  0  0  0  0  0  0  0  0  0  0
   -3.1435    1.4490  -22.9387 H   0  0  0  0  0  0  0  0  0  0  0  0
   -2.1982    2.4019  -20.8489 H   0  0  0  0  0  0  0  0  0  0  0  0
   -3.1735    1.7633  -18.6573 H   0  0  0  0  0  0  0  0  0  0  0  0
   -4.9004    0.6161  -17.3612 H   0  0  0  0  0  0  0  0  0  0  0  0
   -7.8994   -1.5301  -19.1809 H   0  0  0  0  0  0  0  0  0  0  0  0
   -7.2758   -2.5726  -21.5239 H   0  0  0  0  0  0  0  0  0  0  0  0
   -6.3931   -1.5175  -22.6282 H   0  0  0  0  0  0  0  0  0  0  0  0
   -8.5138    0.3583  -22.2880 N   0  0  0  0  0  0  0  0  0  0  0  0
   -9.6791    1.0102  -21.6437 C   0  0  0  0  0  0  0  0  0  0  0  0
   -9.6669    1.1623  -21.8258 C   0  0  0  0  0  0  0  0  0  0  0  0
   -9.3572    2.8685  -23.5925 C   0  0  0  0  0  0  0  0  0  0  0  0
   -8.5581    5.2631  -22.6986 C   0  0  0  0  0  0  0  0  0  0  0  0
   -7.7807    5.7944  -23.6223 F   0  0  0  0  0  0  0  0  0  0  0  0
   -9.4300    6.1386  -22.2615 F   0  0  0  0  0  0  0  0  0  0  0  0
   -7.8473    4.7695  -21.7075 F   0  0  0  0  0  0  0  0  0  0  0  0
   -8.0898    2.4704  -23.6115 C   0  0  0  0  0  0  0  0  0  0  0  0
   -7.5388    1.1735  -23.0642 C   0  0  0  0  0  0  0  0  0  0  0  0
   -7.1255    0.5543  -23.8605 H   0  0  0  0  0  0  0  0  0  0  0  0
   -6.7107    1.4524  -22.4036 H   0  0  0  0  0  0  0  0  0  0  0  0
  -10.1578    2.1619  -23.4689 H   0  0  0  0  0  0  0  0  0  0  0  0
   -7.3143    3.1602  -23.9352 H   0  0  0  0  0  0  0  0  0  0  0  0
   -9.5730    3.9254  -23.6810 H   0  0  0  0  0  0  0  0  0  0  0  0
  -10.5805    1.9269  -21.5583 H   0  0  0  0  0  0  0  0  0  0  0  0
   -8.9268    2.0065  -21.3408 H   0  0  0  0  0  0  0  0  0  0  0  0
   -9.9007    0.1802  -20.3413 H   0  0  0  0  0  0  0  0  0  0  0  0
  -10.4511    0.6406  -22.6022 H   0  0  0  0  0  0  0  0  0  0  0  0
  1  2  2  0
  2  3  1  0
  3  4  1  0
  4  5  2  0
  5  6  1  0
  6  7  2  0
  7  8  1  0
  8  9  2  0
  9 10  1  0
 10 11  2  0
 11 12  1  0
 12 13  2  0
 12 14  1  0
 11 15  1  0
 10 16  1  0
  9 17  1  0
  7 18  1  0
  5 19  1  0
  3 20  1  0
  3 21  1  0
  2 22  1  0
 22 23  1  0
 23 24  1  0
 24 25  1  0
 25 26  1  0
 26 27  1  0
 26 28  1  0
 26 29  1  0
 25 30  1  0
 30 31  1  0
 31 32  1  0
 31 33  1  0
 30 34  1  0
 30 35  1  0
 25 36  1  0
 24 37  1  0
 24 38  1  0
 23 39  1  0
 23 40  1  0
 13  4  1  0
 31 22  1  0
 13  8  1  0
M  END
>  <cnnaffinities>  (34) 
[4.80019]

>  <score>  (34) 
4.80019

>  <index>  (34) 
35

>  <Smiles>  (34) 
O=C(C(c1c(nc(c2c(c(c(c(c12)[H])[H])[H])[H])[H])[H])([H])[H])N1C(C(C(C(F)(F)F)(C(C1([H])[H])([H])[H])[H])([H])[H])([H])[H]

>  <h>  (34) 
<NA>

>  <Training>  (34) 
True

>  <Success>  (34) 
True

>  <enamine_searched>  (34) 
False

>  <enamine_id>  (34) 
nan

$$$$

     RDKit          3D

 47 50  0  0  0  0  0  0  0  0999 V2000
   -6.0905   -3.4689  -21.2140 O   0  0  0  0  0  0  0  0  0  0  0  0
   -6.6470   -2.6605  -21.9359 C   0  0  0  0  0  0  0  0  0  0  0  0
   -7.3869   -1.4621  -21.2923 C   0  0  0  0  0  0  0  0  0  0  0  0
   -6.5772   -0.8245  -20.1829 C   0  0  0  0  0  0  0  0  0  0  0  0
   -6.8714   -1.0458  -18.8620 C   0  0  0  0  0  0  0  0  0  0  0  0
   -6.1820   -0.5412  -17.8024 N   0  0  0  0  0  0  0  0  0  0  0  0
   -5.1545    0.2239  -18.0678 C   0  0  0  0  0  0  0  0  0  0  0  0
   -4.7182    0.5330  -19.3827 C   0  0  0  0  0  0  0  0  0  0  0  0
   -3.5878    1.3529  -19.6240 C   0  0  0  0  0  0  0  0  0  0  0  0
   -3.1913    1.6352  -20.9023 C   0  0  0  0  0  0  0  0  0  0  0  0
   -3.9118    1.1006  -21.9935 C   0  0  0  0  0  0  0  0  0  0  0  0
   -5.0060    0.2977  -21.7881 C   0  0  0  0  0  0  0  0  0  0  0  0
   -5.4466   -0.0042  -20.4738 C   0  0  0  0  0  0  0  0  0  0  0  0
   -5.5422   -0.1100  -22.6406 H   0  0  0  0  0  0  0  0  0  0  0  0
   -3.5947    1.3329  -23.0046 H   0  0  0  0  0  0  0  0  0  0  0  0
   -2.3342    2.2781  -21.0862 H   0  0  0  0  0  0  0  0  0  0  0  0
   -3.0581    1.7723  -18.7722 H   0  0  0  0  0  0  0  0  0  0  0  0
   -4.6030    0.6281  -17.2160 H   0  0  0  0  0  0  0  0  0  0  0  0
   -7.7194   -1.6688  -18.5822 H   0  0  0  0  0  0  0  0  0  0  0  0
   -8.3119   -1.8626  -20.8612 H   0  0  0  0  0  0  0  0  0  0  0  0
   -7.6904   -0.7099  -22.0287 H   0  0  0  0  0  0  0  0  0  0  0  0
   -6.6117   -2.7868  -23.3132 N   0  0  0  0  0  0  0  0  0  0  0  0
   -5.5610   -3.6036  -23.9120 C   0  0  0  0  0  0  0  0  0  0  0  0
   -6.0990   -4.6275  -24.9079 C   0  0  0  0  0  0  0  0  0  0  0  0
   -7.0957   -4.0163  -25.9089 C   0  0  0  0  0  0  0  0  0  0  0  0
   -7.2796   -2.5180  -25.6770 C   0  0  0  0  0  0  0  0  0  0  0  0
   -7.5707   -2.1521  -24.2119 C   0  0  1  0  0  0  0  0  0  0  0  0
   -9.0143   -2.4601  -23.8318 C   0  0  0  0  0  0  0  0  0  0  0  0
   -9.4024   -3.7275  -23.3993 C   0  0  0  0  0  0  0  0  0  0  0  0
  -10.7304   -3.9993  -23.0895 C   0  0  0  0  0  0  0  0  0  0  0  0
  -11.7002   -3.0112  -23.2098 C   0  0  0  0  0  0  0  0  0  0  0  0
  -11.3254   -1.7493  -23.6467 C   0  0  0  0  0  0  0  0  0  0  0  0
   -9.9967   -1.4806  -23.9724 C   0  0  0  0  0  0  0  0  0  0  0  0
   -9.7369   -0.4977  -24.3606 H   0  0  0  0  0  0  0  0  0  0  0  0
  -12.0814   -0.9784  -23.7631 H   0  0  0  0  0  0  0  0  0  0  0  0
  -12.7386   -3.2226  -22.9699 H   0  0  0  0  0  0  0  0  0  0  0  0
  -11.0074   -4.9834  -22.7338 H   0  0  0  0  0  0  0  0  0  0  0  0
   -8.6582   -4.5103  -23.2919 H   0  0  0  0  0  0  0  0  0  0  0  0
   -7.4433   -1.0643  -24.1370 H   0  0  0  0  0  0  0  0  0  0  0  0
   -6.4025   -1.9664  -26.0306 H   0  0  0  0  0  0  0  0  0  0  0  0
   -8.1064   -2.1552  -26.2892 H   0  0  0  0  0  0  0  0  0  0  0  0
   -8.0673   -4.5158  -25.8215 H   0  0  0  0  0  0  0  0  0  0  0  0
   -6.7648   -4.1825  -26.9397 H   0  0  0  0  0  0  0  0  0  0  0  0
   -5.2519   -5.0736  -25.4373 H   0  0  0  0  0  0  0  0  0  0  0  0
   -6.5712   -5.4466  -24.3604 H   0  0  0  0  0  0  0  0  0  0  0  0
   -4.8487   -2.9420  -24.4214 H   0  0  0  0  0  0  0  0  0  0  0  0
   -5.0282   -4.0961  -23.1018 H   0  0  0  0  0  0  0  0  0  0  0  0
  1  2  2  0
  2  3  1  0
  3  4  1  0
  4  5  2  0
  5  6  1  0
  6  7  2  0
  7  8  1  0
  8  9  2  0
  9 10  1  0
 10 11  2  0
 11 12  1  0
 12 13  2  0
 12 14  1  0
 11 15  1  0
 10 16  1  0
  9 17  1  0
  7 18  1  0
  5 19  1  0
  3 20  1  0
  3 21  1  0
  2 22  1  0
 22 23  1  0
 23 24  1  0
 24 25  1  0
 25 26  1  0
 26 27  1  0
 27 28  1  0
 28 29  2  0
 29 30  1  0
 30 31  2  0
 31 32  1  0
 32 33  2  0
 33 34  1  0
 32 35  1  0
 31 36  1  0
 30 37  1  0
 29 38  1  0
 27 39  1  6
 26 40  1  0
 26 41  1  0
 25 42  1  0
 25 43  1  0
 24 44  1  0
 24 45  1  0
 23 46  1  0
 23 47  1  0
 13  4  1  0
 27 22  1  0
 33 28  1  0
 13  8  1  0
M  END
>  <cnnaffinities>  (35) 
[5.43904, 5.43622, 5.25664]

>  <score>  (35) 
5.43904

>  <index>  (35) 
36

>  <Smiles>  (35) 
O=C(C(c1c(nc(c2c(c(c(c(c12)[H])[H])[H])[H])[H])[H])([H])[H])N1C(C(C(C([C@]1(c1c(c(c(c(c1[H])[H])[H])[H])[H])[H])([H])[H])([H])[H])([H])[H])([H])[H]

>  <h>  (35) 
<NA>

>  <Training>  (35) 
True

>  <Success>  (35) 
True

>  <enamine_searched>  (35) 
False

>  <enamine_id>  (35) 
nan

$$$$

     RDKit          3D

 56 60  0  0  0  0  0  0  0  0999 V2000
  -14.4650   -1.5866  -23.6884 C   0  0  0  0  0  0  0  0  0  0  0  0
  -13.7587   -2.7434  -23.1979 N   0  0  0  0  0  0  0  0  0  0  0  0
  -13.3172   -2.7145  -21.9188 C   0  0  0  0  0  0  0  0  0  0  0  0
  -13.6190   -1.8073  -21.1613 O   0  0  0  0  0  0  0  0  0  0  0  0
  -12.4457   -3.9064  -21.5499 C   0  0  0  0  0  0  0  0  0  0  0  0
  -11.1156   -3.8574  -22.1496 N   0  0  0  0  0  0  0  0  0  0  0  0
   -9.9893   -3.3520  -21.3992 C   0  0  0  0  0  0  0  0  0  0  0  0
   -8.7959   -2.9403  -22.2715 C   0  0  2  0  0  0  0  0  0  0  0  0
   -7.5919   -2.7215  -21.3456 C   0  0  0  0  0  0  0  0  0  0  0  0
   -6.8983   -3.5652  -20.8188 O   0  0  0  0  0  0  0  0  0  0  0  0
   -7.3668   -1.3680  -21.2304 N   0  0  0  0  0  0  0  0  0  0  0  0
   -6.5681   -0.8544  -20.1830 C   0  0  0  0  0  0  0  0  0  0  0  0
   -6.8889   -1.0861  -18.8675 C   0  0  0  0  0  0  0  0  0  0  0  0
   -6.2075   -0.5593  -17.8193 N   0  0  0  0  0  0  0  0  0  0  0  0
   -5.1796    0.2069  -18.0850 C   0  0  0  0  0  0  0  0  0  0  0  0
   -4.7324    0.5090  -19.4023 C   0  0  0  0  0  0  0  0  0  0  0  0
   -3.6075    1.3372  -19.6402 C   0  0  0  0  0  0  0  0  0  0  0  0
   -3.2133    1.6182  -20.9193 C   0  0  0  0  0  0  0  0  0  0  0  0
   -3.9232    1.0844  -22.0191 C   0  0  0  0  0  0  0  0  0  0  0  0
   -5.0118    0.2702  -21.8158 C   0  0  0  0  0  0  0  0  0  0  0  0
   -5.4452   -0.0279  -20.4949 C   0  0  0  0  0  0  0  0  0  0  0  0
   -5.5494   -0.1529  -22.6595 H   0  0  0  0  0  0  0  0  0  0  0  0
   -3.6078    1.3255  -23.0306 H   0  0  0  0  0  0  0  0  0  0  0  0
   -2.3567    2.2620  -21.0987 H   0  0  0  0  0  0  0  0  0  0  0  0
   -3.0889    1.7577  -18.7839 H   0  0  0  0  0  0  0  0  0  0  0  0
   -4.6362    0.6320  -17.2396 H   0  0  0  0  0  0  0  0  0  0  0  0
   -7.7350   -1.7212  -18.6067 H   0  0  0  0  0  0  0  0  0  0  0  0
   -8.3663   -0.5599  -21.9065 C   0  0  0  0  0  0  0  0  0  0  0  0
   -9.0151   -1.5275  -22.9033 C   0  0  2  0  0  0  0  0  0  0  0  0
  -10.4648   -1.1767  -23.2274 C   0  0  0  0  0  0  0  0  0  0  0  0
  -10.9135   -1.9410  -23.8696 H   0  0  0  0  0  0  0  0  0  0  0  0
  -10.5362   -0.2119  -23.7329 H   0  0  0  0  0  0  0  0  0  0  0  0
  -11.0741   -1.1130  -22.3189 H   0  0  0  0  0  0  0  0  0  0  0  0
   -8.4349   -1.5089  -23.8348 H   0  0  0  0  0  0  0  0  0  0  0  0
   -9.1076   -0.1766  -21.1904 H   0  0  0  0  0  0  0  0  0  0  0  0
   -7.9084    0.2988  -22.4039 H   0  0  0  0  0  0  0  0  0  0  0  0
   -8.5161   -4.0096  -23.2978 C   0  0  0  0  0  0  0  0  0  0  0  0
   -7.2604   -4.1123  -23.9016 C   0  0  0  0  0  0  0  0  0  0  0  0
   -7.0270   -5.0203  -24.9219 C   0  0  0  0  0  0  0  0  0  0  0  0
   -8.0537   -5.8651  -25.3539 C   0  0  0  0  0  0  0  0  0  0  0  0
   -9.3060   -5.7736  -24.7695 C   0  0  0  0  0  0  0  0  0  0  0  0
   -9.5334   -4.8413  -23.7522 C   0  0  0  0  0  0  0  0  0  0  0  0
  -10.9066   -4.7129  -23.1932 C   0  0  0  0  0  0  0  0  0  0  0  0
  -11.8326   -5.3406  -23.6683 O   0  0  0  0  0  0  0  0  0  0  0  0
  -10.1274   -6.4089  -25.0913 H   0  0  0  0  0  0  0  0  0  0  0  0
   -7.8683   -6.5700  -26.1618 H   0  0  0  0  0  0  0  0  0  0  0  0
   -6.0490   -5.0614  -25.3970 H   0  0  0  0  0  0  0  0  0  0  0  0
   -6.4634   -3.4582  -23.5657 H   0  0  0  0  0  0  0  0  0  0  0  0
  -10.3067   -2.4899  -20.8154 H   0  0  0  0  0  0  0  0  0  0  0  0
   -9.6549   -4.1184  -20.7124 H   0  0  0  0  0  0  0  0  0  0  0  0
  -12.4341   -4.0440  -20.4651 H   0  0  0  0  0  0  0  0  0  0  0  0
  -12.9147   -4.7604  -22.0317 H   0  0  0  0  0  0  0  0  0  0  0  0
  -13.6123   -3.5726  -23.7517 H   0  0  0  0  0  0  0  0  0  0  0  0
  -13.8092   -0.7094  -23.6525 H   0  0  0  0  0  0  0  0  0  0  0  0
  -15.3092   -1.3802  -23.0298 H   0  0  0  0  0  0  0  0  0  0  0  0
  -14.8101   -1.7499  -24.7087 H   0  0  0  0  0  0  0  0  0  0  0  0
  1  2  1  0
  2  3  1  0
  3  4  2  0
  3  5  1  0
  5  6  1  0
  6  7  1  0
  8  7  1  1
  8  9  1  0
  9 10  2  0
  9 11  1  0
 11 12  1  0
 12 13  2  0
 13 14  1  0
 14 15  2  0
 15 16  1  0
 16 17  2  0
 17 18  1  0
 18 19  2  0
 19 20  1  0
 20 21  2  0
 20 22  1  0
 19 23  1  0
 18 24  1  0
 17 25  1  0
 15 26  1  0
 13 27  1  0
 11 28  1  0
 28 29  1  0
 29 30  1  0
 30 31  1  0
 30 32  1  0
 30 33  1  0
 29 34  1  6
 28 35  1  0
 28 36  1  0
  8 37  1  0
 37 38  2  0
 38 39  1  0
 39 40  2  0
 40 41  1  0
 41 42  2  0
 42 43  1  0
 43 44  2  0
 41 45  1  0
 40 46  1  0
 39 47  1  0
 38 48  1  0
  7 49  1  0
  7 50  1  0
  5 51  1  0
  5 52  1  0
  2 53  1  0
  1 54  1  0
  1 55  1  0
  1 56  1  0
 43  6  1  0
 29  8  1  0
 42 37  1  0
 21 12  1  0
 21 16  1  0
M  END
>  <cnnaffinities>  (36) 
[6.25508]

>  <score>  (36) 
6.25508

>  <index>  (36) 
37

>  <Smiles>  (36) 
C(N(C(=O)C(N1C([C@@]2(C(=O)N(c3c(nc(c4c(c(c(c(c34)[H])[H])[H])[H])[H])[H])C([C@@]2(C([H])([H])[H])[H])([H])[H])c2c(c(c(c(c2C1=O)[H])[H])[H])[H])([H])[H])([H])[H])[H])([H])([H])[H]

>  <h>  (36) 
<NA>

>  <Training>  (36) 
True

>  <Success>  (36) 
True

>  <enamine_searched>  (36) 
False

>  <enamine_id>  (36) 
nan

$$$$

     RDKit          3D

 46 48  0  0  0  0  0  0  0  0999 V2000
   -8.1587   -4.6951  -26.5426 C   0  0  0  0  0  0  0  0  0  0  0  0
   -8.6559   -4.9607  -25.1193 C   0  0  1  0  0  0  0  0  0  0  0  0
   -7.5970   -5.5301  -24.1813 C   0  0  0  0  0  0  0  0  0  0  0  0
   -6.6281   -4.5253  -23.5566 C   0  0  1  0  0  0  0  0  0  0  0  0
   -5.4386   -4.1712  -24.4516 C   0  0  0  0  0  0  0  0  0  0  0  0
   -4.6720   -3.7572  -23.8070 H   0  0  0  0  0  0  0  0  0  0  0  0
   -5.6695   -3.4305  -25.2204 H   0  0  0  0  0  0  0  0  0  0  0  0
   -5.0192   -5.0603  -24.9412 H   0  0  0  0  0  0  0  0  0  0  0  0
   -7.3265   -3.3388  -23.0143 N   0  0  0  0  0  0  0  0  0  0  0  0
   -6.7234   -2.7043  -21.9378 C   0  0  0  0  0  0  0  0  0  0  0  0
   -5.6782   -3.1194  -21.4630 O   0  0  0  0  0  0  0  0  0  0  0  0
   -7.4075   -1.4704  -21.2817 C   0  0  0  0  0  0  0  0  0  0  0  0
   -6.5778   -0.8345  -20.1863 C   0  0  0  0  0  0  0  0  0  0  0  0
   -6.8717   -1.0473  -18.8651 C   0  0  0  0  0  0  0  0  0  0  0  0
   -6.1844   -0.5422  -17.8051 N   0  0  0  0  0  0  0  0  0  0  0  0
   -5.1558    0.2226  -18.0685 C   0  0  0  0  0  0  0  0  0  0  0  0
   -4.7186    0.5287  -19.3835 C   0  0  0  0  0  0  0  0  0  0  0  0
   -3.5892    1.3526  -19.6248 C   0  0  0  0  0  0  0  0  0  0  0  0
   -3.1904    1.6330  -20.9028 C   0  0  0  0  0  0  0  0  0  0  0  0
   -3.9072    1.0959  -21.9940 C   0  0  0  0  0  0  0  0  0  0  0  0
   -5.0006    0.2907  -21.7872 C   0  0  0  0  0  0  0  0  0  0  0  0
   -5.4443   -0.0143  -20.4747 C   0  0  0  0  0  0  0  0  0  0  0  0
   -5.5350   -0.1233  -22.6368 H   0  0  0  0  0  0  0  0  0  0  0  0
   -3.5854    1.3242  -23.0053 H   0  0  0  0  0  0  0  0  0  0  0  0
   -2.3316    2.2749  -21.0861 H   0  0  0  0  0  0  0  0  0  0  0  0
   -3.0582    1.7731  -18.7735 H   0  0  0  0  0  0  0  0  0  0  0  0
   -4.6032    0.6279  -17.2169 H   0  0  0  0  0  0  0  0  0  0  0  0
   -7.7198   -1.6703  -18.5847 H   0  0  0  0  0  0  0  0  0  0  0  0
   -7.6719   -0.7131  -22.0317 H   0  0  0  0  0  0  0  0  0  0  0  0
   -8.3593   -1.8079  -20.8474 H   0  0  0  0  0  0  0  0  0  0  0  0
   -8.4106   -2.7193  -23.7940 C   0  0  1  0  0  0  0  0  0  0  0  0
   -7.9397   -1.6591  -24.8007 C   0  0  0  0  0  0  0  0  0  0  0  0
   -7.4436   -2.0880  -25.6756 H   0  0  0  0  0  0  0  0  0  0  0  0
   -8.7993   -1.0846  -25.1701 H   0  0  0  0  0  0  0  0  0  0  0  0
   -7.2439   -0.9496  -24.3424 H   0  0  0  0  0  0  0  0  0  0  0  0
   -9.3304   -3.7771  -24.4252 C   0  0  0  0  0  0  0  0  0  0  0  0
   -9.9800   -4.1693  -23.6356 H   0  0  0  0  0  0  0  0  0  0  0  0
   -9.9957   -3.2763  -25.1361 H   0  0  0  0  0  0  0  0  0  0  0  0
   -9.0336   -2.1942  -23.0638 H   0  0  0  0  0  0  0  0  0  0  0  0
   -6.1940   -5.0183  -22.6841 H   0  0  0  0  0  0  0  0  0  0  0  0
   -8.0957   -6.0588  -23.3643 H   0  0  0  0  0  0  0  0  0  0  0  0
   -7.0122   -6.2882  -24.7141 H   0  0  0  0  0  0  0  0  0  0  0  0
   -9.4288   -5.7359  -25.2248 H   0  0  0  0  0  0  0  0  0  0  0  0
   -7.9240   -5.6406  -27.0469 H   0  0  0  0  0  0  0  0  0  0  0  0
   -8.9308   -4.1942  -27.1380 H   0  0  0  0  0  0  0  0  0  0  0  0
   -7.2555   -4.0808  -26.5814 H   0  0  0  0  0  0  0  0  0  0  0  0
  1  2  1  0
  2  3  1  0
  3  4  1  0
  4  5  1  0
  5  6  1  0
  5  7  1  0
  5  8  1  0
  4  9  1  0
  9 10  1  0
 10 11  2  0
 10 12  1  0
 12 13  1  0
 13 14  2  0
 14 15  1  0
 15 16  2  0
 16 17  1  0
 17 18  2  0
 18 19  1  0
 19 20  2  0
 20 21  1  0
 21 22  2  0
 21 23  1  0
 20 24  1  0
 19 25  1  0
 18 26  1  0
 16 27  1  0
 14 28  1  0
 12 29  1  0
 12 30  1  0
  9 31  1  0
 31 32  1  0
 32 33  1  0
 32 34  1  0
 32 35  1  0
 31 36  1  0
 36 37  1  0
 36 38  1  0
 31 39  1  1
  4 40  1  1
  3 41  1  0
  3 42  1  0
  2 43  1  6
  1 44  1  0
  1 45  1  0
  1 46  1  0
 36  2  1  0
 22 13  1  0
 22 17  1  0
M  END
>  <cnnaffinities>  (37) 
[5.27418, 5.33534]

>  <score>  (37) 
5.27418

>  <index>  (37) 
38

>  <Smiles>  (37) 
C([C@]1(C([C@@](C([H])([H])[H])(N(C(=O)C(c2c(nc(c3c(c(c(c(c23)[H])[H])[H])[H])[H])[H])([H])[H])[C@@](C([H])([H])[H])(C1([H])[H])[H])[H])([H])[H])[H])([H])([H])[H]

>  <h>  (37) 
<NA>

>  <Training>  (37) 
True

>  <Success>  (37) 
True

>  <enamine_searched>  (37) 
False

>  <enamine_id>  (37) 
nan

$$$$

     RDKit          3D

 40 44  0  0  0  0  0  0  0  0999 V2000
   -7.2313    0.9540  -25.6024 C   0  0  0  0  0  0  0  0  0  0  0  0
   -6.4986   -0.3683  -25.4053 C   0  0  0  0  0  0  0  0  0  0  0  0
   -5.2949   -0.4647  -25.5742 O   0  0  0  0  0  0  0  0  0  0  0  0
   -7.2541   -1.4515  -25.0437 N   0  0  0  0  0  0  0  0  0  0  0  0
   -6.6453   -2.7647  -24.7202 C   0  0  0  0  0  0  0  0  0  0  0  0
   -7.8230   -3.4987  -24.0345 C   0  0  2  0  0  0  0  0  0  0  0  0
   -8.9948   -2.9684  -24.8669 C   0  0  0  0  0  0  0  0  0  0  0  0
   -8.6596   -1.5012  -24.5576 C   0  0  1  0  0  0  0  0  0  0  0  0
   -8.5973   -1.5850  -23.0824 C   0  0  0  0  0  0  0  0  0  0  0  0
   -8.1602   -0.6181  -22.1226 C   0  0  0  0  0  0  0  0  0  0  0  0
   -8.3109    0.5820  -22.0802 O   0  0  0  0  0  1  0  0  0  0  0  0
   -7.4065   -1.3993  -21.1908 N   0  0  0  0  0  0  0  0  0  0  0  0
   -6.5882   -0.8206  -20.1761 C   0  0  0  0  0  0  0  0  0  0  0  0
   -6.8822   -1.0542  -18.8589 C   0  0  0  0  0  0  0  0  0  0  0  0
   -6.1850   -0.5419  -17.8137 N   0  0  0  0  0  0  0  0  0  0  0  0
   -5.1575    0.2241  -18.0729 C   0  0  0  0  0  0  0  0  0  0  0  0
   -4.7191    0.5326  -19.3912 C   0  0  0  0  0  0  0  0  0  0  0  0
   -3.5841    1.3545  -19.6311 C   0  0  0  0  0  0  0  0  0  0  0  0
   -3.1870    1.6246  -20.9107 C   0  0  0  0  0  0  0  0  0  0  0  0
   -3.8958    1.0798  -22.0038 C   0  0  0  0  0  0  0  0  0  0  0  0
   -4.9857    0.2743  -21.7958 C   0  0  0  0  0  0  0  0  0  0  0  0
   -5.4435   -0.0078  -20.4810 C   0  0  0  0  0  0  0  0  0  0  0  0
   -5.5114   -0.1549  -22.6440 H   0  0  0  0  0  0  0  0  0  0  0  0
   -3.5763    1.2932  -23.0195 H   0  0  0  0  0  0  0  0  0  0  0  0
   -2.3290    2.2638  -21.0989 H   0  0  0  0  0  0  0  0  0  0  0  0
   -3.0533    1.7769  -18.7813 H   0  0  0  0  0  0  0  0  0  0  0  0
   -4.6056    0.6253  -17.2187 H   0  0  0  0  0  0  0  0  0  0  0  0
   -7.7356   -1.6738  -18.5973 H   0  0  0  0  0  0  0  0  0  0  0  0
   -7.2469   -2.7316  -21.6327 C   0  0  0  0  0  0  0  0  0  0  0  0
   -6.5227   -3.5769  -21.1619 O   0  0  0  0  0  0  0  0  0  0  0  0
   -8.0963   -2.8212  -22.7428 N   0  0  0  0  0  0  0  0  0  0  0  0
   -9.2986   -0.7217  -24.9741 H   0  0  0  0  0  0  0  0  0  0  0  0
   -9.9612   -3.2803  -24.4791 H   0  0  0  0  0  0  0  0  0  0  0  0
   -8.9161   -3.2075  -25.9298 H   0  0  0  0  0  0  0  0  0  0  0  0
   -7.7293   -4.5729  -23.9232 H   0  0  0  0  0  0  0  0  0  0  0  0
   -5.7856   -2.6792  -24.0512 H   0  0  0  0  0  0  0  0  0  0  0  0
   -6.3240   -3.2734  -25.6332 H   0  0  0  0  0  0  0  0  0  0  0  0
   -6.4987    1.6971  -25.9132 H   0  0  0  0  0  0  0  0  0  0  0  0
   -7.7133    1.2968  -24.6828 H   0  0  0  0  0  0  0  0  0  0  0  0
   -7.9969    0.8935  -26.3815 H   0  0  0  0  0  0  0  0  0  0  0  0
  1  2  1  0
  2  3  2  0
  2  4  1  0
  4  5  1  0
  5  6  1  0
  6  7  1  0
  7  8  1  0
  8  9  1  0
  9 10  2  0
 10 11  1  0
 10 12  1  0
 12 13  1  0
 13 14  2  0
 14 15  1  0
 15 16  2  0
 16 17  1  0
 17 18  2  0
 18 19  1  0
 19 20  2  0
 20 21  1  0
 21 22  2  0
 21 23  1  0
 20 24  1  0
 19 25  1  0
 18 26  1  0
 16 27  1  0
 14 28  1  0
 12 29  1  0
 29 30  2  0
 29 31  1  0
  8 32  1  1
  7 33  1  0
  7 34  1  0
  6 35  1  1
  5 36  1  0
  5 37  1  0
  1 38  1  0
  1 39  1  0
  1 40  1  0
  8  4  1  0
 31  9  1  0
 31  6  1  0
 22 13  1  0
 22 17  1  0
M  CHG  1  11  -1
M  END
>  <cnnaffinities>  (38) 
[5.5282, 5.0148]

>  <score>  (38) 
5.5282

>  <index>  (38) 
39

>  <Smiles>  (38) 
C(C(=O)N1C([C@@]2(C([C@]1(c1c([O-])n(c3c(nc(c4c(c(c(c(c34)[H])[H])[H])[H])[H])[H])c(=O)n21)[H])([H])[H])[H])([H])[H])([H])([H])[H]

>  <h>  (38) 
<NA>

>  <Training>  (38) 
True

>  <Success>  (38) 
True

>  <enamine_searched>  (38) 
False

>  <enamine_id>  (38) 
nan

$$$$

     RDKit          3D

 40 42  0  0  0  0  0  0  0  0999 V2000
   -9.3041   -6.6300  -25.1069 C   0  0  0  0  0  0  0  0  0  0  0  0
   -8.9930   -5.8097  -23.8568 C   0  0  0  0  0  0  0  0  0  0  0  0
   -7.5552   -5.9893  -23.3972 C   0  0  0  0  0  0  0  0  0  0  0  0
   -7.2613   -5.1694  -22.1506 C   0  0  0  0  0  0  0  0  0  0  0  0
   -7.6214   -3.7622  -22.3158 N   0  0  0  0  0  0  0  0  0  0  0  0
   -6.7879   -2.8015  -21.7707 C   0  0  0  0  0  0  0  0  0  0  0  0
   -5.5890   -2.9854  -21.6706 O   0  0  0  0  0  0  0  0  0  0  0  0
   -7.4216   -1.4841  -21.2562 C   0  0  0  0  0  0  0  0  0  0  0  0
   -6.5816   -0.8260  -20.1829 C   0  0  0  0  0  0  0  0  0  0  0  0
   -6.8728   -1.0419  -18.8624 C   0  0  0  0  0  0  0  0  0  0  0  0
   -6.1822   -0.5419  -17.8060 N   0  0  0  0  0  0  0  0  0  0  0  0
   -5.1537    0.2231  -18.0701 C   0  0  0  0  0  0  0  0  0  0  0  0
   -4.7182    0.5297  -19.3843 C   0  0  0  0  0  0  0  0  0  0  0  0
   -3.5880    1.3526  -19.6220 C   0  0  0  0  0  0  0  0  0  0  0  0
   -3.1870    1.6323  -20.8997 C   0  0  0  0  0  0  0  0  0  0  0  0
   -3.9026    1.0935  -21.9914 C   0  0  0  0  0  0  0  0  0  0  0  0
   -4.9968    0.2888  -21.7867 C   0  0  0  0  0  0  0  0  0  0  0  0
   -5.4443   -0.0116  -20.4753 C   0  0  0  0  0  0  0  0  0  0  0  0
   -5.5200   -0.1407  -22.6345 H   0  0  0  0  0  0  0  0  0  0  0  0
   -3.5788    1.3189  -23.0033 H   0  0  0  0  0  0  0  0  0  0  0  0
   -2.3282    2.2748  -21.0815 H   0  0  0  0  0  0  0  0  0  0  0  0
   -3.0604    1.7736  -18.7693 H   0  0  0  0  0  0  0  0  0  0  0  0
   -4.6042    0.6275  -17.2171 H   0  0  0  0  0  0  0  0  0  0  0  0
   -7.7182   -1.6677  -18.5809 H   0  0  0  0  0  0  0  0  0  0  0  0
   -7.5639   -0.7946  -22.0995 H   0  0  0  0  0  0  0  0  0  0  0  0
   -8.4241   -1.6905  -20.8502 H   0  0  0  0  0  0  0  0  0  0  0  0
   -8.9713   -3.5133  -22.7992 C   0  0  0  0  0  0  0  0  0  0  0  0
   -9.2762   -4.3291  -24.0530 C   0  0  0  0  0  0  0  0  0  0  0  0
  -10.3243   -4.1829  -24.3323 H   0  0  0  0  0  0  0  0  0  0  0  0
   -8.6795   -3.9613  -24.8932 H   0  0  0  0  0  0  0  0  0  0  0  0
   -9.0719   -2.4525  -23.0285 H   0  0  0  0  0  0  0  0  0  0  0  0
   -9.7176   -3.7531  -22.0252 H   0  0  0  0  0  0  0  0  0  0  0  0
   -7.8172   -5.6068  -21.3070 H   0  0  0  0  0  0  0  0  0  0  0  0
   -6.2040   -5.2150  -21.8954 H   0  0  0  0  0  0  0  0  0  0  0  0
   -6.8782   -5.6965  -24.2043 H   0  0  0  0  0  0  0  0  0  0  0  0
   -7.3604   -7.0494  -23.1957 H   0  0  0  0  0  0  0  0  0  0  0  0
   -9.6289   -6.1515  -23.0404 H   0  0  0  0  0  0  0  0  0  0  0  0
   -9.1204   -7.7003  -24.9478 H   0  0  0  0  0  0  0  0  0  0  0  0
  -10.3482   -6.5117  -25.4231 H   0  0  0  0  0  0  0  0  0  0  0  0
   -8.6686   -6.3076  -25.9412 H   0  0  0  0  0  0  0  0  0  0  0  0
  1  2  1  0
  2  3  1  0
  3  4  1  0
  4  5  1  0
  5  6  1  0
  6  7  2  0
  6  8  1  0
  8  9  1  0
  9 10  2  0
 10 11  1  0
 11 12  2  0
 12 13  1  0
 13 14  2  0
 14 15  1  0
 15 16  2  0
 16 17  1  0
 17 18  2  0
 17 19  1  0
 16 20  1  0
 15 21  1  0
 14 22  1  0
 12 23  1  0
 10 24  1  0
  8 25  1  0
  8 26  1  0
  5 27  1  0
 27 28  1  0
 28 29  1  0
 28 30  1  0
 27 31  1  0
 27 32  1  0
  4 33  1  0
  4 34  1  0
  3 35  1  0
  3 36  1  0
  2 37  1  0
  1 38  1  0
  1 39  1  0
  1 40  1  0
 28  2  1  0
 18  9  1  0
 18 13  1  0
M  END
>  <cnnaffinities>  (39) 
[4.77433, 4.77396]

>  <score>  (39) 
4.77433

>  <index>  (39) 
40

>  <Smiles>  (39) 
C(C1(C(C(N(C(=O)C(c2c(nc(c3c(c(c(c(c23)[H])[H])[H])[H])[H])[H])([H])[H])C(C1([H])[H])([H])[H])([H])[H])([H])[H])[H])([H])([H])[H]

>  <h>  (39) 
<NA>

>  <Training>  (39) 
True

>  <Success>  (39) 
True

>  <enamine_searched>  (39) 
False

>  <enamine_id>  (39) 
nan

$$$$

     RDKit          3D

 67 71  0  0  0  0  0  0  0  0999 V2000
   -7.6183    3.0153  -21.9762 C   0  0  0  0  0  0  0  0  0  0  0  0
   -8.7473    2.4998  -22.7363 N   0  0  0  0  0  0  0  0  0  0  0  0
   -8.4719    1.7075  -23.8111 C   0  0  0  0  0  0  0  0  0  0  0  0
   -7.3275    1.4635  -24.1634 O   0  0  0  0  0  0  0  0  0  0  0  0
   -9.6766    1.1162  -24.5395 C   0  0  0  0  0  0  0  0  0  0  0  0
  -10.1223   -0.0799  -23.8602 N   0  0  0  0  0  0  0  0  0  0  0  0
   -9.2592   -1.2492  -23.8791 C   0  0  0  0  0  0  0  0  0  0  0  0
   -9.3063   -1.9878  -22.5143 C   0  0  2  0  0  0  0  0  0  0  0  0
   -8.7035   -1.0339  -21.4413 C   0  0  0  0  0  0  0  0  0  0  0  0
   -9.2307   -0.0613  -20.9438 O   0  0  0  0  0  0  0  0  0  0  0  0
   -7.4073   -1.4375  -21.1815 N   0  0  0  0  0  0  0  0  0  0  0  0
   -6.6248   -0.8289  -20.1680 C   0  0  0  0  0  0  0  0  0  0  0  0
   -6.9325   -1.0455  -18.8459 C   0  0  0  0  0  0  0  0  0  0  0  0
   -6.2164   -0.5534  -17.8092 N   0  0  0  0  0  0  0  0  0  0  0  0
   -5.1741    0.1882  -18.0883 C   0  0  0  0  0  0  0  0  0  0  0  0
   -4.7434    0.4955  -19.4083 C   0  0  0  0  0  0  0  0  0  0  0  0
   -3.6231    1.3317  -19.6528 C   0  0  0  0  0  0  0  0  0  0  0  0
   -3.2591    1.6463  -20.9331 C   0  0  0  0  0  0  0  0  0  0  0  0
   -4.0048    1.1498  -22.0246 C   0  0  0  0  0  0  0  0  0  0  0  0
   -5.0992    0.3397  -21.8150 C   0  0  0  0  0  0  0  0  0  0  0  0
   -5.4908   -0.0191  -20.4949 C   0  0  0  0  0  0  0  0  0  0  0  0
   -5.6984    0.0190  -22.6631 H   0  0  0  0  0  0  0  0  0  0  0  0
   -3.7224    1.4199  -23.0377 H   0  0  0  0  0  0  0  0  0  0  0  0
   -2.4117    2.3026  -21.1134 H   0  0  0  0  0  0  0  0  0  0  0  0
   -3.0889    1.7363  -18.7978 H   0  0  0  0  0  0  0  0  0  0  0  0
   -4.6126    0.5931  -17.2464 H   0  0  0  0  0  0  0  0  0  0  0  0
   -7.7926   -1.6587  -18.5854 H   0  0  0  0  0  0  0  0  0  0  0  0
   -6.9748   -2.5764  -21.9682 C   0  0  0  0  0  0  0  0  0  0  0  0
   -8.3111   -3.1808  -22.4467 C   0  0  2  0  0  0  0  0  0  0  0  0
   -8.2068   -3.9821  -23.7437 C   0  0  0  0  0  0  0  0  0  0  0  0
   -7.2679   -5.4871  -23.5258 S   0  0  0  0  0  0  0  0  0  0  0  0
   -5.8688   -5.1254  -23.3664 O   0  0  0  0  0  0  0  0  0  0  0  0
   -7.9619   -6.3006  -22.5344 O   0  0  0  0  0  0  0  0  0  0  0  0
   -7.4176   -6.2540  -24.9896 N   0  0  0  0  0  0  0  0  0  0  0  0
   -8.6689   -6.9479  -25.2553 C   0  0  0  0  0  0  0  0  0  0  0  0
   -9.4934   -6.2778  -25.5407 H   0  0  0  0  0  0  0  0  0  0  0  0
   -8.5031   -7.6536  -26.0729 H   0  0  0  0  0  0  0  0  0  0  0  0
   -8.9560   -7.5123  -24.3670 H   0  0  0  0  0  0  0  0  0  0  0  0
   -6.7477   -5.6517  -26.1340 C   0  0  0  0  0  0  0  0  0  0  0  0
   -7.2951   -4.8011  -26.5668 H   0  0  0  0  0  0  0  0  0  0  0  0
   -6.6422   -6.4143  -26.9096 H   0  0  0  0  0  0  0  0  0  0  0  0
   -5.7483   -5.3245  -25.8418 H   0  0  0  0  0  0  0  0  0  0  0  0
   -9.2091   -4.2653  -24.0843 H   0  0  0  0  0  0  0  0  0  0  0  0
   -7.7056   -3.3911  -24.5206 H   0  0  0  0  0  0  0  0  0  0  0  0
   -8.6441   -3.8494  -21.6466 H   0  0  0  0  0  0  0  0  0  0  0  0
   -6.3436   -2.2606  -22.8121 H   0  0  0  0  0  0  0  0  0  0  0  0
   -6.3913   -3.2852  -21.3749 H   0  0  0  0  0  0  0  0  0  0  0  0
  -10.7752   -2.3098  -22.2532 C   0  0  0  0  0  0  0  0  0  0  0  0
  -11.2169   -3.4459  -21.5581 C   0  0  0  0  0  0  0  0  0  0  0  0
  -12.5460   -3.5277  -21.1745 C   0  0  0  0  0  0  0  0  0  0  0  0
  -12.9315   -4.4372  -20.2649 F   0  0  0  0  0  0  0  0  0  0  0  0
  -13.5178   -2.6432  -21.6169 C   0  0  0  0  0  0  0  0  0  0  0  0
  -13.1068   -1.5693  -22.3731 C   0  0  0  0  0  0  0  0  0  0  0  0
  -11.7509   -1.3726  -22.6330 C   0  0  0  0  0  0  0  0  0  0  0  0
  -11.3650   -0.0946  -23.2996 C   0  0  0  0  0  0  0  0  0  0  0  0
  -12.1188    0.8715  -23.3255 O   0  0  0  0  0  0  0  0  0  0  0  0
  -13.8253   -0.8596  -22.7674 H   0  0  0  0  0  0  0  0  0  0  0  0
  -14.5496   -2.7960  -21.3217 H   0  0  0  0  0  0  0  0  0  0  0  0
  -10.5379   -4.2131  -21.2058 H   0  0  0  0  0  0  0  0  0  0  0  0
   -9.5669   -1.9245  -24.6903 H   0  0  0  0  0  0  0  0  0  0  0  0
   -8.2454   -0.8959  -24.0885 H   0  0  0  0  0  0  0  0  0  0  0  0
   -9.4182    0.8972  -25.5856 H   0  0  0  0  0  0  0  0  0  0  0  0
  -10.5022    1.8239  -24.5244 H   0  0  0  0  0  0  0  0  0  0  0  0
   -9.6188    2.3400  -22.2473 H   0  0  0  0  0  0  0  0  0  0  0  0
   -7.9382    3.7570  -21.2435 H   0  0  0  0  0  0  0  0  0  0  0  0
   -7.0856    2.2088  -21.4533 H   0  0  0  0  0  0  0  0  0  0  0  0
   -6.9271    3.5061  -22.6673 H   0  0  0  0  0  0  0  0  0  0  0  0
  1  2  1  0
  2  3  1  0
  3  4  2  0
  3  5  1  0
  5  6  1  0
  6  7  1  0
  8  7  1  6
  8  9  1  0
  9 10  2  0
  9 11  1  0
 11 12  1  0
 12 13  2  0
 13 14  1  0
 14 15  2  0
 15 16  1  0
 16 17  2  0
 17 18  1  0
 18 19  2  0
 19 20  1  0
 20 21  2  0
 20 22  1  0
 19 23  1  0
 18 24  1  0
 17 25  1  0
 15 26  1  0
 13 27  1  0
 11 28  1  0
 28 29  1  0
 29 30  1  0
 30 31  1  0
 31 32  2  0
 31 33  2  0
 31 34  1  0
 34 35  1  0
 35 36  1  0
 35 37  1  0
 35 38  1  0
 34 39  1  0
 39 40  1  0
 39 41  1  0
 39 42  1  0
 30 43  1  0
 30 44  1  0
 29 45  1  1
 28 46  1  0
 28 47  1  0
  8 48  1  0
 48 49  2  0
 49 50  1  0
 50 51  1  0
 50 52  2  0
 52 53  1  0
 53 54  2  0
 54 55  1  0
 55 56  2  0
 53 57  1  0
 52 58  1  0
 49 59  1  0
  7 60  1  0
  7 61  1  0
  5 62  1  0
  5 63  1  0
  2 64  1  0
  1 65  1  0
  1 66  1  0
  1 67  1  0
 55  6  1  0
 29  8  1  0
 54 48  1  0
 21 12  1  0
 21 16  1  0
M  END
>  <cnnaffinities>  (40) 
[6.95774]

>  <score>  (40) 
6.95774

>  <index>  (40) 
41

>  <Smiles>  (40) 
C(N(C(=O)C(N1C([C@@]2(C(=O)N(c3c(nc(c4c(c(c(c(c34)[H])[H])[H])[H])[H])[H])C([C@@]2(C(S(=O)(=O)N(C([H])([H])[H])C([H])([H])[H])([H])[H])[H])([H])[H])c2c(c(F)c(c(c2C1=O)[H])[H])[H])([H])[H])([H])[H])[H])([H])([H])[H]

>  <h>  (40) 
<NA>

>  <Training>  (40) 
True

>  <Success>  (40) 
True

>  <enamine_searched>  (40) 
False

>  <enamine_id>  (40) 
nan

$$$$

     RDKit          3D

 67 72  0  0  0  0  0  0  0  0999 V2000
   -7.5014    3.2376  -21.8791 C   0  0  0  0  0  0  0  0  0  0  0  0
   -8.5350    2.7133  -22.7380 N   0  0  0  0  0  0  0  0  0  0  0  0
   -8.1697    2.0086  -23.8302 C   0  0  0  0  0  0  0  0  0  0  0  0
   -6.9992    1.8290  -24.1421 O   0  0  0  0  0  0  0  0  0  0  0  0
   -9.3187    1.4283  -24.6406 C   0  0  0  0  0  0  0  0  0  0  0  0
   -9.8453    0.2480  -23.9936 N   0  0  0  0  0  0  0  0  0  0  0  0
   -9.0526   -0.9673  -24.0056 C   0  0  0  0  0  0  0  0  0  0  0  0
   -9.1899   -1.7501  -22.6682 C   0  0  2  0  0  0  0  0  0  0  0  0
   -8.6114   -0.9033  -21.5089 C   0  0  0  0  0  0  0  0  0  0  0  0
   -9.1266    0.0565  -20.9612 O   0  0  0  0  0  0  0  0  0  0  0  0
   -7.3699   -1.3959  -21.1908 N   0  0  0  0  0  0  0  0  0  0  0  0
   -6.5957   -0.8110  -20.1645 C   0  0  0  0  0  0  0  0  0  0  0  0
   -6.9219   -1.0350  -18.8498 C   0  0  0  0  0  0  0  0  0  0  0  0
   -6.2093   -0.5487  -17.8087 N   0  0  0  0  0  0  0  0  0  0  0  0
   -5.1651    0.1940  -18.0800 C   0  0  0  0  0  0  0  0  0  0  0  0
   -4.7275    0.5152  -19.3959 C   0  0  0  0  0  0  0  0  0  0  0  0
   -3.6020    1.3444  -19.6455 C   0  0  0  0  0  0  0  0  0  0  0  0
   -3.2380    1.6595  -20.9259 C   0  0  0  0  0  0  0  0  0  0  0  0
   -3.9858    1.1682  -22.0201 C   0  0  0  0  0  0  0  0  0  0  0  0
   -5.0794    0.3616  -21.8068 C   0  0  0  0  0  0  0  0  0  0  0  0
   -5.4701    0.0070  -20.4859 C   0  0  0  0  0  0  0  0  0  0  0  0
   -5.6726    0.0265  -22.6535 H   0  0  0  0  0  0  0  0  0  0  0  0
   -3.7036    1.4364  -23.0340 H   0  0  0  0  0  0  0  0  0  0  0  0
   -2.3863    2.3099  -21.1089 H   0  0  0  0  0  0  0  0  0  0  0  0
   -3.0592    1.7426  -18.7933 H   0  0  0  0  0  0  0  0  0  0  0  0
   -4.6025    0.5843  -17.2324 H   0  0  0  0  0  0  0  0  0  0  0  0
   -7.7896   -1.6418  -18.5960 H   0  0  0  0  0  0  0  0  0  0  0  0
   -6.9683   -2.5567  -21.9571 C   0  0  0  0  0  0  0  0  0  0  0  0
   -8.2803   -3.0064  -22.6393 C   0  0  2  0  0  0  0  0  0  0  0  0
   -8.0566   -3.6967  -23.9934 C   0  0  0  0  0  0  0  0  0  0  0  0
   -7.3685   -4.9475  -23.8043 N   0  0  0  0  0  0  0  0  0  0  0  0
   -7.0849   -5.8546  -24.7960 C   0  0  0  0  0  0  0  0  0  0  0  0
   -6.5960   -7.4712  -24.3501 S   0  0  0  0  0  0  0  0  0  0  0  0
   -6.4327   -7.8356  -26.0366 C   0  0  0  0  0  0  0  0  0  0  0  0
   -6.6966   -6.8647  -26.8471 N   0  0  0  0  0  0  0  0  0  0  0  0
   -7.0668   -5.7277  -26.1561 C   0  0  0  0  0  0  0  0  0  0  0  0
   -7.3778   -4.4889  -26.9409 C   0  0  0  0  0  0  0  0  0  0  0  0
   -7.2999   -4.7156  -28.0056 H   0  0  0  0  0  0  0  0  0  0  0  0
   -8.3889   -4.1222  -26.7347 H   0  0  0  0  0  0  0  0  0  0  0  0
   -6.6819   -3.6738  -26.7080 H   0  0  0  0  0  0  0  0  0  0  0  0
   -6.1098   -8.8203  -26.3496 H   0  0  0  0  0  0  0  0  0  0  0  0
   -6.9795   -5.1614  -22.9007 H   0  0  0  0  0  0  0  0  0  0  0  0
   -7.4724   -3.0300  -24.6463 H   0  0  0  0  0  0  0  0  0  0  0  0
   -9.0172   -3.8804  -24.4966 H   0  0  0  0  0  0  0  0  0  0  0  0
   -8.7519   -3.7398  -21.9810 H   0  0  0  0  0  0  0  0  0  0  0  0
   -6.5437   -3.3263  -21.3006 H   0  0  0  0  0  0  0  0  0  0  0  0
   -6.1957   -2.2972  -22.6982 H   0  0  0  0  0  0  0  0  0  0  0  0
  -10.6743   -1.9854  -22.4547 C   0  0  0  0  0  0  0  0  0  0  0  0
  -11.1978   -3.0416  -21.7028 C   0  0  0  0  0  0  0  0  0  0  0  0
  -12.5712   -3.1371  -21.5385 C   0  0  0  0  0  0  0  0  0  0  0  0
  -13.2529   -4.2440  -20.3959 Cl  0  0  0  0  0  0  0  0  0  0  0  0
  -13.4637   -2.3123  -22.2211 C   0  0  0  0  0  0  0  0  0  0  0  0
  -12.9511   -1.2234  -22.8886 C   0  0  0  0  0  0  0  0  0  0  0  0
  -11.5790   -1.0163  -22.9105 C   0  0  0  0  0  0  0  0  0  0  0  0
  -11.0927    0.2901  -23.4472 C   0  0  0  0  0  0  0  0  0  0  0  0
  -11.7671    1.3139  -23.4104 O   0  0  0  0  0  0  0  0  0  0  0  0
  -13.5909   -0.4793  -23.3515 H   0  0  0  0  0  0  0  0  0  0  0  0
  -14.5280   -2.5113  -22.1680 H   0  0  0  0  0  0  0  0  0  0  0  0
  -10.5418   -3.7595  -21.2226 H   0  0  0  0  0  0  0  0  0  0  0  0
   -8.0094   -0.6868  -24.1798 H   0  0  0  0  0  0  0  0  0  0  0  0
   -9.3747   -1.6096  -24.8391 H   0  0  0  0  0  0  0  0  0  0  0  0
   -8.9325    1.1881  -25.6367 H   0  0  0  0  0  0  0  0  0  0  0  0
  -10.1486    2.1300  -24.7292 H   0  0  0  0  0  0  0  0  0  0  0  0
   -9.4846    2.6581  -22.4053 H   0  0  0  0  0  0  0  0  0  0  0  0
   -7.9566    3.8894  -21.1358 H   0  0  0  0  0  0  0  0  0  0  0  0
   -6.7923    3.8148  -22.4740 H   0  0  0  0  0  0  0  0  0  0  0  0
   -6.9417    2.4233  -21.4011 H   0  0  0  0  0  0  0  0  0  0  0  0
  1  2  1  0
  2  3  1  0
  3  4  2  0
  3  5  1  0
  5  6  1  0
  6  7  1  0
  8  7  1  6
  8  9  1  0
  9 10  2  0
  9 11  1  0
 11 12  1  0
 12 13  2  0
 13 14  1  0
 14 15  2  0
 15 16  1  0
 16 17  2  0
 17 18  1  0
 18 19  2  0
 19 20  1  0
 20 21  2  0
 20 22  1  0
 19 23  1  0
 18 24  1  0
 17 25  1  0
 15 26  1  0
 13 27  1  0
 11 28  1  0
 28 29  1  0
 29 30  1  0
 30 31  1  0
 31 32  1  0
 32 33  1  0
 33 34  1  0
 34 35  2  0
 35 36  1  0
 36 37  1  0
 37 38  1  0
 37 39  1  0
 37 40  1  0
 34 41  1  0
 31 42  1  0
 30 43  1  0
 30 44  1  0
 29 45  1  1
 28 46  1  0
 28 47  1  0
  8 48  1  0
 48 49  2  0
 49 50  1  0
 50 51  1  0
 50 52  2  0
 52 53  1  0
 53 54  2  0
 54 55  1  0
 55 56  2  0
 53 57  1  0
 52 58  1  0
 49 59  1  0
  7 60  1  0
  7 61  1  0
  5 62  1  0
  5 63  1  0
  2 64  1  0
  1 65  1  0
  1 66  1  0
  1 67  1  0
 55  6  1  0
 29  8  1  0
 36 32  2  0
 54 48  1  0
 21 12  1  0
 21 16  1  0
M  END
>  <cnnaffinities>  (41) 
[6.94948]

>  <score>  (41) 
6.94948

>  <index>  (41) 
43

>  <Smiles>  (41) 
C(N(C(=O)C(N1C([C@@]2(C(=O)N(c3c(nc(c4c(c(c(c(c34)[H])[H])[H])[H])[H])[H])C([C@@]2(C(N(c2sc(nc2C([H])([H])[H])[H])[H])([H])[H])[H])([H])[H])c2c(c(Cl)c(c(c2C1=O)[H])[H])[H])([H])[H])([H])[H])[H])([H])([H])[H]

>  <h>  (41) 
<NA>

>  <Training>  (41) 
True

>  <Success>  (41) 
True

>  <enamine_searched>  (41) 
False

>  <enamine_id>  (41) 
nan

$$$$

     RDKit          3D

 60 64  0  0  0  0  0  0  0  0999 V2000
   -7.6105    3.1068  -21.9261 C   0  0  0  0  0  0  0  0  0  0  0  0
   -8.7459    2.6090  -22.6830 N   0  0  0  0  0  0  0  0  0  0  0  0
   -8.4498    1.8157  -23.7511 C   0  0  0  0  0  0  0  0  0  0  0  0
   -7.2951    1.5544  -24.0587 O   0  0  0  0  0  0  0  0  0  0  0  0
   -9.6189    1.2346  -24.5351 C   0  0  0  0  0  0  0  0  0  0  0  0
  -10.0720    0.0346  -23.8693 N   0  0  0  0  0  0  0  0  0  0  0  0
   -9.2261   -1.1498  -23.8935 C   0  0  0  0  0  0  0  0  0  0  0  0
   -9.3030   -1.9143  -22.5423 C   0  0  2  0  0  0  0  0  0  0  0  0
   -8.7045   -0.9899  -21.4437 C   0  0  0  0  0  0  0  0  0  0  0  0
   -9.2340   -0.0154  -20.9444 O   0  0  0  0  0  0  0  0  0  0  0  0
   -7.4195   -1.4172  -21.1716 N   0  0  0  0  0  0  0  0  0  0  0  0
   -6.6209   -0.8218  -20.1624 C   0  0  0  0  0  0  0  0  0  0  0  0
   -6.9235   -1.0400  -18.8411 C   0  0  0  0  0  0  0  0  0  0  0  0
   -6.2083   -0.5498  -17.8006 N   0  0  0  0  0  0  0  0  0  0  0  0
   -5.1693    0.1941  -18.0823 C   0  0  0  0  0  0  0  0  0  0  0  0
   -4.7435    0.5062  -19.4032 C   0  0  0  0  0  0  0  0  0  0  0  0
   -3.6239    1.3429  -19.6491 C   0  0  0  0  0  0  0  0  0  0  0  0
   -3.2601    1.6542  -20.9284 C   0  0  0  0  0  0  0  0  0  0  0  0
   -4.0012    1.1538  -22.0213 C   0  0  0  0  0  0  0  0  0  0  0  0
   -5.0926    0.3431  -21.8121 C   0  0  0  0  0  0  0  0  0  0  0  0
   -5.4879   -0.0129  -20.4928 C   0  0  0  0  0  0  0  0  0  0  0  0
   -5.6816    0.0207  -22.6662 H   0  0  0  0  0  0  0  0  0  0  0  0
   -3.7078    1.4170  -23.0329 H   0  0  0  0  0  0  0  0  0  0  0  0
   -2.4084    2.3020  -21.1088 H   0  0  0  0  0  0  0  0  0  0  0  0
   -3.0857    1.7446  -18.7936 H   0  0  0  0  0  0  0  0  0  0  0  0
   -4.5994    0.5994  -17.2437 H   0  0  0  0  0  0  0  0  0  0  0  0
   -7.7840   -1.6556  -18.5928 H   0  0  0  0  0  0  0  0  0  0  0  0
   -6.9962   -2.5570  -21.9680 C   0  0  0  0  0  0  0  0  0  0  0  0
   -8.3339   -3.1248  -22.4855 C   0  0  2  0  0  0  0  0  0  0  0  0
   -8.1917   -3.9163  -23.7850 C   0  0  0  0  0  0  0  0  0  0  0  0
   -7.4231   -5.0834  -23.5993 O   0  0  0  0  0  0  0  0  0  0  0  0
   -8.1820   -6.2457  -23.3986 C   0  0  0  0  0  0  0  0  0  0  0  0
   -8.7482   -6.5165  -24.3008 H   0  0  0  0  0  0  0  0  0  0  0  0
   -8.8863   -6.1358  -22.5625 H   0  0  0  0  0  0  0  0  0  0  0  0
   -7.4883   -7.0567  -23.1658 H   0  0  0  0  0  0  0  0  0  0  0  0
   -7.6626   -3.2978  -24.5244 H   0  0  0  0  0  0  0  0  0  0  0  0
   -9.1862   -4.1476  -24.2026 H   0  0  0  0  0  0  0  0  0  0  0  0
   -8.6871   -3.8016  -21.7003 H   0  0  0  0  0  0  0  0  0  0  0  0
   -6.3408   -2.2471  -22.7981 H   0  0  0  0  0  0  0  0  0  0  0  0
   -6.4467   -3.2801  -21.3570 H   0  0  0  0  0  0  0  0  0  0  0  0
  -10.7789   -2.2076  -22.3057 C   0  0  0  0  0  0  0  0  0  0  0  0
  -11.2473   -3.3185  -21.5990 C   0  0  0  0  0  0  0  0  0  0  0  0
  -12.5847   -3.3870  -21.2435 C   0  0  0  0  0  0  0  0  0  0  0  0
  -13.1186   -4.4698  -20.0087 Cl  0  0  0  0  0  0  0  0  0  0  0  0
  -13.5392   -2.5077  -21.7393 C   0  0  0  0  0  0  0  0  0  0  0  0
  -13.0952   -1.4420  -22.4807 C   0  0  0  0  0  0  0  0  0  0  0  0
  -11.7337   -1.2507  -22.6902 C   0  0  0  0  0  0  0  0  0  0  0  0
  -11.3122    0.0387  -23.3122 C   0  0  0  0  0  0  0  0  0  0  0  0
  -12.0291    1.0318  -23.3186 O   0  0  0  0  0  0  0  0  0  0  0  0
  -13.7981   -0.7188  -22.8706 H   0  0  0  0  0  0  0  0  0  0  0  0
  -14.5796   -2.6367  -21.4620 H   0  0  0  0  0  0  0  0  0  0  0  0
  -10.5738   -4.0922  -21.2459 H   0  0  0  0  0  0  0  0  0  0  0  0
   -8.1998   -0.8284  -24.1005 H   0  0  0  0  0  0  0  0  0  0  0  0
   -9.5458   -1.8132  -24.7077 H   0  0  0  0  0  0  0  0  0  0  0  0
  -10.4583    1.9292  -24.5903 H   0  0  0  0  0  0  0  0  0  0  0  0
   -9.2954    0.9846  -25.5518 H   0  0  0  0  0  0  0  0  0  0  0  0
   -9.6070    2.4820  -22.1576 H   0  0  0  0  0  0  0  0  0  0  0  0
   -7.9302    3.8759  -21.2223 H   0  0  0  0  0  0  0  0  0  0  0  0
   -6.9082    3.5783  -22.6177 H   0  0  0  0  0  0  0  0  0  0  0  0
   -7.0975    2.2910  -21.3887 H   0  0  0  0  0  0  0  0  0  0  0  0
  1  2  1  0
  2  3  1  0
  3  4  2  0
  3  5  1  0
  5  6  1  0
  6  7  1  0
  8  7  1  6
  8  9  1  0
  9 10  2  0
  9 11  1  0
 11 12  1  0
 12 13  2  0
 13 14  1  0
 14 15  2  0
 15 16  1  0
 16 17  2  0
 17 18  1  0
 18 19  2  0
 19 20  1  0
 20 21  2  0
 20 22  1  0
 19 23  1  0
 18 24  1  0
 17 25  1  0
 15 26  1  0
 13 27  1  0
 11 28  1  0
 28 29  1  0
 29 30  1  0
 30 31  1  0
 31 32  1  0
 32 33  1  0
 32 34  1  0
 32 35  1  0
 30 36  1  0
 30 37  1  0
 29 38  1  1
 28 39  1  0
 28 40  1  0
  8 41  1  0
 41 42  2  0
 42 43  1  0
 43 44  1  0
 43 45  2  0
 45 46  1  0
 46 47  2  0
 47 48  1  0
 48 49  2  0
 46 50  1  0
 45 51  1  0
 42 52  1  0
  7 53  1  0
  7 54  1  0
  5 55  1  0
  5 56  1  0
  2 57  1  0
  1 58  1  0
  1 59  1  0
  1 60  1  0
 48  6  1  0
 29  8  1  0
 47 41  1  0
 21 12  1  0
 21 16  1  0
M  END
>  <cnnaffinities>  (42) 
[6.56804]

>  <score>  (42) 
6.56804

>  <index>  (42) 
44

>  <Smiles>  (42) 
C(N(C(=O)C(N1C([C@@]2(C(=O)N(c3c(nc(c4c(c(c(c(c34)[H])[H])[H])[H])[H])[H])C([C@@]2(C(OC([H])([H])[H])([H])[H])[H])([H])[H])c2c(c(Cl)c(c(c2C1=O)[H])[H])[H])([H])[H])([H])[H])[H])([H])([H])[H]

>  <h>  (42) 
<NA>

>  <Training>  (42) 
True

>  <Success>  (42) 
True

>  <enamine_searched>  (42) 
False

>  <enamine_id>  (42) 
nan

$$$$

     RDKit          3D

 66 71  0  0  0  0  0  0  0  0999 V2000
   -7.2584    2.9438  -22.5771 C   0  0  0  0  0  0  0  0  0  0  0  0
   -8.3195    2.2456  -23.2755 N   0  0  0  0  0  0  0  0  0  0  0  0
   -8.0881    1.6300  -24.4612 C   0  0  0  0  0  0  0  0  0  0  0  0
   -6.9969    1.6366  -25.0101 O   0  0  0  0  0  0  0  0  0  0  0  0
   -9.2976    0.9121  -25.0753 C   0  0  0  0  0  0  0  0  0  0  0  0
   -9.8987   -0.0266  -24.1536 N   0  0  0  0  0  0  0  0  0  0  0  0
   -9.2662   -1.3223  -24.0545 C   0  0  0  0  0  0  0  0  0  0  0  0
   -9.4090   -1.9000  -22.6342 C   0  0  2  0  0  0  0  0  0  0  0  0
   -8.8219   -0.9399  -21.5653 C   0  0  0  0  0  0  0  0  0  0  0  0
   -9.3690    0.0213  -21.0602 O   0  0  0  0  0  0  0  0  0  0  0  0
   -7.5497   -1.3629  -21.2667 N   0  0  0  0  0  0  0  0  0  0  0  0
   -6.7763   -0.7861  -20.2362 C   0  0  0  0  0  0  0  0  0  0  0  0
   -7.1240   -0.9692  -18.9199 C   0  0  0  0  0  0  0  0  0  0  0  0
   -6.3698   -0.5452  -17.8797 N   0  0  0  0  0  0  0  0  0  0  0  0
   -5.2671    0.1080  -18.1523 C   0  0  0  0  0  0  0  0  0  0  0  0
   -4.8156    0.4028  -19.4698 C   0  0  0  0  0  0  0  0  0  0  0  0
   -3.6557    1.1835  -19.7201 C   0  0  0  0  0  0  0  0  0  0  0  0
   -3.2873    1.4946  -21.0003 C   0  0  0  0  0  0  0  0  0  0  0  0
   -4.0452    1.0215  -22.0942 C   0  0  0  0  0  0  0  0  0  0  0  0
   -5.1619    0.2451  -21.8775 C   0  0  0  0  0  0  0  0  0  0  0  0
   -5.5851   -0.0674  -20.5570 C   0  0  0  0  0  0  0  0  0  0  0  0
   -5.7675   -0.0703  -22.7225 H   0  0  0  0  0  0  0  0  0  0  0  0
   -3.7662    1.2962  -23.1082 H   0  0  0  0  0  0  0  0  0  0  0  0
   -2.4242    2.1294  -21.1822 H   0  0  0  0  0  0  0  0  0  0  0  0
   -3.0953    1.5546  -18.8677 H   0  0  0  0  0  0  0  0  0  0  0  0
   -4.6679    0.4510  -17.3081 H   0  0  0  0  0  0  0  0  0  0  0  0
   -8.0433   -1.4948  -18.6653 H   0  0  0  0  0  0  0  0  0  0  0  0
   -7.1494   -2.5698  -21.9566 C   0  0  0  0  0  0  0  0  0  0  0  0
   -8.4975   -3.1446  -22.4277 C   0  0  2  0  0  0  0  0  0  0  0  0
   -8.3594   -4.2247  -23.5310 C   0  0  0  0  0  0  0  0  0  0  0  0
   -7.3000   -4.0308  -24.6074 C   0  0  0  0  0  0  0  0  0  0  0  0
   -5.9717   -4.4111  -24.3705 C   0  0  0  0  0  0  0  0  0  0  0  0
   -4.9738   -4.2070  -25.3211 C   0  0  0  0  0  0  0  0  0  0  0  0
   -5.2811   -3.6195  -26.5439 C   0  0  0  0  0  0  0  0  0  0  0  0
   -6.6010   -3.2744  -26.8137 C   0  0  0  0  0  0  0  0  0  0  0  0
   -7.5967   -3.4990  -25.8659 C   0  0  0  0  0  0  0  0  0  0  0  0
   -8.6246   -3.2414  -26.1137 H   0  0  0  0  0  0  0  0  0  0  0  0
   -6.8662   -2.8287  -27.7685 H   0  0  0  0  0  0  0  0  0  0  0  0
   -4.5025   -3.4386  -27.2804 H   0  0  0  0  0  0  0  0  0  0  0  0
   -3.9512   -4.5061  -25.1054 H   0  0  0  0  0  0  0  0  0  0  0  0
   -5.7114   -4.8577  -23.4116 H   0  0  0  0  0  0  0  0  0  0  0  0
   -8.1156   -5.1645  -23.0177 H   0  0  0  0  0  0  0  0  0  0  0  0
   -9.3442   -4.3739  -23.9884 H   0  0  0  0  0  0  0  0  0  0  0  0
   -8.9279   -3.6340  -21.5489 H   0  0  0  0  0  0  0  0  0  0  0  0
   -6.6154   -3.2390  -21.2733 H   0  0  0  0  0  0  0  0  0  0  0  0
   -6.4735   -2.3372  -22.7943 H   0  0  0  0  0  0  0  0  0  0  0  0
  -10.9023   -2.0098  -22.4007 C   0  0  0  0  0  0  0  0  0  0  0  0
  -11.5181   -3.0455  -21.6977 C   0  0  0  0  0  0  0  0  0  0  0  0
  -12.8714   -2.9693  -21.4139 C   0  0  0  0  0  0  0  0  0  0  0  0
  -13.6498   -4.2043  -20.4792 Cl  0  0  0  0  0  0  0  0  0  0  0  0
  -13.6583   -1.9096  -21.8541 C   0  0  0  0  0  0  0  0  0  0  0  0
  -13.0546   -0.8782  -22.5421 C   0  0  0  0  0  0  0  0  0  0  0  0
  -11.6922   -0.9226  -22.8060 C   0  0  0  0  0  0  0  0  0  0  0  0
  -11.0678    0.2480  -23.5028 C   0  0  0  0  0  0  0  0  0  0  0  0
  -11.5711    1.3669  -23.4798 O   0  0  0  0  0  0  0  0  0  0  0  0
  -13.6070   -0.0043  -22.8644 H   0  0  0  0  0  0  0  0  0  0  0  0
  -14.7180   -1.8962  -21.6375 H   0  0  0  0  0  0  0  0  0  0  0  0
  -10.9486   -3.8944  -21.3433 H   0  0  0  0  0  0  0  0  0  0  0  0
   -9.7502   -2.0271  -24.7443 H   0  0  0  0  0  0  0  0  0  0  0  0
   -8.2162   -1.2161  -24.3436 H   0  0  0  0  0  0  0  0  0  0  0  0
  -10.0653    1.6271  -25.3800 H   0  0  0  0  0  0  0  0  0  0  0  0
   -8.9269    0.3903  -25.9651 H   0  0  0  0  0  0  0  0  0  0  0  0
   -9.1552    2.0272  -22.7559 H   0  0  0  0  0  0  0  0  0  0  0  0
   -7.6515    3.8304  -22.0727 H   0  0  0  0  0  0  0  0  0  0  0  0
   -6.7663    2.2871  -21.8465 H   0  0  0  0  0  0  0  0  0  0  0  0
   -6.5207    3.2613  -23.3157 H   0  0  0  0  0  0  0  0  0  0  0  0
  1  2  1  0
  2  3  1  0
  3  4  2  0
  3  5  1  0
  5  6  1  0
  6  7  1  0
  8  7  1  6
  8  9  1  0
  9 10  2  0
  9 11  1  0
 11 12  1  0
 12 13  2  0
 13 14  1  0
 14 15  2  0
 15 16  1  0
 16 17  2  0
 17 18  1  0
 18 19  2  0
 19 20  1  0
 20 21  2  0
 20 22  1  0
 19 23  1  0
 18 24  1  0
 17 25  1  0
 15 26  1  0
 13 27  1  0
 11 28  1  0
 28 29  1  0
 29 30  1  0
 30 31  1  0
 31 32  2  0
 32 33  1  0
 33 34  2  0
 34 35  1  0
 35 36  2  0
 36 37  1  0
 35 38  1  0
 34 39  1  0
 33 40  1  0
 32 41  1  0
 30 42  1  0
 30 43  1  0
 29 44  1  1
 28 45  1  0
 28 46  1  0
  8 47  1  0
 47 48  2  0
 48 49  1  0
 49 50  1  0
 49 51  2  0
 51 52  1  0
 52 53  2  0
 53 54  1  0
 54 55  2  0
 52 56  1  0
 51 57  1  0
 48 58  1  0
  7 59  1  0
  7 60  1  0
  5 61  1  0
  5 62  1  0
  2 63  1  0
  1 64  1  0
  1 65  1  0
  1 66  1  0
 54  6  1  0
 29  8  1  0
 36 31  1  0
 53 47  1  0
 21 12  1  0
 21 16  1  0
M  END
>  <cnnaffinities>  (43) 
[6.90597, 6.86797]

>  <score>  (43) 
6.90597

>  <index>  (43) 
45

>  <Smiles>  (43) 
C(N(C(=O)C(N1C([C@@]2(C(=O)N(c3c(nc(c4c(c(c(c(c34)[H])[H])[H])[H])[H])[H])C([C@@]2(C(c2c(c(c(c(c2[H])[H])[H])[H])[H])([H])[H])[H])([H])[H])c2c(c(Cl)c(c(c2C1=O)[H])[H])[H])([H])[H])([H])[H])[H])([H])([H])[H]

>  <h>  (43) 
<NA>

>  <Training>  (43) 
True

>  <Success>  (43) 
True

>  <enamine_searched>  (43) 
False

>  <enamine_id>  (43) 
nan

$$$$

     RDKit          3D

 50 54  0  0  0  0  0  0  0  0999 V2000
  -10.4327   -1.1588  -23.2592 C   0  0  0  0  0  0  0  0  0  0  0  0
   -8.9805   -1.4922  -22.9288 C   0  0  1  0  0  0  0  0  0  0  0  0
   -8.3572   -0.5317  -21.9083 C   0  0  0  0  0  0  0  0  0  0  0  0
   -7.3575   -1.3411  -21.2339 N   0  0  0  0  0  0  0  0  0  0  0  0
   -6.5628   -0.8461  -20.1832 C   0  0  0  0  0  0  0  0  0  0  0  0
   -6.8836   -1.0946  -18.8741 C   0  0  0  0  0  0  0  0  0  0  0  0
   -6.2093   -0.5691  -17.8227 N   0  0  0  0  0  0  0  0  0  0  0  0
   -5.1847    0.2026  -18.0862 C   0  0  0  0  0  0  0  0  0  0  0  0
   -4.7334    0.5077  -19.4027 C   0  0  0  0  0  0  0  0  0  0  0  0
   -3.6095    1.3351  -19.6429 C   0  0  0  0  0  0  0  0  0  0  0  0
   -3.2193    1.6177  -20.9211 C   0  0  0  0  0  0  0  0  0  0  0  0
   -3.9286    1.0893  -22.0222 C   0  0  0  0  0  0  0  0  0  0  0  0
   -5.0139    0.2727  -21.8192 C   0  0  0  0  0  0  0  0  0  0  0  0
   -5.4438   -0.0253  -20.4977 C   0  0  0  0  0  0  0  0  0  0  0  0
   -5.5494   -0.1507  -22.6650 H   0  0  0  0  0  0  0  0  0  0  0  0
   -3.6183    1.3390  -23.0324 H   0  0  0  0  0  0  0  0  0  0  0  0
   -2.3671    2.2644  -21.0973 H   0  0  0  0  0  0  0  0  0  0  0  0
   -3.0941    1.7534  -18.7830 H   0  0  0  0  0  0  0  0  0  0  0  0
   -4.6473    0.6363  -17.2394 H   0  0  0  0  0  0  0  0  0  0  0  0
   -7.7237   -1.7382  -18.6232 H   0  0  0  0  0  0  0  0  0  0  0  0
   -7.5503   -2.6918  -21.3798 C   0  0  0  0  0  0  0  0  0  0  0  0
   -6.8605   -3.5476  -20.8543 O   0  0  0  0  0  0  0  0  0  0  0  0
   -8.7581   -2.9065  -22.2903 C   0  0  1  0  0  0  0  0  0  0  0  0
   -9.9502   -3.2977  -21.3992 C   0  0  0  0  0  0  0  0  0  0  0  0
  -11.0855   -3.7327  -22.1837 N   0  0  0  0  0  0  0  0  0  0  0  0
  -12.4539   -3.5551  -21.7415 C   0  0  0  0  0  0  0  0  0  0  0  0
  -13.3385   -2.7619  -22.6287 C   0  0  0  0  0  0  0  0  0  0  0  0
  -14.1330   -2.2016  -23.2554 N   0  0  0  0  0  0  0  0  0  0  0  0
  -12.4877   -3.1004  -20.7504 H   0  0  0  0  0  0  0  0  0  0  0  0
  -12.9133   -4.5422  -21.7147 H   0  0  0  0  0  0  0  0  0  0  0  0
  -10.9075   -4.6591  -23.1738 C   0  0  0  0  0  0  0  0  0  0  0  0
  -11.8560   -5.2830  -23.6110 O   0  0  0  0  0  0  0  0  0  0  0  0
   -9.5351   -4.8299  -23.7226 C   0  0  0  0  0  0  0  0  0  0  0  0
   -9.3215   -5.7854  -24.7148 C   0  0  0  0  0  0  0  0  0  0  0  0
   -8.0846   -5.9086  -25.3115 C   0  0  0  0  0  0  0  0  0  0  0  0
   -7.0751   -5.0568  -24.8884 C   0  0  0  0  0  0  0  0  0  0  0  0
   -5.8822   -5.1456  -25.4869 F   0  0  0  0  0  0  0  0  0  0  0  0
   -7.2518   -4.1137  -23.9014 C   0  0  0  0  0  0  0  0  0  0  0  0
   -8.5054   -3.9900  -23.3041 C   0  0  0  0  0  0  0  0  0  0  0  0
   -6.4265   -3.4829  -23.5953 H   0  0  0  0  0  0  0  0  0  0  0  0
   -7.8826   -6.6316  -26.0912 H   0  0  0  0  0  0  0  0  0  0  0  0
  -10.1522   -6.4162  -25.0030 H   0  0  0  0  0  0  0  0  0  0  0  0
   -9.6282   -4.0822  -20.7172 H   0  0  0  0  0  0  0  0  0  0  0  0
  -10.2313   -2.4263  -20.8043 H   0  0  0  0  0  0  0  0  0  0  0  0
   -9.1138   -0.1795  -21.1928 H   0  0  0  0  0  0  0  0  0  0  0  0
   -7.9029    0.3442  -22.3772 H   0  0  0  0  0  0  0  0  0  0  0  0
   -8.3845   -1.4689  -23.8518 H   0  0  0  0  0  0  0  0  0  0  0  0
  -10.5221   -0.1822  -23.7347 H   0  0  0  0  0  0  0  0  0  0  0  0
  -11.0313   -1.1459  -22.3440 H   0  0  0  0  0  0  0  0  0  0  0  0
  -10.8639   -1.9210  -23.9141 H   0  0  0  0  0  0  0  0  0  0  0  0
  1  2  1  0
  2  3  1  0
  3  4  1  0
  4  5  1  0
  5  6  2  0
  6  7  1  0
  7  8  2  0
  8  9  1  0
  9 10  2  0
 10 11  1  0
 11 12  2  0
 12 13  1  0
 13 14  2  0
 13 15  1  0
 12 16  1  0
 11 17  1  0
 10 18  1  0
  8 19  1  0
  6 20  1  0
  4 21  1  0
 21 22  2  0
 21 23  1  0
 23 24  1  1
 24 25  1  0
 25 26  1  0
 26 27  1  0
 27 28  3  0
 26 29  1  0
 26 30  1  0
 25 31  1  0
 31 32  2  0
 31 33  1  0
 33 34  2  0
 34 35  1  0
 35 36  2  0
 36 37  1  0
 36 38  1  0
 38 39  2  0
 38 40  1  0
 35 41  1  0
 34 42  1  0
 24 43  1  0
 24 44  1  0
  3 45  1  0
  3 46  1  0
  2 47  1  6
  1 48  1  0
  1 49  1  0
  1 50  1  0
 23  2  1  0
 39 33  1  0
 14  5  1  0
 39 23  1  0
 14  9  1  0
M  END
>  <cnnaffinities>  (44) 
[6.44863, 6.20357, 5.98078]

>  <score>  (44) 
6.44863

>  <index>  (44) 
46

>  <Smiles>  (44) 
C([C@]1(C(N(c2c(nc(c3c(c(c(c(c23)[H])[H])[H])[H])[H])[H])C(=O)[C@]21C(N(C(C#N)([H])[H])C(=O)c1c(c(c(F)c(c21)[H])[H])[H])([H])[H])([H])[H])[H])([H])([H])[H]

>  <h>  (44) 
<NA>

>  <Training>  (44) 
True

>  <Success>  (44) 
True

>  <enamine_searched>  (44) 
False

>  <enamine_id>  (44) 
nan

$$$$

     RDKit          3D

 58 63  0  0  0  0  0  0  0  0999 V2000
   -8.8639    0.5346  -21.0510 O   0  0  0  0  0  0  0  0  0  0  0  0
   -8.2332   -0.1859  -21.7988 C   0  0  0  0  0  0  0  0  0  0  0  0
   -7.4281   -1.3587  -21.2442 C   0  0  0  0  0  0  0  0  0  0  0  0
   -6.5407   -0.8496  -20.1518 C   0  0  0  0  0  0  0  0  0  0  0  0
   -6.8545   -1.0628  -18.8362 C   0  0  0  0  0  0  0  0  0  0  0  0
   -6.1700   -0.5532  -17.7829 N   0  0  0  0  0  0  0  0  0  0  0  0
   -5.1415    0.2087  -18.0589 C   0  0  0  0  0  0  0  0  0  0  0  0
   -4.7083    0.5225  -19.3779 C   0  0  0  0  0  0  0  0  0  0  0  0
   -3.5932    1.3616  -19.6238 C   0  0  0  0  0  0  0  0  0  0  0  0
   -3.2177    1.6692  -20.9017 C   0  0  0  0  0  0  0  0  0  0  0  0
   -3.9493    1.1598  -21.9956 C   0  0  0  0  0  0  0  0  0  0  0  0
   -5.0386    0.3473  -21.7867 C   0  0  0  0  0  0  0  0  0  0  0  0
   -5.4368   -0.0066  -20.4649 C   0  0  0  0  0  0  0  0  0  0  0  0
   -5.6029   -0.0133  -22.6425 H   0  0  0  0  0  0  0  0  0  0  0  0
   -3.6521    1.4237  -23.0081 H   0  0  0  0  0  0  0  0  0  0  0  0
   -2.3678    2.3211  -21.0808 H   0  0  0  0  0  0  0  0  0  0  0  0
   -3.0617    1.7678  -18.7682 H   0  0  0  0  0  0  0  0  0  0  0  0
   -4.5948    0.6274  -17.2131 H   0  0  0  0  0  0  0  0  0  0  0  0
   -7.7179   -1.6786  -18.5804 H   0  0  0  0  0  0  0  0  0  0  0  0
   -6.8427   -1.8386  -22.0301 H   0  0  0  0  0  0  0  0  0  0  0  0
   -8.1370   -2.0940  -20.8507 H   0  0  0  0  0  0  0  0  0  0  0  0
   -8.1602    0.0377  -23.1654 N   0  0  0  0  0  0  0  0  0  0  0  0
   -8.0083   -1.0542  -24.1119 C   0  0  0  0  0  0  0  0  0  0  0  0
   -9.0263   -2.1327  -23.8461 C   0  0  0  0  0  0  0  0  0  0  0  0
  -10.3746   -1.7884  -23.7165 C   0  0  0  0  0  0  0  0  0  0  0  0
  -11.3366   -2.7716  -23.5554 C   0  0  0  0  0  0  0  0  0  0  0  0
  -10.9493   -4.1078  -23.4960 C   0  0  0  0  0  0  0  0  0  0  0  0
   -9.5988   -4.4309  -23.5357 C   0  0  0  0  0  0  0  0  0  0  0  0
   -9.0832   -6.0903  -23.4021 Cl  0  0  0  0  0  0  0  0  0  0  0  0
   -8.6296   -3.4587  -23.7354 C   0  0  0  0  0  0  0  0  0  0  0  0
   -7.5899   -3.7691  -23.8472 H   0  0  0  0  0  0  0  0  0  0  0  0
  -11.6943   -4.8913  -23.4621 H   0  0  0  0  0  0  0  0  0  0  0  0
  -12.3833   -2.4886  -23.4669 H   0  0  0  0  0  0  0  0  0  0  0  0
  -10.6779   -0.7447  -23.7406 H   0  0  0  0  0  0  0  0  0  0  0  0
   -6.9888   -1.4719  -24.0758 H   0  0  0  0  0  0  0  0  0  0  0  0
   -8.1620   -0.6296  -25.1030 H   0  0  0  0  0  0  0  0  0  0  0  0
   -8.4305    1.3835  -23.5914 C   0  0  2  0  0  0  0  0  0  0  0  0
   -7.3993    2.4400  -23.1439 C   0  0  0  0  0  0  0  0  0  0  0  0
   -8.0572    3.6742  -23.7150 N   0  0  1  0  0  4  0  0  0  0  0  0
   -7.2030    4.4855  -24.5903 C   0  0  0  0  0  0  0  0  0  0  0  0
   -7.5627    5.9242  -24.7664 C   0  0  0  0  0  0  0  0  0  0  0  0
   -6.3528    5.5302  -23.9432 C   0  0  0  0  0  0  0  0  0  0  0  0
   -6.4286    5.5893  -22.8577 H   0  0  0  0  0  0  0  0  0  0  0  0
   -5.3598    5.7196  -24.3430 H   0  0  0  0  0  0  0  0  0  0  0  0
   -7.4082    6.3817  -25.7395 H   0  0  0  0  0  0  0  0  0  0  0  0
   -8.4516    6.2659  -24.2371 H   0  0  0  0  0  0  0  0  0  0  0  0
   -6.7945    3.9486  -25.4383 H   0  0  0  0  0  0  0  0  0  0  0  0
   -9.2721    3.0425  -24.3723 C   0  0  2  0  0  0  0  0  0  0  0  0
   -9.7515    2.1251  -23.2484 C   0  0  0  0  0  0  0  0  0  0  0  0
  -10.6528    1.5553  -23.4812 H   0  0  0  0  0  0  0  0  0  0  0  0
   -9.7967    2.5685  -22.2514 H   0  0  0  0  0  0  0  0  0  0  0  0
   -8.6859    1.7970  -25.0577 C   0  0  0  0  0  0  0  0  0  0  0  0
   -9.4575    1.1995  -25.5484 H   0  0  0  0  0  0  0  0  0  0  0  0
   -7.8154    1.9345  -25.7115 H   0  0  0  0  0  0  0  0  0  0  0  0
   -9.9078    3.7594  -24.8745 H   0  0  0  0  0  0  0  0  0  0  0  0
   -8.3839    4.2801  -22.9340 H   0  0  0  0  0  0  0  0  0  0  0  0
   -7.3252    2.5079  -22.0563 H   0  0  0  0  0  0  0  0  0  0  0  0
   -6.4090    2.3168  -23.5840 H   0  0  0  0  0  0  0  0  0  0  0  0
  1  2  2  0
  2  3  1  0
  3  4  1  0
  4  5  2  0
  5  6  1  0
  6  7  2  0
  7  8  1  0
  8  9  2  0
  9 10  1  0
 10 11  2  0
 11 12  1  0
 12 13  2  0
 12 14  1  0
 11 15  1  0
 10 16  1  0
  9 17  1  0
  7 18  1  0
  5 19  1  0
  3 20  1  0
  3 21  1  0
  2 22  1  0
 22 23  1  0
 23 24  1  0
 24 25  2  0
 25 26  1  0
 26 27  2  0
 27 28  1  0
 28 29  1  0
 28 30  2  0
 30 31  1  0
 27 32  1  0
 26 33  1  0
 25 34  1  0
 23 35  1  0
 23 36  1  0
 37 22  1  6
 37 38  1  0
 38 39  1  0
 39 40  1  0
 40 41  1  0
 41 42  1  0
 42 43  1  0
 42 44  1  0
 41 45  1  0
 41 46  1  0
 40 47  1  0
 39 48  1  0
 48 49  1  0
 49 50  1  0
 49 51  1  0
 48 52  1  0
 52 53  1  0
 52 54  1  0
 48 55  1  6
 39 56  1  1
 38 57  1  0
 38 58  1  0
 13  4  1  0
 30 24  1  0
 49 37  1  0
 13  8  1  0
 52 37  1  0
 42 40  1  0
M  CHG  1  39   1
M  END
>  <cnnaffinities>  (45) 
[5.92828, 6.23734, 5.75548, 5.8044, 5.8468]

>  <score>  (45) 
5.92828

>  <index>  (45) 
47

>  <Smiles>  (45) 
O=C(C(c1c(nc(c2c(c(c(c(c12)[H])[H])[H])[H])[H])[H])([H])[H])N(C(c1c(c(c(c(Cl)c1[H])[H])[H])[H])([H])[H])[C@]12C([N@@+](C3(C(C3([H])[H])([H])[H])[H])([C@](C1([H])[H])(C2([H])[H])[H])[H])([H])[H]

>  <h>  (45) 
<NA>

>  <Training>  (45) 
True

>  <Success>  (45) 
True

>  <enamine_searched>  (45) 
False

>  <enamine_id>  (45) 
nan

$$$$

     RDKit          3D

 46 48  0  0  0  0  0  0  0  0999 V2000
   -8.8841   -7.7654  -25.5927 C   0  0  0  0  0  0  0  0  0  0  0  0
   -9.4570   -6.3570  -25.4288 C   0  0  0  0  0  0  0  0  0  0  0  0
   -9.7653   -5.7700  -26.8079 C   0  0  0  0  0  0  0  0  0  0  0  0
  -10.2627   -4.7975  -26.7527 H   0  0  0  0  0  0  0  0  0  0  0  0
   -8.8440   -5.6405  -27.3877 H   0  0  0  0  0  0  0  0  0  0  0  0
  -10.4153   -6.4387  -27.3834 H   0  0  0  0  0  0  0  0  0  0  0  0
   -8.5388   -5.4216  -24.6066 C   0  0  0  0  0  0  0  0  0  0  0  0
   -8.0729   -5.9998  -23.2723 C   0  0  0  0  0  0  0  0  0  0  0  0
   -7.0955   -5.0651  -22.5601 C   0  0  0  0  0  0  0  0  0  0  0  0
   -7.5827   -3.6840  -22.4753 N   0  0  0  0  0  0  0  0  0  0  0  0
   -6.7867   -2.7771  -21.8144 C   0  0  0  0  0  0  0  0  0  0  0  0
   -5.6000   -3.0005  -21.6360 O   0  0  0  0  0  0  0  0  0  0  0  0
   -7.4233   -1.4778  -21.2594 C   0  0  0  0  0  0  0  0  0  0  0  0
   -6.5808   -0.8282  -20.1823 C   0  0  0  0  0  0  0  0  0  0  0  0
   -6.8726   -1.0430  -18.8610 C   0  0  0  0  0  0  0  0  0  0  0  0
   -6.1828   -0.5415  -17.8034 N   0  0  0  0  0  0  0  0  0  0  0  0
   -5.1549    0.2238  -18.0675 C   0  0  0  0  0  0  0  0  0  0  0  0
   -4.7184    0.5310  -19.3831 C   0  0  0  0  0  0  0  0  0  0  0  0
   -3.5882    1.3551  -19.6223 C   0  0  0  0  0  0  0  0  0  0  0  0
   -3.1880    1.6333  -20.8999 C   0  0  0  0  0  0  0  0  0  0  0  0
   -3.9029    1.0934  -21.9918 C   0  0  0  0  0  0  0  0  0  0  0  0
   -4.9977    0.2896  -21.7861 C   0  0  0  0  0  0  0  0  0  0  0  0
   -5.4440   -0.0119  -20.4743 C   0  0  0  0  0  0  0  0  0  0  0  0
   -5.5209   -0.1356  -22.6363 H   0  0  0  0  0  0  0  0  0  0  0  0
   -3.5771    1.3168  -23.0032 H   0  0  0  0  0  0  0  0  0  0  0  0
   -2.3283    2.2734  -21.0840 H   0  0  0  0  0  0  0  0  0  0  0  0
   -3.0554    1.7756  -18.7713 H   0  0  0  0  0  0  0  0  0  0  0  0
   -4.6008    0.6285  -17.2169 H   0  0  0  0  0  0  0  0  0  0  0  0
   -7.7196   -1.6690  -18.5840 H   0  0  0  0  0  0  0  0  0  0  0  0
   -8.4164   -1.7050  -20.8435 H   0  0  0  0  0  0  0  0  0  0  0  0
   -7.5886   -0.7700  -22.0831 H   0  0  0  0  0  0  0  0  0  0  0  0
   -8.9245   -3.4297  -22.9787 C   0  0  0  0  0  0  0  0  0  0  0  0
   -9.1740   -4.0349  -24.3689 C   0  0  0  0  0  0  0  0  0  0  0  0
  -10.2592   -4.0863  -24.5036 H   0  0  0  0  0  0  0  0  0  0  0  0
   -8.8172   -3.3388  -25.1342 H   0  0  0  0  0  0  0  0  0  0  0  0
   -9.6749   -3.8179  -22.2774 H   0  0  0  0  0  0  0  0  0  0  0  0
   -9.0812   -2.3512  -23.0363 H   0  0  0  0  0  0  0  0  0  0  0  0
   -6.1303   -5.0762  -23.0777 H   0  0  0  0  0  0  0  0  0  0  0  0
   -6.8956   -5.4484  -21.5520 H   0  0  0  0  0  0  0  0  0  0  0  0
   -7.5690   -6.9592  -23.4235 H   0  0  0  0  0  0  0  0  0  0  0  0
   -8.9344   -6.2221  -22.6342 H   0  0  0  0  0  0  0  0  0  0  0  0
   -7.6294   -5.2711  -25.2047 H   0  0  0  0  0  0  0  0  0  0  0  0
  -10.4064   -6.4499  -24.8887 H   0  0  0  0  0  0  0  0  0  0  0  0
   -8.8765   -8.3209  -24.6516 H   0  0  0  0  0  0  0  0  0  0  0  0
   -7.8579   -7.7370  -25.9767 H   0  0  0  0  0  0  0  0  0  0  0  0
   -9.4726   -8.3488  -26.3101 H   0  0  0  0  0  0  0  0  0  0  0  0
  1  2  1  0
  2  3  1  0
  3  4  1  0
  3  5  1  0
  3  6  1  0
  2  7  1  0
  7  8  1  0
  8  9  1  0
  9 10  1  0
 10 11  1  0
 11 12  2  0
 11 13  1  0
 13 14  1  0
 14 15  2  0
 15 16  1  0
 16 17  2  0
 17 18  1  0
 18 19  2  0
 19 20  1  0
 20 21  2  0
 21 22  1  0
 22 23  2  0
 22 24  1  0
 21 25  1  0
 20 26  1  0
 19 27  1  0
 17 28  1  0
 15 29  1  0
 13 30  1  0
 13 31  1  0
 10 32  1  0
 32 33  1  0
 33 34  1  0
 33 35  1  0
 32 36  1  0
 32 37  1  0
  9 38  1  0
  9 39  1  0
  8 40  1  0
  8 41  1  0
  7 42  1  0
  2 43  1  0
  1 44  1  0
  1 45  1  0
  1 46  1  0
 33  7  1  0
 23 14  1  0
 23 18  1  0
M  END
>  <cnnaffinities>  (46) 
[5.29478, 5.28794, 5.28779, 5.28786]

>  <score>  (46) 
5.29478

>  <index>  (46) 
48

>  <Smiles>  (46) 
C(C(C([H])([H])[H])(C1(C(C(N(C(=O)C(c2c(nc(c3c(c(c(c(c23)[H])[H])[H])[H])[H])[H])([H])[H])C(C1([H])[H])([H])[H])([H])[H])([H])[H])[H])[H])([H])([H])[H]

>  <h>  (46) 
<NA>

>  <Training>  (46) 
True

>  <Success>  (46) 
True

>  <enamine_searched>  (46) 
False

>  <enamine_id>  (46) 
nan

$$$$

     RDKit          3D

 67 72  0  0  0  0  0  0  0  0999 V2000
   -7.5051    3.2353  -21.9164 C   0  0  0  0  0  0  0  0  0  0  0  0
   -8.5808    2.7396  -22.7575 N   0  0  0  0  0  0  0  0  0  0  0  0
   -8.2160    1.9823  -23.8268 C   0  0  0  0  0  0  0  0  0  0  0  0
   -7.0423    1.7518  -24.0827 O   0  0  0  0  0  0  0  0  0  0  0  0
   -9.3461    1.3845  -24.6644 C   0  0  0  0  0  0  0  0  0  0  0  0
   -9.8642    0.2152  -23.9912 N   0  0  0  0  0  0  0  0  0  0  0  0
   -9.0661   -0.9986  -23.9692 C   0  0  0  0  0  0  0  0  0  0  0  0
   -9.2240   -1.7528  -22.6169 C   0  0  2  0  0  0  0  0  0  0  0  0
   -8.6301   -0.8921  -21.4829 C   0  0  0  0  0  0  0  0  0  0  0  0
   -9.1421    0.0704  -20.9434 O   0  0  0  0  0  0  0  0  0  0  0  0
   -7.3855   -1.3883  -21.1784 N   0  0  0  0  0  0  0  0  0  0  0  0
   -6.6001   -0.8090  -20.1622 C   0  0  0  0  0  0  0  0  0  0  0  0
   -6.9209   -1.0317  -18.8481 C   0  0  0  0  0  0  0  0  0  0  0  0
   -6.2092   -0.5486  -17.8057 N   0  0  0  0  0  0  0  0  0  0  0  0
   -5.1660    0.1950  -18.0809 C   0  0  0  0  0  0  0  0  0  0  0  0
   -4.7333    0.5099  -19.3994 C   0  0  0  0  0  0  0  0  0  0  0  0
   -3.6115    1.3429  -19.6430 C   0  0  0  0  0  0  0  0  0  0  0  0
   -3.2423    1.6533  -20.9226 C   0  0  0  0  0  0  0  0  0  0  0  0
   -3.9788    1.1526  -22.0188 C   0  0  0  0  0  0  0  0  0  0  0  0
   -5.0723    0.3441  -21.8126 C   0  0  0  0  0  0  0  0  0  0  0  0
   -5.4706   -0.0025  -20.4910 C   0  0  0  0  0  0  0  0  0  0  0  0
   -5.6578    0.0094  -22.6650 H   0  0  0  0  0  0  0  0  0  0  0  0
   -3.6841    1.4162  -23.0307 H   0  0  0  0  0  0  0  0  0  0  0  0
   -2.3898    2.3019  -21.1009 H   0  0  0  0  0  0  0  0  0  0  0  0
   -3.0774    1.7439  -18.7865 H   0  0  0  0  0  0  0  0  0  0  0  0
   -4.6020    0.5950  -17.2378 H   0  0  0  0  0  0  0  0  0  0  0  0
   -7.7895   -1.6400  -18.6035 H   0  0  0  0  0  0  0  0  0  0  0  0
   -7.0016   -2.5609  -21.9334 C   0  0  0  0  0  0  0  0  0  0  0  0
   -8.3333   -3.0126  -22.5536 C   0  0  2  0  0  0  0  0  0  0  0  0
   -8.1815   -3.7399  -23.8786 C   0  0  0  0  0  0  0  0  0  0  0  0
   -7.5519   -5.0168  -23.6865 N   0  0  0  0  0  0  0  0  0  0  0  0
   -7.1217   -5.6951  -24.7996 C   0  0  0  0  0  0  0  0  0  0  0  0
   -7.4026   -5.4641  -26.1114 C   0  0  0  0  0  0  0  0  0  0  0  0
   -6.8286   -6.3283  -27.0229 N   0  0  0  0  0  0  0  0  0  0  0  0
   -6.1384   -7.2280  -26.4074 C   0  0  0  0  0  0  0  0  0  0  0  0
   -5.4553   -8.4128  -26.9820 C   0  0  0  0  0  0  0  0  0  0  0  0
   -5.7648   -8.6032  -28.0146 H   0  0  0  0  0  0  0  0  0  0  0  0
   -4.3688   -8.2949  -26.9035 H   0  0  0  0  0  0  0  0  0  0  0  0
   -5.7586   -9.2195  -26.3214 H   0  0  0  0  0  0  0  0  0  0  0  0
   -6.0351   -7.0443  -24.6629 S   0  0  0  0  0  0  0  0  0  0  0  0
   -8.0677   -4.6907  -26.4782 H   0  0  0  0  0  0  0  0  0  0  0  0
   -7.1474   -5.2557  -22.7944 H   0  0  0  0  0  0  0  0  0  0  0  0
   -7.5833   -3.1273  -24.5737 H   0  0  0  0  0  0  0  0  0  0  0  0
   -9.1671   -3.8700  -24.3500 H   0  0  0  0  0  0  0  0  0  0  0  0
   -8.7782   -3.7112  -21.8414 H   0  0  0  0  0  0  0  0  0  0  0  0
   -6.5726   -3.3183  -21.2699 H   0  0  0  0  0  0  0  0  0  0  0  0
   -6.2514   -2.3195  -22.7021 H   0  0  0  0  0  0  0  0  0  0  0  0
  -10.7078   -1.9757  -22.4016 C   0  0  0  0  0  0  0  0  0  0  0  0
  -11.2314   -3.0658  -21.7023 C   0  0  0  0  0  0  0  0  0  0  0  0
  -12.5925   -3.1316  -21.4689 C   0  0  0  0  0  0  0  0  0  0  0  0
  -13.2134   -4.2733  -20.3277 Cl  0  0  0  0  0  0  0  0  0  0  0  0
  -13.4864   -2.2294  -22.0339 C   0  0  0  0  0  0  0  0  0  0  0  0
  -12.9770   -1.1463  -22.7157 C   0  0  0  0  0  0  0  0  0  0  0  0
  -11.5989   -0.9802  -22.8201 C   0  0  0  0  0  0  0  0  0  0  0  0
  -11.0646    0.3114  -23.3540 C   0  0  0  0  0  0  0  0  0  0  0  0
  -11.6602    1.3766  -23.2385 O   0  0  0  0  0  0  0  0  0  0  0  0
  -13.6387   -0.4146  -23.1637 H   0  0  0  0  0  0  0  0  0  0  0  0
  -14.5499   -2.3791  -21.8949 H   0  0  0  0  0  0  0  0  0  0  0  0
  -10.5982   -3.8519  -21.3122 H   0  0  0  0  0  0  0  0  0  0  0  0
   -9.3881   -1.6519  -24.7899 H   0  0  0  0  0  0  0  0  0  0  0  0
   -8.0135   -0.7394  -24.1386 H   0  0  0  0  0  0  0  0  0  0  0  0
  -10.1721    2.0863  -24.7904 H   0  0  0  0  0  0  0  0  0  0  0  0
   -8.9581    1.1169  -25.6539 H   0  0  0  0  0  0  0  0  0  0  0  0
   -9.5013    2.6449  -22.3450 H   0  0  0  0  0  0  0  0  0  0  0  0
   -7.8926    3.9329  -21.1703 H   0  0  0  0  0  0  0  0  0  0  0  0
   -6.9803    2.3900  -21.4447 H   0  0  0  0  0  0  0  0  0  0  0  0
   -6.7925    3.7786  -22.5420 H   0  0  0  0  0  0  0  0  0  0  0  0
  1  2  1  0
  2  3  1  0
  3  4  2  0
  3  5  1  0
  5  6  1  0
  6  7  1  0
  8  7  1  6
  8  9  1  0
  9 10  2  0
  9 11  1  0
 11 12  1  0
 12 13  2  0
 13 14  1  0
 14 15  2  0
 15 16  1  0
 16 17  2  0
 17 18  1  0
 18 19  2  0
 19 20  1  0
 20 21  2  0
 20 22  1  0
 19 23  1  0
 18 24  1  0
 17 25  1  0
 15 26  1  0
 13 27  1  0
 11 28  1  0
 28 29  1  0
 29 30  1  0
 30 31  1  0
 31 32  1  0
 32 33  2  0
 33 34  1  0
 34 35  2  0
 35 36  1  0
 36 37  1  0
 36 38  1  0
 36 39  1  0
 35 40  1  0
 33 41  1  0
 31 42  1  0
 30 43  1  0
 30 44  1  0
 29 45  1  1
 28 46  1  0
 28 47  1  0
  8 48  1  0
 48 49  2  0
 49 50  1  0
 50 51  1  0
 50 52  2  0
 52 53  1  0
 53 54  2  0
 54 55  1  0
 55 56  2  0
 53 57  1  0
 52 58  1  0
 49 59  1  0
  7 60  1  0
  7 61  1  0
  5 62  1  0
  5 63  1  0
  2 64  1  0
  1 65  1  0
  1 66  1  0
  1 67  1  0
 55  6  1  0
 29  8  1  0
 40 32  1  0
 54 48  1  0
 21 12  1  0
 21 16  1  0
M  END
>  <cnnaffinities>  (47) 
[6.94762]

>  <score>  (47) 
6.94762

>  <index>  (47) 
49

>  <Smiles>  (47) 
C(N(C(=O)C(N1C([C@@]2(C(=O)N(c3c(nc(c4c(c(c(c(c34)[H])[H])[H])[H])[H])[H])C([C@@]2(C(N(c2c(nc(C([H])([H])[H])s2)[H])[H])([H])[H])[H])([H])[H])c2c(c(Cl)c(c(c2C1=O)[H])[H])[H])([H])[H])([H])[H])[H])([H])([H])[H]

>  <h>  (47) 
<NA>

>  <Training>  (47) 
True

>  <Success>  (47) 
True

>  <enamine_searched>  (47) 
False

>  <enamine_id>  (47) 
nan

$$$$

     RDKit          3D

 66 70  0  0  0  0  0  0  0  0999 V2000
   -7.6016    3.0672  -21.9721 C   0  0  0  0  0  0  0  0  0  0  0  0
   -8.7339    2.5389  -22.7134 N   0  0  0  0  0  0  0  0  0  0  0  0
   -8.4681    1.7385  -23.7840 C   0  0  0  0  0  0  0  0  0  0  0  0
   -7.3259    1.4763  -24.1280 O   0  0  0  0  0  0  0  0  0  0  0  0
   -9.6690    1.1581  -24.5259 C   0  0  0  0  0  0  0  0  0  0  0  0
  -10.1213   -0.0367  -23.8488 N   0  0  0  0  0  0  0  0  0  0  0  0
   -9.2679   -1.2145  -23.8804 C   0  0  0  0  0  0  0  0  0  0  0  0
   -9.3187   -1.9591  -22.5192 C   0  0  2  0  0  0  0  0  0  0  0  0
   -8.7099   -1.0119  -21.4436 C   0  0  0  0  0  0  0  0  0  0  0  0
   -9.2372   -0.0335  -20.9494 O   0  0  0  0  0  0  0  0  0  0  0  0
   -7.4188   -1.4227  -21.1774 N   0  0  0  0  0  0  0  0  0  0  0  0
   -6.6276   -0.8206  -20.1673 C   0  0  0  0  0  0  0  0  0  0  0  0
   -6.9304   -1.0394  -18.8450 C   0  0  0  0  0  0  0  0  0  0  0  0
   -6.2117   -0.5527  -17.8071 N   0  0  0  0  0  0  0  0  0  0  0  0
   -5.1700    0.1877  -18.0878 C   0  0  0  0  0  0  0  0  0  0  0  0
   -4.7428    0.4995  -19.4077 C   0  0  0  0  0  0  0  0  0  0  0  0
   -3.6224    1.3358  -19.6518 C   0  0  0  0  0  0  0  0  0  0  0  0
   -3.2579    1.6502  -20.9305 C   0  0  0  0  0  0  0  0  0  0  0  0
   -4.0046    1.1551  -22.0233 C   0  0  0  0  0  0  0  0  0  0  0  0
   -5.1003    0.3479  -21.8137 C   0  0  0  0  0  0  0  0  0  0  0  0
   -5.4934   -0.0120  -20.4955 C   0  0  0  0  0  0  0  0  0  0  0  0
   -5.6990    0.0327  -22.6640 H   0  0  0  0  0  0  0  0  0  0  0  0
   -3.7186    1.4243  -23.0351 H   0  0  0  0  0  0  0  0  0  0  0  0
   -2.4083    2.3033  -21.1110 H   0  0  0  0  0  0  0  0  0  0  0  0
   -3.0856    1.7380  -18.7955 H   0  0  0  0  0  0  0  0  0  0  0  0
   -4.6064    0.5922  -17.2461 H   0  0  0  0  0  0  0  0  0  0  0  0
   -7.7896   -1.6549  -18.5910 H   0  0  0  0  0  0  0  0  0  0  0  0
   -6.9916   -2.5555  -21.9763 C   0  0  0  0  0  0  0  0  0  0  0  0
   -8.3310   -3.1541  -22.4485 C   0  0  2  0  0  0  0  0  0  0  0  0
   -8.2072   -3.9966  -23.7168 C   0  0  0  0  0  0  0  0  0  0  0  0
   -7.4338   -5.1461  -23.4691 O   0  0  0  0  0  0  0  0  0  0  0  0
   -6.1560   -5.2175  -24.0871 C   0  0  0  0  0  0  0  0  0  0  0  0
   -6.2642   -5.7322  -25.5153 C   0  0  0  0  0  0  0  0  0  0  0  0
   -6.8709   -5.0721  -26.1416 H   0  0  0  0  0  0  0  0  0  0  0  0
   -5.2715   -5.8081  -25.9670 H   0  0  0  0  0  0  0  0  0  0  0  0
   -6.7227   -6.7241  -25.5227 H   0  0  0  0  0  0  0  0  0  0  0  0
   -5.3276   -6.1321  -23.2037 C   0  0  0  0  0  0  0  0  0  0  0  0
   -5.7770   -7.1302  -23.1891 H   0  0  0  0  0  0  0  0  0  0  0  0
   -5.3143   -5.7439  -22.1806 H   0  0  0  0  0  0  0  0  0  0  0  0
   -4.2972   -6.2139  -23.5654 H   0  0  0  0  0  0  0  0  0  0  0  0
   -5.7042   -4.2134  -24.1010 H   0  0  0  0  0  0  0  0  0  0  0  0
   -7.7661   -3.3889  -24.5231 H   0  0  0  0  0  0  0  0  0  0  0  0
   -9.2096   -4.3114  -24.0443 H   0  0  0  0  0  0  0  0  0  0  0  0
   -8.6552   -3.8206  -21.6448 H   0  0  0  0  0  0  0  0  0  0  0  0
   -6.3678   -2.2362  -22.8282 H   0  0  0  0  0  0  0  0  0  0  0  0
   -6.4024   -3.2603  -21.3793 H   0  0  0  0  0  0  0  0  0  0  0  0
  -10.7889   -2.2730  -22.2585 C   0  0  0  0  0  0  0  0  0  0  0  0
  -11.2349   -3.4068  -21.5653 C   0  0  0  0  0  0  0  0  0  0  0  0
  -12.5627   -3.4900  -21.1822 C   0  0  0  0  0  0  0  0  0  0  0  0
  -12.9503   -4.4245  -20.3007 F   0  0  0  0  0  0  0  0  0  0  0  0
  -13.5306   -2.5955  -21.6133 C   0  0  0  0  0  0  0  0  0  0  0  0
  -13.1138   -1.5156  -22.3573 C   0  0  0  0  0  0  0  0  0  0  0  0
  -11.7588   -1.3249  -22.6247 C   0  0  0  0  0  0  0  0  0  0  0  0
  -11.3638   -0.0442  -23.2854 C   0  0  0  0  0  0  0  0  0  0  0  0
  -12.1107    0.9241  -23.3077 O   0  0  0  0  0  0  0  0  0  0  0  0
  -13.8302   -0.8044  -22.7517 H   0  0  0  0  0  0  0  0  0  0  0  0
  -14.5658   -2.7436  -21.3274 H   0  0  0  0  0  0  0  0  0  0  0  0
  -10.5667   -4.1918  -21.2323 H   0  0  0  0  0  0  0  0  0  0  0  0
   -9.5906   -1.8890  -24.6875 H   0  0  0  0  0  0  0  0  0  0  0  0
   -8.2476   -0.8794  -24.0924 H   0  0  0  0  0  0  0  0  0  0  0  0
  -10.4950    1.8652  -24.5358 H   0  0  0  0  0  0  0  0  0  0  0  0
   -9.3983    0.9272  -25.5660 H   0  0  0  0  0  0  0  0  0  0  0  0
   -9.5971    2.4053  -22.2022 H   0  0  0  0  0  0  0  0  0  0  0  0
   -7.0926    2.2801  -21.4018 H   0  0  0  0  0  0  0  0  0  0  0  0
   -7.9276    3.8487  -21.2873 H   0  0  0  0  0  0  0  0  0  0  0  0
   -6.8893    3.5205  -22.6647 H   0  0  0  0  0  0  0  0  0  0  0  0
  1  2  1  0
  2  3  1  0
  3  4  2  0
  3  5  1  0
  5  6  1  0
  6  7  1  0
  8  7  1  6
  8  9  1  0
  9 10  2  0
  9 11  1  0
 11 12  1  0
 12 13  2  0
 13 14  1  0
 14 15  2  0
 15 16  1  0
 16 17  2  0
 17 18  1  0
 18 19  2  0
 19 20  1  0
 20 21  2  0
 20 22  1  0
 19 23  1  0
 18 24  1  0
 17 25  1  0
 15 26  1  0
 13 27  1  0
 11 28  1  0
 28 29  1  0
 29 30  1  0
 30 31  1  0
 31 32  1  0
 32 33  1  0
 33 34  1  0
 33 35  1  0
 33 36  1  0
 32 37  1  0
 37 38  1  0
 37 39  1  0
 37 40  1  0
 32 41  1  0
 30 42  1  0
 30 43  1  0
 29 44  1  1
 28 45  1  0
 28 46  1  0
  8 47  1  0
 47 48  2  0
 48 49  1  0
 49 50  1  0
 49 51  2  0
 51 52  1  0
 52 53  2  0
 53 54  1  0
 54 55  2  0
 52 56  1  0
 51 57  1  0
 48 58  1  0
  7 59  1  0
  7 60  1  0
  5 61  1  0
  5 62  1  0
  2 63  1  0
  1 64  1  0
  1 65  1  0
  1 66  1  0
 54  6  1  0
 29  8  1  0
 53 47  1  0
 21 12  1  0
 21 16  1  0
M  END
>  <cnnaffinities>  (48) 
[6.82923, 6.74817, 6.75089]

>  <score>  (48) 
6.82923

>  <index>  (48) 
50

>  <Smiles>  (48) 
C(N(C(=O)C(N1C([C@@]2(C(=O)N(c3c(nc(c4c(c(c(c(c34)[H])[H])[H])[H])[H])[H])C([C@@]2(C(OC(C([H])([H])[H])(C([H])([H])[H])[H])([H])[H])[H])([H])[H])c2c(c(F)c(c(c2C1=O)[H])[H])[H])([H])[H])([H])[H])[H])([H])([H])[H]

>  <h>  (48) 
<NA>

>  <Training>  (48) 
True

>  <Success>  (48) 
True

>  <enamine_searched>  (48) 
False

>  <enamine_id>  (48) 
nan

$$$$

     RDKit          3D

 50 52  0  0  0  0  0  0  0  0999 V2000
   -9.3525   -1.2015  -26.4905 C   0  0  0  0  0  0  0  0  0  0  0  0
   -8.9784   -0.4137  -25.4855 C   0  0  0  0  0  0  0  0  0  0  0  0
   -9.5737   -0.4978  -24.0923 C   0  0  0  0  0  0  0  0  0  0  0  0
   -8.7365   -1.2462  -23.1571 N   0  0  0  0  0  0  0  0  0  0  0  0
   -8.0415   -0.5407  -22.1999 C   0  0  0  0  0  0  0  0  0  0  0  0
   -8.0400    0.6868  -22.1636 O   0  0  0  0  0  0  0  0  0  0  0  0
   -7.3490   -1.3297  -21.3119 N   0  0  0  0  0  0  0  0  0  0  0  0
   -6.5966   -0.7822  -20.2563 C   0  0  0  0  0  0  0  0  0  0  0  0
   -6.9226   -1.0470  -18.9525 C   0  0  0  0  0  0  0  0  0  0  0  0
   -6.2471   -0.5659  -17.8835 N   0  0  0  0  0  0  0  0  0  0  0  0
   -5.2099    0.1990  -18.1220 C   0  0  0  0  0  0  0  0  0  0  0  0
   -4.7509    0.5340  -19.4254 C   0  0  0  0  0  0  0  0  0  0  0  0
   -3.6020    1.3420  -19.6410 C   0  0  0  0  0  0  0  0  0  0  0  0
   -3.1826    1.6253  -20.9123 C   0  0  0  0  0  0  0  0  0  0  0  0
   -3.8857    1.1140  -22.0251 C   0  0  0  0  0  0  0  0  0  0  0  0
   -4.9902    0.3247  -21.8418 C   0  0  0  0  0  0  0  0  0  0  0  0
   -5.4635    0.0324  -20.5330 C   0  0  0  0  0  0  0  0  0  0  0  0
   -5.5290   -0.0721  -22.6936 H   0  0  0  0  0  0  0  0  0  0  0  0
   -3.5609    1.3661  -23.0317 H   0  0  0  0  0  0  0  0  0  0  0  0
   -2.3072    2.2471  -21.0664 H   0  0  0  0  0  0  0  0  0  0  0  0
   -3.0814    1.7422  -18.7750 H   0  0  0  0  0  0  0  0  0  0  0  0
   -4.6837    0.5883  -17.2527 H   0  0  0  0  0  0  0  0  0  0  0  0
   -7.7774   -1.6825  -18.7287 H   0  0  0  0  0  0  0  0  0  0  0  0
   -7.6626   -2.2862  -21.2033 H   0  0  0  0  0  0  0  0  0  0  0  0
   -8.4057   -2.5824  -23.5378 C   0  0  0  0  0  0  0  0  0  0  0  0
   -9.4230   -3.5168  -23.7111 C   0  0  0  0  0  0  0  0  0  0  0  0
   -9.1284   -4.8130  -24.1187 C   0  0  0  0  0  0  0  0  0  0  0  0
   -7.8195   -5.1925  -24.3988 C   0  0  0  0  0  0  0  0  0  0  0  0
   -6.8180   -4.2360  -24.2746 C   0  0  0  0  0  0  0  0  0  0  0  0
   -5.1787   -4.6745  -24.6773 Cl  0  0  0  0  0  0  0  0  0  0  0  0
   -7.0936   -2.9408  -23.8538 C   0  0  0  0  0  0  0  0  0  0  0  0
   -6.2918   -2.2122  -23.7924 H   0  0  0  0  0  0  0  0  0  0  0  0
   -7.5911   -6.1996  -24.7405 H   0  0  0  0  0  0  0  0  0  0  0  0
   -9.9382   -5.5280  -24.2448 H   0  0  0  0  0  0  0  0  0  0  0  0
  -10.4477   -3.2147  -23.5188 H   0  0  0  0  0  0  0  0  0  0  0  0
   -9.7758    0.4812  -23.6482 H   0  0  0  0  0  0  0  0  0  0  0  0
  -10.5119   -1.0496  -24.1469 H   0  0  0  0  0  0  0  0  0  0  0  0
   -7.8281    0.5002  -25.7816 C   0  0  0  0  0  0  0  0  0  0  0  0
   -7.1637    0.3670  -26.8021 O   0  0  0  0  0  0  0  0  0  0  0  0
   -7.5570    1.4736  -24.8739 N   0  0  0  0  0  0  0  0  0  0  0  0
   -6.2408    2.0729  -24.9814 C   0  0  0  0  0  0  0  0  0  0  0  0
   -6.0816    3.1525  -23.9321 C   0  0  0  0  0  0  0  0  0  0  0  0
   -6.7800    3.9787  -24.1149 H   0  0  0  0  0  0  0  0  0  0  0  0
   -6.2747    2.7227  -22.9373 H   0  0  0  0  0  0  0  0  0  0  0  0
   -5.0630    3.5542  -23.9465 H   0  0  0  0  0  0  0  0  0  0  0  0
   -6.1233    2.4567  -26.0004 H   0  0  0  0  0  0  0  0  0  0  0  0
   -5.4625    1.2986  -24.8549 H   0  0  0  0  0  0  0  0  0  0  0  0
   -7.9635    1.4464  -23.9429 H   0  0  0  0  0  0  0  0  0  0  0  0
   -8.8489   -1.1337  -27.4530 H   0  0  0  0  0  0  0  0  0  0  0  0
  -10.1747   -1.9065  -26.3712 H   0  0  0  0  0  0  0  0  0  0  0  0
  1  2  2  0
  2  3  1  0
  3  4  1  0
  4  5  1  0
  5  6  2  0
  5  7  1  0
  7  8  1  0
  8  9  2  0
  9 10  1  0
 10 11  2  0
 11 12  1  0
 12 13  2  0
 13 14  1  0
 14 15  2  0
 15 16  1  0
 16 17  2  0
 16 18  1  0
 15 19  1  0
 14 20  1  0
 13 21  1  0
 11 22  1  0
  9 23  1  0
  7 24  1  0
  4 25  1  0
 25 26  2  0
 26 27  1  0
 27 28  2  0
 28 29  1  0
 29 30  1  0
 29 31  2  0
 31 32  1  0
 28 33  1  0
 27 34  1  0
 26 35  1  0
  3 36  1  0
  3 37  1  0
  2 38  1  0
 38 39  2  0
 38 40  1  0
 40 41  1  0
 41 42  1  0
 42 43  1  0
 42 44  1  0
 42 45  1  0
 41 46  1  0
 41 47  1  0
 40 48  1  0
  1 49  1  0
  1 50  1  0
 17  8  1  0
 31 25  1  0
 17 12  1  0
M  END
>  <cnnaffinities>  (49) 
[5.91855, 5.87064]

>  <score>  (49) 
5.91855

>  <index>  (49) 
51

>  <Smiles>  (49) 
C(=C(C(N(C(=O)N(c1c(nc(c2c(c(c(c(c12)[H])[H])[H])[H])[H])[H])[H])c1c(c(c(c(Cl)c1[H])[H])[H])[H])([H])[H])C(=O)N(C(C([H])([H])[H])([H])[H])[H])([H])[H]

>  <h>  (49) 
<NA>

>  <Training>  (49) 
True

>  <Success>  (49) 
True

>  <enamine_searched>  (49) 
False

>  <enamine_id>  (49) 
nan

$$$$

     RDKit          3D

 57 60  0  0  0  0  0  0  0  0999 V2000
   -6.4449    7.0850  -21.4775 C   0  0  0  0  0  0  0  0  0  0  0  0
   -6.8199    6.9935  -22.9600 C   0  0  0  0  0  0  0  0  0  0  0  0
   -7.8720    5.9373  -23.2109 C   0  0  0  0  0  0  0  0  0  0  0  0
   -9.0582    6.2177  -23.2285 O   0  0  0  0  0  0  0  0  0  0  0  0
   -7.3986    4.6617  -23.4005 N   0  0  0  0  0  0  0  0  0  0  0  0
   -8.1984    3.5654  -23.7945 C   0  0  0  0  0  0  0  0  0  0  0  0
   -9.2478    3.7672  -24.6905 C   0  0  0  0  0  0  0  0  0  0  0  0
  -10.0106    2.6868  -25.1052 C   0  0  0  0  0  0  0  0  0  0  0  0
   -9.7528    1.4130  -24.6076 C   0  0  0  0  0  0  0  0  0  0  0  0
   -8.7135    1.2047  -23.6986 C   0  0  0  0  0  0  0  0  0  0  0  0
   -8.4435   -0.1189  -23.2203 N   0  0  0  0  0  0  0  0  0  0  0  0
   -8.2244   -1.1947  -24.1924 C   0  0  0  0  0  0  0  0  0  0  0  0
   -6.8221   -1.2173  -24.7819 C   0  0  0  0  0  0  0  0  0  0  0  0
   -5.9892   -2.3291  -24.6338 C   0  0  0  0  0  0  0  0  0  0  0  0
   -4.7321   -2.3720  -25.2319 C   0  0  0  0  0  0  0  0  0  0  0  0
   -4.2459   -1.2383  -25.8785 C   0  0  0  0  0  0  0  0  0  0  0  0
   -5.0797   -0.1349  -26.0540 C   0  0  0  0  0  0  0  0  0  0  0  0
   -6.3740   -0.1347  -25.5418 C   0  0  0  0  0  0  0  0  0  0  0  0
   -7.0649    0.6787  -25.7699 H   0  0  0  0  0  0  0  0  0  0  0  0
   -4.7425    0.7210  -26.6328 H   0  0  0  0  0  0  0  0  0  0  0  0
   -3.2169   -1.2117  -26.2268 H   0  0  0  0  0  0  0  0  0  0  0  0
   -4.1467   -3.2913  -25.1885 H   0  0  0  0  0  0  0  0  0  0  0  0
   -6.3171   -3.1712  -24.0241 H   0  0  0  0  0  0  0  0  0  0  0  0
   -8.9575   -1.0746  -25.0039 H   0  0  0  0  0  0  0  0  0  0  0  0
   -8.4485   -2.1501  -23.7102 H   0  0  0  0  0  0  0  0  0  0  0  0
   -8.3695   -0.2955  -21.8364 C   0  0  0  0  0  0  0  0  0  0  0  0
   -9.0167    0.3893  -21.0660 O   0  0  0  0  0  0  0  0  0  0  0  0
   -7.4452   -1.3868  -21.2830 C   0  0  0  0  0  0  0  0  0  0  0  0
   -6.5753   -0.8316  -20.1818 C   0  0  0  0  0  0  0  0  0  0  0  0
   -6.8803   -1.0414  -18.8620 C   0  0  0  0  0  0  0  0  0  0  0  0
   -6.1891   -0.5391  -17.8067 N   0  0  0  0  0  0  0  0  0  0  0  0
   -5.1566    0.2173  -18.0753 C   0  0  0  0  0  0  0  0  0  0  0  0
   -4.7189    0.5257  -19.3916 C   0  0  0  0  0  0  0  0  0  0  0  0
   -3.5977    1.3596  -19.6291 C   0  0  0  0  0  0  0  0  0  0  0  0
   -3.2152    1.6562  -20.9060 C   0  0  0  0  0  0  0  0  0  0  0  0
   -3.9389    1.1315  -22.0020 C   0  0  0  0  0  0  0  0  0  0  0  0
   -5.0276    0.3196  -21.7987 C   0  0  0  0  0  0  0  0  0  0  0  0
   -5.4503   -0.0049  -20.4807 C   0  0  0  0  0  0  0  0  0  0  0  0
   -5.5646   -0.0676  -22.6627 H   0  0  0  0  0  0  0  0  0  0  0  0
   -3.6342    1.3765  -23.0159 H   0  0  0  0  0  0  0  0  0  0  0  0
   -2.3663    2.3065  -21.0862 H   0  0  0  0  0  0  0  0  0  0  0  0
   -3.0734    1.7711  -18.7695 H   0  0  0  0  0  0  0  0  0  0  0  0
   -4.6069    0.6259  -17.2257 H   0  0  0  0  0  0  0  0  0  0  0  0
   -7.7322   -1.6624  -18.5877 H   0  0  0  0  0  0  0  0  0  0  0  0
   -8.0918   -2.1657  -20.8624 H   0  0  0  0  0  0  0  0  0  0  0  0
   -6.8412   -1.8485  -22.0681 H   0  0  0  0  0  0  0  0  0  0  0  0
   -7.9155    2.2847  -23.3079 C   0  0  0  0  0  0  0  0  0  0  0  0
   -7.0760    2.1221  -22.6319 H   0  0  0  0  0  0  0  0  0  0  0  0
  -10.3606    0.5596  -24.8765 H   0  0  0  0  0  0  0  0  0  0  0  0
  -10.8026    2.8708  -25.8297 H   0  0  0  0  0  0  0  0  0  0  0  0
   -9.4665    4.7617  -25.0616 H   0  0  0  0  0  0  0  0  0  0  0  0
   -6.4331    4.4675  -23.1826 H   0  0  0  0  0  0  0  0  0  0  0  0
   -5.9327    6.8023  -23.5723 H   0  0  0  0  0  0  0  0  0  0  0  0
   -7.2760    7.9245  -23.3041 H   0  0  0  0  0  0  0  0  0  0  0  0
   -7.3308    7.2950  -20.8735 H   0  0  0  0  0  0  0  0  0  0  0  0
   -5.7276    7.8931  -21.3060 H   0  0  0  0  0  0  0  0  0  0  0  0
   -5.9931    6.1547  -21.1123 H   0  0  0  0  0  0  0  0  0  0  0  0
  1  2  1  0
  2  3  1  0
  3  4  2  0
  3  5  1  0
  5  6  1  0
  6  7  2  0
  7  8  1  0
  8  9  2  0
  9 10  1  0
 10 11  1  0
 11 12  1  0
 12 13  1  0
 13 14  2  0
 14 15  1  0
 15 16  2  0
 16 17  1  0
 17 18  2  0
 18 19  1  0
 17 20  1  0
 16 21  1  0
 15 22  1  0
 14 23  1  0
 12 24  1  0
 12 25  1  0
 11 26  1  0
 26 27  2  0
 26 28  1  0
 28 29  1  0
 29 30  2  0
 30 31  1  0
 31 32  2  0
 32 33  1  0
 33 34  2  0
 34 35  1  0
 35 36  2  0
 36 37  1  0
 37 38  2  0
 37 39  1  0
 36 40  1  0
 35 41  1  0
 34 42  1  0
 32 43  1  0
 30 44  1  0
 28 45  1  0
 28 46  1  0
 10 47  2  0
 47 48  1  0
  9 49  1  0
  8 50  1  0
  7 51  1  0
  5 52  1  0
  2 53  1  0
  2 54  1  0
  1 55  1  0
  1 56  1  0
  1 57  1  0
 47  6  1  0
 18 13  1  0
 38 29  1  0
 38 33  1  0
M  END
>  <cnnaffinities>  (50) 
[5.35921, 5.50875, 6.02757, 6.02797, 6.01568, 6.01166, 5.36123, 5.35864]

>  <score>  (50) 
5.35921

>  <index>  (50) 
52

>  <Smiles>  (50) 
C(C(C(=O)N(c1c(c(c(c(N(C(c2c(c(c(c(c2[H])[H])[H])[H])[H])([H])[H])C(=O)C(c2c(nc(c3c(c(c(c(c23)[H])[H])[H])[H])[H])[H])([H])[H])c1[H])[H])[H])[H])[H])([H])[H])([H])([H])[H]

>  <h>  (50) 
<NA>

>  <Training>  (50) 
True

>  <Success>  (50) 
True

>  <enamine_searched>  (50) 
False

>  <enamine_id>  (50) 
nan

$$$$

     RDKit          3D

 59 63  0  0  0  0  0  0  0  0999 V2000
   -7.7151    4.3855  -22.3580 C   0  0  0  0  0  0  0  0  0  0  0  0
   -6.7568    3.4816  -23.1043 C   0  0  0  0  0  0  0  0  0  0  0  0
   -7.4970    2.7308  -24.0949 N   0  0  0  0  0  0  0  0  0  0  0  0
   -6.9167    1.7071  -24.7415 C   0  0  0  0  0  0  0  0  0  0  0  0
   -5.7088    1.4875  -24.7134 O   0  0  0  0  0  0  0  0  0  0  0  0
   -7.8773    0.8324  -25.5576 C   0  0  0  0  0  0  0  0  0  0  0  0
   -8.8695    0.1395  -24.7442 N   0  0  0  0  0  0  0  0  0  0  0  0
   -8.5200   -1.2012  -24.3152 C   0  0  0  0  0  0  0  0  0  0  0  0
   -8.9974   -1.4955  -22.8689 C   0  0  2  0  0  0  0  0  0  0  0  0
   -8.2250   -0.5892  -21.8883 C   0  0  0  0  0  0  0  0  0  0  0  0
   -8.3088    0.6200  -21.7682 O   0  0  0  0  0  0  0  0  0  0  0  0
   -7.3796   -1.3770  -21.1566 N   0  0  0  0  0  0  0  0  0  0  0  0
   -6.5667   -0.8269  -20.1492 C   0  0  0  0  0  0  0  0  0  0  0  0
   -6.8684   -1.0683  -18.8341 C   0  0  0  0  0  0  0  0  0  0  0  0
   -6.1752   -0.5600  -17.7934 N   0  0  0  0  0  0  0  0  0  0  0  0
   -5.1499    0.2075  -18.0721 C   0  0  0  0  0  0  0  0  0  0  0  0
   -4.7213    0.5165  -19.3931 C   0  0  0  0  0  0  0  0  0  0  0  0
   -3.5948    1.3449  -19.6328 C   0  0  0  0  0  0  0  0  0  0  0  0
   -3.2003    1.6319  -20.9109 C   0  0  0  0  0  0  0  0  0  0  0  0
   -3.9163    1.1043  -22.0085 C   0  0  0  0  0  0  0  0  0  0  0  0
   -5.0037    0.2908  -21.8033 C   0  0  0  0  0  0  0  0  0  0  0  0
   -5.4439   -0.0149  -20.4813 C   0  0  0  0  0  0  0  0  0  0  0  0
   -5.5424   -0.0991  -22.6614 H   0  0  0  0  0  0  0  0  0  0  0  0
   -3.6343    1.3671  -23.0247 H   0  0  0  0  0  0  0  0  0  0  0  0
   -2.3413    2.2732  -21.0857 H   0  0  0  0  0  0  0  0  0  0  0  0
   -3.0715    1.7549  -18.7756 H   0  0  0  0  0  0  0  0  0  0  0  0
   -4.5993    0.6251  -17.2300 H   0  0  0  0  0  0  0  0  0  0  0  0
   -7.7283   -1.6891  -18.5829 H   0  0  0  0  0  0  0  0  0  0  0  0
   -7.3951   -2.7780  -21.4987 C   0  0  0  0  0  0  0  0  0  0  0  0
   -8.6283   -2.9298  -22.4015 C   0  0  2  0  0  0  0  0  0  0  0  0
   -8.4328   -3.9818  -23.4908 C   0  0  0  0  0  0  0  0  0  0  0  0
   -8.2562   -4.9628  -23.0357 H   0  0  0  0  0  0  0  0  0  0  0  0
   -7.5672   -3.7440  -24.1211 H   0  0  0  0  0  0  0  0  0  0  0  0
   -9.3142   -4.0608  -24.1378 H   0  0  0  0  0  0  0  0  0  0  0  0
   -9.4440   -3.2816  -21.7704 H   0  0  0  0  0  0  0  0  0  0  0  0
   -6.4743   -3.0778  -22.0176 H   0  0  0  0  0  0  0  0  0  0  0  0
   -7.4742   -3.3846  -20.5952 H   0  0  0  0  0  0  0  0  0  0  0  0
  -10.4658   -1.1602  -22.7721 C   0  0  0  0  0  0  0  0  0  0  0  0
  -11.3331   -1.8554  -21.9237 C   0  0  0  0  0  0  0  0  0  0  0  0
  -12.6850   -1.5744  -21.9574 C   0  0  0  0  0  0  0  0  0  0  0  0
  -13.7459   -2.5589  -20.9783 Cl  0  0  0  0  0  0  0  0  0  0  0  0
  -13.1871   -0.4820  -22.6730 C   0  0  0  0  0  0  0  0  0  0  0  0
  -12.2870    0.3330  -23.3459 C   0  0  0  0  0  0  0  0  0  0  0  0
  -10.9404   -0.0351  -23.4487 C   0  0  0  0  0  0  0  0  0  0  0  0
   -9.9912    0.7705  -24.2993 C   0  0  0  0  0  0  0  0  0  0  0  0
  -10.2155    1.9548  -24.5637 O   0  0  0  0  0  0  0  0  0  0  0  0
  -12.6291    1.2526  -23.8097 H   0  0  0  0  0  0  0  0  0  0  0  0
  -14.2595   -0.2877  -22.6661 H   0  0  0  0  0  0  0  0  0  0  0  0
  -10.9492   -2.5543  -21.1892 H   0  0  0  0  0  0  0  0  0  0  0  0
   -7.4292   -1.2823  -24.3441 H   0  0  0  0  0  0  0  0  0  0  0  0
   -8.9529   -1.9310  -25.0102 H   0  0  0  0  0  0  0  0  0  0  0  0
   -7.2635    0.0766  -26.0524 H   0  0  0  0  0  0  0  0  0  0  0  0
   -8.3641    1.4279  -26.3380 H   0  0  0  0  0  0  0  0  0  0  0  0
   -8.5089    2.7900  -24.1209 H   0  0  0  0  0  0  0  0  0  0  0  0
   -6.2699    2.7768  -22.4137 H   0  0  0  0  0  0  0  0  0  0  0  0
   -5.9620    4.0362  -23.6117 H   0  0  0  0  0  0  0  0  0  0  0  0
   -8.4704    3.7598  -21.8774 H   0  0  0  0  0  0  0  0  0  0  0  0
   -8.2169    5.0892  -23.0315 H   0  0  0  0  0  0  0  0  0  0  0  0
   -7.2028    4.9596  -21.5833 H   0  0  0  0  0  0  0  0  0  0  0  0
  1  2  1  0
  2  3  1  0
  3  4  1  0
  4  5  2  0
  4  6  1  0
  6  7  1  0
  7  8  1  0
  9  8  1  6
  9 10  1  0
 10 11  2  0
 10 12  1  0
 12 13  1  0
 13 14  2  0
 14 15  1  0
 15 16  2  0
 16 17  1  0
 17 18  2  0
 18 19  1  0
 19 20  2  0
 20 21  1  0
 21 22  2  0
 21 23  1  0
 20 24  1  0
 19 25  1  0
 18 26  1  0
 16 27  1  0
 14 28  1  0
 12 29  1  0
 29 30  1  0
 30 31  1  0
 31 32  1  0
 31 33  1  0
 31 34  1  0
 30 35  1  1
 29 36  1  0
 29 37  1  0
  9 38  1  0
 38 39  2  0
 39 40  1  0
 40 41  1  0
 40 42  2  0
 42 43  1  0
 43 44  2  0
 44 45  1  0
 45 46  2  0
 43 47  1  0
 42 48  1  0
 39 49  1  0
  8 50  1  0
  8 51  1  0
  6 52  1  0
  6 53  1  0
  3 54  1  0
  2 55  1  0
  2 56  1  0
  1 57  1  0
  1 58  1  0
  1 59  1  0
 45  7  1  0
 30  9  1  0
 44 38  1  0
 22 13  1  0
 22 17  1  0
M  END
>  <cnnaffinities>  (51) 
[6.5573]

>  <score>  (51) 
6.5573

>  <index>  (51) 
53

>  <Smiles>  (51) 
C(C(N(C(=O)C(N1C([C@@]2(C(=O)N(c3c(nc(c4c(c(c(c(c34)[H])[H])[H])[H])[H])[H])C([C@@]2(C([H])([H])[H])[H])([H])[H])c2c(c(Cl)c(c(c2C1=O)[H])[H])[H])([H])[H])([H])[H])[H])([H])[H])([H])([H])[H]

>  <h>  (51) 
<NA>

>  <Training>  (51) 
True

>  <Success>  (51) 
True

>  <enamine_searched>  (51) 
False

>  <enamine_id>  (51) 
nan

$$$$

     RDKit          3D

 40 43  0  0  0  0  0  0  0  0999 V2000
   -9.5747   -1.3390  -24.0578 C   0  0  0  0  0  0  0  0  0  0  0  0
   -8.7817   -1.6251  -22.8767 N   0  0  0  0  0  0  0  0  0  0  0  0
   -8.4640   -2.8433  -22.3330 C   0  0  0  0  0  0  0  0  0  0  0  0
   -8.9106   -4.1509  -22.9023 C   0  0  0  0  0  0  0  0  0  0  0  0
   -8.0830   -4.5386  -24.1092 C   0  0  0  0  0  0  0  0  0  0  0  0
   -8.5957   -4.4428  -25.3997 C   0  0  0  0  0  0  0  0  0  0  0  0
   -7.8120   -4.7745  -26.5012 C   0  0  0  0  0  0  0  0  0  0  0  0
   -6.5010   -5.2002  -26.3161 C   0  0  0  0  0  0  0  0  0  0  0  0
   -5.9779   -5.2881  -25.0291 C   0  0  0  0  0  0  0  0  0  0  0  0
   -6.7633   -4.9519  -23.9323 C   0  0  0  0  0  0  0  0  0  0  0  0
   -6.3509   -5.0117  -22.9279 H   0  0  0  0  0  0  0  0  0  0  0  0
   -4.9527   -5.6173  -24.8828 H   0  0  0  0  0  0  0  0  0  0  0  0
   -5.8879   -5.4612  -27.1737 H   0  0  0  0  0  0  0  0  0  0  0  0
   -8.2279   -4.7035  -27.5019 H   0  0  0  0  0  0  0  0  0  0  0  0
   -9.6184   -4.1027  -25.5464 H   0  0  0  0  0  0  0  0  0  0  0  0
   -9.9753   -4.1073  -23.1629 H   0  0  0  0  0  0  0  0  0  0  0  0
   -8.8085   -4.8958  -22.1072 H   0  0  0  0  0  0  0  0  0  0  0  0
   -7.6559   -2.7303  -21.3206 N   0  0  0  0  0  0  0  0  0  0  0  0
   -7.4047   -1.3861  -21.2124 N   0  0  0  0  0  0  0  0  0  0  0  0
   -6.5811   -0.8349  -20.1840 C   0  0  0  0  0  0  0  0  0  0  0  0
   -6.8873   -1.0590  -18.8640 C   0  0  0  0  0  0  0  0  0  0  0  0
   -6.1924   -0.5418  -17.8220 N   0  0  0  0  0  0  0  0  0  0  0  0
   -5.1599    0.2243  -18.0745 C   0  0  0  0  0  0  0  0  0  0  0  0
   -4.7208    0.5314  -19.3908 C   0  0  0  0  0  0  0  0  0  0  0  0
   -3.5838    1.3529  -19.6264 C   0  0  0  0  0  0  0  0  0  0  0  0
   -3.1779    1.6146  -20.9058 C   0  0  0  0  0  0  0  0  0  0  0  0
   -3.8818    1.0615  -21.9979 C   0  0  0  0  0  0  0  0  0  0  0  0
   -4.9733    0.2572  -21.7942 C   0  0  0  0  0  0  0  0  0  0  0  0
   -5.4400   -0.0135  -20.4796 C   0  0  0  0  0  0  0  0  0  0  0  0
   -5.4988   -0.1755  -22.6373 H   0  0  0  0  0  0  0  0  0  0  0  0
   -3.5500    1.2659  -23.0103 H   0  0  0  0  0  0  0  0  0  0  0  0
   -2.3169    2.2479  -21.0949 H   0  0  0  0  0  0  0  0  0  0  0  0
   -3.0519    1.7762  -18.7776 H   0  0  0  0  0  0  0  0  0  0  0  0
   -4.6051    0.6250  -17.2214 H   0  0  0  0  0  0  0  0  0  0  0  0
   -7.7378   -1.6772  -18.5910 H   0  0  0  0  0  0  0  0  0  0  0  0
   -8.1144   -0.6457  -22.1481 C   0  0  0  0  0  0  0  0  0  0  0  0
   -8.1378    0.5570  -22.3069 O   0  0  0  0  0  0  0  0  0  0  0  0
   -9.0063   -1.4810  -24.9822 H   0  0  0  0  0  0  0  0  0  0  0  0
   -9.8976   -0.3004  -24.0243 H   0  0  0  0  0  0  0  0  0  0  0  0
  -10.4725   -1.9607  -24.1014 H   0  0  0  0  0  0  0  0  0  0  0  0
  1  2  1  0
  2  3  1  0
  3  4  1  0
  4  5  1  0
  5  6  2  0
  6  7  1  0
  7  8  2  0
  8  9  1  0
  9 10  2  0
 10 11  1  0
  9 12  1  0
  8 13  1  0
  7 14  1  0
  6 15  1  0
  4 16  1  0
  4 17  1  0
  3 18  2  0
 18 19  1  0
 19 20  1  0
 20 21  2  0
 21 22  1  0
 22 23  2  0
 23 24  1  0
 24 25  2  0
 25 26  1  0
 26 27  2  0
 27 28  1  0
 28 29  2  0
 28 30  1  0
 27 31  1  0
 26 32  1  0
 25 33  1  0
 23 34  1  0
 21 35  1  0
 19 36  1  0
 36 37  2  0
  1 38  1  0
  1 39  1  0
  1 40  1  0
 36  2  1  0
 10  5  1  0
 29 20  1  0
 29 24  1  0
M  END
>  <cnnaffinities>  (52) 
[5.481, 5.48202, 5.42464, 5.42458, 5.77871, 5.7798]

>  <score>  (52) 
5.481

>  <index>  (52) 
54

>  <Smiles>  (52) 
C(n1c(C(c2c(c(c(c(c2[H])[H])[H])[H])[H])([H])[H])nn(c2c(nc(c3c(c(c(c(c23)[H])[H])[H])[H])[H])[H])c1=O)([H])([H])[H]

>  <h>  (52) 
<NA>

>  <Training>  (52) 
True

>  <Success>  (52) 
True

>  <enamine_searched>  (52) 
False

>  <enamine_id>  (52) 
nan

$$$$

     RDKit          3D

 61 66  0  0  0  0  0  0  0  0999 V2000
  -12.3782   -2.1116  -22.6074 C   0  0  0  0  0  0  0  0  0  0  0  0
  -11.3539   -2.2470  -21.6539 O   0  0  0  0  0  0  0  0  0  0  0  0
  -10.2099   -2.9491  -22.0955 C   0  0  0  0  0  0  0  0  0  0  0  0
   -9.1438   -1.9778  -22.6555 C   0  0  1  0  0  0  0  0  0  0  0  0
   -8.7109   -0.9885  -21.5518 C   0  0  0  0  0  0  0  0  0  0  0  0
   -7.3798   -1.4187  -21.1885 N   0  0  0  0  0  0  0  0  0  0  0  0
   -6.5944   -0.8208  -20.1824 C   0  0  0  0  0  0  0  0  0  0  0  0
   -6.9128   -1.0362  -18.8689 C   0  0  0  0  0  0  0  0  0  0  0  0
   -6.2177   -0.5372  -17.8225 N   0  0  0  0  0  0  0  0  0  0  0  0
   -5.1758    0.2062  -18.1020 C   0  0  0  0  0  0  0  0  0  0  0  0
   -4.7390    0.5080  -19.4220 C   0  0  0  0  0  0  0  0  0  0  0  0
   -3.6122    1.3366  -19.6469 C   0  0  0  0  0  0  0  0  0  0  0  0
   -3.2312    1.6574  -20.9176 C   0  0  0  0  0  0  0  0  0  0  0  0
   -3.9608    1.1607  -22.0226 C   0  0  0  0  0  0  0  0  0  0  0  0
   -5.0485    0.3429  -21.8388 C   0  0  0  0  0  0  0  0  0  0  0  0
   -5.4644   -0.0102  -20.5171 C   0  0  0  0  0  0  0  0  0  0  0  0
   -5.5909   -0.0284  -22.7110 H   0  0  0  0  0  0  0  0  0  0  0  0
   -3.6560    1.4460  -23.0243 H   0  0  0  0  0  0  0  0  0  0  0  0
   -2.3872    2.3199  -21.0833 H   0  0  0  0  0  0  0  0  0  0  0  0
   -3.0896    1.7346  -18.7818 H   0  0  0  0  0  0  0  0  0  0  0  0
   -4.6208    0.6188  -17.2599 H   0  0  0  0  0  0  0  0  0  0  0  0
   -7.7690   -1.6658  -18.6318 H   0  0  0  0  0  0  0  0  0  0  0  0
   -6.8410   -2.3927  -21.9902 C   0  0  0  0  0  0  0  0  0  0  0  0
   -5.7804   -2.9394  -21.7723 O   0  0  0  0  0  0  0  0  0  0  0  0
   -7.8209   -2.6357  -23.1554 C   0  0  1  0  0  0  0  0  0  0  0  0
   -7.9257   -4.1461  -23.3684 C   0  0  0  0  0  0  0  0  0  0  0  0
   -6.6621   -4.6590  -23.8668 N   0  0  0  0  0  0  0  0  0  0  0  0
   -6.2435   -5.9839  -23.4234 C   0  0  0  0  0  0  0  0  0  0  0  0
   -7.0818   -7.0457  -24.0851 C   0  0  0  0  0  0  0  0  0  0  0  0
   -6.9644   -7.5433  -25.3370 C   0  0  0  0  0  0  0  0  0  0  0  0
   -8.1573   -8.1625  -25.6459 N   0  0  0  0  0  4  0  0  0  0  0  0
   -8.9731   -8.0741  -24.5907 C   0  0  0  0  0  0  0  0  0  0  0  0
   -8.3409   -7.4089  -23.6129 N   0  0  0  0  0  0  0  0  0  0  0  0
   -8.7255   -7.1481  -22.7097 H   0  0  0  0  0  0  0  0  0  0  0  0
   -9.9932   -8.4039  -24.5828 H   0  0  0  0  0  0  0  0  0  0  0  0
   -8.3230   -8.6714  -26.5076 H   0  0  0  0  0  0  0  0  0  0  0  0
   -6.1509   -7.4588  -26.0491 H   0  0  0  0  0  0  0  0  0  0  0  0
   -6.3218   -6.0040  -22.3241 H   0  0  0  0  0  0  0  0  0  0  0  0
   -5.1904   -6.0952  -23.6980 H   0  0  0  0  0  0  0  0  0  0  0  0
   -6.1615   -4.1827  -25.0495 C   0  0  0  0  0  0  0  0  0  0  0  0
   -5.4360   -4.8449  -25.7816 O   0  0  0  0  0  0  0  0  0  0  0  0
   -6.5461   -2.7715  -25.3571 C   0  0  0  0  0  0  0  0  0  0  0  0
   -6.0973   -2.2197  -26.5546 C   0  0  0  0  0  0  0  0  0  0  0  0
   -6.3133   -0.8912  -26.8513 C   0  0  0  0  0  0  0  0  0  0  0  0
   -6.9990   -0.1201  -25.9155 C   0  0  0  0  0  0  0  0  0  0  0  0
   -7.2418    1.5720  -26.2344 Cl  0  0  0  0  0  0  0  0  0  0  0  0
   -7.4891   -0.6615  -24.7380 C   0  0  0  0  0  0  0  0  0  0  0  0
   -7.2903   -2.0152  -24.4458 C   0  0  0  0  0  0  0  0  0  0  0  0
   -8.0299   -0.0106  -24.0591 H   0  0  0  0  0  0  0  0  0  0  0  0
   -5.9463   -0.4536  -27.7741 H   0  0  0  0  0  0  0  0  0  0  0  0
   -5.5628   -2.8673  -27.2360 H   0  0  0  0  0  0  0  0  0  0  0  0
   -8.1440   -4.6295  -22.4169 H   0  0  0  0  0  0  0  0  0  0  0  0
   -8.7463   -4.3570  -24.0720 H   0  0  0  0  0  0  0  0  0  0  0  0
   -9.3757   -1.0518  -20.6975 H   0  0  0  0  0  0  0  0  0  0  0  0
   -8.7238    0.0606  -21.8777 H   0  0  0  0  0  0  0  0  0  0  0  0
   -9.6295   -1.4500  -23.4834 H   0  0  0  0  0  0  0  0  0  0  0  0
   -9.8114   -3.4696  -21.2152 H   0  0  0  0  0  0  0  0  0  0  0  0
  -10.4859   -3.7157  -22.8392 H   0  0  0  0  0  0  0  0  0  0  0  0
  -12.8345   -3.0833  -22.8546 H   0  0  0  0  0  0  0  0  0  0  0  0
  -13.1439   -1.4672  -22.1659 H   0  0  0  0  0  0  0  0  0  0  0  0
  -12.0320   -1.6439  -23.5425 H   0  0  0  0  0  0  0  0  0  0  0  0
  1  2  1  0
  2  3  1  0
  3  4  1  0
  4  5  1  0
  5  6  1  0
  6  7  1  0
  7  8  2  0
  8  9  1  0
  9 10  2  0
 10 11  1  0
 11 12  2  0
 12 13  1  0
 13 14  2  0
 14 15  1  0
 15 16  2  0
 15 17  1  0
 14 18  1  0
 13 19  1  0
 12 20  1  0
 10 21  1  0
  8 22  1  0
  6 23  1  0
 23 24  2  0
 23 25  1  0
 25 26  1  6
 26 27  1  0
 27 28  1  0
 28 29  1  0
 29 30  2  0
 30 31  1  0
 31 32  2  0
 32 33  1  0
 33 34  1  0
 32 35  1  0
 31 36  1  0
 30 37  1  0
 28 38  1  0
 28 39  1  0
 27 40  1  0
 40 41  2  0
 40 42  1  0
 42 43  2  0
 43 44  1  0
 44 45  2  0
 45 46  1  0
 45 47  1  0
 47 48  2  0
 47 49  1  0
 44 50  1  0
 43 51  1  0
 26 52  1  0
 26 53  1  0
  5 54  1  0
  5 55  1  0
  4 56  1  6
  3 57  1  0
  3 58  1  0
  1 59  1  0
  1 60  1  0
  1 61  1  0
 25  4  1  0
 33 29  1  0
 48 42  1  0
 16  7  1  0
 48 25  1  0
 16 11  1  0
M  CHG  1  31   1
M  END
>  <cnnaffinities>  (53) 
[6.25636]

>  <score>  (53) 
6.25636

>  <index>  (53) 
55

>  <Smiles>  (53) 
C(OC([C@]1(C(N(c2c(nc(c3c(c(c(c(c23)[H])[H])[H])[H])[H])[H])C(=O)[C@]21C(N(C(c1c([n+](c(n1[H])[H])[H])[H])([H])[H])C(=O)c1c(c(c(Cl)c(c21)[H])[H])[H])([H])[H])([H])[H])[H])([H])[H])([H])([H])[H]

>  <h>  (53) 
<NA>

>  <Training>  (53) 
True

>  <Success>  (53) 
True

>  <enamine_searched>  (53) 
False

>  <enamine_id>  (53) 
nan

$$$$

     RDKit          3D

 57 62  0  0  0  0  0  0  0  0999 V2000
  -10.4591   -1.1462  -23.2270 C   0  0  0  0  0  0  0  0  0  0  0  0
   -9.0112   -1.5037  -22.9070 C   0  0  1  0  0  0  0  0  0  0  0  0
   -8.3635   -0.5388  -21.9054 C   0  0  0  0  0  0  0  0  0  0  0  0
   -7.3679   -1.3541  -21.2313 N   0  0  0  0  0  0  0  0  0  0  0  0
   -6.5676   -0.8485  -20.1838 C   0  0  0  0  0  0  0  0  0  0  0  0
   -6.8869   -1.0886  -18.8693 C   0  0  0  0  0  0  0  0  0  0  0  0
   -6.2073   -0.5637  -17.8199 N   0  0  0  0  0  0  0  0  0  0  0  0
   -5.1813    0.2042  -18.0839 C   0  0  0  0  0  0  0  0  0  0  0  0
   -4.7335    0.5085  -19.4021 C   0  0  0  0  0  0  0  0  0  0  0  0
   -3.6078    1.3362  -19.6414 C   0  0  0  0  0  0  0  0  0  0  0  0
   -3.2171    1.6174  -20.9193 C   0  0  0  0  0  0  0  0  0  0  0  0
   -3.9260    1.0867  -22.0207 C   0  0  0  0  0  0  0  0  0  0  0  0
   -5.0142    0.2713  -21.8174 C   0  0  0  0  0  0  0  0  0  0  0  0
   -5.4443   -0.0251  -20.4945 C   0  0  0  0  0  0  0  0  0  0  0  0
   -5.5498   -0.1512  -22.6617 H   0  0  0  0  0  0  0  0  0  0  0  0
   -3.6128    1.3313  -23.0314 H   0  0  0  0  0  0  0  0  0  0  0  0
   -2.3613    2.2628  -21.0986 H   0  0  0  0  0  0  0  0  0  0  0  0
   -3.0901    1.7551  -18.7840 H   0  0  0  0  0  0  0  0  0  0  0  0
   -4.6398    0.6336  -17.2393 H   0  0  0  0  0  0  0  0  0  0  0  0
   -7.7310   -1.7278  -18.6152 H   0  0  0  0  0  0  0  0  0  0  0  0
   -7.5894   -2.7047  -21.3590 C   0  0  0  0  0  0  0  0  0  0  0  0
   -6.9026   -3.5565  -20.8345 O   0  0  0  0  0  0  0  0  0  0  0  0
   -8.7956   -2.9195  -22.2777 C   0  0  1  0  0  0  0  0  0  0  0  0
   -9.9868   -3.3351  -21.3990 C   0  0  0  0  0  0  0  0  0  0  0  0
  -11.1119   -3.8268  -22.1600 N   0  0  0  0  0  0  0  0  0  0  0  0
  -12.4551   -3.8020  -21.5866 C   0  0  0  0  0  0  0  0  0  0  0  0
  -13.3372   -2.7487  -22.2047 C   0  0  0  0  0  0  0  0  0  0  0  0
  -13.6140   -1.6212  -21.5668 N   0  0  0  0  0  0  0  0  0  0  0  0
  -14.3795   -0.7728  -22.2634 C   0  0  0  0  0  0  0  0  0  0  0  0
  -14.8258   -1.0021  -23.5388 C   0  0  0  0  0  0  0  0  0  0  0  0
  -14.5239   -2.2353  -24.0808 C   0  0  0  0  0  0  0  0  0  0  0  0
  -13.8194   -3.1136  -23.3957 N   0  0  0  0  0  0  0  0  0  0  0  0
  -14.8436   -2.5337  -25.0764 H   0  0  0  0  0  0  0  0  0  0  0  0
  -15.3825   -0.2382  -24.0405 H   0  0  0  0  0  0  0  0  0  0  0  0
  -14.6802    0.1501  -21.8006 H   0  0  0  0  0  0  0  0  0  0  0  0
  -12.4633   -3.7500  -20.5000 H   0  0  0  0  0  0  0  0  0  0  0  0
  -12.8897   -4.7383  -21.9178 H   0  0  0  0  0  0  0  0  0  0  0  0
  -10.9065   -4.7009  -23.1851 C   0  0  0  0  0  0  0  0  0  0  0  0
  -11.8199   -5.3483  -23.6560 O   0  0  0  0  0  0  0  0  0  0  0  0
   -9.5334   -4.8213  -23.7400 C   0  0  0  0  0  0  0  0  0  0  0  0
   -9.3145   -5.7584  -24.7490 C   0  0  0  0  0  0  0  0  0  0  0  0
   -8.0747   -5.8707  -25.3446 C   0  0  0  0  0  0  0  0  0  0  0  0
   -7.0690   -5.0178  -24.9054 C   0  0  0  0  0  0  0  0  0  0  0  0
   -5.8700   -5.0881  -25.5023 F   0  0  0  0  0  0  0  0  0  0  0  0
   -7.2570   -4.0912  -23.9006 C   0  0  0  0  0  0  0  0  0  0  0  0
   -8.5156   -3.9830  -23.3039 C   0  0  0  0  0  0  0  0  0  0  0  0
   -6.4379   -3.4529  -23.5895 H   0  0  0  0  0  0  0  0  0  0  0  0
   -7.8650   -6.5755  -26.1438 H   0  0  0  0  0  0  0  0  0  0  0  0
  -10.1370   -6.3942  -25.0514 H   0  0  0  0  0  0  0  0  0  0  0  0
   -9.6630   -4.1058  -20.7075 H   0  0  0  0  0  0  0  0  0  0  0  0
  -10.3050   -2.4662  -20.8223 H   0  0  0  0  0  0  0  0  0  0  0  0
   -9.1061   -0.1636  -21.1866 H   0  0  0  0  0  0  0  0  0  0  0  0
   -7.9042    0.3247  -22.3949 H   0  0  0  0  0  0  0  0  0  0  0  0
   -8.4273   -1.4837  -23.8365 H   0  0  0  0  0  0  0  0  0  0  0  0
  -11.0498   -1.0746  -22.3072 H   0  0  0  0  0  0  0  0  0  0  0  0
  -10.5279   -0.1832  -23.7388 H   0  0  0  0  0  0  0  0  0  0  0  0
  -10.9195   -1.9166  -23.8550 H   0  0  0  0  0  0  0  0  0  0  0  0
  1  2  1  0
  2  3  1  0
  3  4  1  0
  4  5  1  0
  5  6  2  0
  6  7  1  0
  7  8  2  0
  8  9  1  0
  9 10  2  0
 10 11  1  0
 11 12  2  0
 12 13  1  0
 13 14  2  0
 13 15  1  0
 12 16  1  0
 11 17  1  0
 10 18  1  0
  8 19  1  0
  6 20  1  0
  4 21  1  0
 21 22  2  0
 21 23  1  0
 23 24  1  1
 24 25  1  0
 25 26  1  0
 26 27  1  0
 27 28  2  0
 28 29  1  0
 29 30  2  0
 30 31  1  0
 31 32  2  0
 31 33  1  0
 30 34  1  0
 29 35  1  0
 26 36  1  0
 26 37  1  0
 25 38  1  0
 38 39  2  0
 38 40  1  0
 40 41  2  0
 41 42  1  0
 42 43  2  0
 43 44  1  0
 43 45  1  0
 45 46  2  0
 45 47  1  0
 42 48  1  0
 41 49  1  0
 24 50  1  0
 24 51  1  0
  3 52  1  0
  3 53  1  0
  2 54  1  6
  1 55  1  0
  1 56  1  0
  1 57  1  0
 23  2  1  0
 32 27  1  0
 46 40  1  0
 14  5  1  0
 46 23  1  0
 14  9  1  0
M  END
>  <cnnaffinities>  (54) 
[6.62086, 6.62739]

>  <score>  (54) 
6.62086

>  <index>  (54) 
56

>  <Smiles>  (54) 
C([C@]1(C(N(c2c(nc(c3c(c(c(c(c23)[H])[H])[H])[H])[H])[H])C(=O)[C@]21C(N(C(c1nc(c(c(n1)[H])[H])[H])([H])[H])C(=O)c1c(c(c(F)c(c21)[H])[H])[H])([H])[H])([H])[H])[H])([H])([H])[H]

>  <h>  (54) 
<NA>

>  <Training>  (54) 
True

>  <Success>  (54) 
True

>  <enamine_searched>  (54) 
False

>  <enamine_id>  (54) 
nan

$$$$

     RDKit          3D

 59 63  0  0  0  0  0  0  0  0999 V2000
   -9.9021    1.7508  -28.0468 C   0  0  0  0  0  0  0  0  0  0  0  0
   -9.8124    1.7835  -26.6018 N   0  0  0  0  0  0  0  0  0  0  0  0
   -8.7032    1.2687  -26.0034 C   0  0  0  0  0  0  0  0  0  0  0  0
   -7.7824    0.7692  -26.6299 O   0  0  0  0  0  0  0  0  0  0  0  0
   -8.7346    1.3246  -24.4783 C   0  0  0  0  0  0  0  0  0  0  0  0
   -9.5029    0.2092  -23.9799 N   0  0  0  0  0  0  0  0  0  0  0  0
   -8.9420   -1.1222  -24.0801 C   0  0  0  0  0  0  0  0  0  0  0  0
   -9.2246   -1.9059  -22.7683 C   0  0  2  0  0  0  0  0  0  0  0  0
   -8.6935   -1.0578  -21.5729 C   0  0  0  0  0  0  0  0  0  0  0  0
   -9.2949   -0.1845  -20.9875 O   0  0  0  0  0  0  0  0  0  0  0  0
   -7.3958   -1.4443  -21.2999 N   0  0  0  0  0  0  0  0  0  0  0  0
   -6.6371   -0.8415  -20.2577 C   0  0  0  0  0  0  0  0  0  0  0  0
   -6.9756   -1.0448  -18.9415 C   0  0  0  0  0  0  0  0  0  0  0  0
   -6.2692   -0.5751  -17.8816 N   0  0  0  0  0  0  0  0  0  0  0  0
   -5.2097    0.1497  -18.1335 C   0  0  0  0  0  0  0  0  0  0  0  0
   -4.7593    0.4718  -19.4427 C   0  0  0  0  0  0  0  0  0  0  0  0
   -3.6313    1.3069  -19.6582 C   0  0  0  0  0  0  0  0  0  0  0  0
   -3.2446    1.6300  -20.9279 C   0  0  0  0  0  0  0  0  0  0  0  0
   -3.9637    1.1342  -22.0360 C   0  0  0  0  0  0  0  0  0  0  0  0
   -5.0562    0.3186  -21.8526 C   0  0  0  0  0  0  0  0  0  0  0  0
   -5.4852   -0.0338  -20.5465 C   0  0  0  0  0  0  0  0  0  0  0  0
   -5.6078   -0.0504  -22.7114 H   0  0  0  0  0  0  0  0  0  0  0  0
   -3.6592    1.4071  -23.0396 H   0  0  0  0  0  0  0  0  0  0  0  0
   -2.3952    2.2882  -21.0889 H   0  0  0  0  0  0  0  0  0  0  0  0
   -3.1090    1.6975  -18.7892 H   0  0  0  0  0  0  0  0  0  0  0  0
   -4.6500    0.5289  -17.2772 H   0  0  0  0  0  0  0  0  0  0  0  0
   -7.8605   -1.6262  -18.6949 H   0  0  0  0  0  0  0  0  0  0  0  0
   -6.9461   -2.5208  -22.1714 C   0  0  0  0  0  0  0  0  0  0  0  0
   -8.2776   -3.1618  -22.6781 C   0  0  0  0  0  0  0  0  0  0  0  0
   -8.0831   -3.9344  -23.9794 C   0  0  0  0  0  0  0  0  0  0  0  0
   -7.4455   -4.8092  -23.8110 H   0  0  0  0  0  0  0  0  0  0  0  0
   -9.0549   -4.2964  -24.3308 H   0  0  0  0  0  0  0  0  0  0  0  0
   -7.6365   -3.3257  -24.7692 H   0  0  0  0  0  0  0  0  0  0  0  0
   -8.7738   -4.1464  -21.6365 C   0  0  0  0  0  0  0  0  0  0  0  0
   -7.9608   -4.8082  -21.3363 H   0  0  0  0  0  0  0  0  0  0  0  0
   -9.5436   -4.7992  -22.0403 H   0  0  0  0  0  0  0  0  0  0  0  0
   -9.1879   -3.6107  -20.7838 H   0  0  0  0  0  0  0  0  0  0  0  0
   -6.3572   -2.1169  -23.0107 H   0  0  0  0  0  0  0  0  0  0  0  0
   -6.2986   -3.2146  -21.6233 H   0  0  0  0  0  0  0  0  0  0  0  0
  -10.7618   -1.9795  -22.6944 C   0  0  0  0  0  0  0  0  0  0  0  0
  -11.5709   -3.0896  -22.3964 C   0  0  0  0  0  0  0  0  0  0  0  0
  -12.9483   -2.9732  -22.3072 C   0  0  0  0  0  0  0  0  0  0  0  0
  -13.8980   -4.4060  -22.0254 Cl  0  0  0  0  0  0  0  0  0  0  0  0
  -13.5995   -1.7550  -22.4656 C   0  0  0  0  0  0  0  0  0  0  0  0
  -12.8357   -0.6517  -22.7813 C   0  0  0  0  0  0  0  0  0  0  0  0
  -11.4568   -0.7750  -22.9431 C   0  0  0  0  0  0  0  0  0  0  0  0
  -10.7552    0.4276  -23.4916 C   0  0  0  0  0  0  0  0  0  0  0  0
  -11.2911    1.5293  -23.5273 O   0  0  0  0  0  0  0  0  0  0  0  0
  -13.2886    0.3241  -22.9397 H   0  0  0  0  0  0  0  0  0  0  0  0
  -14.6759   -1.6859  -22.3865 H   0  0  0  0  0  0  0  0  0  0  0  0
  -11.1775   -4.0755  -22.2381 H   0  0  0  0  0  0  0  0  0  0  0  0
   -9.3899   -1.6748  -24.9195 H   0  0  0  0  0  0  0  0  0  0  0  0
   -7.8689   -1.0253  -24.2771 H   0  0  0  0  0  0  0  0  0  0  0  0
   -9.2166    2.2399  -24.1299 H   0  0  0  0  0  0  0  0  0  0  0  0
   -7.7219    1.2758  -24.0579 H   0  0  0  0  0  0  0  0  0  0  0  0
  -10.6500    1.8862  -26.0493 H   0  0  0  0  0  0  0  0  0  0  0  0
   -9.0442    2.2797  -28.4732 H   0  0  0  0  0  0  0  0  0  0  0  0
   -9.8849    0.7238  -28.4312 H   0  0  0  0  0  0  0  0  0  0  0  0
  -10.8254    2.2480  -28.3518 H   0  0  0  0  0  0  0  0  0  0  0  0
  1  2  1  0
  2  3  1  0
  3  4  2  0
  3  5  1  0
  5  6  1  0
  6  7  1  0
  8  7  1  6
  8  9  1  0
  9 10  2  0
  9 11  1  0
 11 12  1  0
 12 13  2  0
 13 14  1  0
 14 15  2  0
 15 16  1  0
 16 17  2  0
 17 18  1  0
 18 19  2  0
 19 20  1  0
 20 21  2  0
 20 22  1  0
 19 23  1  0
 18 24  1  0
 17 25  1  0
 15 26  1  0
 13 27  1  0
 11 28  1  0
 28 29  1  0
 29 30  1  0
 30 31  1  0
 30 32  1  0
 30 33  1  0
 29 34  1  0
 34 35  1  0
 34 36  1  0
 34 37  1  0
 28 38  1  0
 28 39  1  0
  8 40  1  0
 40 41  2  0
 41 42  1  0
 42 43  1  0
 42 44  2  0
 44 45  1  0
 45 46  2  0
 46 47  1  0
 47 48  2  0
 45 49  1  0
 44 50  1  0
 41 51  1  0
  7 52  1  0
  7 53  1  0
  5 54  1  0
  5 55  1  0
  2 56  1  0
  1 57  1  0
  1 58  1  0
  1 59  1  0
 47  6  1  0
 29  8  1  0
 46 40  1  0
 21 12  1  0
 21 16  1  0
M  END
>  <cnnaffinities>  (55) 
[6.31382, 6.20315]

>  <score>  (55) 
6.31382

>  <index>  (55) 
57

>  <Smiles>  (55) 
C(N(C(=O)C(N1C([C@@]2(C(=O)N(c3c(nc(c4c(c(c(c(c34)[H])[H])[H])[H])[H])[H])C(C2(C([H])([H])[H])C([H])([H])[H])([H])[H])c2c(c(Cl)c(c(c2C1=O)[H])[H])[H])([H])[H])([H])[H])[H])([H])([H])[H]

>  <h>  (55) 
<NA>

>  <Training>  (55) 
True

>  <Success>  (55) 
True

>  <enamine_searched>  (55) 
False

>  <enamine_id>  (55) 
nan

$$$$

     RDKit          3D

 42 45  0  0  0  0  0  0  0  0999 V2000
  -10.8163   -3.7609  -21.6345 C   0  0  0  0  0  0  0  0  0  0  0  0
   -9.9589   -3.2440  -22.6882 N   0  0  0  0  0  0  0  0  0  0  0  0
  -10.0442   -1.8679  -23.1572 C   0  0  0  0  0  0  0  0  0  0  0  0
   -8.6698   -1.2065  -23.4298 C   0  0  1  0  0  0  0  0  0  0  0  0
   -8.0992   -0.5452  -22.1556 C   0  0  0  0  0  0  0  0  0  0  0  0
   -8.2739    0.6359  -21.9194 O   0  0  0  0  0  0  0  0  0  0  0  0
   -7.3923   -1.3556  -21.3055 N   0  0  0  0  0  0  0  0  0  0  0  0
   -6.6021   -0.8294  -20.2521 C   0  0  0  0  0  0  0  0  0  0  0  0
   -6.9267   -1.0858  -18.9449 C   0  0  0  0  0  0  0  0  0  0  0  0
   -6.2527   -0.5886  -17.8799 N   0  0  0  0  0  0  0  0  0  0  0  0
   -5.2197    0.1784  -18.1201 C   0  0  0  0  0  0  0  0  0  0  0  0
   -4.7576    0.5030  -19.4227 C   0  0  0  0  0  0  0  0  0  0  0  0
   -3.6237    1.3344  -19.6225 C   0  0  0  0  0  0  0  0  0  0  0  0
   -3.1927    1.6238  -20.8877 C   0  0  0  0  0  0  0  0  0  0  0  0
   -3.8682    1.0814  -22.0052 C   0  0  0  0  0  0  0  0  0  0  0  0
   -4.9544    0.2582  -21.8375 C   0  0  0  0  0  0  0  0  0  0  0  0
   -5.4527   -0.0242  -20.5310 C   0  0  0  0  0  0  0  0  0  0  0  0
   -5.4426   -0.1899  -22.6987 H   0  0  0  0  0  0  0  0  0  0  0  0
   -3.5286    1.3299  -23.0070 H   0  0  0  0  0  0  0  0  0  0  0  0
   -2.3371    2.2777  -21.0408 H   0  0  0  0  0  0  0  0  0  0  0  0
   -3.1242    1.7426  -18.7485 H   0  0  0  0  0  0  0  0  0  0  0  0
   -4.6946    0.5866  -17.2572 H   0  0  0  0  0  0  0  0  0  0  0  0
   -7.7867   -1.7093  -18.7007 H   0  0  0  0  0  0  0  0  0  0  0  0
   -7.4927   -2.3574  -21.3772 H   0  0  0  0  0  0  0  0  0  0  0  0
   -7.7619   -2.1749  -24.1575 C   0  0  0  0  0  0  0  0  0  0  0  0
   -6.7860   -1.7172  -25.0537 C   0  0  0  0  0  0  0  0  0  0  0  0
   -5.9502   -2.6325  -25.6820 C   0  0  0  0  0  0  0  0  0  0  0  0
   -4.7425   -2.0603  -26.8025 Cl  0  0  0  0  0  0  0  0  0  0  0  0
   -6.0514   -4.0039  -25.4400 C   0  0  0  0  0  0  0  0  0  0  0  0
   -7.0318   -4.4566  -24.5727 C   0  0  0  0  0  0  0  0  0  0  0  0
   -7.8971   -3.5492  -23.9556 C   0  0  0  0  0  0  0  0  0  0  0  0
   -8.9529   -4.0915  -23.0471 C   0  0  0  0  0  0  0  0  0  0  0  0
   -8.9059   -5.2363  -22.6076 O   0  0  0  0  0  0  0  0  0  0  0  0
   -7.1462   -5.5176  -24.3607 H   0  0  0  0  0  0  0  0  0  0  0  0
   -5.3729   -4.6956  -25.9333 H   0  0  0  0  0  0  0  0  0  0  0  0
   -6.6800   -0.6548  -25.2738 H   0  0  0  0  0  0  0  0  0  0  0  0
   -8.8254   -0.3309  -24.0699 H   0  0  0  0  0  0  0  0  0  0  0  0
  -10.5708   -1.2741  -22.4003 H   0  0  0  0  0  0  0  0  0  0  0  0
  -10.6217   -1.8243  -24.0868 H   0  0  0  0  0  0  0  0  0  0  0  0
  -11.3498   -4.6618  -21.9646 H   0  0  0  0  0  0  0  0  0  0  0  0
  -10.1715   -4.0312  -20.7895 H   0  0  0  0  0  0  0  0  0  0  0  0
  -11.5343   -2.9944  -21.3330 H   0  0  0  0  0  0  0  0  0  0  0  0
  1  2  1  0
  2  3  1  0
  3  4  1  0
  4  5  1  0
  5  6  2  0
  5  7  1  0
  7  8  1  0
  8  9  2  0
  9 10  1  0
 10 11  2  0
 11 12  1  0
 12 13  2  0
 13 14  1  0
 14 15  2  0
 15 16  1  0
 16 17  2  0
 16 18  1  0
 15 19  1  0
 14 20  1  0
 13 21  1  0
 11 22  1  0
  9 23  1  0
  7 24  1  0
  4 25  1  0
 25 26  2  0
 26 27  1  0
 27 28  1  0
 27 29  2  0
 29 30  1  0
 30 31  2  0
 31 32  1  0
 32 33  2  0
 30 34  1  0
 29 35  1  0
 26 36  1  0
  4 37  1  6
  3 38  1  0
  3 39  1  0
  1 40  1  0
  1 41  1  0
  1 42  1  0
 32  2  1  0
 17  8  1  0
 31 25  1  0
 17 12  1  0
M  END
>  <cnnaffinities>  (56) 
[5.6973, 5.2164]

>  <score>  (56) 
5.6973

>  <index>  (56) 
58

>  <Smiles>  (56) 
C(N1C([C@@](C(=O)N(c2c(nc(c3c(c(c(c(c23)[H])[H])[H])[H])[H])[H])[H])(c2c(c(Cl)c(c(c2C1=O)[H])[H])[H])[H])([H])[H])([H])([H])[H]

>  <h>  (56) 
<NA>

>  <Training>  (56) 
True

>  <Success>  (56) 
True

>  <enamine_searched>  (56) 
False

>  <enamine_id>  (56) 
nan

$$$$

     RDKit          3D

 60 65  0  0  0  0  0  0  0  0999 V2000
   -7.0194    3.4660  -22.7155 C   0  0  0  0  0  0  0  0  0  0  0  0
   -7.6671    2.7655  -23.8019 N   0  0  0  0  0  0  0  0  0  0  0  0
   -7.0227    1.8464  -24.5445 C   0  0  0  0  0  0  0  0  0  0  0  0
   -5.8108    1.6865  -24.5270 O   0  0  0  0  0  0  0  0  0  0  0  0
   -7.9456    0.9950  -25.4388 C   0  0  0  0  0  0  0  0  0  0  0  0
   -8.8979    0.2100  -24.6676 N   0  0  0  0  0  0  0  0  0  0  0  0
   -8.4760   -1.1263  -24.2947 C   0  0  0  0  0  0  0  0  0  0  0  0
   -8.9478   -1.5292  -22.8703 C   0  0  2  0  0  0  0  0  0  0  0  0
   -8.2308   -0.6580  -21.8246 C   0  0  0  0  0  0  0  0  0  0  0  0
   -8.3992    0.5252  -21.6063 O   0  0  0  0  0  0  0  0  0  0  0  0
   -7.3249   -1.4386  -21.1566 N   0  0  0  0  0  0  0  0  0  0  0  0
   -6.5341   -0.8689  -20.1402 C   0  0  0  0  0  0  0  0  0  0  0  0
   -6.8540   -1.0859  -18.8275 C   0  0  0  0  0  0  0  0  0  0  0  0
   -6.1703   -0.5617  -17.7857 N   0  0  0  0  0  0  0  0  0  0  0  0
   -5.1449    0.2061  -18.0628 C   0  0  0  0  0  0  0  0  0  0  0  0
   -4.7130    0.5144  -19.3837 C   0  0  0  0  0  0  0  0  0  0  0  0
   -3.5904    1.3467  -19.6302 C   0  0  0  0  0  0  0  0  0  0  0  0
   -3.2040    1.6389  -20.9113 C   0  0  0  0  0  0  0  0  0  0  0  0
   -3.9354    1.1205  -22.0057 C   0  0  0  0  0  0  0  0  0  0  0  0
   -5.0194    0.3073  -21.7939 C   0  0  0  0  0  0  0  0  0  0  0  0
   -5.4368   -0.0229  -20.4712 C   0  0  0  0  0  0  0  0  0  0  0  0
   -5.5770   -0.0761  -22.6454 H   0  0  0  0  0  0  0  0  0  0  0  0
   -3.6612    1.3876  -23.0229 H   0  0  0  0  0  0  0  0  0  0  0  0
   -2.3443    2.2796  -21.0910 H   0  0  0  0  0  0  0  0  0  0  0  0
   -3.0597    1.7556  -18.7752 H   0  0  0  0  0  0  0  0  0  0  0  0
   -4.6040    0.6324  -17.2170 H   0  0  0  0  0  0  0  0  0  0  0  0
   -7.7170   -1.7033  -18.5792 H   0  0  0  0  0  0  0  0  0  0  0  0
   -7.2523   -2.8085  -21.5993 C   0  0  0  0  0  0  0  0  0  0  0  0
   -8.4983   -2.9639  -22.4836 C   0  0  2  0  0  0  0  0  0  0  0  0
   -8.2922   -3.9631  -23.6397 C   0  0  0  0  0  0  0  0  0  0  0  0
   -7.9837   -5.3202  -23.1019 C   0  0  0  0  0  0  0  0  0  0  0  0
   -6.7615   -5.7585  -22.8217 N   0  0  0  0  0  0  0  0  0  0  0  0
   -6.9456   -6.9637  -22.2900 N   0  0  0  0  0  0  0  0  0  0  0  0
   -8.2253   -7.2316  -22.2578 N   0  0  0  0  0  2  0  0  0  0  0  0
   -8.9033   -6.2085  -22.7663 N   0  0  0  0  0  0  0  0  0  0  0  0
   -7.4501   -3.6523  -24.2655 H   0  0  0  0  0  0  0  0  0  0  0  0
   -9.2016   -4.0306  -24.2471 H   0  0  0  0  0  0  0  0  0  0  0  0
   -9.2837   -3.3811  -21.8538 H   0  0  0  0  0  0  0  0  0  0  0  0
   -6.3375   -3.0040  -22.1723 H   0  0  0  0  0  0  0  0  0  0  0  0
   -7.2562   -3.5082  -20.7590 H   0  0  0  0  0  0  0  0  0  0  0  0
  -10.4377   -1.2671  -22.7780 C   0  0  0  0  0  0  0  0  0  0  0  0
  -11.2773   -2.0084  -21.9362 C   0  0  0  0  0  0  0  0  0  0  0  0
  -12.6413   -1.7859  -21.9459 C   0  0  0  0  0  0  0  0  0  0  0  0
  -13.6431   -2.7578  -20.8889 Cl  0  0  0  0  0  0  0  0  0  0  0  0
  -13.1871   -0.7359  -22.6891 C   0  0  0  0  0  0  0  0  0  0  0  0
  -12.3284    0.1127  -23.3685 C   0  0  0  0  0  0  0  0  0  0  0  0
  -10.9642   -0.1557  -23.4434 C   0  0  0  0  0  0  0  0  0  0  0  0
  -10.0643    0.7548  -24.2322 C   0  0  0  0  0  0  0  0  0  0  0  0
  -10.3499    1.9366  -24.4447 O   0  0  0  0  0  0  0  0  0  0  0  0
  -12.7119    1.0067  -23.8348 H   0  0  0  0  0  0  0  0  0  0  0  0
  -14.2593   -0.5750  -22.7032 H   0  0  0  0  0  0  0  0  0  0  0  0
  -10.8653   -2.6937  -21.2017 H   0  0  0  0  0  0  0  0  0  0  0  0
   -7.3802   -1.1511  -24.3405 H   0  0  0  0  0  0  0  0  0  0  0  0
   -8.8700   -1.8442  -25.0228 H   0  0  0  0  0  0  0  0  0  0  0  0
   -8.4776    1.6274  -26.1570 H   0  0  0  0  0  0  0  0  0  0  0  0
   -7.3031    0.3003  -25.9888 H   0  0  0  0  0  0  0  0  0  0  0  0
   -8.6731    2.7996  -23.8852 H   0  0  0  0  0  0  0  0  0  0  0  0
   -7.7751    4.0606  -22.1972 H   0  0  0  0  0  0  0  0  0  0  0  0
   -6.2404    4.1283  -23.0998 H   0  0  0  0  0  0  0  0  0  0  0  0
   -6.5689    2.7634  -22.0017 H   0  0  0  0  0  0  0  0  0  0  0  0
  1  2  1  0
  2  3  1  0
  3  4  2  0
  3  5  1  0
  5  6  1  0
  6  7  1  0
  8  7  1  6
  8  9  1  0
  9 10  2  0
  9 11  1  0
 11 12  1  0
 12 13  2  0
 13 14  1  0
 14 15  2  0
 15 16  1  0
 16 17  2  0
 17 18  1  0
 18 19  2  0
 19 20  1  0
 20 21  2  0
 20 22  1  0
 19 23  1  0
 18 24  1  0
 17 25  1  0
 15 26  1  0
 13 27  1  0
 11 28  1  0
 28 29  1  0
 29 30  1  0
 30 31  1  0
 31 32  1  0
 32 33  2  0
 33 34  1  0
 34 35  1  0
 30 36  1  0
 30 37  1  0
 29 38  1  1
 28 39  1  0
 28 40  1  0
  8 41  1  0
 41 42  2  0
 42 43  1  0
 43 44  1  0
 43 45  2  0
 45 46  1  0
 46 47  2  0
 47 48  1  0
 48 49  2  0
 46 50  1  0
 45 51  1  0
 42 52  1  0
  7 53  1  0
  7 54  1  0
  5 55  1  0
  5 56  1  0
  2 57  1  0
  1 58  1  0
  1 59  1  0
  1 60  1  0
 48  6  1  0
 29  8  1  0
 35 31  2  0
 47 41  1  0
 21 12  1  0
 21 16  1  0
M  CHG  1  34  -1
M  END
>  <cnnaffinities>  (57) 
[6.91968]

>  <score>  (57) 
6.91968

>  <index>  (57) 
59

>  <Smiles>  (57) 
C(N(C(=O)C(N1C([C@@]2(C(=O)N(c3c(nc(c4c(c(c(c(c34)[H])[H])[H])[H])[H])[H])C([C@@]2(C(c2nn[n-]n2)([H])[H])[H])([H])[H])c2c(c(Cl)c(c(c2C1=O)[H])[H])[H])([H])[H])([H])[H])[H])([H])([H])[H]

>  <h>  (57) 
<NA>

>  <Training>  (57) 
True

>  <Success>  (57) 
True

>  <enamine_searched>  (57) 
False

>  <enamine_id>  (57) 
nan

$$$$

     RDKit          3D

 62 67  0  0  0  0  0  0  0  0999 V2000
  -11.3119    4.3274  -25.2227 C   0  0  0  0  0  0  0  0  0  0  0  0
   -9.8216    4.1778  -25.5279 C   0  0  0  0  0  0  0  0  0  0  0  0
   -9.0682    3.5914  -24.4243 N   0  0  0  0  0  0  0  0  0  0  0  0
   -8.4895    4.4159  -23.5360 N   0  0  0  0  0  0  0  0  0  0  0  0
   -7.9032    3.6214  -22.6494 C   0  0  0  0  0  0  0  0  0  0  0  0
   -8.1111    2.2666  -22.9709 C   0  0  0  0  0  0  0  0  0  0  0  0
   -8.8915    2.2782  -24.1017 C   0  0  0  0  0  0  0  0  0  0  0  0
   -9.4002    1.1011  -24.8866 C   0  0  0  0  0  0  0  0  0  0  0  0
   -9.8537    0.0079  -24.0473 N   0  0  0  0  0  0  0  0  0  0  0  0
   -9.0454   -1.1956  -23.9711 C   0  0  0  0  0  0  0  0  0  0  0  0
   -9.2204   -1.9254  -22.6133 C   0  0  2  0  0  0  0  0  0  0  0  0
   -8.6627   -1.0316  -21.4677 C   0  0  0  0  0  0  0  0  0  0  0  0
   -9.2272   -0.1112  -20.9149 O   0  0  0  0  0  0  0  0  0  0  0  0
   -7.3732   -1.4354  -21.1930 N   0  0  0  0  0  0  0  0  0  0  0  0
   -6.5993   -0.8253  -20.1698 C   0  0  0  0  0  0  0  0  0  0  0  0
   -6.9052   -1.0482  -18.8501 C   0  0  0  0  0  0  0  0  0  0  0  0
   -6.1941   -0.5484  -17.8104 N   0  0  0  0  0  0  0  0  0  0  0  0
   -5.1614    0.2070  -18.0830 C   0  0  0  0  0  0  0  0  0  0  0  0
   -4.7274    0.5233  -19.3997 C   0  0  0  0  0  0  0  0  0  0  0  0
   -3.6030    1.3569  -19.6425 C   0  0  0  0  0  0  0  0  0  0  0  0
   -3.2255    1.6597  -20.9205 C   0  0  0  0  0  0  0  0  0  0  0  0
   -3.9571    1.1414  -22.0126 C   0  0  0  0  0  0  0  0  0  0  0  0
   -5.0485    0.3277  -21.8024 C   0  0  0  0  0  0  0  0  0  0  0  0
   -5.4641   -0.0065  -20.4870 C   0  0  0  0  0  0  0  0  0  0  0  0
   -5.6037   -0.0614  -22.6512 H   0  0  0  0  0  0  0  0  0  0  0  0
   -3.6624    1.3983  -23.0240 H   0  0  0  0  0  0  0  0  0  0  0  0
   -2.3783    2.3166  -21.1006 H   0  0  0  0  0  0  0  0  0  0  0  0
   -3.0751    1.7704  -18.7868 H   0  0  0  0  0  0  0  0  0  0  0  0
   -4.6140    0.6158  -17.2330 H   0  0  0  0  0  0  0  0  0  0  0  0
   -7.7535   -1.6718  -18.5805 H   0  0  0  0  0  0  0  0  0  0  0  0
   -6.9599   -2.6139  -21.9346 C   0  0  0  0  0  0  0  0  0  0  0  0
   -8.2854   -3.1632  -22.5093 C   0  0  2  0  0  0  0  0  0  0  0  0
   -8.0917   -3.9879  -23.7844 C   0  0  0  0  0  0  0  0  0  0  0  0
   -7.5538   -3.4109  -24.5483 H   0  0  0  0  0  0  0  0  0  0  0  0
   -7.5041   -4.8914  -23.5829 H   0  0  0  0  0  0  0  0  0  0  0  0
   -9.0494   -4.2983  -24.2197 H   0  0  0  0  0  0  0  0  0  0  0  0
   -8.7245   -3.7999  -21.7348 H   0  0  0  0  0  0  0  0  0  0  0  0
   -6.4596   -3.3269  -21.2685 H   0  0  0  0  0  0  0  0  0  0  0  0
   -6.2509   -2.3623  -22.7401 H   0  0  0  0  0  0  0  0  0  0  0  0
  -10.7080   -2.1734  -22.4252 C   0  0  0  0  0  0  0  0  0  0  0  0
  -11.2266   -3.2525  -21.6973 C   0  0  0  0  0  0  0  0  0  0  0  0
  -12.5856   -3.3001  -21.4482 C   0  0  0  0  0  0  0  0  0  0  0  0
  -13.0841   -4.2542  -20.6493 F   0  0  0  0  0  0  0  0  0  0  0  0
  -13.4841   -2.3648  -21.9419 C   0  0  0  0  0  0  0  0  0  0  0  0
  -12.9762   -1.2937  -22.6433 C   0  0  0  0  0  0  0  0  0  0  0  0
  -11.6028   -1.1807  -22.8556 C   0  0  0  0  0  0  0  0  0  0  0  0
  -11.0981    0.0800  -23.4873 C   0  0  0  0  0  0  0  0  0  0  0  0
  -11.7640    1.1065  -23.5002 O   0  0  0  0  0  0  0  0  0  0  0  0
  -13.6157   -0.4985  -23.0093 H   0  0  0  0  0  0  0  0  0  0  0  0
  -14.5381   -2.4867  -21.7221 H   0  0  0  0  0  0  0  0  0  0  0  0
  -10.5949   -4.0114  -21.2481 H   0  0  0  0  0  0  0  0  0  0  0  0
   -9.3087   -1.8949  -24.7824 H   0  0  0  0  0  0  0  0  0  0  0  0
   -7.9961   -0.8998  -24.0909 H   0  0  0  0  0  0  0  0  0  0  0  0
  -10.1917    1.4031  -25.5788 H   0  0  0  0  0  0  0  0  0  0  0  0
   -8.5848    0.6984  -25.4976 H   0  0  0  0  0  0  0  0  0  0  0  0
   -7.7809    1.3723  -22.4630 H   0  0  0  0  0  0  0  0  0  0  0  0
   -7.3644    4.0659  -21.8182 H   0  0  0  0  0  0  0  0  0  0  0  0
   -9.3556    5.1539  -25.7130 H   0  0  0  0  0  0  0  0  0  0  0  0
   -9.6560    3.5510  -26.4128 H   0  0  0  0  0  0  0  0  0  0  0  0
  -11.7670    3.3596  -24.9960 H   0  0  0  0  0  0  0  0  0  0  0  0
  -11.4707    4.9805  -24.3592 H   0  0  0  0  0  0  0  0  0  0  0  0
  -11.8199    4.7644  -26.0884 H   0  0  0  0  0  0  0  0  0  0  0  0
  1  2  1  0
  2  3  1  0
  3  4  1  0
  4  5  2  0
  5  6  1  0
  6  7  2  0
  7  8  1  0
  8  9  1  0
  9 10  1  0
 11 10  1  6
 11 12  1  0
 12 13  2  0
 12 14  1  0
 14 15  1  0
 15 16  2  0
 16 17  1  0
 17 18  2  0
 18 19  1  0
 19 20  2  0
 20 21  1  0
 21 22  2  0
 22 23  1  0
 23 24  2  0
 23 25  1  0
 22 26  1  0
 21 27  1  0
 20 28  1  0
 18 29  1  0
 16 30  1  0
 14 31  1  0
 31 32  1  0
 32 33  1  0
 33 34  1  0
 33 35  1  0
 33 36  1  0
 32 37  1  1
 31 38  1  0
 31 39  1  0
 11 40  1  0
 40 41  2  0
 41 42  1  0
 42 43  1  0
 42 44  2  0
 44 45  1  0
 45 46  2  0
 46 47  1  0
 47 48  2  0
 45 49  1  0
 44 50  1  0
 41 51  1  0
 10 52  1  0
 10 53  1  0
  8 54  1  0
  8 55  1  0
  6 56  1  0
  5 57  1  0
  2 58  1  0
  2 59  1  0
  1 60  1  0
  1 61  1  0
  1 62  1  0
  7  3  1  0
 47  9  1  0
 32 11  1  0
 46 40  1  0
 24 15  1  0
 24 19  1  0
M  END
>  <cnnaffinities>  (58) 
[6.93121]

>  <score>  (58) 
6.93121

>  <index>  (58) 
60

>  <Smiles>  (58) 
C(C(n1nc(c(c1C(N1C([C@@]2(C(=O)N(c3c(nc(c4c(c(c(c(c34)[H])[H])[H])[H])[H])[H])C([C@@]2(C([H])([H])[H])[H])([H])[H])c2c(c(F)c(c(c2C1=O)[H])[H])[H])([H])[H])([H])[H])[H])[H])([H])[H])([H])([H])[H]

>  <h>  (58) 
<NA>

>  <Training>  (58) 
True

>  <Success>  (58) 
True

>  <enamine_searched>  (58) 
False

>  <enamine_id>  (58) 
nan

$$$$

     RDKit          3D

 44 47  0  0  0  0  0  0  0  0999 V2000
   -9.1608    0.2454  -21.0779 O   0  0  0  0  0  0  0  0  0  0  0  0
   -8.3733   -0.3143  -21.8124 C   0  0  0  0  0  0  0  0  0  0  0  0
   -7.4431   -1.4120  -21.2714 C   0  0  0  0  0  0  0  0  0  0  0  0
   -6.5708   -0.8345  -20.1757 C   0  0  0  0  0  0  0  0  0  0  0  0
   -6.8759   -1.0408  -18.8562 C   0  0  0  0  0  0  0  0  0  0  0  0
   -6.1850   -0.5352  -17.8002 N   0  0  0  0  0  0  0  0  0  0  0  0
   -5.1524    0.2230  -18.0679 C   0  0  0  0  0  0  0  0  0  0  0  0
   -4.7185    0.5332  -19.3833 C   0  0  0  0  0  0  0  0  0  0  0  0
   -3.5957    1.3639  -19.6252 C   0  0  0  0  0  0  0  0  0  0  0  0
   -3.2093    1.6613  -20.9031 C   0  0  0  0  0  0  0  0  0  0  0  0
   -3.9337    1.1317  -21.9946 C   0  0  0  0  0  0  0  0  0  0  0  0
   -5.0195    0.3173  -21.7860 C   0  0  0  0  0  0  0  0  0  0  0  0
   -5.4481   -0.0034  -20.4719 C   0  0  0  0  0  0  0  0  0  0  0  0
   -5.5549   -0.0876  -22.6371 H   0  0  0  0  0  0  0  0  0  0  0  0
   -3.6202    1.3733  -23.0057 H   0  0  0  0  0  0  0  0  0  0  0  0
   -2.3591    2.3128  -21.0842 H   0  0  0  0  0  0  0  0  0  0  0  0
   -3.0641    1.7810  -18.7737 H   0  0  0  0  0  0  0  0  0  0  0  0
   -4.6015    0.6280  -17.2167 H   0  0  0  0  0  0  0  0  0  0  0  0
   -7.7282   -1.6595  -18.5804 H   0  0  0  0  0  0  0  0  0  0  0  0
   -8.0717   -2.2025  -20.8444 H   0  0  0  0  0  0  0  0  0  0  0  0
   -6.8318   -1.8524  -22.0685 H   0  0  0  0  0  0  0  0  0  0  0  0
   -8.1948    0.0598  -23.1448 N   0  0  0  0  0  0  0  0  0  0  0  0
   -8.3975    1.4597  -23.5016 C   0  0  0  0  0  0  0  0  0  0  0  0
   -7.3915    1.8630  -24.5792 C   0  0  0  0  0  0  0  0  0  0  0  0
   -7.4467    0.9346  -25.7881 C   0  0  0  0  0  0  0  0  0  0  0  0
   -6.4902    1.3372  -26.9354 C   0  0  0  0  0  0  0  0  0  0  0  0
   -7.6903    1.5935  -27.8745 C   0  0  0  0  0  0  0  0  0  0  0  0
   -8.6533    1.1930  -26.7344 C   0  0  0  0  0  0  0  0  0  0  0  0
   -9.2660    0.3095  -26.9350 H   0  0  0  0  0  0  0  0  0  0  0  0
   -9.3270    1.9861  -26.3981 H   0  0  0  0  0  0  0  0  0  0  0  0
   -7.7897    2.6270  -28.2175 H   0  0  0  0  0  0  0  0  0  0  0  0
   -7.7287    0.9463  -28.7551 H   0  0  0  0  0  0  0  0  0  0  0  0
   -5.8740    2.2145  -26.7209 H   0  0  0  0  0  0  0  0  0  0  0  0
   -5.8145    0.5393  -27.2556 H   0  0  0  0  0  0  0  0  0  0  0  0
   -7.2946   -0.5167  -25.3457 C   0  0  0  0  0  0  0  0  0  0  0  0
   -8.2947   -0.8799  -24.2564 C   0  0  0  0  0  0  0  0  0  0  0  0
   -9.3136   -0.8849  -24.6874 H   0  0  0  0  0  0  0  0  0  0  0  0
   -8.1187   -1.8877  -23.8821 H   0  0  0  0  0  0  0  0  0  0  0  0
   -6.2759   -0.6834  -24.9740 H   0  0  0  0  0  0  0  0  0  0  0  0
   -7.4228   -1.1789  -26.2083 H   0  0  0  0  0  0  0  0  0  0  0  0
   -6.3773    1.8573  -24.1552 H   0  0  0  0  0  0  0  0  0  0  0  0
   -7.5777    2.8922  -24.9008 H   0  0  0  0  0  0  0  0  0  0  0  0
   -8.2533    2.0565  -22.6001 H   0  0  0  0  0  0  0  0  0  0  0  0
   -9.4254    1.6582  -23.8456 H   0  0  0  0  0  0  0  0  0  0  0  0
  1  2  2  0
  2  3  1  0
  3  4  1  0
  4  5  2  0
  5  6  1  0
  6  7  2  0
  7  8  1  0
  8  9  2  0
  9 10  1  0
 10 11  2  0
 11 12  1  0
 12 13  2  0
 12 14  1  0
 11 15  1  0
 10 16  1  0
  9 17  1  0
  7 18  1  0
  5 19  1  0
  3 20  1  0
  3 21  1  0
  2 22  1  0
 22 23  1  0
 23 24  1  0
 24 25  1  0
 25 26  1  0
 26 27  1  0
 27 28  1  0
 28 29  1  0
 28 30  1  0
 27 31  1  0
 27 32  1  0
 26 33  1  0
 26 34  1  0
 25 35  1  0
 35 36  1  0
 36 37  1  0
 36 38  1  0
 35 39  1  0
 35 40  1  0
 24 41  1  0
 24 42  1  0
 23 43  1  0
 23 44  1  0
 13  4  1  0
 36 22  1  0
 13  8  1  0
 28 25  1  0
M  END
>  <cnnaffinities>  (59) 
[5.15833, 5.15829, 5.15831, 5.15825, 5.63938, 5.63937, 4.92033, 5.20679, 5.2053, 5.20542, 5.20405, 5.63492, 5.2905, 5.29055, 5.29048, 5.29054, 4.99717, 4.99733, 4.99744]

>  <score>  (59) 
5.15833

>  <index>  (59) 
61

>  <Smiles>  (59) 
O=C(C(c1c(nc(c2c(c(c(c(c12)[H])[H])[H])[H])[H])[H])([H])[H])N1C(C(C2(C(C(C2([H])[H])([H])[H])([H])[H])C(C1([H])[H])([H])[H])([H])[H])([H])[H]

>  <h>  (59) 
<NA>

>  <Training>  (59) 
True

>  <Success>  (59) 
True

>  <enamine_searched>  (59) 
False

>  <enamine_id>  (59) 
nan

$$$$

     RDKit          3D

 44 47  0  0  0  0  0  0  0  0999 V2000
   -5.5879   -2.9791  -21.6728 O   0  0  0  0  0  0  0  0  0  0  0  0
   -6.7904   -2.8011  -21.7689 C   0  0  0  0  0  0  0  0  0  0  0  0
   -7.4216   -1.4815  -21.2559 C   0  0  0  0  0  0  0  0  0  0  0  0
   -6.5809   -0.8251  -20.1807 C   0  0  0  0  0  0  0  0  0  0  0  0
   -6.8728   -1.0421  -18.8613 C   0  0  0  0  0  0  0  0  0  0  0  0
   -6.1824   -0.5412  -17.8045 N   0  0  0  0  0  0  0  0  0  0  0  0
   -5.1536    0.2226  -18.0696 C   0  0  0  0  0  0  0  0  0  0  0  0
   -4.7177    0.5308  -19.3830 C   0  0  0  0  0  0  0  0  0  0  0  0
   -3.5878    1.3535  -19.6222 C   0  0  0  0  0  0  0  0  0  0  0  0
   -3.1879    1.6323  -20.8994 C   0  0  0  0  0  0  0  0  0  0  0  0
   -3.9027    1.0933  -21.9913 C   0  0  0  0  0  0  0  0  0  0  0  0
   -4.9966    0.2892  -21.7864 C   0  0  0  0  0  0  0  0  0  0  0  0
   -5.4441   -0.0107  -20.4749 C   0  0  0  0  0  0  0  0  0  0  0  0
   -5.5198   -0.1394  -22.6355 H   0  0  0  0  0  0  0  0  0  0  0  0
   -3.5778    1.3187  -23.0037 H   0  0  0  0  0  0  0  0  0  0  0  0
   -2.3279    2.2744  -21.0820 H   0  0  0  0  0  0  0  0  0  0  0  0
   -3.0585    1.7741  -18.7693 H   0  0  0  0  0  0  0  0  0  0  0  0
   -4.6029    0.6282  -17.2171 H   0  0  0  0  0  0  0  0  0  0  0  0
   -7.7198   -1.6693  -18.5824 H   0  0  0  0  0  0  0  0  0  0  0  0
   -7.5649   -0.7928  -22.1004 H   0  0  0  0  0  0  0  0  0  0  0  0
   -8.4239   -1.6895  -20.8498 H   0  0  0  0  0  0  0  0  0  0  0  0
   -7.6225   -3.7671  -22.3089 N   0  0  0  0  0  0  0  0  0  0  0  0
   -7.2652   -5.1758  -22.1416 C   0  0  0  0  0  0  0  0  0  0  0  0
   -7.5319   -5.9912  -23.3976 C   0  0  0  0  0  0  0  0  0  0  0  0
   -8.9708   -5.8166  -23.8818 C   0  0  0  0  0  0  0  0  0  0  0  0
   -9.2339   -6.6955  -25.1071 C   0  0  0  0  0  0  0  0  0  0  0  0
   -8.4871   -6.4589  -26.3928 C   0  0  0  0  0  0  0  0  0  0  0  0
   -9.9728   -6.2348  -26.3353 C   0  0  0  0  0  0  0  0  0  0  0  0
  -10.6140   -6.9385  -26.8652 H   0  0  0  0  0  0  0  0  0  0  0  0
  -10.3333   -5.2100  -26.3806 H   0  0  0  0  0  0  0  0  0  0  0  0
   -7.8549   -5.5741  -26.4444 H   0  0  0  0  0  0  0  0  0  0  0  0
   -8.1120   -7.3071  -26.9653 H   0  0  0  0  0  0  0  0  0  0  0  0
   -9.3725   -7.7514  -24.8710 H   0  0  0  0  0  0  0  0  0  0  0  0
   -9.2638   -4.3313  -24.0722 C   0  0  0  0  0  0  0  0  0  0  0  0
   -8.9710   -3.5277  -22.8077 C   0  0  0  0  0  0  0  0  0  0  0  0
   -9.7218   -3.7774  -22.0412 H   0  0  0  0  0  0  0  0  0  0  0  0
   -9.0769   -2.4653  -23.0287 H   0  0  0  0  0  0  0  0  0  0  0  0
  -10.3134   -4.1855  -24.3438 H   0  0  0  0  0  0  0  0  0  0  0  0
   -8.6718   -3.9340  -24.9028 H   0  0  0  0  0  0  0  0  0  0  0  0
   -9.6181   -6.1641  -23.0741 H   0  0  0  0  0  0  0  0  0  0  0  0
   -6.8444   -5.6851  -24.1924 H   0  0  0  0  0  0  0  0  0  0  0  0
   -7.3275   -7.0503  -23.1990 H   0  0  0  0  0  0  0  0  0  0  0  0
   -7.8424   -5.6143  -21.3120 H   0  0  0  0  0  0  0  0  0  0  0  0
   -6.2123   -5.2244  -21.8641 H   0  0  0  0  0  0  0  0  0  0  0  0
  1  2  2  0
  2  3  1  0
  3  4  1  0
  4  5  2  0
  5  6  1  0
  6  7  2  0
  7  8  1  0
  8  9  2  0
  9 10  1  0
 10 11  2  0
 11 12  1  0
 12 13  2  0
 12 14  1  0
 11 15  1  0
 10 16  1  0
  9 17  1  0
  7 18  1  0
  5 19  1  0
  3 20  1  0
  3 21  1  0
  2 22  1  0
 22 23  1  0
 23 24  1  0
 24 25  1  0
 25 26  1  0
 26 27  1  0
 27 28  1  0
 28 29  1  0
 28 30  1  0
 27 31  1  0
 27 32  1  0
 26 33  1  0
 25 34  1  0
 34 35  1  0
 35 36  1  0
 35 37  1  0
 34 38  1  0
 34 39  1  0
 25 40  1  0
 24 41  1  0
 24 42  1  0
 23 43  1  0
 23 44  1  0
 13  4  1  0
 35 22  1  0
 13  8  1  0
 28 26  1  0
M  END
>  <cnnaffinities>  (60) 
[5.20766, 5.13948, 5.26889]

>  <score>  (60) 
5.20766

>  <index>  (60) 
62

>  <Smiles>  (60) 
O=C(C(c1c(nc(c2c(c(c(c(c12)[H])[H])[H])[H])[H])[H])([H])[H])N1C(C(C(C2(C(C2([H])[H])([H])[H])[H])(C(C1([H])[H])([H])[H])[H])([H])[H])([H])[H]

>  <h>  (60) 
<NA>

>  <Training>  (60) 
True

>  <Success>  (60) 
True

>  <enamine_searched>  (60) 
False

>  <enamine_id>  (60) 
nan

$$$$

     RDKit          3D

 57 61  0  0  0  0  0  0  0  0999 V2000
  -14.7412   -0.6834  -22.1881 C   0  0  0  0  0  0  0  0  0  0  0  0
  -13.8578   -1.7132  -21.6774 N   0  0  0  0  0  0  0  0  0  0  0  0
  -13.2559   -2.5950  -22.5338 C   0  0  0  0  0  0  0  0  0  0  0  0
  -13.4706   -2.5898  -23.7304 O   0  0  0  0  0  0  0  0  0  0  0  0
  -12.4208   -3.6812  -21.8419 C   0  0  0  0  0  0  0  0  0  0  0  0
  -11.0429   -3.7569  -22.3016 N   0  0  0  0  0  0  0  0  0  0  0  0
   -9.9462   -3.1782  -21.5377 C   0  0  0  0  0  0  0  0  0  0  0  0
   -8.7326   -2.7417  -22.4060 C   0  0  2  0  0  0  0  0  0  0  0  0
   -7.5681   -2.5633  -21.4186 C   0  0  0  0  0  0  0  0  0  0  0  0
   -6.9559   -3.4413  -20.8453 O   0  0  0  0  0  0  0  0  0  0  0  0
   -7.3465   -1.2188  -21.2284 N   0  0  0  0  0  0  0  0  0  0  0  0
   -6.5310   -0.7692  -20.1701 C   0  0  0  0  0  0  0  0  0  0  0  0
   -6.8168   -1.0898  -18.8699 C   0  0  0  0  0  0  0  0  0  0  0  0
   -6.1421   -0.5792  -17.8122 N   0  0  0  0  0  0  0  0  0  0  0  0
   -5.1402    0.2299  -18.0568 C   0  0  0  0  0  0  0  0  0  0  0  0
   -4.6951    0.5795  -19.3663 C   0  0  0  0  0  0  0  0  0  0  0  0
   -3.5692    1.4088  -19.6120 C   0  0  0  0  0  0  0  0  0  0  0  0
   -3.1909    1.7034  -20.8940 C   0  0  0  0  0  0  0  0  0  0  0  0
   -3.9049    1.1779  -21.9938 C   0  0  0  0  0  0  0  0  0  0  0  0
   -4.9892    0.3642  -21.7838 C   0  0  0  0  0  0  0  0  0  0  0  0
   -5.4125    0.0637  -20.4632 C   0  0  0  0  0  0  0  0  0  0  0  0
   -5.5260   -0.0741  -22.6184 H   0  0  0  0  0  0  0  0  0  0  0  0
   -3.5983    1.4201  -23.0072 H   0  0  0  0  0  0  0  0  0  0  0  0
   -2.3371    2.3493  -21.0791 H   0  0  0  0  0  0  0  0  0  0  0  0
   -3.0211    1.8106  -18.7661 H   0  0  0  0  0  0  0  0  0  0  0  0
   -4.6206    0.6390  -17.1903 H   0  0  0  0  0  0  0  0  0  0  0  0
   -7.6306   -1.7758  -18.6393 H   0  0  0  0  0  0  0  0  0  0  0  0
   -8.3446   -0.3777  -21.8716 C   0  0  0  0  0  0  0  0  0  0  0  0
   -8.8650   -1.2921  -22.9907 C   0  0  2  0  0  0  0  0  0  0  0  0
  -10.2280   -0.8915  -23.5456 C   0  0  0  0  0  0  0  0  0  0  0  0
  -11.2108   -0.7510  -22.5343 O   0  0  0  0  0  0  0  0  0  0  0  0
  -11.3595    0.1815  -22.3544 H   0  0  0  0  0  0  0  0  0  0  0  0
  -10.5788   -1.6723  -24.2282 H   0  0  0  0  0  0  0  0  0  0  0  0
  -10.1229    0.0468  -24.1054 H   0  0  0  0  0  0  0  0  0  0  0  0
   -8.1545   -1.2394  -23.8302 H   0  0  0  0  0  0  0  0  0  0  0  0
   -7.8890    0.5449  -22.2439 H   0  0  0  0  0  0  0  0  0  0  0  0
   -9.1410   -0.1032  -21.1572 H   0  0  0  0  0  0  0  0  0  0  0  0
   -8.4209   -3.8115  -23.4382 C   0  0  0  0  0  0  0  0  0  0  0  0
   -7.1341   -3.9585  -23.9911 C   0  0  0  0  0  0  0  0  0  0  0  0
   -6.8956   -4.9230  -24.9602 C   0  0  0  0  0  0  0  0  0  0  0  0
   -5.3093   -5.1012  -25.6587 Cl  0  0  0  0  0  0  0  0  0  0  0  0
   -7.9026   -5.7787  -25.4080 C   0  0  0  0  0  0  0  0  0  0  0  0
   -9.1623   -5.6462  -24.8590 C   0  0  0  0  0  0  0  0  0  0  0  0
   -9.4152   -4.6851  -23.8781 C   0  0  0  0  0  0  0  0  0  0  0  0
  -10.7932   -4.6478  -23.3070 C   0  0  0  0  0  0  0  0  0  0  0  0
  -11.6529   -5.3990  -23.7187 O   0  0  0  0  0  0  0  0  0  0  0  0
   -9.9887   -6.2800  -25.1676 H   0  0  0  0  0  0  0  0  0  0  0  0
   -7.6905   -6.5372  -26.1579 H   0  0  0  0  0  0  0  0  0  0  0  0
   -6.2980   -3.3565  -23.6467 H   0  0  0  0  0  0  0  0  0  0  0  0
   -9.5362   -3.8994  -20.8235 H   0  0  0  0  0  0  0  0  0  0  0  0
  -10.3320   -2.3036  -21.0142 H   0  0  0  0  0  0  0  0  0  0  0  0
  -12.9006   -4.6356  -22.1024 H   0  0  0  0  0  0  0  0  0  0  0  0
  -12.4778   -3.5592  -20.7574 H   0  0  0  0  0  0  0  0  0  0  0  0
  -13.3553   -1.5121  -20.8297 H   0  0  0  0  0  0  0  0  0  0  0  0
  -15.4470   -0.4027  -21.4050 H   0  0  0  0  0  0  0  0  0  0  0  0
  -14.2088    0.2077  -22.5443 H   0  0  0  0  0  0  0  0  0  0  0  0
  -15.3063   -1.1035  -23.0183 H   0  0  0  0  0  0  0  0  0  0  0  0
  1  2  1  0
  2  3  1  0
  3  4  2  0
  3  5  1  0
  5  6  1  0
  6  7  1  0
  8  7  1  1
  8  9  1  0
  9 10  2  0
  9 11  1  0
 11 12  1  0
 12 13  2  0
 13 14  1  0
 14 15  2  0
 15 16  1  0
 16 17  2  0
 17 18  1  0
 18 19  2  0
 19 20  1  0
 20 21  2  0
 20 22  1  0
 19 23  1  0
 18 24  1  0
 17 25  1  0
 15 26  1  0
 13 27  1  0
 11 28  1  0
 28 29  1  0
 29 30  1  0
 30 31  1  0
 31 32  1  0
 30 33  1  0
 30 34  1  0
 29 35  1  6
 28 36  1  0
 28 37  1  0
  8 38  1  0
 38 39  2  0
 39 40  1  0
 40 41  1  0
 40 42  2  0
 42 43  1  0
 43 44  2  0
 44 45  1  0
 45 46  2  0
 43 47  1  0
 42 48  1  0
 39 49  1  0
  7 50  1  0
  7 51  1  0
  5 52  1  0
  5 53  1  0
  2 54  1  0
  1 55  1  0
  1 56  1  0
  1 57  1  0
 45  6  1  0
 29  8  1  0
 44 38  1  0
 21 12  1  0
 21 16  1  0
M  END
>  <cnnaffinities>  (61) 
[6.19942]

>  <score>  (61) 
6.19942

>  <index>  (61) 
63

>  <Smiles>  (61) 
C(N(C(=O)C(N1C([C@@]2(C(=O)N(c3c(nc(c4c(c(c(c(c34)[H])[H])[H])[H])[H])[H])C([C@@]2(C(O[H])([H])[H])[H])([H])[H])c2c(c(Cl)c(c(c2C1=O)[H])[H])[H])([H])[H])([H])[H])[H])([H])([H])[H]

>  <h>  (61) 
<NA>

>  <Training>  (61) 
True

>  <Success>  (61) 
True

>  <enamine_searched>  (61) 
False

>  <enamine_id>  (61) 
nan

$$$$

     RDKit          3D

 55 60  0  0  0  0  0  0  0  0999 V2000
  -10.3624   -0.9817  -23.3768 C   0  0  0  0  0  0  0  0  0  0  0  0
   -8.9420   -1.3511  -22.9597 C   0  0  1  0  0  0  0  0  0  0  0  0
   -8.3507   -0.4217  -21.8882 C   0  0  0  0  0  0  0  0  0  0  0  0
   -7.3541   -1.2619  -21.2434 N   0  0  0  0  0  0  0  0  0  0  0  0
   -6.5429   -0.8037  -20.1856 C   0  0  0  0  0  0  0  0  0  0  0  0
   -6.8440   -1.1060  -18.8832 C   0  0  0  0  0  0  0  0  0  0  0  0
   -6.1721   -0.5909  -17.8252 N   0  0  0  0  0  0  0  0  0  0  0  0
   -5.1651    0.2117  -18.0672 C   0  0  0  0  0  0  0  0  0  0  0  0
   -4.7128    0.5570  -19.3769 C   0  0  0  0  0  0  0  0  0  0  0  0
   -3.5850    1.3860  -19.6278 C   0  0  0  0  0  0  0  0  0  0  0  0
   -3.2101    1.6716  -20.9135 C   0  0  0  0  0  0  0  0  0  0  0  0
   -3.9224    1.1397  -22.0122 C   0  0  0  0  0  0  0  0  0  0  0  0
   -5.0028    0.3200  -21.7955 C   0  0  0  0  0  0  0  0  0  0  0  0
   -5.4243    0.0308  -20.4732 C   0  0  0  0  0  0  0  0  0  0  0  0
   -5.5438   -0.1316  -22.6198 H   0  0  0  0  0  0  0  0  0  0  0  0
   -3.6162    1.3732  -23.0277 H   0  0  0  0  0  0  0  0  0  0  0  0
   -2.3543    2.3154  -21.1020 H   0  0  0  0  0  0  0  0  0  0  0  0
   -3.0349    1.7870  -18.7807 H   0  0  0  0  0  0  0  0  0  0  0  0
   -4.6468    0.6246  -17.2005 H   0  0  0  0  0  0  0  0  0  0  0  0
   -7.6655   -1.7819  -18.6506 H   0  0  0  0  0  0  0  0  0  0  0  0
   -7.5821   -2.6062  -21.4139 C   0  0  0  0  0  0  0  0  0  0  0  0
   -6.9276   -3.4784  -20.8733 O   0  0  0  0  0  0  0  0  0  0  0  0
   -8.7729   -2.7868  -22.3575 C   0  0  1  0  0  0  0  0  0  0  0  0
   -9.9886   -3.1609  -21.4686 C   0  0  0  0  0  0  0  0  0  0  0  0
  -11.1188   -3.6986  -22.2155 N   0  0  0  0  0  0  0  0  0  0  0  0
  -12.4980   -3.6198  -21.7268 C   0  0  0  0  0  0  0  0  0  0  0  0
  -13.3382   -2.5534  -22.3694 C   0  0  0  0  0  0  0  0  0  0  0  0
  -13.9239   -2.6925  -23.5947 N   0  0  0  0  0  0  0  0  0  0  0  0
  -14.6467   -1.6001  -23.6932 C   0  0  0  0  0  0  0  0  0  0  0  0
  -14.4973   -0.8341  -22.6006 N   0  0  0  0  0  0  0  0  0  0  0  0
  -13.6591   -1.4429  -21.7354 N   0  0  0  0  0  0  0  0  0  0  0  0
  -14.9571    0.0257  -22.3192 H   0  0  0  0  0  0  0  0  0  0  0  0
  -15.2769   -1.3280  -24.5243 H   0  0  0  0  0  0  0  0  0  0  0  0
  -12.5430   -3.4517  -20.6499 H   0  0  0  0  0  0  0  0  0  0  0  0
  -12.9800   -4.5739  -21.9628 H   0  0  0  0  0  0  0  0  0  0  0  0
  -10.9087   -4.6098  -23.2133 C   0  0  0  0  0  0  0  0  0  0  0  0
  -11.8190   -5.3000  -23.6305 O   0  0  0  0  0  0  0  0  0  0  0  0
   -9.5312   -4.7143  -23.7764 C   0  0  0  0  0  0  0  0  0  0  0  0
   -9.3233   -5.6893  -24.7450 C   0  0  0  0  0  0  0  0  0  0  0  0
   -8.0877   -5.8646  -25.3298 C   0  0  0  0  0  0  0  0  0  0  0  0
   -7.0507   -5.0375  -24.9165 C   0  0  0  0  0  0  0  0  0  0  0  0
   -5.8442   -5.1989  -25.4852 F   0  0  0  0  0  0  0  0  0  0  0  0
   -7.2242   -4.0592  -23.9529 C   0  0  0  0  0  0  0  0  0  0  0  0
   -8.4954   -3.8736  -23.3742 C   0  0  0  0  0  0  0  0  0  0  0  0
   -6.3544   -3.4836  -23.6487 H   0  0  0  0  0  0  0  0  0  0  0  0
   -7.9216   -6.6279  -26.0805 H   0  0  0  0  0  0  0  0  0  0  0  0
  -10.1683   -6.3087  -25.0125 H   0  0  0  0  0  0  0  0  0  0  0  0
   -9.6430   -3.8904  -20.7373 H   0  0  0  0  0  0  0  0  0  0  0  0
  -10.3015   -2.2769  -20.8986 H   0  0  0  0  0  0  0  0  0  0  0  0
   -7.9000    0.4886  -22.2965 H   0  0  0  0  0  0  0  0  0  0  0  0
   -9.1134   -0.1037  -21.1607 H   0  0  0  0  0  0  0  0  0  0  0  0
   -8.2797   -1.3174  -23.8338 H   0  0  0  0  0  0  0  0  0  0  0  0
  -11.0349   -0.9280  -22.5135 H   0  0  0  0  0  0  0  0  0  0  0  0
  -10.3910   -0.0063  -23.8698 H   0  0  0  0  0  0  0  0  0  0  0  0
  -10.7655   -1.7379  -24.0588 H   0  0  0  0  0  0  0  0  0  0  0  0
  1  2  1  0
  2  3  1  0
  3  4  1  0
  4  5  1  0
  5  6  2  0
  6  7  1  0
  7  8  2  0
  8  9  1  0
  9 10  2  0
 10 11  1  0
 11 12  2  0
 12 13  1  0
 13 14  2  0
 13 15  1  0
 12 16  1  0
 11 17  1  0
 10 18  1  0
  8 19  1  0
  6 20  1  0
  4 21  1  0
 21 22  2  0
 21 23  1  0
 23 24  1  1
 24 25  1  0
 25 26  1  0
 26 27  1  0
 27 28  1  0
 28 29  2  0
 29 30  1  0
 30 31  1  0
 30 32  1  0
 29 33  1  0
 26 34  1  0
 26 35  1  0
 25 36  1  0
 36 37  2  0
 36 38  1  0
 38 39  2  0
 39 40  1  0
 40 41  2  0
 41 42  1  0
 41 43  1  0
 43 44  2  0
 43 45  1  0
 40 46  1  0
 39 47  1  0
 24 48  1  0
 24 49  1  0
  3 50  1  0
  3 51  1  0
  2 52  1  6
  1 53  1  0
  1 54  1  0
  1 55  1  0
 23  2  1  0
 31 27  2  0
 44 38  1  0
 14  5  1  0
 44 23  1  0
 14  9  1  0
M  END
>  <cnnaffinities>  (62) 
[6.66572]

>  <score>  (62) 
6.66572

>  <index>  (62) 
64

>  <Smiles>  (62) 
C([C@]1(C(N(c2c(nc(c3c(c(c(c(c23)[H])[H])[H])[H])[H])[H])C(=O)[C@]21C(N(C(c1nc(n(n1)[H])[H])([H])[H])C(=O)c1c(c(c(F)c(c21)[H])[H])[H])([H])[H])([H])[H])[H])([H])([H])[H]

>  <h>  (62) 
<NA>

>  <Training>  (62) 
True

>  <Success>  (62) 
True

>  <enamine_searched>  (62) 
False

>  <enamine_id>  (62) 
nan

$$$$

     RDKit          3D

 55 60  0  0  0  0  0  0  0  0999 V2000
  -10.2369   -2.9727  -22.0716 C   0  0  0  0  0  0  0  0  0  0  0  0
   -9.1664   -2.0172  -22.6273 C   0  0  1  0  0  0  0  0  0  0  0  0
   -8.6945   -1.0410  -21.5291 C   0  0  0  0  0  0  0  0  0  0  0  0
   -7.3462   -1.4504  -21.2064 N   0  0  0  0  0  0  0  0  0  0  0  0
   -6.5684   -0.8533  -20.1882 C   0  0  0  0  0  0  0  0  0  0  0  0
   -6.9018   -1.0541  -18.8725 C   0  0  0  0  0  0  0  0  0  0  0  0
   -6.2146   -0.5428  -17.8252 N   0  0  0  0  0  0  0  0  0  0  0  0
   -5.1742    0.2063  -18.0956 C   0  0  0  0  0  0  0  0  0  0  0  0
   -4.7302    0.5096  -19.4140 C   0  0  0  0  0  0  0  0  0  0  0  0
   -3.6079    1.3481  -19.6424 C   0  0  0  0  0  0  0  0  0  0  0  0
   -3.2266    1.6639  -20.9166 C   0  0  0  0  0  0  0  0  0  0  0  0
   -3.9545    1.1602  -22.0200 C   0  0  0  0  0  0  0  0  0  0  0  0
   -5.0387    0.3398  -21.8288 C   0  0  0  0  0  0  0  0  0  0  0  0
   -5.4473   -0.0200  -20.5081 C   0  0  0  0  0  0  0  0  0  0  0  0
   -5.5927   -0.0361  -22.6896 H   0  0  0  0  0  0  0  0  0  0  0  0
   -3.6518    1.4310  -23.0276 H   0  0  0  0  0  0  0  0  0  0  0  0
   -2.3730    2.3148  -21.0863 H   0  0  0  0  0  0  0  0  0  0  0  0
   -3.0839    1.7502  -18.7795 H   0  0  0  0  0  0  0  0  0  0  0  0
   -4.6246    0.6162  -17.2485 H   0  0  0  0  0  0  0  0  0  0  0  0
   -7.7588   -1.6797  -18.6219 H   0  0  0  0  0  0  0  0  0  0  0  0
   -6.8243   -2.3976  -22.0496 C   0  0  0  0  0  0  0  0  0  0  0  0
   -5.7247   -2.9004  -21.9206 O   0  0  0  0  0  0  0  0  0  0  0  0
   -7.8618   -2.6813  -23.1565 C   0  0  1  0  0  0  0  0  0  0  0  0
   -7.9672   -4.1941  -23.3495 C   0  0  0  0  0  0  0  0  0  0  0  0
   -6.7081   -4.6774  -23.8827 N   0  0  0  0  0  0  0  0  0  0  0  0
   -6.2307   -5.9587  -23.4046 C   0  0  0  0  0  0  0  0  0  0  0  0
   -7.0583   -7.0655  -23.9868 C   0  0  0  0  0  0  0  0  0  0  0  0
   -7.0195   -7.5624  -25.2439 C   0  0  0  0  0  0  0  0  0  0  0  0
   -8.1868   -8.2312  -25.4581 O   0  0  0  0  0  0  0  0  0  0  0  0
   -8.8502   -8.1478  -24.2860 C   0  0  0  0  0  0  0  0  0  0  0  0
   -8.2322   -7.4889  -23.3568 N   0  0  0  0  0  0  0  0  0  0  0  0
   -9.7982   -8.6747  -24.2484 H   0  0  0  0  0  0  0  0  0  0  0  0
   -6.2694   -7.6170  -26.0283 H   0  0  0  0  0  0  0  0  0  0  0  0
   -5.1778   -6.0308  -23.6871 H   0  0  0  0  0  0  0  0  0  0  0  0
   -6.2962   -5.9375  -22.3101 H   0  0  0  0  0  0  0  0  0  0  0  0
   -6.2515   -4.2332  -25.0926 C   0  0  0  0  0  0  0  0  0  0  0  0
   -5.5458   -4.9104  -25.8337 O   0  0  0  0  0  0  0  0  0  0  0  0
   -6.6381   -2.8312  -25.3981 C   0  0  0  0  0  0  0  0  0  0  0  0
   -6.1762   -2.2817  -26.5910 C   0  0  0  0  0  0  0  0  0  0  0  0
   -6.3972   -0.9456  -26.8586 C   0  0  0  0  0  0  0  0  0  0  0  0
   -7.0774   -0.1825  -25.9150 C   0  0  0  0  0  0  0  0  0  0  0  0
   -7.2696    1.1269  -26.1638 F   0  0  0  0  0  0  0  0  0  0  0  0
   -7.5599   -0.7157  -24.7358 C   0  0  0  0  0  0  0  0  0  0  0  0
   -7.3684   -2.0767  -24.4707 C   0  0  0  0  0  0  0  0  0  0  0  0
   -8.0768   -0.0562  -24.0455 H   0  0  0  0  0  0  0  0  0  0  0  0
   -6.0371   -0.4715  -27.7606 H   0  0  0  0  0  0  0  0  0  0  0  0
   -5.6246   -2.9376  -27.2605 H   0  0  0  0  0  0  0  0  0  0  0  0
   -8.7956   -4.4251  -24.0386 H   0  0  0  0  0  0  0  0  0  0  0  0
   -8.1488   -4.6973  -22.3950 H   0  0  0  0  0  0  0  0  0  0  0  0
   -9.3363   -1.1243  -20.6572 H   0  0  0  0  0  0  0  0  0  0  0  0
   -8.7088    0.0066  -21.8550 H   0  0  0  0  0  0  0  0  0  0  0  0
   -9.6408   -1.4759  -23.4545 H   0  0  0  0  0  0  0  0  0  0  0  0
  -11.0898   -2.3977  -21.6923 H   0  0  0  0  0  0  0  0  0  0  0  0
   -9.8492   -3.5778  -21.2434 H   0  0  0  0  0  0  0  0  0  0  0  0
  -10.6179   -3.6483  -22.8438 H   0  0  0  0  0  0  0  0  0  0  0  0
  1  2  1  0
  2  3  1  0
  3  4  1  0
  4  5  1  0
  5  6  2  0
  6  7  1  0
  7  8  2  0
  8  9  1  0
  9 10  2  0
 10 11  1  0
 11 12  2  0
 12 13  1  0
 13 14  2  0
 13 15  1  0
 12 16  1  0
 11 17  1  0
 10 18  1  0
  8 19  1  0
  6 20  1  0
  4 21  1  0
 21 22  2  0
 21 23  1  0
 23 24  1  6
 24 25  1  0
 25 26  1  0
 26 27  1  0
 27 28  2  0
 28 29  1  0
 29 30  1  0
 30 31  2  0
 30 32  1  0
 28 33  1  0
 26 34  1  0
 26 35  1  0
 25 36  1  0
 36 37  2  0
 36 38  1  0
 38 39  2  0
 39 40  1  0
 40 41  2  0
 41 42  1  0
 41 43  1  0
 43 44  2  0
 43 45  1  0
 40 46  1  0
 39 47  1  0
 24 48  1  0
 24 49  1  0
  3 50  1  0
  3 51  1  0
  2 52  1  6
  1 53  1  0
  1 54  1  0
  1 55  1  0
 23  2  1  0
 31 27  1  0
 44 38  1  0
 14  5  1  0
 44 23  1  0
 14  9  1  0
M  END
>  <cnnaffinities>  (63) 
[5.92199, 6.60545]

>  <score>  (63) 
5.92199

>  <index>  (63) 
65

>  <Smiles>  (63) 
C([C@]1(C(N(c2c(nc(c3c(c(c(c(c23)[H])[H])[H])[H])[H])[H])C(=O)[C@]21C(N(C(c1c(oc(n1)[H])[H])([H])[H])C(=O)c1c(c(c(F)c(c21)[H])[H])[H])([H])[H])([H])[H])[H])([H])([H])[H]

>  <h>  (63) 
<NA>

>  <Training>  (63) 
True

>  <Success>  (63) 
True

>  <enamine_searched>  (63) 
False

>  <enamine_id>  (63) 
nan

$$$$

     RDKit          3D

 44 47  0  0  0  0  0  0  0  0999 V2000
   -6.4169   -0.9302  -25.8392 C   0  0  0  0  0  0  0  0  0  0  0  0
   -7.5935   -0.9850  -24.8796 C   0  0  0  0  0  0  0  0  0  0  0  0
   -7.7863   -2.3415  -24.1737 C   0  0  1  0  0  0  0  0  0  0  0  0
   -8.1564   -3.4343  -25.1575 C   0  0  0  0  0  0  0  0  0  0  0  0
   -9.3196   -3.4171  -25.9958 C   0  0  0  0  0  0  0  0  0  0  0  0
   -9.4353   -4.5442  -26.7537 C   0  0  0  0  0  0  0  0  0  0  0  0
   -8.1386   -5.6469  -26.4695 S   0  0  0  0  0  0  0  0  0  0  0  0
   -7.4407   -4.5848  -25.2929 C   0  0  0  0  0  0  0  0  0  0  0  0
   -6.2279   -4.9031  -24.4755 C   0  0  0  0  0  0  0  0  0  0  0  0
   -5.6313   -3.6043  -23.9422 C   0  0  0  0  0  0  0  0  0  0  0  0
   -6.6513   -2.7439  -23.3293 N   0  0  0  0  0  0  0  0  0  0  0  0
   -6.6579   -2.6418  -21.9473 C   0  0  0  0  0  0  0  0  0  0  0  0
   -6.0549   -3.4318  -21.2439 O   0  0  0  0  0  0  0  0  0  0  0  0
   -7.3998   -1.4594  -21.2829 C   0  0  0  0  0  0  0  0  0  0  0  0
   -6.5806   -0.8245  -20.1779 C   0  0  0  0  0  0  0  0  0  0  0  0
   -6.8720   -1.0453  -18.8551 C   0  0  0  0  0  0  0  0  0  0  0  0
   -6.1820   -0.5406  -17.7976 N   0  0  0  0  0  0  0  0  0  0  0  0
   -5.1546    0.2252  -18.0647 C   0  0  0  0  0  0  0  0  0  0  0  0
   -4.7190    0.5332  -19.3827 C   0  0  0  0  0  0  0  0  0  0  0  0
   -3.5882    1.3561  -19.6233 C   0  0  0  0  0  0  0  0  0  0  0  0
   -3.1913    1.6378  -20.9022 C   0  0  0  0  0  0  0  0  0  0  0  0
   -3.9104    1.1018  -21.9933 C   0  0  0  0  0  0  0  0  0  0  0  0
   -5.0046    0.2978  -21.7847 C   0  0  0  0  0  0  0  0  0  0  0  0
   -5.4472   -0.0050  -20.4703 C   0  0  0  0  0  0  0  0  0  0  0  0
   -5.5341   -0.1128  -22.6388 H   0  0  0  0  0  0  0  0  0  0  0  0
   -3.5901    1.3299  -23.0042 H   0  0  0  0  0  0  0  0  0  0  0  0
   -2.3336    2.2780  -21.0871 H   0  0  0  0  0  0  0  0  0  0  0  0
   -3.0544    1.7750  -18.7740 H   0  0  0  0  0  0  0  0  0  0  0  0
   -4.6001    0.6288  -17.2160 H   0  0  0  0  0  0  0  0  0  0  0  0
   -7.7207   -1.6703  -18.5833 H   0  0  0  0  0  0  0  0  0  0  0  0
   -7.7064   -0.6955  -22.0080 H   0  0  0  0  0  0  0  0  0  0  0  0
   -8.3156   -1.8669  -20.8397 H   0  0  0  0  0  0  0  0  0  0  0  0
   -5.1542   -3.0725  -24.7740 H   0  0  0  0  0  0  0  0  0  0  0  0
   -4.8621   -3.8124  -23.1980 H   0  0  0  0  0  0  0  0  0  0  0  0
   -5.4879   -5.4690  -25.0533 H   0  0  0  0  0  0  0  0  0  0  0  0
   -6.5096   -5.5386  -23.6283 H   0  0  0  0  0  0  0  0  0  0  0  0
  -10.2127   -4.7948  -27.4628 H   0  0  0  0  0  0  0  0  0  0  0  0
  -10.0453   -2.6061  -26.0110 H   0  0  0  0  0  0  0  0  0  0  0  0
   -8.6508   -2.2306  -23.5045 H   0  0  0  0  0  0  0  0  0  0  0  0
   -7.4892   -0.1979  -24.1274 H   0  0  0  0  0  0  0  0  0  0  0  0
   -8.5175   -0.7644  -25.4242 H   0  0  0  0  0  0  0  0  0  0  0  0
   -5.4669   -0.9271  -25.2995 H   0  0  0  0  0  0  0  0  0  0  0  0
   -6.4072   -1.7856  -26.5198 H   0  0  0  0  0  0  0  0  0  0  0  0
   -6.4526   -0.0206  -26.4435 H   0  0  0  0  0  0  0  0  0  0  0  0
  1  2  1  0
  2  3  1  0
  3  4  1  0
  4  5  1  0
  5  6  2  0
  6  7  1  0
  7  8  1  0
  8  9  1  0
  9 10  1  0
 10 11  1  0
 11 12  1  0
 12 13  2  0
 12 14  1  0
 14 15  1  0
 15 16  2  0
 16 17  1  0
 17 18  2  0
 18 19  1  0
 19 20  2  0
 20 21  1  0
 21 22  2  0
 22 23  1  0
 23 24  2  0
 23 25  1  0
 22 26  1  0
 21 27  1  0
 20 28  1  0
 18 29  1  0
 16 30  1  0
 14 31  1  0
 14 32  1  0
 10 33  1  0
 10 34  1  0
  9 35  1  0
  9 36  1  0
  6 37  1  0
  5 38  1  0
  3 39  1  1
  2 40  1  0
  2 41  1  0
  1 42  1  0
  1 43  1  0
  1 44  1  0
 11  3  1  0
 24 15  1  0
  8  4  2  0
 24 19  1  0
M  END
>  <cnnaffinities>  (64) 
[5.52568, 5.48505]

>  <score>  (64) 
5.52568

>  <index>  (64) 
66

>  <Smiles>  (64) 
C(C([C@]1(c2c(c(sc2C(C(N1C(=O)C(c1c(nc(c2c(c(c(c(c12)[H])[H])[H])[H])[H])[H])([H])[H])([H])[H])([H])[H])[H])[H])[H])([H])[H])([H])([H])[H]

>  <h>  (64) 
<NA>

>  <Training>  (64) 
True

>  <Success>  (64) 
True

>  <enamine_searched>  (64) 
False

>  <enamine_id>  (64) 
nan

$$$$

     RDKit          3D

 58 63  0  0  0  0  0  0  0  0999 V2000
  -15.0586    0.1687  -22.9472 C   0  0  0  0  0  0  0  0  0  0  0  0
  -14.4526   -1.1573  -22.7846 C   0  0  0  0  0  0  0  0  0  0  0  0
  -13.7160   -1.6334  -21.6938 C   0  0  0  0  0  0  0  0  0  0  0  0
  -13.3048   -2.8549  -22.1184 C   0  0  0  0  0  0  0  0  0  0  0  0
  -12.3939   -3.8957  -21.5951 C   0  0  0  0  0  0  0  0  0  0  0  0
  -11.0555   -3.8766  -22.1660 N   0  0  0  0  0  0  0  0  0  0  0  0
   -9.9394   -3.3606  -21.4149 C   0  0  0  0  0  0  0  0  0  0  0  0
   -8.7545   -2.9298  -22.2946 C   0  0  2  0  0  0  0  0  0  0  0  0
   -7.5533   -2.7085  -21.3704 C   0  0  0  0  0  0  0  0  0  0  0  0
   -6.8645   -3.5549  -20.8352 O   0  0  0  0  0  0  0  0  0  0  0  0
   -7.3542   -1.3557  -21.2310 N   0  0  0  0  0  0  0  0  0  0  0  0
   -6.5606   -0.8502  -20.1810 C   0  0  0  0  0  0  0  0  0  0  0  0
   -6.8837   -1.0914  -18.8692 C   0  0  0  0  0  0  0  0  0  0  0  0
   -6.2077   -0.5636  -17.8197 N   0  0  0  0  0  0  0  0  0  0  0  0
   -5.1815    0.2054  -18.0846 C   0  0  0  0  0  0  0  0  0  0  0  0
   -4.7313    0.5082  -19.4014 C   0  0  0  0  0  0  0  0  0  0  0  0
   -3.6077    1.3359  -19.6408 C   0  0  0  0  0  0  0  0  0  0  0  0
   -3.2165    1.6183  -20.9200 C   0  0  0  0  0  0  0  0  0  0  0  0
   -3.9266    1.0882  -22.0208 C   0  0  0  0  0  0  0  0  0  0  0  0
   -5.0128    0.2725  -21.8173 C   0  0  0  0  0  0  0  0  0  0  0  0
   -5.4411   -0.0262  -20.4949 C   0  0  0  0  0  0  0  0  0  0  0  0
   -5.5504   -0.1492  -22.6617 H   0  0  0  0  0  0  0  0  0  0  0  0
   -3.6146    1.3353  -23.0319 H   0  0  0  0  0  0  0  0  0  0  0  0
   -2.3619    2.2641  -21.0979 H   0  0  0  0  0  0  0  0  0  0  0  0
   -3.0910    1.7552  -18.7832 H   0  0  0  0  0  0  0  0  0  0  0  0
   -4.6428    0.6358  -17.2388 H   0  0  0  0  0  0  0  0  0  0  0  0
   -7.7273   -1.7315  -18.6148 H   0  0  0  0  0  0  0  0  0  0  0  0
   -8.3551   -0.5480  -21.9035 C   0  0  0  0  0  0  0  0  0  0  0  0
   -8.9837   -1.5128  -22.9175 C   0  0  2  0  0  0  0  0  0  0  0  0
  -10.4368   -1.1789  -23.2382 C   0  0  0  0  0  0  0  0  0  0  0  0
  -10.5271   -0.2096  -23.7321 H   0  0  0  0  0  0  0  0  0  0  0  0
  -11.0311   -1.1370  -22.3197 H   0  0  0  0  0  0  0  0  0  0  0  0
  -10.8813   -1.9485  -23.8770 H   0  0  0  0  0  0  0  0  0  0  0  0
   -8.3963   -1.4806  -23.8452 H   0  0  0  0  0  0  0  0  0  0  0  0
   -7.9013    0.3245  -22.3814 H   0  0  0  0  0  0  0  0  0  0  0  0
   -9.1057   -0.1862  -21.1854 H   0  0  0  0  0  0  0  0  0  0  0  0
   -8.4697   -3.9901  -23.3232 C   0  0  0  0  0  0  0  0  0  0  0  0
   -7.2100   -4.0874  -23.9165 C   0  0  0  0  0  0  0  0  0  0  0  0
   -7.0117   -5.0150  -24.9173 C   0  0  0  0  0  0  0  0  0  0  0  0
   -5.8127   -5.0760  -25.5139 F   0  0  0  0  0  0  0  0  0  0  0  0
   -8.0081   -5.8796  -25.3542 C   0  0  0  0  0  0  0  0  0  0  0  0
   -9.2519   -5.7787  -24.7650 C   0  0  0  0  0  0  0  0  0  0  0  0
   -9.4801   -4.8381  -23.7633 C   0  0  0  0  0  0  0  0  0  0  0  0
  -10.8511   -4.7283  -23.2102 C   0  0  0  0  0  0  0  0  0  0  0  0
  -11.7725   -5.3652  -23.6835 O   0  0  0  0  0  0  0  0  0  0  0  0
  -10.0754   -6.4192  -25.0589 H   0  0  0  0  0  0  0  0  0  0  0  0
   -7.7899   -6.5872  -26.1462 H   0  0  0  0  0  0  0  0  0  0  0  0
   -6.3972   -3.4435  -23.6029 H   0  0  0  0  0  0  0  0  0  0  0  0
   -9.5924   -4.1202  -20.7260 H   0  0  0  0  0  0  0  0  0  0  0  0
  -10.2650   -2.4997  -20.8317 H   0  0  0  0  0  0  0  0  0  0  0  0
  -12.8290   -4.8104  -21.9669 H   0  0  0  0  0  0  0  0  0  0  0  0
  -12.3799   -3.8747  -20.5090 H   0  0  0  0  0  0  0  0  0  0  0  0
  -13.8954   -3.1490  -23.2864 O   0  0  0  0  0  0  0  0  0  0  0  0
  -14.6099   -2.0606  -23.7230 N   0  0  0  0  0  0  0  0  0  0  0  0
  -13.6966   -1.1209  -20.7566 H   0  0  0  0  0  0  0  0  0  0  0  0
  -15.6983   -0.0913  -23.7592 H   0  0  0  0  0  0  0  0  0  0  0  0
  -14.3244    0.9313  -23.2315 H   0  0  0  0  0  0  0  0  0  0  0  0
  -15.6348    0.4923  -22.0780 H   0  0  0  0  0  0  0  0  0  0  0  0
  1  2  1  0
  2  3  1  0
  3  4  2  0
  4  5  1  0
  5  6  1  0
  6  7  1  0
  8  7  1  1
  8  9  1  0
  9 10  2  0
  9 11  1  0
 11 12  1  0
 12 13  2  0
 13 14  1  0
 14 15  2  0
 15 16  1  0
 16 17  2  0
 17 18  1  0
 18 19  2  0
 19 20  1  0
 20 21  2  0
 20 22  1  0
 19 23  1  0
 18 24  1  0
 17 25  1  0
 15 26  1  0
 13 27  1  0
 11 28  1  0
 28 29  1  0
 29 30  1  0
 30 31  1  0
 30 32  1  0
 30 33  1  0
 29 34  1  6
 28 35  1  0
 28 36  1  0
  8 37  1  0
 37 38  2  0
 38 39  1  0
 39 40  1  0
 39 41  2  0
 41 42  1  0
 42 43  2  0
 43 44  1  0
 44 45  2  0
 42 46  1  0
 41 47  1  0
 38 48  1  0
  7 49  1  0
  7 50  1  0
  5 51  1  0
  5 52  1  0
  4 53  1  0
 53 54  1  0
  3 55  1  0
  1 56  1  0
  1 57  1  0
  1 58  1  0
 54  2  2  0
 44  6  1  0
 29  8  1  0
 43 37  1  0
 21 12  1  0
 21 16  1  0
M  END
>  <cnnaffinities>  (65) 
[6.56327]

>  <score>  (65) 
6.56327

>  <index>  (65) 
67

>  <Smiles>  (65) 
C(c1c(c(C(N2C([C@@]3(C(=O)N(c4c(nc(c5c(c(c(c(c45)[H])[H])[H])[H])[H])[H])C([C@@]3(C([H])([H])[H])[H])([H])[H])c3c(c(F)c(c(c3C2=O)[H])[H])[H])([H])[H])([H])[H])on1)[H])([H])([H])[H]

>  <h>  (65) 
<NA>

>  <Training>  (65) 
True

>  <Success>  (65) 
True

>  <enamine_searched>  (65) 
False

>  <enamine_id>  (65) 
nan

$$$$

     RDKit          3D

 65 70  0  0  0  0  0  0  0  0999 V2000
   -5.6298   -3.2372  -21.2614 O   0  0  0  0  0  0  0  0  0  0  0  0
   -6.5797   -2.7571  -21.8616 C   0  0  0  0  0  0  0  0  0  0  0  0
   -7.3044   -1.5284  -21.2983 C   0  0  0  0  0  0  0  0  0  0  0  0
   -6.5400   -0.8634  -20.2052 C   0  0  0  0  0  0  0  0  0  0  0  0
   -6.8744   -1.0743  -18.8952 C   0  0  0  0  0  0  0  0  0  0  0  0
   -6.2141   -0.5594  -17.8277 N   0  0  0  0  0  0  0  0  0  0  0  0
   -5.1762    0.1973  -18.0871 C   0  0  0  0  0  0  0  0  0  0  0  0
   -4.7108    0.4964  -19.3963 C   0  0  0  0  0  0  0  0  0  0  0  0
   -3.5877    1.3296  -19.6251 C   0  0  0  0  0  0  0  0  0  0  0  0
   -3.1901    1.6307  -20.8987 C   0  0  0  0  0  0  0  0  0  0  0  0
   -3.8996    1.1102  -22.0027 C   0  0  0  0  0  0  0  0  0  0  0  0
   -4.9795    0.2861  -21.8088 C   0  0  0  0  0  0  0  0  0  0  0  0
   -5.4158   -0.0417  -20.4960 C   0  0  0  0  0  0  0  0  0  0  0  0
   -5.5115   -0.1109  -22.6688 H   0  0  0  0  0  0  0  0  0  0  0  0
   -3.5934    1.3752  -23.0101 H   0  0  0  0  0  0  0  0  0  0  0  0
   -2.3409    2.2859  -21.0680 H   0  0  0  0  0  0  0  0  0  0  0  0
   -3.0729    1.7477  -18.7651 H   0  0  0  0  0  0  0  0  0  0  0  0
   -4.6459    0.6201  -17.2337 H   0  0  0  0  0  0  0  0  0  0  0  0
   -7.7360   -1.6995  -18.6564 H   0  0  0  0  0  0  0  0  0  0  0  0
   -8.2706   -1.8757  -20.9114 H   0  0  0  0  0  0  0  0  0  0  0  0
   -7.5185   -0.8172  -22.0999 H   0  0  0  0  0  0  0  0  0  0  0  0
   -7.0839   -3.2883  -23.0335 N   0  0  0  0  0  0  0  0  0  0  0  0
   -7.8744   -2.4815  -23.9531 C   0  0  0  0  0  0  0  0  0  0  0  0
   -9.2766   -2.1549  -23.4811 C   0  0  0  0  0  0  0  0  0  0  0  0
   -9.8095   -0.8934  -23.7302 C   0  0  0  0  0  0  0  0  0  0  0  0
  -11.0881   -0.5652  -23.2922 C   0  0  0  0  0  0  0  0  0  0  0  0
  -11.8783   -1.4955  -22.6318 C   0  0  0  0  0  0  0  0  0  0  0  0
  -11.3501   -2.7586  -22.4181 C   0  0  0  0  0  0  0  0  0  0  0  0
  -12.3362   -3.9799  -21.6717 Cl  0  0  0  0  0  0  0  0  0  0  0  0
  -10.0510   -3.0817  -22.7870 C   0  0  0  0  0  0  0  0  0  0  0  0
   -9.6659   -4.0575  -22.5091 H   0  0  0  0  0  0  0  0  0  0  0  0
  -12.8744   -1.2500  -22.2804 H   0  0  0  0  0  0  0  0  0  0  0  0
  -11.4798    0.4300  -23.4817 H   0  0  0  0  0  0  0  0  0  0  0  0
   -9.2106   -0.1532  -24.2576 H   0  0  0  0  0  0  0  0  0  0  0  0
   -7.9439   -3.0046  -24.9072 H   0  0  0  0  0  0  0  0  0  0  0  0
   -7.3362   -1.5480  -24.1677 H   0  0  0  0  0  0  0  0  0  0  0  0
   -6.7645   -4.6752  -23.3639 C   0  0  2  0  0  0  0  0  0  0  0  0
   -7.6783   -5.3414  -24.4217 C   0  0  0  0  0  0  0  0  0  0  0  0
   -7.4742   -6.8583  -24.1978 C   0  0  0  0  0  0  0  0  0  0  0  0
   -6.4553   -6.8799  -23.0653 C   0  0  2  0  0  0  0  0  0  0  0  0
   -6.8648   -5.6903  -22.2101 C   0  0  0  0  0  0  0  0  0  0  0  0
   -6.1838   -5.4677  -21.3851 H   0  0  0  0  0  0  0  0  0  0  0  0
   -7.8910   -5.7591  -21.8306 H   0  0  0  0  0  0  0  0  0  0  0  0
   -5.1179   -6.4169  -23.6963 N   0  0  2  0  0  4  0  0  0  0  0  0
   -3.9220   -6.7630  -22.8605 C   0  0  0  0  0  0  0  0  0  0  0  0
   -3.0623   -7.9227  -23.3673 C   0  0  0  0  0  0  0  0  0  0  0  0
   -3.7681   -9.0265  -24.1598 C   0  0  0  0  0  0  0  0  0  0  0  0
   -3.5002   -8.3368  -25.3899 O   0  0  0  0  0  0  0  0  0  0  0  0
   -2.4252   -7.6407  -24.7322 C   0  0  0  0  0  0  0  0  0  0  0  0
   -2.3805   -6.5976  -25.0484 H   0  0  0  0  0  0  0  0  0  0  0  0
   -1.4543   -8.1452  -24.8686 H   0  0  0  0  0  0  0  0  0  0  0  0
   -3.2121   -9.9754  -24.0913 H   0  0  0  0  0  0  0  0  0  0  0  0
   -4.8418   -9.1994  -24.0307 H   0  0  0  0  0  0  0  0  0  0  0  0
   -2.4158   -8.2764  -22.5634 H   0  0  0  0  0  0  0  0  0  0  0  0
   -3.2803   -5.8792  -22.8076 H   0  0  0  0  0  0  0  0  0  0  0  0
   -4.2613   -6.9454  -21.8397 H   0  0  0  0  0  0  0  0  0  0  0  0
   -5.3259   -4.9049  -23.8642 C   0  0  0  0  0  0  0  0  0  0  0  0
   -4.6096   -4.3673  -23.2438 H   0  0  0  0  0  0  0  0  0  0  0  0
   -5.1797   -4.6332  -24.9117 H   0  0  0  0  0  0  0  0  0  0  0  0
   -4.9871   -6.8537  -24.6224 H   0  0  0  0  0  0  0  0  0  0  0  0
   -6.3204   -7.8293  -22.5479 H   0  0  0  0  0  0  0  0  0  0  0  0
   -8.4067   -7.3473  -23.9085 H   0  0  0  0  0  0  0  0  0  0  0  0
   -7.0833   -7.3717  -25.0825 H   0  0  0  0  0  0  0  0  0  0  0  0
   -7.4051   -5.0400  -25.4370 H   0  0  0  0  0  0  0  0  0  0  0  0
   -8.7180   -5.0526  -24.2497 H   0  0  0  0  0  0  0  0  0  0  0  0
  1  2  2  0
  2  3  1  0
  3  4  1  0
  4  5  2  0
  5  6  1  0
  6  7  2  0
  7  8  1  0
  8  9  2  0
  9 10  1  0
 10 11  2  0
 11 12  1  0
 12 13  2  0
 12 14  1  0
 11 15  1  0
 10 16  1  0
  9 17  1  0
  7 18  1  0
  5 19  1  0
  3 20  1  0
  3 21  1  0
  2 22  1  0
 22 23  1  0
 23 24  1  0
 24 25  2  0
 25 26  1  0
 26 27  2  0
 27 28  1  0
 28 29  1  0
 28 30  2  0
 30 31  1  0
 27 32  1  0
 26 33  1  0
 25 34  1  0
 23 35  1  0
 23 36  1  0
 37 22  1  1
 37 38  1  0
 38 39  1  0
 39 40  1  0
 40 41  1  0
 41 42  1  0
 41 43  1  0
 40 44  1  0
 44 45  1  0
 45 46  1  0
 46 47  1  0
 47 48  1  0
 48 49  1  0
 49 50  1  0
 49 51  1  0
 47 52  1  0
 47 53  1  0
 46 54  1  0
 45 55  1  0
 45 56  1  0
 44 57  1  0
 57 58  1  0
 57 59  1  0
 44 60  1  6
 40 61  1  1
 39 62  1  0
 39 63  1  0
 38 64  1  0
 38 65  1  0
 13  4  1  0
 30 24  1  0
 41 37  1  0
 49 46  1  0
 13  8  1  0
 57 37  1  0
M  CHG  1  44   1
M  END
>  <cnnaffinities>  (66) 
[6.01852]

>  <score>  (66) 
6.01852

>  <index>  (66) 
68

>  <Smiles>  (66) 
O=C(C(c1c(nc(c2c(c(c(c(c12)[H])[H])[H])[H])[H])[H])([H])[H])N(C(c1c(c(c(c(Cl)c1[H])[H])[H])[H])([H])[H])[C@]12C(C([C@](C1([H])[H])([N@+](C(C1(C(OC1([H])[H])([H])[H])[H])([H])[H])(C2([H])[H])[H])[H])([H])[H])([H])[H]

>  <h>  (66) 
<NA>

>  <Training>  (66) 
True

>  <Success>  (66) 
True

>  <enamine_searched>  (66) 
False

>  <enamine_id>  (66) 
nan

$$$$

     RDKit          3D

 63 67  0  0  0  0  0  0  0  0999 V2000
   -7.4282   -4.3513  -28.0021 C   0  0  0  0  0  0  0  0  0  0  0  0
   -8.5569   -3.9959  -28.6106 C   0  0  0  0  0  0  0  0  0  0  0  0
   -9.0216   -2.5809  -28.6695 C   0  0  0  0  0  0  0  0  0  0  0  0
   -9.6868   -2.1660  -29.5952 O   0  0  0  0  0  0  0  0  0  0  0  0
   -8.5638   -1.7087  -27.6711 N   0  0  0  0  0  0  0  0  0  0  0  0
   -7.9379   -0.4749  -28.1509 C   0  0  0  0  0  0  0  0  0  0  0  0
   -6.7123   -0.2075  -27.2980 C   0  0  0  0  0  0  0  0  0  0  0  0
   -7.1911    0.0321  -25.8712 C   0  0  0  0  0  0  0  0  0  0  0  0
   -8.0376   -1.1217  -25.3597 C   0  0  0  0  0  0  0  0  0  0  0  0
   -8.6809   -1.9639  -26.2918 C   0  0  0  0  0  0  0  0  0  0  0  0
   -9.4476   -3.0471  -25.8234 C   0  0  0  0  0  0  0  0  0  0  0  0
   -9.4048   -3.4083  -24.4852 C   0  0  0  0  0  0  0  0  0  0  0  0
   -8.7551   -2.5959  -23.5551 C   0  0  0  0  0  0  0  0  0  0  0  0
   -8.2368   -1.3811  -23.9955 C   0  0  0  0  0  0  0  0  0  0  0  0
   -8.0582   -0.2220  -22.9756 N   0  0  1  0  0  4  0  0  0  0  0  0
   -8.9766    1.0591  -23.2745 C   0  0  0  0  0  0  0  0  0  0  0  0
  -10.4594    0.8767  -23.0294 C   0  0  0  0  0  0  0  0  0  0  0  0
  -11.2371    1.9253  -22.5385 C   0  0  0  0  0  0  0  0  0  0  0  0
  -12.6178    1.7849  -22.4191 C   0  0  0  0  0  0  0  0  0  0  0  0
  -13.2640    0.5972  -22.7375 C   0  0  0  0  0  0  0  0  0  0  0  0
  -12.4725   -0.4448  -23.1950 C   0  0  0  0  0  0  0  0  0  0  0  0
  -13.1638   -1.9886  -23.6179 Cl  0  0  0  0  0  0  0  0  0  0  0  0
  -11.1052   -0.3010  -23.3699 C   0  0  0  0  0  0  0  0  0  0  0  0
  -10.5458   -1.1100  -23.8176 H   0  0  0  0  0  0  0  0  0  0  0  0
  -14.3437    0.4797  -22.6673 H   0  0  0  0  0  0  0  0  0  0  0  0
  -13.2171    2.6295  -22.1066 H   0  0  0  0  0  0  0  0  0  0  0  0
  -10.7790    2.8718  -22.2646 H   0  0  0  0  0  0  0  0  0  0  0  0
   -8.5899    1.8798  -22.6711 H   0  0  0  0  0  0  0  0  0  0  0  0
   -8.7845    1.2932  -24.3183 H   0  0  0  0  0  0  0  0  0  0  0  0
   -8.0914   -0.5139  -21.4893 C   0  0  0  0  0  0  0  0  0  0  0  0
   -8.8476    0.1005  -20.7850 O   0  0  0  0  0  0  0  0  0  0  0  0
   -7.1236   -1.5723  -20.9353 C   0  0  0  0  0  0  0  0  0  0  0  0
   -6.2355   -0.9612  -19.8717 C   0  0  0  0  0  0  0  0  0  0  0  0
   -6.5279   -1.1071  -18.5407 C   0  0  0  0  0  0  0  0  0  0  0  0
   -5.8339   -0.5426  -17.5171 N   0  0  0  0  0  0  0  0  0  0  0  0
   -4.8295    0.2328  -17.8361 C   0  0  0  0  0  0  0  0  0  0  0  0
   -4.4242    0.5036  -19.1704 C   0  0  0  0  0  0  0  0  0  0  0  0
   -3.3678    1.4011  -19.4677 C   0  0  0  0  0  0  0  0  0  0  0  0
   -3.0692    1.7198  -20.7637 C   0  0  0  0  0  0  0  0  0  0  0  0
   -3.8108    1.1433  -21.8176 C   0  0  0  0  0  0  0  0  0  0  0  0
   -4.8161    0.2471  -21.5527 C   0  0  0  0  0  0  0  0  0  0  0  0
   -5.1561   -0.0967  -20.2207 C   0  0  0  0  0  0  0  0  0  0  0  0
   -5.4027   -0.1539  -22.3733 H   0  0  0  0  0  0  0  0  0  0  0  0
   -3.6102    1.4355  -22.8427 H   0  0  0  0  0  0  0  0  0  0  0  0
   -2.2854    2.4365  -20.9886 H   0  0  0  0  0  0  0  0  0  0  0  0
   -2.8481    1.8750  -18.6398 H   0  0  0  0  0  0  0  0  0  0  0  0
   -4.2979    0.7203  -17.0185 H   0  0  0  0  0  0  0  0  0  0  0  0
   -7.3789   -1.7142  -18.2317 H   0  0  0  0  0  0  0  0  0  0  0  0
   -7.7227   -2.3763  -20.4805 H   0  0  0  0  0  0  0  0  0  0  0  0
   -6.5593   -2.0251  -21.7552 H   0  0  0  0  0  0  0  0  0  0  0  0
   -7.0905    0.1083  -23.1706 H   0  0  0  0  0  0  0  0  0  0  0  0
   -8.7533   -2.8720  -22.5064 H   0  0  0  0  0  0  0  0  0  0  0  0
   -9.9401   -4.2966  -24.1548 H   0  0  0  0  0  0  0  0  0  0  0  0
  -10.0658   -3.6195  -26.5075 H   0  0  0  0  0  0  0  0  0  0  0  0
   -7.8051    0.9433  -25.9090 H   0  0  0  0  0  0  0  0  0  0  0  0
   -6.3464    0.2355  -25.1983 H   0  0  0  0  0  0  0  0  0  0  0  0
   -6.1612    0.6565  -27.6820 H   0  0  0  0  0  0  0  0  0  0  0  0
   -6.0463   -1.0783  -27.3472 H   0  0  0  0  0  0  0  0  0  0  0  0
   -8.6461    0.3659  -28.1100 H   0  0  0  0  0  0  0  0  0  0  0  0
   -7.6698   -0.6208  -29.2012 H   0  0  0  0  0  0  0  0  0  0  0  0
   -9.1399   -4.6851  -29.2131 H   0  0  0  0  0  0  0  0  0  0  0  0
   -7.0194   -5.3520  -28.0798 H   0  0  0  0  0  0  0  0  0  0  0  0
   -6.8751   -3.6344  -27.4009 H   0  0  0  0  0  0  0  0  0  0  0  0
  1  2  2  0
  2  3  1  0
  3  4  2  0
  3  5  1  0
  5  6  1  0
  6  7  1  0
  7  8  1  0
  8  9  1  0
  9 10  2  0
 10 11  1  0
 11 12  2  0
 12 13  1  0
 13 14  2  0
 14 15  1  0
 15 16  1  0
 16 17  1  0
 17 18  2  0
 18 19  1  0
 19 20  2  0
 20 21  1  0
 21 22  1  0
 21 23  2  0
 23 24  1  0
 20 25  1  0
 19 26  1  0
 18 27  1  0
 16 28  1  0
 16 29  1  0
 15 30  1  0
 30 31  2  0
 30 32  1  0
 32 33  1  0
 33 34  2  0
 34 35  1  0
 35 36  2  0
 36 37  1  0
 37 38  2  0
 38 39  1  0
 39 40  2  0
 40 41  1  0
 41 42  2  0
 41 43  1  0
 40 44  1  0
 39 45  1  0
 38 46  1  0
 36 47  1  0
 34 48  1  0
 32 49  1  0
 32 50  1  0
 15 51  1  6
 13 52  1  0
 12 53  1  0
 11 54  1  0
  8 55  1  0
  8 56  1  0
  7 57  1  0
  7 58  1  0
  6 59  1  0
  6 60  1  0
  2 61  1  0
  1 62  1  0
  1 63  1  0
 10  5  1  0
 23 17  1  0
 42 33  1  0
 14  9  1  0
 42 37  1  0
M  CHG  1  15   1
M  END
>  <cnnaffinities>  (67) 
[6.29147]

>  <score>  (67) 
6.29147

>  <index>  (67) 
69

>  <Smiles>  (67) 
C(=C(C(=O)N1C(C(C(c2c1c(c(c(c2[N@@+](C(c1c(c(c(c(Cl)c1[H])[H])[H])[H])([H])[H])(C(=O)C(c1c(nc(c2c(c(c(c(c12)[H])[H])[H])[H])[H])[H])([H])[H])[H])[H])[H])[H])([H])[H])([H])[H])([H])[H])[H])([H])[H]

>  <h>  (67) 
<NA>

>  <Training>  (67) 
True

>  <Success>  (67) 
True

>  <enamine_searched>  (67) 
False

>  <enamine_id>  (67) 
nan

$$$$

     RDKit          3D

 52 54  0  0  0  0  0  0  0  0999 V2000
   -4.7468   -5.0448  -26.7358 C   0  0  0  0  0  0  0  0  0  0  0  0
   -5.9477   -5.7449  -26.0916 C   0  0  0  0  0  0  0  0  0  0  0  0
   -6.3808   -6.9298  -26.9581 C   0  0  0  0  0  0  0  0  0  0  0  0
   -5.5191   -7.4120  -27.4322 H   0  0  0  0  0  0  0  0  0  0  0  0
   -7.0493   -6.6112  -27.7640 H   0  0  0  0  0  0  0  0  0  0  0  0
   -6.9019   -7.7014  -26.3855 H   0  0  0  0  0  0  0  0  0  0  0  0
   -7.0625   -4.7194  -25.8136 C   0  0  0  0  0  0  0  0  0  0  0  0
   -8.3102   -5.1048  -24.9678 C   0  0  0  0  0  0  0  0  0  0  0  0
   -9.2765   -5.9836  -25.7776 C   0  0  0  0  0  0  0  0  0  0  0  0
  -10.2231   -6.1170  -25.2416 H   0  0  0  0  0  0  0  0  0  0  0  0
   -9.5157   -5.5284  -26.7467 H   0  0  0  0  0  0  0  0  0  0  0  0
   -8.8878   -6.9871  -25.9723 H   0  0  0  0  0  0  0  0  0  0  0  0
   -9.0564   -3.7990  -24.5631 C   0  0  0  0  0  0  0  0  0  0  0  0
   -8.8699   -3.3591  -23.1001 C   0  0  0  0  0  0  0  0  0  0  0  0
   -7.5325   -3.6235  -22.5905 N   0  0  0  0  0  0  0  0  0  0  0  0
   -6.7701   -2.7636  -21.8384 C   0  0  0  0  0  0  0  0  0  0  0  0
   -5.5992   -3.0138  -21.5966 O   0  0  0  0  0  0  0  0  0  0  0  0
   -7.4197   -1.4789  -21.2637 C   0  0  0  0  0  0  0  0  0  0  0  0
   -6.5805   -0.8306  -20.1841 C   0  0  0  0  0  0  0  0  0  0  0  0
   -6.8724   -1.0439  -18.8618 C   0  0  0  0  0  0  0  0  0  0  0  0
   -6.1835   -0.5419  -17.8039 N   0  0  0  0  0  0  0  0  0  0  0  0
   -5.1552    0.2241  -18.0673 C   0  0  0  0  0  0  0  0  0  0  0  0
   -4.7187    0.5303  -19.3839 C   0  0  0  0  0  0  0  0  0  0  0  0
   -3.5882    1.3544  -19.6224 C   0  0  0  0  0  0  0  0  0  0  0  0
   -3.1877    1.6325  -20.9008 C   0  0  0  0  0  0  0  0  0  0  0  0
   -3.9029    1.0928  -21.9922 C   0  0  0  0  0  0  0  0  0  0  0  0
   -4.9984    0.2888  -21.7866 C   0  0  0  0  0  0  0  0  0  0  0  0
   -5.4439   -0.0130  -20.4743 C   0  0  0  0  0  0  0  0  0  0  0  0
   -5.5227   -0.1350  -22.6363 H   0  0  0  0  0  0  0  0  0  0  0  0
   -3.5775    1.3159  -23.0033 H   0  0  0  0  0  0  0  0  0  0  0  0
   -2.3281    2.2722  -21.0847 H   0  0  0  0  0  0  0  0  0  0  0  0
   -3.0554    1.7751  -18.7720 H   0  0  0  0  0  0  0  0  0  0  0  0
   -4.6011    0.6283  -17.2170 H   0  0  0  0  0  0  0  0  0  0  0  0
   -7.7192   -1.6689  -18.5843 H   0  0  0  0  0  0  0  0  0  0  0  0
   -7.6020   -0.7605  -22.0748 H   0  0  0  0  0  0  0  0  0  0  0  0
   -8.4061   -1.7236  -20.8429 H   0  0  0  0  0  0  0  0  0  0  0  0
   -7.0269   -4.9899  -22.7595 C   0  0  0  0  0  0  0  0  0  0  0  0
   -7.9153   -5.8298  -23.6767 C   0  0  0  0  0  0  0  0  0  0  0  0
   -7.4050   -6.7682  -23.9182 H   0  0  0  0  0  0  0  0  0  0  0  0
   -8.8187   -6.1458  -23.1419 H   0  0  0  0  0  0  0  0  0  0  0  0
   -6.9467   -5.4825  -21.7828 H   0  0  0  0  0  0  0  0  0  0  0  0
   -6.0064   -4.9488  -23.1537 H   0  0  0  0  0  0  0  0  0  0  0  0
   -9.0744   -2.2909  -23.0282 H   0  0  0  0  0  0  0  0  0  0  0  0
   -9.6210   -3.8599  -22.4746 H   0  0  0  0  0  0  0  0  0  0  0  0
   -8.7592   -2.9837  -25.2296 H   0  0  0  0  0  0  0  0  0  0  0  0
  -10.1344   -3.9121  -24.7262 H   0  0  0  0  0  0  0  0  0  0  0  0
   -6.5963   -3.8468  -25.3372 H   0  0  0  0  0  0  0  0  0  0  0  0
   -7.4182   -4.3426  -26.7834 H   0  0  0  0  0  0  0  0  0  0  0  0
   -5.5949   -6.1426  -25.1358 H   0  0  0  0  0  0  0  0  0  0  0  0
   -4.3706   -4.2238  -26.1163 H   0  0  0  0  0  0  0  0  0  0  0  0
   -5.0031   -4.6337  -27.7186 H   0  0  0  0  0  0  0  0  0  0  0  0
   -3.9160   -5.7433  -26.8883 H   0  0  0  0  0  0  0  0  0  0  0  0
  1  2  1  0
  2  3  1  0
  3  4  1  0
  3  5  1  0
  3  6  1  0
  2  7  1  0
  7  8  1  0
  8  9  1  0
  9 10  1  0
  9 11  1  0
  9 12  1  0
  8 13  1  0
 13 14  1  0
 14 15  1  0
 15 16  1  0
 16 17  2  0
 16 18  1  0
 18 19  1  0
 19 20  2  0
 20 21  1  0
 21 22  2  0
 22 23  1  0
 23 24  2  0
 24 25  1  0
 25 26  2  0
 26 27  1  0
 27 28  2  0
 27 29  1  0
 26 30  1  0
 25 31  1  0
 24 32  1  0
 22 33  1  0
 20 34  1  0
 18 35  1  0
 18 36  1  0
 15 37  1  0
 37 38  1  0
 38 39  1  0
 38 40  1  0
 37 41  1  0
 37 42  1  0
 14 43  1  0
 14 44  1  0
 13 45  1  0
 13 46  1  0
  7 47  1  0
  7 48  1  0
  2 49  1  0
  1 50  1  0
  1 51  1  0
  1 52  1  0
 38  8  1  0
 28 19  1  0
 28 23  1  0
M  END
>  <cnnaffinities>  (68) 
[5.5202, 5.51608, 5.52404, 5.52401, 5.097, 5.13035, 5.13032, 5.47003, 5.22936, 5.22939, 5.2293, 5.2293, 5.07963, 5.12578, 5.08509, 5.28982, 5.28984, 5.28977, 5.11936, 5.11934, 5.11929, 4.80407, 4.80532, 5.10698, 4.86113, 5.00059, 4.93197, 4.82037, 5.12764, 5.23886, 4.76702, 4.76608]

>  <score>  (68) 
5.5202

>  <index>  (68) 
70

>  <Smiles>  (68) 
C(C(C([H])([H])[H])(C(C1(C([H])([H])[H])C(C(N(C(=O)C(c2c(nc(c3c(c(c(c(c23)[H])[H])[H])[H])[H])[H])([H])[H])C(C1([H])[H])([H])[H])([H])[H])([H])[H])([H])[H])[H])([H])([H])[H]

>  <h>  (68) 
<NA>

>  <Training>  (68) 
True

>  <Success>  (68) 
True

>  <enamine_searched>  (68) 
False

>  <enamine_id>  (68) 
nan

$$$$

     RDKit          3D

 50 54  0  0  0  0  0  0  0  0999 V2000
  -10.4327   -1.1588  -23.2592 C   0  0  0  0  0  0  0  0  0  0  0  0
   -8.9805   -1.4922  -22.9288 C   0  0  1  0  0  0  0  0  0  0  0  0
   -8.3572   -0.5318  -21.9083 C   0  0  0  0  0  0  0  0  0  0  0  0
   -7.3576   -1.3412  -21.2339 N   0  0  0  0  0  0  0  0  0  0  0  0
   -6.5628   -0.8461  -20.1832 C   0  0  0  0  0  0  0  0  0  0  0  0
   -6.8837   -1.0946  -18.8741 C   0  0  0  0  0  0  0  0  0  0  0  0
   -6.2093   -0.5691  -17.8227 N   0  0  0  0  0  0  0  0  0  0  0  0
   -5.1847    0.2026  -18.0862 C   0  0  0  0  0  0  0  0  0  0  0  0
   -4.7334    0.5077  -19.4027 C   0  0  0  0  0  0  0  0  0  0  0  0
   -3.6095    1.3351  -19.6429 C   0  0  0  0  0  0  0  0  0  0  0  0
   -3.2193    1.6177  -20.9211 C   0  0  0  0  0  0  0  0  0  0  0  0
   -3.9286    1.0893  -22.0222 C   0  0  0  0  0  0  0  0  0  0  0  0
   -5.0139    0.2727  -21.8192 C   0  0  0  0  0  0  0  0  0  0  0  0
   -5.4438   -0.0253  -20.4977 C   0  0  0  0  0  0  0  0  0  0  0  0
   -5.5494   -0.1507  -22.6650 H   0  0  0  0  0  0  0  0  0  0  0  0
   -3.6183    1.3390  -23.0324 H   0  0  0  0  0  0  0  0  0  0  0  0
   -2.3671    2.2644  -21.0973 H   0  0  0  0  0  0  0  0  0  0  0  0
   -3.0941    1.7534  -18.7830 H   0  0  0  0  0  0  0  0  0  0  0  0
   -4.6472    0.6363  -17.2394 H   0  0  0  0  0  0  0  0  0  0  0  0
   -7.7238   -1.7382  -18.6232 H   0  0  0  0  0  0  0  0  0  0  0  0
   -7.5503   -2.6918  -21.3798 C   0  0  0  0  0  0  0  0  0  0  0  0
   -6.8605   -3.5476  -20.8543 O   0  0  0  0  0  0  0  0  0  0  0  0
   -8.7581   -2.9065  -22.2903 C   0  0  1  0  0  0  0  0  0  0  0  0
   -9.9502   -3.2977  -21.3992 C   0  0  0  0  0  0  0  0  0  0  0  0
  -11.0855   -3.7328  -22.1837 N   0  0  0  0  0  0  0  0  0  0  0  0
  -12.4538   -3.5551  -21.7415 C   0  0  0  0  0  0  0  0  0  0  0  0
  -13.3386   -2.7619  -22.6287 C   0  0  0  0  0  0  0  0  0  0  0  0
  -14.1331   -2.2016  -23.2554 N   0  0  0  0  0  0  0  0  0  0  0  0
  -12.4877   -3.1004  -20.7504 H   0  0  0  0  0  0  0  0  0  0  0  0
  -12.9133   -4.5422  -21.7147 H   0  0  0  0  0  0  0  0  0  0  0  0
  -10.9075   -4.6591  -23.1738 C   0  0  0  0  0  0  0  0  0  0  0  0
  -11.8560   -5.2830  -23.6110 O   0  0  0  0  0  0  0  0  0  0  0  0
   -9.5351   -4.8299  -23.7226 C   0  0  0  0  0  0  0  0  0  0  0  0
   -9.3215   -5.7854  -24.7148 C   0  0  0  0  0  0  0  0  0  0  0  0
   -8.0845   -5.9086  -25.3114 C   0  0  0  0  0  0  0  0  0  0  0  0
   -7.0751   -5.0568  -24.8884 C   0  0  0  0  0  0  0  0  0  0  0  0
   -5.8821   -5.1456  -25.4869 F   0  0  0  0  0  0  0  0  0  0  0  0
   -7.2518   -4.1138  -23.9013 C   0  0  0  0  0  0  0  0  0  0  0  0
   -8.5054   -3.9900  -23.3041 C   0  0  0  0  0  0  0  0  0  0  0  0
   -6.4265   -3.4829  -23.5953 H   0  0  0  0  0  0  0  0  0  0  0  0
   -7.8826   -6.6315  -26.0912 H   0  0  0  0  0  0  0  0  0  0  0  0
  -10.1522   -6.4162  -25.0030 H   0  0  0  0  0  0  0  0  0  0  0  0
   -9.6282   -4.0822  -20.7172 H   0  0  0  0  0  0  0  0  0  0  0  0
  -10.2313   -2.4264  -20.8043 H   0  0  0  0  0  0  0  0  0  0  0  0
   -9.1138   -0.1795  -21.1928 H   0  0  0  0  0  0  0  0  0  0  0  0
   -7.9029    0.3441  -22.3772 H   0  0  0  0  0  0  0  0  0  0  0  0
   -8.3845   -1.4689  -23.8518 H   0  0  0  0  0  0  0  0  0  0  0  0
  -10.5221   -0.1823  -23.7347 H   0  0  0  0  0  0  0  0  0  0  0  0
  -11.0313   -1.1460  -22.3439 H   0  0  0  0  0  0  0  0  0  0  0  0
  -10.8640   -1.9210  -23.9141 H   0  0  0  0  0  0  0  0  0  0  0  0
  1  2  1  0
  2  3  1  0
  3  4  1  0
  4  5  1  0
  5  6  2  0
  6  7  1  0
  7  8  2  0
  8  9  1  0
  9 10  2  0
 10 11  1  0
 11 12  2  0
 12 13  1  0
 13 14  2  0
 13 15  1  0
 12 16  1  0
 11 17  1  0
 10 18  1  0
  8 19  1  0
  6 20  1  0
  4 21  1  0
 21 22  2  0
 21 23  1  0
 23 24  1  1
 24 25  1  0
 25 26  1  0
 26 27  1  0
 27 28  3  0
 26 29  1  0
 26 30  1  0
 25 31  1  0
 31 32  2  0
 31 33  1  0
 33 34  2  0
 34 35  1  0
 35 36  2  0
 36 37  1  0
 36 38  1  0
 38 39  2  0
 38 40  1  0
 35 41  1  0
 34 42  1  0
 24 43  1  0
 24 44  1  0
  3 45  1  0
  3 46  1  0
  2 47  1  6
  1 48  1  0
  1 49  1  0
  1 50  1  0
 23  2  1  0
 39 33  1  0
 14  5  1  0
 39 23  1  0
 14  9  1  0
M  END
>  <cnnaffinities>  (69) 
[6.44861, 6.20351, 5.98078]

>  <score>  (69) 
6.44861

>  <index>  (69) 
71

>  <Smiles>  (69) 
C([C@]1(C(N(c2c(nc(c3c(c(c(c(c23)[H])[H])[H])[H])[H])[H])C(=O)[C@]21C(N(C(C#N)([H])[H])C(=O)c1c(c(c(F)c(c21)[H])[H])[H])([H])[H])([H])[H])[H])([H])([H])[H]

>  <h>  (69) 
<NA>

>  <Training>  (69) 
True

>  <Success>  (69) 
True

>  <enamine_searched>  (69) 
False

>  <enamine_id>  (69) 
nan

$$$$

     RDKit          3D

 41 44  0  0  0  0  0  0  0  0999 V2000
   -8.9719    0.4109  -21.1315 O   0  0  0  0  0  0  0  0  0  0  0  0
   -8.3963   -0.3556  -21.8815 C   0  0  0  0  0  0  0  0  0  0  0  0
   -7.4306   -1.4117  -21.2849 C   0  0  0  0  0  0  0  0  0  0  0  0
   -6.5748   -0.8312  -20.1784 C   0  0  0  0  0  0  0  0  0  0  0  0
   -6.8769   -1.0386  -18.8549 C   0  0  0  0  0  0  0  0  0  0  0  0
   -6.1851   -0.5362  -17.7976 N   0  0  0  0  0  0  0  0  0  0  0  0
   -5.1529    0.2242  -18.0648 C   0  0  0  0  0  0  0  0  0  0  0  0
   -4.7181    0.5339  -19.3839 C   0  0  0  0  0  0  0  0  0  0  0  0
   -3.5921    1.3638  -19.6241 C   0  0  0  0  0  0  0  0  0  0  0  0
   -3.2068    1.6557  -20.9042 C   0  0  0  0  0  0  0  0  0  0  0  0
   -3.9337    1.1251  -21.9947 C   0  0  0  0  0  0  0  0  0  0  0  0
   -5.0247    0.3136  -21.7922 C   0  0  0  0  0  0  0  0  0  0  0  0
   -5.4475   -0.0030  -20.4726 C   0  0  0  0  0  0  0  0  0  0  0  0
   -5.5602   -0.0830  -22.6536 H   0  0  0  0  0  0  0  0  0  0  0  0
   -3.6229    1.3643  -23.0073 H   0  0  0  0  0  0  0  0  0  0  0  0
   -2.3532    2.3017  -21.0894 H   0  0  0  0  0  0  0  0  0  0  0  0
   -3.0557    1.7806  -18.7753 H   0  0  0  0  0  0  0  0  0  0  0  0
   -4.5990    0.6291  -17.2163 H   0  0  0  0  0  0  0  0  0  0  0  0
   -7.7288   -1.6607  -18.5839 H   0  0  0  0  0  0  0  0  0  0  0  0
   -8.0550   -2.2045  -20.8520 H   0  0  0  0  0  0  0  0  0  0  0  0
   -6.7992   -1.8809  -22.0496 H   0  0  0  0  0  0  0  0  0  0  0  0
   -8.5766   -0.2980  -23.2470 N   0  0  0  0  0  0  0  0  0  0  0  0
   -9.0744    0.9407  -23.8446 C   0  0  0  0  0  0  0  0  0  0  0  0
   -8.4358    1.2797  -25.1952 C   0  0  0  0  0  0  0  0  0  0  0  0
   -6.9096    1.1637  -25.2147 C   0  0  0  0  0  0  0  0  0  0  0  0
   -6.4015   -0.2573  -25.2614 C   0  0  0  0  0  0  0  0  0  0  0  0
   -4.8551   -0.6209  -25.9579 S   0  0  0  0  0  0  0  0  0  0  0  0
   -5.0225   -2.2984  -25.6023 C   0  0  0  0  0  0  0  0  0  0  0  0
   -6.2131   -2.5671  -24.9953 C   0  0  0  0  0  0  0  0  0  0  0  0
   -7.0071   -1.3974  -24.8031 C   0  0  0  0  0  0  0  0  0  0  0  0
   -8.3556   -1.4136  -24.1396 C   0  0  0  0  0  0  0  0  0  0  0  0
   -9.1435   -1.4237  -24.9013 H   0  0  0  0  0  0  0  0  0  0  0  0
   -8.4816   -2.3498  -23.5934 H   0  0  0  0  0  0  0  0  0  0  0  0
   -6.5257   -3.5585  -24.6717 H   0  0  0  0  0  0  0  0  0  0  0  0
   -4.2410   -3.0056  -25.8401 H   0  0  0  0  0  0  0  0  0  0  0  0
   -6.4981    1.7357  -26.0533 H   0  0  0  0  0  0  0  0  0  0  0  0
   -6.5025    1.6383  -24.3103 H   0  0  0  0  0  0  0  0  0  0  0  0
   -8.7212    2.3053  -25.4617 H   0  0  0  0  0  0  0  0  0  0  0  0
   -8.8579    0.6632  -25.9942 H   0  0  0  0  0  0  0  0  0  0  0  0
  -10.1644    0.8938  -23.9555 H   0  0  0  0  0  0  0  0  0  0  0  0
   -8.8635    1.7506  -23.1446 H   0  0  0  0  0  0  0  0  0  0  0  0
  1  2  2  0
  2  3  1  0
  3  4  1  0
  4  5  2  0
  5  6  1  0
  6  7  2  0
  7  8  1  0
  8  9  2  0
  9 10  1  0
 10 11  2  0
 11 12  1  0
 12 13  2  0
 12 14  1  0
 11 15  1  0
 10 16  1  0
  9 17  1  0
  7 18  1  0
  5 19  1  0
  3 20  1  0
  3 21  1  0
  2 22  1  0
 22 23  1  0
 23 24  1  0
 24 25  1  0
 25 26  1  0
 26 27  1  0
 27 28  1  0
 28 29  2  0
 29 30  1  0
 30 31  1  0
 31 32  1  0
 31 33  1  0
 29 34  1  0
 28 35  1  0
 25 36  1  0
 25 37  1  0
 24 38  1  0
 24 39  1  0
 23 40  1  0
 23 41  1  0
 13  4  1  0
 31 22  1  0
 13  8  1  0
 30 26  2  0
M  END
>  <cnnaffinities>  (70) 
[5.30118, 5.63879, 5.43542]

>  <score>  (70) 
5.30118

>  <index>  (70) 
72

>  <Smiles>  (70) 
O=C(C(c1c(nc(c2c(c(c(c(c12)[H])[H])[H])[H])[H])[H])([H])[H])N1C(C(C(c2sc(c(c2C1([H])[H])[H])[H])([H])[H])([H])[H])([H])[H]

>  <h>  (70) 
<NA>

>  <Training>  (70) 
True

>  <Success>  (70) 
True

>  <enamine_searched>  (70) 
False

>  <enamine_id>  (70) 
nan

$$$$

     RDKit          3D

 50 53  0  0  0  0  0  0  0  0999 V2000
   -5.6007   -3.0290  -21.5756 O   0  0  0  0  0  0  0  0  0  0  0  0
   -6.7576   -2.7535  -21.8601 C   0  0  0  0  0  0  0  0  0  0  0  0
   -7.4149   -1.4795  -21.2694 C   0  0  0  0  0  0  0  0  0  0  0  0
   -6.5810   -0.8310  -20.1855 C   0  0  0  0  0  0  0  0  0  0  0  0
   -6.8727   -1.0447  -18.8652 C   0  0  0  0  0  0  0  0  0  0  0  0
   -6.1828   -0.5423  -17.8061 N   0  0  0  0  0  0  0  0  0  0  0  0
   -5.1566    0.2233  -18.0695 C   0  0  0  0  0  0  0  0  0  0  0  0
   -4.7184    0.5288  -19.3837 C   0  0  0  0  0  0  0  0  0  0  0  0
   -3.5885    1.3516  -19.6244 C   0  0  0  0  0  0  0  0  0  0  0  0
   -3.1872    1.6313  -20.9001 C   0  0  0  0  0  0  0  0  0  0  0  0
   -3.9046    1.0920  -21.9927 C   0  0  0  0  0  0  0  0  0  0  0  0
   -4.9990    0.2888  -21.7864 C   0  0  0  0  0  0  0  0  0  0  0  0
   -5.4450   -0.0146  -20.4766 C   0  0  0  0  0  0  0  0  0  0  0  0
   -5.5270   -0.1330  -22.6359 H   0  0  0  0  0  0  0  0  0  0  0  0
   -3.5804    1.3172  -23.0033 H   0  0  0  0  0  0  0  0  0  0  0  0
   -2.3284    2.2725  -21.0846 H   0  0  0  0  0  0  0  0  0  0  0  0
   -3.0580    1.7736  -18.7717 H   0  0  0  0  0  0  0  0  0  0  0  0
   -4.6034    0.6274  -17.2167 H   0  0  0  0  0  0  0  0  0  0  0  0
   -7.7183   -1.6680  -18.5828 H   0  0  0  0  0  0  0  0  0  0  0  0
   -7.6153   -0.7495  -22.0659 H   0  0  0  0  0  0  0  0  0  0  0  0
   -8.3953   -1.7472  -20.8488 H   0  0  0  0  0  0  0  0  0  0  0  0
   -7.5202   -3.5824  -22.6611 N   0  0  0  0  0  0  0  0  0  0  0  0
   -8.6627   -3.1243  -23.4505 C   0  0  0  0  0  0  0  0  0  0  0  0
   -9.7327   -4.1994  -23.5638 C   0  0  0  0  0  0  0  0  0  0  0  0
   -9.1575   -5.4964  -24.1063 C   0  0  0  0  0  0  0  0  0  0  0  0
   -7.9844   -5.9344  -23.2420 C   0  0  0  0  0  0  0  0  0  0  0  0
   -6.9118   -4.8510  -23.1006 C   0  0  1  0  0  0  0  0  0  0  0  0
   -6.0425   -4.6962  -24.3694 C   0  0  0  0  0  0  0  0  0  0  0  0
   -5.2088   -5.9204  -24.6879 C   0  0  0  0  0  0  0  0  0  0  0  0
   -4.0476   -6.1893  -23.9578 C   0  0  0  0  0  0  0  0  0  0  0  0
   -3.2853   -7.3206  -24.2198 C   0  0  0  0  0  0  0  0  0  0  0  0
   -3.6707   -8.2119  -25.2173 C   0  0  0  0  0  0  0  0  0  0  0  0
   -4.8280   -7.9610  -25.9495 C   0  0  0  0  0  0  0  0  0  0  0  0
   -5.5857   -6.8250  -25.6831 C   0  0  0  0  0  0  0  0  0  0  0  0
   -6.4941   -6.6399  -26.2531 H   0  0  0  0  0  0  0  0  0  0  0  0
   -5.1414   -8.6463  -26.7320 H   0  0  0  0  0  0  0  0  0  0  0  0
   -3.0714   -9.0921  -25.4256 H   0  0  0  0  0  0  0  0  0  0  0  0
   -2.3830   -7.5086  -23.6439 H   0  0  0  0  0  0  0  0  0  0  0  0
   -3.7420   -5.4960  -23.1769 H   0  0  0  0  0  0  0  0  0  0  0  0
   -6.6845   -4.4567  -25.2239 H   0  0  0  0  0  0  0  0  0  0  0  0
   -5.3802   -3.8381  -24.2148 H   0  0  0  0  0  0  0  0  0  0  0  0
   -6.2391   -5.1508  -22.2982 H   0  0  0  0  0  0  0  0  0  0  0  0
   -8.3500   -6.1919  -22.2444 H   0  0  0  0  0  0  0  0  0  0  0  0
   -7.5384   -6.8519  -23.6376 H   0  0  0  0  0  0  0  0  0  0  0  0
   -9.9261   -6.2710  -24.1409 H   0  0  0  0  0  0  0  0  0  0  0  0
   -8.8349   -5.3714  -25.1467 H   0  0  0  0  0  0  0  0  0  0  0  0
  -10.1654   -4.3762  -22.5766 H   0  0  0  0  0  0  0  0  0  0  0  0
  -10.5499   -3.8468  -24.1986 H   0  0  0  0  0  0  0  0  0  0  0  0
   -9.0838   -2.2316  -22.9917 H   0  0  0  0  0  0  0  0  0  0  0  0
   -8.3548   -2.8300  -24.4651 H   0  0  0  0  0  0  0  0  0  0  0  0
  1  2  2  0
  2  3  1  0
  3  4  1  0
  4  5  2  0
  5  6  1  0
  6  7  2  0
  7  8  1  0
  8  9  2  0
  9 10  1  0
 10 11  2  0
 11 12  1  0
 12 13  2  0
 12 14  1  0
 11 15  1  0
 10 16  1  0
  9 17  1  0
  7 18  1  0
  5 19  1  0
  3 20  1  0
  3 21  1  0
  2 22  1  0
 22 23  1  0
 23 24  1  0
 24 25  1  0
 25 26  1  0
 26 27  1  0
 27 28  1  0
 28 29  1  0
 29 30  2  0
 30 31  1  0
 31 32  2  0
 32 33  1  0
 33 34  2  0
 34 35  1  0
 33 36  1  0
 32 37  1  0
 31 38  1  0
 30 39  1  0
 28 40  1  0
 28 41  1  0
 27 42  1  1
 26 43  1  0
 26 44  1  0
 25 45  1  0
 25 46  1  0
 24 47  1  0
 24 48  1  0
 23 49  1  0
 23 50  1  0
 13  4  1  0
 27 22  1  0
 34 29  1  0
 13  8  1  0
M  END
>  <cnnaffinities>  (71) 
[5.66578]

>  <score>  (71) 
5.66578

>  <index>  (71) 
73

>  <Smiles>  (71) 
O=C(C(c1c(nc(c2c(c(c(c(c12)[H])[H])[H])[H])[H])[H])([H])[H])N1C(C(C(C([C@]1(C(c1c(c(c(c(c1[H])[H])[H])[H])[H])([H])[H])[H])([H])[H])([H])[H])([H])[H])([H])[H]

>  <h>  (71) 
<NA>

>  <Training>  (71) 
True

>  <Success>  (71) 
True

>  <enamine_searched>  (71) 
False

>  <enamine_id>  (71) 
nan

$$$$

     RDKit          3D

 43 47  0  0  0  0  0  0  0  0999 V2000
   -9.4393   -0.4761  -20.9788 O   0  0  0  0  0  0  0  0  0  0  0  0
   -8.7517   -1.3710  -21.3760 C   0  0  0  0  0  0  0  0  0  0  0  0
   -9.1364   -2.4586  -22.1165 N   0  0  0  0  0  0  0  0  0  0  0  0
   -8.0403   -3.1485  -22.7457 C   0  0  1  0  0  0  0  0  0  0  0  0
   -8.1066   -4.6901  -22.7201 C   0  0  0  0  0  0  0  0  0  0  0  0
   -8.2242   -4.7218  -24.2755 C   0  0  2  0  0  0  0  0  0  0  0  0
   -7.1752   -5.5204  -24.9839 C   0  0  0  0  0  0  0  0  0  0  0  0
   -5.8188   -5.2761  -24.7401 C   0  0  0  0  0  0  0  0  0  0  0  0
   -4.8304   -6.0094  -25.3835 C   0  0  0  0  0  0  0  0  0  0  0  0
   -5.1799   -7.0098  -26.2872 C   0  0  0  0  0  0  0  0  0  0  0  0
   -6.5190   -7.2708  -26.5422 C   0  0  0  0  0  0  0  0  0  0  0  0
   -7.4970   -6.5306  -25.8899 C   0  0  0  0  0  0  0  0  0  0  0  0
   -9.1665   -6.9133  -26.2445 Cl  0  0  0  0  0  0  0  0  0  0  0  0
   -6.8227   -8.0375  -27.2469 H   0  0  0  0  0  0  0  0  0  0  0  0
   -4.4134   -7.5861  -26.7960 H   0  0  0  0  0  0  0  0  0  0  0  0
   -3.7868   -5.7944  -25.1790 H   0  0  0  0  0  0  0  0  0  0  0  0
   -5.5401   -4.4948  -24.0314 H   0  0  0  0  0  0  0  0  0  0  0  0
   -8.0380   -3.1719  -24.3021 C   0  0  0  0  0  0  0  0  0  0  0  0
   -8.8621   -2.6062  -24.7518 H   0  0  0  0  0  0  0  0  0  0  0  0
   -7.1012   -2.8254  -24.7550 H   0  0  0  0  0  0  0  0  0  0  0  0
   -9.2283   -5.0116  -24.5963 H   0  0  0  0  0  0  0  0  0  0  0  0
   -8.9720   -5.0641  -22.1663 H   0  0  0  0  0  0  0  0  0  0  0  0
   -7.1965   -5.1448  -22.3144 H   0  0  0  0  0  0  0  0  0  0  0  0
   -6.8403   -2.5166  -22.0561 C   0  0  0  0  0  0  0  0  0  0  0  0
   -5.6815   -2.8039  -22.2266 O   0  0  0  0  0  0  0  0  0  0  0  0
   -7.3452   -1.5221  -21.2041 N   0  0  0  0  0  0  0  0  0  0  0  0
   -6.5861   -0.8580  -20.1907 C   0  0  0  0  0  0  0  0  0  0  0  0
   -6.9044   -1.0581  -18.8705 C   0  0  0  0  0  0  0  0  0  0  0  0
   -6.2044   -0.5443  -17.8320 N   0  0  0  0  0  0  0  0  0  0  0  0
   -5.1699    0.2089  -18.0964 C   0  0  0  0  0  0  0  0  0  0  0  0
   -4.7393    0.5232  -19.4113 C   0  0  0  0  0  0  0  0  0  0  0  0
   -3.6082    1.3532  -19.6391 C   0  0  0  0  0  0  0  0  0  0  0  0
   -3.2215    1.6591  -20.9131 C   0  0  0  0  0  0  0  0  0  0  0  0
   -3.9564    1.1478  -22.0067 C   0  0  0  0  0  0  0  0  0  0  0  0
   -5.0490    0.3388  -21.8105 C   0  0  0  0  0  0  0  0  0  0  0  0
   -5.4688   -0.0117  -20.4989 C   0  0  0  0  0  0  0  0  0  0  0  0
   -5.6003   -0.0504  -22.6595 H   0  0  0  0  0  0  0  0  0  0  0  0
   -3.6524    1.4027  -23.0162 H   0  0  0  0  0  0  0  0  0  0  0  0
   -2.3672    2.3092  -21.0922 H   0  0  0  0  0  0  0  0  0  0  0  0
   -3.0767    1.7592  -18.7822 H   0  0  0  0  0  0  0  0  0  0  0  0
   -4.6214    0.6127  -17.2440 H   0  0  0  0  0  0  0  0  0  0  0  0
   -7.7491   -1.6819  -18.5931 H   0  0  0  0  0  0  0  0  0  0  0  0
  -10.1005   -2.6114  -22.3686 H   0  0  0  0  0  0  0  0  0  0  0  0
  1  2  2  0
  2  3  1  0
  4  3  1  6
  4  5  1  0
  5  6  1  0
  6  7  1  0
  7  8  2  0
  8  9  1  0
  9 10  2  0
 10 11  1  0
 11 12  2  0
 12 13  1  0
 11 14  1  0
 10 15  1  0
  9 16  1  0
  8 17  1  0
  6 18  1  0
 18 19  1  0
 18 20  1  0
  6 21  1  1
  5 22  1  0
  5 23  1  0
  4 24  1  0
 24 25  2  0
 24 26  1  0
 26 27  1  0
 27 28  2  0
 28 29  1  0
 29 30  2  0
 30 31  1  0
 31 32  2  0
 32 33  1  0
 33 34  2  0
 34 35  1  0
 35 36  2  0
 35 37  1  0
 34 38  1  0
 33 39  1  0
 32 40  1  0
 30 41  1  0
 28 42  1  0
  3 43  1  0
 26  2  1  0
 36 27  1  0
 18  4  1  0
 36 31  1  0
 12  7  1  0
M  END
>  <cnnaffinities>  (72) 
[5.769]

>  <score>  (72) 
5.769

>  <index>  (72) 
74

>  <Smiles>  (72) 
O=C1N([C@]2(C([C@](c3c(c(c(c(c3Cl)[H])[H])[H])[H])(C2([H])[H])[H])([H])[H])C(=O)N1c1c(nc(c2c(c(c(c(c12)[H])[H])[H])[H])[H])[H])[H]

>  <h>  (72) 
<NA>

>  <Training>  (72) 
True

>  <Success>  (72) 
True

>  <enamine_searched>  (72) 
False

>  <enamine_id>  (72) 
nan

$$$$

     RDKit          3D

 66 71  0  0  0  0  0  0  0  0999 V2000
   -7.4763    3.3239  -21.9214 C   0  0  0  0  0  0  0  0  0  0  0  0
   -8.5444    2.8165  -22.7614 N   0  0  0  0  0  0  0  0  0  0  0  0
   -8.2077    2.0436  -23.8217 C   0  0  0  0  0  0  0  0  0  0  0  0
   -7.0422    1.7756  -24.0770 O   0  0  0  0  0  0  0  0  0  0  0  0
   -9.3719    1.4890  -24.6492 C   0  0  0  0  0  0  0  0  0  0  0  0
   -9.9067    0.3113  -23.9954 N   0  0  0  0  0  0  0  0  0  0  0  0
   -9.1333   -0.9224  -24.0266 C   0  0  0  0  0  0  0  0  0  0  0  0
   -9.2779   -1.7204  -22.7023 C   0  0  2  0  0  0  0  0  0  0  0  0
   -8.6622   -0.8727  -21.5490 C   0  0  0  0  0  0  0  0  0  0  0  0
   -9.1402    0.1110  -21.0196 O   0  0  0  0  0  0  0  0  0  0  0  0
   -7.4431   -1.4086  -21.2091 N   0  0  0  0  0  0  0  0  0  0  0  0
   -6.6391   -0.8206  -20.1997 C   0  0  0  0  0  0  0  0  0  0  0  0
   -6.9465   -1.0470  -18.8810 C   0  0  0  0  0  0  0  0  0  0  0  0
   -6.2294   -0.5706  -17.8373 N   0  0  0  0  0  0  0  0  0  0  0  0
   -5.1860    0.1728  -18.1060 C   0  0  0  0  0  0  0  0  0  0  0  0
   -4.7564    0.4940  -19.4234 C   0  0  0  0  0  0  0  0  0  0  0  0
   -3.6313    1.3282  -19.6553 C   0  0  0  0  0  0  0  0  0  0  0  0
   -3.2555    1.6473  -20.9306 C   0  0  0  0  0  0  0  0  0  0  0  0
   -3.9940    1.1548  -22.0292 C   0  0  0  0  0  0  0  0  0  0  0  0
   -5.0940    0.3498  -21.8326 C   0  0  0  0  0  0  0  0  0  0  0  0
   -5.5016   -0.0097  -20.5177 C   0  0  0  0  0  0  0  0  0  0  0  0
   -5.6777    0.0220  -22.6881 H   0  0  0  0  0  0  0  0  0  0  0  0
   -3.6985    1.4258  -23.0385 H   0  0  0  0  0  0  0  0  0  0  0  0
   -2.4013    2.2969  -21.1029 H   0  0  0  0  0  0  0  0  0  0  0  0
   -3.1004    1.7228  -18.7934 H   0  0  0  0  0  0  0  0  0  0  0  0
   -4.6198    0.5667  -17.2603 H   0  0  0  0  0  0  0  0  0  0  0  0
   -7.8137   -1.6532  -18.6292 H   0  0  0  0  0  0  0  0  0  0  0  0
   -7.0707   -2.5685  -21.9884 C   0  0  0  0  0  0  0  0  0  0  0  0
   -8.3778   -2.9910  -22.6806 C   0  0  2  0  0  0  0  0  0  0  0  0
   -8.0412   -3.7026  -23.9992 C   0  0  0  0  0  0  0  0  0  0  0  0
   -9.2193   -4.1520  -24.6948 N   0  0  0  0  0  0  0  0  0  0  0  0
   -9.2392   -4.8071  -25.9004 C   0  0  0  0  0  0  0  0  0  0  0  0
   -8.0812   -5.2425  -26.5834 C   0  0  0  0  0  0  0  0  0  0  0  0
   -8.1506   -5.9434  -27.7071 N   0  0  0  0  0  0  0  0  0  0  0  0
   -9.3650   -6.2143  -28.1995 C   0  0  0  0  0  0  0  0  0  0  0  0
  -10.4985   -5.7353  -27.5668 C   0  0  0  0  0  0  0  0  0  0  0  0
  -10.4344   -5.0415  -26.4347 N   0  0  0  0  0  0  0  0  0  0  0  0
  -11.4936   -5.8982  -27.9790 H   0  0  0  0  0  0  0  0  0  0  0  0
   -9.4334   -6.8225  -29.0994 H   0  0  0  0  0  0  0  0  0  0  0  0
   -7.0870   -5.0267  -26.1994 H   0  0  0  0  0  0  0  0  0  0  0  0
  -10.1253   -3.9053  -24.3215 H   0  0  0  0  0  0  0  0  0  0  0  0
   -7.3959   -4.5629  -23.7703 H   0  0  0  0  0  0  0  0  0  0  0  0
   -7.4421   -3.0281  -24.6310 H   0  0  0  0  0  0  0  0  0  0  0  0
   -8.8799   -3.7100  -22.0305 H   0  0  0  0  0  0  0  0  0  0  0  0
   -6.2975   -2.3129  -22.7284 H   0  0  0  0  0  0  0  0  0  0  0  0
   -6.6649   -3.3616  -21.3515 H   0  0  0  0  0  0  0  0  0  0  0  0
  -10.7707   -1.9194  -22.4505 C   0  0  0  0  0  0  0  0  0  0  0  0
  -11.3185   -3.0112  -21.7615 C   0  0  0  0  0  0  0  0  0  0  0  0
  -12.6740   -3.0346  -21.4661 C   0  0  0  0  0  0  0  0  0  0  0  0
  -13.3333   -4.2261  -20.3851 Cl  0  0  0  0  0  0  0  0  0  0  0  0
  -13.5388   -2.0458  -21.9268 C   0  0  0  0  0  0  0  0  0  0  0  0
  -13.0061   -0.9447  -22.5615 C   0  0  0  0  0  0  0  0  0  0  0  0
  -11.6355   -0.8650  -22.7887 C   0  0  0  0  0  0  0  0  0  0  0  0
  -11.0917    0.4198  -23.3356 C   0  0  0  0  0  0  0  0  0  0  0  0
  -11.6770    1.4911  -23.2158 O   0  0  0  0  0  0  0  0  0  0  0  0
  -13.6358   -0.1170  -22.8703 H   0  0  0  0  0  0  0  0  0  0  0  0
  -14.6050   -2.1538  -21.7658 H   0  0  0  0  0  0  0  0  0  0  0  0
  -10.7090   -3.8377  -21.4148 H   0  0  0  0  0  0  0  0  0  0  0  0
   -8.0799   -0.6705  -24.1829 H   0  0  0  0  0  0  0  0  0  0  0  0
   -9.4656   -1.5327  -24.8734 H   0  0  0  0  0  0  0  0  0  0  0  0
  -10.1805    2.2175  -24.7569 H   0  0  0  0  0  0  0  0  0  0  0  0
   -9.0024    1.2380  -25.6483 H   0  0  0  0  0  0  0  0  0  0  0  0
   -9.4759    2.7690  -22.3775 H   0  0  0  0  0  0  0  0  0  0  0  0
   -7.8833    3.9933  -21.1601 H   0  0  0  0  0  0  0  0  0  0  0  0
   -6.9227    2.4884  -21.4697 H   0  0  0  0  0  0  0  0  0  0  0  0
   -6.7727    3.8956  -22.5306 H   0  0  0  0  0  0  0  0  0  0  0  0
  1  2  1  0
  2  3  1  0
  3  4  2  0
  3  5  1  0
  5  6  1  0
  6  7  1  0
  8  7  1  6
  8  9  1  0
  9 10  2  0
  9 11  1  0
 11 12  1  0
 12 13  2  0
 13 14  1  0
 14 15  2  0
 15 16  1  0
 16 17  2  0
 17 18  1  0
 18 19  2  0
 19 20  1  0
 20 21  2  0
 20 22  1  0
 19 23  1  0
 18 24  1  0
 17 25  1  0
 15 26  1  0
 13 27  1  0
 11 28  1  0
 28 29  1  0
 29 30  1  0
 30 31  1  0
 31 32  1  0
 32 33  2  0
 33 34  1  0
 34 35  2  0
 35 36  1  0
 36 37  2  0
 36 38  1  0
 35 39  1  0
 33 40  1  0
 31 41  1  0
 30 42  1  0
 30 43  1  0
 29 44  1  1
 28 45  1  0
 28 46  1  0
  8 47  1  0
 47 48  2  0
 48 49  1  0
 49 50  1  0
 49 51  2  0
 51 52  1  0
 52 53  2  0
 53 54  1  0
 54 55  2  0
 52 56  1  0
 51 57  1  0
 48 58  1  0
  7 59  1  0
  7 60  1  0
  5 61  1  0
  5 62  1  0
  2 63  1  0
  1 64  1  0
  1 65  1  0
  1 66  1  0
 54  6  1  0
 29  8  1  0
 37 32  1  0
 53 47  1  0
 21 12  1  0
 21 16  1  0
M  END
>  <cnnaffinities>  (73) 
[6.63086]

>  <score>  (73) 
6.63086

>  <index>  (73) 
75

>  <Smiles>  (73) 
C(N(C(=O)C(N1C([C@@]2(C(=O)N(c3c(nc(c4c(c(c(c(c34)[H])[H])[H])[H])[H])[H])C([C@@]2(C(N(c2c(nc(c(n2)[H])[H])[H])[H])([H])[H])[H])([H])[H])c2c(c(Cl)c(c(c2C1=O)[H])[H])[H])([H])[H])([H])[H])[H])([H])([H])[H]

>  <h>  (73) 
<NA>

>  <Training>  (73) 
True

>  <Success>  (73) 
True

>  <enamine_searched>  (73) 
False

>  <enamine_id>  (73) 
nan

$$$$

     RDKit          3D

 66 71  0  0  0  0  0  0  0  0999 V2000
   -8.1619   -3.7344  -23.9326 C   0  0  0  0  0  0  0  0  0  0  0  0
   -8.3485   -3.0067  -22.6054 C   0  0  1  0  0  0  0  0  0  0  0  0
   -7.0189   -2.5386  -21.9807 C   0  0  0  0  0  0  0  0  0  0  0  0
   -7.4062   -1.3906  -21.1857 N   0  0  0  0  0  0  0  0  0  0  0  0
   -6.6121   -0.8062  -20.1726 C   0  0  0  0  0  0  0  0  0  0  0  0
   -6.9205   -1.0347  -18.8546 C   0  0  0  0  0  0  0  0  0  0  0  0
   -6.2124   -0.5428  -17.8111 N   0  0  0  0  0  0  0  0  0  0  0  0
   -5.1790    0.2138  -18.0867 C   0  0  0  0  0  0  0  0  0  0  0  0
   -4.7557    0.5378  -19.4063 C   0  0  0  0  0  0  0  0  0  0  0  0
   -3.6265    1.3623  -19.6471 C   0  0  0  0  0  0  0  0  0  0  0  0
   -3.2480    1.6665  -20.9246 C   0  0  0  0  0  0  0  0  0  0  0  0
   -3.9826    1.1696  -22.0222 C   0  0  0  0  0  0  0  0  0  0  0  0
   -5.0796    0.3638  -21.8183 C   0  0  0  0  0  0  0  0  0  0  0  0
   -5.4893    0.0168  -20.4996 C   0  0  0  0  0  0  0  0  0  0  0  0
   -5.6259   -0.0117  -22.6790 H   0  0  0  0  0  0  0  0  0  0  0  0
   -3.6742    1.4237  -23.0336 H   0  0  0  0  0  0  0  0  0  0  0  0
   -2.3802    2.2943  -21.1004 H   0  0  0  0  0  0  0  0  0  0  0  0
   -3.0806    1.7466  -18.7906 H   0  0  0  0  0  0  0  0  0  0  0  0
   -4.6001    0.6072  -17.2481 H   0  0  0  0  0  0  0  0  0  0  0  0
   -7.7834   -1.6503  -18.6076 H   0  0  0  0  0  0  0  0  0  0  0  0
   -8.6674   -0.9301  -21.4595 C   0  0  0  0  0  0  0  0  0  0  0  0
   -9.2123   -0.0038  -20.8834 O   0  0  0  0  0  0  0  0  0  0  0  0
   -9.2466   -1.7435  -22.6299 C   0  0  1  0  0  0  0  0  0  0  0  0
   -9.0683   -0.9241  -23.9370 C   0  0  0  0  0  0  0  0  0  0  0  0
   -9.8354    0.3006  -23.8969 N   0  0  0  0  0  0  0  0  0  0  0  0
   -9.2359    1.5459  -24.3045 C   0  0  0  0  0  0  0  0  0  0  0  0
   -8.4282    2.1748  -23.1642 C   0  0  0  0  0  0  0  0  0  0  0  0
   -7.8530    3.4977  -23.5991 N   0  0  0  0  0  4  0  0  0  0  0  0
   -8.7944    4.6439  -23.2680 C   0  0  0  0  0  0  0  0  0  0  0  0
   -8.5129    5.2785  -21.8862 C   0  0  0  0  0  0  0  0  0  0  0  0
   -7.7497    4.4444  -21.0349 O   0  0  0  0  0  0  0  0  0  0  0  0
   -6.4941    4.0321  -21.5549 C   0  0  0  0  0  0  0  0  0  0  0  0
   -6.4867    3.8451  -23.0747 C   0  0  0  0  0  0  0  0  0  0  0  0
   -6.1759    4.7621  -23.5858 H   0  0  0  0  0  0  0  0  0  0  0  0
   -5.7661    3.0638  -23.3402 H   0  0  0  0  0  0  0  0  0  0  0  0
   -5.7214    4.7628  -21.2764 H   0  0  0  0  0  0  0  0  0  0  0  0
   -6.2265    3.0750  -21.0837 H   0  0  0  0  0  0  0  0  0  0  0  0
   -9.4731    5.4658  -21.3861 H   0  0  0  0  0  0  0  0  0  0  0  0
   -8.0293    6.2579  -22.0052 H   0  0  0  0  0  0  0  0  0  0  0  0
   -8.6948    5.3930  -24.0563 H   0  0  0  0  0  0  0  0  0  0  0  0
   -9.8139    4.2477  -23.2986 H   0  0  0  0  0  0  0  0  0  0  0  0
   -7.7688    3.4271  -24.6273 H   0  0  0  0  0  0  0  0  0  0  0  0
   -9.0571    2.3411  -22.2869 H   0  0  0  0  0  0  0  0  0  0  0  0
   -7.6178    1.5060  -22.8603 H   0  0  0  0  0  0  0  0  0  0  0  0
  -10.0480    2.2110  -24.6133 H   0  0  0  0  0  0  0  0  0  0  0  0
   -8.5899    1.3516  -25.1704 H   0  0  0  0  0  0  0  0  0  0  0  0
  -11.0853    0.3531  -23.3672 C   0  0  0  0  0  0  0  0  0  0  0  0
  -11.7298    1.3944  -23.3185 O   0  0  0  0  0  0  0  0  0  0  0  0
  -11.6169   -0.9444  -22.8447 C   0  0  0  0  0  0  0  0  0  0  0  0
  -12.9963   -1.0938  -22.7185 C   0  0  0  0  0  0  0  0  0  0  0  0
  -13.5104   -2.1609  -22.0098 C   0  0  0  0  0  0  0  0  0  0  0  0
  -12.6205   -3.0751  -21.4470 C   0  0  0  0  0  0  0  0  0  0  0  0
  -13.2273   -4.2404  -20.3118 Cl  0  0  0  0  0  0  0  0  0  0  0  0
  -11.2589   -3.0197  -21.6923 C   0  0  0  0  0  0  0  0  0  0  0  0
  -10.7344   -1.9495  -22.4233 C   0  0  0  0  0  0  0  0  0  0  0  0
  -10.6306   -3.7984  -21.2699 H   0  0  0  0  0  0  0  0  0  0  0  0
  -14.5750   -2.2709  -21.8339 H   0  0  0  0  0  0  0  0  0  0  0  0
  -13.6460   -0.3404  -23.1521 H   0  0  0  0  0  0  0  0  0  0  0  0
   -8.0132   -0.6706  -24.1043 H   0  0  0  0  0  0  0  0  0  0  0  0
   -9.4208   -1.5366  -24.7748 H   0  0  0  0  0  0  0  0  0  0  0  0
   -6.2893   -2.2583  -22.7545 H   0  0  0  0  0  0  0  0  0  0  0  0
   -6.5665   -3.3086  -21.3464 H   0  0  0  0  0  0  0  0  0  0  0  0
   -8.7947   -3.7007  -21.8893 H   0  0  0  0  0  0  0  0  0  0  0  0
   -9.1221   -3.9995  -24.3889 H   0  0  0  0  0  0  0  0  0  0  0  0
   -7.6081   -3.1103  -24.6435 H   0  0  0  0  0  0  0  0  0  0  0  0
   -7.5891   -4.6564  -23.7927 H   0  0  0  0  0  0  0  0  0  0  0  0
  1  2  1  0
  2  3  1  0
  3  4  1  0
  4  5  1  0
  5  6  2  0
  6  7  1  0
  7  8  2  0
  8  9  1  0
  9 10  2  0
 10 11  1  0
 11 12  2  0
 12 13  1  0
 13 14  2  0
 13 15  1  0
 12 16  1  0
 11 17  1  0
 10 18  1  0
  8 19  1  0
  6 20  1  0
  4 21  1  0
 21 22  2  0
 21 23  1  0
 23 24  1  6
 24 25  1  0
 25 26  1  0
 26 27  1  0
 27 28  1  0
 28 29  1  0
 29 30  1  0
 30 31  1  0
 31 32  1  0
 32 33  1  0
 33 34  1  0
 33 35  1  0
 32 36  1  0
 32 37  1  0
 30 38  1  0
 30 39  1  0
 29 40  1  0
 29 41  1  0
 28 42  1  0
 27 43  1  0
 27 44  1  0
 26 45  1  0
 26 46  1  0
 25 47  1  0
 47 48  2  0
 47 49  1  0
 49 50  2  0
 50 51  1  0
 51 52  2  0
 52 53  1  0
 52 54  1  0
 54 55  2  0
 54 56  1  0
 51 57  1  0
 50 58  1  0
 24 59  1  0
 24 60  1  0
  3 61  1  0
  3 62  1  0
  2 63  1  1
  1 64  1  0
  1 65  1  0
  1 66  1  0
 23  2  1  0
 33 28  1  0
 55 49  1  0
 14  5  1  0
 55 23  1  0
 14  9  1  0
M  CHG  1  28   1
M  END
>  <cnnaffinities>  (74) 
[6.6127, 6.62149]

>  <score>  (74) 
6.6127

>  <index>  (74) 
76

>  <Smiles>  (74) 
C([C@]1(C(N(c2c(nc(c3c(c(c(c(c23)[H])[H])[H])[H])[H])[H])C(=O)[C@]21C(N(C(C([N+]1(C(C(OC(C1([H])[H])([H])[H])([H])[H])([H])[H])[H])([H])[H])([H])[H])C(=O)c1c(c(c(Cl)c(c21)[H])[H])[H])([H])[H])([H])[H])[H])([H])([H])[H]

>  <h>  (74) 
<NA>

>  <Training>  (74) 
True

>  <Success>  (74) 
True

>  <enamine_searched>  (74) 
False

>  <enamine_id>  (74) 
nan

$$$$

     RDKit          3D

 55 60  0  0  0  0  0  0  0  0999 V2000
  -10.2369   -2.9727  -22.0716 C   0  0  0  0  0  0  0  0  0  0  0  0
   -9.1664   -2.0172  -22.6273 C   0  0  1  0  0  0  0  0  0  0  0  0
   -8.6945   -1.0410  -21.5291 C   0  0  0  0  0  0  0  0  0  0  0  0
   -7.3462   -1.4504  -21.2064 N   0  0  0  0  0  0  0  0  0  0  0  0
   -6.5684   -0.8533  -20.1882 C   0  0  0  0  0  0  0  0  0  0  0  0
   -6.9018   -1.0541  -18.8725 C   0  0  0  0  0  0  0  0  0  0  0  0
   -6.2146   -0.5428  -17.8252 N   0  0  0  0  0  0  0  0  0  0  0  0
   -5.1742    0.2063  -18.0956 C   0  0  0  0  0  0  0  0  0  0  0  0
   -4.7302    0.5096  -19.4140 C   0  0  0  0  0  0  0  0  0  0  0  0
   -3.6079    1.3481  -19.6424 C   0  0  0  0  0  0  0  0  0  0  0  0
   -3.2266    1.6639  -20.9166 C   0  0  0  0  0  0  0  0  0  0  0  0
   -3.9545    1.1602  -22.0200 C   0  0  0  0  0  0  0  0  0  0  0  0
   -5.0387    0.3398  -21.8288 C   0  0  0  0  0  0  0  0  0  0  0  0
   -5.4473   -0.0200  -20.5081 C   0  0  0  0  0  0  0  0  0  0  0  0
   -5.5927   -0.0361  -22.6896 H   0  0  0  0  0  0  0  0  0  0  0  0
   -3.6518    1.4310  -23.0276 H   0  0  0  0  0  0  0  0  0  0  0  0
   -2.3730    2.3148  -21.0863 H   0  0  0  0  0  0  0  0  0  0  0  0
   -3.0839    1.7502  -18.7795 H   0  0  0  0  0  0  0  0  0  0  0  0
   -4.6246    0.6162  -17.2485 H   0  0  0  0  0  0  0  0  0  0  0  0
   -7.7588   -1.6797  -18.6219 H   0  0  0  0  0  0  0  0  0  0  0  0
   -6.8243   -2.3976  -22.0496 C   0  0  0  0  0  0  0  0  0  0  0  0
   -5.7247   -2.9004  -21.9206 O   0  0  0  0  0  0  0  0  0  0  0  0
   -7.8618   -2.6813  -23.1565 C   0  0  1  0  0  0  0  0  0  0  0  0
   -7.9672   -4.1941  -23.3495 C   0  0  0  0  0  0  0  0  0  0  0  0
   -6.7081   -4.6774  -23.8827 N   0  0  0  0  0  0  0  0  0  0  0  0
   -6.2307   -5.9587  -23.4046 C   0  0  0  0  0  0  0  0  0  0  0  0
   -7.0583   -7.0655  -23.9868 C   0  0  0  0  0  0  0  0  0  0  0  0
   -7.0195   -7.5624  -25.2439 C   0  0  0  0  0  0  0  0  0  0  0  0
   -8.1868   -8.2312  -25.4581 O   0  0  0  0  0  0  0  0  0  0  0  0
   -8.8502   -8.1478  -24.2860 C   0  0  0  0  0  0  0  0  0  0  0  0
   -8.2322   -7.4889  -23.3568 N   0  0  0  0  0  0  0  0  0  0  0  0
   -9.7982   -8.6747  -24.2484 H   0  0  0  0  0  0  0  0  0  0  0  0
   -6.2695   -7.6170  -26.0283 H   0  0  0  0  0  0  0  0  0  0  0  0
   -5.1778   -6.0308  -23.6871 H   0  0  0  0  0  0  0  0  0  0  0  0
   -6.2962   -5.9375  -22.3101 H   0  0  0  0  0  0  0  0  0  0  0  0
   -6.2515   -4.2332  -25.0926 C   0  0  0  0  0  0  0  0  0  0  0  0
   -5.5458   -4.9104  -25.8337 O   0  0  0  0  0  0  0  0  0  0  0  0
   -6.6381   -2.8312  -25.3981 C   0  0  0  0  0  0  0  0  0  0  0  0
   -6.1762   -2.2818  -26.5910 C   0  0  0  0  0  0  0  0  0  0  0  0
   -6.3972   -0.9456  -26.8586 C   0  0  0  0  0  0  0  0  0  0  0  0
   -7.0774   -0.1825  -25.9150 C   0  0  0  0  0  0  0  0  0  0  0  0
   -7.2696    1.1269  -26.1638 F   0  0  0  0  0  0  0  0  0  0  0  0
   -7.5599   -0.7157  -24.7358 C   0  0  0  0  0  0  0  0  0  0  0  0
   -7.3684   -2.0767  -24.4707 C   0  0  0  0  0  0  0  0  0  0  0  0
   -8.0768   -0.0562  -24.0455 H   0  0  0  0  0  0  0  0  0  0  0  0
   -6.0371   -0.4715  -27.7606 H   0  0  0  0  0  0  0  0  0  0  0  0
   -5.6246   -2.9376  -27.2605 H   0  0  0  0  0  0  0  0  0  0  0  0
   -8.7955   -4.4251  -24.0386 H   0  0  0  0  0  0  0  0  0  0  0  0
   -8.1488   -4.6973  -22.3950 H   0  0  0  0  0  0  0  0  0  0  0  0
   -9.3363   -1.1243  -20.6572 H   0  0  0  0  0  0  0  0  0  0  0  0
   -8.7088    0.0066  -21.8550 H   0  0  0  0  0  0  0  0  0  0  0  0
   -9.6408   -1.4759  -23.4545 H   0  0  0  0  0  0  0  0  0  0  0  0
  -11.0898   -2.3977  -21.6923 H   0  0  0  0  0  0  0  0  0  0  0  0
   -9.8492   -3.5778  -21.2434 H   0  0  0  0  0  0  0  0  0  0  0  0
  -10.6179   -3.6483  -22.8438 H   0  0  0  0  0  0  0  0  0  0  0  0
  1  2  1  0
  2  3  1  0
  3  4  1  0
  4  5  1  0
  5  6  2  0
  6  7  1  0
  7  8  2  0
  8  9  1  0
  9 10  2  0
 10 11  1  0
 11 12  2  0
 12 13  1  0
 13 14  2  0
 13 15  1  0
 12 16  1  0
 11 17  1  0
 10 18  1  0
  8 19  1  0
  6 20  1  0
  4 21  1  0
 21 22  2  0
 21 23  1  0
 23 24  1  6
 24 25  1  0
 25 26  1  0
 26 27  1  0
 27 28  2  0
 28 29  1  0
 29 30  1  0
 30 31  2  0
 30 32  1  0
 28 33  1  0
 26 34  1  0
 26 35  1  0
 25 36  1  0
 36 37  2  0
 36 38  1  0
 38 39  2  0
 39 40  1  0
 40 41  2  0
 41 42  1  0
 41 43  1  0
 43 44  2  0
 43 45  1  0
 40 46  1  0
 39 47  1  0
 24 48  1  0
 24 49  1  0
  3 50  1  0
  3 51  1  0
  2 52  1  6
  1 53  1  0
  1 54  1  0
  1 55  1  0
 23  2  1  0
 31 27  1  0
 44 38  1  0
 14  5  1  0
 44 23  1  0
 14  9  1  0
M  END
>  <cnnaffinities>  (75) 
[5.92199, 6.60543]

>  <score>  (75) 
5.92199

>  <index>  (75) 
77

>  <Smiles>  (75) 
C([C@]1(C(N(c2c(nc(c3c(c(c(c(c23)[H])[H])[H])[H])[H])[H])C(=O)[C@]21C(N(C(c1c(oc(n1)[H])[H])([H])[H])C(=O)c1c(c(c(F)c(c21)[H])[H])[H])([H])[H])([H])[H])[H])([H])([H])[H]

>  <h>  (75) 
<NA>

>  <Training>  (75) 
True

>  <Success>  (75) 
True

>  <enamine_searched>  (75) 
False

>  <enamine_id>  (75) 
nan

$$$$

     RDKit          3D

 56 60  0  0  0  0  0  0  0  0999 V2000
  -14.4817   -0.5293  -22.6534 C   0  0  0  0  0  0  0  0  0  0  0  0
  -13.5643   -1.4492  -22.0044 N   0  0  0  0  0  0  0  0  0  0  0  0
  -13.4573   -2.7199  -22.4911 C   0  0  0  0  0  0  0  0  0  0  0  0
  -14.0874   -3.0460  -23.4819 O   0  0  0  0  0  0  0  0  0  0  0  0
  -12.4978   -3.7060  -21.7970 C   0  0  0  0  0  0  0  0  0  0  0  0
  -11.1180   -3.6854  -22.3171 N   0  0  0  0  0  0  0  0  0  0  0  0
   -9.9991   -3.1498  -21.5404 C   0  0  0  0  0  0  0  0  0  0  0  0
   -8.7569   -2.7544  -22.3973 C   0  0  2  0  0  0  0  0  0  0  0  0
   -7.5864   -2.5965  -21.4145 C   0  0  0  0  0  0  0  0  0  0  0  0
   -6.9642   -3.4775  -20.8510 O   0  0  0  0  0  0  0  0  0  0  0  0
   -7.3494   -1.2564  -21.2283 N   0  0  0  0  0  0  0  0  0  0  0  0
   -6.5328   -0.8079  -20.1714 C   0  0  0  0  0  0  0  0  0  0  0  0
   -6.8261   -1.1123  -18.8687 C   0  0  0  0  0  0  0  0  0  0  0  0
   -6.1557   -0.5921  -17.8128 N   0  0  0  0  0  0  0  0  0  0  0  0
   -5.1534    0.2170  -18.0613 C   0  0  0  0  0  0  0  0  0  0  0  0
   -4.7041    0.5583  -19.3730 C   0  0  0  0  0  0  0  0  0  0  0  0
   -3.5842    1.3952  -19.6235 C   0  0  0  0  0  0  0  0  0  0  0  0
   -3.2078    1.6867  -20.9088 C   0  0  0  0  0  0  0  0  0  0  0  0
   -3.9199    1.1515  -22.0059 C   0  0  0  0  0  0  0  0  0  0  0  0
   -4.9940    0.3277  -21.7880 C   0  0  0  0  0  0  0  0  0  0  0  0
   -5.4167    0.0294  -20.4666 C   0  0  0  0  0  0  0  0  0  0  0  0
   -5.5329   -0.1174  -22.6169 H   0  0  0  0  0  0  0  0  0  0  0  0
   -3.6146    1.3929  -23.0216 H   0  0  0  0  0  0  0  0  0  0  0  0
   -2.3553    2.3338  -21.0954 H   0  0  0  0  0  0  0  0  0  0  0  0
   -3.0355    1.7998  -18.7779 H   0  0  0  0  0  0  0  0  0  0  0  0
   -4.6392    0.6352  -17.1965 H   0  0  0  0  0  0  0  0  0  0  0  0
   -7.6426   -1.7957  -18.6362 H   0  0  0  0  0  0  0  0  0  0  0  0
   -8.3335   -0.4020  -21.8689 C   0  0  0  0  0  0  0  0  0  0  0  0
   -8.8944   -1.3053  -22.9784 C   0  0  2  0  0  0  0  0  0  0  0  0
  -10.2929   -0.9074  -23.4366 C   0  0  0  0  0  0  0  0  0  0  0  0
  -10.2831    0.0767  -23.9149 H   0  0  0  0  0  0  0  0  0  0  0  0
  -10.6846   -1.6430  -24.1463 H   0  0  0  0  0  0  0  0  0  0  0  0
  -10.9940   -0.8563  -22.5965 H   0  0  0  0  0  0  0  0  0  0  0  0
   -8.1988   -1.2629  -23.8281 H   0  0  0  0  0  0  0  0  0  0  0  0
   -9.1112   -0.1040  -21.1441 H   0  0  0  0  0  0  0  0  0  0  0  0
   -7.8616    0.5108  -22.2463 H   0  0  0  0  0  0  0  0  0  0  0  0
   -8.4570   -3.8277  -23.4251 C   0  0  0  0  0  0  0  0  0  0  0  0
   -7.1743   -4.0005  -23.9826 C   0  0  0  0  0  0  0  0  0  0  0  0
   -6.9584   -4.9727  -24.9476 C   0  0  0  0  0  0  0  0  0  0  0  0
   -5.3843   -5.1717  -25.6659 Cl  0  0  0  0  0  0  0  0  0  0  0  0
   -7.9824   -5.8143  -25.3769 C   0  0  0  0  0  0  0  0  0  0  0  0
   -9.2324   -5.6569  -24.8135 C   0  0  0  0  0  0  0  0  0  0  0  0
   -9.4727   -4.6821  -23.8482 C   0  0  0  0  0  0  0  0  0  0  0  0
  -10.8569   -4.6114  -23.2903 C   0  0  0  0  0  0  0  0  0  0  0  0
  -11.7268   -5.3639  -23.6908 O   0  0  0  0  0  0  0  0  0  0  0  0
  -10.0629   -6.2921  -25.0951 H   0  0  0  0  0  0  0  0  0  0  0  0
   -7.7857   -6.5881  -26.1137 H   0  0  0  0  0  0  0  0  0  0  0  0
   -6.3255   -3.4113  -23.6490 H   0  0  0  0  0  0  0  0  0  0  0  0
   -9.6367   -3.8738  -20.8036 H   0  0  0  0  0  0  0  0  0  0  0  0
  -10.3604   -2.2786  -20.9827 H   0  0  0  0  0  0  0  0  0  0  0  0
  -12.4760   -3.6070  -20.7107 H   0  0  0  0  0  0  0  0  0  0  0  0
  -12.9134   -4.6788  -22.0623 H   0  0  0  0  0  0  0  0  0  0  0  0
  -13.3338   -1.2631  -21.0436 H   0  0  0  0  0  0  0  0  0  0  0  0
  -15.5131   -0.8954  -22.6306 H   0  0  0  0  0  0  0  0  0  0  0  0
  -14.4269    0.4273  -22.1388 H   0  0  0  0  0  0  0  0  0  0  0  0
  -14.1899   -0.3738  -23.6961 H   0  0  0  0  0  0  0  0  0  0  0  0
  1  2  1  0
  2  3  1  0
  3  4  2  0
  3  5  1  0
  5  6  1  0
  6  7  1  0
  8  7  1  1
  8  9  1  0
  9 10  2  0
  9 11  1  0
 11 12  1  0
 12 13  2  0
 13 14  1  0
 14 15  2  0
 15 16  1  0
 16 17  2  0
 17 18  1  0
 18 19  2  0
 19 20  1  0
 20 21  2  0
 20 22  1  0
 19 23  1  0
 18 24  1  0
 17 25  1  0
 15 26  1  0
 13 27  1  0
 11 28  1  0
 28 29  1  0
 29 30  1  0
 30 31  1  0
 30 32  1  0
 30 33  1  0
 29 34  1  6
 28 35  1  0
 28 36  1  0
  8 37  1  0
 37 38  2  0
 38 39  1  0
 39 40  1  0
 39 41  2  0
 41 42  1  0
 42 43  2  0
 43 44  1  0
 44 45  2  0
 42 46  1  0
 41 47  1  0
 38 48  1  0
  7 49  1  0
  7 50  1  0
  5 51  1  0
  5 52  1  0
  2 53  1  0
  1 54  1  0
  1 55  1  0
  1 56  1  0
 44  6  1  0
 29  8  1  0
 43 37  1  0
 21 12  1  0
 21 16  1  0
M  END
>  <cnnaffinities>  (76) 
[6.48589, 6.39417]

>  <score>  (76) 
6.48589

>  <index>  (76) 
78

>  <Smiles>  (76) 
C(N(C(=O)C(N1C([C@@]2(C(=O)N(c3c(nc(c4c(c(c(c(c34)[H])[H])[H])[H])[H])[H])C([C@@]2(C([H])([H])[H])[H])([H])[H])c2c(c(Cl)c(c(c2C1=O)[H])[H])[H])([H])[H])([H])[H])[H])([H])([H])[H]

>  <h>  (76) 
<NA>

>  <Training>  (76) 
True

>  <Success>  (76) 
True

>  <enamine_searched>  (76) 
False

>  <enamine_id>  (76) 
nan

$$$$

     RDKit          3D

 45 49  0  0  0  0  0  0  0  0999 V2000
  -10.5560   -2.7527  -22.4775 C   0  0  0  0  0  0  0  0  0  0  0  0
   -9.1619   -2.4801  -22.1635 N   0  0  0  0  0  0  0  0  0  0  0  0
   -8.7604   -1.4120  -21.3979 C   0  0  0  0  0  0  0  0  0  0  0  0
   -9.4447   -0.4990  -21.0011 O   0  0  0  0  0  0  0  0  0  0  0  0
   -7.3619   -1.5474  -21.2143 N   0  0  0  0  0  0  0  0  0  0  0  0
   -6.5971   -0.8697  -20.2020 C   0  0  0  0  0  0  0  0  0  0  0  0
   -6.9075   -1.0627  -18.8775 C   0  0  0  0  0  0  0  0  0  0  0  0
   -6.2084   -0.5455  -17.8358 N   0  0  0  0  0  0  0  0  0  0  0  0
   -5.1741    0.2077  -18.0992 C   0  0  0  0  0  0  0  0  0  0  0  0
   -4.7434    0.5200  -19.4162 C   0  0  0  0  0  0  0  0  0  0  0  0
   -3.6108    1.3530  -19.6406 C   0  0  0  0  0  0  0  0  0  0  0  0
   -3.2223    1.6609  -20.9137 C   0  0  0  0  0  0  0  0  0  0  0  0
   -3.9571    1.1507  -22.0071 C   0  0  0  0  0  0  0  0  0  0  0  0
   -5.0496    0.3409  -21.8133 C   0  0  0  0  0  0  0  0  0  0  0  0
   -5.4748   -0.0165  -20.5039 C   0  0  0  0  0  0  0  0  0  0  0  0
   -5.5980   -0.0456  -22.6647 H   0  0  0  0  0  0  0  0  0  0  0  0
   -3.6534    1.4057  -23.0167 H   0  0  0  0  0  0  0  0  0  0  0  0
   -2.3686    2.3109  -21.0905 H   0  0  0  0  0  0  0  0  0  0  0  0
   -3.0806    1.7572  -18.7813 H   0  0  0  0  0  0  0  0  0  0  0  0
   -4.6242    0.6112  -17.2470 H   0  0  0  0  0  0  0  0  0  0  0  0
   -7.7531   -1.6826  -18.5962 H   0  0  0  0  0  0  0  0  0  0  0  0
   -6.8556   -2.5337  -22.0592 C   0  0  0  0  0  0  0  0  0  0  0  0
   -5.6905   -2.8113  -22.2157 O   0  0  0  0  0  0  0  0  0  0  0  0
   -8.0503   -3.1756  -22.7544 C   0  0  0  0  0  0  0  0  0  0  0  0
   -8.0323   -4.7158  -22.7404 C   0  0  0  0  0  0  0  0  0  0  0  0
   -7.8943   -4.7484  -24.2401 N   0  0  0  0  0  0  0  0  0  0  0  0
   -9.1549   -5.5863  -24.9927 S   0  0  0  0  0  0  0  0  0  0  0  0
  -10.3770   -4.9042  -24.5863 O   0  0  0  0  0  0  0  0  0  0  0  0
   -8.9689   -6.9911  -24.7056 O   0  0  0  0  0  0  0  0  0  0  0  0
   -8.9850   -5.3272  -26.7459 C   0  0  0  0  0  0  0  0  0  0  0  0
  -10.2164   -5.6097  -27.5789 C   0  0  0  0  0  0  0  0  0  0  0  0
   -9.7504   -4.1980  -27.3885 C   0  0  0  0  0  0  0  0  0  0  0  0
   -9.2767   -3.6984  -28.2300 H   0  0  0  0  0  0  0  0  0  0  0  0
  -10.3274   -3.5485  -26.7301 H   0  0  0  0  0  0  0  0  0  0  0  0
  -10.0657   -6.0833  -28.5483 H   0  0  0  0  0  0  0  0  0  0  0  0
  -11.1154   -5.9379  -27.0584 H   0  0  0  0  0  0  0  0  0  0  0  0
   -8.0033   -5.6088  -27.1179 H   0  0  0  0  0  0  0  0  0  0  0  0
   -7.9707   -3.2621  -24.3014 C   0  0  0  0  0  0  0  0  0  0  0  0
   -8.8377   -2.8574  -24.8369 H   0  0  0  0  0  0  0  0  0  0  0  0
   -7.0530   -2.8574  -24.7224 H   0  0  0  0  0  0  0  0  0  0  0  0
   -7.1501   -5.1352  -22.2603 H   0  0  0  0  0  0  0  0  0  0  0  0
   -8.9420   -5.1729  -22.3391 H   0  0  0  0  0  0  0  0  0  0  0  0
  -10.7578   -2.5934  -23.5440 H   0  0  0  0  0  0  0  0  0  0  0  0
  -10.8242   -3.7863  -22.2231 H   0  0  0  0  0  0  0  0  0  0  0  0
  -11.1495   -2.0595  -21.8803 H   0  0  0  0  0  0  0  0  0  0  0  0
  1  2  1  0
  2  3  1  0
  3  4  2  0
  3  5  1  0
  5  6  1  0
  6  7  2  0
  7  8  1  0
  8  9  2  0
  9 10  1  0
 10 11  2  0
 11 12  1  0
 12 13  2  0
 13 14  1  0
 14 15  2  0
 14 16  1  0
 13 17  1  0
 12 18  1  0
 11 19  1  0
  9 20  1  0
  7 21  1  0
  5 22  1  0
 22 23  2  0
 22 24  1  0
 24 25  1  0
 25 26  1  0
 26 27  1  0
 27 28  2  0
 27 29  2  0
 27 30  1  0
 30 31  1  0
 31 32  1  0
 32 33  1  0
 32 34  1  0
 31 35  1  0
 31 36  1  0
 30 37  1  0
 26 38  1  0
 38 39  1  0
 38 40  1  0
 25 41  1  0
 25 42  1  0
  1 43  1  0
  1 44  1  0
  1 45  1  0
 24  2  1  0
 32 30  1  0
 15  6  1  0
 38 24  1  0
 15 10  1  0
M  END
>  <cnnaffinities>  (77) 
[5.13648, 5.1408, 5.14279, 5.25353, 5.33229, 5.12221, 5.11578, 5.37721]

>  <score>  (77) 
5.13648

>  <index>  (77) 
79

>  <Smiles>  (77) 
C(N1C(=O)N(c2c(nc(c3c(c(c(c(c23)[H])[H])[H])[H])[H])[H])C(=O)C21C(N(S(=O)(=O)C1(C(C1([H])[H])([H])[H])[H])C2([H])[H])([H])[H])([H])([H])[H]

>  <h>  (77) 
<NA>

>  <Training>  (77) 
True

>  <Success>  (77) 
True

>  <enamine_searched>  (77) 
False

>  <enamine_id>  (77) 
nan

$$$$

     RDKit          3D

 60 65  0  0  0  0  0  0  0  0999 V2000
   -2.6748   -6.5140  -23.2594 C   0  0  0  0  0  0  0  0  0  0  0  0
   -3.8517   -6.1774  -22.4550 N   0  0  0  0  0  0  0  0  0  0  0  0
   -4.7671   -7.2009  -22.2740 C   0  0  0  0  0  0  0  0  0  0  0  0
   -4.5992   -8.2059  -22.9481 O   0  0  0  0  0  0  0  0  0  0  0  0
   -6.3469   -7.2111  -21.1118 C   0  0  0  0  0  0  0  0  0  0  0  0
   -7.5028   -5.3442  -22.9195 N   0  0  0  0  0  0  0  0  0  0  0  0
   -8.4098   -4.3015  -22.6113 C   0  0  0  0  0  0  0  0  0  0  0  0
   -7.9638   -2.8679  -23.0612 C   0  0  2  0  0  0  0  0  0  0  0  0
   -6.8069   -2.3534  -22.1687 C   0  0  0  0  0  0  0  0  0  0  0  0
   -5.6489   -2.7364  -22.1850 O   0  0  0  0  0  0  0  0  0  0  0  0
   -7.3052   -1.4008  -21.3027 N   0  0  0  0  0  0  0  0  0  0  0  0
   -6.5512   -0.8119  -20.2653 C   0  0  0  0  0  0  0  0  0  0  0  0
   -6.9337   -0.9920  -18.9592 C   0  0  0  0  0  0  0  0  0  0  0  0
   -6.2660   -0.5101  -17.8858 N   0  0  0  0  0  0  0  0  0  0  0  0
   -5.1950    0.2066  -18.1153 C   0  0  0  0  0  0  0  0  0  0  0  0
   -4.7139    0.5166  -19.4172 C   0  0  0  0  0  0  0  0  0  0  0  0
   -3.5657    1.3303  -19.6004 C   0  0  0  0  0  0  0  0  0  0  0  0
   -3.1661    1.6887  -20.8577 C   0  0  0  0  0  0  0  0  0  0  0  0
   -3.8950    1.2483  -21.9850 C   0  0  0  0  0  0  0  0  0  0  0  0
   -4.9923    0.4352  -21.8346 C   0  0  0  0  0  0  0  0  0  0  0  0
   -5.4190    0.0272  -20.5381 C   0  0  0  0  0  0  0  0  0  0  0  0
   -5.5468    0.1002  -22.7050 H   0  0  0  0  0  0  0  0  0  0  0  0
   -3.5872    1.5695  -22.9762 H   0  0  0  0  0  0  0  0  0  0  0  0
   -2.3015    2.3327  -20.9939 H   0  0  0  0  0  0  0  0  0  0  0  0
   -3.0408    1.6859  -18.7181 H   0  0  0  0  0  0  0  0  0  0  0  0
   -4.6595    0.5956  -17.2494 H   0  0  0  0  0  0  0  0  0  0  0  0
   -7.8203   -1.5819  -18.7326 H   0  0  0  0  0  0  0  0  0  0  0  0
   -8.7578   -1.3345  -21.3416 C   0  0  0  0  0  0  0  0  0  0  0  0
   -9.0666   -1.8079  -22.7654 C   0  0  2  0  0  0  0  0  0  0  0  0
  -10.5119   -2.2380  -22.9833 C   0  0  0  0  0  0  0  0  0  0  0  0
  -10.8015   -3.0174  -22.2672 H   0  0  0  0  0  0  0  0  0  0  0  0
  -11.1985   -1.3943  -22.8477 H   0  0  0  0  0  0  0  0  0  0  0  0
  -10.6592   -2.6368  -23.9947 H   0  0  0  0  0  0  0  0  0  0  0  0
   -8.8623   -0.9521  -23.4117 H   0  0  0  0  0  0  0  0  0  0  0  0
   -9.0898   -0.3101  -21.1525 H   0  0  0  0  0  0  0  0  0  0  0  0
   -9.2270   -1.9981  -20.5957 H   0  0  0  0  0  0  0  0  0  0  0  0
   -7.5493   -2.9710  -24.5112 C   0  0  0  0  0  0  0  0  0  0  0  0
   -7.4694   -1.8314  -25.3199 C   0  0  0  0  0  0  0  0  0  0  0  0
   -7.0284   -1.9442  -26.6234 C   0  0  0  0  0  0  0  0  0  0  0  0
   -6.9769   -0.5158  -27.6165 Cl  0  0  0  0  0  0  0  0  0  0  0  0
   -6.6391   -3.1687  -27.1630 C   0  0  0  0  0  0  0  0  0  0  0  0
   -6.7160   -4.2951  -26.3664 C   0  0  0  0  0  0  0  0  0  0  0  0
   -7.1779   -4.2056  -25.0551 C   0  0  0  0  0  0  0  0  0  0  0  0
   -7.2585   -5.4866  -24.2357 C   0  0  0  0  0  0  0  0  0  0  0  0
   -7.0313   -6.5541  -24.8000 O   0  0  0  0  0  0  0  0  0  0  0  0
   -6.4237   -5.2710  -26.7374 H   0  0  0  0  0  0  0  0  0  0  0  0
   -6.2770   -3.2204  -28.1837 H   0  0  0  0  0  0  0  0  0  0  0  0
   -7.7402   -0.8492  -24.9492 H   0  0  0  0  0  0  0  0  0  0  0  0
   -9.4030   -4.4665  -23.0834 H   0  0  0  0  0  0  0  0  0  0  0  0
   -8.5840   -4.2818  -21.5256 H   0  0  0  0  0  0  0  0  0  0  0  0
   -5.9533   -7.0304  -20.9535 C   0  0  0  0  0  0  0  0  0  0  0  0
   -6.0661   -5.9013  -20.4370 C   0  0  0  0  0  0  0  0  0  0  0  0
   -6.2076   -5.5731  -19.3694 H   0  0  0  0  0  0  0  0  0  0  0  0
   -5.9194   -5.1694  -21.2430 H   0  0  0  0  0  0  0  0  0  0  0  0
   -7.1775   -7.3923  -21.8356 H   0  0  0  0  0  0  0  0  0  0  0  0
   -5.7621   -8.1892  -20.6109 H   0  0  0  0  0  0  0  0  0  0  0  0
   -4.0173   -5.1962  -22.2657 H   0  0  0  0  0  0  0  0  0  0  0  0
   -2.1258   -7.3303  -22.7815 H   0  0  0  0  0  0  0  0  0  0  0  0
   -2.9604   -6.8769  -24.2505 H   0  0  0  0  0  0  0  0  0  0  0  0
   -2.0132   -5.6477  -23.3647 H   0  0  0  0  0  0  0  0  0  0  0  0
  1  2  1  0
  2  3  1  0
  3  4  2  0
  3  5  1  0
  5  6  1  0
  6  7  1  0
  8  7  1  1
  8  9  1  0
  9 10  2  0
  9 11  1  0
 11 12  1  0
 12 13  2  0
 13 14  1  0
 14 15  2  0
 15 16  1  0
 16 17  2  0
 17 18  1  0
 18 19  2  0
 19 20  1  0
 20 21  2  0
 20 22  1  0
 19 23  1  0
 18 24  1  0
 17 25  1  0
 15 26  1  0
 13 27  1  0
 11 28  1  0
 28 29  1  0
 29 30  1  0
 30 31  1  0
 30 32  1  0
 30 33  1  0
 29 34  1  6
 28 35  1  0
 28 36  1  0
  8 37  1  0
 37 38  2  0
 38 39  1  0
 39 40  1  0
 39 41  2  0
 41 42  1  0
 42 43  2  0
 43 44  1  0
 44 45  2  0
 42 46  1  0
 41 47  1  0
 38 48  1  0
  7 49  1  0
  7 50  1  0
  5 51  1  0
 51 52  1  0
 52 53  1  0
 52 54  1  0
 51 55  1  0
 51 56  1  0
  2 57  1  0
  1 58  1  0
  1 59  1  0
  1 60  1  0
 52  5  1  0
 44  6  1  0
 29  8  1  0
 43 37  1  0
 21 12  1  0
 21 16  1  0
M  END
>  <cnnaffinities>  (78) 
[6.27446]

>  <score>  (78) 
6.27446

>  <index>  (78) 
80

>  <Smiles>  (78) 
C(N(C(=O)C1(N2C([C@@]3(C(=O)N(c4c(nc(c5c(c(c(c(c45)[H])[H])[H])[H])[H])[H])C([C@@]3(C([H])([H])[H])[H])([H])[H])c3c(c(Cl)c(c(c3C2=O)[H])[H])[H])([H])[H])C(C1([H])[H])([H])[H])[H])([H])([H])[H]

>  <h>  (78) 
<NA>

>  <Training>  (78) 
True

>  <Success>  (78) 
True

>  <enamine_searched>  (78) 
False

>  <enamine_id>  (78) 
nan

$$$$

     RDKit          3D

 36 38  0  0  0  0  0  0  0  0999 V2000
   -8.5059    0.7126  -21.4632 O   0  0  0  0  0  0  0  0  0  0  0  0
   -8.3813   -0.4017  -21.9282 C   0  0  0  0  0  0  0  0  0  0  0  0
   -7.4376   -1.4332  -21.2745 C   0  0  0  0  0  0  0  0  0  0  0  0
   -6.5818   -0.8272  -20.1854 C   0  0  0  0  0  0  0  0  0  0  0  0
   -6.8785   -1.0390  -18.8639 C   0  0  0  0  0  0  0  0  0  0  0  0
   -6.1887   -0.5360  -17.8061 N   0  0  0  0  0  0  0  0  0  0  0  0
   -5.1546    0.2224  -18.0686 C   0  0  0  0  0  0  0  0  0  0  0  0
   -4.7223    0.5333  -19.3844 C   0  0  0  0  0  0  0  0  0  0  0  0
   -3.5949    1.3601  -19.6234 C   0  0  0  0  0  0  0  0  0  0  0  0
   -3.2075    1.6566  -20.9026 C   0  0  0  0  0  0  0  0  0  0  0  0
   -3.9354    1.1326  -21.9940 C   0  0  0  0  0  0  0  0  0  0  0  0
   -5.0277    0.3239  -21.7879 C   0  0  0  0  0  0  0  0  0  0  0  0
   -5.4544    0.0008  -20.4743 C   0  0  0  0  0  0  0  0  0  0  0  0
   -5.5776   -0.0678  -22.6366 H   0  0  0  0  0  0  0  0  0  0  0  0
   -3.6263    1.3767  -23.0049 H   0  0  0  0  0  0  0  0  0  0  0  0
   -2.3540    2.3043  -21.0857 H   0  0  0  0  0  0  0  0  0  0  0  0
   -3.0597    1.7750  -18.7729 H   0  0  0  0  0  0  0  0  0  0  0  0
   -4.6025    0.6264  -17.2173 H   0  0  0  0  0  0  0  0  0  0  0  0
   -7.7278   -1.6584  -18.5830 H   0  0  0  0  0  0  0  0  0  0  0  0
   -8.0415   -2.2451  -20.8447 H   0  0  0  0  0  0  0  0  0  0  0  0
   -6.8038   -1.8994  -22.0414 H   0  0  0  0  0  0  0  0  0  0  0  0
   -9.0579   -0.7718  -23.0801 N   0  0  0  0  0  0  0  0  0  0  0  0
   -9.3676   -2.1584  -23.4033 C   0  0  0  0  0  0  0  0  0  0  0  0
  -10.4468   -2.7799  -22.5507 C   0  0  0  0  0  0  0  0  0  0  0  0
  -11.5722   -2.1767  -22.1583 C   0  0  0  0  0  0  0  0  0  0  0  0
  -12.0263   -0.7966  -22.4306 C   0  0  0  0  0  0  0  0  0  0  0  0
  -11.3796    0.2124  -23.0253 C   0  0  0  0  0  0  0  0  0  0  0  0
   -9.9957    0.2012  -23.6296 C   0  0  0  0  0  0  0  0  0  0  0  0
   -9.5527    1.1987  -23.5782 H   0  0  0  0  0  0  0  0  0  0  0  0
  -10.0554   -0.0231  -24.6966 H   0  0  0  0  0  0  0  0  0  0  0  0
  -11.8927    1.1756  -23.0808 H   0  0  0  0  0  0  0  0  0  0  0  0
  -13.0214   -0.5818  -22.0424 H   0  0  0  0  0  0  0  0  0  0  0  0
  -12.2776   -2.7629  -21.5721 H   0  0  0  0  0  0  0  0  0  0  0  0
  -10.2830   -3.8146  -22.2471 H   0  0  0  0  0  0  0  0  0  0  0  0
   -9.6845   -2.1696  -24.4535 H   0  0  0  0  0  0  0  0  0  0  0  0
   -8.4509   -2.7529  -23.3595 H   0  0  0  0  0  0  0  0  0  0  0  0
  1  2  2  0
  2  3  1  0
  3  4  1  0
  4  5  2  0
  5  6  1  0
  6  7  2  0
  7  8  1  0
  8  9  2  0
  9 10  1  0
 10 11  2  0
 11 12  1  0
 12 13  2  0
 12 14  1  0
 11 15  1  0
 10 16  1  0
  9 17  1  0
  7 18  1  0
  5 19  1  0
  3 20  1  0
  3 21  1  0
  2 22  1  0
 22 23  1  0
 23 24  1  0
 24 25  2  0
 25 26  1  0
 26 27  2  0
 27 28  1  0
 28 29  1  0
 28 30  1  0
 27 31  1  0
 26 32  1  0
 25 33  1  0
 24 34  1  0
 23 35  1  0
 23 36  1  0
 13  4  1  0
 28 22  1  0
 13  8  1  0
M  END
>  <cnnaffinities>  (79) 
[4.72273, 4.72281, 5.03263, 5.05471]

>  <score>  (79) 
4.72273

>  <index>  (79) 
81

>  <Smiles>  (79) 
O=C(C(c1c(nc(c2c(c(c(c(c12)[H])[H])[H])[H])[H])[H])([H])[H])N1C(C(=C(C(=C(C1([H])[H])[H])[H])[H])[H])([H])[H]

>  <h>  (79) 
<NA>

>  <Training>  (79) 
True

>  <Success>  (79) 
True

>  <enamine_searched>  (79) 
False

>  <enamine_id>  (79) 
nan

$$$$

     RDKit          3D

 54 57  0  0  0  0  0  0  0  0999 V2000
   -9.4766    1.4584  -24.5856 C   0  0  0  0  0  0  0  0  0  0  0  0
   -8.9104    0.1708  -24.4551 O   0  0  0  0  0  0  0  0  0  0  0  0
   -7.6210   -0.0590  -24.8487 C   0  0  0  0  0  0  0  0  0  0  0  0
   -6.7877    0.9275  -25.3875 C   0  0  0  0  0  0  0  0  0  0  0  0
   -5.4807    0.6107  -25.7596 C   0  0  0  0  0  0  0  0  0  0  0  0
   -4.9912   -0.6803  -25.6080 C   0  0  0  0  0  0  0  0  0  0  0  0
   -5.8258   -1.6454  -25.0587 C   0  0  0  0  0  0  0  0  0  0  0  0
   -7.1230   -1.3630  -24.6499 C   0  0  0  0  0  0  0  0  0  0  0  0
   -7.9878   -2.4721  -24.0493 C   0  0  1  0  0  0  0  0  0  0  0  0
   -8.5375   -3.3730  -25.1587 C   0  0  0  0  0  0  0  0  0  0  0  0
   -9.2359   -4.6034  -24.5946 C   0  0  1  0  0  0  0  0  0  0  0  0
   -9.8744   -5.4482  -25.6971 C   0  0  0  0  0  0  0  0  0  0  0  0
  -10.5895   -4.8649  -26.2871 H   0  0  0  0  0  0  0  0  0  0  0  0
   -9.1238   -5.8150  -26.4055 H   0  0  0  0  0  0  0  0  0  0  0  0
  -10.3942   -6.3217  -25.2833 H   0  0  0  0  0  0  0  0  0  0  0  0
   -8.2681   -5.4305  -23.7340 C   0  0  0  0  0  0  0  0  0  0  0  0
   -6.9947   -4.6708  -23.3575 C   0  0  0  0  0  0  0  0  0  0  0  0
   -7.2855   -3.2708  -23.0390 N   0  0  0  0  0  0  0  0  0  0  0  0
   -6.7358   -2.7283  -21.8870 C   0  0  0  0  0  0  0  0  0  0  0  0
   -5.7989   -3.2577  -21.3155 O   0  0  0  0  0  0  0  0  0  0  0  0
   -7.3990   -1.4623  -21.2847 C   0  0  0  0  0  0  0  0  0  0  0  0
   -6.5762   -0.8303  -20.1850 C   0  0  0  0  0  0  0  0  0  0  0  0
   -6.8702   -1.0473  -18.8638 C   0  0  0  0  0  0  0  0  0  0  0  0
   -6.1825   -0.5413  -17.8040 N   0  0  0  0  0  0  0  0  0  0  0  0
   -5.1547    0.2235  -18.0699 C   0  0  0  0  0  0  0  0  0  0  0  0
   -4.7167    0.5310  -19.3852 C   0  0  0  0  0  0  0  0  0  0  0  0
   -3.5894    1.3543  -19.6256 C   0  0  0  0  0  0  0  0  0  0  0  0
   -3.1933    1.6362  -20.9020 C   0  0  0  0  0  0  0  0  0  0  0  0
   -3.9145    1.0965  -21.9928 C   0  0  0  0  0  0  0  0  0  0  0  0
   -5.0061    0.2888  -21.7970 C   0  0  0  0  0  0  0  0  0  0  0  0
   -5.4435   -0.0121  -20.4804 C   0  0  0  0  0  0  0  0  0  0  0  0
   -5.5332   -0.1199  -22.6612 H   0  0  0  0  0  0  0  0  0  0  0  0
   -3.5947    1.3274  -23.0039 H   0  0  0  0  0  0  0  0  0  0  0  0
   -2.3352    2.2796  -21.0881 H   0  0  0  0  0  0  0  0  0  0  0  0
   -3.0576    1.7751  -18.7733 H   0  0  0  0  0  0  0  0  0  0  0  0
   -4.6023    0.6288  -17.2167 H   0  0  0  0  0  0  0  0  0  0  0  0
   -7.7198   -1.6706  -18.5848 H   0  0  0  0  0  0  0  0  0  0  0  0
   -7.6496   -0.7190  -22.0524 H   0  0  0  0  0  0  0  0  0  0  0  0
   -8.3623   -1.7788  -20.8570 H   0  0  0  0  0  0  0  0  0  0  0  0
   -6.2579   -4.7536  -24.1700 H   0  0  0  0  0  0  0  0  0  0  0  0
   -6.5257   -5.1216  -22.4841 H   0  0  0  0  0  0  0  0  0  0  0  0
   -7.9804   -6.3452  -24.2625 H   0  0  0  0  0  0  0  0  0  0  0  0
   -8.7845   -5.7584  -22.8282 H   0  0  0  0  0  0  0  0  0  0  0  0
  -10.0442   -4.2468  -23.9445 H   0  0  0  0  0  0  0  0  0  0  0  0
   -9.2433   -2.7845  -25.7510 H   0  0  0  0  0  0  0  0  0  0  0  0
   -7.7480   -3.6685  -25.8612 H   0  0  0  0  0  0  0  0  0  0  0  0
   -8.8458   -2.0012  -23.5637 H   0  0  0  0  0  0  0  0  0  0  0  0
   -5.4390   -2.6540  -24.9546 H   0  0  0  0  0  0  0  0  0  0  0  0
   -3.9787   -0.9407  -25.9113 H   0  0  0  0  0  0  0  0  0  0  0  0
   -4.8369    1.3782  -26.1768 H   0  0  0  0  0  0  0  0  0  0  0  0
   -7.1415    1.9466  -25.5203 H   0  0  0  0  0  0  0  0  0  0  0  0
   -9.5306    1.8132  -25.6224 H   0  0  0  0  0  0  0  0  0  0  0  0
   -8.9643    2.2159  -23.9811 H   0  0  0  0  0  0  0  0  0  0  0  0
  -10.4926    1.3657  -24.2097 H   0  0  0  0  0  0  0  0  0  0  0  0
  1  2  1  0
  2  3  1  0
  3  4  2  0
  4  5  1  0
  5  6  2  0
  6  7  1  0
  7  8  2  0
  8  9  1  0
  9 10  1  0
 10 11  1  0
 11 12  1  0
 12 13  1  0
 12 14  1  0
 12 15  1  0
 11 16  1  0
 16 17  1  0
 17 18  1  0
 18 19  1  0
 19 20  2  0
 19 21  1  0
 21 22  1  0
 22 23  2  0
 23 24  1  0
 24 25  2  0
 25 26  1  0
 26 27  2  0
 27 28  1  0
 28 29  2  0
 29 30  1  0
 30 31  2  0
 30 32  1  0
 29 33  1  0
 28 34  1  0
 27 35  1  0
 25 36  1  0
 23 37  1  0
 21 38  1  0
 21 39  1  0
 17 40  1  0
 17 41  1  0
 16 42  1  0
 16 43  1  0
 11 44  1  1
 10 45  1  0
 10 46  1  0
  9 47  1  1
  7 48  1  0
  6 49  1  0
  5 50  1  0
  4 51  1  0
  1 52  1  0
  1 53  1  0
  1 54  1  0
  8  3  1  0
 18  9  1  0
 31 22  1  0
 31 26  1  0
M  END
>  <cnnaffinities>  (80) 
[5.91623]

>  <score>  (80) 
5.91623

>  <index>  (80) 
82

>  <Smiles>  (80) 
C(Oc1c(c(c(c(c1[C@]1(C([C@@](C([H])([H])[H])(C(C(N1C(=O)C(c1c(nc(c2c(c(c(c(c12)[H])[H])[H])[H])[H])[H])([H])[H])([H])[H])([H])[H])[H])([H])[H])[H])[H])[H])[H])[H])([H])([H])[H]

>  <h>  (80) 
<NA>

>  <Training>  (80) 
True

>  <Success>  (80) 
True

>  <enamine_searched>  (80) 
False

>  <enamine_id>  (80) 
nan

$$$$

     RDKit          3D

 46 50  0  0  0  0  0  0  0  0999 V2000
   -5.4459   -3.3167  -26.9566 N   0  0  0  0  0  0  0  0  0  0  0  0
   -5.8183   -1.6822  -26.9058 S   0  0  0  0  0  0  0  0  0  0  0  0
   -6.0008   -1.1815  -28.2584 O   0  0  0  0  0  0  0  0  0  0  0  0
   -4.8291   -1.0836  -26.0206 O   0  0  0  0  0  0  0  0  0  0  0  0
   -7.3991   -1.7177  -26.1020 C   0  0  0  0  0  0  0  0  0  0  0  0
   -8.5453   -1.8900  -26.8792 C   0  0  0  0  0  0  0  0  0  0  0  0
   -9.7819   -2.0730  -26.2594 C   0  0  0  0  0  0  0  0  0  0  0  0
   -9.8496   -2.0555  -24.8650 C   0  0  0  0  0  0  0  0  0  0  0  0
   -8.6957   -1.7850  -24.1198 C   0  0  0  0  0  0  0  0  0  0  0  0
   -7.4486   -1.6492  -24.7160 C   0  0  0  0  0  0  0  0  0  0  0  0
   -6.5367   -1.4978  -24.1448 H   0  0  0  0  0  0  0  0  0  0  0  0
   -9.0395   -1.6712  -22.6329 C   0  0  1  0  0  0  0  0  0  0  0  0
  -10.5449   -1.3503  -22.6946 C   0  0  0  0  0  0  0  0  0  0  0  0
  -11.0348   -2.1707  -23.9046 C   0  0  0  0  0  0  0  0  0  0  0  0
  -11.1819   -3.5368  -23.5293 O   0  0  0  0  0  0  0  0  0  0  0  0
  -11.9850   -1.8124  -24.3180 H   0  0  0  0  0  0  0  0  0  0  0  0
  -11.9247   -3.5830  -22.9099 H   0  0  0  0  0  0  0  0  0  0  0  0
  -10.6431   -0.2864  -22.9220 H   0  0  0  0  0  0  0  0  0  0  0  0
  -11.0637   -1.5736  -21.7570 H   0  0  0  0  0  0  0  0  0  0  0  0
   -8.7146   -2.8916  -21.8862 N   0  0  0  0  0  0  0  0  0  0  0  0
   -7.5286   -2.7608  -21.1985 C   0  0  0  0  0  0  0  0  0  0  0  0
   -6.8065   -3.6313  -20.7756 O   0  0  0  0  0  0  0  0  0  0  0  0
   -7.2917   -1.3740  -21.0921 N   0  0  0  0  0  0  0  0  0  0  0  0
   -6.4627   -0.8034  -20.0820 C   0  0  0  0  0  0  0  0  0  0  0  0
   -6.7590   -1.0159  -18.7566 C   0  0  0  0  0  0  0  0  0  0  0  0
   -6.0692   -0.4760  -17.7218 N   0  0  0  0  0  0  0  0  0  0  0  0
   -5.0461    0.2875  -18.0101 C   0  0  0  0  0  0  0  0  0  0  0  0
   -4.6101    0.5728  -19.3341 C   0  0  0  0  0  0  0  0  0  0  0  0
   -3.4888    1.4092  -19.5891 C   0  0  0  0  0  0  0  0  0  0  0  0
   -3.1107    1.6832  -20.8742 C   0  0  0  0  0  0  0  0  0  0  0  0
   -3.8332    1.1378  -21.9606 C   0  0  0  0  0  0  0  0  0  0  0  0
   -4.9169    0.3219  -21.7390 C   0  0  0  0  0  0  0  0  0  0  0  0
   -5.3379    0.0209  -20.4131 C   0  0  0  0  0  0  0  0  0  0  0  0
   -5.4743   -0.0920  -22.5791 H   0  0  0  0  0  0  0  0  0  0  0  0
   -3.5385    1.3773  -22.9782 H   0  0  0  0  0  0  0  0  0  0  0  0
   -2.2646    2.3387  -21.0681 H   0  0  0  0  0  0  0  0  0  0  0  0
   -2.9610    1.8414  -18.7420 H   0  0  0  0  0  0  0  0  0  0  0  0
   -4.5069    0.7244  -17.1703 H   0  0  0  0  0  0  0  0  0  0  0  0
   -7.6108   -1.6364  -18.4856 H   0  0  0  0  0  0  0  0  0  0  0  0
   -8.2068   -0.6483  -21.8717 C   0  0  0  0  0  0  0  0  0  0  0  0
   -8.2998    0.5522  -21.9052 O   0  0  0  0  0  0  0  0  0  0  0  0
   -8.8947   -3.7751  -22.3414 H   0  0  0  0  0  0  0  0  0  0  0  0
  -10.6735   -2.1951  -26.8737 H   0  0  0  0  0  0  0  0  0  0  0  0
   -8.4540   -1.8775  -27.9617 H   0  0  0  0  0  0  0  0  0  0  0  0
   -5.8315   -3.7536  -27.7890 H   0  0  0  0  0  0  0  0  0  0  0  0
   -4.4408   -3.4409  -26.8771 H   0  0  0  0  0  0  0  0  0  0  0  0
  1  2  1  0
  2  3  2  0
  2  4  2  0
  2  5  1  0
  5  6  2  0
  6  7  1  0
  7  8  2  0
  8  9  1  0
  9 10  2  0
 10 11  1  0
  9 12  1  0
 12 13  1  0
 13 14  1  0
 14 15  1  0
 14 16  1  0
 14 17  1  0
 13 18  1  0
 13 19  1  0
 12 20  1  1
 20 21  1  0
 21 22  2  0
 21 23  1  0
 23 24  1  0
 24 25  2  0
 25 26  1  0
 26 27  2  0
 27 28  1  0
 28 29  2  0
 29 30  1  0
 30 31  2  0
 31 32  1  0
 32 33  2  0
 32 34  1  0
 31 35  1  0
 30 36  1  0
 29 37  1  0
 27 38  1  0
 25 39  1  0
 23 40  1  0
 40 41  2  0
 20 42  1  0
  7 43  1  0
  6 44  1  0
  1 45  1  0
  1 46  1  0
 10  5  1  0
 40 12  1  0
 15  8  1  0
 33 24  1  0
 33 28  1  0
M  END
>  <cnnaffinities>  (81) 
[5.35642, 5.41602]

>  <score>  (81) 
5.35642

>  <index>  (81) 
83

>  <Smiles>  (81) 
N(S(=O)(=O)c1c(c(c2c(c1[H])[C@@]1(C(C(O2)([H])[H])([H])[H])N(C(=O)N(c2c(nc(c3c(c(c(c(c23)[H])[H])[H])[H])[H])[H])C1=O)[H])[H])[H])([H])[H]

>  <h>  (81) 
<NA>

>  <Training>  (81) 
True

>  <Success>  (81) 
True

>  <enamine_searched>  (81) 
False

>  <enamine_id>  (81) 
nan

$$$$

     RDKit          3D

 63 68  0  0  0  0  0  0  0  0999 V2000
   -7.4469   -2.4634  -24.3724 C   0  0  0  0  0  0  0  0  0  0  0  0
   -8.2499   -2.4793  -23.0627 C   0  0  1  0  0  0  0  0  0  0  0  0
   -7.3080   -2.5531  -21.8366 C   0  0  0  0  0  0  0  0  0  0  0  0
   -7.4521   -1.2663  -21.2007 N   0  0  0  0  0  0  0  0  0  0  0  0
   -6.6077   -0.7667  -20.1793 C   0  0  0  0  0  0  0  0  0  0  0  0
   -6.9041   -1.0257  -18.8679 C   0  0  0  0  0  0  0  0  0  0  0  0
   -6.1846   -0.5624  -17.8202 N   0  0  0  0  0  0  0  0  0  0  0  0
   -5.1548    0.2007  -18.0908 C   0  0  0  0  0  0  0  0  0  0  0  0
   -4.7409    0.5533  -19.4056 C   0  0  0  0  0  0  0  0  0  0  0  0
   -3.6266    1.3982  -19.6458 C   0  0  0  0  0  0  0  0  0  0  0  0
   -3.2578    1.7162  -20.9240 C   0  0  0  0  0  0  0  0  0  0  0  0
   -3.9824    1.2060  -22.0242 C   0  0  0  0  0  0  0  0  0  0  0  0
   -5.0689    0.3902  -21.8205 C   0  0  0  0  0  0  0  0  0  0  0  0
   -5.4839    0.0501  -20.5006 C   0  0  0  0  0  0  0  0  0  0  0  0
   -5.6233    0.0019  -22.6702 H   0  0  0  0  0  0  0  0  0  0  0  0
   -3.6833    1.4767  -23.0339 H   0  0  0  0  0  0  0  0  0  0  0  0
   -2.4046    2.3641  -21.0983 H   0  0  0  0  0  0  0  0  0  0  0  0
   -3.0858    1.7901  -18.7897 H   0  0  0  0  0  0  0  0  0  0  0  0
   -4.5863    0.5858  -17.2440 H   0  0  0  0  0  0  0  0  0  0  0  0
   -7.7711   -1.6367  -18.6239 H   0  0  0  0  0  0  0  0  0  0  0  0
   -8.5040   -0.5087  -21.6428 C   0  0  0  0  0  0  0  0  0  0  0  0
   -8.8108    0.5684  -21.1655 O   0  0  0  0  0  0  0  0  0  0  0  0
   -9.1760   -1.2366  -22.8226 C   0  0  1  0  0  0  0  0  0  0  0  0
   -9.2367   -0.2928  -24.0502 C   0  0  0  0  0  0  0  0  0  0  0  0
  -10.1089    0.8480  -23.8352 N   0  0  0  0  0  0  0  0  0  0  0  0
   -9.7827    2.1372  -24.4215 C   0  0  0  0  0  0  0  0  0  0  0  0
   -9.1564    3.1078  -23.4167 C   0  0  0  0  0  0  0  0  0  0  0  0
   -9.7675    4.0810  -23.0178 O   0  0  0  0  0  0  0  0  0  0  0  0
   -7.8835    2.7980  -23.0282 N   0  0  0  0  0  0  0  0  0  0  0  0
   -7.2423    3.4772  -21.9249 C   0  0  0  0  0  0  0  0  0  0  0  0
   -6.6147    4.7899  -22.2940 C   0  0  0  0  0  0  0  0  0  0  0  0
   -7.5623    5.7485  -22.5513 F   0  0  0  0  0  0  0  0  0  0  0  0
   -5.3863    5.2912  -21.6271 C   0  0  0  0  0  0  0  0  0  0  0  0
   -5.3768    4.9403  -23.0952 C   0  0  0  0  0  0  0  0  0  0  0  0
   -4.8498    4.0489  -23.4093 H   0  0  0  0  0  0  0  0  0  0  0  0
   -5.4127    5.7684  -23.7910 H   0  0  0  0  0  0  0  0  0  0  0  0
   -4.8624    4.6383  -20.9346 H   0  0  0  0  0  0  0  0  0  0  0  0
   -5.3935    6.3413  -21.3700 H   0  0  0  0  0  0  0  0  0  0  0  0
   -6.4866    2.8077  -21.4990 H   0  0  0  0  0  0  0  0  0  0  0  0
   -8.0033    3.6717  -21.1703 H   0  0  0  0  0  0  0  0  0  0  0  0
   -7.4932    1.9057  -23.2899 H   0  0  0  0  0  0  0  0  0  0  0  0
   -9.1216    1.9878  -25.2818 H   0  0  0  0  0  0  0  0  0  0  0  0
  -10.7021    2.5944  -24.7863 H   0  0  0  0  0  0  0  0  0  0  0  0
  -11.3514    0.6869  -23.2827 C   0  0  0  0  0  0  0  0  0  0  0  0
  -12.1874    1.5816  -23.2848 O   0  0  0  0  0  0  0  0  0  0  0  0
  -11.6395   -0.6531  -22.6810 C   0  0  0  0  0  0  0  0  0  0  0  0
  -12.9586   -0.9195  -22.3112 C   0  0  0  0  0  0  0  0  0  0  0  0
  -13.2969   -2.1179  -21.7173 C   0  0  0  0  0  0  0  0  0  0  0  0
  -12.2736   -3.0239  -21.4750 C   0  0  0  0  0  0  0  0  0  0  0  0
  -12.5859   -4.1769  -20.8657 F   0  0  0  0  0  0  0  0  0  0  0  0
  -10.9564   -2.7811  -21.8151 C   0  0  0  0  0  0  0  0  0  0  0  0
  -10.6169   -1.5853  -22.4573 C   0  0  0  0  0  0  0  0  0  0  0  0
  -10.2186   -3.5262  -21.5407 H   0  0  0  0  0  0  0  0  0  0  0  0
  -14.3139   -2.3534  -21.4199 H   0  0  0  0  0  0  0  0  0  0  0  0
  -13.7058   -0.1544  -22.4883 H   0  0  0  0  0  0  0  0  0  0  0  0
   -9.5970   -0.8757  -24.9084 H   0  0  0  0  0  0  0  0  0  0  0  0
   -8.2353    0.0797  -24.2742 H   0  0  0  0  0  0  0  0  0  0  0  0
   -6.2616   -2.7145  -22.1271 H   0  0  0  0  0  0  0  0  0  0  0  0
   -7.5859   -3.3668  -21.1540 H   0  0  0  0  0  0  0  0  0  0  0  0
   -8.8681   -3.3813  -23.1157 H   0  0  0  0  0  0  0  0  0  0  0  0
   -6.8383   -3.3707  -24.4523 H   0  0  0  0  0  0  0  0  0  0  0  0
   -8.1068   -2.4334  -25.2450 H   0  0  0  0  0  0  0  0  0  0  0  0
   -6.7675   -1.6033  -24.4228 H   0  0  0  0  0  0  0  0  0  0  0  0
  1  2  1  0
  2  3  1  0
  3  4  1  0
  4  5  1  0
  5  6  2  0
  6  7  1  0
  7  8  2  0
  8  9  1  0
  9 10  2  0
 10 11  1  0
 11 12  2  0
 12 13  1  0
 13 14  2  0
 13 15  1  0
 12 16  1  0
 11 17  1  0
 10 18  1  0
  8 19  1  0
  6 20  1  0
  4 21  1  0
 21 22  2  0
 21 23  1  0
 23 24  1  6
 24 25  1  0
 25 26  1  0
 26 27  1  0
 27 28  2  0
 27 29  1  0
 29 30  1  0
 30 31  1  0
 31 32  1  0
 31 33  1  0
 33 34  1  0
 34 35  1  0
 34 36  1  0
 33 37  1  0
 33 38  1  0
 30 39  1  0
 30 40  1  0
 29 41  1  0
 26 42  1  0
 26 43  1  0
 25 44  1  0
 44 45  2  0
 44 46  1  0
 46 47  2  0
 47 48  1  0
 48 49  2  0
 49 50  1  0
 49 51  1  0
 51 52  2  0
 51 53  1  0
 48 54  1  0
 47 55  1  0
 24 56  1  0
 24 57  1  0
  3 58  1  0
  3 59  1  0
  2 60  1  6
  1 61  1  0
  1 62  1  0
  1 63  1  0
 23  2  1  0
 34 31  1  0
 52 46  1  0
 14  5  1  0
 52 23  1  0
 14  9  1  0
M  END
>  <cnnaffinities>  (82) 
[6.71376]

>  <score>  (82) 
6.71376

>  <index>  (82) 
84

>  <Smiles>  (82) 
C([C@]1(C(N(c2c(nc(c3c(c(c(c(c23)[H])[H])[H])[H])[H])[H])C(=O)[C@]21C(N(C(C(=O)N(C(C1(F)C(C1([H])[H])([H])[H])([H])[H])[H])([H])[H])C(=O)c1c(c(c(F)c(c21)[H])[H])[H])([H])[H])([H])[H])[H])([H])([H])[H]

>  <h>  (82) 
<NA>

>  <Training>  (82) 
True

>  <Success>  (82) 
True

>  <enamine_searched>  (82) 
False

>  <enamine_id>  (82) 
nan

$$$$

     RDKit          3D

 57 62  0  0  0  0  0  0  0  0999 V2000
   -9.1390   -8.7467  -23.3503 C   0  0  0  0  0  0  0  0  0  0  0  0
   -8.3614   -7.5787  -23.0047 N   0  0  0  0  0  0  0  0  0  0  0  0
   -7.3102   -7.2076  -23.7963 C   0  0  0  0  0  0  0  0  0  0  0  0
   -7.0956   -7.6704  -24.8978 O   0  0  0  0  0  0  0  0  0  0  0  0
   -6.4262   -6.1032  -23.2210 C   0  0  0  0  0  0  0  0  0  0  0  0
   -6.8184   -4.8362  -23.7790 N   0  0  0  0  0  0  0  0  0  0  0  0
   -8.0298   -4.2162  -23.2828 C   0  0  0  0  0  0  0  0  0  0  0  0
   -7.8475   -2.6991  -23.1484 C   0  0  2  0  0  0  0  0  0  0  0  0
   -6.8326   -2.4193  -22.0221 C   0  0  0  0  0  0  0  0  0  0  0  0
   -5.7538   -2.9467  -21.8523 O   0  0  0  0  0  0  0  0  0  0  0  0
   -7.3466   -1.4355  -21.2133 N   0  0  0  0  0  0  0  0  0  0  0  0
   -6.5736   -0.8431  -20.1960 C   0  0  0  0  0  0  0  0  0  0  0  0
   -6.9088   -1.0489  -18.8825 C   0  0  0  0  0  0  0  0  0  0  0  0
   -6.2215   -0.5444  -17.8334 N   0  0  0  0  0  0  0  0  0  0  0  0
   -5.1794    0.2021  -18.1050 C   0  0  0  0  0  0  0  0  0  0  0  0
   -4.7354    0.5043  -19.4235 C   0  0  0  0  0  0  0  0  0  0  0  0
   -3.6114    1.3392  -19.6460 C   0  0  0  0  0  0  0  0  0  0  0  0
   -3.2263    1.6604  -20.9167 C   0  0  0  0  0  0  0  0  0  0  0  0
   -3.9510    1.1641  -22.0248 C   0  0  0  0  0  0  0  0  0  0  0  0
   -5.0387    0.3454  -21.8426 C   0  0  0  0  0  0  0  0  0  0  0  0
   -5.4513   -0.0177  -20.5220 C   0  0  0  0  0  0  0  0  0  0  0  0
   -5.5910   -0.0144  -22.7132 H   0  0  0  0  0  0  0  0  0  0  0  0
   -3.6456    1.4468  -23.0286 H   0  0  0  0  0  0  0  0  0  0  0  0
   -2.3744    2.3145  -21.0814 H   0  0  0  0  0  0  0  0  0  0  0  0
   -3.0908    1.7376  -18.7799 H   0  0  0  0  0  0  0  0  0  0  0  0
   -4.6291    0.6177  -17.2603 H   0  0  0  0  0  0  0  0  0  0  0  0
   -7.7636   -1.6809  -18.6415 H   0  0  0  0  0  0  0  0  0  0  0  0
   -8.7199   -1.0944  -21.4841 C   0  0  0  0  0  0  0  0  0  0  0  0
   -9.1049   -1.9760  -22.6570 C   0  0  0  0  0  0  0  0  0  0  0  0
  -10.4527   -2.6418  -22.5906 C   0  0  0  0  0  0  0  0  0  0  0  0
  -10.1954   -1.5543  -23.5960 C   0  0  0  0  0  0  0  0  0  0  0  0
  -10.0917   -1.8572  -24.6339 H   0  0  0  0  0  0  0  0  0  0  0  0
  -10.6520   -0.5755  -23.4556 H   0  0  0  0  0  0  0  0  0  0  0  0
  -10.5338   -3.6658  -22.9403 H   0  0  0  0  0  0  0  0  0  0  0  0
  -11.0771   -2.4191  -21.7284 H   0  0  0  0  0  0  0  0  0  0  0  0
   -9.3476   -1.3329  -20.6319 H   0  0  0  0  0  0  0  0  0  0  0  0
   -8.8222   -0.0285  -21.7090 H   0  0  0  0  0  0  0  0  0  0  0  0
   -7.2952   -2.1894  -24.4713 C   0  0  0  0  0  0  0  0  0  0  0  0
   -7.4363   -0.8463  -24.8233 C   0  0  0  0  0  0  0  0  0  0  0  0
   -6.9062   -0.3922  -26.0175 C   0  0  0  0  0  0  0  0  0  0  0  0
   -7.0862    1.2880  -26.4306 Cl  0  0  0  0  0  0  0  0  0  0  0  0
   -6.2250   -1.2399  -26.8928 C   0  0  0  0  0  0  0  0  0  0  0  0
   -6.0500   -2.5589  -26.5304 C   0  0  0  0  0  0  0  0  0  0  0  0
   -6.5550   -3.0174  -25.3201 C   0  0  0  0  0  0  0  0  0  0  0  0
   -6.2084   -4.4101  -24.9204 C   0  0  0  0  0  0  0  0  0  0  0  0
   -5.4065   -5.0935  -25.5423 O   0  0  0  0  0  0  0  0  0  0  0  0
   -5.5104   -3.2756  -27.1425 H   0  0  0  0  0  0  0  0  0  0  0  0
   -5.8203   -0.8549  -27.8209 H   0  0  0  0  0  0  0  0  0  0  0  0
   -7.9828   -0.1692  -24.1735 H   0  0  0  0  0  0  0  0  0  0  0  0
   -8.2676   -4.6132  -22.2945 H   0  0  0  0  0  0  0  0  0  0  0  0
   -8.8703   -4.4242  -23.9592 H   0  0  0  0  0  0  0  0  0  0  0  0
   -5.3724   -6.2545  -23.4800 H   0  0  0  0  0  0  0  0  0  0  0  0
   -6.5249   -6.0111  -22.1371 H   0  0  0  0  0  0  0  0  0  0  0  0
   -8.5506   -7.0746  -22.1530 H   0  0  0  0  0  0  0  0  0  0  0  0
  -10.0686   -8.7795  -22.7830 H   0  0  0  0  0  0  0  0  0  0  0  0
   -9.3544   -8.6939  -24.4259 H   0  0  0  0  0  0  0  0  0  0  0  0
   -8.5730   -9.6498  -23.0883 H   0  0  0  0  0  0  0  0  0  0  0  0
  1  2  1  0
  2  3  1  0
  3  4  2  0
  3  5  1  0
  5  6  1  0
  6  7  1  0
  8  7  1  6
  8  9  1  0
  9 10  2  0
  9 11  1  0
 11 12  1  0
 12 13  2  0
 13 14  1  0
 14 15  2  0
 15 16  1  0
 16 17  2  0
 17 18  1  0
 18 19  2  0
 19 20  1  0
 20 21  2  0
 20 22  1  0
 19 23  1  0
 18 24  1  0
 17 25  1  0
 15 26  1  0
 13 27  1  0
 11 28  1  0
 28 29  1  0
 29 30  1  0
 30 31  1  0
 31 32  1  0
 31 33  1  0
 30 34  1  0
 30 35  1  0
 28 36  1  0
 28 37  1  0
  8 38  1  0
 38 39  2  0
 39 40  1  0
 40 41  1  0
 40 42  2  0
 42 43  1  0
 43 44  2  0
 44 45  1  0
 45 46  2  0
 43 47  1  0
 42 48  1  0
 39 49  1  0
  7 50  1  0
  7 51  1  0
  5 52  1  0
  5 53  1  0
  2 54  1  0
  1 55  1  0
  1 56  1  0
  1 57  1  0
 45  6  1  0
 29  8  1  0
 44 38  1  0
 21 12  1  0
 31 29  1  0
 21 16  1  0
M  END
>  <cnnaffinities>  (83) 
[5.68126]

>  <score>  (83) 
5.68126

>  <index>  (83) 
85

>  <Smiles>  (83) 
C(N(C(=O)C(N1C([C@@]2(C(=O)N(c3c(nc(c4c(c(c(c(c34)[H])[H])[H])[H])[H])[H])C(C32C(C3([H])[H])([H])[H])([H])[H])c2c(c(Cl)c(c(c2C1=O)[H])[H])[H])([H])[H])([H])[H])[H])([H])([H])[H]

>  <h>  (83) 
<NA>

>  <Training>  (83) 
True

>  <Success>  (83) 
True

>  <enamine_searched>  (83) 
False

>  <enamine_id>  (83) 
nan

$$$$

     RDKit          3D

 43 45  0  0  0  0  0  0  0  0999 V2000
   -8.5467   -5.5631  -25.7827 C   0  0  0  0  0  0  0  0  0  0  0  0
   -9.0627   -5.4484  -24.3461 C   0  0  1  0  0  0  0  0  0  0  0  0
   -8.0269   -5.8768  -23.3095 C   0  0  0  0  0  0  0  0  0  0  0  0
   -6.9372   -4.8320  -23.0944 C   0  0  0  0  0  0  0  0  0  0  0  0
   -7.5146   -3.5417  -22.7117 N   0  0  0  0  0  0  0  0  0  0  0  0
   -6.7560   -2.7460  -21.8640 C   0  0  0  0  0  0  0  0  0  0  0  0
   -5.6213   -3.0572  -21.5488 O   0  0  0  0  0  0  0  0  0  0  0  0
   -7.4130   -1.4744  -21.2703 C   0  0  0  0  0  0  0  0  0  0  0  0
   -6.5795   -0.8305  -20.1854 C   0  0  0  0  0  0  0  0  0  0  0  0
   -6.8727   -1.0459  -18.8648 C   0  0  0  0  0  0  0  0  0  0  0  0
   -6.1839   -0.5428  -17.8064 N   0  0  0  0  0  0  0  0  0  0  0  0
   -5.1552    0.2225  -18.0698 C   0  0  0  0  0  0  0  0  0  0  0  0
   -4.7184    0.5286  -19.3843 C   0  0  0  0  0  0  0  0  0  0  0  0
   -3.5889    1.3521  -19.6238 C   0  0  0  0  0  0  0  0  0  0  0  0
   -3.1884    1.6320  -20.9019 C   0  0  0  0  0  0  0  0  0  0  0  0
   -3.9042    1.0938  -21.9932 C   0  0  0  0  0  0  0  0  0  0  0  0
   -4.9982    0.2890  -21.7866 C   0  0  0  0  0  0  0  0  0  0  0  0
   -5.4438   -0.0140  -20.4752 C   0  0  0  0  0  0  0  0  0  0  0  0
   -5.5278   -0.1302  -22.6350 H   0  0  0  0  0  0  0  0  0  0  0  0
   -3.5823    1.3202  -23.0046 H   0  0  0  0  0  0  0  0  0  0  0  0
   -2.3303    2.2741  -21.0845 H   0  0  0  0  0  0  0  0  0  0  0  0
   -3.0597    1.7732  -18.7722 H   0  0  0  0  0  0  0  0  0  0  0  0
   -4.6043    0.6274  -17.2177 H   0  0  0  0  0  0  0  0  0  0  0  0
   -7.7196   -1.6691  -18.5841 H   0  0  0  0  0  0  0  0  0  0  0  0
   -7.6218   -0.7474  -22.0678 H   0  0  0  0  0  0  0  0  0  0  0  0
   -8.3923   -1.7508  -20.8539 H   0  0  0  0  0  0  0  0  0  0  0  0
   -8.5397   -2.9962  -23.6131 C   0  0  1  0  0  0  0  0  0  0  0  0
   -7.9411   -2.2906  -24.8404 C   0  0  0  0  0  0  0  0  0  0  0  0
   -8.7286   -1.9760  -25.5347 H   0  0  0  0  0  0  0  0  0  0  0  0
   -7.2484   -2.9312  -25.3934 H   0  0  0  0  0  0  0  0  0  0  0  0
   -7.3906   -1.3890  -24.5495 H   0  0  0  0  0  0  0  0  0  0  0  0
   -9.5906   -4.0638  -23.9668 C   0  0  0  0  0  0  0  0  0  0  0  0
  -10.2107   -3.6807  -24.7840 H   0  0  0  0  0  0  0  0  0  0  0  0
  -10.2626   -4.1716  -23.1086 H   0  0  0  0  0  0  0  0  0  0  0  0
   -9.0800   -2.2361  -23.0440 H   0  0  0  0  0  0  0  0  0  0  0  0
   -6.2993   -4.7542  -23.9885 H   0  0  0  0  0  0  0  0  0  0  0  0
   -6.2731   -5.1444  -22.2911 H   0  0  0  0  0  0  0  0  0  0  0  0
   -7.5747   -6.8272  -23.6122 H   0  0  0  0  0  0  0  0  0  0  0  0
   -8.5208   -6.0606  -22.3511 H   0  0  0  0  0  0  0  0  0  0  0  0
   -9.9147   -6.1378  -24.2796 H   0  0  0  0  0  0  0  0  0  0  0  0
   -7.6000   -5.0392  -25.9395 H   0  0  0  0  0  0  0  0  0  0  0  0
   -8.3803   -6.6138  -26.0496 H   0  0  0  0  0  0  0  0  0  0  0  0
   -9.2681   -5.1520  -26.4966 H   0  0  0  0  0  0  0  0  0  0  0  0
  1  2  1  0
  2  3  1  0
  3  4  1  0
  4  5  1  0
  5  6  1  0
  6  7  2  0
  6  8  1  0
  8  9  1  0
  9 10  2  0
 10 11  1  0
 11 12  2  0
 12 13  1  0
 13 14  2  0
 14 15  1  0
 15 16  2  0
 16 17  1  0
 17 18  2  0
 17 19  1  0
 16 20  1  0
 15 21  1  0
 14 22  1  0
 12 23  1  0
 10 24  1  0
  8 25  1  0
  8 26  1  0
  5 27  1  0
 27 28  1  0
 28 29  1  0
 28 30  1  0
 28 31  1  0
 27 32  1  0
 32 33  1  0
 32 34  1  0
 27 35  1  1
  4 36  1  0
  4 37  1  0
  3 38  1  0
  3 39  1  0
  2 40  1  6
  1 41  1  0
  1 42  1  0
  1 43  1  0
 32  2  1  0
 18  9  1  0
 18 13  1  0
M  END
>  <cnnaffinities>  (84) 
[5.20273, 5.17]

>  <score>  (84) 
5.20273

>  <index>  (84) 
86

>  <Smiles>  (84) 
C([C@]1(C(C(N(C(=O)C(c2c(nc(c3c(c(c(c(c23)[H])[H])[H])[H])[H])[H])([H])[H])[C@@](C([H])([H])[H])(C1([H])[H])[H])([H])[H])([H])[H])[H])([H])([H])[H]

>  <h>  (84) 
<NA>

>  <Training>  (84) 
True

>  <Success>  (84) 
True

>  <enamine_searched>  (84) 
False

>  <enamine_id>  (84) 
nan

$$$$

     RDKit          3D

 59 64  0  0  0  0  0  0  0  0999 V2000
   -8.1670   -4.0206  -23.7385 C   0  0  0  0  0  0  0  0  0  0  0  0
   -8.3142   -3.2205  -22.4493 C   0  0  1  0  0  0  0  0  0  0  0  0
   -6.9901   -2.5617  -22.0070 C   0  0  0  0  0  0  0  0  0  0  0  0
   -7.4303   -1.4262  -21.2178 N   0  0  0  0  0  0  0  0  0  0  0  0
   -6.6539   -0.8171  -20.2013 C   0  0  0  0  0  0  0  0  0  0  0  0
   -6.9614   -1.0412  -18.8798 C   0  0  0  0  0  0  0  0  0  0  0  0
   -6.2345   -0.5723  -17.8372 N   0  0  0  0  0  0  0  0  0  0  0  0
   -5.1855    0.1658  -18.1009 C   0  0  0  0  0  0  0  0  0  0  0  0
   -4.7538    0.4815  -19.4177 C   0  0  0  0  0  0  0  0  0  0  0  0
   -3.6247    1.3105  -19.6485 C   0  0  0  0  0  0  0  0  0  0  0  0
   -3.2403    1.6201  -20.9238 C   0  0  0  0  0  0  0  0  0  0  0  0
   -3.9572    1.0929  -22.0209 C   0  0  0  0  0  0  0  0  0  0  0  0
   -5.0442    0.2730  -21.8242 C   0  0  0  0  0  0  0  0  0  0  0  0
   -5.4906   -0.0348  -20.5099 C   0  0  0  0  0  0  0  0  0  0  0  0
   -5.5814   -0.1434  -22.6735 H   0  0  0  0  0  0  0  0  0  0  0  0
   -3.6530    1.3585  -23.0310 H   0  0  0  0  0  0  0  0  0  0  0  0
   -2.3972    2.2843  -21.0964 H   0  0  0  0  0  0  0  0  0  0  0  0
   -3.1013    1.7140  -18.7866 H   0  0  0  0  0  0  0  0  0  0  0  0
   -4.6181    0.5541  -17.2527 H   0  0  0  0  0  0  0  0  0  0  0  0
   -7.8250   -1.6451  -18.6081 H   0  0  0  0  0  0  0  0  0  0  0  0
   -8.7556   -1.1018  -21.4292 C   0  0  0  0  0  0  0  0  0  0  0  0
   -9.3255   -0.1834  -20.8838 O   0  0  0  0  0  0  0  0  0  0  0  0
   -9.3393   -2.0560  -22.5078 C   0  0  1  0  0  0  0  0  0  0  0  0
   -9.2602   -1.3103  -23.8675 C   0  0  0  0  0  0  0  0  0  0  0  0
  -10.0913   -0.1284  -23.8623 N   0  0  0  0  0  0  0  0  0  0  0  0
   -9.6025    1.0711  -24.5063 C   0  0  0  0  0  0  0  0  0  0  0  0
   -8.6893    1.8452  -23.6179 C   0  0  0  0  0  0  0  0  0  0  0  0
   -9.0556    2.4518  -22.4483 C   0  0  0  0  0  0  0  0  0  0  0  0
   -7.9461    3.2401  -22.0935 C   0  0  0  0  0  0  0  0  0  0  0  0
   -6.9517    3.0952  -22.9611 N   0  0  0  0  0  0  0  0  0  0  0  0
   -7.4132    2.2206  -23.8730 N   0  0  0  0  0  0  0  0  0  0  0  0
   -6.5582    1.7733  -24.9480 C   0  0  0  0  0  0  0  0  0  0  0  0
   -5.5457    2.0879  -24.7021 H   0  0  0  0  0  0  0  0  0  0  0  0
   -6.5858    0.6807  -25.0176 H   0  0  0  0  0  0  0  0  0  0  0  0
   -6.8387    2.2018  -25.9176 H   0  0  0  0  0  0  0  0  0  0  0  0
   -7.8497    3.9522  -21.2878 H   0  0  0  0  0  0  0  0  0  0  0  0
   -9.9923    2.3016  -21.9351 H   0  0  0  0  0  0  0  0  0  0  0  0
  -10.4889    1.6819  -24.6602 H   0  0  0  0  0  0  0  0  0  0  0  0
   -9.1562    0.8603  -25.4876 H   0  0  0  0  0  0  0  0  0  0  0  0
  -11.3372   -0.1287  -23.2956 C   0  0  0  0  0  0  0  0  0  0  0  0
  -12.0713    0.8560  -23.3261 O   0  0  0  0  0  0  0  0  0  0  0  0
  -11.7581   -1.4034  -22.6237 C   0  0  0  0  0  0  0  0  0  0  0  0
  -13.1187   -1.5696  -22.3565 C   0  0  0  0  0  0  0  0  0  0  0  0
  -13.5466   -2.6334  -21.5900 C   0  0  0  0  0  0  0  0  0  0  0  0
  -12.5991   -3.5655  -21.1859 C   0  0  0  0  0  0  0  0  0  0  0  0
  -13.0032   -4.4465  -20.2584 F   0  0  0  0  0  0  0  0  0  0  0  0
  -11.2788   -3.5404  -21.6160 C   0  0  0  0  0  0  0  0  0  0  0  0
  -10.8120   -2.3833  -22.2678 C   0  0  0  0  0  0  0  0  0  0  0  0
  -10.6280   -4.3801  -21.3958 H   0  0  0  0  0  0  0  0  0  0  0  0
  -14.5749   -2.7604  -21.2772 H   0  0  0  0  0  0  0  0  0  0  0  0
  -13.8209   -0.8290  -22.7181 H   0  0  0  0  0  0  0  0  0  0  0  0
   -9.5789   -1.9870  -24.6727 H   0  0  0  0  0  0  0  0  0  0  0  0
   -8.2329   -0.9828  -24.0638 H   0  0  0  0  0  0  0  0  0  0  0  0
   -6.3531   -3.2264  -21.4133 H   0  0  0  0  0  0  0  0  0  0  0  0
   -6.3979   -2.2385  -22.8772 H   0  0  0  0  0  0  0  0  0  0  0  0
   -8.6124   -3.8849  -21.6310 H   0  0  0  0  0  0  0  0  0  0  0  0
   -7.7662   -3.3832  -24.5373 H   0  0  0  0  0  0  0  0  0  0  0  0
   -9.1417   -4.3933  -24.0714 H   0  0  0  0  0  0  0  0  0  0  0  0
   -7.4835   -4.8700  -23.6209 H   0  0  0  0  0  0  0  0  0  0  0  0
  1  2  1  0
  2  3  1  0
  3  4  1  0
  4  5  1  0
  5  6  2  0
  6  7  1  0
  7  8  2  0
  8  9  1  0
  9 10  2  0
 10 11  1  0
 11 12  2  0
 12 13  1  0
 13 14  2  0
 13 15  1  0
 12 16  1  0
 11 17  1  0
 10 18  1  0
  8 19  1  0
  6 20  1  0
  4 21  1  0
 21 22  2  0
 21 23  1  0
 23 24  1  6
 24 25  1  0
 25 26  1  0
 26 27  1  0
 27 28  2  0
 28 29  1  0
 29 30  2  0
 30 31  1  0
 31 32  1  0
 32 33  1  0
 32 34  1  0
 32 35  1  0
 29 36  1  0
 28 37  1  0
 26 38  1  0
 26 39  1  0
 25 40  1  0
 40 41  2  0
 40 42  1  0
 42 43  2  0
 43 44  1  0
 44 45  2  0
 45 46  1  0
 45 47  1  0
 47 48  2  0
 47 49  1  0
 44 50  1  0
 43 51  1  0
 24 52  1  0
 24 53  1  0
  3 54  1  0
  3 55  1  0
  2 56  1  1
  1 57  1  0
  1 58  1  0
  1 59  1  0
 23  2  1  0
 31 27  1  0
 48 42  1  0
 14  5  1  0
 48 23  1  0
 14  9  1  0
M  END
>  <cnnaffinities>  (85) 
[6.71448, 6.52175, 6.02554, 6.34446]

>  <score>  (85) 
6.71448

>  <index>  (85) 
87

>  <Smiles>  (85) 
C([C@]1(C(N(c2c(nc(c3c(c(c(c(c23)[H])[H])[H])[H])[H])[H])C(=O)[C@]21C(N(C(c1c(c(nn1C([H])([H])[H])[H])[H])([H])[H])C(=O)c1c(c(c(F)c(c21)[H])[H])[H])([H])[H])([H])[H])[H])([H])([H])[H]

>  <h>  (85) 
<NA>

>  <Training>  (85) 
True

>  <Success>  (85) 
True

>  <enamine_searched>  (85) 
False

>  <enamine_id>  (85) 
nan

$$$$

     RDKit          3D

 40 42  0  0  0  0  0  0  0  0999 V2000
   -5.5910   -2.9711  -21.6799 O   0  0  0  0  0  0  0  0  0  0  0  0
   -6.7933   -2.7991  -21.7759 C   0  0  0  0  0  0  0  0  0  0  0  0
   -7.4238   -1.4823  -21.2550 C   0  0  0  0  0  0  0  0  0  0  0  0
   -6.5823   -0.8245  -20.1815 C   0  0  0  0  0  0  0  0  0  0  0  0
   -6.8724   -1.0414  -18.8593 C   0  0  0  0  0  0  0  0  0  0  0  0
   -6.1825   -0.5416  -17.8025 N   0  0  0  0  0  0  0  0  0  0  0  0
   -5.1543    0.2247  -18.0666 C   0  0  0  0  0  0  0  0  0  0  0  0
   -4.7182    0.5317  -19.3834 C   0  0  0  0  0  0  0  0  0  0  0  0
   -3.5877    1.3557  -19.6210 C   0  0  0  0  0  0  0  0  0  0  0  0
   -3.1872    1.6337  -20.8997 C   0  0  0  0  0  0  0  0  0  0  0  0
   -3.9016    1.0941  -21.9911 C   0  0  0  0  0  0  0  0  0  0  0  0
   -4.9971    0.2904  -21.7859 C   0  0  0  0  0  0  0  0  0  0  0  0
   -5.4437   -0.0097  -20.4733 C   0  0  0  0  0  0  0  0  0  0  0  0
   -5.5179   -0.1376  -22.6356 H   0  0  0  0  0  0  0  0  0  0  0  0
   -3.5757    1.3165  -23.0026 H   0  0  0  0  0  0  0  0  0  0  0  0
   -2.3276    2.2736  -21.0830 H   0  0  0  0  0  0  0  0  0  0  0  0
   -3.0552    1.7759  -18.7706 H   0  0  0  0  0  0  0  0  0  0  0  0
   -4.6006    0.6285  -17.2168 H   0  0  0  0  0  0  0  0  0  0  0  0
   -7.7185   -1.6691  -18.5837 H   0  0  0  0  0  0  0  0  0  0  0  0
   -8.4255   -1.6853  -20.8465 H   0  0  0  0  0  0  0  0  0  0  0  0
   -7.5644   -0.7899  -22.0956 H   0  0  0  0  0  0  0  0  0  0  0  0
   -7.6213   -3.7653  -22.3129 N   0  0  0  0  0  0  0  0  0  0  0  0
   -7.2634   -5.1766  -22.1484 C   0  0  0  0  0  0  0  0  0  0  0  0
   -7.5491   -6.0014  -23.3958 C   0  0  0  0  0  0  0  0  0  0  0  0
   -8.9876   -5.8058  -23.8515 C   0  0  0  0  0  0  0  0  0  0  0  0
   -9.3353   -6.6222  -25.0811 C   0  0  0  0  0  0  0  0  0  0  0  0
   -8.5083   -6.2809  -26.1113 F   0  0  0  0  0  0  0  0  0  0  0  0
   -9.1515   -7.9562  -24.8519 F   0  0  0  0  0  0  0  0  0  0  0  0
  -10.3693   -6.4860  -25.4274 H   0  0  0  0  0  0  0  0  0  0  0  0
   -9.2772   -4.3283  -24.0593 C   0  0  0  0  0  0  0  0  0  0  0  0
   -8.9717   -3.5174  -22.8033 C   0  0  0  0  0  0  0  0  0  0  0  0
   -9.7207   -3.7515  -22.0322 H   0  0  0  0  0  0  0  0  0  0  0  0
   -9.0780   -2.4580  -23.0377 H   0  0  0  0  0  0  0  0  0  0  0  0
   -8.6821   -3.9625  -24.8987 H   0  0  0  0  0  0  0  0  0  0  0  0
  -10.3270   -4.1838  -24.3391 H   0  0  0  0  0  0  0  0  0  0  0  0
   -9.6360   -6.1714  -23.0616 H   0  0  0  0  0  0  0  0  0  0  0  0
   -6.8729   -5.7043  -24.1989 H   0  0  0  0  0  0  0  0  0  0  0  0
   -7.3561   -7.0618  -23.1962 H   0  0  0  0  0  0  0  0  0  0  0  0
   -6.2068   -5.2354  -21.8914 H   0  0  0  0  0  0  0  0  0  0  0  0
   -7.8178   -5.6142  -21.3056 H   0  0  0  0  0  0  0  0  0  0  0  0
  1  2  2  0
  2  3  1  0
  3  4  1  0
  4  5  2  0
  5  6  1  0
  6  7  2  0
  7  8  1  0
  8  9  2  0
  9 10  1  0
 10 11  2  0
 11 12  1  0
 12 13  2  0
 12 14  1  0
 11 15  1  0
 10 16  1  0
  9 17  1  0
  7 18  1  0
  5 19  1  0
  3 20  1  0
  3 21  1  0
  2 22  1  0
 22 23  1  0
 23 24  1  0
 24 25  1  0
 25 26  1  0
 26 27  1  0
 26 28  1  0
 26 29  1  0
 25 30  1  0
 30 31  1  0
 31 32  1  0
 31 33  1  0
 30 34  1  0
 30 35  1  0
 25 36  1  0
 24 37  1  0
 24 38  1  0
 23 39  1  0
 23 40  1  0
 13  4  1  0
 31 22  1  0
 13  8  1  0
M  END
>  <cnnaffinities>  (86) 
[5.21613, 5.22094, 5.22091, 5.2198, 5.15926]

>  <score>  (86) 
5.21613

>  <index>  (86) 
88

>  <Smiles>  (86) 
O=C(C(c1c(nc(c2c(c(c(c(c12)[H])[H])[H])[H])[H])[H])([H])[H])N1C(C(C(C(F)(F)[H])(C(C1([H])[H])([H])[H])[H])([H])[H])([H])[H]

>  <h>  (86) 
<NA>

>  <Training>  (86) 
True

>  <Success>  (86) 
True

>  <enamine_searched>  (86) 
False

>  <enamine_id>  (86) 
nan

$$$$

     RDKit          3D

 43 45  0  0  0  0  0  0  0  0999 V2000
   -8.7218    1.3571  -26.5376 C   0  0  0  0  0  0  0  0  0  0  0  0
   -7.4244    1.1175  -25.7539 C   0  0  0  0  0  0  0  0  0  0  0  0
   -6.2433    1.4933  -26.6548 C   0  0  0  0  0  0  0  0  0  0  0  0
   -6.2926    2.5454  -26.9587 H   0  0  0  0  0  0  0  0  0  0  0  0
   -6.2308    0.8849  -27.5669 H   0  0  0  0  0  0  0  0  0  0  0  0
   -5.2856    1.3411  -26.1447 H   0  0  0  0  0  0  0  0  0  0  0  0
   -7.2943   -0.3581  -25.3507 C   0  0  0  0  0  0  0  0  0  0  0  0
   -8.2751   -0.7735  -24.2607 C   0  0  0  0  0  0  0  0  0  0  0  0
   -8.1727    0.1179  -23.1115 N   0  0  0  0  0  0  0  0  0  0  0  0
   -8.3856   -0.3130  -21.7968 C   0  0  0  0  0  0  0  0  0  0  0  0
   -9.1975    0.2063  -21.0627 O   0  0  0  0  0  0  0  0  0  0  0  0
   -7.4463   -1.4117  -21.2715 C   0  0  0  0  0  0  0  0  0  0  0  0
   -6.5716   -0.8339  -20.1769 C   0  0  0  0  0  0  0  0  0  0  0  0
   -6.8761   -1.0401  -18.8562 C   0  0  0  0  0  0  0  0  0  0  0  0
   -6.1848   -0.5355  -17.8006 N   0  0  0  0  0  0  0  0  0  0  0  0
   -5.1525    0.2233  -18.0680 C   0  0  0  0  0  0  0  0  0  0  0  0
   -4.7195    0.5338  -19.3839 C   0  0  0  0  0  0  0  0  0  0  0  0
   -3.5965    1.3643  -19.6249 C   0  0  0  0  0  0  0  0  0  0  0  0
   -3.2092    1.6619  -20.9029 C   0  0  0  0  0  0  0  0  0  0  0  0
   -3.9328    1.1321  -21.9947 C   0  0  0  0  0  0  0  0  0  0  0  0
   -5.0187    0.3173  -21.7860 C   0  0  0  0  0  0  0  0  0  0  0  0
   -5.4494   -0.0022  -20.4726 C   0  0  0  0  0  0  0  0  0  0  0  0
   -5.5534   -0.0868  -22.6378 H   0  0  0  0  0  0  0  0  0  0  0  0
   -3.6190    1.3735  -23.0055 H   0  0  0  0  0  0  0  0  0  0  0  0
   -2.3597    2.3140  -21.0837 H   0  0  0  0  0  0  0  0  0  0  0  0
   -3.0648    1.7816  -18.7736 H   0  0  0  0  0  0  0  0  0  0  0  0
   -4.6018    0.6278  -17.2167 H   0  0  0  0  0  0  0  0  0  0  0  0
   -7.7277   -1.6593  -18.5800 H   0  0  0  0  0  0  0  0  0  0  0  0
   -6.8370   -1.8405  -22.0766 H   0  0  0  0  0  0  0  0  0  0  0  0
   -8.0662   -2.2085  -20.8442 H   0  0  0  0  0  0  0  0  0  0  0  0
   -8.3838    1.5279  -23.4124 C   0  0  0  0  0  0  0  0  0  0  0  0
   -7.3927    1.9820  -24.4852 C   0  0  0  0  0  0  0  0  0  0  0  0
   -7.5795    3.0274  -24.7520 H   0  0  0  0  0  0  0  0  0  0  0  0
   -6.3829    1.9554  -24.0541 H   0  0  0  0  0  0  0  0  0  0  0  0
   -9.4179    1.7505  -23.7176 H   0  0  0  0  0  0  0  0  0  0  0  0
   -8.2169    2.0835  -22.4895 H   0  0  0  0  0  0  0  0  0  0  0  0
   -8.0676   -1.7877  -23.9242 H   0  0  0  0  0  0  0  0  0  0  0  0
   -9.2994   -0.7964  -24.6737 H   0  0  0  0  0  0  0  0  0  0  0  0
   -6.2786   -0.5400  -24.9813 H   0  0  0  0  0  0  0  0  0  0  0  0
   -7.4236   -0.9923  -26.2346 H   0  0  0  0  0  0  0  0  0  0  0  0
   -9.6207    1.1178  -25.9640 H   0  0  0  0  0  0  0  0  0  0  0  0
   -8.7452    0.7465  -27.4467 H   0  0  0  0  0  0  0  0  0  0  0  0
   -8.8016    2.4055  -26.8446 H   0  0  0  0  0  0  0  0  0  0  0  0
  1  2  1  0
  2  3  1  0
  3  4  1  0
  3  5  1  0
  3  6  1  0
  2  7  1  0
  7  8  1  0
  8  9  1  0
  9 10  1  0
 10 11  2  0
 10 12  1  0
 12 13  1  0
 13 14  2  0
 14 15  1  0
 15 16  2  0
 16 17  1  0
 17 18  2  0
 18 19  1  0
 19 20  2  0
 20 21  1  0
 21 22  2  0
 21 23  1  0
 20 24  1  0
 19 25  1  0
 18 26  1  0
 16 27  1  0
 14 28  1  0
 12 29  1  0
 12 30  1  0
  9 31  1  0
 31 32  1  0
 32 33  1  0
 32 34  1  0
 31 35  1  0
 31 36  1  0
  8 37  1  0
  8 38  1  0
  7 39  1  0
  7 40  1  0
  1 41  1  0
  1 42  1  0
  1 43  1  0
 32  2  1  0
 22 13  1  0
 22 17  1  0
M  END
>  <cnnaffinities>  (87) 
[5.1413, 5.14137, 5.1413, 5.14134, 4.93512, 4.93517, 4.93501, 5.08896, 5.13639, 5.13638, 5.13637]

>  <score>  (87) 
5.1413

>  <index>  (87) 
89

>  <Smiles>  (87) 
C(C1(C([H])([H])[H])C(C(N(C(=O)C(c2c(nc(c3c(c(c(c(c23)[H])[H])[H])[H])[H])[H])([H])[H])C(C1([H])[H])([H])[H])([H])[H])([H])[H])([H])([H])[H]

>  <h>  (87) 
<NA>

>  <Training>  (87) 
True

>  <Success>  (87) 
True

>  <enamine_searched>  (87) 
False

>  <enamine_id>  (87) 
nan

$$$$

     RDKit          3D

 64 68  0  0  0  0  0  0  0  0999 V2000
   -7.6091    3.1796  -21.8930 C   0  0  0  0  0  0  0  0  0  0  0  0
   -8.7390    2.7029  -22.6770 N   0  0  0  0  0  0  0  0  0  0  0  0
   -8.4077    1.9003  -23.7304 C   0  0  0  0  0  0  0  0  0  0  0  0
   -7.2403    1.6565  -24.0132 O   0  0  0  0  0  0  0  0  0  0  0  0
   -9.5439    1.2921  -24.5414 C   0  0  0  0  0  0  0  0  0  0  0  0
  -10.0117    0.0894  -23.8928 N   0  0  0  0  0  0  0  0  0  0  0  0
   -9.1713   -1.0996  -23.9237 C   0  0  0  0  0  0  0  0  0  0  0  0
   -9.2712   -1.8735  -22.5832 C   0  0  2  0  0  0  0  0  0  0  0  0
   -8.6765   -0.9801  -21.4669 C   0  0  0  0  0  0  0  0  0  0  0  0
   -9.2045   -0.0163  -20.9470 O   0  0  0  0  0  0  0  0  0  0  0  0
   -7.4024   -1.4269  -21.1844 N   0  0  0  0  0  0  0  0  0  0  0  0
   -6.6119   -0.8305  -20.1730 C   0  0  0  0  0  0  0  0  0  0  0  0
   -6.9225   -1.0473  -18.8527 C   0  0  0  0  0  0  0  0  0  0  0  0
   -6.2129   -0.5545  -17.8117 N   0  0  0  0  0  0  0  0  0  0  0  0
   -5.1735    0.1932  -18.0875 C   0  0  0  0  0  0  0  0  0  0  0  0
   -4.7458    0.5082  -19.4074 C   0  0  0  0  0  0  0  0  0  0  0  0
   -3.6244    1.3443  -19.6484 C   0  0  0  0  0  0  0  0  0  0  0  0
   -3.2555    1.6559  -20.9273 C   0  0  0  0  0  0  0  0  0  0  0  0
   -3.9920    1.1543  -22.0218 C   0  0  0  0  0  0  0  0  0  0  0  0
   -5.0841    0.3418  -21.8165 C   0  0  0  0  0  0  0  0  0  0  0  0
   -5.4839   -0.0123  -20.4976 C   0  0  0  0  0  0  0  0  0  0  0  0
   -5.6634    0.0078  -22.6719 H   0  0  0  0  0  0  0  0  0  0  0  0
   -3.6947    1.4151  -23.0329 H   0  0  0  0  0  0  0  0  0  0  0  0
   -2.4024    2.3041  -21.1044 H   0  0  0  0  0  0  0  0  0  0  0  0
   -3.0889    1.7455  -18.7923 H   0  0  0  0  0  0  0  0  0  0  0  0
   -4.6082    0.5966  -17.2462 H   0  0  0  0  0  0  0  0  0  0  0  0
   -7.7835   -1.6620  -18.6019 H   0  0  0  0  0  0  0  0  0  0  0  0
   -6.9857   -2.5713  -21.9689 C   0  0  0  0  0  0  0  0  0  0  0  0
   -8.3228   -3.1009  -22.5245 C   0  0  2  0  0  0  0  0  0  0  0  0
   -8.1877   -3.9033  -23.8190 C   0  0  0  0  0  0  0  0  0  0  0  0
   -7.4086   -5.4805  -23.5085 S   0  0  0  0  0  0  0  0  0  0  0  0
   -8.2549   -6.2447  -22.6001 O   0  0  0  0  0  0  0  0  0  0  0  0
   -6.0130   -5.2749  -23.1480 O   0  0  0  0  0  0  0  0  0  0  0  0
   -7.3811   -6.1322  -25.0487 N   0  0  0  0  0  0  0  0  0  0  0  0
   -8.6172   -6.6623  -25.6222 C   0  0  0  0  0  0  0  0  0  0  0  0
   -9.2688   -5.8419  -25.9448 H   0  0  0  0  0  0  0  0  0  0  0  0
   -9.1628   -7.3188  -24.9341 H   0  0  0  0  0  0  0  0  0  0  0  0
   -8.3477   -7.2256  -26.5186 H   0  0  0  0  0  0  0  0  0  0  0  0
   -6.5833   -6.7570  -25.1046 H   0  0  0  0  0  0  0  0  0  0  0  0
   -7.5863   -3.3878  -24.5738 H   0  0  0  0  0  0  0  0  0  0  0  0
   -9.1714   -4.1120  -24.2497 H   0  0  0  0  0  0  0  0  0  0  0  0
   -8.7152   -3.7878  -21.7713 H   0  0  0  0  0  0  0  0  0  0  0  0
   -6.4843   -3.3154  -21.3455 H   0  0  0  0  0  0  0  0  0  0  0  0
   -6.2917   -2.2829  -22.7745 H   0  0  0  0  0  0  0  0  0  0  0  0
  -10.7474   -2.1477  -22.3423 C   0  0  0  0  0  0  0  0  0  0  0  0
  -11.2133   -3.2516  -21.6225 C   0  0  0  0  0  0  0  0  0  0  0  0
  -12.5576   -3.3354  -21.3151 C   0  0  0  0  0  0  0  0  0  0  0  0
  -12.9703   -4.2820  -20.4599 F   0  0  0  0  0  0  0  0  0  0  0  0
  -13.5100   -2.4529  -21.8012 C   0  0  0  0  0  0  0  0  0  0  0  0
  -13.0601   -1.3742  -22.5299 C   0  0  0  0  0  0  0  0  0  0  0  0
  -11.6947   -1.1862  -22.7317 C   0  0  0  0  0  0  0  0  0  0  0  0
  -11.2420    0.1145  -23.3118 C   0  0  0  0  0  0  0  0  0  0  0  0
  -11.9154    1.1387  -23.2638 O   0  0  0  0  0  0  0  0  0  0  0  0
  -13.7502   -0.6407  -22.9282 H   0  0  0  0  0  0  0  0  0  0  0  0
  -14.5550   -2.6015  -21.5576 H   0  0  0  0  0  0  0  0  0  0  0  0
  -10.5602   -4.0263  -21.2402 H   0  0  0  0  0  0  0  0  0  0  0  0
   -9.4872   -1.7506  -24.7506 H   0  0  0  0  0  0  0  0  0  0  0  0
   -8.1391   -0.7752  -24.1027 H   0  0  0  0  0  0  0  0  0  0  0  0
  -10.3936    1.9712  -24.6392 H   0  0  0  0  0  0  0  0  0  0  0  0
   -9.1569    1.0406  -25.5335 H   0  0  0  0  0  0  0  0  0  0  0  0
   -9.6148    2.5696  -22.1786 H   0  0  0  0  0  0  0  0  0  0  0  0
   -7.9258    3.9203  -21.1546 H   0  0  0  0  0  0  0  0  0  0  0  0
   -7.0906    2.3345  -21.4103 H   0  0  0  0  0  0  0  0  0  0  0  0
   -6.9045    3.6608  -22.5749 H   0  0  0  0  0  0  0  0  0  0  0  0
  1  2  1  0
  2  3  1  0
  3  4  2  0
  3  5  1  0
  5  6  1  0
  6  7  1  0
  8  7  1  6
  8  9  1  0
  9 10  2  0
  9 11  1  0
 11 12  1  0
 12 13  2  0
 13 14  1  0
 14 15  2  0
 15 16  1  0
 16 17  2  0
 17 18  1  0
 18 19  2  0
 19 20  1  0
 20 21  2  0
 20 22  1  0
 19 23  1  0
 18 24  1  0
 17 25  1  0
 15 26  1  0
 13 27  1  0
 11 28  1  0
 28 29  1  0
 29 30  1  0
 30 31  1  0
 31 32  2  0
 31 33  2  0
 31 34  1  0
 34 35  1  0
 35 36  1  0
 35 37  1  0
 35 38  1  0
 34 39  1  0
 30 40  1  0
 30 41  1  0
 29 42  1  1
 28 43  1  0
 28 44  1  0
  8 45  1  0
 45 46  2  0
 46 47  1  0
 47 48  1  0
 47 49  2  0
 49 50  1  0
 50 51  2  0
 51 52  1  0
 52 53  2  0
 50 54  1  0
 49 55  1  0
 46 56  1  0
  7 57  1  0
  7 58  1  0
  5 59  1  0
  5 60  1  0
  2 61  1  0
  1 62  1  0
  1 63  1  0
  1 64  1  0
 52  6  1  0
 29  8  1  0
 51 45  1  0
 21 12  1  0
 21 16  1  0
M  END
>  <cnnaffinities>  (88) 
[6.83973]

>  <score>  (88) 
6.83973

>  <index>  (88) 
90

>  <Smiles>  (88) 
C(N(C(=O)C(N1C([C@@]2(C(=O)N(c3c(nc(c4c(c(c(c(c34)[H])[H])[H])[H])[H])[H])C([C@@]2(C(S(=O)(=O)N(C([H])([H])[H])[H])([H])[H])[H])([H])[H])c2c(c(F)c(c(c2C1=O)[H])[H])[H])([H])[H])([H])[H])[H])([H])([H])[H]

>  <h>  (88) 
<NA>

>  <Training>  (88) 
True

>  <Success>  (88) 
True

>  <enamine_searched>  (88) 
False

>  <enamine_id>  (88) 
nan

$$$$

     RDKit          3D

 66 71  0  0  0  0  0  0  0  0999 V2000
   -7.4764    3.3238  -21.9214 C   0  0  0  0  0  0  0  0  0  0  0  0
   -8.5445    2.8165  -22.7613 N   0  0  0  0  0  0  0  0  0  0  0  0
   -8.2078    2.0436  -23.8217 C   0  0  0  0  0  0  0  0  0  0  0  0
   -7.0422    1.7756  -24.0769 O   0  0  0  0  0  0  0  0  0  0  0  0
   -9.3718    1.4891  -24.6491 C   0  0  0  0  0  0  0  0  0  0  0  0
   -9.9067    0.3114  -23.9954 N   0  0  0  0  0  0  0  0  0  0  0  0
   -9.1333   -0.9224  -24.0265 C   0  0  0  0  0  0  0  0  0  0  0  0
   -9.2779   -1.7204  -22.7022 C   0  0  2  0  0  0  0  0  0  0  0  0
   -8.6622   -0.8727  -21.5490 C   0  0  0  0  0  0  0  0  0  0  0  0
   -9.1401    0.1110  -21.0196 O   0  0  0  0  0  0  0  0  0  0  0  0
   -7.4431   -1.4086  -21.2091 N   0  0  0  0  0  0  0  0  0  0  0  0
   -6.6391   -0.8206  -20.1997 C   0  0  0  0  0  0  0  0  0  0  0  0
   -6.9465   -1.0470  -18.8810 C   0  0  0  0  0  0  0  0  0  0  0  0
   -6.2294   -0.5706  -17.8373 N   0  0  0  0  0  0  0  0  0  0  0  0
   -5.1860    0.1728  -18.1060 C   0  0  0  0  0  0  0  0  0  0  0  0
   -4.7564    0.4940  -19.4234 C   0  0  0  0  0  0  0  0  0  0  0  0
   -3.6313    1.3283  -19.6553 C   0  0  0  0  0  0  0  0  0  0  0  0
   -3.2555    1.6473  -20.9306 C   0  0  0  0  0  0  0  0  0  0  0  0
   -3.9940    1.1547  -22.0292 C   0  0  0  0  0  0  0  0  0  0  0  0
   -5.0939    0.3497  -21.8326 C   0  0  0  0  0  0  0  0  0  0  0  0
   -5.5016   -0.0097  -20.5177 C   0  0  0  0  0  0  0  0  0  0  0  0
   -5.6777    0.0219  -22.6881 H   0  0  0  0  0  0  0  0  0  0  0  0
   -3.6984    1.4258  -23.0385 H   0  0  0  0  0  0  0  0  0  0  0  0
   -2.4013    2.2969  -21.1029 H   0  0  0  0  0  0  0  0  0  0  0  0
   -3.1004    1.7229  -18.7934 H   0  0  0  0  0  0  0  0  0  0  0  0
   -4.6198    0.5667  -17.2603 H   0  0  0  0  0  0  0  0  0  0  0  0
   -7.8136   -1.6532  -18.6292 H   0  0  0  0  0  0  0  0  0  0  0  0
   -7.0708   -2.5685  -21.9884 C   0  0  0  0  0  0  0  0  0  0  0  0
   -8.3779   -2.9910  -22.6806 C   0  0  2  0  0  0  0  0  0  0  0  0
   -8.0413   -3.7026  -23.9992 C   0  0  0  0  0  0  0  0  0  0  0  0
   -9.2193   -4.1520  -24.6948 N   0  0  0  0  0  0  0  0  0  0  0  0
   -9.2392   -4.8072  -25.9004 C   0  0  0  0  0  0  0  0  0  0  0  0
   -8.0812   -5.2425  -26.5834 C   0  0  0  0  0  0  0  0  0  0  0  0
   -8.1507   -5.9434  -27.7072 N   0  0  0  0  0  0  0  0  0  0  0  0
   -9.3651   -6.2143  -28.1995 C   0  0  0  0  0  0  0  0  0  0  0  0
  -10.4987   -5.7354  -27.5668 C   0  0  0  0  0  0  0  0  0  0  0  0
  -10.4344   -5.0415  -26.4347 N   0  0  0  0  0  0  0  0  0  0  0  0
  -11.4936   -5.8982  -27.9789 H   0  0  0  0  0  0  0  0  0  0  0  0
   -9.4336   -6.8225  -29.0994 H   0  0  0  0  0  0  0  0  0  0  0  0
   -7.0870   -5.0267  -26.1995 H   0  0  0  0  0  0  0  0  0  0  0  0
  -10.1254   -3.9054  -24.3214 H   0  0  0  0  0  0  0  0  0  0  0  0
   -7.3960   -4.5630  -23.7703 H   0  0  0  0  0  0  0  0  0  0  0  0
   -7.4422   -3.0281  -24.6310 H   0  0  0  0  0  0  0  0  0  0  0  0
   -8.8800   -3.7100  -22.0304 H   0  0  0  0  0  0  0  0  0  0  0  0
   -6.2975   -2.3130  -22.7284 H   0  0  0  0  0  0  0  0  0  0  0  0
   -6.6650   -3.3616  -21.3515 H   0  0  0  0  0  0  0  0  0  0  0  0
  -10.7707   -1.9193  -22.4504 C   0  0  0  0  0  0  0  0  0  0  0  0
  -11.3185   -3.0112  -21.7615 C   0  0  0  0  0  0  0  0  0  0  0  0
  -12.6740   -3.0346  -21.4661 C   0  0  0  0  0  0  0  0  0  0  0  0
  -13.3332   -4.2260  -20.3850 Cl  0  0  0  0  0  0  0  0  0  0  0  0
  -13.5388   -2.0459  -21.9268 C   0  0  0  0  0  0  0  0  0  0  0  0
  -13.0061   -0.9448  -22.5615 C   0  0  0  0  0  0  0  0  0  0  0  0
  -11.6355   -0.8650  -22.7887 C   0  0  0  0  0  0  0  0  0  0  0  0
  -11.0916    0.4199  -23.3355 C   0  0  0  0  0  0  0  0  0  0  0  0
  -11.6770    1.4911  -23.2157 O   0  0  0  0  0  0  0  0  0  0  0  0
  -13.6359   -0.1171  -22.8704 H   0  0  0  0  0  0  0  0  0  0  0  0
  -14.6049   -2.1539  -21.7656 H   0  0  0  0  0  0  0  0  0  0  0  0
  -10.7090   -3.8377  -21.4147 H   0  0  0  0  0  0  0  0  0  0  0  0
   -8.0798   -0.6705  -24.1829 H   0  0  0  0  0  0  0  0  0  0  0  0
   -9.4656   -1.5327  -24.8734 H   0  0  0  0  0  0  0  0  0  0  0  0
  -10.1805    2.2175  -24.7570 H   0  0  0  0  0  0  0  0  0  0  0  0
   -9.0024    1.2380  -25.6483 H   0  0  0  0  0  0  0  0  0  0  0  0
   -9.4760    2.7690  -22.3774 H   0  0  0  0  0  0  0  0  0  0  0  0
   -7.8833    3.9933  -21.1600 H   0  0  0  0  0  0  0  0  0  0  0  0
   -6.9228    2.4883  -21.4697 H   0  0  0  0  0  0  0  0  0  0  0  0
   -6.7728    3.8957  -22.5305 H   0  0  0  0  0  0  0  0  0  0  0  0
  1  2  1  0
  2  3  1  0
  3  4  2  0
  3  5  1  0
  5  6  1  0
  6  7  1  0
  8  7  1  6
  8  9  1  0
  9 10  2  0
  9 11  1  0
 11 12  1  0
 12 13  2  0
 13 14  1  0
 14 15  2  0
 15 16  1  0
 16 17  2  0
 17 18  1  0
 18 19  2  0
 19 20  1  0
 20 21  2  0
 20 22  1  0
 19 23  1  0
 18 24  1  0
 17 25  1  0
 15 26  1  0
 13 27  1  0
 11 28  1  0
 28 29  1  0
 29 30  1  0
 30 31  1  0
 31 32  1  0
 32 33  2  0
 33 34  1  0
 34 35  2  0
 35 36  1  0
 36 37  2  0
 36 38  1  0
 35 39  1  0
 33 40  1  0
 31 41  1  0
 30 42  1  0
 30 43  1  0
 29 44  1  1
 28 45  1  0
 28 46  1  0
  8 47  1  0
 47 48  2  0
 48 49  1  0
 49 50  1  0
 49 51  2  0
 51 52  1  0
 52 53  2  0
 53 54  1  0
 54 55  2  0
 52 56  1  0
 51 57  1  0
 48 58  1  0
  7 59  1  0
  7 60  1  0
  5 61  1  0
  5 62  1  0
  2 63  1  0
  1 64  1  0
  1 65  1  0
  1 66  1  0
 54  6  1  0
 29  8  1  0
 37 32  1  0
 53 47  1  0
 21 12  1  0
 21 16  1  0
M  END
>  <cnnaffinities>  (89) 
[6.63081]

>  <score>  (89) 
6.63081

>  <index>  (89) 
91

>  <Smiles>  (89) 
C(N(C(=O)C(N1C([C@@]2(C(=O)N(c3c(nc(c4c(c(c(c(c34)[H])[H])[H])[H])[H])[H])C([C@@]2(C(N(c2c(nc(c(n2)[H])[H])[H])[H])([H])[H])[H])([H])[H])c2c(c(Cl)c(c(c2C1=O)[H])[H])[H])([H])[H])([H])[H])[H])([H])([H])[H]

>  <h>  (89) 
<NA>

>  <Training>  (89) 
True

>  <Success>  (89) 
True

>  <enamine_searched>  (89) 
False

>  <enamine_id>  (89) 
nan

$$$$

     RDKit          3D

 60 65  0  0  0  0  0  0  0  0999 V2000
   -7.1899   -5.5741  -24.9525 C   0  0  0  0  0  0  0  0  0  0  0  0
   -7.4401   -4.9014  -23.7468 O   0  0  0  0  0  0  0  0  0  0  0  0
   -8.1690   -3.7191  -23.9404 C   0  0  0  0  0  0  0  0  0  0  0  0
   -8.3448   -3.0386  -22.5900 C   0  0  1  0  0  0  0  0  0  0  0  0
   -7.0135   -2.5502  -21.9756 C   0  0  0  0  0  0  0  0  0  0  0  0
   -7.4024   -1.3680  -21.2221 N   0  0  0  0  0  0  0  0  0  0  0  0
   -6.6111   -0.8115  -20.1851 C   0  0  0  0  0  0  0  0  0  0  0  0
   -6.9243   -1.0395  -18.8670 C   0  0  0  0  0  0  0  0  0  0  0  0
   -6.2108   -0.5556  -17.8236 N   0  0  0  0  0  0  0  0  0  0  0  0
   -5.1739    0.1980  -18.0922 C   0  0  0  0  0  0  0  0  0  0  0  0
   -4.7367    0.5145  -19.4083 C   0  0  0  0  0  0  0  0  0  0  0  0
   -3.6206    1.3573  -19.6510 C   0  0  0  0  0  0  0  0  0  0  0  0
   -3.2428    1.6521  -20.9317 C   0  0  0  0  0  0  0  0  0  0  0  0
   -3.9399    1.0949  -22.0238 C   0  0  0  0  0  0  0  0  0  0  0  0
   -4.9943    0.2361  -21.8097 C   0  0  0  0  0  0  0  0  0  0  0  0
   -5.4500   -0.0388  -20.4949 C   0  0  0  0  0  0  0  0  0  0  0  0
   -5.5229   -0.1924  -22.6540 H   0  0  0  0  0  0  0  0  0  0  0  0
   -3.6464    1.3721  -23.0326 H   0  0  0  0  0  0  0  0  0  0  0  0
   -2.4037    2.3172  -21.1111 H   0  0  0  0  0  0  0  0  0  0  0  0
   -3.0932    1.7716  -18.7973 H   0  0  0  0  0  0  0  0  0  0  0  0
   -4.6177    0.6011  -17.2454 H   0  0  0  0  0  0  0  0  0  0  0  0
   -7.7838   -1.6557  -18.6121 H   0  0  0  0  0  0  0  0  0  0  0  0
   -8.6955   -0.9467  -21.4604 C   0  0  0  0  0  0  0  0  0  0  0  0
   -9.2519   -0.0409  -20.8757 O   0  0  0  0  0  0  0  0  0  0  0  0
   -9.2860   -1.8103  -22.6027 C   0  0  1  0  0  0  0  0  0  0  0  0
   -9.1765   -1.0391  -23.9441 C   0  0  0  0  0  0  0  0  0  0  0  0
   -9.9978    0.1500  -23.9385 N   0  0  0  0  0  0  0  0  0  0  0  0
   -9.4520    1.3358  -24.5794 C   0  0  0  0  0  0  0  0  0  0  0  0
   -8.4784    2.0582  -23.6907 C   0  0  0  0  0  0  0  0  0  0  0  0
   -8.9255    2.9002  -22.6532 C   0  0  0  0  0  0  0  0  0  0  0  0
   -7.9308    3.3585  -21.8975 N   0  0  0  0  0  0  0  0  0  0  0  0
   -6.8441    2.8210  -22.4536 N   0  0  0  0  0  0  0  0  0  0  0  0
   -7.1068    2.0303  -23.5243 C   0  0  0  0  0  0  0  0  0  0  0  0
   -6.2874    1.5107  -24.0081 H   0  0  0  0  0  0  0  0  0  0  0  0
   -5.9296    2.9794  -22.0464 H   0  0  0  0  0  0  0  0  0  0  0  0
   -9.9475    3.1763  -22.4336 H   0  0  0  0  0  0  0  0  0  0  0  0
   -9.0186    1.0304  -25.5359 H   0  0  0  0  0  0  0  0  0  0  0  0
  -10.2969    1.9936  -24.7934 H   0  0  0  0  0  0  0  0  0  0  0  0
  -11.2434    0.1805  -23.3774 C   0  0  0  0  0  0  0  0  0  0  0  0
  -11.9306    1.1954  -23.3694 O   0  0  0  0  0  0  0  0  0  0  0  0
  -11.7042   -1.1134  -22.7644 C   0  0  0  0  0  0  0  0  0  0  0  0
  -13.0686   -1.2983  -22.5329 C   0  0  0  0  0  0  0  0  0  0  0  0
  -13.5100   -2.3732  -21.7943 C   0  0  0  0  0  0  0  0  0  0  0  0
  -12.5592   -3.2594  -21.3043 C   0  0  0  0  0  0  0  0  0  0  0  0
  -13.0992   -4.3808  -20.1073 Cl  0  0  0  0  0  0  0  0  0  0  0  0
  -11.2182   -3.1774  -21.6336 C   0  0  0  0  0  0  0  0  0  0  0  0
  -10.7620   -2.0799  -22.3719 C   0  0  0  0  0  0  0  0  0  0  0  0
  -10.5546   -3.9458  -21.2469 H   0  0  0  0  0  0  0  0  0  0  0  0
  -14.5541   -2.5157  -21.5312 H   0  0  0  0  0  0  0  0  0  0  0  0
  -13.7752   -0.5706  -22.9098 H   0  0  0  0  0  0  0  0  0  0  0  0
   -9.4873   -1.6973  -24.7687 H   0  0  0  0  0  0  0  0  0  0  0  0
   -8.1353   -0.7365  -24.1083 H   0  0  0  0  0  0  0  0  0  0  0  0
   -6.2618   -2.3097  -22.7429 H   0  0  0  0  0  0  0  0  0  0  0  0
   -6.5825   -3.3071  -21.3128 H   0  0  0  0  0  0  0  0  0  0  0  0
   -8.7498   -3.7884  -21.9063 H   0  0  0  0  0  0  0  0  0  0  0  0
   -9.1555   -3.9341  -24.3894 H   0  0  0  0  0  0  0  0  0  0  0  0
   -7.6380   -3.0500  -24.6426 H   0  0  0  0  0  0  0  0  0  0  0  0
   -6.5712   -4.9684  -25.6334 H   0  0  0  0  0  0  0  0  0  0  0  0
   -8.1243   -5.8307  -25.4757 H   0  0  0  0  0  0  0  0  0  0  0  0
   -6.6547   -6.4950  -24.7097 H   0  0  0  0  0  0  0  0  0  0  0  0
  1  2  1  0
  2  3  1  0
  3  4  1  0
  4  5  1  0
  5  6  1  0
  6  7  1  0
  7  8  2  0
  8  9  1  0
  9 10  2  0
 10 11  1  0
 11 12  2  0
 12 13  1  0
 13 14  2  0
 14 15  1  0
 15 16  2  0
 15 17  1  0
 14 18  1  0
 13 19  1  0
 12 20  1  0
 10 21  1  0
  8 22  1  0
  6 23  1  0
 23 24  2  0
 23 25  1  0
 25 26  1  6
 26 27  1  0
 27 28  1  0
 28 29  1  0
 29 30  1  0
 30 31  2  0
 31 32  1  0
 32 33  1  0
 33 34  1  0
 32 35  1  0
 30 36  1  0
 28 37  1  0
 28 38  1  0
 27 39  1  0
 39 40  2  0
 39 41  1  0
 41 42  2  0
 42 43  1  0
 43 44  2  0
 44 45  1  0
 44 46  1  0
 46 47  2  0
 46 48  1  0
 43 49  1  0
 42 50  1  0
 26 51  1  0
 26 52  1  0
  5 53  1  0
  5 54  1  0
  4 55  1  1
  3 56  1  0
  3 57  1  0
  1 58  1  0
  1 59  1  0
  1 60  1  0
 25  4  1  0
 33 29  2  0
 47 41  1  0
 16  7  1  0
 47 25  1  0
 16 11  1  0
M  END
>  <cnnaffinities>  (90) 
[6.56535]

>  <score>  (90) 
6.56535

>  <index>  (90) 
92

>  <Smiles>  (90) 
C(OC([C@]1(C(N(c2c(nc(c3c(c(c(c(c23)[H])[H])[H])[H])[H])[H])C(=O)[C@]21C(N(C(c1c(nn(c1[H])[H])[H])([H])[H])C(=O)c1c(c(c(Cl)c(c21)[H])[H])[H])([H])[H])([H])[H])[H])([H])[H])([H])([H])[H]

>  <h>  (90) 
<NA>

>  <Training>  (90) 
True

>  <Success>  (90) 
True

>  <enamine_searched>  (90) 
False

>  <enamine_id>  (90) 
nan

$$$$

     RDKit          3D

 62 67  0  0  0  0  0  0  0  0999 V2000
  -11.3119    4.3274  -25.2227 C   0  0  0  0  0  0  0  0  0  0  0  0
   -9.8216    4.1778  -25.5279 C   0  0  0  0  0  0  0  0  0  0  0  0
   -9.0682    3.5914  -24.4243 N   0  0  0  0  0  0  0  0  0  0  0  0
   -8.4895    4.4159  -23.5360 N   0  0  0  0  0  0  0  0  0  0  0  0
   -7.9032    3.6214  -22.6494 C   0  0  0  0  0  0  0  0  0  0  0  0
   -8.1111    2.2666  -22.9709 C   0  0  0  0  0  0  0  0  0  0  0  0
   -8.8915    2.2782  -24.1017 C   0  0  0  0  0  0  0  0  0  0  0  0
   -9.4002    1.1011  -24.8866 C   0  0  0  0  0  0  0  0  0  0  0  0
   -9.8537    0.0079  -24.0473 N   0  0  0  0  0  0  0  0  0  0  0  0
   -9.0454   -1.1956  -23.9711 C   0  0  0  0  0  0  0  0  0  0  0  0
   -9.2204   -1.9254  -22.6133 C   0  0  2  0  0  0  0  0  0  0  0  0
   -8.6627   -1.0316  -21.4677 C   0  0  0  0  0  0  0  0  0  0  0  0
   -9.2272   -0.1112  -20.9149 O   0  0  0  0  0  0  0  0  0  0  0  0
   -7.3732   -1.4354  -21.1930 N   0  0  0  0  0  0  0  0  0  0  0  0
   -6.5993   -0.8253  -20.1698 C   0  0  0  0  0  0  0  0  0  0  0  0
   -6.9052   -1.0482  -18.8501 C   0  0  0  0  0  0  0  0  0  0  0  0
   -6.1941   -0.5484  -17.8104 N   0  0  0  0  0  0  0  0  0  0  0  0
   -5.1614    0.2070  -18.0830 C   0  0  0  0  0  0  0  0  0  0  0  0
   -4.7274    0.5233  -19.3997 C   0  0  0  0  0  0  0  0  0  0  0  0
   -3.6030    1.3569  -19.6425 C   0  0  0  0  0  0  0  0  0  0  0  0
   -3.2255    1.6597  -20.9205 C   0  0  0  0  0  0  0  0  0  0  0  0
   -3.9571    1.1414  -22.0126 C   0  0  0  0  0  0  0  0  0  0  0  0
   -5.0485    0.3277  -21.8024 C   0  0  0  0  0  0  0  0  0  0  0  0
   -5.4641   -0.0065  -20.4870 C   0  0  0  0  0  0  0  0  0  0  0  0
   -5.6037   -0.0614  -22.6512 H   0  0  0  0  0  0  0  0  0  0  0  0
   -3.6624    1.3983  -23.0240 H   0  0  0  0  0  0  0  0  0  0  0  0
   -2.3783    2.3166  -21.1006 H   0  0  0  0  0  0  0  0  0  0  0  0
   -3.0751    1.7704  -18.7868 H   0  0  0  0  0  0  0  0  0  0  0  0
   -4.6140    0.6158  -17.2330 H   0  0  0  0  0  0  0  0  0  0  0  0
   -7.7535   -1.6718  -18.5805 H   0  0  0  0  0  0  0  0  0  0  0  0
   -6.9599   -2.6139  -21.9346 C   0  0  0  0  0  0  0  0  0  0  0  0
   -8.2854   -3.1632  -22.5093 C   0  0  2  0  0  0  0  0  0  0  0  0
   -8.0917   -3.9879  -23.7844 C   0  0  0  0  0  0  0  0  0  0  0  0
   -7.5538   -3.4109  -24.5483 H   0  0  0  0  0  0  0  0  0  0  0  0
   -7.5041   -4.8914  -23.5829 H   0  0  0  0  0  0  0  0  0  0  0  0
   -9.0494   -4.2983  -24.2197 H   0  0  0  0  0  0  0  0  0  0  0  0
   -8.7245   -3.7999  -21.7348 H   0  0  0  0  0  0  0  0  0  0  0  0
   -6.4596   -3.3269  -21.2685 H   0  0  0  0  0  0  0  0  0  0  0  0
   -6.2509   -2.3623  -22.7401 H   0  0  0  0  0  0  0  0  0  0  0  0
  -10.7080   -2.1734  -22.4252 C   0  0  0  0  0  0  0  0  0  0  0  0
  -11.2266   -3.2525  -21.6973 C   0  0  0  0  0  0  0  0  0  0  0  0
  -12.5856   -3.3001  -21.4482 C   0  0  0  0  0  0  0  0  0  0  0  0
  -13.0841   -4.2542  -20.6493 F   0  0  0  0  0  0  0  0  0  0  0  0
  -13.4841   -2.3648  -21.9419 C   0  0  0  0  0  0  0  0  0  0  0  0
  -12.9762   -1.2937  -22.6433 C   0  0  0  0  0  0  0  0  0  0  0  0
  -11.6028   -1.1807  -22.8556 C   0  0  0  0  0  0  0  0  0  0  0  0
  -11.0981    0.0800  -23.4873 C   0  0  0  0  0  0  0  0  0  0  0  0
  -11.7640    1.1065  -23.5002 O   0  0  0  0  0  0  0  0  0  0  0  0
  -13.6157   -0.4985  -23.0093 H   0  0  0  0  0  0  0  0  0  0  0  0
  -14.5381   -2.4867  -21.7221 H   0  0  0  0  0  0  0  0  0  0  0  0
  -10.5949   -4.0114  -21.2481 H   0  0  0  0  0  0  0  0  0  0  0  0
   -9.3087   -1.8949  -24.7824 H   0  0  0  0  0  0  0  0  0  0  0  0
   -7.9961   -0.8998  -24.0909 H   0  0  0  0  0  0  0  0  0  0  0  0
  -10.1917    1.4031  -25.5788 H   0  0  0  0  0  0  0  0  0  0  0  0
   -8.5848    0.6984  -25.4976 H   0  0  0  0  0  0  0  0  0  0  0  0
   -7.7809    1.3723  -22.4630 H   0  0  0  0  0  0  0  0  0  0  0  0
   -7.3644    4.0659  -21.8182 H   0  0  0  0  0  0  0  0  0  0  0  0
   -9.3556    5.1539  -25.7130 H   0  0  0  0  0  0  0  0  0  0  0  0
   -9.6560    3.5510  -26.4128 H   0  0  0  0  0  0  0  0  0  0  0  0
  -11.7670    3.3596  -24.9960 H   0  0  0  0  0  0  0  0  0  0  0  0
  -11.4707    4.9805  -24.3592 H   0  0  0  0  0  0  0  0  0  0  0  0
  -11.8199    4.7644  -26.0884 H   0  0  0  0  0  0  0  0  0  0  0  0
  1  2  1  0
  2  3  1  0
  3  4  1  0
  4  5  2  0
  5  6  1  0
  6  7  2  0
  7  8  1  0
  8  9  1  0
  9 10  1  0
 11 10  1  6
 11 12  1  0
 12 13  2  0
 12 14  1  0
 14 15  1  0
 15 16  2  0
 16 17  1  0
 17 18  2  0
 18 19  1  0
 19 20  2  0
 20 21  1  0
 21 22  2  0
 22 23  1  0
 23 24  2  0
 23 25  1  0
 22 26  1  0
 21 27  1  0
 20 28  1  0
 18 29  1  0
 16 30  1  0
 14 31  1  0
 31 32  1  0
 32 33  1  0
 33 34  1  0
 33 35  1  0
 33 36  1  0
 32 37  1  1
 31 38  1  0
 31 39  1  0
 11 40  1  0
 40 41  2  0
 41 42  1  0
 42 43  1  0
 42 44  2  0
 44 45  1  0
 45 46  2  0
 46 47  1  0
 47 48  2  0
 45 49  1  0
 44 50  1  0
 41 51  1  0
 10 52  1  0
 10 53  1  0
  8 54  1  0
  8 55  1  0
  6 56  1  0
  5 57  1  0
  2 58  1  0
  2 59  1  0
  1 60  1  0
  1 61  1  0
  1 62  1  0
  7  3  1  0
 47  9  1  0
 32 11  1  0
 46 40  1  0
 24 15  1  0
 24 19  1  0
M  END
>  <cnnaffinities>  (91) 
[6.93122]

>  <score>  (91) 
6.93122

>  <index>  (91) 
93

>  <Smiles>  (91) 
C(C(n1nc(c(c1C(N1C([C@@]2(C(=O)N(c3c(nc(c4c(c(c(c(c34)[H])[H])[H])[H])[H])[H])C([C@@]2(C([H])([H])[H])[H])([H])[H])c2c(c(F)c(c(c2C1=O)[H])[H])[H])([H])[H])([H])[H])[H])[H])([H])[H])([H])([H])[H]

>  <h>  (91) 
<NA>

>  <Training>  (91) 
True

>  <Success>  (91) 
True

>  <enamine_searched>  (91) 
False

>  <enamine_id>  (91) 
nan

$$$$

     RDKit          3D

 66 71  0  0  0  0  0  0  0  0999 V2000
   -7.5992    3.2357  -21.8596 C   0  0  0  0  0  0  0  0  0  0  0  0
   -8.7104    2.7686  -22.6721 N   0  0  0  0  0  0  0  0  0  0  0  0
   -8.3641    1.9733  -23.7223 C   0  0  0  0  0  0  0  0  0  0  0  0
   -7.1950    1.7148  -23.9787 O   0  0  0  0  0  0  0  0  0  0  0  0
   -9.4891    1.3788  -24.5615 C   0  0  0  0  0  0  0  0  0  0  0  0
   -9.9689    0.1767  -23.9187 N   0  0  0  0  0  0  0  0  0  0  0  0
   -9.1505   -1.0254  -23.9485 C   0  0  0  0  0  0  0  0  0  0  0  0
   -9.2638   -1.8177  -22.6160 C   0  0  2  0  0  0  0  0  0  0  0  0
   -8.6636   -0.9478  -21.4847 C   0  0  0  0  0  0  0  0  0  0  0  0
   -9.1797    0.0203  -20.9586 O   0  0  0  0  0  0  0  0  0  0  0  0
   -7.4057   -1.4233  -21.1904 N   0  0  0  0  0  0  0  0  0  0  0  0
   -6.6114   -0.8302  -20.1783 C   0  0  0  0  0  0  0  0  0  0  0  0
   -6.9208   -1.0485  -18.8580 C   0  0  0  0  0  0  0  0  0  0  0  0
   -6.2116   -0.5559  -17.8168 N   0  0  0  0  0  0  0  0  0  0  0  0
   -5.1738    0.1951  -18.0902 C   0  0  0  0  0  0  0  0  0  0  0  0
   -4.7455    0.5100  -19.4098 C   0  0  0  0  0  0  0  0  0  0  0  0
   -3.6250    1.3480  -19.6484 C   0  0  0  0  0  0  0  0  0  0  0  0
   -3.2551    1.6621  -20.9268 C   0  0  0  0  0  0  0  0  0  0  0  0
   -3.9887    1.1585  -22.0218 C   0  0  0  0  0  0  0  0  0  0  0  0
   -5.0790    0.3431  -21.8186 C   0  0  0  0  0  0  0  0  0  0  0  0
   -5.4820   -0.0115  -20.5010 C   0  0  0  0  0  0  0  0  0  0  0  0
   -5.6534    0.0038  -22.6753 H   0  0  0  0  0  0  0  0  0  0  0  0
   -3.6904    1.4186  -23.0331 H   0  0  0  0  0  0  0  0  0  0  0  0
   -2.4036    2.3118  -21.1025 H   0  0  0  0  0  0  0  0  0  0  0  0
   -3.0918    1.7497  -18.7915 H   0  0  0  0  0  0  0  0  0  0  0  0
   -4.6072    0.5968  -17.2485 H   0  0  0  0  0  0  0  0  0  0  0  0
   -7.7833   -1.6599  -18.6037 H   0  0  0  0  0  0  0  0  0  0  0  0
   -7.0121   -2.5824  -21.9713 C   0  0  0  0  0  0  0  0  0  0  0  0
   -8.3441   -3.0717  -22.5745 C   0  0  2  0  0  0  0  0  0  0  0  0
   -8.1941   -3.8087  -23.9062 C   0  0  0  0  0  0  0  0  0  0  0  0
   -7.5356   -5.0812  -23.7498 N   0  0  0  0  0  0  0  0  0  0  0  0
   -7.1778   -5.8651  -24.7970 C   0  0  0  0  0  0  0  0  0  0  0  0
   -7.5787   -5.6063  -26.1218 C   0  0  0  0  0  0  0  0  0  0  0  0
   -7.1685   -6.5140  -27.0778 C   0  0  0  0  0  0  0  0  0  0  0  0
   -6.3902   -7.5684  -26.8109 N   0  0  0  0  0  0  0  0  0  0  0  0
   -6.0672   -7.6989  -25.5298 C   0  0  0  0  0  0  0  0  0  0  0  0
   -6.4205   -6.9318  -24.5039 N   0  0  0  0  0  0  0  0  0  0  0  0
   -5.4344   -8.5462  -25.2731 H   0  0  0  0  0  0  0  0  0  0  0  0
   -7.4742   -6.3958  -28.1165 H   0  0  0  0  0  0  0  0  0  0  0  0
   -8.1680   -4.7383  -26.3938 H   0  0  0  0  0  0  0  0  0  0  0  0
   -7.1217   -5.3539  -22.8739 H   0  0  0  0  0  0  0  0  0  0  0  0
   -9.1878   -3.9776  -24.3418 H   0  0  0  0  0  0  0  0  0  0  0  0
   -7.6281   -3.1845  -24.6166 H   0  0  0  0  0  0  0  0  0  0  0  0
   -8.7714   -3.7775  -21.8546 H   0  0  0  0  0  0  0  0  0  0  0  0
   -6.5508   -3.3348  -21.3250 H   0  0  0  0  0  0  0  0  0  0  0  0
   -6.2785   -2.3160  -22.7500 H   0  0  0  0  0  0  0  0  0  0  0  0
  -10.7454   -2.0534  -22.3797 C   0  0  0  0  0  0  0  0  0  0  0  0
  -11.2328   -3.1447  -21.6585 C   0  0  0  0  0  0  0  0  0  0  0  0
  -12.5820   -3.2097  -21.3618 C   0  0  0  0  0  0  0  0  0  0  0  0
  -13.1499   -4.3376  -20.1817 Cl  0  0  0  0  0  0  0  0  0  0  0  0
  -13.5126   -2.3117  -21.8680 C   0  0  0  0  0  0  0  0  0  0  0  0
  -13.0431   -1.2413  -22.5933 C   0  0  0  0  0  0  0  0  0  0  0  0
  -11.6716   -1.0704  -22.7658 C   0  0  0  0  0  0  0  0  0  0  0  0
  -11.1911    0.2229  -23.3291 C   0  0  0  0  0  0  0  0  0  0  0  0
  -11.8370    1.2637  -23.2585 O   0  0  0  0  0  0  0  0  0  0  0  0
  -13.7297   -0.5047  -22.9896 H   0  0  0  0  0  0  0  0  0  0  0  0
  -14.5575   -2.4371  -21.6062 H   0  0  0  0  0  0  0  0  0  0  0  0
  -10.5852   -3.9135  -21.2528 H   0  0  0  0  0  0  0  0  0  0  0  0
   -8.1167   -0.7102  -24.1225 H   0  0  0  0  0  0  0  0  0  0  0  0
   -9.4776   -1.6575  -24.7843 H   0  0  0  0  0  0  0  0  0  0  0  0
   -9.0933    1.1325  -25.5553 H   0  0  0  0  0  0  0  0  0  0  0  0
  -10.3401    2.0597  -24.6537 H   0  0  0  0  0  0  0  0  0  0  0  0
   -9.6067    2.6516  -22.2151 H   0  0  0  0  0  0  0  0  0  0  0  0
   -7.9293    3.9394  -21.0904 H   0  0  0  0  0  0  0  0  0  0  0  0
   -7.0642    2.3719  -21.4322 H   0  0  0  0  0  0  0  0  0  0  0  0
   -6.9113    3.7745  -22.5111 H   0  0  0  0  0  0  0  0  0  0  0  0
  1  2  1  0
  2  3  1  0
  3  4  2  0
  3  5  1  0
  5  6  1  0
  6  7  1  0
  8  7  1  6
  8  9  1  0
  9 10  2  0
  9 11  1  0
 11 12  1  0
 12 13  2  0
 13 14  1  0
 14 15  2  0
 15 16  1  0
 16 17  2  0
 17 18  1  0
 18 19  2  0
 19 20  1  0
 20 21  2  0
 20 22  1  0
 19 23  1  0
 18 24  1  0
 17 25  1  0
 15 26  1  0
 13 27  1  0
 11 28  1  0
 28 29  1  0
 29 30  1  0
 30 31  1  0
 31 32  1  0
 32 33  2  0
 33 34  1  0
 34 35  2  0
 35 36  1  0
 36 37  2  0
 36 38  1  0
 34 39  1  0
 33 40  1  0
 31 41  1  0
 30 42  1  0
 30 43  1  0
 29 44  1  1
 28 45  1  0
 28 46  1  0
  8 47  1  0
 47 48  2  0
 48 49  1  0
 49 50  1  0
 49 51  2  0
 51 52  1  0
 52 53  2  0
 53 54  1  0
 54 55  2  0
 52 56  1  0
 51 57  1  0
 48 58  1  0
  7 59  1  0
  7 60  1  0
  5 61  1  0
  5 62  1  0
  2 63  1  0
  1 64  1  0
  1 65  1  0
  1 66  1  0
 54  6  1  0
 29  8  1  0
 37 32  1  0
 53 47  1  0
 21 12  1  0
 21 16  1  0
M  END
>  <cnnaffinities>  (92) 
[6.83448, 6.95603]

>  <score>  (92) 
6.83448

>  <index>  (92) 
95

>  <Smiles>  (92) 
C(N(C(=O)C(N1C([C@@]2(C(=O)N(c3c(nc(c4c(c(c(c(c34)[H])[H])[H])[H])[H])[H])C([C@@]2(C(N(c2c(c(nc(n2)[H])[H])[H])[H])([H])[H])[H])([H])[H])c2c(c(Cl)c(c(c2C1=O)[H])[H])[H])([H])[H])([H])[H])[H])([H])([H])[H]

>  <h>  (92) 
<NA>

>  <Training>  (92) 
True

>  <Success>  (92) 
True

>  <enamine_searched>  (92) 
False

>  <enamine_id>  (92) 
nan

$$$$

     RDKit          3D

 66 70  0  0  0  0  0  0  0  0999 V2000
   -6.8082    3.4544  -23.0567 C   0  0  0  0  0  0  0  0  0  0  0  0
   -7.4941    2.7488  -24.1246 N   0  0  0  0  0  0  0  0  0  0  0  0
   -6.9756    1.6483  -24.7155 C   0  0  0  0  0  0  0  0  0  0  0  0
   -5.8038    1.3032  -24.6263 O   0  0  0  0  0  0  0  0  0  0  0  0
   -7.9816    0.8081  -25.5189 C   0  0  0  0  0  0  0  0  0  0  0  0
   -8.8736    0.0788  -24.6342 N   0  0  0  0  0  0  0  0  0  0  0  0
   -8.5209   -1.2786  -24.2678 C   0  0  0  0  0  0  0  0  0  0  0  0
   -8.9438   -1.6057  -22.8074 C   0  0  2  0  0  0  0  0  0  0  0  0
   -8.1602   -0.6894  -21.8438 C   0  0  0  0  0  0  0  0  0  0  0  0
   -8.2833    0.5157  -21.7137 O   0  0  0  0  0  0  0  0  0  0  0  0
   -7.2764   -1.4536  -21.1224 N   0  0  0  0  0  0  0  0  0  0  0  0
   -6.4857   -0.8770  -20.0980 C   0  0  0  0  0  0  0  0  0  0  0  0
   -6.7879   -1.1022  -18.7791 C   0  0  0  0  0  0  0  0  0  0  0  0
   -6.1057   -0.5632  -17.7412 N   0  0  0  0  0  0  0  0  0  0  0  0
   -5.0906    0.2171  -18.0204 C   0  0  0  0  0  0  0  0  0  0  0  0
   -4.6622    0.5241  -19.3421 C   0  0  0  0  0  0  0  0  0  0  0  0
   -3.5490    1.3669  -19.6040 C   0  0  0  0  0  0  0  0  0  0  0  0
   -3.1916    1.6717  -20.8884 C   0  0  0  0  0  0  0  0  0  0  0  0
   -3.9305    1.1509  -21.9734 C   0  0  0  0  0  0  0  0  0  0  0  0
   -4.9996    0.3225  -21.7462 C   0  0  0  0  0  0  0  0  0  0  0  0
   -5.3908   -0.0203  -20.4226 C   0  0  0  0  0  0  0  0  0  0  0  0
   -5.5757   -0.0421  -22.5896 H   0  0  0  0  0  0  0  0  0  0  0  0
   -3.6883    1.4209  -22.9968 H   0  0  0  0  0  0  0  0  0  0  0  0
   -2.3525    2.3341  -21.0799 H   0  0  0  0  0  0  0  0  0  0  0  0
   -3.0067    1.7833  -18.7610 H   0  0  0  0  0  0  0  0  0  0  0  0
   -4.5577    0.6545  -17.1767 H   0  0  0  0  0  0  0  0  0  0  0  0
   -7.6377   -1.7326  -18.5143 H   0  0  0  0  0  0  0  0  0  0  0  0
   -7.2251   -2.8476  -21.5077 C   0  0  0  0  0  0  0  0  0  0  0  0
   -8.4970   -3.0224  -22.3697 C   0  0  2  0  0  0  0  0  0  0  0  0
   -8.3268   -4.0370  -23.4950 C   0  0  0  0  0  0  0  0  0  0  0  0
   -8.0505   -5.2838  -22.9037 O   0  0  0  0  0  0  0  0  0  0  0  0
   -7.5308   -6.2482  -23.8019 C   0  0  0  0  0  0  0  0  0  0  0  0
   -8.0738   -7.5947  -23.3703 C   0  0  0  0  0  0  0  0  0  0  0  0
   -9.1615   -7.5895  -23.3941 H   0  0  0  0  0  0  0  0  0  0  0  0
   -7.7456   -7.8321  -22.3536 H   0  0  0  0  0  0  0  0  0  0  0  0
   -7.7271   -8.3606  -24.0609 H   0  0  0  0  0  0  0  0  0  0  0  0
   -6.0094   -6.2131  -23.7770 C   0  0  0  0  0  0  0  0  0  0  0  0
   -5.6029   -6.9594  -24.4668 H   0  0  0  0  0  0  0  0  0  0  0  0
   -5.6651   -6.4455  -22.7651 H   0  0  0  0  0  0  0  0  0  0  0  0
   -5.6156   -5.2292  -24.0566 H   0  0  0  0  0  0  0  0  0  0  0  0
   -7.8946   -6.0273  -24.8183 H   0  0  0  0  0  0  0  0  0  0  0  0
   -7.5097   -3.7340  -24.1733 H   0  0  0  0  0  0  0  0  0  0  0  0
   -9.2419   -4.1046  -24.1094 H   0  0  0  0  0  0  0  0  0  0  0  0
   -9.2602   -3.4277  -21.7064 H   0  0  0  0  0  0  0  0  0  0  0  0
   -6.2983   -3.0891  -22.0542 H   0  0  0  0  0  0  0  0  0  0  0  0
   -7.2472   -3.4785  -20.6163 H   0  0  0  0  0  0  0  0  0  0  0  0
  -10.4316   -1.3040  -22.6879 C   0  0  0  0  0  0  0  0  0  0  0  0
  -11.3498   -2.0979  -21.9809 C   0  0  0  0  0  0  0  0  0  0  0  0
  -12.6846   -1.7247  -21.9421 C   0  0  0  0  0  0  0  0  0  0  0  0
  -13.8357   -2.7434  -21.1213 Cl  0  0  0  0  0  0  0  0  0  0  0  0
  -13.1335   -0.5381  -22.5149 C   0  0  0  0  0  0  0  0  0  0  0  0
  -12.2247    0.2806  -23.1510 C   0  0  0  0  0  0  0  0  0  0  0  0
  -10.8990   -0.1290  -23.3003 C   0  0  0  0  0  0  0  0  0  0  0  0
   -9.9951    0.6946  -24.1780 C   0  0  0  0  0  0  0  0  0  0  0  0
  -10.2546    1.8642  -24.4703 O   0  0  0  0  0  0  0  0  0  0  0  0
  -12.5403    1.2374  -23.5501 H   0  0  0  0  0  0  0  0  0  0  0  0
  -14.1852   -0.2786  -22.4767 H   0  0  0  0  0  0  0  0  0  0  0  0
  -11.0649   -3.0151  -21.4764 H   0  0  0  0  0  0  0  0  0  0  0  0
   -7.4299   -1.3625  -24.3568 H   0  0  0  0  0  0  0  0  0  0  0  0
   -9.0233   -1.9730  -24.9585 H   0  0  0  0  0  0  0  0  0  0  0  0
   -7.4059    0.0884  -26.1090 H   0  0  0  0  0  0  0  0  0  0  0  0
   -8.5943    1.4293  -26.1802 H   0  0  0  0  0  0  0  0  0  0  0  0
   -8.4953    2.8715  -24.2157 H   0  0  0  0  0  0  0  0  0  0  0  0
   -6.4828    2.7581  -22.2692 H   0  0  0  0  0  0  0  0  0  0  0  0
   -7.5074    4.1720  -22.6200 H   0  0  0  0  0  0  0  0  0  0  0  0
   -5.9419    4.0073  -23.4326 H   0  0  0  0  0  0  0  0  0  0  0  0
  1  2  1  0
  2  3  1  0
  3  4  2  0
  3  5  1  0
  5  6  1  0
  6  7  1  0
  8  7  1  6
  8  9  1  0
  9 10  2  0
  9 11  1  0
 11 12  1  0
 12 13  2  0
 13 14  1  0
 14 15  2  0
 15 16  1  0
 16 17  2  0
 17 18  1  0
 18 19  2  0
 19 20  1  0
 20 21  2  0
 20 22  1  0
 19 23  1  0
 18 24  1  0
 17 25  1  0
 15 26  1  0
 13 27  1  0
 11 28  1  0
 28 29  1  0
 29 30  1  0
 30 31  1  0
 31 32  1  0
 32 33  1  0
 33 34  1  0
 33 35  1  0
 33 36  1  0
 32 37  1  0
 37 38  1  0
 37 39  1  0
 37 40  1  0
 32 41  1  0
 30 42  1  0
 30 43  1  0
 29 44  1  1
 28 45  1  0
 28 46  1  0
  8 47  1  0
 47 48  2  0
 48 49  1  0
 49 50  1  0
 49 51  2  0
 51 52  1  0
 52 53  2  0
 53 54  1  0
 54 55  2  0
 52 56  1  0
 51 57  1  0
 48 58  1  0
  7 59  1  0
  7 60  1  0
  5 61  1  0
  5 62  1  0
  2 63  1  0
  1 64  1  0
  1 65  1  0
  1 66  1  0
 54  6  1  0
 29  8  1  0
 53 47  1  0
 21 12  1  0
 21 16  1  0
M  END
>  <cnnaffinities>  (93) 
[6.92457]

>  <score>  (93) 
6.92457

>  <index>  (93) 
96

>  <Smiles>  (93) 
C(N(C(=O)C(N1C([C@@]2(C(=O)N(c3c(nc(c4c(c(c(c(c34)[H])[H])[H])[H])[H])[H])C([C@@]2(C(OC(C([H])([H])[H])(C([H])([H])[H])[H])([H])[H])[H])([H])[H])c2c(c(Cl)c(c(c2C1=O)[H])[H])[H])([H])[H])([H])[H])[H])([H])([H])[H]

>  <h>  (93) 
<NA>

>  <Training>  (93) 
True

>  <Success>  (93) 
True

>  <enamine_searched>  (93) 
False

>  <enamine_id>  (93) 
nan

$$$$

     RDKit          3D

 40 43  0  0  0  0  0  0  0  0999 V2000
  -12.6627   -3.7941  -21.1348 C   0  0  0  0  0  0  0  0  0  0  0  0
  -11.6030   -2.7954  -21.6196 C   0  0  2  0  0  0  0  0  0  0  0  0
  -12.0460   -2.2882  -22.9811 C   0  0  0  0  0  0  0  0  0  0  0  0
  -11.1520   -1.3423  -23.5049 O   0  0  0  0  0  0  0  0  0  0  0  0
   -9.8757   -1.8759  -23.7388 C   0  0  0  0  0  0  0  0  0  0  0  0
   -9.2062   -2.3687  -22.4504 C   0  0  1  0  0  0  0  0  0  0  0  0
  -10.1752   -3.3380  -21.7345 C   0  0  0  0  0  0  0  0  0  0  0  0
  -10.1943   -4.2676  -22.3197 H   0  0  0  0  0  0  0  0  0  0  0  0
   -9.7496   -3.5950  -20.7589 H   0  0  0  0  0  0  0  0  0  0  0  0
   -7.9479   -3.0095  -22.7597 N   0  0  0  0  0  0  0  0  0  0  0  0
   -6.8884   -2.5832  -22.0163 C   0  0  0  0  0  0  0  0  0  0  0  0
   -5.7510   -3.0008  -22.0102 O   0  0  0  0  0  0  0  0  0  0  0  0
   -7.3791   -1.5118  -21.2456 N   0  0  0  0  0  0  0  0  0  0  0  0
   -6.6128   -0.8815  -20.2249 C   0  0  0  0  0  0  0  0  0  0  0  0
   -6.9434   -1.0718  -18.9047 C   0  0  0  0  0  0  0  0  0  0  0  0
   -6.2550   -0.5651  -17.8534 N   0  0  0  0  0  0  0  0  0  0  0  0
   -5.2110    0.1748  -18.1279 C   0  0  0  0  0  0  0  0  0  0  0  0
   -4.7632    0.4661  -19.4442 C   0  0  0  0  0  0  0  0  0  0  0  0
   -3.6414    1.3055  -19.6523 C   0  0  0  0  0  0  0  0  0  0  0  0
   -3.2593    1.6326  -20.9232 C   0  0  0  0  0  0  0  0  0  0  0  0
   -3.9831    1.1357  -22.0279 C   0  0  0  0  0  0  0  0  0  0  0  0
   -5.0645    0.3075  -21.8524 C   0  0  0  0  0  0  0  0  0  0  0  0
   -5.4825   -0.0575  -20.5401 C   0  0  0  0  0  0  0  0  0  0  0  0
   -5.6115   -0.0561  -22.7162 H   0  0  0  0  0  0  0  0  0  0  0  0
   -3.6858    1.4301  -23.0289 H   0  0  0  0  0  0  0  0  0  0  0  0
   -2.4169    2.2963  -21.0809 H   0  0  0  0  0  0  0  0  0  0  0  0
   -3.1324    1.7028  -18.7789 H   0  0  0  0  0  0  0  0  0  0  0  0
   -4.6634    0.5939  -17.2862 H   0  0  0  0  0  0  0  0  0  0  0  0
   -7.8042   -1.6833  -18.6520 H   0  0  0  0  0  0  0  0  0  0  0  0
   -8.7198   -1.2358  -21.5322 C   0  0  0  0  0  0  0  0  0  0  0  0
   -9.3336   -0.2783  -21.1190 O   0  0  0  0  0  0  0  0  0  0  0  0
   -7.8961   -3.8559  -23.2991 H   0  0  0  0  0  0  0  0  0  0  0  0
   -9.2837   -1.0846  -24.2075 H   0  0  0  0  0  0  0  0  0  0  0  0
   -9.9238   -2.7370  -24.4294 H   0  0  0  0  0  0  0  0  0  0  0  0
  -13.0252   -1.7959  -22.9105 H   0  0  0  0  0  0  0  0  0  0  0  0
  -12.1402   -3.1637  -23.6491 H   0  0  0  0  0  0  0  0  0  0  0  0
  -11.5864   -1.9487  -20.9374 H   0  0  0  0  0  0  0  0  0  0  0  0
  -12.3849   -4.3635  -20.2367 H   0  0  0  0  0  0  0  0  0  0  0  0
  -12.8889   -4.5125  -21.9368 H   0  0  0  0  0  0  0  0  0  0  0  0
  -13.5935   -3.2541  -20.8975 H   0  0  0  0  0  0  0  0  0  0  0  0
  1  2  1  0
  2  3  1  0
  3  4  1  0
  4  5  1  0
  5  6  1  0
  6  7  1  0
  7  8  1  0
  7  9  1  0
  6 10  1  6
 10 11  1  0
 11 12  2  0
 11 13  1  0
 13 14  1  0
 14 15  2  0
 15 16  1  0
 16 17  2  0
 17 18  1  0
 18 19  2  0
 19 20  1  0
 20 21  2  0
 21 22  1  0
 22 23  2  0
 22 24  1  0
 21 25  1  0
 20 26  1  0
 19 27  1  0
 17 28  1  0
 15 29  1  0
 13 30  1  0
 30 31  2  0
 10 32  1  0
  5 33  1  0
  5 34  1  0
  3 35  1  0
  3 36  1  0
  2 37  1  1
  1 38  1  0
  1 39  1  0
  1 40  1  0
  7  2  1  0
 23 14  1  0
 30  6  1  0
 23 18  1  0
M  END
>  <cnnaffinities>  (94) 
[5.55419]

>  <score>  (94) 
5.55419

>  <index>  (94) 
97

>  <Smiles>  (94) 
C([C@@]1(C(OC([C@@]2(C1([H])[H])N(C(=O)N(c1c(nc(c3c(c(c(c(c13)[H])[H])[H])[H])[H])[H])C2=O)[H])([H])[H])([H])[H])[H])([H])([H])[H]

>  <h>  (94) 
<NA>

>  <Training>  (94) 
True

>  <Success>  (94) 
True

>  <enamine_searched>  (94) 
False

>  <enamine_id>  (94) 
nan

$$$$
