
     RDKit          3D

 66 71  0  0  0  0  0  0  0  0999 V2000
   -7.3019    3.3913  -21.8938 C   0  0  0  0  0  0  0  0  0  0  0  0
   -8.1955    2.9521  -22.9557 N   0  0  0  0  0  0  0  0  0  0  0  0
   -7.6454    2.2272  -23.9716 C   0  0  0  0  0  0  0  0  0  0  0  0
   -6.4382    2.0469  -24.0746 O   0  0  0  0  0  0  0  0  0  0  0  0
   -8.6205    1.6344  -24.9863 C   0  0  0  0  0  0  0  0  0  0  0  0
   -9.3219    0.5004  -24.4182 N   0  0  0  0  0  0  0  0  0  0  0  0
   -8.5856   -0.7419  -24.2417 C   0  0  0  0  0  0  0  0  0  0  0  0
   -9.0186   -1.4869  -22.9560 C   0  0  2  0  0  0  0  0  0  0  0  0
   -8.4833   -0.7342  -21.7074 C   0  0  0  0  0  0  0  0  0  0  0  0
   -8.9046    0.2969  -21.2310 O   0  0  0  0  0  0  0  0  0  0  0  0
   -7.4044   -1.4369  -21.2251 N   0  0  0  0  0  0  0  0  0  0  0  0
   -6.5275   -0.9679  -20.2187 C   0  0  0  0  0  0  0  0  0  0  0  0
   -6.7769   -1.2690  -18.9091 C   0  0  0  0  0  0  0  0  0  0  0  0
   -5.9104   -1.0269  -17.8935 N   0  0  0  0  0  0  0  0  0  0  0  0
   -4.7817   -0.4327  -18.1862 C   0  0  0  0  0  0  0  0  0  0  0  0
   -4.4342    0.0005  -19.4969 C   0  0  0  0  0  0  0  0  0  0  0  0
   -3.2683    0.7611  -19.7504 C   0  0  0  0  0  0  0  0  0  0  0  0
   -3.0490    1.2989  -20.9920 C   0  0  0  0  0  0  0  0  0  0  0  0
   -3.9384    1.0203  -22.0578 C   0  0  0  0  0  0  0  0  0  0  0  0
   -5.0433    0.2341  -21.8490 C   0  0  0  0  0  0  0  0  0  0  0  0
   -5.3292   -0.2737  -20.5549 C   0  0  0  0  0  0  0  0  0  0  0  0
   -5.7108    0.0158  -22.6775 H   0  0  0  0  0  0  0  0  0  0  0  0
   -3.7781    1.4702  -23.0322 H   0  0  0  0  0  0  0  0  0  0  0  0
   -2.2031    1.9557  -21.1572 H   0  0  0  0  0  0  0  0  0  0  0  0
   -2.6050    0.9558  -18.9113 H   0  0  0  0  0  0  0  0  0  0  0  0
   -4.0750   -0.2437  -17.3743 H   0  0  0  0  0  0  0  0  0  0  0  0
   -7.7159   -1.7590  -18.6581 H   0  0  0  0  0  0  0  0  0  0  0  0
   -7.0685   -2.6210  -21.9736 C   0  0  0  0  0  0  0  0  0  0  0  0
   -8.3122   -2.8746  -22.8301 C   0  0  2  0  0  0  0  0  0  0  0  0
   -7.9321   -3.6252  -24.1038 C   0  0  0  0  0  0  0  0  0  0  0  0
   -9.0943   -3.9884  -24.8781 N   0  0  0  0  0  0  0  0  0  0  0  0
   -8.9860   -4.6026  -26.0860 C   0  0  0  0  0  0  0  0  0  0  0  0
  -10.1291   -4.9228  -26.8463 C   0  0  0  0  0  0  0  0  0  0  0  0
   -9.9208   -5.5352  -28.0564 C   0  0  0  0  0  0  0  0  0  0  0  0
   -8.7023   -5.8352  -28.5354 N   0  0  0  0  0  0  0  0  0  0  0  0
   -7.7033   -5.4982  -27.7334 C   0  0  0  0  0  0  0  0  0  0  0  0
   -7.7595   -4.8999  -26.5411 N   0  0  0  0  0  0  0  0  0  0  0  0
   -6.7005   -5.7377  -28.0922 H   0  0  0  0  0  0  0  0  0  0  0  0
  -10.7637   -5.8069  -28.6936 H   0  0  0  0  0  0  0  0  0  0  0  0
  -11.1324   -4.7077  -26.4938 H   0  0  0  0  0  0  0  0  0  0  0  0
  -10.0076   -3.7219  -24.5418 H   0  0  0  0  0  0  0  0  0  0  0  0
   -7.3877   -4.5394  -23.8358 H   0  0  0  0  0  0  0  0  0  0  0  0
   -7.2545   -3.0236  -24.7291 H   0  0  0  0  0  0  0  0  0  0  0  0
   -8.9853   -3.5277  -22.2641 H   0  0  0  0  0  0  0  0  0  0  0  0
   -6.8651   -3.4439  -21.2826 H   0  0  0  0  0  0  0  0  0  0  0  0
   -6.1665   -2.4772  -22.5932 H   0  0  0  0  0  0  0  0  0  0  0  0
  -10.5336   -1.5257  -22.9035 C   0  0  0  0  0  0  0  0  0  0  0  0
  -11.1836   -2.4048  -22.0311 C   0  0  0  0  0  0  0  0  0  0  0  0
  -12.5632   -2.4045  -21.9450 C   0  0  0  0  0  0  0  0  0  0  0  0
  -13.3351   -3.4890  -20.8305 Cl  0  0  0  0  0  0  0  0  0  0  0  0
  -13.3479   -1.5372  -22.7037 C   0  0  0  0  0  0  0  0  0  0  0  0
  -12.7082   -0.6312  -23.5240 C   0  0  0  0  0  0  0  0  0  0  0  0
  -11.3175   -0.5982  -23.6016 C   0  0  0  0  0  0  0  0  0  0  0  0
  -10.6891    0.5212  -24.3709 C   0  0  0  0  0  0  0  0  0  0  0  0
  -11.3566    1.4117  -24.8829 O   0  0  0  0  0  0  0  0  0  0  0  0
  -13.2596    0.1013  -24.0998 H   0  0  0  0  0  0  0  0  0  0  0  0
  -14.4291   -1.5534  -22.6166 H   0  0  0  0  0  0  0  0  0  0  0  0
  -10.6260   -3.0616  -21.3735 H   0  0  0  0  0  0  0  0  0  0  0  0
   -8.7520   -1.4001  -25.1050 H   0  0  0  0  0  0  0  0  0  0  0  0
   -7.5147   -0.5161  -24.2020 H   0  0  0  0  0  0  0  0  0  0  0  0
   -8.0477    1.3211  -25.8658 H   0  0  0  0  0  0  0  0  0  0  0  0
   -9.3771    2.3617  -25.2950 H   0  0  0  0  0  0  0  0  0  0  0  0
   -9.1581    2.7703  -22.6992 H   0  0  0  0  0  0  0  0  0  0  0  0
   -7.8836    3.8514  -21.0932 H   0  0  0  0  0  0  0  0  0  0  0  0
   -6.6043    4.1410  -22.2780 H   0  0  0  0  0  0  0  0  0  0  0  0
   -6.7234    2.5388  -21.5076 H   0  0  0  0  0  0  0  0  0  0  0  0
  1  2  1  0
  2  3  1  0
  3  4  2  0
  3  5  1  0
  5  6  1  0
  6  7  1  0
  8  7  1  6
  8  9  1  0
  9 10  2  0
  9 11  1  0
 11 12  1  0
 12 13  2  0
 13 14  1  0
 14 15  2  0
 15 16  1  0
 16 17  2  0
 17 18  1  0
 18 19  2  0
 19 20  1  0
 20 21  2  0
 20 22  1  0
 19 23  1  0
 18 24  1  0
 17 25  1  0
 15 26  1  0
 13 27  1  0
 11 28  1  0
 28 29  1  0
 29 30  1  0
 30 31  1  0
 31 32  1  0
 32 33  2  0
 33 34  1  0
 34 35  2  0
 35 36  1  0
 36 37  2  0
 36 38  1  0
 34 39  1  0
 33 40  1  0
 31 41  1  0
 30 42  1  0
 30 43  1  0
 29 44  1  1
 28 45  1  0
 28 46  1  0
  8 47  1  0
 47 48  2  0
 48 49  1  0
 49 50  1  0
 49 51  2  0
 51 52  1  0
 52 53  2  0
 53 54  1  0
 54 55  2  0
 52 56  1  0
 51 57  1  0
 48 58  1  0
  7 59  1  0
  7 60  1  0
  5 61  1  0
  5 62  1  0
  2 63  1  0
  1 64  1  0
  1 65  1  0
  1 66  1  0
 54  6  1  0
 29  8  1  0
 37 32  1  0
 53 47  1  0
 21 12  1  0
 21 16  1  0
M  END
>  <cnnaffinities>  (1) 
[6.68709, 6.73137, 7.19983]

>  <score>  (1) 
6.68709

>  <index>  (1) 
0

>  <Smiles>  (1) 
C(N(C(=O)C(N1C([C@@]2(C(=O)N(c3c(nc(c4c(c(c(c(c34)[H])[H])[H])[H])[H])[H])C([C@@]2(C(N(c2c(c(nc(n2)[H])[H])[H])[H])([H])[H])[H])([H])[H])c2c(c(Cl)c(c(c2C1=O)[H])[H])[H])([H])[H])([H])[H])[H])([H])([H])[H]

>  <h>  (1) 
<NA>

>  <Training>  (1) 
True

>  <Success>  (1) 
True

>  <enamine_searched>  (1) 
False

>  <enamine_id>  (1) 
nan

$$$$

     RDKit          3D

 68 73  0  0  0  0  0  0  0  0999 V2000
   -7.2980    3.4620  -21.9378 C   0  0  0  0  0  0  0  0  0  0  0  0
   -8.2873    2.9093  -22.8456 N   0  0  0  0  0  0  0  0  0  0  0  0
   -7.8804    2.2282  -23.9471 C   0  0  0  0  0  0  0  0  0  0  0  0
   -6.6970    2.0558  -24.2147 O   0  0  0  0  0  0  0  0  0  0  0  0
   -9.0029    1.6768  -24.8321 C   0  0  0  0  0  0  0  0  0  0  0  0
   -9.6079    0.5014  -24.2249 N   0  0  0  0  0  0  0  0  0  0  0  0
   -8.7728   -0.6758  -24.0484 C   0  0  0  0  0  0  0  0  0  0  0  0
   -9.1074   -1.4752  -22.7529 C   0  0  2  0  0  0  0  0  0  0  0  0
   -8.5711   -0.7022  -21.5108 C   0  0  0  0  0  0  0  0  0  0  0  0
   -9.0490    0.2901  -21.0100 O   0  0  0  0  0  0  0  0  0  0  0  0
   -7.4187   -1.3287  -21.0839 N   0  0  0  0  0  0  0  0  0  0  0  0
   -6.5301   -0.8766  -20.0876 C   0  0  0  0  0  0  0  0  0  0  0  0
   -6.6868   -1.2953  -18.7908 C   0  0  0  0  0  0  0  0  0  0  0  0
   -5.7354   -1.1603  -17.8402 N   0  0  0  0  0  0  0  0  0  0  0  0
   -4.6251   -0.5489  -18.1689 C   0  0  0  0  0  0  0  0  0  0  0  0
   -4.3621   -0.0092  -19.4603 C   0  0  0  0  0  0  0  0  0  0  0  0
   -3.1533    0.6664  -19.7761 C   0  0  0  0  0  0  0  0  0  0  0  0
   -2.9407    1.1789  -21.0245 C   0  0  0  0  0  0  0  0  0  0  0  0
   -3.9202    1.0206  -22.0346 C   0  0  0  0  0  0  0  0  0  0  0  0
   -5.0848    0.3418  -21.7646 C   0  0  0  0  0  0  0  0  0  0  0  0
   -5.3445   -0.1717  -20.4596 C   0  0  0  0  0  0  0  0  0  0  0  0
   -5.8118    0.1950  -22.5594 H   0  0  0  0  0  0  0  0  0  0  0  0
   -3.7695    1.4666  -23.0144 H   0  0  0  0  0  0  0  0  0  0  0  0
   -2.0175    1.7078  -21.2486 H   0  0  0  0  0  0  0  0  0  0  0  0
   -2.4261    0.8115  -18.9837 H   0  0  0  0  0  0  0  0  0  0  0  0
   -3.8632   -0.4669  -17.3959 H   0  0  0  0  0  0  0  0  0  0  0  0
   -7.5986   -1.8072  -18.4860 H   0  0  0  0  0  0  0  0  0  0  0  0
   -7.0051   -2.4514  -21.8806 C   0  0  0  0  0  0  0  0  0  0  0  0
   -8.2732   -2.7959  -22.6507 C   0  0  2  0  0  0  0  0  0  0  0  0
   -7.9266   -3.5018  -23.9370 C   0  0  0  0  0  0  0  0  0  0  0  0
   -9.1191   -4.0283  -24.5429 N   0  0  0  0  0  0  0  0  0  0  0  0
   -8.9724   -4.5223  -25.8272 C   0  0  0  0  0  0  0  0  0  0  0  0
   -7.7649   -4.7858  -26.5264 C   0  0  0  0  0  0  0  0  0  0  0  0
   -8.0028   -5.3278  -27.7148 N   0  0  0  0  0  0  0  0  0  0  0  0
   -9.3270   -5.4251  -27.7786 N   0  0  0  0  0  0  0  0  0  0  0  0
   -9.9832   -5.9582  -28.9344 C   0  0  0  0  0  0  0  0  0  0  0  0
  -10.7327   -5.2290  -29.2472 H   0  0  0  0  0  0  0  0  0  0  0  0
  -10.4741   -6.9118  -28.7053 H   0  0  0  0  0  0  0  0  0  0  0  0
   -9.2251   -6.0950  -29.7071 H   0  0  0  0  0  0  0  0  0  0  0  0
   -9.9665   -4.9505  -26.6837 C   0  0  0  0  0  0  0  0  0  0  0  0
  -11.0531   -4.9820  -26.6323 H   0  0  0  0  0  0  0  0  0  0  0  0
   -6.7440   -4.6224  -26.2033 H   0  0  0  0  0  0  0  0  0  0  0  0
   -9.9617   -3.4697  -24.4085 H   0  0  0  0  0  0  0  0  0  0  0  0
   -7.3716   -2.8142  -24.6030 H   0  0  0  0  0  0  0  0  0  0  0  0
   -7.2387   -4.3359  -23.7485 H   0  0  0  0  0  0  0  0  0  0  0  0
   -8.8510   -3.4901  -22.0345 H   0  0  0  0  0  0  0  0  0  0  0  0
   -6.1559   -2.1939  -22.5380 H   0  0  0  0  0  0  0  0  0  0  0  0
   -6.6659   -3.2738  -21.2390 H   0  0  0  0  0  0  0  0  0  0  0  0
  -10.6222   -1.6526  -22.6896 C   0  0  0  0  0  0  0  0  0  0  0  0
  -11.2118   -2.6498  -21.8963 C   0  0  0  0  0  0  0  0  0  0  0  0
  -12.5899   -2.7211  -21.7692 C   0  0  0  0  0  0  0  0  0  0  0  0
  -13.2978   -3.8928  -20.7003 Cl  0  0  0  0  0  0  0  0  0  0  0  0
  -13.4380   -1.8469  -22.4425 C   0  0  0  0  0  0  0  0  0  0  0  0
  -12.8702   -0.8621  -23.2224 C   0  0  0  0  0  0  0  0  0  0  0  0
  -11.4842   -0.7440  -23.3289 C   0  0  0  0  0  0  0  0  0  0  0  0
  -10.9677    0.4345  -24.1005 C   0  0  0  0  0  0  0  0  0  0  0  0
  -11.7189    1.2890  -24.5569 O   0  0  0  0  0  0  0  0  0  0  0  0
  -13.4823   -0.1414  -23.7523 H   0  0  0  0  0  0  0  0  0  0  0  0
  -14.5136   -1.9306  -22.3317 H   0  0  0  0  0  0  0  0  0  0  0  0
  -10.6178   -3.3685  -21.3429 H   0  0  0  0  0  0  0  0  0  0  0  0
   -7.7371   -0.3282  -24.0106 H   0  0  0  0  0  0  0  0  0  0  0  0
   -8.8809   -1.3224  -24.9316 H   0  0  0  0  0  0  0  0  0  0  0  0
   -9.8100    2.4033  -24.9654 H   0  0  0  0  0  0  0  0  0  0  0  0
   -8.5745    1.4539  -25.8187 H   0  0  0  0  0  0  0  0  0  0  0  0
   -9.2315    2.7838  -22.5082 H   0  0  0  0  0  0  0  0  0  0  0  0
   -6.6199    4.1128  -22.4953 H   0  0  0  0  0  0  0  0  0  0  0  0
   -7.8094    4.0476  -21.1699 H   0  0  0  0  0  0  0  0  0  0  0  0
   -6.6911    2.6770  -21.4643 H   0  0  0  0  0  0  0  0  0  0  0  0
  1  2  1  0
  2  3  1  0
  3  4  2  0
  3  5  1  0
  5  6  1  0
  6  7  1  0
  8  7  1  6
  8  9  1  0
  9 10  2  0
  9 11  1  0
 11 12  1  0
 12 13  2  0
 13 14  1  0
 14 15  2  0
 15 16  1  0
 16 17  2  0
 17 18  1  0
 18 19  2  0
 19 20  1  0
 20 21  2  0
 20 22  1  0
 19 23  1  0
 18 24  1  0
 17 25  1  0
 15 26  1  0
 13 27  1  0
 11 28  1  0
 28 29  1  0
 29 30  1  0
 30 31  1  0
 31 32  1  0
 32 33  1  0
 33 34  2  0
 34 35  1  0
 35 36  1  0
 36 37  1  0
 36 38  1  0
 36 39  1  0
 35 40  1  0
 40 41  1  0
 33 42  1  0
 31 43  1  0
 30 44  1  0
 30 45  1  0
 29 46  1  1
 28 47  1  0
 28 48  1  0
  8 49  1  0
 49 50  2  0
 50 51  1  0
 51 52  1  0
 51 53  2  0
 53 54  1  0
 54 55  2  0
 55 56  1  0
 56 57  2  0
 54 58  1  0
 53 59  1  0
 50 60  1  0
  7 61  1  0
  7 62  1  0
  5 63  1  0
  5 64  1  0
  2 65  1  0
  1 66  1  0
  1 67  1  0
  1 68  1  0
 56  6  1  0
 29  8  1  0
 40 32  2  0
 55 49  1  0
 21 12  1  0
 21 16  1  0
M  END
>  <cnnaffinities>  (2) 
[6.5432]

>  <score>  (2) 
6.5432

>  <index>  (2) 
1

>  <Smiles>  (2) 
C(N(C(=O)C(N1C([C@@]2(C(=O)N(c3c(nc(c4c(c(c(c(c34)[H])[H])[H])[H])[H])[H])C([C@@]2(C(N(c2c(nn(C([H])([H])[H])c2[H])[H])[H])([H])[H])[H])([H])[H])c2c(c(Cl)c(c(c2C1=O)[H])[H])[H])([H])[H])([H])[H])[H])([H])([H])[H]

>  <h>  (2) 
<NA>

>  <Training>  (2) 
True

>  <Success>  (2) 
True

>  <enamine_searched>  (2) 
False

>  <enamine_id>  (2) 
nan

$$$$

     RDKit          3D

 60 65  0  0  0  0  0  0  0  0999 V2000
   -5.8510    1.9455  -29.9340 C   0  0  0  0  0  0  0  0  0  0  0  0
   -6.3179    0.7791  -29.1150 C   0  0  0  0  0  0  0  0  0  0  0  0
   -5.6587    0.4168  -27.9365 C   0  0  0  0  0  0  0  0  0  0  0  0
   -6.0835   -0.5838  -27.1696 N   0  0  0  0  0  0  0  0  0  0  0  0
   -7.1726   -1.2395  -27.5860 C   0  0  0  0  0  0  0  0  0  0  0  0
   -7.6754   -2.3658  -26.7274 C   0  0  0  0  0  0  0  0  0  0  0  0
   -8.5472   -1.9235  -25.6500 N   0  0  0  0  0  0  0  0  0  0  0  0
   -7.9411   -1.2826  -24.4934 C   0  0  0  0  0  0  0  0  0  0  0  0
   -8.7295   -1.5411  -23.1965 C   0  0  2  0  0  0  0  0  0  0  0  0
   -8.1396   -0.6057  -22.1178 C   0  0  0  0  0  0  0  0  0  0  0  0
   -8.2539    0.6000  -22.0645 O   0  0  0  0  0  0  0  0  0  0  0  0
   -7.4196   -1.3711  -21.2290 N   0  0  0  0  0  0  0  0  0  0  0  0
   -6.5231   -0.9273  -20.2306 C   0  0  0  0  0  0  0  0  0  0  0  0
   -6.7698   -1.2531  -18.9211 C   0  0  0  0  0  0  0  0  0  0  0  0
   -5.9567   -0.9625  -17.8812 N   0  0  0  0  0  0  0  0  0  0  0  0
   -4.8454   -0.3275  -18.1560 C   0  0  0  0  0  0  0  0  0  0  0  0
   -4.4668    0.0727  -19.4712 C   0  0  0  0  0  0  0  0  0  0  0  0
   -3.3019    0.8569  -19.7104 C   0  0  0  0  0  0  0  0  0  0  0  0
   -3.0366    1.3394  -20.9593 C   0  0  0  0  0  0  0  0  0  0  0  0
   -3.8544    0.9747  -22.0536 C   0  0  0  0  0  0  0  0  0  0  0  0
   -4.9449    0.1669  -21.8694 C   0  0  0  0  0  0  0  0  0  0  0  0
   -5.3163   -0.2409  -20.5552 C   0  0  0  0  0  0  0  0  0  0  0  0
   -5.5984   -0.0665  -22.7062 H   0  0  0  0  0  0  0  0  0  0  0  0
   -3.6431    1.3579  -23.0461 H   0  0  0  0  0  0  0  0  0  0  0  0
   -2.2306    2.0502  -21.1197 H   0  0  0  0  0  0  0  0  0  0  0  0
   -2.6708    1.1105  -18.8624 H   0  0  0  0  0  0  0  0  0  0  0  0
   -4.2000   -0.0712  -17.3166 H   0  0  0  0  0  0  0  0  0  0  0  0
   -7.7122   -1.7310  -18.6706 H   0  0  0  0  0  0  0  0  0  0  0  0
   -7.3958   -2.7711  -21.5506 C   0  0  0  0  0  0  0  0  0  0  0  0
   -8.5300   -2.9560  -22.5544 C   0  0  2  0  0  0  0  0  0  0  0  0
   -8.2824   -4.1176  -23.5087 C   0  0  0  0  0  0  0  0  0  0  0  0
   -8.2077   -5.0634  -22.9648 H   0  0  0  0  0  0  0  0  0  0  0  0
   -9.0875   -4.2064  -24.2403 H   0  0  0  0  0  0  0  0  0  0  0  0
   -7.3433   -3.9865  -24.0579 H   0  0  0  0  0  0  0  0  0  0  0  0
   -9.4463   -3.1602  -21.9809 H   0  0  0  0  0  0  0  0  0  0  0  0
   -6.4154   -3.0486  -21.9603 H   0  0  0  0  0  0  0  0  0  0  0  0
   -7.5303   -3.3195  -20.6254 H   0  0  0  0  0  0  0  0  0  0  0  0
  -10.1846   -1.2585  -23.4874 C   0  0  0  0  0  0  0  0  0  0  0  0
  -11.0362   -0.9602  -22.4227 C   0  0  0  0  0  0  0  0  0  0  0  0
  -12.3774   -0.7525  -22.6869 C   0  0  0  0  0  0  0  0  0  0  0  0
  -13.2208   -0.4709  -21.6846 F   0  0  0  0  0  0  0  0  0  0  0  0
  -12.9179   -0.8369  -23.9652 C   0  0  0  0  0  0  0  0  0  0  0  0
  -12.0768   -1.1603  -25.0121 C   0  0  0  0  0  0  0  0  0  0  0  0
  -10.7214   -1.3747  -24.7747 C   0  0  0  0  0  0  0  0  0  0  0  0
   -9.8768   -1.7862  -25.9301 C   0  0  0  0  0  0  0  0  0  0  0  0
  -10.3513   -2.0190  -27.0383 O   0  0  0  0  0  0  0  0  0  0  0  0
  -12.4282   -1.2632  -26.0342 H   0  0  0  0  0  0  0  0  0  0  0  0
  -13.9807   -0.6584  -24.0902 H   0  0  0  0  0  0  0  0  0  0  0  0
  -10.6335   -0.8981  -21.4162 H   0  0  0  0  0  0  0  0  0  0  0  0
   -6.9151   -1.6511  -24.3942 H   0  0  0  0  0  0  0  0  0  0  0  0
   -7.8872   -0.1947  -24.6406 H   0  0  0  0  0  0  0  0  0  0  0  0
   -8.2524   -3.0792  -27.3200 H   0  0  0  0  0  0  0  0  0  0  0  0
   -6.8139   -2.8650  -26.2735 H   0  0  0  0  0  0  0  0  0  0  0  0
   -7.8204   -0.8935  -28.7689 C   0  0  0  0  0  0  0  0  0  0  0  0
   -7.3913    0.1097  -29.5394 N   0  0  0  0  0  0  0  0  0  0  0  0
   -8.6989   -1.4510  -29.0982 H   0  0  0  0  0  0  0  0  0  0  0  0
   -4.7666    0.9514  -27.6067 H   0  0  0  0  0  0  0  0  0  0  0  0
   -4.7809    1.8776  -30.1499 H   0  0  0  0  0  0  0  0  0  0  0  0
   -6.4007    1.9821  -30.8742 H   0  0  0  0  0  0  0  0  0  0  0  0
   -6.0145    2.8891  -29.4025 H   0  0  0  0  0  0  0  0  0  0  0  0
  1  2  1  0
  2  3  2  0
  3  4  1  0
  4  5  2  0
  5  6  1  0
  6  7  1  0
  7  8  1  0
  9  8  1  6
  9 10  1  0
 10 11  2  0
 10 12  1  0
 12 13  1  0
 13 14  2  0
 14 15  1  0
 15 16  2  0
 16 17  1  0
 17 18  2  0
 18 19  1  0
 19 20  2  0
 20 21  1  0
 21 22  2  0
 21 23  1  0
 20 24  1  0
 19 25  1  0
 18 26  1  0
 16 27  1  0
 14 28  1  0
 12 29  1  0
 29 30  1  0
 30 31  1  0
 31 32  1  0
 31 33  1  0
 31 34  1  0
 30 35  1  1
 29 36  1  0
 29 37  1  0
  9 38  1  0
 38 39  2  0
 39 40  1  0
 40 41  1  0
 40 42  2  0
 42 43  1  0
 43 44  2  0
 44 45  1  0
 45 46  2  0
 43 47  1  0
 42 48  1  0
 39 49  1  0
  8 50  1  0
  8 51  1  0
  6 52  1  0
  6 53  1  0
  5 54  1  0
 54 55  2  0
 54 56  1  0
  3 57  1  0
  1 58  1  0
  1 59  1  0
  1 60  1  0
 55  2  1  0
 45  7  1  0
 30  9  1  0
 44 38  1  0
 22 13  1  0
 22 17  1  0
M  END
>  <cnnaffinities>  (3) 
[6.70464, 6.65638]

>  <score>  (3) 
6.70464

>  <index>  (3) 
2

>  <Smiles>  (3) 
C(c1c(nc(C(N2C([C@@]3(C(=O)N(c4c(nc(c5c(c(c(c(c45)[H])[H])[H])[H])[H])[H])C([C@@]3(C([H])([H])[H])[H])([H])[H])c3c(c(F)c(c(c3C2=O)[H])[H])[H])([H])[H])([H])[H])c(n1)[H])[H])([H])([H])[H]

>  <h>  (3) 
<NA>

>  <Training>  (3) 
True

>  <Success>  (3) 
True

>  <enamine_searched>  (3) 
False

>  <enamine_id>  (3) 
nan

$$$$

     RDKit          3D

 66 70  0  0  0  0  0  0  0  0999 V2000
   -7.3981    3.2846  -21.9336 C   0  0  0  0  0  0  0  0  0  0  0  0
   -8.4072    2.7527  -22.8351 N   0  0  0  0  0  0  0  0  0  0  0  0
   -8.0041    2.0528  -23.9273 C   0  0  0  0  0  0  0  0  0  0  0  0
   -6.8187    1.8722  -24.1674 O   0  0  0  0  0  0  0  0  0  0  0  0
   -9.1027    1.4742  -24.8301 C   0  0  0  0  0  0  0  0  0  0  0  0
   -9.6687    0.2783  -24.2318 N   0  0  0  0  0  0  0  0  0  0  0  0
   -8.8271   -0.9026  -24.0996 C   0  0  0  0  0  0  0  0  0  0  0  0
   -9.1159   -1.6952  -22.7931 C   0  0  2  0  0  0  0  0  0  0  0  0
   -8.5579   -0.9131  -21.5683 C   0  0  0  0  0  0  0  0  0  0  0  0
   -9.0553    0.0427  -21.0112 O   0  0  0  0  0  0  0  0  0  0  0  0
   -7.3586   -1.4817  -21.2083 N   0  0  0  0  0  0  0  0  0  0  0  0
   -6.5254   -0.9666  -20.1864 C   0  0  0  0  0  0  0  0  0  0  0  0
   -6.7399   -1.3075  -18.8753 C   0  0  0  0  0  0  0  0  0  0  0  0
   -5.8454   -1.0867  -17.8809 N   0  0  0  0  0  0  0  0  0  0  0  0
   -4.7217   -0.4964  -18.1962 C   0  0  0  0  0  0  0  0  0  0  0  0
   -4.4096   -0.0214  -19.5002 C   0  0  0  0  0  0  0  0  0  0  0  0
   -3.2170    0.6983  -19.7697 C   0  0  0  0  0  0  0  0  0  0  0  0
   -2.9825    1.2167  -21.0137 C   0  0  0  0  0  0  0  0  0  0  0  0
   -3.9316    1.0275  -22.0467 C   0  0  0  0  0  0  0  0  0  0  0  0
   -5.0666    0.2855  -21.8254 C   0  0  0  0  0  0  0  0  0  0  0  0
   -5.3501   -0.2324  -20.5324 C   0  0  0  0  0  0  0  0  0  0  0  0
   -5.7639    0.0893  -22.6391 H   0  0  0  0  0  0  0  0  0  0  0  0
   -3.7676    1.4634  -23.0281 H   0  0  0  0  0  0  0  0  0  0  0  0
   -2.0960    1.8153  -21.2018 H   0  0  0  0  0  0  0  0  0  0  0  0
   -2.5403    0.8841  -18.9390 H   0  0  0  0  0  0  0  0  0  0  0  0
   -3.9925   -0.3512  -17.3984 H   0  0  0  0  0  0  0  0  0  0  0  0
   -7.6600   -1.8114  -18.5847 H   0  0  0  0  0  0  0  0  0  0  0  0
   -6.9644   -2.6307  -21.9972 C   0  0  0  0  0  0  0  0  0  0  0  0
   -8.2657   -3.0046  -22.7295 C   0  0  2  0  0  0  0  0  0  0  0  0
   -7.9793   -3.6848  -24.0612 C   0  0  0  0  0  0  0  0  0  0  0  0
   -7.2490   -4.8658  -23.8086 O   0  0  0  0  0  0  0  0  0  0  0  0
   -7.0562   -5.6801  -24.9560 C   0  0  0  0  0  0  0  0  0  0  0  0
   -5.6889   -6.3344  -24.8521 C   0  0  0  0  0  0  0  0  0  0  0  0
   -5.4998   -6.9514  -25.7364 H   0  0  0  0  0  0  0  0  0  0  0  0
   -4.8986   -5.5835  -24.7782 H   0  0  0  0  0  0  0  0  0  0  0  0
   -5.6416   -6.9745  -23.9668 H   0  0  0  0  0  0  0  0  0  0  0  0
   -8.1636   -6.7184  -25.0474 C   0  0  0  0  0  0  0  0  0  0  0  0
   -8.1252   -7.3795  -24.1771 H   0  0  0  0  0  0  0  0  0  0  0  0
   -9.1510   -6.2504  -25.0780 H   0  0  0  0  0  0  0  0  0  0  0  0
   -8.0439   -7.3183  -25.9534 H   0  0  0  0  0  0  0  0  0  0  0  0
   -7.0764   -5.0428  -25.8537 H   0  0  0  0  0  0  0  0  0  0  0  0
   -8.9199   -3.8990  -24.5945 H   0  0  0  0  0  0  0  0  0  0  0  0
   -7.3769   -3.0216  -24.7065 H   0  0  0  0  0  0  0  0  0  0  0  0
   -8.7928   -3.7264  -22.1020 H   0  0  0  0  0  0  0  0  0  0  0  0
   -6.1566   -2.3844  -22.7025 H   0  0  0  0  0  0  0  0  0  0  0  0
   -6.5887   -3.4436  -21.3662 H   0  0  0  0  0  0  0  0  0  0  0  0
  -10.6240   -1.8703  -22.6815 C   0  0  0  0  0  0  0  0  0  0  0  0
  -11.1840   -2.8356  -21.8329 C   0  0  0  0  0  0  0  0  0  0  0  0
  -12.5569   -2.9128  -21.6675 C   0  0  0  0  0  0  0  0  0  0  0  0
  -13.2236   -4.0072  -20.4894 Cl  0  0  0  0  0  0  0  0  0  0  0  0
  -13.4279   -2.0955  -22.3875 C   0  0  0  0  0  0  0  0  0  0  0  0
  -12.8896   -1.1408  -23.2222 C   0  0  0  0  0  0  0  0  0  0  0  0
  -11.5087   -0.9922  -23.3288 C   0  0  0  0  0  0  0  0  0  0  0  0
  -11.0245    0.1958  -24.0961 C   0  0  0  0  0  0  0  0  0  0  0  0
  -11.7933    1.0362  -24.5443 O   0  0  0  0  0  0  0  0  0  0  0  0
  -13.5213   -0.4636  -23.7882 H   0  0  0  0  0  0  0  0  0  0  0  0
  -14.4995   -2.1953  -22.2607 H   0  0  0  0  0  0  0  0  0  0  0  0
  -10.5646   -3.5235  -21.2669 H   0  0  0  0  0  0  0  0  0  0  0  0
   -8.9893   -1.5602  -24.9662 H   0  0  0  0  0  0  0  0  0  0  0  0
   -7.7845   -0.5721  -24.1082 H   0  0  0  0  0  0  0  0  0  0  0  0
   -8.6680    1.2556  -25.8140 H   0  0  0  0  0  0  0  0  0  0  0  0
   -9.9359    2.1656  -24.9905 H   0  0  0  0  0  0  0  0  0  0  0  0
   -9.3319    2.5919  -22.4663 H   0  0  0  0  0  0  0  0  0  0  0  0
   -6.6869    3.8970  -22.4921 H   0  0  0  0  0  0  0  0  0  0  0  0
   -7.8678    3.9231  -21.1845 H   0  0  0  0  0  0  0  0  0  0  0  0
   -6.8192    2.4803  -21.4591 H   0  0  0  0  0  0  0  0  0  0  0  0
  1  2  1  0
  2  3  1  0
  3  4  2  0
  3  5  1  0
  5  6  1  0
  6  7  1  0
  8  7  1  6
  8  9  1  0
  9 10  2  0
  9 11  1  0
 11 12  1  0
 12 13  2  0
 13 14  1  0
 14 15  2  0
 15 16  1  0
 16 17  2  0
 17 18  1  0
 18 19  2  0
 19 20  1  0
 20 21  2  0
 20 22  1  0
 19 23  1  0
 18 24  1  0
 17 25  1  0
 15 26  1  0
 13 27  1  0
 11 28  1  0
 28 29  1  0
 29 30  1  0
 30 31  1  0
 31 32  1  0
 32 33  1  0
 33 34  1  0
 33 35  1  0
 33 36  1  0
 32 37  1  0
 37 38  1  0
 37 39  1  0
 37 40  1  0
 32 41  1  0
 30 42  1  0
 30 43  1  0
 29 44  1  1
 28 45  1  0
 28 46  1  0
  8 47  1  0
 47 48  2  0
 48 49  1  0
 49 50  1  0
 49 51  2  0
 51 52  1  0
 52 53  2  0
 53 54  1  0
 54 55  2  0
 52 56  1  0
 51 57  1  0
 48 58  1  0
  7 59  1  0
  7 60  1  0
  5 61  1  0
  5 62  1  0
  2 63  1  0
  1 64  1  0
  1 65  1  0
  1 66  1  0
 54  6  1  0
 29  8  1  0
 53 47  1  0
 21 12  1  0
 21 16  1  0
M  END
>  <cnnaffinities>  (4) 
[6.65336, 6.67203, 6.35193, 6.7374, 7.00918, 7.06204, 6.58216, 6.64108]

>  <score>  (4) 
6.65336

>  <index>  (4) 
3

>  <Smiles>  (4) 
C(N(C(=O)C(N1C([C@@]2(C(=O)N(c3c(nc(c4c(c(c(c(c34)[H])[H])[H])[H])[H])[H])C([C@@]2(C(OC(C([H])([H])[H])(C([H])([H])[H])[H])([H])[H])[H])([H])[H])c2c(c(Cl)c(c(c2C1=O)[H])[H])[H])([H])[H])([H])[H])[H])([H])([H])[H]

>  <h>  (4) 
<NA>

>  <Training>  (4) 
True

>  <Success>  (4) 
True

>  <enamine_searched>  (4) 
False

>  <enamine_id>  (4) 
nan

$$$$

     RDKit          3D

 59 64  0  0  0  0  0  0  0  0999 V2000
   -7.4964   -3.5802  -23.7284 C   0  0  0  0  0  0  0  0  0  0  0  0
   -8.4466   -2.9568  -22.6970 C   0  0  1  0  0  0  0  0  0  0  0  0
   -7.7860   -2.8155  -21.3132 C   0  0  0  0  0  0  0  0  0  0  0  0
   -7.3974   -1.4196  -21.2329 N   0  0  0  0  0  0  0  0  0  0  0  0
   -6.4970   -0.9639  -20.2373 C   0  0  0  0  0  0  0  0  0  0  0  0
   -6.6984   -1.3399  -18.9285 C   0  0  0  0  0  0  0  0  0  0  0  0
   -5.8263   -1.1183  -17.9192 N   0  0  0  0  0  0  0  0  0  0  0  0
   -4.7206   -0.4820  -18.2031 C   0  0  0  0  0  0  0  0  0  0  0  0
   -4.3964    0.0010  -19.4989 C   0  0  0  0  0  0  0  0  0  0  0  0
   -3.1955    0.7245  -19.7329 C   0  0  0  0  0  0  0  0  0  0  0  0
   -2.9089    1.2154  -20.9764 C   0  0  0  0  0  0  0  0  0  0  0  0
   -3.7865    0.9509  -22.0535 C   0  0  0  0  0  0  0  0  0  0  0  0
   -4.9264    0.2078  -21.8612 C   0  0  0  0  0  0  0  0  0  0  0  0
   -5.2975   -0.2392  -20.5605 C   0  0  0  0  0  0  0  0  0  0  0  0
   -5.5552   -0.0586  -22.7052 H   0  0  0  0  0  0  0  0  0  0  0  0
   -3.5634    1.3480  -23.0387 H   0  0  0  0  0  0  0  0  0  0  0  0
   -2.0133    1.8085  -21.1464 H   0  0  0  0  0  0  0  0  0  0  0  0
   -2.5517    0.9319  -18.8849 H   0  0  0  0  0  0  0  0  0  0  0  0
   -4.0138   -0.3231  -17.3901 H   0  0  0  0  0  0  0  0  0  0  0  0
   -7.6074   -1.8640  -18.6369 H   0  0  0  0  0  0  0  0  0  0  0  0
   -8.1451   -0.6186  -22.0743 C   0  0  0  0  0  0  0  0  0  0  0  0
   -8.1359    0.5907  -22.0722 O   0  0  0  0  0  0  0  0  0  0  0  0
   -8.9781   -1.5286  -23.0207 C   0  0  1  0  0  0  0  0  0  0  0  0
   -8.7106   -1.1057  -24.4828 C   0  0  0  0  0  0  0  0  0  0  0  0
   -9.2440    0.2116  -24.7740 N   0  0  0  0  0  0  0  0  0  0  0  0
   -8.3681    1.1531  -25.4629 C   0  0  0  0  0  0  0  0  0  0  0  0
   -7.8417    0.6082  -26.7647 C   0  0  0  0  0  0  0  0  0  0  0  0
   -6.5758    0.4092  -27.0567 N   0  0  0  0  0  0  0  0  0  0  0  0
   -6.5731   -0.0661  -28.3459 C   0  0  0  0  0  0  0  0  0  0  0  0
   -7.8492   -0.1608  -28.8257 C   0  0  0  0  0  0  0  0  0  0  0  0
   -8.6625    0.2658  -27.7963 N   0  0  0  0  0  0  0  0  0  0  0  0
  -10.1136    0.2673  -27.7632 C   0  0  0  0  0  0  0  0  0  0  0  0
  -10.4984    1.2359  -27.4343 H   0  0  0  0  0  0  0  0  0  0  0  0
  -10.4808    0.0545  -28.7668 H   0  0  0  0  0  0  0  0  0  0  0  0
  -10.4886   -0.4988  -27.0791 H   0  0  0  0  0  0  0  0  0  0  0  0
   -8.2525   -0.4864  -29.7780 H   0  0  0  0  0  0  0  0  0  0  0  0
   -5.6449   -0.3190  -28.8425 H   0  0  0  0  0  0  0  0  0  0  0  0
   -7.4976    1.4019  -24.8364 H   0  0  0  0  0  0  0  0  0  0  0  0
   -8.9513    2.0669  -25.6270 H   0  0  0  0  0  0  0  0  0  0  0  0
  -10.5006    0.5824  -24.3939 C   0  0  0  0  0  0  0  0  0  0  0  0
  -11.0589    1.5859  -24.8314 O   0  0  0  0  0  0  0  0  0  0  0  0
  -11.1813   -0.3209  -23.4090 C   0  0  0  0  0  0  0  0  0  0  0  0
  -12.5521   -0.1432  -23.2010 C   0  0  0  0  0  0  0  0  0  0  0  0
  -13.2621   -1.0300  -22.4197 C   0  0  0  0  0  0  0  0  0  0  0  0
  -12.5762   -2.0776  -21.8222 C   0  0  0  0  0  0  0  0  0  0  0  0
  -13.2568   -2.9407  -21.0436 F   0  0  0  0  0  0  0  0  0  0  0  0
  -11.2170   -2.2518  -21.9764 C   0  0  0  0  0  0  0  0  0  0  0  0
  -10.4864   -1.3744  -22.7908 C   0  0  0  0  0  0  0  0  0  0  0  0
  -10.7633   -3.0929  -21.4658 H   0  0  0  0  0  0  0  0  0  0  0  0
  -14.3341   -0.9528  -22.2857 H   0  0  0  0  0  0  0  0  0  0  0  0
  -13.0422    0.7089  -23.6644 H   0  0  0  0  0  0  0  0  0  0  0  0
   -9.1714   -1.8449  -25.1515 H   0  0  0  0  0  0  0  0  0  0  0  0
   -7.6403   -1.0792  -24.6883 H   0  0  0  0  0  0  0  0  0  0  0  0
   -8.5012   -3.0623  -20.5172 H   0  0  0  0  0  0  0  0  0  0  0  0
   -6.9081   -3.4601  -21.2029 H   0  0  0  0  0  0  0  0  0  0  0  0
   -9.2893   -3.6474  -22.6413 H   0  0  0  0  0  0  0  0  0  0  0  0
   -7.9936   -3.7122  -24.6944 H   0  0  0  0  0  0  0  0  0  0  0  0
   -6.5968   -2.9786  -23.8916 H   0  0  0  0  0  0  0  0  0  0  0  0
   -7.1774   -4.5736  -23.3957 H   0  0  0  0  0  0  0  0  0  0  0  0
  1  2  1  0
  2  3  1  0
  3  4  1  0
  4  5  1  0
  5  6  2  0
  6  7  1  0
  7  8  2  0
  8  9  1  0
  9 10  2  0
 10 11  1  0
 11 12  2  0
 12 13  1  0
 13 14  2  0
 13 15  1  0
 12 16  1  0
 11 17  1  0
 10 18  1  0
  8 19  1  0
  6 20  1  0
  4 21  1  0
 21 22  2  0
 21 23  1  0
 23 24  1  6
 24 25  1  0
 25 26  1  0
 26 27  1  0
 27 28  2  0
 28 29  1  0
 29 30  2  0
 30 31  1  0
 31 32  1  0
 32 33  1  0
 32 34  1  0
 32 35  1  0
 30 36  1  0
 29 37  1  0
 26 38  1  0
 26 39  1  0
 25 40  1  0
 40 41  2  0
 40 42  1  0
 42 43  2  0
 43 44  1  0
 44 45  2  0
 45 46  1  0
 45 47  1  0
 47 48  2  0
 47 49  1  0
 44 50  1  0
 43 51  1  0
 24 52  1  0
 24 53  1  0
  3 54  1  0
  3 55  1  0
  2 56  1  1
  1 57  1  0
  1 58  1  0
  1 59  1  0
 23  2  1  0
 31 27  1  0
 48 42  1  0
 14  5  1  0
 48 23  1  0
 14  9  1  0
M  END
>  <cnnaffinities>  (5) 
[6.37775, 6.60657]

>  <score>  (5) 
6.37775

>  <index>  (5) 
4

>  <Smiles>  (5) 
C([C@]1(C(N(c2c(nc(c3c(c(c(c(c23)[H])[H])[H])[H])[H])[H])C(=O)[C@]21C(N(C(c1nc(c(n1C([H])([H])[H])[H])[H])([H])[H])C(=O)c1c(c(c(F)c(c21)[H])[H])[H])([H])[H])([H])[H])[H])([H])([H])[H]

>  <h>  (5) 
<NA>

>  <Training>  (5) 
True

>  <Success>  (5) 
True

>  <enamine_searched>  (5) 
False

>  <enamine_id>  (5) 
nan

$$$$

     RDKit          3D

 58 61  0  0  0  0  0  0  0  0999 V2000
   -5.7097   -3.2640  -23.5455 C   0  0  0  0  0  0  0  0  0  0  0  0
   -6.1142   -3.2288  -22.2860 C   0  0  0  0  0  0  0  0  0  0  0  0
   -7.4227   -2.8419  -21.6792 C   0  0  0  0  0  0  0  0  0  0  0  0
   -7.3614   -1.4526  -21.2347 N   0  0  0  0  0  0  0  0  0  0  0  0
   -8.1763   -0.4320  -21.7304 C   0  0  0  0  0  0  0  0  0  0  0  0
   -8.4372    0.5420  -21.0532 O   0  0  0  0  0  0  0  0  0  0  0  0
   -8.6555   -0.6016  -23.1705 C   0  0  2  0  0  0  0  0  0  0  0  0
   -8.4894    0.7060  -23.9608 C   0  0  0  0  0  0  0  0  0  0  0  0
   -8.8467    0.4506  -25.3450 N   0  0  0  0  0  0  0  0  0  0  0  0
   -7.9879    0.8293  -26.4546 C   0  0  0  0  0  0  0  0  0  0  0  0
   -7.0773   -0.2987  -26.9635 C   0  0  0  0  0  0  0  0  0  0  0  0
   -7.2693   -0.8600  -28.0276 O   0  0  0  0  0  0  0  0  0  0  0  0
   -6.0386   -0.6494  -26.1542 N   0  0  0  0  0  0  0  0  0  0  0  0
   -5.0974   -1.6592  -26.5970 C   0  0  0  0  0  0  0  0  0  0  0  0
   -4.5636   -1.3535  -27.5025 H   0  0  0  0  0  0  0  0  0  0  0  0
   -5.6223   -2.5902  -26.8299 H   0  0  0  0  0  0  0  0  0  0  0  0
   -4.3701   -1.8492  -25.8029 H   0  0  0  0  0  0  0  0  0  0  0  0
   -5.7930   -0.0819  -25.3609 H   0  0  0  0  0  0  0  0  0  0  0  0
   -8.6277    1.1029  -27.2944 H   0  0  0  0  0  0  0  0  0  0  0  0
   -7.3868    1.6974  -26.1615 H   0  0  0  0  0  0  0  0  0  0  0  0
  -10.0437   -0.1498  -25.6427 C   0  0  0  0  0  0  0  0  0  0  0  0
  -10.4977   -0.1927  -26.7780 O   0  0  0  0  0  0  0  0  0  0  0  0
  -10.7609   -0.7687  -24.4861 C   0  0  0  0  0  0  0  0  0  0  0  0
  -12.1047   -1.0947  -24.6528 C   0  0  0  0  0  0  0  0  0  0  0  0
  -12.7779   -1.7981  -23.6679 C   0  0  0  0  0  0  0  0  0  0  0  0
  -12.0874   -2.1695  -22.5163 C   0  0  0  0  0  0  0  0  0  0  0  0
  -12.9435   -3.0996  -21.3154 Cl  0  0  0  0  0  0  0  0  0  0  0  0
  -10.7580   -1.8134  -22.3163 C   0  0  0  0  0  0  0  0  0  0  0  0
  -10.0926   -1.0704  -23.2964 C   0  0  0  0  0  0  0  0  0  0  0  0
  -10.2520   -2.1258  -21.4075 H   0  0  0  0  0  0  0  0  0  0  0  0
  -13.8166   -2.0912  -23.7862 H   0  0  0  0  0  0  0  0  0  0  0  0
  -12.6055   -0.7779  -25.5628 H   0  0  0  0  0  0  0  0  0  0  0  0
   -9.1263    1.4839  -23.5181 H   0  0  0  0  0  0  0  0  0  0  0  0
   -7.4561    1.0622  -23.9191 H   0  0  0  0  0  0  0  0  0  0  0  0
   -8.0136   -1.3380  -23.6741 H   0  0  0  0  0  0  0  0  0  0  0  0
   -6.4038   -1.1474  -20.2319 C   0  0  0  0  0  0  0  0  0  0  0  0
   -6.6036   -1.5150  -18.9266 C   0  0  0  0  0  0  0  0  0  0  0  0
   -5.6890   -1.3572  -17.9424 N   0  0  0  0  0  0  0  0  0  0  0  0
   -4.5734   -0.7420  -18.2471 C   0  0  0  0  0  0  0  0  0  0  0  0
   -4.2818   -0.2112  -19.5346 C   0  0  0  0  0  0  0  0  0  0  0  0
   -3.1043    0.5413  -19.7893 C   0  0  0  0  0  0  0  0  0  0  0  0
   -2.8588    1.0574  -21.0307 C   0  0  0  0  0  0  0  0  0  0  0  0
   -3.7863    0.8493  -22.0728 C   0  0  0  0  0  0  0  0  0  0  0  0
   -4.9278    0.1146  -21.8561 C   0  0  0  0  0  0  0  0  0  0  0  0
   -5.2010   -0.4547  -20.5796 C   0  0  0  0  0  0  0  0  0  0  0  0
   -5.6412   -0.0209  -22.6680 H   0  0  0  0  0  0  0  0  0  0  0  0
   -3.5975    1.2819  -23.0499 H   0  0  0  0  0  0  0  0  0  0  0  0
   -1.9484    1.6190  -21.2261 H   0  0  0  0  0  0  0  0  0  0  0  0
   -2.4097    0.7045  -18.9745 H   0  0  0  0  0  0  0  0  0  0  0  0
   -3.8425   -0.6192  -17.4487 H   0  0  0  0  0  0  0  0  0  0  0  0
   -7.5547   -1.9512  -18.6205 H   0  0  0  0  0  0  0  0  0  0  0  0
   -8.2713   -2.9895  -22.3570 H   0  0  0  0  0  0  0  0  0  0  0  0
   -7.5684   -3.4476  -20.7907 H   0  0  0  0  0  0  0  0  0  0  0  0
   -5.0344   -3.5428  -21.2544 C   0  0  0  0  0  0  0  0  0  0  0  0
   -5.3532   -3.8223  -20.0869 O   0  0  0  0  0  0  0  0  0  0  0  0
   -3.8937   -3.5951  -21.7624 O   0  0  0  0  0  1  0  0  0  0  0  0
   -6.3682   -3.0426  -24.3820 H   0  0  0  0  0  0  0  0  0  0  0  0
   -4.6771   -3.5611  -23.7205 H   0  0  0  0  0  0  0  0  0  0  0  0
  1  2  2  0
  2  3  1  0
  3  4  1  0
  4  5  1  0
  5  6  2  0
  5  7  1  0
  7  8  1  0
  8  9  1  0
  9 10  1  0
 10 11  1  0
 11 12  2  0
 11 13  1  0
 13 14  1  0
 14 15  1  0
 14 16  1  0
 14 17  1  0
 13 18  1  0
 10 19  1  0
 10 20  1  0
  9 21  1  0
 21 22  2  0
 21 23  1  0
 23 24  2  0
 24 25  1  0
 25 26  2  0
 26 27  1  0
 26 28  1  0
 28 29  2  0
 28 30  1  0
 25 31  1  0
 24 32  1  0
  8 33  1  0
  8 34  1  0
  7 35  1  6
  4 36  1  0
 36 37  2  0
 37 38  1  0
 38 39  2  0
 39 40  1  0
 40 41  2  0
 41 42  1  0
 42 43  2  0
 43 44  1  0
 44 45  2  0
 44 46  1  0
 43 47  1  0
 42 48  1  0
 41 49  1  0
 39 50  1  0
 37 51  1  0
  3 52  1  0
  3 53  1  0
  2 54  1  0
 54 55  2  0
 54 56  1  0
  1 57  1  0
  1 58  1  0
 29  7  1  0
 45 36  1  0
 29 23  1  0
 45 40  1  0
M  CHG  1  56  -1
M  END
>  <cnnaffinities>  (6) 
[5.98641, 6.62573, 5.9652]

>  <score>  (6) 
5.98641

>  <index>  (6) 
5

>  <Smiles>  (6) 
C(=C(C(N(C(=O)[C@@]1(C(N(C(C(=O)N(C([H])([H])[H])[H])([H])[H])C(=O)c2c(c(c(Cl)c(c12)[H])[H])[H])([H])[H])[H])c1c(nc(c2c(c(c(c(c12)[H])[H])[H])[H])[H])[H])([H])[H])C(=O)[O-])([H])[H]

>  <h>  (6) 
<NA>

>  <Training>  (6) 
True

>  <Success>  (6) 
True

>  <enamine_searched>  (6) 
False

>  <enamine_id>  (6) 
nan

$$$$

     RDKit          3D

 43 45  0  0  0  0  0  0  0  0999 V2000
   -9.7263   -6.0169  -26.7187 C   0  0  0  0  0  0  0  0  0  0  0  0
   -9.4368   -6.4317  -25.2753 C   0  0  0  0  0  0  0  0  0  0  0  0
   -8.5334   -5.4495  -24.5133 C   0  0  0  0  0  0  0  0  0  0  0  0
   -8.0737   -6.0130  -23.1673 C   0  0  0  0  0  0  0  0  0  0  0  0
   -7.0826   -5.0760  -22.4988 C   0  0  0  0  0  0  0  0  0  0  0  0
   -7.6015   -3.7139  -22.4482 N   0  0  0  0  0  0  0  0  0  0  0  0
   -6.7963   -2.8188  -21.8138 C   0  0  0  0  0  0  0  0  0  0  0  0
   -5.6197   -3.0761  -21.6004 O   0  0  0  0  0  0  0  0  0  0  0  0
   -7.4096   -1.5137  -21.2930 C   0  0  0  0  0  0  0  0  0  0  0  0
   -6.5004   -0.9909  -20.2196 C   0  0  0  0  0  0  0  0  0  0  0  0
   -6.7551   -1.2709  -18.9037 C   0  0  0  0  0  0  0  0  0  0  0  0
   -5.9283   -0.9936  -17.8659 N   0  0  0  0  0  0  0  0  0  0  0  0
   -4.8170   -0.3569  -18.1449 C   0  0  0  0  0  0  0  0  0  0  0  0
   -4.4351    0.0336  -19.4583 C   0  0  0  0  0  0  0  0  0  0  0  0
   -3.2854    0.8278  -19.7078 C   0  0  0  0  0  0  0  0  0  0  0  0
   -3.0491    1.3389  -20.9572 C   0  0  0  0  0  0  0  0  0  0  0  0
   -3.8873    0.9769  -22.0366 C   0  0  0  0  0  0  0  0  0  0  0  0
   -4.9619    0.1487  -21.8382 C   0  0  0  0  0  0  0  0  0  0  0  0
   -5.3007   -0.2937  -20.5310 C   0  0  0  0  0  0  0  0  0  0  0  0
   -5.6218   -0.0895  -22.6666 H   0  0  0  0  0  0  0  0  0  0  0  0
   -3.6956    1.3819  -23.0270 H   0  0  0  0  0  0  0  0  0  0  0  0
   -2.2676    2.0760  -21.1125 H   0  0  0  0  0  0  0  0  0  0  0  0
   -2.6479    1.0940  -18.8681 H   0  0  0  0  0  0  0  0  0  0  0  0
   -4.1880   -0.0862  -17.2968 H   0  0  0  0  0  0  0  0  0  0  0  0
   -7.7108   -1.7120  -18.6245 H   0  0  0  0  0  0  0  0  0  0  0  0
   -8.3998   -1.7226  -20.8702 H   0  0  0  0  0  0  0  0  0  0  0  0
   -7.5751   -0.8071  -22.1189 H   0  0  0  0  0  0  0  0  0  0  0  0
   -8.9501   -3.4542  -22.9268 C   0  0  0  0  0  0  0  0  0  0  0  0
   -9.2028   -4.0704  -24.3127 C   0  0  0  0  0  0  0  0  0  0  0  0
   -8.8588   -3.3823  -25.0942 H   0  0  0  0  0  0  0  0  0  0  0  0
  -10.2910   -4.1617  -24.4239 H   0  0  0  0  0  0  0  0  0  0  0  0
   -9.0961   -2.3715  -22.9745 H   0  0  0  0  0  0  0  0  0  0  0  0
   -9.6853   -3.8560  -22.2144 H   0  0  0  0  0  0  0  0  0  0  0  0
   -6.8569   -5.4102  -21.4782 H   0  0  0  0  0  0  0  0  0  0  0  0
   -6.1264   -5.0478  -23.0344 H   0  0  0  0  0  0  0  0  0  0  0  0
   -7.5963   -6.9929  -23.2983 H   0  0  0  0  0  0  0  0  0  0  0  0
   -8.9420   -6.1591  -22.5125 H   0  0  0  0  0  0  0  0  0  0  0  0
   -7.6239   -5.3087  -25.1181 H   0  0  0  0  0  0  0  0  0  0  0  0
   -8.9608   -7.4200  -25.2656 H   0  0  0  0  0  0  0  0  0  0  0  0
  -10.3829   -6.5474  -24.7303 H   0  0  0  0  0  0  0  0  0  0  0  0
  -10.2690   -5.0668  -26.7644 H   0  0  0  0  0  0  0  0  0  0  0  0
   -8.7987   -5.8926  -27.2891 H   0  0  0  0  0  0  0  0  0  0  0  0
  -10.3337   -6.7632  -27.2424 H   0  0  0  0  0  0  0  0  0  0  0  0
  1  2  1  0
  2  3  1  0
  3  4  1  0
  4  5  1  0
  5  6  1  0
  6  7  1  0
  7  8  2  0
  7  9  1  0
  9 10  1  0
 10 11  2  0
 11 12  1  0
 12 13  2  0
 13 14  1  0
 14 15  2  0
 15 16  1  0
 16 17  2  0
 17 18  1  0
 18 19  2  0
 18 20  1  0
 17 21  1  0
 16 22  1  0
 15 23  1  0
 13 24  1  0
 11 25  1  0
  9 26  1  0
  9 27  1  0
  6 28  1  0
 28 29  1  0
 29 30  1  0
 29 31  1  0
 28 32  1  0
 28 33  1  0
  5 34  1  0
  5 35  1  0
  4 36  1  0
  4 37  1  0
  3 38  1  0
  2 39  1  0
  2 40  1  0
  1 41  1  0
  1 42  1  0
  1 43  1  0
 29  3  1  0
 19 10  1  0
 19 14  1  0
M  END
>  <cnnaffinities>  (7) 
[5.44006, 5.43997, 5.27627, 4.85212, 5.26962, 5.01714, 5.01717, 5.22263]

>  <score>  (7) 
5.44006

>  <index>  (7) 
6

>  <Smiles>  (7) 
C(C(C1(C(C(N(C(=O)C(c2c(nc(c3c(c(c(c(c23)[H])[H])[H])[H])[H])[H])([H])[H])C(C1([H])[H])([H])[H])([H])[H])([H])[H])[H])([H])[H])([H])([H])[H]

>  <h>  (7) 
<NA>

>  <Training>  (7) 
True

>  <Success>  (7) 
True

>  <enamine_searched>  (7) 
False

>  <enamine_id>  (7) 
nan

$$$$

     RDKit          3D

 44 47  0  0  0  0  0  0  0  0999 V2000
  -10.0830   -5.9826  -27.5613 C   0  0  0  0  0  0  0  0  0  0  0  0
   -8.9730   -5.3021  -26.7652 C   0  0  0  0  0  0  0  0  0  0  0  0
   -9.2921   -5.5346  -25.0212 S   0  0  0  0  0  0  0  0  0  0  0  0
   -9.1033   -6.9357  -24.6817 O   0  0  0  0  0  0  0  0  0  0  0  0
  -10.5504   -4.8616  -24.7238 O   0  0  0  0  0  0  0  0  0  0  0  0
   -8.0215   -4.7106  -24.2779 N   0  0  0  0  0  0  0  0  0  0  0  0
   -8.0794   -4.7030  -22.7836 C   0  0  0  0  0  0  0  0  0  0  0  0
   -8.0585   -3.1603  -22.7845 C   0  0  0  0  0  0  0  0  0  0  0  0
   -7.9995   -3.2292  -24.3292 C   0  0  0  0  0  0  0  0  0  0  0  0
   -7.0520   -2.8551  -24.7225 H   0  0  0  0  0  0  0  0  0  0  0  0
   -8.8489   -2.7533  -24.8286 H   0  0  0  0  0  0  0  0  0  0  0  0
   -6.8411   -2.5671  -22.1108 C   0  0  0  0  0  0  0  0  0  0  0  0
   -5.6903   -2.9216  -22.2161 O   0  0  0  0  0  0  0  0  0  0  0  0
   -7.3110   -1.5261  -21.3118 N   0  0  0  0  0  0  0  0  0  0  0  0
   -6.5198   -1.0011  -20.2604 C   0  0  0  0  0  0  0  0  0  0  0  0
   -6.8094   -1.2699  -18.9461 C   0  0  0  0  0  0  0  0  0  0  0  0
   -5.9830   -0.9697  -17.9123 N   0  0  0  0  0  0  0  0  0  0  0  0
   -4.8548   -0.3655  -18.1965 C   0  0  0  0  0  0  0  0  0  0  0  0
   -4.4853    0.0317  -19.5112 C   0  0  0  0  0  0  0  0  0  0  0  0
   -3.3272    0.8097  -19.7374 C   0  0  0  0  0  0  0  0  0  0  0  0
   -3.0823    1.3333  -20.9779 C   0  0  0  0  0  0  0  0  0  0  0  0
   -3.9466    1.0391  -22.0564 C   0  0  0  0  0  0  0  0  0  0  0  0
   -5.0455    0.2417  -21.8755 C   0  0  0  0  0  0  0  0  0  0  0  0
   -5.3412   -0.2751  -20.5834 C   0  0  0  0  0  0  0  0  0  0  0  0
   -5.7010    0.0077  -22.7103 H   0  0  0  0  0  0  0  0  0  0  0  0
   -3.7616    1.4786  -23.0334 H   0  0  0  0  0  0  0  0  0  0  0  0
   -2.2549    2.0183  -21.1295 H   0  0  0  0  0  0  0  0  0  0  0  0
   -2.6911    1.0155  -18.8821 H   0  0  0  0  0  0  0  0  0  0  0  0
   -4.1733   -0.1202  -17.3770 H   0  0  0  0  0  0  0  0  0  0  0  0
   -7.7433   -1.7587  -18.6785 H   0  0  0  0  0  0  0  0  0  0  0  0
   -8.6983   -1.3287  -21.4631 C   0  0  0  0  0  0  0  0  0  0  0  0
   -9.3450   -0.3972  -21.0447 O   0  0  0  0  0  0  0  0  0  0  0  0
   -9.1387   -2.4156  -22.1810 N   0  0  0  0  0  0  0  0  0  0  0  0
  -10.5348   -2.6585  -22.4689 C   0  0  0  0  0  0  0  0  0  0  0  0
  -10.7941   -3.6942  -22.2343 H   0  0  0  0  0  0  0  0  0  0  0  0
  -10.7630   -2.4777  -23.5235 H   0  0  0  0  0  0  0  0  0  0  0  0
  -11.1324   -1.9865  -21.8521 H   0  0  0  0  0  0  0  0  0  0  0  0
   -7.1719   -5.1371  -22.3616 H   0  0  0  0  0  0  0  0  0  0  0  0
   -8.9654   -5.1727  -22.3473 H   0  0  0  0  0  0  0  0  0  0  0  0
   -8.9519   -4.2218  -26.9456 H   0  0  0  0  0  0  0  0  0  0  0  0
   -7.9822   -5.7097  -26.9859 H   0  0  0  0  0  0  0  0  0  0  0  0
   -9.9366   -5.8432  -28.6367 H   0  0  0  0  0  0  0  0  0  0  0  0
  -11.0551   -5.5656  -27.2844 H   0  0  0  0  0  0  0  0  0  0  0  0
  -10.0990   -7.0554  -27.3482 H   0  0  0  0  0  0  0  0  0  0  0  0
  1  2  1  0
  2  3  1  0
  3  4  2  0
  3  5  2  0
  3  6  1  0
  6  7  1  0
  7  8  1  0
  8  9  1  0
  9 10  1  0
  9 11  1  0
  8 12  1  0
 12 13  2  0
 12 14  1  0
 14 15  1  0
 15 16  2  0
 16 17  1  0
 17 18  2  0
 18 19  1  0
 19 20  2  0
 20 21  1  0
 21 22  2  0
 22 23  1  0
 23 24  2  0
 23 25  1  0
 22 26  1  0
 21 27  1  0
 20 28  1  0
 18 29  1  0
 16 30  1  0
 14 31  1  0
 31 32  2  0
 31 33  1  0
 33 34  1  0
 34 35  1  0
 34 36  1  0
 34 37  1  0
  7 38  1  0
  7 39  1  0
  2 40  1  0
  2 41  1  0
  1 42  1  0
  1 43  1  0
  1 44  1  0
  9  6  1  0
 24 15  1  0
 33  8  1  0
 24 19  1  0
M  END
>  <cnnaffinities>  (8) 
[5.54454, 5.54185, 5.54425, 5.57633, 5.59452, 5.64924, 5.57901, 5.59432]

>  <score>  (8) 
5.54454

>  <index>  (8) 
7

>  <Smiles>  (8) 
C(C(S(=O)(=O)N1C(C2(C1([H])[H])C(=O)N(c1c(nc(c3c(c(c(c(c13)[H])[H])[H])[H])[H])[H])C(=O)N2C([H])([H])[H])([H])[H])([H])[H])([H])([H])[H]

>  <h>  (8) 
<NA>

>  <Training>  (8) 
True

>  <Success>  (8) 
True

>  <enamine_searched>  (8) 
False

>  <enamine_id>  (8) 
nan

$$$$

     RDKit          3D

 60 64  0  0  0  0  0  0  0  0999 V2000
   -7.3335    3.3720  -21.8644 C   0  0  0  0  0  0  0  0  0  0  0  0
   -8.2497    2.9210  -22.9010 N   0  0  0  0  0  0  0  0  0  0  0  0
   -7.7118    2.2102  -23.9352 C   0  0  0  0  0  0  0  0  0  0  0  0
   -6.5072    2.0412  -24.0565 O   0  0  0  0  0  0  0  0  0  0  0  0
   -8.6958    1.6189  -24.9449 C   0  0  0  0  0  0  0  0  0  0  0  0
   -9.3878    0.4784  -24.3702 N   0  0  0  0  0  0  0  0  0  0  0  0
   -8.6583   -0.7723  -24.1954 C   0  0  0  0  0  0  0  0  0  0  0  0
   -9.0617   -1.5001  -22.8868 C   0  0  2  0  0  0  0  0  0  0  0  0
   -8.5154   -0.7392  -21.6492 C   0  0  0  0  0  0  0  0  0  0  0  0
   -8.9540    0.2759  -21.1488 O   0  0  0  0  0  0  0  0  0  0  0  0
   -7.4042   -1.4135  -21.2012 N   0  0  0  0  0  0  0  0  0  0  0  0
   -6.5313   -0.9414  -20.1954 C   0  0  0  0  0  0  0  0  0  0  0  0
   -6.7746   -1.2482  -18.8856 C   0  0  0  0  0  0  0  0  0  0  0  0
   -5.9068   -1.0035  -17.8725 N   0  0  0  0  0  0  0  0  0  0  0  0
   -4.7791   -0.4082  -18.1721 C   0  0  0  0  0  0  0  0  0  0  0  0
   -4.4365    0.0246  -19.4839 C   0  0  0  0  0  0  0  0  0  0  0  0
   -3.2683    0.7811  -19.7439 C   0  0  0  0  0  0  0  0  0  0  0  0
   -3.0532    1.3124  -20.9862 C   0  0  0  0  0  0  0  0  0  0  0  0
   -3.9419    1.0281  -22.0516 C   0  0  0  0  0  0  0  0  0  0  0  0
   -5.0490    0.2450  -21.8368 C   0  0  0  0  0  0  0  0  0  0  0  0
   -5.3337   -0.2496  -20.5380 C   0  0  0  0  0  0  0  0  0  0  0  0
   -5.7152    0.0126  -22.6630 H   0  0  0  0  0  0  0  0  0  0  0  0
   -3.7763    1.4683  -23.0287 H   0  0  0  0  0  0  0  0  0  0  0  0
   -2.2005    1.9616  -21.1587 H   0  0  0  0  0  0  0  0  0  0  0  0
   -2.6115    0.9846  -18.9041 H   0  0  0  0  0  0  0  0  0  0  0  0
   -4.0667   -0.2193  -17.3674 H   0  0  0  0  0  0  0  0  0  0  0  0
   -7.7047   -1.7570  -18.6363 H   0  0  0  0  0  0  0  0  0  0  0  0
   -7.0675   -2.5966  -21.9494 C   0  0  0  0  0  0  0  0  0  0  0  0
   -8.3366   -2.8749  -22.7577 C   0  0  2  0  0  0  0  0  0  0  0  0
   -7.9915   -3.6303  -24.0264 C   0  0  0  0  0  0  0  0  0  0  0  0
   -9.1617   -3.9158  -24.7470 O   0  0  0  0  0  0  0  0  0  0  0  0
   -8.8892   -4.5710  -25.9618 C   0  0  0  0  0  0  0  0  0  0  0  0
   -8.2931   -3.9392  -26.6383 H   0  0  0  0  0  0  0  0  0  0  0  0
   -8.3427   -5.5129  -25.8022 H   0  0  0  0  0  0  0  0  0  0  0  0
   -9.8437   -4.7967  -26.4411 H   0  0  0  0  0  0  0  0  0  0  0  0
   -7.2872   -3.0342  -24.6317 H   0  0  0  0  0  0  0  0  0  0  0  0
   -7.4676   -4.5604  -23.7478 H   0  0  0  0  0  0  0  0  0  0  0  0
   -8.9810   -3.5282  -22.1698 H   0  0  0  0  0  0  0  0  0  0  0  0
   -6.1932   -2.4423  -22.6079 H   0  0  0  0  0  0  0  0  0  0  0  0
   -6.8260   -3.4090  -21.2571 H   0  0  0  0  0  0  0  0  0  0  0  0
  -10.5762   -1.5515  -22.8336 C   0  0  0  0  0  0  0  0  0  0  0  0
  -11.2216   -2.4515  -21.9812 C   0  0  0  0  0  0  0  0  0  0  0  0
  -12.6001   -2.4633  -21.8906 C   0  0  0  0  0  0  0  0  0  0  0  0
  -13.3558   -3.5775  -20.7960 Cl  0  0  0  0  0  0  0  0  0  0  0  0
  -13.3949   -1.5905  -22.6314 C   0  0  0  0  0  0  0  0  0  0  0  0
  -12.7613   -0.6694  -23.4390 C   0  0  0  0  0  0  0  0  0  0  0  0
  -11.3704   -0.6236  -23.5200 C   0  0  0  0  0  0  0  0  0  0  0  0
  -10.7551    0.5030  -24.2948 C   0  0  0  0  0  0  0  0  0  0  0  0
  -11.4279    1.3938  -24.7919 O   0  0  0  0  0  0  0  0  0  0  0  0
  -13.3244    0.0603  -24.0060 H   0  0  0  0  0  0  0  0  0  0  0  0
  -14.4764   -1.6169  -22.5447 H   0  0  0  0  0  0  0  0  0  0  0  0
  -10.6617   -3.1352  -21.3545 H   0  0  0  0  0  0  0  0  0  0  0  0
   -8.8692   -1.4441  -25.0360 H   0  0  0  0  0  0  0  0  0  0  0  0
   -7.5818   -0.5661  -24.1968 H   0  0  0  0  0  0  0  0  0  0  0  0
   -9.4538    2.3463  -25.2536 H   0  0  0  0  0  0  0  0  0  0  0  0
   -8.1308    1.3120  -25.8328 H   0  0  0  0  0  0  0  0  0  0  0  0
   -9.2100    2.7510  -22.6238 H   0  0  0  0  0  0  0  0  0  0  0  0
   -6.6534    4.1286  -22.2671 H   0  0  0  0  0  0  0  0  0  0  0  0
   -6.7388    2.5237  -21.4891 H   0  0  0  0  0  0  0  0  0  0  0  0
   -7.8997    3.8370  -21.0553 H   0  0  0  0  0  0  0  0  0  0  0  0
  1  2  1  0
  2  3  1  0
  3  4  2  0
  3  5  1  0
  5  6  1  0
  6  7  1  0
  8  7  1  6
  8  9  1  0
  9 10  2  0
  9 11  1  0
 11 12  1  0
 12 13  2  0
 13 14  1  0
 14 15  2  0
 15 16  1  0
 16 17  2  0
 17 18  1  0
 18 19  2  0
 19 20  1  0
 20 21  2  0
 20 22  1  0
 19 23  1  0
 18 24  1  0
 17 25  1  0
 15 26  1  0
 13 27  1  0
 11 28  1  0
 28 29  1  0
 29 30  1  0
 30 31  1  0
 31 32  1  0
 32 33  1  0
 32 34  1  0
 32 35  1  0
 30 36  1  0
 30 37  1  0
 29 38  1  1
 28 39  1  0
 28 40  1  0
  8 41  1  0
 41 42  2  0
 42 43  1  0
 43 44  1  0
 43 45  2  0
 45 46  1  0
 46 47  2  0
 47 48  1  0
 48 49  2  0
 46 50  1  0
 45 51  1  0
 42 52  1  0
  7 53  1  0
  7 54  1  0
  5 55  1  0
  5 56  1  0
  2 57  1  0
  1 58  1  0
  1 59  1  0
  1 60  1  0
 48  6  1  0
 29  8  1  0
 47 41  1  0
 21 12  1  0
 21 16  1  0
M  END
>  <cnnaffinities>  (9) 
[6.64491, 6.71554, 6.62066]

>  <score>  (9) 
6.64491

>  <index>  (9) 
8

>  <Smiles>  (9) 
C(N(C(=O)C(N1C([C@@]2(C(=O)N(c3c(nc(c4c(c(c(c(c34)[H])[H])[H])[H])[H])[H])C([C@@]2(C(OC([H])([H])[H])([H])[H])[H])([H])[H])c2c(c(Cl)c(c(c2C1=O)[H])[H])[H])([H])[H])([H])[H])[H])([H])([H])[H]

>  <h>  (9) 
<NA>

>  <Training>  (9) 
True

>  <Success>  (9) 
True

>  <enamine_searched>  (9) 
False

>  <enamine_id>  (9) 
nan

$$$$

     RDKit          3D

 41 43  0  0  0  0  0  0  0  0999 V2000
  -13.1417   -2.9299  -22.7639 C   0  0  0  0  0  0  0  0  0  0  0  0
  -11.9645   -2.0448  -23.1701 C   0  0  1  0  0  0  0  0  0  0  0  0
  -12.1531   -0.6480  -22.6232 C   0  0  0  0  0  0  0  0  0  0  0  0
  -11.3060    0.3628  -22.8227 C   0  0  0  0  0  0  0  0  0  0  0  0
  -10.0027    0.2171  -23.5768 C   0  0  0  0  0  0  0  0  0  0  0  0
   -9.0909   -0.7716  -23.0067 N   0  0  0  0  0  0  0  0  0  0  0  0
   -8.3736   -0.3697  -21.8958 C   0  0  0  0  0  0  0  0  0  0  0  0
   -8.4777    0.7571  -21.4452 O   0  0  0  0  0  0  0  0  0  0  0  0
   -7.4410   -1.4344  -21.2995 C   0  0  0  0  0  0  0  0  0  0  0  0
   -6.4968   -0.9943  -20.2217 C   0  0  0  0  0  0  0  0  0  0  0  0
   -6.7558   -1.2626  -18.9074 C   0  0  0  0  0  0  0  0  0  0  0  0
   -5.9269   -0.9893  -17.8700 N   0  0  0  0  0  0  0  0  0  0  0  0
   -4.8113   -0.3618  -18.1484 C   0  0  0  0  0  0  0  0  0  0  0  0
   -4.4348    0.0380  -19.4616 C   0  0  0  0  0  0  0  0  0  0  0  0
   -3.2843    0.8327  -19.7140 C   0  0  0  0  0  0  0  0  0  0  0  0
   -3.0624    1.3566  -20.9584 C   0  0  0  0  0  0  0  0  0  0  0  0
   -3.9167    1.0210  -22.0333 C   0  0  0  0  0  0  0  0  0  0  0  0
   -4.9943    0.1976  -21.8370 C   0  0  0  0  0  0  0  0  0  0  0  0
   -5.3081   -0.2740  -20.5326 C   0  0  0  0  0  0  0  0  0  0  0  0
   -5.6875    0.0003  -22.6519 H   0  0  0  0  0  0  0  0  0  0  0  0
   -3.7368    1.4420  -23.0216 H   0  0  0  0  0  0  0  0  0  0  0  0
   -2.2798    2.0915  -21.1138 H   0  0  0  0  0  0  0  0  0  0  0  0
   -2.6271    1.0723  -18.8788 H   0  0  0  0  0  0  0  0  0  0  0  0
   -4.1754   -0.1055  -17.3027 H   0  0  0  0  0  0  0  0  0  0  0  0
   -7.7143   -1.6998  -18.6294 H   0  0  0  0  0  0  0  0  0  0  0  0
   -6.8585   -1.8889  -22.1102 H   0  0  0  0  0  0  0  0  0  0  0  0
   -8.1051   -2.2098  -20.8983 H   0  0  0  0  0  0  0  0  0  0  0  0
   -9.3755   -2.1539  -23.3638 C   0  0  0  0  0  0  0  0  0  0  0  0
  -10.6491   -2.7156  -22.7294 C   0  0  0  0  0  0  0  0  0  0  0  0
  -10.5817   -2.6636  -21.6337 H   0  0  0  0  0  0  0  0  0  0  0  0
  -10.7168   -3.7759  -22.9999 H   0  0  0  0  0  0  0  0  0  0  0  0
   -8.5141   -2.7827  -23.1241 H   0  0  0  0  0  0  0  0  0  0  0  0
   -9.4753   -2.1957  -24.4572 H   0  0  0  0  0  0  0  0  0  0  0  0
  -10.1895   -0.0976  -24.6137 H   0  0  0  0  0  0  0  0  0  0  0  0
   -9.4689    1.1694  -23.5888 H   0  0  0  0  0  0  0  0  0  0  0  0
  -11.5265    1.3456  -22.4106 H   0  0  0  0  0  0  0  0  0  0  0  0
  -13.0579   -0.4625  -22.0425 H   0  0  0  0  0  0  0  0  0  0  0  0
  -11.9355   -1.9737  -24.2698 H   0  0  0  0  0  0  0  0  0  0  0  0
  -12.9806   -3.9748  -23.0474 H   0  0  0  0  0  0  0  0  0  0  0  0
  -13.2742   -2.8879  -21.6772 H   0  0  0  0  0  0  0  0  0  0  0  0
  -14.0763   -2.6059  -23.2292 H   0  0  0  0  0  0  0  0  0  0  0  0
  1  2  1  0
  2  3  1  0
  3  4  2  0
  4  5  1  0
  5  6  1  0
  6  7  1  0
  7  8  2  0
  7  9  1  0
  9 10  1  0
 10 11  2  0
 11 12  1  0
 12 13  2  0
 13 14  1  0
 14 15  2  0
 15 16  1  0
 16 17  2  0
 17 18  1  0
 18 19  2  0
 18 20  1  0
 17 21  1  0
 16 22  1  0
 15 23  1  0
 13 24  1  0
 11 25  1  0
  9 26  1  0
  9 27  1  0
  6 28  1  0
 28 29  1  0
 29 30  1  0
 29 31  1  0
 28 32  1  0
 28 33  1  0
  5 34  1  0
  5 35  1  0
  4 36  1  0
  3 37  1  0
  2 38  1  6
  1 39  1  0
  1 40  1  0
  1 41  1  0
 29  2  1  0
 19 10  1  0
 19 14  1  0
M  END
>  <cnnaffinities>  (10) 
[5.29295, 5.20704, 5.3571]

>  <score>  (10) 
5.29295

>  <index>  (10) 
9

>  <Smiles>  (10) 
C([C@]1(C(=C(C(N(C(=O)C(c2c(nc(c3c(c(c(c(c23)[H])[H])[H])[H])[H])[H])([H])[H])C(C1([H])[H])([H])[H])([H])[H])[H])[H])[H])([H])([H])[H]

>  <h>  (10) 
<NA>

>  <Training>  (10) 
True

>  <Success>  (10) 
True

>  <enamine_searched>  (10) 
False

>  <enamine_id>  (10) 
nan

$$$$

     RDKit          3D

 57 62  0  0  0  0  0  0  0  0999 V2000
   -8.5290   -4.2292  -23.6990 C   0  0  0  0  0  0  0  0  0  0  0  0
   -8.5908   -3.3364  -22.4690 C   0  0  1  0  0  0  0  0  0  0  0  0
   -7.2175   -2.7753  -22.0796 C   0  0  0  0  0  0  0  0  0  0  0  0
   -7.5736   -1.6595  -21.2269 N   0  0  0  0  0  0  0  0  0  0  0  0
   -6.7019   -1.1904  -20.2093 C   0  0  0  0  0  0  0  0  0  0  0  0
   -6.8665   -1.5731  -18.9000 C   0  0  0  0  0  0  0  0  0  0  0  0
   -5.9593   -1.3413  -17.9190 N   0  0  0  0  0  0  0  0  0  0  0  0
   -4.8510   -0.7212  -18.2384 C   0  0  0  0  0  0  0  0  0  0  0  0
   -4.5499   -0.2668  -19.5507 C   0  0  0  0  0  0  0  0  0  0  0  0
   -3.3185    0.3652  -19.8582 C   0  0  0  0  0  0  0  0  0  0  0  0
   -3.0691    0.8084  -21.1287 C   0  0  0  0  0  0  0  0  0  0  0  0
   -4.0555    0.6762  -22.1318 C   0  0  0  0  0  0  0  0  0  0  0  0
   -5.2592    0.0777  -21.8451 C   0  0  0  0  0  0  0  0  0  0  0  0
   -5.5168   -0.4607  -20.5580 C   0  0  0  0  0  0  0  0  0  0  0  0
   -6.0525    0.0420  -22.5842 H   0  0  0  0  0  0  0  0  0  0  0  0
   -3.8672    1.0667  -23.1296 H   0  0  0  0  0  0  0  0  0  0  0  0
   -2.1297    1.3014  -21.3607 H   0  0  0  0  0  0  0  0  0  0  0  0
   -2.6084    0.5153  -19.0495 H   0  0  0  0  0  0  0  0  0  0  0  0
   -4.1224   -0.5560  -17.4460 H   0  0  0  0  0  0  0  0  0  0  0  0
   -7.7519   -2.1345  -18.6059 H   0  0  0  0  0  0  0  0  0  0  0  0
   -8.8623   -1.1974  -21.4265 C   0  0  0  0  0  0  0  0  0  0  0  0
   -9.3352   -0.2243  -20.8891 O   0  0  0  0  0  0  0  0  0  0  0  0
   -9.5349   -2.0938  -22.5143 C   0  0  1  0  0  0  0  0  0  0  0  0
   -9.4301   -1.3231  -23.8480 C   0  0  0  0  0  0  0  0  0  0  0  0
  -10.3620   -0.2070  -23.8828 N   0  0  0  0  0  0  0  0  0  0  0  0
   -9.9353    0.9384  -24.6749 C   0  0  0  0  0  0  0  0  0  0  0  0
   -9.9721    0.6132  -26.1392 C   0  0  0  0  0  0  0  0  0  0  0  0
   -9.0264    0.5940  -27.1011 C   0  0  0  0  0  0  0  0  0  0  0  0
   -9.5931    0.0091  -28.2144 N   0  0  0  0  0  4  0  0  0  0  0  0
  -10.8699   -0.2820  -27.9376 C   0  0  0  0  0  0  0  0  0  0  0  0
  -11.1305    0.0983  -26.6859 N   0  0  0  0  0  0  0  0  0  0  0  0
  -12.0141    0.1287  -26.1703 H   0  0  0  0  0  0  0  0  0  0  0  0
  -11.5733   -0.7632  -28.5969 H   0  0  0  0  0  0  0  0  0  0  0  0
   -9.1095   -0.1092  -29.0994 H   0  0  0  0  0  0  0  0  0  0  0  0
   -8.0057    0.9513  -27.1057 H   0  0  0  0  0  0  0  0  0  0  0  0
   -8.9250    1.2223  -24.3528 H   0  0  0  0  0  0  0  0  0  0  0  0
  -10.6060    1.7661  -24.4294 H   0  0  0  0  0  0  0  0  0  0  0  0
  -11.6949   -0.4202  -23.6897 C   0  0  0  0  0  0  0  0  0  0  0  0
  -12.5691    0.2627  -24.2299 O   0  0  0  0  0  0  0  0  0  0  0  0
  -12.0199   -1.5513  -22.7848 C   0  0  0  0  0  0  0  0  0  0  0  0
  -13.3647   -1.7671  -22.4792 C   0  0  0  0  0  0  0  0  0  0  0  0
  -13.7550   -2.7394  -21.5891 C   0  0  0  0  0  0  0  0  0  0  0  0
  -12.7529   -3.5288  -21.0486 C   0  0  0  0  0  0  0  0  0  0  0  0
  -13.0920   -4.3673  -20.0566 F   0  0  0  0  0  0  0  0  0  0  0  0
  -11.4313   -3.4369  -21.4530 C   0  0  0  0  0  0  0  0  0  0  0  0
  -11.0123   -2.3778  -22.2617 C   0  0  0  0  0  0  0  0  0  0  0  0
  -10.7139   -4.1374  -21.0394 H   0  0  0  0  0  0  0  0  0  0  0  0
  -14.7970   -2.8983  -21.3292 H   0  0  0  0  0  0  0  0  0  0  0  0
  -14.1047   -1.1309  -22.9367 H   0  0  0  0  0  0  0  0  0  0  0  0
   -9.6250   -2.0053  -24.6851 H   0  0  0  0  0  0  0  0  0  0  0  0
   -8.4234   -0.9160  -23.9798 H   0  0  0  0  0  0  0  0  0  0  0  0
   -6.5919   -3.5014  -21.5424 H   0  0  0  0  0  0  0  0  0  0  0  0
   -6.6530   -2.4472  -22.9692 H   0  0  0  0  0  0  0  0  0  0  0  0
   -8.9018   -3.9427  -21.6108 H   0  0  0  0  0  0  0  0  0  0  0  0
   -9.5046   -4.6775  -23.9080 H   0  0  0  0  0  0  0  0  0  0  0  0
   -8.2117   -3.6665  -24.5838 H   0  0  0  0  0  0  0  0  0  0  0  0
   -7.7973   -5.0330  -23.5525 H   0  0  0  0  0  0  0  0  0  0  0  0
  1  2  1  0
  2  3  1  0
  3  4  1  0
  4  5  1  0
  5  6  2  0
  6  7  1  0
  7  8  2  0
  8  9  1  0
  9 10  2  0
 10 11  1  0
 11 12  2  0
 12 13  1  0
 13 14  2  0
 13 15  1  0
 12 16  1  0
 11 17  1  0
 10 18  1  0
  8 19  1  0
  6 20  1  0
  4 21  1  0
 21 22  2  0
 21 23  1  0
 23 24  1  6
 24 25  1  0
 25 26  1  0
 26 27  1  0
 27 28  2  0
 28 29  1  0
 29 30  2  0
 30 31  1  0
 31 32  1  0
 30 33  1  0
 29 34  1  0
 28 35  1  0
 26 36  1  0
 26 37  1  0
 25 38  1  0
 38 39  2  0
 38 40  1  0
 40 41  2  0
 41 42  1  0
 42 43  2  0
 43 44  1  0
 43 45  1  0
 45 46  2  0
 45 47  1  0
 42 48  1  0
 41 49  1  0
 24 50  1  0
 24 51  1  0
  3 52  1  0
  3 53  1  0
  2 54  1  1
  1 55  1  0
  1 56  1  0
  1 57  1  0
 23  2  1  0
 31 27  1  0
 46 40  1  0
 14  5  1  0
 46 23  1  0
 14  9  1  0
M  CHG  1  29   1
M  END
>  <cnnaffinities>  (11) 
[6.25172]

>  <score>  (11) 
6.25172

>  <index>  (11) 
10

>  <Smiles>  (11) 
C([C@]1(C(N(c2c(nc(c3c(c(c(c(c23)[H])[H])[H])[H])[H])[H])C(=O)[C@]21C(N(C(c1c([n+](c(n1[H])[H])[H])[H])([H])[H])C(=O)c1c(c(c(F)c(c21)[H])[H])[H])([H])[H])([H])[H])[H])([H])([H])[H]

>  <h>  (11) 
<NA>

>  <Training>  (11) 
True

>  <Success>  (11) 
True

>  <enamine_searched>  (11) 
False

>  <enamine_id>  (11) 
nan

$$$$

     RDKit          3D

 48 52  0  0  0  0  0  0  0  0999 V2000
  -10.5245   -2.5215  -22.3214 C   0  0  0  0  0  0  0  0  0  0  0  0
   -9.0988   -2.3291  -22.1335 N   0  0  0  0  0  0  0  0  0  0  0  0
   -8.6220   -1.2904  -21.3788 C   0  0  0  0  0  0  0  0  0  0  0  0
   -9.2683   -0.4069  -20.8656 O   0  0  0  0  0  0  0  0  0  0  0  0
   -7.2305   -1.4455  -21.3023 N   0  0  0  0  0  0  0  0  0  0  0  0
   -6.4163   -0.9695  -20.2377 C   0  0  0  0  0  0  0  0  0  0  0  0
   -6.6304   -1.4106  -18.9573 C   0  0  0  0  0  0  0  0  0  0  0  0
   -5.7394   -1.2546  -17.9505 N   0  0  0  0  0  0  0  0  0  0  0  0
   -4.6147   -0.6350  -18.2239 C   0  0  0  0  0  0  0  0  0  0  0  0
   -4.2924   -0.0935  -19.5050 C   0  0  0  0  0  0  0  0  0  0  0  0
   -3.0713    0.5785  -19.7832 C   0  0  0  0  0  0  0  0  0  0  0  0
   -2.8283    1.0937  -21.0281 C   0  0  0  0  0  0  0  0  0  0  0  0
   -3.7967    0.9971  -22.0503 C   0  0  0  0  0  0  0  0  0  0  0  0
   -4.9851    0.3559  -21.8140 C   0  0  0  0  0  0  0  0  0  0  0  0
   -5.2423   -0.2269  -20.5406 C   0  0  0  0  0  0  0  0  0  0  0  0
   -5.7428    0.2921  -22.5889 H   0  0  0  0  0  0  0  0  0  0  0  0
   -3.5912    1.4216  -23.0286 H   0  0  0  0  0  0  0  0  0  0  0  0
   -1.8848    1.5862  -21.2432 H   0  0  0  0  0  0  0  0  0  0  0  0
   -2.3542    0.7249  -18.9861 H   0  0  0  0  0  0  0  0  0  0  0  0
   -3.9077   -0.5269  -17.3997 H   0  0  0  0  0  0  0  0  0  0  0  0
   -7.5487   -1.9397  -18.7093 H   0  0  0  0  0  0  0  0  0  0  0  0
   -6.8034   -2.5573  -22.0223 C   0  0  0  0  0  0  0  0  0  0  0  0
   -5.6672   -2.9587  -22.0790 O   0  0  0  0  0  0  0  0  0  0  0  0
   -8.0417   -3.1788  -22.6233 C   0  0  0  0  0  0  0  0  0  0  0  0
   -8.1105   -4.6960  -22.3684 C   0  0  0  0  0  0  0  0  0  0  0  0
   -8.0550   -4.9471  -23.8364 N   0  0  0  0  0  0  0  0  0  0  0  0
   -9.3761   -5.7582  -24.5115 S   0  0  0  0  0  0  0  0  0  0  0  0
   -9.1739   -7.1696  -24.2470 O   0  0  0  0  0  0  0  0  0  0  0  0
  -10.5960   -5.0799  -24.0924 O   0  0  0  0  0  0  0  0  0  0  0  0
   -9.1270   -5.4501  -26.2334 C   0  0  0  0  0  0  0  0  0  0  0  0
   -8.2420   -6.2705  -26.9157 C   0  0  0  0  0  0  0  0  0  0  0  0
   -8.1060   -6.1186  -28.2870 C   0  0  0  0  0  0  0  0  0  0  0  0
   -8.8339   -5.1289  -28.9425 C   0  0  0  0  0  0  0  0  0  0  0  0
   -9.6890   -4.2806  -28.2405 C   0  0  0  0  0  0  0  0  0  0  0  0
   -9.8357   -4.4369  -26.8694 C   0  0  0  0  0  0  0  0  0  0  0  0
  -10.4925   -3.7997  -26.2857 H   0  0  0  0  0  0  0  0  0  0  0  0
  -10.2367   -3.4938  -28.7535 H   0  0  0  0  0  0  0  0  0  0  0  0
   -8.7498   -5.0524  -30.0148 H   0  0  0  0  0  0  0  0  0  0  0  0
   -7.4411   -6.7733  -28.8492 H   0  0  0  0  0  0  0  0  0  0  0  0
   -7.6938   -7.0218  -26.3580 H   0  0  0  0  0  0  0  0  0  0  0  0
   -7.9683   -3.4954  -24.1286 C   0  0  0  0  0  0  0  0  0  0  0  0
   -8.8019   -3.0845  -24.7061 H   0  0  0  0  0  0  0  0  0  0  0  0
   -7.0212   -3.2419  -24.6090 H   0  0  0  0  0  0  0  0  0  0  0  0
   -7.2025   -5.0697  -21.8915 H   0  0  0  0  0  0  0  0  0  0  0  0
   -9.0005   -5.0692  -21.8615 H   0  0  0  0  0  0  0  0  0  0  0  0
  -11.0307   -1.7601  -21.7239 H   0  0  0  0  0  0  0  0  0  0  0  0
  -10.8362   -3.5130  -21.9845 H   0  0  0  0  0  0  0  0  0  0  0  0
  -10.8074   -2.3958  -23.3710 H   0  0  0  0  0  0  0  0  0  0  0  0
  1  2  1  0
  2  3  1  0
  3  4  2  0
  3  5  1  0
  5  6  1  0
  6  7  2  0
  7  8  1  0
  8  9  2  0
  9 10  1  0
 10 11  2  0
 11 12  1  0
 12 13  2  0
 13 14  1  0
 14 15  2  0
 14 16  1  0
 13 17  1  0
 12 18  1  0
 11 19  1  0
  9 20  1  0
  7 21  1  0
  5 22  1  0
 22 23  2  0
 22 24  1  0
 24 25  1  0
 25 26  1  0
 26 27  1  0
 27 28  2  0
 27 29  2  0
 27 30  1  0
 30 31  2  0
 31 32  1  0
 32 33  2  0
 33 34  1  0
 34 35  2  0
 35 36  1  0
 34 37  1  0
 33 38  1  0
 32 39  1  0
 31 40  1  0
 26 41  1  0
 41 42  1  0
 41 43  1  0
 25 44  1  0
 25 45  1  0
  1 46  1  0
  1 47  1  0
  1 48  1  0
 24  2  1  0
 35 30  1  0
 15  6  1  0
 41 24  1  0
 15 10  1  0
M  END
>  <cnnaffinities>  (12) 
[5.94519, 5.90127, 5.72165]

>  <score>  (12) 
5.94519

>  <index>  (12) 
11

>  <Smiles>  (12) 
C(N1C(=O)N(c2c(nc(c3c(c(c(c(c23)[H])[H])[H])[H])[H])[H])C(=O)C21C(N(S(=O)(=O)c1c(c(c(c(c1[H])[H])[H])[H])[H])C2([H])[H])([H])[H])([H])([H])[H]

>  <h>  (12) 
<NA>

>  <Training>  (12) 
True

>  <Success>  (12) 
True

>  <enamine_searched>  (12) 
False

>  <enamine_id>  (12) 
nan

$$$$

     RDKit          3D

 76 82  0  0  0  0  0  0  0  0999 V2000
  -10.3924   -1.7720  -27.0860 O   0  0  0  0  0  0  0  0  0  0  0  0
   -9.9269   -1.6595  -25.9551 C   0  0  0  0  0  0  0  0  0  0  0  0
  -10.7610   -1.1730  -24.8238 C   0  0  0  0  0  0  0  0  0  0  0  0
  -12.0759   -0.8257  -25.1124 C   0  0  0  0  0  0  0  0  0  0  0  0
  -12.9820   -0.6388  -24.0917 C   0  0  0  0  0  0  0  0  0  0  0  0
  -12.5304   -0.7552  -22.7737 C   0  0  0  0  0  0  0  0  0  0  0  0
  -13.7481   -0.7482  -21.5348 Cl  0  0  0  0  0  0  0  0  0  0  0  0
  -11.1776   -0.9017  -22.4824 C   0  0  0  0  0  0  0  0  0  0  0  0
  -10.2695   -1.1717  -23.5126 C   0  0  0  0  0  0  0  0  0  0  0  0
   -8.8362   -1.5235  -23.1631 C   0  0  1  0  0  0  0  0  0  0  0  0
   -7.9863   -1.4389  -24.4637 C   0  0  0  0  0  0  0  0  0  0  0  0
   -8.6475   -2.0132  -25.6299 N   0  0  0  0  0  0  0  0  0  0  0  0
   -7.8867   -2.7440  -26.6360 C   0  0  0  0  0  0  0  0  0  0  0  0
   -7.5841   -1.9415  -27.9016 C   0  0  0  0  0  0  0  0  0  0  0  0
   -6.7654   -0.7118  -27.5980 N   0  0  0  0  0  4  0  0  0  0  0  0
   -5.6293   -0.5040  -28.5693 C   0  0  0  0  0  0  0  0  0  0  0  0
   -6.1375    0.0321  -29.9012 C   0  0  0  0  0  0  0  0  0  0  0  0
   -6.8171    1.2619  -29.7324 O   0  0  0  0  0  0  0  0  0  0  0  0
   -7.9509    1.1073  -28.9032 C   0  0  0  0  0  0  0  0  0  0  0  0
   -7.5789    0.5766  -27.5235 C   0  0  0  0  0  0  0  0  0  0  0  0
   -6.9691    1.3187  -27.0029 H   0  0  0  0  0  0  0  0  0  0  0  0
   -8.4801    0.3855  -26.9375 H   0  0  0  0  0  0  0  0  0  0  0  0
   -8.6894    0.4423  -29.3804 H   0  0  0  0  0  0  0  0  0  0  0  0
   -8.4060    2.0964  -28.8008 H   0  0  0  0  0  0  0  0  0  0  0  0
   -6.8043   -0.7102  -30.3702 H   0  0  0  0  0  0  0  0  0  0  0  0
   -5.3022    0.2211  -30.5796 H   0  0  0  0  0  0  0  0  0  0  0  0
   -4.9385    0.2146  -28.1245 H   0  0  0  0  0  0  0  0  0  0  0  0
   -5.1039   -1.4541  -28.7093 H   0  0  0  0  0  0  0  0  0  0  0  0
   -6.3523   -0.8587  -26.6616 H   0  0  0  0  0  0  0  0  0  0  0  0
   -8.5179   -1.6464  -28.3749 H   0  0  0  0  0  0  0  0  0  0  0  0
   -7.0215   -2.5678  -28.5976 H   0  0  0  0  0  0  0  0  0  0  0  0
   -8.4482   -3.6411  -26.9151 H   0  0  0  0  0  0  0  0  0  0  0  0
   -6.9460   -3.0562  -26.1718 H   0  0  0  0  0  0  0  0  0  0  0  0
   -7.7629   -0.3734  -24.6378 H   0  0  0  0  0  0  0  0  0  0  0  0
   -7.0308   -1.9562  -24.3295 H   0  0  0  0  0  0  0  0  0  0  0  0
   -8.1961   -0.5862  -22.0991 C   0  0  0  0  0  0  0  0  0  0  0  0
   -8.3878    0.5986  -21.9321 O   0  0  0  0  0  0  0  0  0  0  0  0
   -7.3157   -1.3499  -21.3433 N   0  0  0  0  0  0  0  0  0  0  0  0
   -6.4477   -0.8942  -20.3197 C   0  0  0  0  0  0  0  0  0  0  0  0
   -6.6522   -1.3242  -19.0292 C   0  0  0  0  0  0  0  0  0  0  0  0
   -5.7986   -1.1191  -18.0004 N   0  0  0  0  0  0  0  0  0  0  0  0
   -4.6859   -0.4787  -18.2557 C   0  0  0  0  0  0  0  0  0  0  0  0
   -4.3367    0.0118  -19.5439 C   0  0  0  0  0  0  0  0  0  0  0  0
   -3.1040    0.6772  -19.7737 C   0  0  0  0  0  0  0  0  0  0  0  0
   -2.7790    1.1247  -21.0229 C   0  0  0  0  0  0  0  0  0  0  0  0
   -3.6880    0.9642  -22.0915 C   0  0  0  0  0  0  0  0  0  0  0  0
   -4.9014    0.3514  -21.8880 C   0  0  0  0  0  0  0  0  0  0  0  0
   -5.2476   -0.1680  -20.6112 C   0  0  0  0  0  0  0  0  0  0  0  0
   -5.6148    0.2723  -22.7013 H   0  0  0  0  0  0  0  0  0  0  0  0
   -3.4286    1.3323  -23.0794 H   0  0  0  0  0  0  0  0  0  0  0  0
   -1.8298    1.6235  -21.1999 H   0  0  0  0  0  0  0  0  0  0  0  0
   -2.4498    0.8451  -18.9240 H   0  0  0  0  0  0  0  0  0  0  0  0
   -3.9907   -0.3257  -17.4291 H   0  0  0  0  0  0  0  0  0  0  0  0
   -7.5601   -1.8745  -18.7836 H   0  0  0  0  0  0  0  0  0  0  0  0
   -7.3138   -2.7465  -21.7265 C   0  0  0  0  0  0  0  0  0  0  0  0
   -8.6850   -2.8702  -22.3710 C   0  0  2  0  0  0  0  0  0  0  0  0
   -8.8915   -4.1903  -23.0954 C   0  0  0  0  0  0  0  0  0  0  0  0
  -10.1317   -4.2443  -23.8160 N   0  0  0  0  0  0  0  0  0  0  0  0
  -11.3698   -4.5247  -23.1897 C   0  0  0  0  0  0  0  0  0  0  0  0
  -11.5037   -3.9676  -21.8438 N   0  0  0  0  0  0  0  0  0  0  0  0
  -12.7143   -3.8093  -21.4222 C   0  0  0  0  0  0  0  0  0  0  0  0
  -14.1492   -4.3814  -22.3200 C   0  0  0  0  0  0  0  0  0  0  0  0
  -14.2181   -4.2072  -22.1070 C   0  0  0  0  0  0  0  0  0  0  0  0
  -12.3191   -5.0995  -23.7738 N   0  0  0  0  0  0  0  0  0  0  0  0
  -14.4908   -3.6234  -23.1678 H   0  0  0  0  0  0  0  0  0  0  0  0
  -14.5073   -5.3598  -21.7427 H   0  0  0  0  0  0  0  0  0  0  0  0
  -12.7447   -3.3132  -20.4310 H   0  0  0  0  0  0  0  0  0  0  0  0
  -10.0697   -4.6564  -24.7378 H   0  0  0  0  0  0  0  0  0  0  0  0
   -8.8203   -5.0138  -22.3691 H   0  0  0  0  0  0  0  0  0  0  0  0
   -8.0886   -4.3303  -23.8294 H   0  0  0  0  0  0  0  0  0  0  0  0
   -9.4255   -2.7996  -21.5712 H   0  0  0  0  0  0  0  0  0  0  0  0
   -6.5048   -2.9697  -22.4460 H   0  0  0  0  0  0  0  0  0  0  0  0
   -7.1632   -3.3852  -20.8529 H   0  0  0  0  0  0  0  0  0  0  0  0
  -10.7799   -0.8124  -21.4741 H   0  0  0  0  0  0  0  0  0  0  0  0
  -14.0277   -0.4243  -24.3030 H   0  0  0  0  0  0  0  0  0  0  0  0
  -12.3762   -0.7631  -26.1508 H   0  0  0  0  0  0  0  0  0  0  0  0
  1  2  2  0
  2  3  1  0
  3  4  2  0
  4  5  1  0
  5  6  2  0
  6  7  1  0
  6  8  1  0
  8  9  2  0
  9 10  1  0
 10 11  1  6
 11 12  1  0
 12 13  1  0
 13 14  1  0
 14 15  1  0
 15 16  1  0
 16 17  1  0
 17 18  1  0
 18 19  1  0
 19 20  1  0
 20 21  1  0
 20 22  1  0
 19 23  1  0
 19 24  1  0
 17 25  1  0
 17 26  1  0
 16 27  1  0
 16 28  1  0
 15 29  1  0
 14 30  1  0
 14 31  1  0
 13 32  1  0
 13 33  1  0
 11 34  1  0
 11 35  1  0
 10 36  1  0
 36 37  2  0
 36 38  1  0
 38 39  1  0
 39 40  2  0
 40 41  1  0
 41 42  2  0
 42 43  1  0
 43 44  2  0
 44 45  1  0
 45 46  2  0
 46 47  1  0
 47 48  2  0
 47 49  1  0
 46 50  1  0
 45 51  1  0
 44 52  1  0
 42 53  1  0
 40 54  1  0
 38 55  1  0
 55 56  1  0
 56 57  1  0
 57 58  1  0
 58 59  1  0
 59 60  2  0
 60 61  1  0
 61 62  2  0
 62 63  1  0
 63 64  2  0
 63 65  1  0
 62 66  1  0
 61 67  1  0
 58 68  1  0
 57 69  1  0
 57 70  1  0
 56 71  1  1
 55 72  1  0
 55 73  1  0
  8 74  1  0
  5 75  1  0
  4 76  1  0
 12  2  1  0
 20 15  1  0
 48 39  1  0
 64 59  1  0
  9  3  1  0
 56 10  1  0
 48 43  1  0
M  CHG  1  15   1
M  END
>  <cnnaffinities>  (13) 
[6.47138]

>  <score>  (13) 
6.47138

>  <index>  (13) 
12

>  <Smiles>  (13) 
O=C1c2c(c(c(Cl)c(c2[C@@]2(C(N1C(C([N+]1(C(C(OC(C1([H])[H])([H])[H])([H])[H])([H])[H])[H])([H])[H])([H])[H])([H])[H])C(=O)N(c1c(nc(c3c(c(c(c(c13)[H])[H])[H])[H])[H])[H])C([C@@]2(C(N(c1nc(c(c(n1)[H])[H])[H])[H])([H])[H])[H])([H])[H])[H])[H])[H]

>  <h>  (13) 
<NA>

>  <Training>  (13) 
True

>  <Success>  (13) 
True

>  <enamine_searched>  (13) 
False

>  <enamine_id>  (13) 
nan

$$$$

     RDKit          3D

 69 74  0  0  0  0  0  0  0  0999 V2000
   -7.4365    3.3755  -21.8539 C   0  0  0  0  0  0  0  0  0  0  0  0
   -8.4817    2.9017  -22.7507 N   0  0  0  0  0  0  0  0  0  0  0  0
   -8.0786    2.1472  -23.8136 C   0  0  0  0  0  0  0  0  0  0  0  0
   -6.8977    1.9059  -24.0236 O   0  0  0  0  0  0  0  0  0  0  0  0
   -9.1578    1.5835  -24.7375 C   0  0  0  0  0  0  0  0  0  0  0  0
   -9.7514    0.4065  -24.1324 N   0  0  0  0  0  0  0  0  0  0  0  0
   -8.9585   -0.8141  -24.0634 C   0  0  0  0  0  0  0  0  0  0  0  0
   -9.2285   -1.6014  -22.7553 C   0  0  2  0  0  0  0  0  0  0  0  0
   -8.6168   -0.8235  -21.5504 C   0  0  0  0  0  0  0  0  0  0  0  0
   -9.0707    0.1560  -21.0030 O   0  0  0  0  0  0  0  0  0  0  0  0
   -7.4217   -1.4257  -21.2270 N   0  0  0  0  0  0  0  0  0  0  0  0
   -6.5471   -0.9608  -20.2160 C   0  0  0  0  0  0  0  0  0  0  0  0
   -6.7830   -1.2649  -18.9010 C   0  0  0  0  0  0  0  0  0  0  0  0
   -5.9042   -1.0293  -17.8950 N   0  0  0  0  0  0  0  0  0  0  0  0
   -4.7771   -0.4360  -18.1940 C   0  0  0  0  0  0  0  0  0  0  0  0
   -4.4408   -0.0019  -19.5061 C   0  0  0  0  0  0  0  0  0  0  0  0
   -3.2666    0.7520  -19.7609 C   0  0  0  0  0  0  0  0  0  0  0  0
   -3.0499    1.2907  -20.9975 C   0  0  0  0  0  0  0  0  0  0  0  0
   -3.9534    1.0362  -22.0549 C   0  0  0  0  0  0  0  0  0  0  0  0
   -5.0643    0.2528  -21.8482 C   0  0  0  0  0  0  0  0  0  0  0  0
   -5.3530   -0.2561  -20.5547 C   0  0  0  0  0  0  0  0  0  0  0  0
   -5.7412    0.0481  -22.6711 H   0  0  0  0  0  0  0  0  0  0  0  0
   -3.7814    1.4708  -23.0334 H   0  0  0  0  0  0  0  0  0  0  0  0
   -2.1960    1.9393  -21.1678 H   0  0  0  0  0  0  0  0  0  0  0  0
   -2.6091    0.9486  -18.9166 H   0  0  0  0  0  0  0  0  0  0  0  0
   -4.0577   -0.2557  -17.3905 H   0  0  0  0  0  0  0  0  0  0  0  0
   -7.7120   -1.7647  -18.6378 H   0  0  0  0  0  0  0  0  0  0  0  0
   -7.0956   -2.5851  -22.0239 C   0  0  0  0  0  0  0  0  0  0  0  0
   -8.4222   -2.9356  -22.7097 C   0  0  2  0  0  0  0  0  0  0  0  0
   -8.1758   -3.6918  -24.0157 C   0  0  0  0  0  0  0  0  0  0  0  0
   -9.4056   -4.1355  -24.6258 N   0  0  0  0  0  0  0  0  0  0  0  0
   -9.4255   -4.7879  -25.8204 C   0  0  0  0  0  0  0  0  0  0  0  0
  -10.6356   -5.2664  -26.3638 C   0  0  0  0  0  0  0  0  0  0  0  0
  -10.5638   -5.8192  -27.6215 C   0  0  0  0  0  0  0  0  0  0  0  0
   -9.4155   -5.9657  -28.2971 N   0  0  0  0  0  0  0  0  0  0  0  0
   -8.3158   -5.5543  -27.6658 C   0  0  0  0  0  0  0  0  0  0  0  0
   -7.0126   -5.8117  -28.3809 C   0  0  0  0  0  0  0  0  0  0  0  0
   -7.1809   -5.7669  -29.4619 H   0  0  0  0  0  0  0  0  0  0  0  0
   -6.6556   -6.8246  -28.1499 H   0  0  0  0  0  0  0  0  0  0  0  0
   -6.2372   -5.0976  -28.0862 H   0  0  0  0  0  0  0  0  0  0  0  0
   -8.2603   -4.9579  -26.4648 N   0  0  0  0  0  0  0  0  0  0  0  0
  -11.4609   -6.1691  -28.1358 H   0  0  0  0  0  0  0  0  0  0  0  0
  -11.5725   -5.2255  -25.8150 H   0  0  0  0  0  0  0  0  0  0  0  0
  -10.2798   -3.9583  -24.1512 H   0  0  0  0  0  0  0  0  0  0  0  0
   -7.5423   -4.5639  -23.8070 H   0  0  0  0  0  0  0  0  0  0  0  0
   -7.6222   -3.0654  -24.7312 H   0  0  0  0  0  0  0  0  0  0  0  0
   -8.9572   -3.6131  -22.0363 H   0  0  0  0  0  0  0  0  0  0  0  0
   -6.2962   -2.3767  -22.7552 H   0  0  0  0  0  0  0  0  0  0  0  0
   -6.7430   -3.3907  -21.3735 H   0  0  0  0  0  0  0  0  0  0  0  0
  -10.7344   -1.7409  -22.5992 C   0  0  0  0  0  0  0  0  0  0  0  0
  -11.2995   -2.7469  -21.8074 C   0  0  0  0  0  0  0  0  0  0  0  0
  -12.6652   -2.7804  -21.5856 C   0  0  0  0  0  0  0  0  0  0  0  0
  -13.3194   -3.9768  -20.5150 Cl  0  0  0  0  0  0  0  0  0  0  0  0
  -13.5314   -1.8500  -22.1506 C   0  0  0  0  0  0  0  0  0  0  0  0
  -12.9838   -0.8567  -22.9320 C   0  0  0  0  0  0  0  0  0  0  0  0
  -11.6082   -0.7861  -23.1413 C   0  0  0  0  0  0  0  0  0  0  0  0
  -11.0987    0.3940  -23.9083 C   0  0  0  0  0  0  0  0  0  0  0  0
  -11.8398    1.2917  -24.2864 O   0  0  0  0  0  0  0  0  0  0  0  0
  -13.5992   -0.0855  -23.3763 H   0  0  0  0  0  0  0  0  0  0  0  0
  -14.5956   -1.8899  -21.9447 H   0  0  0  0  0  0  0  0  0  0  0  0
  -10.6972   -3.4932  -21.3037 H   0  0  0  0  0  0  0  0  0  0  0  0
   -7.8984   -0.5491  -24.1322 H   0  0  0  0  0  0  0  0  0  0  0  0
   -9.1970   -1.4569  -24.9222 H   0  0  0  0  0  0  0  0  0  0  0  0
   -8.6842    1.3154  -25.6902 H   0  0  0  0  0  0  0  0  0  0  0  0
   -9.9645    2.2943  -24.9411 H   0  0  0  0  0  0  0  0  0  0  0  0
   -9.4067    2.7699  -22.3569 H   0  0  0  0  0  0  0  0  0  0  0  0
   -6.8495    2.5190  -21.4828 H   0  0  0  0  0  0  0  0  0  0  0  0
   -6.7740    4.0642  -22.3867 H   0  0  0  0  0  0  0  0  0  0  0  0
   -7.8827    3.9425  -21.0357 H   0  0  0  0  0  0  0  0  0  0  0  0
  1  2  1  0
  2  3  1  0
  3  4  2  0
  3  5  1  0
  5  6  1  0
  6  7  1  0
  8  7  1  6
  8  9  1  0
  9 10  2  0
  9 11  1  0
 11 12  1  0
 12 13  2  0
 13 14  1  0
 14 15  2  0
 15 16  1  0
 16 17  2  0
 17 18  1  0
 18 19  2  0
 19 20  1  0
 20 21  2  0
 20 22  1  0
 19 23  1  0
 18 24  1  0
 17 25  1  0
 15 26  1  0
 13 27  1  0
 11 28  1  0
 28 29  1  0
 29 30  1  0
 30 31  1  0
 31 32  1  0
 32 33  2  0
 33 34  1  0
 34 35  2  0
 35 36  1  0
 36 37  1  0
 37 38  1  0
 37 39  1  0
 37 40  1  0
 36 41  2  0
 34 42  1  0
 33 43  1  0
 31 44  1  0
 30 45  1  0
 30 46  1  0
 29 47  1  1
 28 48  1  0
 28 49  1  0
  8 50  1  0
 50 51  2  0
 51 52  1  0
 52 53  1  0
 52 54  2  0
 54 55  1  0
 55 56  2  0
 56 57  1  0
 57 58  2  0
 55 59  1  0
 54 60  1  0
 51 61  1  0
  7 62  1  0
  7 63  1  0
  5 64  1  0
  5 65  1  0
  2 66  1  0
  1 67  1  0
  1 68  1  0
  1 69  1  0
 57  6  1  0
 29  8  1  0
 41 32  1  0
 56 50  1  0
 21 12  1  0
 21 16  1  0
M  END
>  <cnnaffinities>  (14) 
[6.52142]

>  <score>  (14) 
6.52142

>  <index>  (14) 
13

>  <Smiles>  (14) 
C(N(C(=O)C(N1C([C@@]2(C(=O)N(c3c(nc(c4c(c(c(c(c34)[H])[H])[H])[H])[H])[H])C([C@@]2(C(N(c2c(c(nc(C([H])([H])[H])n2)[H])[H])[H])([H])[H])[H])([H])[H])c2c(c(Cl)c(c(c2C1=O)[H])[H])[H])([H])[H])([H])[H])[H])([H])([H])[H]

>  <h>  (14) 
<NA>

>  <Training>  (14) 
True

>  <Success>  (14) 
True

>  <enamine_searched>  (14) 
False

>  <enamine_id>  (14) 
nan

$$$$

     RDKit          3D

 73 78  0  0  0  0  0  0  0  0999 V2000
   -7.9777   -3.7382  -23.9912 C   0  0  0  0  0  0  0  0  0  0  0  0
   -8.3133   -2.8635  -22.7905 C   0  0  1  0  0  0  0  0  0  0  0  0
   -7.0982   -2.6570  -21.8773 C   0  0  0  0  0  0  0  0  0  0  0  0
   -7.4104   -1.4277  -21.1911 N   0  0  0  0  0  0  0  0  0  0  0  0
   -6.5265   -0.9400  -20.2021 C   0  0  0  0  0  0  0  0  0  0  0  0
   -6.7657   -1.2483  -18.8910 C   0  0  0  0  0  0  0  0  0  0  0  0
   -5.9244   -0.9644  -17.8678 N   0  0  0  0  0  0  0  0  0  0  0  0
   -4.8070   -0.3490  -18.1648 C   0  0  0  0  0  0  0  0  0  0  0  0
   -4.4587    0.0711  -19.4829 C   0  0  0  0  0  0  0  0  0  0  0  0
   -3.2968    0.8430  -19.7381 C   0  0  0  0  0  0  0  0  0  0  0  0
   -3.0711    1.3632  -20.9820 C   0  0  0  0  0  0  0  0  0  0  0  0
   -3.9321    1.0422  -22.0561 C   0  0  0  0  0  0  0  0  0  0  0  0
   -5.0365    0.2513  -21.8506 C   0  0  0  0  0  0  0  0  0  0  0  0
   -5.3366   -0.2322  -20.5452 C   0  0  0  0  0  0  0  0  0  0  0  0
   -5.6723   -0.0173  -22.6864 H   0  0  0  0  0  0  0  0  0  0  0  0
   -3.7528    1.4691  -23.0374 H   0  0  0  0  0  0  0  0  0  0  0  0
   -2.2338    2.0330  -21.1493 H   0  0  0  0  0  0  0  0  0  0  0  0
   -2.6496    1.0661  -18.8959 H   0  0  0  0  0  0  0  0  0  0  0  0
   -4.1139   -0.1164  -17.3534 H   0  0  0  0  0  0  0  0  0  0  0  0
   -7.6948   -1.7556  -18.6464 H   0  0  0  0  0  0  0  0  0  0  0  0
   -8.3935   -0.6798  -21.7956 C   0  0  0  0  0  0  0  0  0  0  0  0
   -8.8093    0.3812  -21.3750 O   0  0  0  0  0  0  0  0  0  0  0  0
   -8.8383   -1.4270  -23.0779 C   0  0  1  0  0  0  0  0  0  0  0  0
   -8.1396   -0.8300  -24.3296 C   0  0  0  0  0  0  0  0  0  0  0  0
   -8.5993    0.5075  -24.6260 N   0  0  0  0  0  0  0  0  0  0  0  0
   -7.6588    1.5795  -24.8924 C   0  0  0  0  0  0  0  0  0  0  0  0
   -7.5335    2.5008  -23.6817 C   0  0  0  0  0  0  0  0  0  0  0  0
   -6.4480    3.5248  -23.8497 N   0  0  0  0  0  4  0  0  0  0  0  0
   -6.7751    4.6409  -24.8281 C   0  0  0  0  0  0  0  0  0  0  0  0
   -7.7532    5.6631  -24.2405 C   0  0  0  0  0  0  0  0  0  0  0  0
   -7.3180    6.1633  -22.9351 N   0  0  0  0  0  0  0  0  0  0  0  0
   -6.5501    7.6389  -22.8280 S   0  0  0  0  0  0  0  0  0  0  0  0
   -6.0604    7.7943  -21.4704 O   0  0  0  0  0  0  0  0  0  0  0  0
   -7.4262    8.6352  -23.4207 O   0  0  0  0  0  0  0  0  0  0  0  0
   -5.1309    7.5260  -23.9132 C   0  0  0  0  0  0  0  0  0  0  0  0
   -5.4619    7.4770  -24.9514 H   0  0  0  0  0  0  0  0  0  0  0  0
   -4.5005    6.6678  -23.6841 H   0  0  0  0  0  0  0  0  0  0  0  0
   -4.5527    8.4409  -23.7762 H   0  0  0  0  0  0  0  0  0  0  0  0
   -7.0289    5.0960  -21.9750 C   0  0  0  0  0  0  0  0  0  0  0  0
   -6.0026    4.1127  -22.5320 C   0  0  0  0  0  0  0  0  0  0  0  0
   -5.0517    4.6178  -22.7022 H   0  0  0  0  0  0  0  0  0  0  0  0
   -5.8128    3.2957  -21.8284 H   0  0  0  0  0  0  0  0  0  0  0  0
   -7.9717    4.5711  -21.7771 H   0  0  0  0  0  0  0  0  0  0  0  0
   -6.6918    5.5413  -21.0408 H   0  0  0  0  0  0  0  0  0  0  0  0
   -8.7312    5.1902  -24.1031 H   0  0  0  0  0  0  0  0  0  0  0  0
   -7.9049    6.4997  -24.9233 H   0  0  0  0  0  0  0  0  0  0  0  0
   -7.1716    4.2138  -25.7501 H   0  0  0  0  0  0  0  0  0  0  0  0
   -5.8324    5.1219  -25.0886 H   0  0  0  0  0  0  0  0  0  0  0  0
   -5.6292    3.0126  -24.2261 H   0  0  0  0  0  0  0  0  0  0  0  0
   -7.3179    1.9184  -22.7805 H   0  0  0  0  0  0  0  0  0  0  0  0
   -8.4906    2.9949  -23.5187 H   0  0  0  0  0  0  0  0  0  0  0  0
   -6.6822    1.1421  -25.1223 H   0  0  0  0  0  0  0  0  0  0  0  0
   -7.9969    2.1301  -25.7752 H   0  0  0  0  0  0  0  0  0  0  0  0
   -9.9320    0.7949  -24.6738 C   0  0  0  0  0  0  0  0  0  0  0  0
  -10.3667    1.8256  -25.1693 O   0  0  0  0  0  0  0  0  0  0  0  0
  -10.8391   -0.2233  -24.0466 C   0  0  0  0  0  0  0  0  0  0  0  0
  -12.2107   -0.0452  -24.2061 C   0  0  0  0  0  0  0  0  0  0  0  0
  -13.1062   -0.8894  -23.5843 C   0  0  0  0  0  0  0  0  0  0  0  0
  -12.5979   -1.9107  -22.7847 C   0  0  0  0  0  0  0  0  0  0  0  0
  -13.6991   -2.9576  -21.9434 Cl  0  0  0  0  0  0  0  0  0  0  0  0
  -11.2397   -2.1110  -22.6228 C   0  0  0  0  0  0  0  0  0  0  0  0
  -10.3299   -1.2808  -23.2817 C   0  0  0  0  0  0  0  0  0  0  0  0
  -10.9064   -2.9025  -21.9614 H   0  0  0  0  0  0  0  0  0  0  0  0
  -14.1778   -0.7528  -23.6850 H   0  0  0  0  0  0  0  0  0  0  0  0
  -12.5469    0.7838  -24.8147 H   0  0  0  0  0  0  0  0  0  0  0  0
   -8.3550   -1.4846  -25.1840 H   0  0  0  0  0  0  0  0  0  0  0  0
   -7.0527   -0.8166  -24.1962 H   0  0  0  0  0  0  0  0  0  0  0  0
   -6.1580   -2.5876  -22.4548 H   0  0  0  0  0  0  0  0  0  0  0  0
   -6.9808   -3.4568  -21.1419 H   0  0  0  0  0  0  0  0  0  0  0  0
   -9.0740   -3.3723  -22.1924 H   0  0  0  0  0  0  0  0  0  0  0  0
   -7.1290   -3.3185  -24.5448 H   0  0  0  0  0  0  0  0  0  0  0  0
   -7.6855   -4.7394  -23.6562 H   0  0  0  0  0  0  0  0  0  0  0  0
   -8.8222   -3.8372  -24.6816 H   0  0  0  0  0  0  0  0  0  0  0  0
  1  2  1  0
  2  3  1  0
  3  4  1  0
  4  5  1  0
  5  6  2  0
  6  7  1  0
  7  8  2  0
  8  9  1  0
  9 10  2  0
 10 11  1  0
 11 12  2  0
 12 13  1  0
 13 14  2  0
 13 15  1  0
 12 16  1  0
 11 17  1  0
 10 18  1  0
  8 19  1  0
  6 20  1  0
  4 21  1  0
 21 22  2  0
 21 23  1  0
 23 24  1  6
 24 25  1  0
 25 26  1  0
 26 27  1  0
 27 28  1  0
 28 29  1  0
 29 30  1  0
 30 31  1  0
 31 32  1  0
 32 33  2  0
 32 34  2  0
 32 35  1  0
 35 36  1  0
 35 37  1  0
 35 38  1  0
 31 39  1  0
 39 40  1  0
 40 41  1  0
 40 42  1  0
 39 43  1  0
 39 44  1  0
 30 45  1  0
 30 46  1  0
 29 47  1  0
 29 48  1  0
 28 49  1  0
 27 50  1  0
 27 51  1  0
 26 52  1  0
 26 53  1  0
 25 54  1  0
 54 55  2  0
 54 56  1  0
 56 57  2  0
 57 58  1  0
 58 59  2  0
 59 60  1  0
 59 61  1  0
 61 62  2  0
 61 63  1  0
 58 64  1  0
 57 65  1  0
 24 66  1  0
 24 67  1  0
  3 68  1  0
  3 69  1  0
  2 70  1  1
  1 71  1  0
  1 72  1  0
  1 73  1  0
 23  2  1  0
 40 28  1  0
 62 56  1  0
 14  5  1  0
 62 23  1  0
 14  9  1  0
M  CHG  1  28   1
M  END
>  <cnnaffinities>  (15) 
[7.0503, 6.07362]

>  <score>  (15) 
7.0503

>  <index>  (15) 
14

>  <Smiles>  (15) 
C([C@]1(C(N(c2c(nc(c3c(c(c(c(c23)[H])[H])[H])[H])[H])[H])C(=O)[C@]21C(N(C(C([N+]1(C(C(N(S(=O)(=O)C([H])([H])[H])C(C1([H])[H])([H])[H])([H])[H])([H])[H])[H])([H])[H])([H])[H])C(=O)c1c(c(c(Cl)c(c21)[H])[H])[H])([H])[H])([H])[H])[H])([H])([H])[H]

>  <h>  (15) 
<NA>

>  <Training>  (15) 
True

>  <Success>  (15) 
True

>  <enamine_searched>  (15) 
False

>  <enamine_id>  (15) 
nan

$$$$

     RDKit          3D

 63 68  0  0  0  0  0  0  0  0999 V2000
   -7.3864    3.3673  -21.8581 C   0  0  0  0  0  0  0  0  0  0  0  0
   -8.3644    2.8906  -22.8264 N   0  0  0  0  0  0  0  0  0  0  0  0
   -7.8773    2.1729  -23.8815 C   0  0  0  0  0  0  0  0  0  0  0  0
   -6.6775    1.9893  -24.0472 O   0  0  0  0  0  0  0  0  0  0  0  0
   -8.8942    1.5849  -24.8581 C   0  0  0  0  0  0  0  0  0  0  0  0
   -9.5217    0.4124  -24.2770 N   0  0  0  0  0  0  0  0  0  0  0  0
   -8.7420   -0.8115  -24.1416 C   0  0  0  0  0  0  0  0  0  0  0  0
   -9.0907   -1.5701  -22.8346 C   0  0  2  0  0  0  0  0  0  0  0  0
   -8.5425   -0.7955  -21.6066 C   0  0  0  0  0  0  0  0  0  0  0  0
   -9.0128    0.1900  -21.0766 O   0  0  0  0  0  0  0  0  0  0  0  0
   -7.3797   -1.4154  -21.2153 N   0  0  0  0  0  0  0  0  0  0  0  0
   -6.5190   -0.9488  -20.2021 C   0  0  0  0  0  0  0  0  0  0  0  0
   -6.7656   -1.2592  -18.8935 C   0  0  0  0  0  0  0  0  0  0  0  0
   -5.8987   -1.0145  -17.8790 N   0  0  0  0  0  0  0  0  0  0  0  0
   -4.7692   -0.4225  -18.1769 C   0  0  0  0  0  0  0  0  0  0  0  0
   -4.4300    0.0190  -19.4876 C   0  0  0  0  0  0  0  0  0  0  0  0
   -3.2622    0.7761  -19.7476 C   0  0  0  0  0  0  0  0  0  0  0  0
   -3.0537    1.3134  -20.9896 C   0  0  0  0  0  0  0  0  0  0  0  0
   -3.9458    1.0377  -22.0529 C   0  0  0  0  0  0  0  0  0  0  0  0
   -5.0533    0.2541  -21.8379 C   0  0  0  0  0  0  0  0  0  0  0  0
   -5.3247   -0.2540  -20.5416 C   0  0  0  0  0  0  0  0  0  0  0  0
   -5.7292    0.0330  -22.6590 H   0  0  0  0  0  0  0  0  0  0  0  0
   -3.7913    1.4869  -23.0276 H   0  0  0  0  0  0  0  0  0  0  0  0
   -2.2021    1.9637  -21.1611 H   0  0  0  0  0  0  0  0  0  0  0  0
   -2.5959    0.9607  -18.9112 H   0  0  0  0  0  0  0  0  0  0  0  0
   -4.0518   -0.2420  -17.3733 H   0  0  0  0  0  0  0  0  0  0  0  0
   -7.6968   -1.7654  -18.6459 H   0  0  0  0  0  0  0  0  0  0  0  0
   -7.0200   -2.5862  -21.9681 C   0  0  0  0  0  0  0  0  0  0  0  0
   -8.3100   -2.9136  -22.7247 C   0  0  2  0  0  0  0  0  0  0  0  0
   -8.0141   -3.6564  -24.0308 C   0  0  0  0  0  0  0  0  0  0  0  0
   -7.4392   -4.9691  -23.7866 N   0  0  0  0  0  0  0  0  0  0  0  0
   -8.0974   -6.1179  -23.5091 C   0  0  0  0  0  0  0  0  0  0  0  0
   -7.1411   -7.0822  -23.2890 C   0  0  0  0  0  0  0  0  0  0  0  0
   -5.9173   -6.4064  -23.4589 C   0  0  0  0  0  0  0  0  0  0  0  0
   -6.1080   -5.1229  -23.7472 N   0  0  0  0  0  0  0  0  0  0  0  0
   -4.9104   -6.8049  -23.4004 H   0  0  0  0  0  0  0  0  0  0  0  0
   -7.2991   -8.1228  -23.0472 H   0  0  0  0  0  0  0  0  0  0  0  0
   -9.1795   -6.1684  -23.5039 H   0  0  0  0  0  0  0  0  0  0  0  0
   -7.2748   -3.1006  -24.6158 H   0  0  0  0  0  0  0  0  0  0  0  0
   -8.9212   -3.7769  -24.6326 H   0  0  0  0  0  0  0  0  0  0  0  0
   -8.8980   -3.5832  -22.0933 H   0  0  0  0  0  0  0  0  0  0  0  0
   -6.1691   -2.4124  -22.6518 H   0  0  0  0  0  0  0  0  0  0  0  0
   -6.7295   -3.3797  -21.2750 H   0  0  0  0  0  0  0  0  0  0  0  0
  -10.5995   -1.6830  -22.7501 C   0  0  0  0  0  0  0  0  0  0  0  0
  -11.1987   -2.6320  -21.9170 C   0  0  0  0  0  0  0  0  0  0  0  0
  -12.5741   -2.6748  -21.7894 C   0  0  0  0  0  0  0  0  0  0  0  0
  -13.2784   -3.8173  -20.6905 Cl  0  0  0  0  0  0  0  0  0  0  0  0
  -13.4116   -1.8070  -22.4861 C   0  0  0  0  0  0  0  0  0  0  0  0
  -12.8253   -0.8479  -23.2825 C   0  0  0  0  0  0  0  0  0  0  0  0
  -11.4393   -0.7631  -23.3904 C   0  0  0  0  0  0  0  0  0  0  0  0
  -10.8820    0.3954  -24.1537 C   0  0  0  0  0  0  0  0  0  0  0  0
  -11.5984    1.2813  -24.6082 O   0  0  0  0  0  0  0  0  0  0  0  0
  -13.4165   -0.1169  -23.8184 H   0  0  0  0  0  0  0  0  0  0  0  0
  -14.4890   -1.8710  -22.3752 H   0  0  0  0  0  0  0  0  0  0  0  0
  -10.6095   -3.3325  -21.3376 H   0  0  0  0  0  0  0  0  0  0  0  0
   -8.9449   -1.4724  -24.9950 H   0  0  0  0  0  0  0  0  0  0  0  0
   -7.6755   -0.5593  -24.1660 H   0  0  0  0  0  0  0  0  0  0  0  0
   -9.6929    2.2920  -25.1098 H   0  0  0  0  0  0  0  0  0  0  0  0
   -8.3620    1.3145  -25.7788 H   0  0  0  0  0  0  0  0  0  0  0  0
   -9.2994    2.7056  -22.4765 H   0  0  0  0  0  0  0  0  0  0  0  0
   -6.7771    2.5220  -21.4955 H   0  0  0  0  0  0  0  0  0  0  0  0
   -7.9044    3.8661  -21.0368 H   0  0  0  0  0  0  0  0  0  0  0  0
   -6.7317    4.1108  -22.3247 H   0  0  0  0  0  0  0  0  0  0  0  0
  1  2  1  0
  2  3  1  0
  3  4  2  0
  3  5  1  0
  5  6  1  0
  6  7  1  0
  8  7  1  6
  8  9  1  0
  9 10  2  0
  9 11  1  0
 11 12  1  0
 12 13  2  0
 13 14  1  0
 14 15  2  0
 15 16  1  0
 16 17  2  0
 17 18  1  0
 18 19  2  0
 19 20  1  0
 20 21  2  0
 20 22  1  0
 19 23  1  0
 18 24  1  0
 17 25  1  0
 15 26  1  0
 13 27  1  0
 11 28  1  0
 28 29  1  0
 29 30  1  0
 30 31  1  0
 31 32  1  0
 32 33  2  0
 33 34  1  0
 34 35  2  0
 34 36  1  0
 33 37  1  0
 32 38  1  0
 30 39  1  0
 30 40  1  0
 29 41  1  1
 28 42  1  0
 28 43  1  0
  8 44  1  0
 44 45  2  0
 45 46  1  0
 46 47  1  0
 46 48  2  0
 48 49  1  0
 49 50  2  0
 50 51  1  0
 51 52  2  0
 49 53  1  0
 48 54  1  0
 45 55  1  0
  7 56  1  0
  7 57  1  0
  5 58  1  0
  5 59  1  0
  2 60  1  0
  1 61  1  0
  1 62  1  0
  1 63  1  0
 51  6  1  0
 29  8  1  0
 35 31  1  0
 50 44  1  0
 21 12  1  0
 21 16  1  0
M  END
>  <cnnaffinities>  (16) 
[7.0596, 7.1192, 6.82398]

>  <score>  (16) 
7.0596

>  <index>  (16) 
15

>  <Smiles>  (16) 
C(N(C(=O)C(N1C([C@@]2(C(=O)N(c3c(nc(c4c(c(c(c(c34)[H])[H])[H])[H])[H])[H])C([C@@]2(C(n2c(c(c(n2)[H])[H])[H])([H])[H])[H])([H])[H])c2c(c(Cl)c(c(c2C1=O)[H])[H])[H])([H])[H])([H])[H])[H])([H])([H])[H]

>  <h>  (16) 
<NA>

>  <Training>  (16) 
True

>  <Success>  (16) 
True

>  <enamine_searched>  (16) 
False

>  <enamine_id>  (16) 
nan

$$$$

     RDKit          3D

 61 66  0  0  0  0  0  0  0  0999 V2000
   -7.3171    3.3842  -21.8810 C   0  0  0  0  0  0  0  0  0  0  0  0
   -8.2114    2.9374  -22.9397 N   0  0  0  0  0  0  0  0  0  0  0  0
   -7.6578    2.2176  -23.9589 C   0  0  0  0  0  0  0  0  0  0  0  0
   -6.4526    2.0475  -24.0648 O   0  0  0  0  0  0  0  0  0  0  0  0
   -8.6326    1.6221  -24.9765 C   0  0  0  0  0  0  0  0  0  0  0  0
   -9.3353    0.4843  -24.4116 N   0  0  0  0  0  0  0  0  0  0  0  0
   -8.6128   -0.7661  -24.2242 C   0  0  0  0  0  0  0  0  0  0  0  0
   -9.0320   -1.4804  -22.9140 C   0  0  2  0  0  0  0  0  0  0  0  0
   -8.4848   -0.7140  -21.6831 C   0  0  0  0  0  0  0  0  0  0  0  0
   -8.9070    0.3211  -21.2060 O   0  0  0  0  0  0  0  0  0  0  0  0
   -7.3988   -1.4080  -21.2060 N   0  0  0  0  0  0  0  0  0  0  0  0
   -6.5258   -0.9415  -20.1994 C   0  0  0  0  0  0  0  0  0  0  0  0
   -6.7728   -1.2514  -18.8922 C   0  0  0  0  0  0  0  0  0  0  0  0
   -5.9125   -0.9995  -17.8745 N   0  0  0  0  0  0  0  0  0  0  0  0
   -4.7866   -0.3983  -18.1691 C   0  0  0  0  0  0  0  0  0  0  0  0
   -4.4370    0.0313  -19.4810 C   0  0  0  0  0  0  0  0  0  0  0  0
   -3.2711    0.7917  -19.7404 C   0  0  0  0  0  0  0  0  0  0  0  0
   -3.0536    1.3207  -20.9845 C   0  0  0  0  0  0  0  0  0  0  0  0
   -3.9365    1.0279  -22.0513 C   0  0  0  0  0  0  0  0  0  0  0  0
   -5.0409    0.2435  -21.8383 C   0  0  0  0  0  0  0  0  0  0  0  0
   -5.3278   -0.2496  -20.5386 C   0  0  0  0  0  0  0  0  0  0  0  0
   -5.7043    0.0073  -22.6656 H   0  0  0  0  0  0  0  0  0  0  0  0
   -3.7707    1.4658  -23.0305 H   0  0  0  0  0  0  0  0  0  0  0  0
   -2.2062    1.9769  -21.1551 H   0  0  0  0  0  0  0  0  0  0  0  0
   -2.6159    1.0023  -18.9011 H   0  0  0  0  0  0  0  0  0  0  0  0
   -4.0851   -0.1987  -17.3577 H   0  0  0  0  0  0  0  0  0  0  0  0
   -7.7054   -1.7567  -18.6448 H   0  0  0  0  0  0  0  0  0  0  0  0
   -7.0672   -2.6024  -21.9359 C   0  0  0  0  0  0  0  0  0  0  0  0
   -8.3247   -2.8621  -22.7670 C   0  0  2  0  0  0  0  0  0  0  0  0
   -7.9803   -3.6229  -24.0516 C   0  0  0  0  0  0  0  0  0  0  0  0
   -7.4463   -4.9462  -23.7482 N   0  0  0  0  0  0  0  0  0  0  0  0
   -6.1553   -5.2166  -23.6471 N   0  0  0  0  0  0  0  0  0  0  0  0
   -6.1802   -6.5053  -23.3410 C   0  0  0  0  0  0  0  0  0  0  0  0
   -7.4360   -6.9887  -23.2509 N   0  0  0  0  0  0  0  0  0  0  0  0
   -8.2235   -5.9810  -23.5112 N   0  0  0  0  0  0  0  0  0  0  0  0
   -5.2914   -7.1062  -23.1956 H   0  0  0  0  0  0  0  0  0  0  0  0
   -7.2081   -3.0935  -24.6123 H   0  0  0  0  0  0  0  0  0  0  0  0
   -8.8542   -3.7497  -24.6953 H   0  0  0  0  0  0  0  0  0  0  0  0
   -8.9834   -3.5153  -22.1920 H   0  0  0  0  0  0  0  0  0  0  0  0
   -6.1712   -2.4757  -22.5704 H   0  0  0  0  0  0  0  0  0  0  0  0
   -6.8655   -3.4177  -21.2375 H   0  0  0  0  0  0  0  0  0  0  0  0
  -10.5454   -1.5166  -22.8594 C   0  0  0  0  0  0  0  0  0  0  0  0
  -11.1970   -2.3970  -21.9918 C   0  0  0  0  0  0  0  0  0  0  0  0
  -12.5762   -2.4033  -21.9123 C   0  0  0  0  0  0  0  0  0  0  0  0
  -13.3444   -3.5032  -20.8106 Cl  0  0  0  0  0  0  0  0  0  0  0  0
  -13.3628   -1.5382  -22.6713 C   0  0  0  0  0  0  0  0  0  0  0  0
  -12.7217   -0.6302  -23.4875 C   0  0  0  0  0  0  0  0  0  0  0  0
  -11.3302   -0.5934  -23.5608 C   0  0  0  0  0  0  0  0  0  0  0  0
  -10.7023    0.5179  -24.3466 C   0  0  0  0  0  0  0  0  0  0  0  0
  -11.3673    1.4070  -24.8586 O   0  0  0  0  0  0  0  0  0  0  0  0
  -13.2774    0.0944  -24.0687 H   0  0  0  0  0  0  0  0  0  0  0  0
  -14.4450   -1.5616  -22.5904 H   0  0  0  0  0  0  0  0  0  0  0  0
  -10.6417   -3.0688  -21.3480 H   0  0  0  0  0  0  0  0  0  0  0  0
   -8.8160   -1.4399  -25.0678 H   0  0  0  0  0  0  0  0  0  0  0  0
   -7.5366   -0.5585  -24.2160 H   0  0  0  0  0  0  0  0  0  0  0  0
   -8.0567    1.3149  -25.8567 H   0  0  0  0  0  0  0  0  0  0  0  0
   -9.3871    2.3507  -25.2903 H   0  0  0  0  0  0  0  0  0  0  0  0
   -9.1787    2.7735  -22.6859 H   0  0  0  0  0  0  0  0  0  0  0  0
   -6.6260    4.1391  -22.2677 H   0  0  0  0  0  0  0  0  0  0  0  0
   -6.7309    2.5365  -21.4925 H   0  0  0  0  0  0  0  0  0  0  0  0
   -7.8985    3.8445  -21.0799 H   0  0  0  0  0  0  0  0  0  0  0  0
  1  2  1  0
  2  3  1  0
  3  4  2  0
  3  5  1  0
  5  6  1  0
  6  7  1  0
  8  7  1  6
  8  9  1  0
  9 10  2  0
  9 11  1  0
 11 12  1  0
 12 13  2  0
 13 14  1  0
 14 15  2  0
 15 16  1  0
 16 17  2  0
 17 18  1  0
 18 19  2  0
 19 20  1  0
 20 21  2  0
 20 22  1  0
 19 23  1  0
 18 24  1  0
 17 25  1  0
 15 26  1  0
 13 27  1  0
 11 28  1  0
 28 29  1  0
 29 30  1  0
 30 31  1  0
 31 32  1  0
 32 33  2  0
 33 34  1  0
 34 35  2  0
 33 36  1  0
 30 37  1  0
 30 38  1  0
 29 39  1  1
 28 40  1  0
 28 41  1  0
  8 42  1  0
 42 43  2  0
 43 44  1  0
 44 45  1  0
 44 46  2  0
 46 47  1  0
 47 48  2  0
 48 49  1  0
 49 50  2  0
 47 51  1  0
 46 52  1  0
 43 53  1  0
  7 54  1  0
  7 55  1  0
  5 56  1  0
  5 57  1  0
  2 58  1  0
  1 59  1  0
  1 60  1  0
  1 61  1  0
 49  6  1  0
 29  8  1  0
 35 31  1  0
 48 42  1  0
 21 12  1  0
 21 16  1  0
M  END
>  <cnnaffinities>  (17) 
[7.06948, 7.05627, 6.70823]

>  <score>  (17) 
7.06948

>  <index>  (17) 
16

>  <Smiles>  (17) 
C(N(C(=O)C(N1C([C@@]2(C(=O)N(c3c(nc(c4c(c(c(c(c34)[H])[H])[H])[H])[H])[H])C([C@@]2(C(n2nc(nn2)[H])([H])[H])[H])([H])[H])c2c(c(Cl)c(c(c2C1=O)[H])[H])[H])([H])[H])([H])[H])[H])([H])([H])[H]

>  <h>  (17) 
<NA>

>  <Training>  (17) 
True

>  <Success>  (17) 
True

>  <enamine_searched>  (17) 
False

>  <enamine_id>  (17) 
nan

$$$$

     RDKit          3D

 38 41  0  0  0  0  0  0  0  0999 V2000
  -10.7677   -4.5896  -22.7852 C   0  0  0  0  0  0  0  0  0  0  0  0
  -10.5629   -3.3305  -23.6218 C   0  0  2  0  0  0  0  0  0  0  0  0
   -9.4470   -3.5408  -24.6556 C   0  0  0  0  0  0  0  0  0  0  0  0
   -8.1034   -3.7911  -23.9586 C   0  0  0  0  0  0  0  0  0  0  0  0
   -7.9151   -2.8198  -22.8832 C   0  0  0  0  0  0  0  0  0  0  0  0
   -6.7512   -2.5811  -22.0888 C   0  0  0  0  0  0  0  0  0  0  0  0
   -5.6561   -3.1014  -22.1076 O   0  0  0  0  0  1  0  0  0  0  0  0
   -7.1506   -1.5354  -21.2187 N   0  0  0  0  0  0  0  0  0  0  0  0
   -6.3461   -1.0303  -20.1805 C   0  0  0  0  0  0  0  0  0  0  0  0
   -6.6043   -1.3583  -18.8772 C   0  0  0  0  0  0  0  0  0  0  0  0
   -5.7174   -1.1678  -17.8753 N   0  0  0  0  0  0  0  0  0  0  0  0
   -4.5837   -0.5808  -18.1768 C   0  0  0  0  0  0  0  0  0  0  0  0
   -4.2726   -0.0490  -19.4613 C   0  0  0  0  0  0  0  0  0  0  0  0
   -3.0740    0.6558  -19.7478 C   0  0  0  0  0  0  0  0  0  0  0  0
   -2.8679    1.2150  -20.9788 C   0  0  0  0  0  0  0  0  0  0  0  0
   -3.8389    1.0794  -21.9992 C   0  0  0  0  0  0  0  0  0  0  0  0
   -4.9829    0.3537  -21.7698 C   0  0  0  0  0  0  0  0  0  0  0  0
   -5.2094   -0.2340  -20.4954 C   0  0  0  0  0  0  0  0  0  0  0  0
   -5.7120    0.2001  -22.5615 H   0  0  0  0  0  0  0  0  0  0  0  0
   -3.6861    1.5620  -22.9593 H   0  0  0  0  0  0  0  0  0  0  0  0
   -1.9454    1.7522  -21.1878 H   0  0  0  0  0  0  0  0  0  0  0  0
   -2.3568    0.7911  -18.9484 H   0  0  0  0  0  0  0  0  0  0  0  0
   -3.8492   -0.5061  -17.3785 H   0  0  0  0  0  0  0  0  0  0  0  0
   -7.5404   -1.8358  -18.6006 H   0  0  0  0  0  0  0  0  0  0  0  0
   -8.4642   -1.1414  -21.4480 C   0  0  0  0  0  0  0  0  0  0  0  0
   -9.0744   -0.2612  -20.8943 O   0  0  0  0  0  0  0  0  0  0  0  0
   -8.8994   -1.9946  -22.4449 N   0  0  0  0  0  0  0  0  0  0  0  0
  -10.2961   -2.0645  -22.8204 C   0  0  0  0  0  0  0  0  0  0  0  0
  -10.5575   -1.1834  -23.4205 H   0  0  0  0  0  0  0  0  0  0  0  0
  -10.8916   -2.0307  -21.9034 H   0  0  0  0  0  0  0  0  0  0  0  0
   -7.2852   -3.7315  -24.6797 H   0  0  0  0  0  0  0  0  0  0  0  0
   -8.0311   -4.8084  -23.5516 H   0  0  0  0  0  0  0  0  0  0  0  0
   -9.6992   -4.3771  -25.3207 H   0  0  0  0  0  0  0  0  0  0  0  0
   -9.3575   -2.6392  -25.2738 H   0  0  0  0  0  0  0  0  0  0  0  0
  -11.5114   -3.1016  -24.1022 H   0  0  0  0  0  0  0  0  0  0  0  0
  -10.8635   -5.4368  -23.4715 H   0  0  0  0  0  0  0  0  0  0  0  0
   -9.9180   -4.7936  -22.1265 H   0  0  0  0  0  0  0  0  0  0  0  0
  -11.6675   -4.5326  -22.1633 H   0  0  0  0  0  0  0  0  0  0  0  0
  1  2  1  0
  2  3  1  0
  3  4  1  0
  4  5  1  0
  5  6  2  0
  6  7  1  0
  6  8  1  0
  8  9  1  0
  9 10  2  0
 10 11  1  0
 11 12  2  0
 12 13  1  0
 13 14  2  0
 14 15  1  0
 15 16  2  0
 16 17  1  0
 17 18  2  0
 17 19  1  0
 16 20  1  0
 15 21  1  0
 14 22  1  0
 12 23  1  0
 10 24  1  0
  8 25  1  0
 25 26  2  0
 25 27  1  0
 27 28  1  0
 28 29  1  0
 28 30  1  0
  4 31  1  0
  4 32  1  0
  3 33  1  0
  3 34  1  0
  2 35  1  6
  1 36  1  0
  1 37  1  0
  1 38  1  0
 28  2  1  0
 27  5  1  0
 18  9  1  0
 18 13  1  0
M  CHG  1   7  -1
M  END
>  <cnnaffinities>  (18) 
[5.49236, 5.76256]

>  <score>  (18) 
5.49236

>  <index>  (18) 
17

>  <Smiles>  (18) 
C([C@@]1(C(C(c2c([O-])n(c3c(nc(c4c(c(c(c(c34)[H])[H])[H])[H])[H])[H])c(=O)n2C1([H])[H])([H])[H])([H])[H])[H])([H])([H])[H]

>  <h>  (18) 
<NA>

>  <Training>  (18) 
True

>  <Success>  (18) 
True

>  <enamine_searched>  (18) 
False

>  <enamine_id>  (18) 
nan

$$$$

     RDKit          3D

 56 61  0  0  0  0  0  0  0  0999 V2000
   -7.9303   -3.5634  -24.1031 C   0  0  0  0  0  0  0  0  0  0  0  0
   -8.2956   -2.8435  -22.8125 C   0  0  1  0  0  0  0  0  0  0  0  0
   -7.0536   -2.5980  -21.9473 C   0  0  0  0  0  0  0  0  0  0  0  0
   -7.3843   -1.4059  -21.2083 N   0  0  0  0  0  0  0  0  0  0  0  0
   -6.5151   -0.9449  -20.1946 C   0  0  0  0  0  0  0  0  0  0  0  0
   -6.7630   -1.2495  -18.8840 C   0  0  0  0  0  0  0  0  0  0  0  0
   -5.8926   -1.0065  -17.8728 N   0  0  0  0  0  0  0  0  0  0  0  0
   -4.7617   -0.4141  -18.1661 C   0  0  0  0  0  0  0  0  0  0  0  0
   -4.4130    0.0072  -19.4795 C   0  0  0  0  0  0  0  0  0  0  0  0
   -3.2472    0.7696  -19.7379 C   0  0  0  0  0  0  0  0  0  0  0  0
   -3.0185    1.2793  -20.9883 C   0  0  0  0  0  0  0  0  0  0  0  0
   -3.8917    0.9674  -22.0563 C   0  0  0  0  0  0  0  0  0  0  0  0
   -4.9943    0.1768  -21.8402 C   0  0  0  0  0  0  0  0  0  0  0  0
   -5.3051   -0.2739  -20.5313 C   0  0  0  0  0  0  0  0  0  0  0  0
   -5.6468   -0.0804  -22.6674 H   0  0  0  0  0  0  0  0  0  0  0  0
   -3.7180    1.3953  -23.0410 H   0  0  0  0  0  0  0  0  0  0  0  0
   -2.1668    1.9307  -21.1610 H   0  0  0  0  0  0  0  0  0  0  0  0
   -2.6080    0.9991  -18.8924 H   0  0  0  0  0  0  0  0  0  0  0  0
   -4.0500   -0.2253  -17.3585 H   0  0  0  0  0  0  0  0  0  0  0  0
   -7.6919   -1.7613  -18.6356 H   0  0  0  0  0  0  0  0  0  0  0  0
   -8.4782   -0.7127  -21.6737 C   0  0  0  0  0  0  0  0  0  0  0  0
   -8.9314    0.2854  -21.1560 O   0  0  0  0  0  0  0  0  0  0  0  0
   -9.0014   -1.4563  -22.9371 C   0  0  1  0  0  0  0  0  0  0  0  0
   -8.5510   -0.7485  -24.2421 C   0  0  0  0  0  0  0  0  0  0  0  0
   -9.2696    0.4861  -24.4920 N   0  0  0  0  0  0  0  0  0  0  0  0
   -8.5377    1.6951  -24.8509 C   0  0  0  0  0  0  0  0  0  0  0  0
   -8.1437    2.5167  -23.6515 C   0  0  0  0  0  0  0  0  0  0  0  0
   -8.8683    3.5337  -22.9855 C   0  0  0  0  0  0  0  0  0  0  0  0
   -8.0198    3.9875  -22.0067 C   0  0  0  0  0  0  0  0  0  0  0  0
   -6.8938    3.2491  -22.1036 N   0  0  0  0  0  0  0  0  0  0  0  0
   -6.9411    2.3462  -23.0968 N   0  0  0  0  0  0  0  0  0  0  0  0
   -6.0938    3.2954  -21.4954 H   0  0  0  0  0  0  0  0  0  0  0  0
   -8.1462    4.8081  -21.3163 H   0  0  0  0  0  0  0  0  0  0  0  0
   -9.8787    3.8823  -23.1525 H   0  0  0  0  0  0  0  0  0  0  0  0
   -7.6249    1.4107  -25.3899 H   0  0  0  0  0  0  0  0  0  0  0  0
   -9.1752    2.2755  -25.5265 H   0  0  0  0  0  0  0  0  0  0  0  0
  -10.6338    0.5679  -24.3755 C   0  0  0  0  0  0  0  0  0  0  0  0
  -11.2768    1.5007  -24.8370 O   0  0  0  0  0  0  0  0  0  0  0  0
  -11.2858   -0.5446  -23.6169 C   0  0  0  0  0  0  0  0  0  0  0  0
  -12.6802   -0.5573  -23.5516 C   0  0  0  0  0  0  0  0  0  0  0  0
  -13.3439   -1.4659  -22.7566 C   0  0  0  0  0  0  0  0  0  0  0  0
  -12.5680   -2.3448  -22.0120 C   0  0  0  0  0  0  0  0  0  0  0  0
  -13.1912   -3.2103  -21.1996 F   0  0  0  0  0  0  0  0  0  0  0  0
  -11.1897   -2.3625  -22.0643 C   0  0  0  0  0  0  0  0  0  0  0  0
  -10.5181   -1.4820  -22.9150 C   0  0  0  0  0  0  0  0  0  0  0  0
  -10.6553   -3.0517  -21.4227 H   0  0  0  0  0  0  0  0  0  0  0  0
  -14.4261   -1.4856  -22.6799 H   0  0  0  0  0  0  0  0  0  0  0  0
  -13.2231    0.1842  -24.1217 H   0  0  0  0  0  0  0  0  0  0  0  0
   -7.4778   -0.5239  -24.1979 H   0  0  0  0  0  0  0  0  0  0  0  0
   -8.7122   -1.4384  -25.0808 H   0  0  0  0  0  0  0  0  0  0  0  0
   -6.8674   -3.4231  -21.2527 H   0  0  0  0  0  0  0  0  0  0  0  0
   -6.1430   -2.4741  -22.5584 H   0  0  0  0  0  0  0  0  0  0  0  0
   -8.9633   -3.4953  -22.2455 H   0  0  0  0  0  0  0  0  0  0  0  0
   -8.7986   -3.7128  -24.7529 H   0  0  0  0  0  0  0  0  0  0  0  0
   -7.1735   -2.9974  -24.6590 H   0  0  0  0  0  0  0  0  0  0  0  0
   -7.5010   -4.5391  -23.8599 H   0  0  0  0  0  0  0  0  0  0  0  0
  1  2  1  0
  2  3  1  0
  3  4  1  0
  4  5  1  0
  5  6  2  0
  6  7  1  0
  7  8  2  0
  8  9  1  0
  9 10  2  0
 10 11  1  0
 11 12  2  0
 12 13  1  0
 13 14  2  0
 13 15  1  0
 12 16  1  0
 11 17  1  0
 10 18  1  0
  8 19  1  0
  6 20  1  0
  4 21  1  0
 21 22  2  0
 21 23  1  0
 23 24  1  6
 24 25  1  0
 25 26  1  0
 26 27  1  0
 27 28  1  0
 28 29  2  0
 29 30  1  0
 30 31  1  0
 30 32  1  0
 29 33  1  0
 28 34  1  0
 26 35  1  0
 26 36  1  0
 25 37  1  0
 37 38  2  0
 37 39  1  0
 39 40  2  0
 40 41  1  0
 41 42  2  0
 42 43  1  0
 42 44  1  0
 44 45  2  0
 44 46  1  0
 41 47  1  0
 40 48  1  0
 24 49  1  0
 24 50  1  0
  3 51  1  0
  3 52  1  0
  2 53  1  1
  1 54  1  0
  1 55  1  0
  1 56  1  0
 23  2  1  0
 31 27  2  0
 45 39  1  0
 14  5  1  0
 45 23  1  0
 14  9  1  0
M  END
>  <cnnaffinities>  (19) 
[6.60821]

>  <score>  (19) 
6.60821

>  <index>  (19) 
18

>  <Smiles>  (19) 
C([C@]1(C(N(c2c(nc(c3c(c(c(c(c23)[H])[H])[H])[H])[H])[H])C(=O)[C@]21C(N(C(c1c(c(n(n1)[H])[H])[H])([H])[H])C(=O)c1c(c(c(F)c(c21)[H])[H])[H])([H])[H])([H])[H])[H])([H])([H])[H]

>  <h>  (19) 
<NA>

>  <Training>  (19) 
True

>  <Success>  (19) 
True

>  <enamine_searched>  (19) 
False

>  <enamine_id>  (19) 
nan

$$$$

     RDKit          3D

 42 45  0  0  0  0  0  0  0  0999 V2000
   -8.3505    0.4023  -21.3428 O   0  0  0  0  0  0  0  0  0  0  0  0
   -8.2150   -0.7420  -21.7382 C   0  0  0  0  0  0  0  0  0  0  0  0
   -9.0756   -1.3042  -22.8705 C   0  0  1  0  0  0  0  0  0  0  0  0
   -9.3201   -0.2922  -23.9665 C   0  0  0  0  0  0  0  0  0  0  0  0
   -8.3034    0.2848  -24.7300 C   0  0  0  0  0  0  0  0  0  0  0  0
   -8.6018    1.2733  -25.6587 C   0  0  0  0  0  0  0  0  0  0  0  0
   -9.9154    1.7032  -25.8199 C   0  0  0  0  0  0  0  0  0  0  0  0
  -10.1670    3.0470  -26.8877 Cl  0  0  0  0  0  0  0  0  0  0  0  0
  -10.9489    1.0730  -25.1184 C   0  0  0  0  0  0  0  0  0  0  0  0
  -12.6061    1.5337  -25.2795 Cl  0  0  0  0  0  0  0  0  0  0  0  0
  -10.6388    0.0519  -24.2298 C   0  0  0  0  0  0  0  0  0  0  0  0
  -11.4504   -0.4802  -23.7387 H   0  0  0  0  0  0  0  0  0  0  0  0
   -7.8273    1.7428  -26.2644 H   0  0  0  0  0  0  0  0  0  0  0  0
   -7.2663   -0.0233  -24.6168 H   0  0  0  0  0  0  0  0  0  0  0  0
   -8.5912   -2.6373  -23.4239 C   0  0  0  0  0  0  0  0  0  0  0  0
   -8.1832   -3.5747  -22.2969 C   0  0  2  0  0  0  0  0  0  0  0  0
   -9.2421   -3.8238  -21.3927 O   0  0  0  0  0  0  0  0  0  0  0  0
   -9.4372   -2.9892  -20.9422 H   0  0  0  0  0  0  0  0  0  0  0  0
   -6.9794   -2.9424  -21.6239 C   0  0  0  0  0  0  0  0  0  0  0  0
   -7.3248   -1.6110  -21.1366 N   0  0  0  0  0  0  0  0  0  0  0  0
   -6.4443   -1.0854  -20.1556 C   0  0  0  0  0  0  0  0  0  0  0  0
   -6.6621   -1.3870  -18.8369 C   0  0  0  0  0  0  0  0  0  0  0  0
   -5.7582   -1.1720  -17.8539 N   0  0  0  0  0  0  0  0  0  0  0  0
   -4.6413   -0.5770  -18.1869 C   0  0  0  0  0  0  0  0  0  0  0  0
   -4.3553   -0.0927  -19.4926 C   0  0  0  0  0  0  0  0  0  0  0  0
   -3.1555    0.6103  -19.7798 C   0  0  0  0  0  0  0  0  0  0  0  0
   -2.9308    1.1245  -21.0262 C   0  0  0  0  0  0  0  0  0  0  0  0
   -3.8719    0.9142  -22.0602 C   0  0  0  0  0  0  0  0  0  0  0  0
   -5.0127    0.1825  -21.8262 C   0  0  0  0  0  0  0  0  0  0  0  0
   -5.2932   -0.3199  -20.5183 C   0  0  0  0  0  0  0  0  0  0  0  0
   -5.7045   -0.0160  -22.6422 H   0  0  0  0  0  0  0  0  0  0  0  0
   -3.6962    1.3496  -23.0410 H   0  0  0  0  0  0  0  0  0  0  0  0
   -2.0261    1.6937  -21.2280 H   0  0  0  0  0  0  0  0  0  0  0  0
   -2.4535    0.7622  -18.9723 H   0  0  0  0  0  0  0  0  0  0  0  0
   -3.8905   -0.4472  -17.4093 H   0  0  0  0  0  0  0  0  0  0  0  0
   -7.5916   -1.8682  -18.5303 H   0  0  0  0  0  0  0  0  0  0  0  0
   -6.1306   -2.8907  -22.3254 H   0  0  0  0  0  0  0  0  0  0  0  0
   -6.6537   -3.5291  -20.7623 H   0  0  0  0  0  0  0  0  0  0  0  0
   -7.9080   -4.5556  -22.6999 H   0  0  0  0  0  0  0  0  0  0  0  0
   -7.7399   -2.4792  -24.0976 H   0  0  0  0  0  0  0  0  0  0  0  0
   -9.3878   -3.0901  -24.0158 H   0  0  0  0  0  0  0  0  0  0  0  0
  -10.0417   -1.4659  -22.3755 H   0  0  0  0  0  0  0  0  0  0  0  0
  1  2  2  0
  2  3  1  0
  3  4  1  0
  4  5  2  0
  5  6  1  0
  6  7  2  0
  7  8  1  0
  7  9  1  0
  9 10  1  0
  9 11  2  0
 11 12  1  0
  6 13  1  0
  5 14  1  0
  3 15  1  0
 15 16  1  0
 16 17  1  0
 17 18  1  0
 16 19  1  0
 19 20  1  0
 20 21  1  0
 21 22  2  0
 22 23  1  0
 23 24  2  0
 24 25  1  0
 25 26  2  0
 26 27  1  0
 27 28  2  0
 28 29  1  0
 29 30  2  0
 29 31  1  0
 28 32  1  0
 27 33  1  0
 26 34  1  0
 24 35  1  0
 22 36  1  0
 19 37  1  0
 19 38  1  0
 16 39  1  6
 15 40  1  0
 15 41  1  0
  3 42  1  1
 20  2  1  0
 30 21  1  0
 11  4  1  0
 30 25  1  0
M  END
>  <cnnaffinities>  (20) 
[5.57097, 5.99414, 5.66792]

>  <score>  (20) 
5.57097

>  <index>  (20) 
19

>  <Smiles>  (20) 
O=C1[C@@](c2c(c(c(Cl)c(Cl)c2[H])[H])[H])(C([C@](O[H])(C(N1c1c(nc(c2c(c(c(c(c12)[H])[H])[H])[H])[H])[H])([H])[H])[H])([H])[H])[H]

>  <h>  (20) 
<NA>

>  <Training>  (20) 
True

>  <Success>  (20) 
True

>  <enamine_searched>  (20) 
False

>  <enamine_id>  (20) 
nan

$$$$

     RDKit          3D

 66 71  0  0  0  0  0  0  0  0999 V2000
   -7.3550    3.3567  -21.8602 C   0  0  0  0  0  0  0  0  0  0  0  0
   -8.2994    2.8987  -22.8687 N   0  0  0  0  0  0  0  0  0  0  0  0
   -7.7836    2.1885  -23.9152 C   0  0  0  0  0  0  0  0  0  0  0  0
   -6.5825    2.0081  -24.0539 O   0  0  0  0  0  0  0  0  0  0  0  0
   -8.7850    1.6030  -24.9103 C   0  0  0  0  0  0  0  0  0  0  0  0
   -9.4513    0.4561  -24.3187 N   0  0  0  0  0  0  0  0  0  0  0  0
   -8.6975   -0.7804  -24.1575 C   0  0  0  0  0  0  0  0  0  0  0  0
   -9.0827   -1.5267  -22.8542 C   0  0  2  0  0  0  0  0  0  0  0  0
   -8.5328   -0.7661  -21.6162 C   0  0  0  0  0  0  0  0  0  0  0  0
   -8.9865    0.2316  -21.0938 O   0  0  0  0  0  0  0  0  0  0  0  0
   -7.3935   -1.4151  -21.2048 N   0  0  0  0  0  0  0  0  0  0  0  0
   -6.5239   -0.9469  -20.1974 C   0  0  0  0  0  0  0  0  0  0  0  0
   -6.7684   -1.2541  -18.8874 C   0  0  0  0  0  0  0  0  0  0  0  0
   -5.8992   -1.0122  -17.8747 N   0  0  0  0  0  0  0  0  0  0  0  0
   -4.7695   -0.4211  -18.1742 C   0  0  0  0  0  0  0  0  0  0  0  0
   -4.4308    0.0180  -19.4851 C   0  0  0  0  0  0  0  0  0  0  0  0
   -3.2622    0.7734  -19.7452 C   0  0  0  0  0  0  0  0  0  0  0  0
   -3.0507    1.3086  -20.9871 C   0  0  0  0  0  0  0  0  0  0  0  0
   -3.9422    1.0305  -22.0512 C   0  0  0  0  0  0  0  0  0  0  0  0
   -5.0510    0.2486  -21.8356 C   0  0  0  0  0  0  0  0  0  0  0  0
   -5.3279   -0.2533  -20.5383 C   0  0  0  0  0  0  0  0  0  0  0  0
   -5.7215    0.0220  -22.6590 H   0  0  0  0  0  0  0  0  0  0  0  0
   -3.7820    1.4754  -23.0267 H   0  0  0  0  0  0  0  0  0  0  0  0
   -2.1961    1.9553  -21.1602 H   0  0  0  0  0  0  0  0  0  0  0  0
   -2.5993    0.9648  -18.9080 H   0  0  0  0  0  0  0  0  0  0  0  0
   -4.0504   -0.2426  -17.3727 H   0  0  0  0  0  0  0  0  0  0  0  0
   -7.6988   -1.7621  -18.6392 H   0  0  0  0  0  0  0  0  0  0  0  0
   -7.0455   -2.5834  -21.9708 C   0  0  0  0  0  0  0  0  0  0  0  0
   -8.3326   -2.8940  -22.7388 C   0  0  2  0  0  0  0  0  0  0  0  0
   -8.0516   -3.6768  -24.0309 C   0  0  0  0  0  0  0  0  0  0  0  0
   -7.4875   -5.0565  -23.7639 C   0  0  0  0  0  0  0  0  0  0  0  0
   -6.1095   -5.2981  -23.7593 C   0  0  0  0  0  0  0  0  0  0  0  0
   -5.6072   -6.5676  -23.4841 C   0  0  0  0  0  0  0  0  0  0  0  0
   -6.4766   -7.6164  -23.2020 C   0  0  0  0  0  0  0  0  0  0  0  0
   -7.8495   -7.3918  -23.2072 C   0  0  0  0  0  0  0  0  0  0  0  0
   -8.3471   -6.1224  -23.4849 C   0  0  0  0  0  0  0  0  0  0  0  0
   -9.4237   -5.9568  -23.4924 H   0  0  0  0  0  0  0  0  0  0  0  0
   -8.5362   -8.2096  -23.0041 H   0  0  0  0  0  0  0  0  0  0  0  0
   -6.0847   -8.6061  -22.9827 H   0  0  0  0  0  0  0  0  0  0  0  0
   -4.5342   -6.7447  -23.4968 H   0  0  0  0  0  0  0  0  0  0  0  0
   -5.4136   -4.4876  -23.9752 H   0  0  0  0  0  0  0  0  0  0  0  0
   -8.9797   -3.7634  -24.6101 H   0  0  0  0  0  0  0  0  0  0  0  0
   -7.3414   -3.1043  -24.6413 H   0  0  0  0  0  0  0  0  0  0  0  0
   -8.9397   -3.5355  -22.0959 H   0  0  0  0  0  0  0  0  0  0  0  0
   -6.7658   -3.3936  -21.2907 H   0  0  0  0  0  0  0  0  0  0  0  0
   -6.1936   -2.4085  -22.6526 H   0  0  0  0  0  0  0  0  0  0  0  0
  -10.5950   -1.6048  -22.7892 C   0  0  0  0  0  0  0  0  0  0  0  0
  -11.2221   -2.5384  -21.9592 C   0  0  0  0  0  0  0  0  0  0  0  0
  -12.5997   -2.5648  -21.8575 C   0  0  0  0  0  0  0  0  0  0  0  0
  -13.3343   -3.7021  -20.7721 Cl  0  0  0  0  0  0  0  0  0  0  0  0
  -13.4120   -1.6897  -22.5747 C   0  0  0  0  0  0  0  0  0  0  0  0
  -12.7975   -0.7459  -23.3699 C   0  0  0  0  0  0  0  0  0  0  0  0
  -11.4077   -0.6783  -23.4546 C   0  0  0  0  0  0  0  0  0  0  0  0
  -10.8156    0.4612  -24.2257 C   0  0  0  0  0  0  0  0  0  0  0  0
  -11.5075    1.3481  -24.7098 O   0  0  0  0  0  0  0  0  0  0  0  0
  -13.3739   -0.0178  -23.9252 H   0  0  0  0  0  0  0  0  0  0  0  0
  -14.4924   -1.7359  -22.4829 H   0  0  0  0  0  0  0  0  0  0  0  0
  -10.6533   -3.2422  -21.3634 H   0  0  0  0  0  0  0  0  0  0  0  0
   -7.6260   -0.5499  -24.1649 H   0  0  0  0  0  0  0  0  0  0  0  0
   -8.8991   -1.4443  -25.0089 H   0  0  0  0  0  0  0  0  0  0  0  0
   -8.2354    1.3006  -25.8101 H   0  0  0  0  0  0  0  0  0  0  0  0
   -9.5549    2.3259  -25.2025 H   0  0  0  0  0  0  0  0  0  0  0  0
   -9.2498    2.7247  -22.5594 H   0  0  0  0  0  0  0  0  0  0  0  0
   -7.9008    3.8375  -21.0462 H   0  0  0  0  0  0  0  0  0  0  0  0
   -6.6833    4.1078  -22.2876 H   0  0  0  0  0  0  0  0  0  0  0  0
   -6.7562    2.5070  -21.4920 H   0  0  0  0  0  0  0  0  0  0  0  0
  1  2  1  0
  2  3  1  0
  3  4  2  0
  3  5  1  0
  5  6  1  0
  6  7  1  0
  8  7  1  6
  8  9  1  0
  9 10  2  0
  9 11  1  0
 11 12  1  0
 12 13  2  0
 13 14  1  0
 14 15  2  0
 15 16  1  0
 16 17  2  0
 17 18  1  0
 18 19  2  0
 19 20  1  0
 20 21  2  0
 20 22  1  0
 19 23  1  0
 18 24  1  0
 17 25  1  0
 15 26  1  0
 13 27  1  0
 11 28  1  0
 28 29  1  0
 29 30  1  0
 30 31  1  0
 31 32  2  0
 32 33  1  0
 33 34  2  0
 34 35  1  0
 35 36  2  0
 36 37  1  0
 35 38  1  0
 34 39  1  0
 33 40  1  0
 32 41  1  0
 30 42  1  0
 30 43  1  0
 29 44  1  1
 28 45  1  0
 28 46  1  0
  8 47  1  0
 47 48  2  0
 48 49  1  0
 49 50  1  0
 49 51  2  0
 51 52  1  0
 52 53  2  0
 53 54  1  0
 54 55  2  0
 52 56  1  0
 51 57  1  0
 48 58  1  0
  7 59  1  0
  7 60  1  0
  5 61  1  0
  5 62  1  0
  2 63  1  0
  1 64  1  0
  1 65  1  0
  1 66  1  0
 54  6  1  0
 29  8  1  0
 36 31  1  0
 53 47  1  0
 21 12  1  0
 21 16  1  0
M  END
>  <cnnaffinities>  (21) 
[7.15815, 7.16395]

>  <score>  (21) 
7.15815

>  <index>  (21) 
20

>  <Smiles>  (21) 
C(N(C(=O)C(N1C([C@@]2(C(=O)N(c3c(nc(c4c(c(c(c(c34)[H])[H])[H])[H])[H])[H])C([C@@]2(C(c2c(c(c(c(c2[H])[H])[H])[H])[H])([H])[H])[H])([H])[H])c2c(c(Cl)c(c(c2C1=O)[H])[H])[H])([H])[H])([H])[H])[H])([H])([H])[H]

>  <h>  (21) 
<NA>

>  <Training>  (21) 
True

>  <Success>  (21) 
True

>  <enamine_searched>  (21) 
False

>  <enamine_id>  (21) 
nan

$$$$

     RDKit          3D

 63 68  0  0  0  0  0  0  0  0999 V2000
   -8.3428   -4.1364  -23.4860 C   0  0  0  0  0  0  0  0  0  0  0  0
   -8.5602   -2.9712  -22.5418 C   0  0  1  0  0  0  0  0  0  0  0  0
   -7.3944   -2.7881  -21.5741 C   0  0  0  0  0  0  0  0  0  0  0  0
   -7.4251   -1.3823  -21.2484 N   0  0  0  0  0  0  0  0  0  0  0  0
   -6.5330   -0.9173  -20.2496 C   0  0  0  0  0  0  0  0  0  0  0  0
   -6.7551   -1.2716  -18.9440 C   0  0  0  0  0  0  0  0  0  0  0  0
   -5.8968   -1.0416  -17.9220 N   0  0  0  0  0  0  0  0  0  0  0  0
   -4.7722   -0.4323  -18.1985 C   0  0  0  0  0  0  0  0  0  0  0  0
   -4.4223    0.0063  -19.5025 C   0  0  0  0  0  0  0  0  0  0  0  0
   -3.2376    0.7480  -19.7324 C   0  0  0  0  0  0  0  0  0  0  0  0
   -2.9761    1.2595  -20.9753 C   0  0  0  0  0  0  0  0  0  0  0  0
   -3.8394    0.9738  -22.0577 C   0  0  0  0  0  0  0  0  0  0  0  0
   -4.9629    0.2139  -21.8683 C   0  0  0  0  0  0  0  0  0  0  0  0
   -5.3175   -0.2359  -20.5677 C   0  0  0  0  0  0  0  0  0  0  0  0
   -5.5897   -0.0539  -22.7104 H   0  0  0  0  0  0  0  0  0  0  0  0
   -3.6131    1.3696  -23.0447 H   0  0  0  0  0  0  0  0  0  0  0  0
   -2.1134    1.8998  -21.1331 H   0  0  0  0  0  0  0  0  0  0  0  0
   -2.6040    0.9637  -18.8755 H   0  0  0  0  0  0  0  0  0  0  0  0
   -4.0696   -0.2535  -17.3787 H   0  0  0  0  0  0  0  0  0  0  0  0
   -7.6694   -1.8082  -18.6926 H   0  0  0  0  0  0  0  0  0  0  0  0
   -8.1615   -0.6194  -22.1326 C   0  0  0  0  0  0  0  0  0  0  0  0
   -8.2678    0.5867  -22.0926 O   0  0  0  0  0  0  0  0  0  0  0  0
   -8.7750   -1.5607  -23.1979 C   0  0  1  0  0  0  0  0  0  0  0  0
   -7.9871   -1.3071  -24.5108 C   0  0  0  0  0  0  0  0  0  0  0  0
   -8.6288   -1.8714  -25.6946 N   0  0  0  0  0  0  0  0  0  0  0  0
   -7.8174   -2.2263  -26.8498 C   0  0  0  0  0  0  0  0  0  0  0  0
   -7.7929   -3.7443  -27.0307 C   0  0  0  0  0  0  0  0  0  0  0  0
   -6.9788   -4.4509  -26.4561 O   0  0  0  0  0  0  0  0  0  0  0  0
   -8.7418   -4.2267  -27.8834 N   0  0  0  0  0  0  0  0  0  0  0  0
   -8.9235   -5.6612  -28.0161 C   0  0  0  0  0  0  0  0  0  0  0  0
   -9.5474   -6.2772  -26.7789 C   0  0  0  0  0  0  0  0  0  0  0  0
   -9.5886   -7.7673  -26.6349 C   0  0  0  0  0  0  0  0  0  0  0  0
   -8.6748   -6.9622  -25.7653 C   0  0  0  0  0  0  0  0  0  0  0  0
   -8.9261   -6.8418  -24.7146 H   0  0  0  0  0  0  0  0  0  0  0  0
   -7.6147   -7.0084  -26.0074 H   0  0  0  0  0  0  0  0  0  0  0  0
   -9.1308   -8.3680  -27.4174 H   0  0  0  0  0  0  0  0  0  0  0  0
  -10.4712   -8.1989  -26.1763 H   0  0  0  0  0  0  0  0  0  0  0  0
  -10.4102   -5.7354  -26.3825 H   0  0  0  0  0  0  0  0  0  0  0  0
   -9.5508   -5.8464  -28.8977 H   0  0  0  0  0  0  0  0  0  0  0  0
   -7.9451   -6.1178  -28.2184 H   0  0  0  0  0  0  0  0  0  0  0  0
   -9.5547   -3.6393  -28.0356 H   0  0  0  0  0  0  0  0  0  0  0  0
   -6.8062   -1.8489  -26.6936 H   0  0  0  0  0  0  0  0  0  0  0  0
   -8.2341   -1.7459  -27.7397 H   0  0  0  0  0  0  0  0  0  0  0  0
   -9.9717   -1.7826  -25.9058 C   0  0  0  0  0  0  0  0  0  0  0  0
  -10.4781   -2.0551  -26.9955 O   0  0  0  0  0  0  0  0  0  0  0  0
  -10.7972   -1.3711  -24.7394 C   0  0  0  0  0  0  0  0  0  0  0  0
  -12.1582   -1.1529  -24.9520 C   0  0  0  0  0  0  0  0  0  0  0  0
  -13.0023   -0.8601  -23.9029 C   0  0  0  0  0  0  0  0  0  0  0  0
  -12.4457   -0.7921  -22.6354 C   0  0  0  0  0  0  0  0  0  0  0  0
  -13.2767   -0.5409  -21.6172 F   0  0  0  0  0  0  0  0  0  0  0  0
  -11.0968   -0.9900  -22.3940 C   0  0  0  0  0  0  0  0  0  0  0  0
  -10.2405   -1.2699  -23.4620 C   0  0  0  0  0  0  0  0  0  0  0  0
  -10.7042   -0.9356  -21.3884 H   0  0  0  0  0  0  0  0  0  0  0  0
  -14.0677   -0.6978  -24.0408 H   0  0  0  0  0  0  0  0  0  0  0  0
  -12.5354   -1.2345  -25.9619 H   0  0  0  0  0  0  0  0  0  0  0  0
   -7.8743   -0.2197  -24.6370 H   0  0  0  0  0  0  0  0  0  0  0  0
   -6.9812   -1.7364  -24.4240 H   0  0  0  0  0  0  0  0  0  0  0  0
   -7.5126   -3.3520  -20.6557 H   0  0  0  0  0  0  0  0  0  0  0  0
   -6.4283   -3.0858  -22.0149 H   0  0  0  0  0  0  0  0  0  0  0  0
   -9.4650   -3.1603  -21.9446 H   0  0  0  0  0  0  0  0  0  0  0  0
   -9.1614   -4.2107  -24.2066 H   0  0  0  0  0  0  0  0  0  0  0  0
   -8.2870   -5.0730  -22.9204 H   0  0  0  0  0  0  0  0  0  0  0  0
   -7.4128   -4.0115  -24.0471 H   0  0  0  0  0  0  0  0  0  0  0  0
  1  2  1  0
  2  3  1  0
  3  4  1  0
  4  5  1  0
  5  6  2  0
  6  7  1  0
  7  8  2  0
  8  9  1  0
  9 10  2  0
 10 11  1  0
 11 12  2  0
 12 13  1  0
 13 14  2  0
 13 15  1  0
 12 16  1  0
 11 17  1  0
 10 18  1  0
  8 19  1  0
  6 20  1  0
  4 21  1  0
 21 22  2  0
 21 23  1  0
 23 24  1  6
 24 25  1  0
 25 26  1  0
 26 27  1  0
 27 28  2  0
 27 29  1  0
 29 30  1  0
 30 31  1  0
 31 32  1  0
 32 33  1  0
 33 34  1  0
 33 35  1  0
 32 36  1  0
 32 37  1  0
 31 38  1  0
 30 39  1  0
 30 40  1  0
 29 41  1  0
 26 42  1  0
 26 43  1  0
 25 44  1  0
 44 45  2  0
 44 46  1  0
 46 47  2  0
 47 48  1  0
 48 49  2  0
 49 50  1  0
 49 51  1  0
 51 52  2  0
 51 53  1  0
 48 54  1  0
 47 55  1  0
 24 56  1  0
 24 57  1  0
  3 58  1  0
  3 59  1  0
  2 60  1  1
  1 61  1  0
  1 62  1  0
  1 63  1  0
 23  2  1  0
 33 31  1  0
 52 46  1  0
 14  5  1  0
 52 23  1  0
 14  9  1  0
M  END
>  <cnnaffinities>  (22) 
[6.17115]

>  <score>  (22) 
6.17115

>  <index>  (22) 
21

>  <Smiles>  (22) 
C([C@]1(C(N(c2c(nc(c3c(c(c(c(c23)[H])[H])[H])[H])[H])[H])C(=O)[C@]21C(N(C(C(=O)N(C(C1(C(C1([H])[H])([H])[H])[H])([H])[H])[H])([H])[H])C(=O)c1c(c(c(F)c(c21)[H])[H])[H])([H])[H])([H])[H])[H])([H])([H])[H]

>  <h>  (22) 
<NA>

>  <Training>  (22) 
True

>  <Success>  (22) 
True

>  <enamine_searched>  (22) 
False

>  <enamine_id>  (22) 
nan

$$$$

     RDKit          3D

 68 73  0  0  0  0  0  0  0  0999 V2000
   -7.3286    3.4096  -21.8588 C   0  0  0  0  0  0  0  0  0  0  0  0
   -8.2870    2.9746  -22.8621 N   0  0  0  0  0  0  0  0  0  0  0  0
   -7.8030    2.2390  -23.9023 C   0  0  0  0  0  0  0  0  0  0  0  0
   -6.6066    2.0094  -24.0406 O   0  0  0  0  0  0  0  0  0  0  0  0
   -8.8266    1.6770  -24.8844 C   0  0  0  0  0  0  0  0  0  0  0  0
   -9.4984    0.5389  -24.2856 N   0  0  0  0  0  0  0  0  0  0  0  0
   -8.7532   -0.7069  -24.1556 C   0  0  0  0  0  0  0  0  0  0  0  0
   -9.1381   -1.4772  -22.8680 C   0  0  2  0  0  0  0  0  0  0  0  0
   -8.5500   -0.7411  -21.6284 C   0  0  0  0  0  0  0  0  0  0  0  0
   -8.9670    0.2709  -21.1014 O   0  0  0  0  0  0  0  0  0  0  0  0
   -7.4251   -1.4237  -21.2304 N   0  0  0  0  0  0  0  0  0  0  0  0
   -6.5367   -0.9751  -20.2225 C   0  0  0  0  0  0  0  0  0  0  0  0
   -6.7743   -1.2807  -18.9115 C   0  0  0  0  0  0  0  0  0  0  0  0
   -5.8904   -1.0627  -17.9055 N   0  0  0  0  0  0  0  0  0  0  0  0
   -4.7570   -0.4788  -18.2032 C   0  0  0  0  0  0  0  0  0  0  0  0
   -4.4262   -0.0291  -19.5099 C   0  0  0  0  0  0  0  0  0  0  0  0
   -3.2548    0.7227  -19.7641 C   0  0  0  0  0  0  0  0  0  0  0  0
   -3.0457    1.2774  -20.9984 C   0  0  0  0  0  0  0  0  0  0  0  0
   -3.9535    1.0270  -22.0566 C   0  0  0  0  0  0  0  0  0  0  0  0
   -5.0591    0.2427  -21.8493 C   0  0  0  0  0  0  0  0  0  0  0  0
   -5.3393   -0.2774  -20.5594 C   0  0  0  0  0  0  0  0  0  0  0  0
   -5.7398    0.0402  -22.6721 H   0  0  0  0  0  0  0  0  0  0  0  0
   -3.7957    1.4864  -23.0281 H   0  0  0  0  0  0  0  0  0  0  0  0
   -2.1889    1.9204  -21.1663 H   0  0  0  0  0  0  0  0  0  0  0  0
   -2.5823    0.8950  -18.9279 H   0  0  0  0  0  0  0  0  0  0  0  0
   -4.0292   -0.3236  -17.4039 H   0  0  0  0  0  0  0  0  0  0  0  0
   -7.7105   -1.7738  -18.6529 H   0  0  0  0  0  0  0  0  0  0  0  0
   -7.1220   -2.5947  -22.0179 C   0  0  0  0  0  0  0  0  0  0  0  0
   -8.4217   -2.8622  -22.7858 C   0  0  2  0  0  0  0  0  0  0  0  0
   -8.1322   -3.6253  -24.0797 C   0  0  0  0  0  0  0  0  0  0  0  0
   -9.3268   -4.0641  -24.7540 N   0  0  0  0  0  0  0  0  0  0  0  0
   -9.2918   -4.6847  -25.9918 C   0  0  0  0  0  0  0  0  0  0  0  0
  -10.4941   -5.0602  -26.6149 C   0  0  0  0  0  0  0  0  0  0  0  0
  -10.5038   -5.6125  -27.8886 C   0  0  0  0  0  0  0  0  0  0  0  0
   -9.3133   -5.8749  -28.5589 C   0  0  0  0  0  0  0  0  0  0  0  0
   -8.1155   -5.5769  -27.9161 C   0  0  0  0  0  0  0  0  0  0  0  0
   -8.0894   -4.9837  -26.6558 C   0  0  0  0  0  0  0  0  0  0  0  0
   -7.1269   -4.7647  -26.1956 H   0  0  0  0  0  0  0  0  0  0  0  0
   -7.1760   -5.8173  -28.4085 H   0  0  0  0  0  0  0  0  0  0  0  0
   -9.3169   -6.3199  -29.5527 H   0  0  0  0  0  0  0  0  0  0  0  0
  -11.4501   -5.8490  -28.3706 H   0  0  0  0  0  0  0  0  0  0  0  0
  -11.4224   -4.9587  -26.0670 H   0  0  0  0  0  0  0  0  0  0  0  0
  -10.2214   -3.7093  -24.4508 H   0  0  0  0  0  0  0  0  0  0  0  0
   -7.5275   -4.5057  -23.8204 H   0  0  0  0  0  0  0  0  0  0  0  0
   -7.5018   -2.9980  -24.7357 H   0  0  0  0  0  0  0  0  0  0  0  0
   -9.0415   -3.5100  -22.1598 H   0  0  0  0  0  0  0  0  0  0  0  0
   -6.8560   -3.4212  -21.3519 H   0  0  0  0  0  0  0  0  0  0  0  0
   -6.2728   -2.4273  -22.7029 H   0  0  0  0  0  0  0  0  0  0  0  0
  -10.6509   -1.5284  -22.7700 C   0  0  0  0  0  0  0  0  0  0  0  0
  -11.2764   -2.4509  -21.9249 C   0  0  0  0  0  0  0  0  0  0  0  0
  -12.6507   -2.4476  -21.7805 C   0  0  0  0  0  0  0  0  0  0  0  0
  -13.3798   -3.5805  -20.6857 Cl  0  0  0  0  0  0  0  0  0  0  0  0
  -13.4589   -1.5357  -22.4567 C   0  0  0  0  0  0  0  0  0  0  0  0
  -12.8459   -0.5995  -23.2629 C   0  0  0  0  0  0  0  0  0  0  0  0
  -11.4593   -0.5726  -23.4012 C   0  0  0  0  0  0  0  0  0  0  0  0
  -10.8614    0.5654  -24.1697 C   0  0  0  0  0  0  0  0  0  0  0  0
  -11.5473    1.4693  -24.6284 O   0  0  0  0  0  0  0  0  0  0  0  0
  -13.4170    0.1605  -23.7817 H   0  0  0  0  0  0  0  0  0  0  0  0
  -14.5345   -1.5418  -22.3185 H   0  0  0  0  0  0  0  0  0  0  0  0
  -10.7083   -3.1534  -21.3272 H   0  0  0  0  0  0  0  0  0  0  0  0
   -7.6809   -0.4797  -24.1502 H   0  0  0  0  0  0  0  0  0  0  0  0
   -8.9518   -1.3430  -25.0288 H   0  0  0  0  0  0  0  0  0  0  0  0
   -8.3043    1.3662  -25.7966 H   0  0  0  0  0  0  0  0  0  0  0  0
   -9.5929    2.4088  -25.1561 H   0  0  0  0  0  0  0  0  0  0  0  0
   -9.2365    2.8124  -22.5506 H   0  0  0  0  0  0  0  0  0  0  0  0
   -6.7445    2.5464  -21.5067 H   0  0  0  0  0  0  0  0  0  0  0  0
   -7.8593    3.8926  -21.0372 H   0  0  0  0  0  0  0  0  0  0  0  0
   -6.6432    4.1477  -22.2842 H   0  0  0  0  0  0  0  0  0  0  0  0
  1  2  1  0
  2  3  1  0
  3  4  2  0
  3  5  1  0
  5  6  1  0
  6  7  1  0
  8  7  1  6
  8  9  1  0
  9 10  2  0
  9 11  1  0
 11 12  1  0
 12 13  2  0
 13 14  1  0
 14 15  2  0
 15 16  1  0
 16 17  2  0
 17 18  1  0
 18 19  2  0
 19 20  1  0
 20 21  2  0
 20 22  1  0
 19 23  1  0
 18 24  1  0
 17 25  1  0
 15 26  1  0
 13 27  1  0
 11 28  1  0
 28 29  1  0
 29 30  1  0
 30 31  1  0
 31 32  1  0
 32 33  2  0
 33 34  1  0
 34 35  2  0
 35 36  1  0
 36 37  2  0
 37 38  1  0
 36 39  1  0
 35 40  1  0
 34 41  1  0
 33 42  1  0
 31 43  1  0
 30 44  1  0
 30 45  1  0
 29 46  1  1
 28 47  1  0
 28 48  1  0
  8 49  1  0
 49 50  2  0
 50 51  1  0
 51 52  1  0
 51 53  2  0
 53 54  1  0
 54 55  2  0
 55 56  1  0
 56 57  2  0
 54 58  1  0
 53 59  1  0
 50 60  1  0
  7 61  1  0
  7 62  1  0
  5 63  1  0
  5 64  1  0
  2 65  1  0
  1 66  1  0
  1 67  1  0
  1 68  1  0
 56  6  1  0
 29  8  1  0
 37 32  1  0
 55 49  1  0
 21 12  1  0
 21 16  1  0
M  END
>  <cnnaffinities>  (23) 
[6.5237, 7.18843]

>  <score>  (23) 
6.5237

>  <index>  (23) 
23

>  <Smiles>  (23) 
C(N(C(=O)C(N1C([C@@]2(C(=O)N(c3c(nc(c4c(c(c(c(c34)[H])[H])[H])[H])[H])[H])C([C@@]2(C(N(c2c(c(c(c(c2[H])[H])[H])[H])[H])[H])([H])[H])[H])([H])[H])c2c(c(Cl)c(c(c2C1=O)[H])[H])[H])([H])[H])([H])[H])[H])([H])([H])[H]

>  <h>  (23) 
<NA>

>  <Training>  (23) 
True

>  <Success>  (23) 
True

>  <enamine_searched>  (23) 
False

>  <enamine_id>  (23) 
nan

$$$$

     RDKit          3D

 65 70  0  0  0  0  0  0  0  0999 V2000
  -12.8041   -2.1065  -22.1891 O   0  0  0  0  0  0  0  0  0  0  0  0
  -12.6628   -3.2875  -22.4677 C   0  0  0  0  0  0  0  0  0  0  0  0
  -11.5679   -3.8182  -23.4059 C   0  0  0  0  0  0  0  0  0  0  0  0
  -10.6080   -4.6882  -22.6171 N   0  0  1  0  0  4  0  0  0  0  0  0
   -9.7524   -5.5891  -23.4786 C   0  0  0  0  0  0  0  0  0  0  0  0
   -8.6578   -4.8528  -24.2199 C   0  0  0  0  0  0  0  0  0  0  0  0
   -8.0767   -5.4360  -25.3445 C   0  0  0  0  0  0  0  0  0  0  0  0
   -7.0574   -4.8053  -26.0449 C   0  0  0  0  0  0  0  0  0  0  0  0
   -6.6229   -3.5587  -25.6105 C   0  0  0  0  0  0  0  0  0  0  0  0
   -5.3373   -2.7549  -26.4669 Cl  0  0  0  0  0  0  0  0  0  0  0  0
   -7.1836   -2.9647  -24.4929 C   0  0  0  0  0  0  0  0  0  0  0  0
   -8.1955   -3.6137  -23.7736 C   0  0  0  0  0  0  0  0  0  0  0  0
   -8.6843   -2.9669  -22.4885 C   0  0  2  0  0  0  0  0  0  0  0  0
   -9.2381   -1.5289  -22.6805 C   0  0  0  0  0  0  0  0  0  0  0  0
   -8.3845   -0.5744  -21.8169 C   0  0  0  0  0  0  0  0  0  0  0  0
   -7.4055   -1.4468  -21.1887 N   0  0  0  0  0  0  0  0  0  0  0  0
   -6.4653   -1.0571  -20.1990 C   0  0  0  0  0  0  0  0  0  0  0  0
   -6.6255   -1.4671  -18.8985 C   0  0  0  0  0  0  0  0  0  0  0  0
   -5.7695   -1.1630  -17.8930 N   0  0  0  0  0  0  0  0  0  0  0  0
   -4.7075   -0.4567  -18.1872 C   0  0  0  0  0  0  0  0  0  0  0  0
   -4.3968   -0.0057  -19.5005 C   0  0  0  0  0  0  0  0  0  0  0  0
   -3.1932    0.6893  -19.7821 C   0  0  0  0  0  0  0  0  0  0  0  0
   -2.9115    1.0935  -21.0578 C   0  0  0  0  0  0  0  0  0  0  0  0
   -3.8330    0.8485  -22.1003 C   0  0  0  0  0  0  0  0  0  0  0  0
   -5.0093    0.1871  -21.8495 C   0  0  0  0  0  0  0  0  0  0  0  0
   -5.3134   -0.2777  -20.5405 C   0  0  0  0  0  0  0  0  0  0  0  0
   -5.7094    0.0023  -22.6604 H   0  0  0  0  0  0  0  0  0  0  0  0
   -3.6083    1.1876  -23.1077 H   0  0  0  0  0  0  0  0  0  0  0  0
   -1.9817    1.6095  -21.2766 H   0  0  0  0  0  0  0  0  0  0  0  0
   -2.5210    0.9016  -18.9564 H   0  0  0  0  0  0  0  0  0  0  0  0
   -4.0214   -0.2172  -17.3731 H   0  0  0  0  0  0  0  0  0  0  0  0
   -7.4804   -2.0788  -18.6150 H   0  0  0  0  0  0  0  0  0  0  0  0
   -7.4802   -2.7625  -21.5662 C   0  0  0  0  0  0  0  0  0  0  0  0
   -6.6966   -3.6263  -21.2293 O   0  0  0  0  0  0  0  0  0  0  0  0
   -7.9005    0.1979  -22.4274 H   0  0  0  0  0  0  0  0  0  0  0  0
   -8.9772   -0.0586  -21.0531 H   0  0  0  0  0  0  0  0  0  0  0  0
  -10.2918   -1.4771  -22.3808 H   0  0  0  0  0  0  0  0  0  0  0  0
   -9.1954   -1.2434  -23.7357 H   0  0  0  0  0  0  0  0  0  0  0  0
   -9.6673   -3.8693  -21.7155 C   0  0  0  0  0  0  0  0  0  0  0  0
  -10.2816   -3.2714  -21.0423 H   0  0  0  0  0  0  0  0  0  0  0  0
   -9.1000   -4.5884  -21.1277 H   0  0  0  0  0  0  0  0  0  0  0  0
   -6.8162   -1.9965  -24.1624 H   0  0  0  0  0  0  0  0  0  0  0  0
   -6.6028   -5.2701  -26.9140 H   0  0  0  0  0  0  0  0  0  0  0  0
   -8.4258   -6.4106  -25.6795 H   0  0  0  0  0  0  0  0  0  0  0  0
  -10.3921   -6.1146  -24.1915 H   0  0  0  0  0  0  0  0  0  0  0  0
   -9.3191   -6.3475  -22.8228 H   0  0  0  0  0  0  0  0  0  0  0  0
  -11.1884   -5.2802  -21.9873 H   0  0  0  0  0  0  0  0  0  0  0  0
  -11.0298   -3.0099  -23.8861 H   0  0  0  0  0  0  0  0  0  0  0  0
  -11.9984   -4.4476  -24.1895 H   0  0  0  0  0  0  0  0  0  0  0  0
  -13.4372   -4.2834  -21.9497 N   0  0  0  0  0  0  0  0  0  0  0  0
  -14.5876   -4.0209  -21.0911 C   0  0  0  0  0  0  0  0  0  0  0  0
  -15.1086   -5.3402  -20.5322 C   0  0  1  0  0  0  0  0  0  0  0  0
  -14.3825   -6.1842  -19.5636 C   0  0  0  0  0  0  0  0  0  0  0  0
  -16.3110   -5.9146  -19.7822 C   0  0  1  0  0  0  0  0  0  0  0  0
  -15.8164   -3.7898  -18.0506 F   0  0  0  0  0  0  0  0  0  0  0  0
  -16.3434   -5.8223  -19.6212 C   0  0  0  0  0  0  0  0  0  0  0  0
  -16.2412   -4.5316  -18.4778 H   0  0  0  0  0  0  0  0  0  0  0  0
  -17.5199   -5.9053  -19.9984 H   0  0  0  0  0  0  0  0  0  0  0  0
  -16.4148   -7.0457  -19.2866 H   0  0  0  0  0  0  0  0  0  0  0  0
  -13.6160   -5.7812  -18.8565 H   0  0  0  0  0  0  0  0  0  0  0  0
  -14.1444   -7.1910  -19.9304 H   0  0  0  0  0  0  0  0  0  0  0  0
  -15.4172   -6.0559  -21.3089 H   0  0  0  0  0  0  0  0  0  0  0  0
  -15.2880   -3.4115  -21.6834 H   0  0  0  0  0  0  0  0  0  0  0  0
  -14.2258   -3.3217  -20.3186 H   0  0  0  0  0  0  0  0  0  0  0  0
  -13.2567   -5.2200  -22.2801 H   0  0  0  0  0  0  0  0  0  0  0  0
  1  2  2  0
  2  3  1  0
  3  4  1  0
  4  5  1  0
  5  6  1  0
  6  7  2  0
  7  8  1  0
  8  9  2  0
  9 10  1  0
  9 11  1  0
 11 12  2  0
 12 13  1  0
 13 14  1  6
 14 15  1  0
 15 16  1  0
 16 17  1  0
 17 18  2  0
 18 19  1  0
 19 20  2  0
 20 21  1  0
 21 22  2  0
 22 23  1  0
 23 24  2  0
 24 25  1  0
 25 26  2  0
 25 27  1  0
 24 28  1  0
 23 29  1  0
 22 30  1  0
 20 31  1  0
 18 32  1  0
 16 33  1  0
 33 34  2  0
 15 35  1  0
 15 36  1  0
 14 37  1  0
 14 38  1  0
 13 39  1  0
 39 40  1  0
 39 41  1  0
 11 42  1  0
  8 43  1  0
  7 44  1  0
  5 45  1  0
  5 46  1  0
  4 47  1  1
  3 48  1  0
  3 49  1  0
  2 50  1  0
 50 51  1  0
 51 52  1  0
 52 53  1  0
 53 54  1  0
 54 55  1  0
 54 56  1  0
 56 57  1  0
 56 58  1  0
 54 59  1  1
 53 60  1  0
 53 61  1  0
 52 62  1  6
 51 63  1  0
 51 64  1  0
 50 65  1  0
 39  4  1  0
 56 52  1  0
 12  6  1  0
 33 13  1  0
 26 17  1  0
 26 21  1  0
M  CHG  1   4   1
M  END
>  <cnnaffinities>  (24) 
[6.76264]

>  <score>  (24) 
6.76264

>  <index>  (24) 
24

>  <Smiles>  (24) 
O=C(C([N@+]1(C(c2c(c(c(Cl)c(c2[C@@]2(C(C(N(c3c(nc(c4c(c(c(c(c34)[H])[H])[H])[H])[H])[H])C2=O)([H])[H])([H])[H])C1([H])[H])[H])[H])[H])([H])[H])[H])([H])[H])N(C([C@]1(C([C@@](F)(C1([H])[H])[H])([H])[H])[H])([H])[H])[H]

>  <h>  (24) 
<NA>

>  <Training>  (24) 
True

>  <Success>  (24) 
True

>  <enamine_searched>  (24) 
False

>  <enamine_id>  (24) 
nan

$$$$

     RDKit          3D

 70 75  0  0  0  0  0  0  0  0999 V2000
   -8.1735   -7.0627  -23.9252 O   0  0  0  0  0  0  0  0  0  0  0  0
   -8.0718   -6.3096  -22.9713 C   0  0  0  0  0  0  0  0  0  0  0  0
   -9.1670   -5.3258  -22.5643 C   0  0  0  0  0  0  0  0  0  0  0  0
   -8.7715   -3.9089  -22.8518 N   0  0  1  0  0  4  0  0  0  0  0  0
   -8.4194   -3.7326  -24.3314 C   0  0  0  0  0  0  0  0  0  0  0  0
   -8.1333   -2.2960  -24.6861 C   0  0  0  0  0  0  0  0  0  0  0  0
   -7.3409   -1.9930  -25.7933 C   0  0  0  0  0  0  0  0  0  0  0  0
   -7.0617   -0.6798  -26.1477 C   0  0  0  0  0  0  0  0  0  0  0  0
   -7.5764    0.3473  -25.3637 C   0  0  0  0  0  0  0  0  0  0  0  0
   -7.2229    2.0025  -25.7689 Cl  0  0  0  0  0  0  0  0  0  0  0  0
   -8.3565    0.0704  -24.2524 C   0  0  0  0  0  0  0  0  0  0  0  0
   -8.6529   -1.2545  -23.9222 C   0  0  0  0  0  0  0  0  0  0  0  0
   -9.4339   -1.4948  -22.6530 C   0  0  2  0  0  0  0  0  0  0  0  0
   -8.6400   -0.9903  -21.4495 C   0  0  0  0  0  0  0  0  0  0  0  0
   -9.0666   -0.1364  -20.6975 O   0  0  0  0  0  0  0  0  0  0  0  0
   -7.4132   -1.5926  -21.2671 N   0  0  0  0  0  0  0  0  0  0  0  0
   -6.5060   -1.1462  -20.2734 C   0  0  0  0  0  0  0  0  0  0  0  0
   -6.7303   -1.4579  -18.9569 C   0  0  0  0  0  0  0  0  0  0  0  0
   -5.8425   -1.2355  -17.9577 N   0  0  0  0  0  0  0  0  0  0  0  0
   -4.7229   -0.6266  -18.2560 C   0  0  0  0  0  0  0  0  0  0  0  0
   -4.4119   -0.1465  -19.5597 C   0  0  0  0  0  0  0  0  0  0  0  0
   -3.2306    0.5991  -19.8056 C   0  0  0  0  0  0  0  0  0  0  0  0
   -2.9920    1.1387  -21.0401 C   0  0  0  0  0  0  0  0  0  0  0  0
   -3.9277    0.9406  -22.0818 C   0  0  0  0  0  0  0  0  0  0  0  0
   -5.0519    0.1708  -21.8864 C   0  0  0  0  0  0  0  0  0  0  0  0
   -5.3279   -0.3899  -20.6067 C   0  0  0  0  0  0  0  0  0  0  0  0
   -5.7320   -0.0209  -22.7113 H   0  0  0  0  0  0  0  0  0  0  0  0
   -3.7680    1.4237  -23.0446 H   0  0  0  0  0  0  0  0  0  0  0  0
   -2.0939    1.7253  -21.2223 H   0  0  0  0  0  0  0  0  0  0  0  0
   -2.5520    0.7703  -18.9763 H   0  0  0  0  0  0  0  0  0  0  0  0
   -3.9994   -0.4712  -17.4545 H   0  0  0  0  0  0  0  0  0  0  0  0
   -7.6583   -1.9399  -18.6595 H   0  0  0  0  0  0  0  0  0  0  0  0
   -6.9984   -2.0455  -22.0690 H   0  0  0  0  0  0  0  0  0  0  0  0
   -9.8671   -2.9504  -22.4546 C   0  0  0  0  0  0  0  0  0  0  0  0
  -10.1326   -3.1231  -21.4077 H   0  0  0  0  0  0  0  0  0  0  0  0
  -10.7357   -3.1886  -23.0792 H   0  0  0  0  0  0  0  0  0  0  0  0
  -10.3324   -0.8839  -22.6529 H   0  0  0  0  0  0  0  0  0  0  0  0
   -8.7408    0.8753  -23.6317 H   0  0  0  0  0  0  0  0  0  0  0  0
   -6.4429   -0.4488  -27.0088 H   0  0  0  0  0  0  0  0  0  0  0  0
   -6.9436   -2.8027  -26.3972 H   0  0  0  0  0  0  0  0  0  0  0  0
   -9.2619   -4.1162  -24.9164 H   0  0  0  0  0  0  0  0  0  0  0  0
   -7.5586   -4.3606  -24.5640 H   0  0  0  0  0  0  0  0  0  0  0  0
   -7.9315   -3.7047  -22.2762 H   0  0  0  0  0  0  0  0  0  0  0  0
  -10.0715   -5.5889  -23.1161 H   0  0  0  0  0  0  0  0  0  0  0  0
   -9.3772   -5.4126  -21.4936 H   0  0  0  0  0  0  0  0  0  0  0  0
   -6.9545   -6.2404  -22.1837 N   0  0  0  0  0  0  0  0  0  0  0  0
   -5.7551   -6.9234  -22.4647 C   0  0  0  0  0  0  0  0  0  0  0  0
   -4.9791   -7.4083  -21.4179 C   0  0  0  0  0  0  0  0  0  0  0  0
   -3.7758   -8.0208  -21.7053 C   0  0  0  0  0  0  0  0  0  0  0  0
   -3.2981   -8.1240  -23.0072 C   0  0  0  0  0  0  0  0  0  0  0  0
   -2.0599   -8.7681  -23.2442 N   0  0  0  0  0  0  0  0  0  0  0  0
   -1.0690   -8.7806  -22.1699 C   0  0  0  0  0  0  0  0  0  0  0  0
    0.2809   -9.1529  -22.7469 C   0  0  0  0  0  0  0  0  0  0  0  0
    0.1957  -10.4301  -23.3338 O   0  0  0  0  0  0  0  0  0  0  0  0
   -0.6708  -10.4404  -24.4376 C   0  0  0  0  0  0  0  0  0  0  0  0
   -1.9766   -9.6724  -24.2766 C   0  0  0  0  0  0  0  0  0  0  0  0
   -2.8835   -9.8767  -25.0670 O   0  0  0  0  0  0  0  0  0  0  0  0
   -0.9506  -11.4771  -24.6167 H   0  0  0  0  0  0  0  0  0  0  0  0
   -0.1774  -10.0718  -25.3500 H   0  0  0  0  0  0  0  0  0  0  0  0
    1.0329   -9.2101  -21.9596 H   0  0  0  0  0  0  0  0  0  0  0  0
    0.6093   -8.4008  -23.4788 H   0  0  0  0  0  0  0  0  0  0  0  0
   -1.0301   -7.7867  -21.7165 H   0  0  0  0  0  0  0  0  0  0  0  0
   -1.3399   -9.5176  -21.3975 H   0  0  0  0  0  0  0  0  0  0  0  0
   -4.0757   -7.6278  -24.0500 C   0  0  0  0  0  0  0  0  0  0  0  0
   -5.3120   -7.0712  -23.7787 C   0  0  0  0  0  0  0  0  0  0  0  0
   -5.9520   -6.7673  -24.5974 H   0  0  0  0  0  0  0  0  0  0  0  0
   -3.7359   -7.6968  -25.0750 H   0  0  0  0  0  0  0  0  0  0  0  0
   -3.2219   -8.5006  -20.9032 H   0  0  0  0  0  0  0  0  0  0  0  0
   -5.3050   -7.3126  -20.3853 H   0  0  0  0  0  0  0  0  0  0  0  0
   -6.9988   -5.7175  -21.3211 H   0  0  0  0  0  0  0  0  0  0  0  0
  1  2  2  0
  2  3  1  0
  3  4  1  0
  4  5  1  0
  5  6  1  0
  6  7  2  0
  7  8  1  0
  8  9  2  0
  9 10  1  0
  9 11  1  0
 11 12  2  0
 12 13  1  0
 13 14  1  0
 14 15  2  0
 14 16  1  0
 16 17  1  0
 17 18  2  0
 18 19  1  0
 19 20  2  0
 20 21  1  0
 21 22  2  0
 22 23  1  0
 23 24  2  0
 24 25  1  0
 25 26  2  0
 25 27  1  0
 24 28  1  0
 23 29  1  0
 22 30  1  0
 20 31  1  0
 18 32  1  0
 16 33  1  0
 13 34  1  0
 34 35  1  0
 34 36  1  0
 13 37  1  6
 11 38  1  0
  8 39  1  0
  7 40  1  0
  5 41  1  0
  5 42  1  0
  4 43  1  1
  3 44  1  0
  3 45  1  0
  2 46  1  0
 46 47  1  0
 47 48  2  0
 48 49  1  0
 49 50  2  0
 50 51  1  0
 51 52  1  0
 52 53  1  0
 53 54  1  0
 54 55  1  0
 55 56  1  0
 56 57  2  0
 55 58  1  0
 55 59  1  0
 53 60  1  0
 53 61  1  0
 52 62  1  0
 52 63  1  0
 50 64  1  0
 64 65  2  0
 65 66  1  0
 64 67  1  0
 49 68  1  0
 48 69  1  0
 46 70  1  0
 34  4  1  0
 65 47  1  0
 12  6  1  0
 26 17  1  0
 56 51  1  0
 26 21  1  0
M  CHG  1   4   1
M  END
>  <cnnaffinities>  (25) 
[6.37965, 6.40686]

>  <score>  (25) 
6.37965

>  <index>  (25) 
25

>  <Smiles>  (25) 
O=C(C([N@+]1(C(c2c(c(c(Cl)c(c2[C@](C(=O)N(c2c(nc(c3c(c(c(c(c23)[H])[H])[H])[H])[H])[H])[H])(C1([H])[H])[H])[H])[H])[H])([H])[H])[H])([H])[H])N(c1c(c(c(N2C(C(OC(C2=O)([H])[H])([H])[H])([H])[H])c(c1[H])[H])[H])[H])[H]

>  <h>  (25) 
<NA>

>  <Training>  (25) 
True

>  <Success>  (25) 
True

>  <enamine_searched>  (25) 
False

>  <enamine_id>  (25) 
nan

$$$$

     RDKit          3D

 55 60  0  0  0  0  0  0  0  0999 V2000
   -8.6176   -4.2122  -23.7327 C   0  0  0  0  0  0  0  0  0  0  0  0
   -8.6391   -3.3060  -22.5098 C   0  0  1  0  0  0  0  0  0  0  0  0
   -7.2508   -2.7954  -22.1189 C   0  0  0  0  0  0  0  0  0  0  0  0
   -7.5727   -1.7082  -21.2199 N   0  0  0  0  0  0  0  0  0  0  0  0
   -6.6753   -1.2755  -20.2076 C   0  0  0  0  0  0  0  0  0  0  0  0
   -6.8258   -1.6697  -18.9008 C   0  0  0  0  0  0  0  0  0  0  0  0
   -5.9093   -1.4567  -17.9231 N   0  0  0  0  0  0  0  0  0  0  0  0
   -4.8022   -0.8397  -18.2485 C   0  0  0  0  0  0  0  0  0  0  0  0
   -4.5067   -0.3838  -19.5635 C   0  0  0  0  0  0  0  0  0  0  0  0
   -3.2690    0.2364  -19.8900 C   0  0  0  0  0  0  0  0  0  0  0  0
   -3.0360    0.6939  -21.1600 C   0  0  0  0  0  0  0  0  0  0  0  0
   -4.0477    0.6027  -22.1441 C   0  0  0  0  0  0  0  0  0  0  0  0
   -5.2576    0.0227  -21.8397 C   0  0  0  0  0  0  0  0  0  0  0  0
   -5.4927   -0.5483  -20.5600 C   0  0  0  0  0  0  0  0  0  0  0  0
   -6.0752    0.0438  -22.5532 H   0  0  0  0  0  0  0  0  0  0  0  0
   -3.8739    1.0103  -23.1393 H   0  0  0  0  0  0  0  0  0  0  0  0
   -2.0858    1.1602  -21.4143 H   0  0  0  0  0  0  0  0  0  0  0  0
   -2.5223    0.3540  -19.1071 H   0  0  0  0  0  0  0  0  0  0  0  0
   -4.0724   -0.6725  -17.4557 H   0  0  0  0  0  0  0  0  0  0  0  0
   -7.7184   -2.2140  -18.6080 H   0  0  0  0  0  0  0  0  0  0  0  0
   -8.8315   -1.1735  -21.4327 C   0  0  0  0  0  0  0  0  0  0  0  0
   -9.2638   -0.1891  -20.8840 O   0  0  0  0  0  0  0  0  0  0  0  0
   -9.5369   -2.0355  -22.5341 C   0  0  1  0  0  0  0  0  0  0  0  0
   -9.4428   -1.2538  -23.8570 C   0  0  0  0  0  0  0  0  0  0  0  0
  -10.2553   -0.0534  -23.7931 N   0  0  0  0  0  0  0  0  0  0  0  0
   -9.8563    0.9904  -24.7096 C   0  0  0  0  0  0  0  0  0  0  0  0
  -10.0861    0.5734  -26.1312 C   0  0  0  0  0  0  0  0  0  0  0  0
  -11.1693   -0.1142  -26.6996 C   0  0  0  0  0  0  0  0  0  0  0  0
  -10.9559   -0.2677  -27.9986 N   0  0  0  0  0  0  0  0  0  0  0  0
   -9.7633    0.2802  -28.1620 N   0  0  0  0  0  0  0  0  0  0  0  0
   -9.1992    0.8046  -27.0852 N   0  0  0  0  0  0  0  0  0  0  0  0
   -9.3797    0.4353  -29.0805 H   0  0  0  0  0  0  0  0  0  0  0  0
  -12.0704   -0.4659  -26.2270 H   0  0  0  0  0  0  0  0  0  0  0  0
   -8.7886    1.1873  -24.5515 H   0  0  0  0  0  0  0  0  0  0  0  0
  -10.4350    1.8830  -24.4506 H   0  0  0  0  0  0  0  0  0  0  0  0
  -11.5856   -0.1290  -23.4707 C   0  0  0  0  0  0  0  0  0  0  0  0
  -12.3936    0.7345  -23.7909 O   0  0  0  0  0  0  0  0  0  0  0  0
  -11.9860   -1.3592  -22.7296 C   0  0  0  0  0  0  0  0  0  0  0  0
  -13.3502   -1.5643  -22.5121 C   0  0  0  0  0  0  0  0  0  0  0  0
  -13.7889   -2.6010  -21.7141 C   0  0  0  0  0  0  0  0  0  0  0  0
  -12.8189   -3.4294  -21.1715 C   0  0  0  0  0  0  0  0  0  0  0  0
  -13.2161   -4.3274  -20.2570 F   0  0  0  0  0  0  0  0  0  0  0  0
  -11.4826   -3.3429  -21.5100 C   0  0  0  0  0  0  0  0  0  0  0  0
  -11.0203   -2.2716  -22.2791 C   0  0  0  0  0  0  0  0  0  0  0  0
  -10.8021   -4.0612  -21.0733 H   0  0  0  0  0  0  0  0  0  0  0  0
  -14.8390   -2.7879  -21.5212 H   0  0  0  0  0  0  0  0  0  0  0  0
  -14.0505   -0.8639  -22.9504 H   0  0  0  0  0  0  0  0  0  0  0  0
   -8.4186   -0.9404  -24.0578 H   0  0  0  0  0  0  0  0  0  0  0  0
   -9.7397   -1.8909  -24.7008 H   0  0  0  0  0  0  0  0  0  0  0  0
   -6.6840   -2.4588  -23.0033 H   0  0  0  0  0  0  0  0  0  0  0  0
   -6.6462   -3.5513  -21.6086 H   0  0  0  0  0  0  0  0  0  0  0  0
   -8.9806   -3.8855  -21.6470 H   0  0  0  0  0  0  0  0  0  0  0  0
   -9.5946   -4.6780  -23.8960 H   0  0  0  0  0  0  0  0  0  0  0  0
   -7.8785   -5.0134  -23.5992 H   0  0  0  0  0  0  0  0  0  0  0  0
   -8.3436   -3.6568  -24.6373 H   0  0  0  0  0  0  0  0  0  0  0  0
  1  2  1  0
  2  3  1  0
  3  4  1  0
  4  5  1  0
  5  6  2  0
  6  7  1  0
  7  8  2  0
  8  9  1  0
  9 10  2  0
 10 11  1  0
 11 12  2  0
 12 13  1  0
 13 14  2  0
 13 15  1  0
 12 16  1  0
 11 17  1  0
 10 18  1  0
  8 19  1  0
  6 20  1  0
  4 21  1  0
 21 22  2  0
 21 23  1  0
 23 24  1  6
 24 25  1  0
 25 26  1  0
 26 27  1  0
 27 28  1  0
 28 29  2  0
 29 30  1  0
 30 31  1  0
 30 32  1  0
 28 33  1  0
 26 34  1  0
 26 35  1  0
 25 36  1  0
 36 37  2  0
 36 38  1  0
 38 39  2  0
 39 40  1  0
 40 41  2  0
 41 42  1  0
 41 43  1  0
 43 44  2  0
 43 45  1  0
 40 46  1  0
 39 47  1  0
 24 48  1  0
 24 49  1  0
  3 50  1  0
  3 51  1  0
  2 52  1  1
  1 53  1  0
  1 54  1  0
  1 55  1  0
 23  2  1  0
 31 27  2  0
 44 38  1  0
 14  5  1  0
 44 23  1  0
 14  9  1  0
M  END
>  <cnnaffinities>  (26) 
[6.2916, 6.5622]

>  <score>  (26) 
6.2916

>  <index>  (26) 
26

>  <Smiles>  (26) 
C([C@]1(C(N(c2c(nc(c3c(c(c(c(c23)[H])[H])[H])[H])[H])[H])C(=O)[C@]21C(N(C(c1c(nn(n1)[H])[H])([H])[H])C(=O)c1c(c(c(F)c(c21)[H])[H])[H])([H])[H])([H])[H])[H])([H])([H])[H]

>  <h>  (26) 
<NA>

>  <Training>  (26) 
True

>  <Success>  (26) 
True

>  <enamine_searched>  (26) 
False

>  <enamine_id>  (26) 
nan

$$$$

     RDKit          3D

 58 62  0  0  0  0  0  0  0  0999 V2000
   -7.0731    3.4596  -22.0263 C   0  0  0  0  0  0  0  0  0  0  0  0
   -7.4439    2.4018  -22.9663 N   0  0  0  0  0  4  0  0  0  0  0  0
   -8.4695    2.8026  -23.9553 C   0  0  0  0  0  0  0  0  0  0  0  0
   -8.7312    1.6844  -24.9617 C   0  0  0  0  0  0  0  0  0  0  0  0
   -9.3767    0.5321  -24.3418 N   0  0  0  0  0  0  0  0  0  0  0  0
   -8.6616   -0.7194  -24.1828 C   0  0  0  0  0  0  0  0  0  0  0  0
   -9.0488   -1.4647  -22.8765 C   0  0  2  0  0  0  0  0  0  0  0  0
   -8.3885   -0.6840  -21.7126 C   0  0  0  0  0  0  0  0  0  0  0  0
   -8.5972    0.4888  -21.4255 O   0  0  0  0  0  0  0  0  0  0  0  0
   -7.4150   -1.4605  -21.1455 N   0  0  0  0  0  0  0  0  0  0  0  0
   -6.5125   -0.9773  -20.1602 C   0  0  0  0  0  0  0  0  0  0  0  0
   -6.6967   -1.3442  -18.8504 C   0  0  0  0  0  0  0  0  0  0  0  0
   -5.7885   -1.1421  -17.8714 N   0  0  0  0  0  0  0  0  0  0  0  0
   -4.6724   -0.5429  -18.2076 C   0  0  0  0  0  0  0  0  0  0  0  0
   -4.3965   -0.0290  -19.5088 C   0  0  0  0  0  0  0  0  0  0  0  0
   -3.1995    0.6868  -19.7891 C   0  0  0  0  0  0  0  0  0  0  0  0
   -2.9857    1.2250  -21.0294 C   0  0  0  0  0  0  0  0  0  0  0  0
   -3.9360    1.0281  -22.0547 C   0  0  0  0  0  0  0  0  0  0  0  0
   -5.0551    0.2592  -21.8320 C   0  0  0  0  0  0  0  0  0  0  0  0
   -5.3430   -0.2443  -20.5299 C   0  0  0  0  0  0  0  0  0  0  0  0
   -5.6940   -0.0213  -22.6628 H   0  0  0  0  0  0  0  0  0  0  0  0
   -3.7837    1.4901  -23.0262 H   0  0  0  0  0  0  0  0  0  0  0  0
   -2.0967    1.8191  -21.2232 H   0  0  0  0  0  0  0  0  0  0  0  0
   -2.5093    0.8615  -18.9719 H   0  0  0  0  0  0  0  0  0  0  0  0
   -3.9239   -0.4178  -17.4278 H   0  0  0  0  0  0  0  0  0  0  0  0
   -7.6228   -1.8184  -18.5375 H   0  0  0  0  0  0  0  0  0  0  0  0
   -7.0500   -2.5947  -21.9729 C   0  0  0  0  0  0  0  0  0  0  0  0
   -8.3304   -2.8477  -22.7772 C   0  0  2  0  0  0  0  0  0  0  0  0
   -8.0404   -3.5664  -24.0923 C   0  0  0  0  0  0  0  0  0  0  0  0
   -7.5722   -4.5410  -23.9121 H   0  0  0  0  0  0  0  0  0  0  0  0
   -8.9491   -3.7285  -24.6813 H   0  0  0  0  0  0  0  0  0  0  0  0
   -7.3424   -2.9869  -24.7093 H   0  0  0  0  0  0  0  0  0  0  0  0
   -8.9499   -3.4955  -22.1550 H   0  0  0  0  0  0  0  0  0  0  0  0
   -6.7444   -3.4517  -21.3634 H   0  0  0  0  0  0  0  0  0  0  0  0
   -6.2038   -2.3648  -22.6406 H   0  0  0  0  0  0  0  0  0  0  0  0
  -10.5713   -1.5236  -22.7821 C   0  0  0  0  0  0  0  0  0  0  0  0
  -11.2395   -2.5182  -22.0465 C   0  0  0  0  0  0  0  0  0  0  0  0
  -12.6187   -2.5231  -21.9856 C   0  0  0  0  0  0  0  0  0  0  0  0
  -13.2328   -3.4858  -21.2721 F   0  0  0  0  0  0  0  0  0  0  0  0
  -13.3957   -1.5689  -22.6323 C   0  0  0  0  0  0  0  0  0  0  0  0
  -12.7489   -0.5760  -23.3413 C   0  0  0  0  0  0  0  0  0  0  0  0
  -11.3537   -0.5390  -23.4091 C   0  0  0  0  0  0  0  0  0  0  0  0
  -10.7289    0.6043  -24.1576 C   0  0  0  0  0  0  0  0  0  0  0  0
  -11.3959    1.5445  -24.5725 O   0  0  0  0  0  0  0  0  0  0  0  0
  -13.3141    0.1980  -23.8521 H   0  0  0  0  0  0  0  0  0  0  0  0
  -14.4759   -1.6159  -22.5540 H   0  0  0  0  0  0  0  0  0  0  0  0
  -10.7156   -3.2892  -21.4913 H   0  0  0  0  0  0  0  0  0  0  0  0
   -8.8684   -1.3667  -25.0429 H   0  0  0  0  0  0  0  0  0  0  0  0
   -7.5851   -0.5135  -24.1554 H   0  0  0  0  0  0  0  0  0  0  0  0
   -7.7911    1.3572  -25.4225 H   0  0  0  0  0  0  0  0  0  0  0  0
   -9.3963    2.0403  -25.7519 H   0  0  0  0  0  0  0  0  0  0  0  0
   -9.4067    3.0373  -23.4451 H   0  0  0  0  0  0  0  0  0  0  0  0
   -8.1527    3.7130  -24.4756 H   0  0  0  0  0  0  0  0  0  0  0  0
   -6.5818    2.1258  -23.4714 H   0  0  0  0  0  0  0  0  0  0  0  0
   -7.7856    1.5793  -22.4347 H   0  0  0  0  0  0  0  0  0  0  0  0
   -6.1980    3.1505  -21.4504 H   0  0  0  0  0  0  0  0  0  0  0  0
   -7.8993    3.6654  -21.3439 H   0  0  0  0  0  0  0  0  0  0  0  0
   -6.8364    4.3894  -22.5538 H   0  0  0  0  0  0  0  0  0  0  0  0
  1  2  1  0
  2  3  1  0
  3  4  1  0
  4  5  1  0
  5  6  1  0
  7  6  1  6
  7  8  1  0
  8  9  2  0
  8 10  1  0
 10 11  1  0
 11 12  2  0
 12 13  1  0
 13 14  2  0
 14 15  1  0
 15 16  2  0
 16 17  1  0
 17 18  2  0
 18 19  1  0
 19 20  2  0
 19 21  1  0
 18 22  1  0
 17 23  1  0
 16 24  1  0
 14 25  1  0
 12 26  1  0
 10 27  1  0
 27 28  1  0
 28 29  1  0
 29 30  1  0
 29 31  1  0
 29 32  1  0
 28 33  1  1
 27 34  1  0
 27 35  1  0
  7 36  1  0
 36 37  2  0
 37 38  1  0
 38 39  1  0
 38 40  2  0
 40 41  1  0
 41 42  2  0
 42 43  1  0
 43 44  2  0
 41 45  1  0
 40 46  1  0
 37 47  1  0
  6 48  1  0
  6 49  1  0
  4 50  1  0
  4 51  1  0
  3 52  1  0
  3 53  1  0
  2 54  1  0
  2 55  1  0
  1 56  1  0
  1 57  1  0
  1 58  1  0
 43  5  1  0
 28  7  1  0
 42 36  1  0
 20 11  1  0
 20 15  1  0
M  CHG  1   2   1
M  END
>  <cnnaffinities>  (27) 
[6.52404]

>  <score>  (27) 
6.52404

>  <index>  (27) 
27

>  <Smiles>  (27) 
C([N+](C(C(N1C([C@@]2(C(=O)N(c3c(nc(c4c(c(c(c(c34)[H])[H])[H])[H])[H])[H])C([C@@]2(C([H])([H])[H])[H])([H])[H])c2c(c(F)c(c(c2C1=O)[H])[H])[H])([H])[H])([H])[H])([H])[H])([H])[H])([H])([H])[H]

>  <h>  (27) 
<NA>

>  <Training>  (27) 
True

>  <Success>  (27) 
True

>  <enamine_searched>  (27) 
False

>  <enamine_id>  (27) 
nan

$$$$

     RDKit          3D

 64 68  0  0  0  0  0  0  0  0999 V2000
   -7.3368    3.3650  -21.8882 C   0  0  0  0  0  0  0  0  0  0  0  0
   -8.2920    2.8676  -22.8637 N   0  0  0  0  0  0  0  0  0  0  0  0
   -7.8105    2.1635  -23.9235 C   0  0  0  0  0  0  0  0  0  0  0  0
   -6.6107    1.9846  -24.0850 O   0  0  0  0  0  0  0  0  0  0  0  0
   -8.8440    1.5825  -24.8930 C   0  0  0  0  0  0  0  0  0  0  0  0
   -9.4941    0.4262  -24.3027 N   0  0  0  0  0  0  0  0  0  0  0  0
   -8.7270   -0.8046  -24.1485 C   0  0  0  0  0  0  0  0  0  0  0  0
   -9.0952   -1.5599  -22.8431 C   0  0  2  0  0  0  0  0  0  0  0  0
   -8.5363   -0.8007  -21.6078 C   0  0  0  0  0  0  0  0  0  0  0  0
   -9.0009    0.1818  -21.0659 O   0  0  0  0  0  0  0  0  0  0  0  0
   -7.3832   -1.4375  -21.2125 N   0  0  0  0  0  0  0  0  0  0  0  0
   -6.5339   -0.9582  -20.1931 C   0  0  0  0  0  0  0  0  0  0  0  0
   -6.7561   -1.2978  -18.8839 C   0  0  0  0  0  0  0  0  0  0  0  0
   -5.8668   -1.0830  -17.8876 N   0  0  0  0  0  0  0  0  0  0  0  0
   -4.7378   -0.4906  -18.1979 C   0  0  0  0  0  0  0  0  0  0  0  0
   -4.4158   -0.0261  -19.5063 C   0  0  0  0  0  0  0  0  0  0  0  0
   -3.2276    0.7074  -19.7709 C   0  0  0  0  0  0  0  0  0  0  0  0
   -3.0116    1.2484  -21.0074 C   0  0  0  0  0  0  0  0  0  0  0  0
   -3.9454    1.0397  -22.0481 C   0  0  0  0  0  0  0  0  0  0  0  0
   -5.0607    0.2636  -21.8374 C   0  0  0  0  0  0  0  0  0  0  0  0
   -5.3495   -0.2392  -20.5379 C   0  0  0  0  0  0  0  0  0  0  0  0
   -5.7473    0.0554  -22.6521 H   0  0  0  0  0  0  0  0  0  0  0  0
   -3.7822    1.4771  -23.0291 H   0  0  0  0  0  0  0  0  0  0  0  0
   -2.1418    1.8749  -21.1849 H   0  0  0  0  0  0  0  0  0  0  0  0
   -2.5605    0.9035  -18.9378 H   0  0  0  0  0  0  0  0  0  0  0  0
   -4.0184   -0.3322  -17.3945 H   0  0  0  0  0  0  0  0  0  0  0  0
   -7.6836   -1.7939  -18.6071 H   0  0  0  0  0  0  0  0  0  0  0  0
   -7.0355   -2.6132  -21.9732 C   0  0  0  0  0  0  0  0  0  0  0  0
   -8.3363   -2.9198  -22.7271 C   0  0  2  0  0  0  0  0  0  0  0  0
   -8.0888   -3.6943  -24.0182 C   0  0  0  0  0  0  0  0  0  0  0  0
   -7.5071   -5.3424  -23.6480 S   0  0  0  0  0  0  0  0  0  0  0  0
   -6.1610   -5.2778  -23.1010 O   0  0  0  0  0  0  0  0  0  0  0  0
   -8.5543   -6.0518  -22.9169 O   0  0  0  0  0  0  0  0  0  0  0  0
   -7.3276   -5.9427  -25.1880 N   0  0  0  0  0  0  0  0  0  0  0  0
   -8.4987   -6.3691  -25.9435 C   0  0  0  0  0  0  0  0  0  0  0  0
   -9.0337   -5.4979  -26.3360 H   0  0  0  0  0  0  0  0  0  0  0  0
   -9.1902   -6.9839  -25.3560 H   0  0  0  0  0  0  0  0  0  0  0  0
   -8.1422   -6.9393  -26.8048 H   0  0  0  0  0  0  0  0  0  0  0  0
   -6.5478   -6.5880  -25.1907 H   0  0  0  0  0  0  0  0  0  0  0  0
   -9.0107   -3.7957  -24.5996 H   0  0  0  0  0  0  0  0  0  0  0  0
   -7.3139   -3.2243  -24.6360 H   0  0  0  0  0  0  0  0  0  0  0  0
   -8.9286   -3.5654  -22.0766 H   0  0  0  0  0  0  0  0  0  0  0  0
   -6.1939   -2.4225  -22.6558 H   0  0  0  0  0  0  0  0  0  0  0  0
   -6.7304   -3.4389  -21.3222 H   0  0  0  0  0  0  0  0  0  0  0  0
  -10.6099   -1.6520  -22.7649 C   0  0  0  0  0  0  0  0  0  0  0  0
  -11.2335   -2.5952  -21.9367 C   0  0  0  0  0  0  0  0  0  0  0  0
  -12.6122   -2.6221  -21.8166 C   0  0  0  0  0  0  0  0  0  0  0  0
  -13.3444   -3.7712  -20.7296 Cl  0  0  0  0  0  0  0  0  0  0  0  0
  -13.4247   -1.7326  -22.5180 C   0  0  0  0  0  0  0  0  0  0  0  0
  -12.8197   -0.7799  -23.3113 C   0  0  0  0  0  0  0  0  0  0  0  0
  -11.4301   -0.7177  -23.4141 C   0  0  0  0  0  0  0  0  0  0  0  0
  -10.8572    0.4320  -24.1842 C   0  0  0  0  0  0  0  0  0  0  0  0
  -11.5622    1.3164  -24.6476 O   0  0  0  0  0  0  0  0  0  0  0  0
  -13.4063   -0.0428  -23.8481 H   0  0  0  0  0  0  0  0  0  0  0  0
  -14.5032   -1.7788  -22.4114 H   0  0  0  0  0  0  0  0  0  0  0  0
  -10.6593   -3.3050  -21.3518 H   0  0  0  0  0  0  0  0  0  0  0  0
   -7.6625   -0.5487  -24.1470 H   0  0  0  0  0  0  0  0  0  0  0  0
   -8.9159   -1.4556  -25.0137 H   0  0  0  0  0  0  0  0  0  0  0  0
   -9.6308    2.3007  -25.1456 H   0  0  0  0  0  0  0  0  0  0  0  0
   -8.3267    1.3102  -25.8200 H   0  0  0  0  0  0  0  0  0  0  0  0
   -9.2365    2.6965  -22.5445 H   0  0  0  0  0  0  0  0  0  0  0  0
   -6.7347    2.5389  -21.4823 H   0  0  0  0  0  0  0  0  0  0  0  0
   -6.6582    4.0828  -22.3554 H   0  0  0  0  0  0  0  0  0  0  0  0
   -7.8667    3.8905  -21.0924 H   0  0  0  0  0  0  0  0  0  0  0  0
  1  2  1  0
  2  3  1  0
  3  4  2  0
  3  5  1  0
  5  6  1  0
  6  7  1  0
  8  7  1  6
  8  9  1  0
  9 10  2  0
  9 11  1  0
 11 12  1  0
 12 13  2  0
 13 14  1  0
 14 15  2  0
 15 16  1  0
 16 17  2  0
 17 18  1  0
 18 19  2  0
 19 20  1  0
 20 21  2  0
 20 22  1  0
 19 23  1  0
 18 24  1  0
 17 25  1  0
 15 26  1  0
 13 27  1  0
 11 28  1  0
 28 29  1  0
 29 30  1  0
 30 31  1  0
 31 32  2  0
 31 33  2  0
 31 34  1  0
 34 35  1  0
 35 36  1  0
 35 37  1  0
 35 38  1  0
 34 39  1  0
 30 40  1  0
 30 41  1  0
 29 42  1  1
 28 43  1  0
 28 44  1  0
  8 45  1  0
 45 46  2  0
 46 47  1  0
 47 48  1  0
 47 49  2  0
 49 50  1  0
 50 51  2  0
 51 52  1  0
 52 53  2  0
 50 54  1  0
 49 55  1  0
 46 56  1  0
  7 57  1  0
  7 58  1  0
  5 59  1  0
  5 60  1  0
  2 61  1  0
  1 62  1  0
  1 63  1  0
  1 64  1  0
 52  6  1  0
 29  8  1  0
 51 45  1  0
 21 12  1  0
 21 16  1  0
M  END
>  <cnnaffinities>  (28) 
[6.97768, 6.56086]

>  <score>  (28) 
6.97768

>  <index>  (28) 
28

>  <Smiles>  (28) 
C(N(C(=O)C(N1C([C@@]2(C(=O)N(c3c(nc(c4c(c(c(c(c34)[H])[H])[H])[H])[H])[H])C([C@@]2(C(S(=O)(=O)N(C([H])([H])[H])[H])([H])[H])[H])([H])[H])c2c(c(Cl)c(c(c2C1=O)[H])[H])[H])([H])[H])([H])[H])[H])([H])([H])[H]

>  <h>  (28) 
<NA>

>  <Training>  (28) 
True

>  <Success>  (28) 
True

>  <enamine_searched>  (28) 
False

>  <enamine_id>  (28) 
nan

$$$$

     RDKit          3D

 55 60  0  0  0  0  0  0  0  0999 V2000
   -8.6358   -4.2155  -23.7313 C   0  0  0  0  0  0  0  0  0  0  0  0
   -8.6485   -3.3025  -22.5129 C   0  0  1  0  0  0  0  0  0  0  0  0
   -7.2578   -2.7984  -22.1221 C   0  0  0  0  0  0  0  0  0  0  0  0
   -7.5761   -1.7127  -21.2200 N   0  0  0  0  0  0  0  0  0  0  0  0
   -6.6770   -1.2843  -20.2075 C   0  0  0  0  0  0  0  0  0  0  0  0
   -6.8261   -1.6811  -18.9022 C   0  0  0  0  0  0  0  0  0  0  0  0
   -5.9106   -1.4685  -17.9242 N   0  0  0  0  0  0  0  0  0  0  0  0
   -4.8034   -0.8510  -18.2504 C   0  0  0  0  0  0  0  0  0  0  0  0
   -4.5071   -0.3978  -19.5659 C   0  0  0  0  0  0  0  0  0  0  0  0
   -3.2690    0.2200  -19.8942 C   0  0  0  0  0  0  0  0  0  0  0  0
   -3.0364    0.6769  -21.1651 C   0  0  0  0  0  0  0  0  0  0  0  0
   -4.0519    0.5896  -22.1461 C   0  0  0  0  0  0  0  0  0  0  0  0
   -5.2628    0.0149  -21.8403 C   0  0  0  0  0  0  0  0  0  0  0  0
   -5.4950   -0.5580  -20.5608 C   0  0  0  0  0  0  0  0  0  0  0  0
   -6.0843    0.0418  -22.5494 H   0  0  0  0  0  0  0  0  0  0  0  0
   -3.8784    0.9958  -23.1416 H   0  0  0  0  0  0  0  0  0  0  0  0
   -2.0855    1.1404  -21.4215 H   0  0  0  0  0  0  0  0  0  0  0  0
   -2.5201    0.3362  -19.1140 H   0  0  0  0  0  0  0  0  0  0  0  0
   -4.0750   -0.6826  -17.4575 H   0  0  0  0  0  0  0  0  0  0  0  0
   -7.7181   -2.2267  -18.6101 H   0  0  0  0  0  0  0  0  0  0  0  0
   -8.8320   -1.1701  -21.4344 C   0  0  0  0  0  0  0  0  0  0  0  0
   -9.2608   -0.1849  -20.8887 O   0  0  0  0  0  0  0  0  0  0  0  0
   -9.5399   -2.0277  -22.5394 C   0  0  1  0  0  0  0  0  0  0  0  0
   -9.4415   -1.2473  -23.8635 C   0  0  0  0  0  0  0  0  0  0  0  0
  -10.2500   -0.0436  -23.8049 N   0  0  0  0  0  0  0  0  0  0  0  0
   -9.8448    0.9950  -24.7250 C   0  0  0  0  0  0  0  0  0  0  0  0
  -10.0749    0.5714  -26.1451 C   0  0  0  0  0  0  0  0  0  0  0  0
  -11.1557   -0.1244  -26.7102 C   0  0  0  0  0  0  0  0  0  0  0  0
  -10.9446   -0.2738  -28.0105 N   0  0  0  0  0  0  0  0  0  0  0  0
   -9.7566    0.2822  -28.1759 N   0  0  0  0  0  0  0  0  0  0  0  0
   -9.1920    0.8084  -27.1011 N   0  0  0  0  0  0  0  0  0  0  0  0
   -9.3798    0.4483  -29.0959 H   0  0  0  0  0  0  0  0  0  0  0  0
  -12.0530   -0.4845  -26.2348 H   0  0  0  0  0  0  0  0  0  0  0  0
   -8.7760    1.1857  -24.5654 H   0  0  0  0  0  0  0  0  0  0  0  0
  -10.4183    1.8920  -24.4704 H   0  0  0  0  0  0  0  0  0  0  0  0
  -11.5792   -0.1131  -23.4782 C   0  0  0  0  0  0  0  0  0  0  0  0
  -12.3832    0.7563  -23.7934 O   0  0  0  0  0  0  0  0  0  0  0  0
  -11.9867   -1.3416  -22.7375 C   0  0  0  0  0  0  0  0  0  0  0  0
  -13.3526   -1.5427  -22.5220 C   0  0  0  0  0  0  0  0  0  0  0  0
  -13.7938   -2.5823  -21.7298 C   0  0  0  0  0  0  0  0  0  0  0  0
  -12.8275   -3.4121  -21.1828 C   0  0  0  0  0  0  0  0  0  0  0  0
  -13.2267   -4.3154  -20.2744 F   0  0  0  0  0  0  0  0  0  0  0  0
  -11.4896   -3.3264  -21.5149 C   0  0  0  0  0  0  0  0  0  0  0  0
  -11.0249   -2.2583  -22.2865 C   0  0  0  0  0  0  0  0  0  0  0  0
  -10.8122   -4.0456  -21.0751 H   0  0  0  0  0  0  0  0  0  0  0  0
  -14.8443   -2.7677  -21.5399 H   0  0  0  0  0  0  0  0  0  0  0  0
  -14.0497   -0.8374  -22.9594 H   0  0  0  0  0  0  0  0  0  0  0  0
   -8.4159   -0.9377  -24.0626 H   0  0  0  0  0  0  0  0  0  0  0  0
   -9.7392   -1.8842  -24.7077 H   0  0  0  0  0  0  0  0  0  0  0  0
   -6.6900   -2.4629  -23.0068 H   0  0  0  0  0  0  0  0  0  0  0  0
   -6.6577   -3.5587  -21.6136 H   0  0  0  0  0  0  0  0  0  0  0  0
   -8.9933   -3.8766  -21.6482 H   0  0  0  0  0  0  0  0  0  0  0  0
   -9.6150   -4.6793  -23.8878 H   0  0  0  0  0  0  0  0  0  0  0  0
   -7.8992   -5.0189  -23.5969 H   0  0  0  0  0  0  0  0  0  0  0  0
   -8.3633   -3.6675  -24.6407 H   0  0  0  0  0  0  0  0  0  0  0  0
  1  2  1  0
  2  3  1  0
  3  4  1  0
  4  5  1  0
  5  6  2  0
  6  7  1  0
  7  8  2  0
  8  9  1  0
  9 10  2  0
 10 11  1  0
 11 12  2  0
 12 13  1  0
 13 14  2  0
 13 15  1  0
 12 16  1  0
 11 17  1  0
 10 18  1  0
  8 19  1  0
  6 20  1  0
  4 21  1  0
 21 22  2  0
 21 23  1  0
 23 24  1  6
 24 25  1  0
 25 26  1  0
 26 27  1  0
 27 28  1  0
 28 29  2  0
 29 30  1  0
 30 31  1  0
 30 32  1  0
 28 33  1  0
 26 34  1  0
 26 35  1  0
 25 36  1  0
 36 37  2  0
 36 38  1  0
 38 39  2  0
 39 40  1  0
 40 41  2  0
 41 42  1  0
 41 43  1  0
 43 44  2  0
 43 45  1  0
 40 46  1  0
 39 47  1  0
 24 48  1  0
 24 49  1  0
  3 50  1  0
  3 51  1  0
  2 52  1  1
  1 53  1  0
  1 54  1  0
  1 55  1  0
 23  2  1  0
 31 27  2  0
 44 38  1  0
 14  5  1  0
 44 23  1  0
 14  9  1  0
M  END
>  <cnnaffinities>  (29) 
[6.29221, 6.56212]

>  <score>  (29) 
6.29221

>  <index>  (29) 
29

>  <Smiles>  (29) 
C([C@]1(C(N(c2c(nc(c3c(c(c(c(c23)[H])[H])[H])[H])[H])[H])C(=O)[C@]21C(N(C(c1c(nn(n1)[H])[H])([H])[H])C(=O)c1c(c(c(F)c(c21)[H])[H])[H])([H])[H])([H])[H])[H])([H])([H])[H]

>  <h>  (29) 
<NA>

>  <Training>  (29) 
True

>  <Success>  (29) 
True

>  <enamine_searched>  (29) 
False

>  <enamine_id>  (29) 
nan

$$$$

     RDKit          3D

 58 63  0  0  0  0  0  0  0  0999 V2000
   -8.2895   -4.1140  -23.5259 C   0  0  0  0  0  0  0  0  0  0  0  0
   -8.5276   -2.9681  -22.5581 C   0  0  1  0  0  0  0  0  0  0  0  0
   -7.3742   -2.7850  -21.5727 C   0  0  0  0  0  0  0  0  0  0  0  0
   -7.4224   -1.3859  -21.2292 N   0  0  0  0  0  0  0  0  0  0  0  0
   -6.5247   -0.9217  -20.2373 C   0  0  0  0  0  0  0  0  0  0  0  0
   -6.7577   -1.2622  -18.9295 C   0  0  0  0  0  0  0  0  0  0  0  0
   -5.9222   -0.9961  -17.8975 N   0  0  0  0  0  0  0  0  0  0  0  0
   -4.8011   -0.3789  -18.1742 C   0  0  0  0  0  0  0  0  0  0  0  0
   -4.4425    0.0444  -19.4850 C   0  0  0  0  0  0  0  0  0  0  0  0
   -3.2690    0.7999  -19.7192 C   0  0  0  0  0  0  0  0  0  0  0  0
   -3.0081    1.2952  -20.9680 C   0  0  0  0  0  0  0  0  0  0  0  0
   -3.8484    0.9697  -22.0574 C   0  0  0  0  0  0  0  0  0  0  0  0
   -4.9677    0.2020  -21.8641 C   0  0  0  0  0  0  0  0  0  0  0  0
   -5.3099   -0.2440  -20.5605 C   0  0  0  0  0  0  0  0  0  0  0  0
   -5.5947   -0.0625  -22.7094 H   0  0  0  0  0  0  0  0  0  0  0  0
   -3.6289    1.3660  -23.0418 H   0  0  0  0  0  0  0  0  0  0  0  0
   -2.1593    1.9547  -21.1270 H   0  0  0  0  0  0  0  0  0  0  0  0
   -2.6371    1.0223  -18.8641 H   0  0  0  0  0  0  0  0  0  0  0  0
   -4.1077   -0.1765  -17.3552 H   0  0  0  0  0  0  0  0  0  0  0  0
   -7.6823   -1.7828  -18.6844 H   0  0  0  0  0  0  0  0  0  0  0  0
   -8.1518   -0.6185  -22.1121 C   0  0  0  0  0  0  0  0  0  0  0  0
   -8.2637    0.5874  -22.0518 O   0  0  0  0  0  0  0  0  0  0  0  0
   -8.7458   -1.5477  -23.1934 C   0  0  1  0  0  0  0  0  0  0  0  0
   -7.9471   -1.2692  -24.4903 C   0  0  0  0  0  0  0  0  0  0  0  0
   -8.5773   -1.8044  -25.6900 N   0  0  0  0  0  0  0  0  0  0  0  0
   -7.7343   -2.1529  -26.8212 C   0  0  0  0  0  0  0  0  0  0  0  0
   -7.3180   -3.5982  -26.7810 C   0  0  0  0  0  0  0  0  0  0  0  0
   -8.1707   -4.6023  -27.1367 C   0  0  0  0  0  0  0  0  0  0  0  0
   -7.7525   -5.9838  -27.0990 C   0  0  0  0  0  0  0  0  0  0  0  0
   -8.4109   -6.9677  -27.3706 O   0  0  0  0  0  0  0  0  0  0  0  0
   -6.4105   -6.1132  -26.6970 N   0  0  0  0  0  0  0  0  0  0  0  0
   -5.6319   -5.0504  -26.3496 C   0  0  0  0  0  0  0  0  0  0  0  0
   -6.0301   -3.8251  -26.3482 N   0  0  0  0  0  0  0  0  0  0  0  0
   -4.6036   -5.2789  -26.0692 H   0  0  0  0  0  0  0  0  0  0  0  0
   -6.0533   -7.0570  -26.6545 H   0  0  0  0  0  0  0  0  0  0  0  0
   -9.1789   -4.4023  -27.4648 H   0  0  0  0  0  0  0  0  0  0  0  0
   -8.3109   -1.9328  -27.7245 H   0  0  0  0  0  0  0  0  0  0  0  0
   -6.8367   -1.5322  -26.7988 H   0  0  0  0  0  0  0  0  0  0  0  0
   -9.9264   -1.8013  -25.8948 C   0  0  0  0  0  0  0  0  0  0  0  0
  -10.4313   -2.1296  -26.9651 O   0  0  0  0  0  0  0  0  0  0  0  0
  -10.7598   -1.3936  -24.7347 C   0  0  0  0  0  0  0  0  0  0  0  0
  -12.1201   -1.1969  -24.9565 C   0  0  0  0  0  0  0  0  0  0  0  0
  -12.9703   -0.8991  -23.9146 C   0  0  0  0  0  0  0  0  0  0  0  0
  -12.4129   -0.8015  -22.6468 C   0  0  0  0  0  0  0  0  0  0  0  0
  -13.2477   -0.5376  -21.6360 F   0  0  0  0  0  0  0  0  0  0  0  0
  -11.0653   -0.9820  -22.3948 C   0  0  0  0  0  0  0  0  0  0  0  0
  -10.2081   -1.2670  -23.4590 C   0  0  0  0  0  0  0  0  0  0  0  0
  -10.6684   -0.9151  -21.3890 H   0  0  0  0  0  0  0  0  0  0  0  0
  -14.0386   -0.7547  -24.0500 H   0  0  0  0  0  0  0  0  0  0  0  0
  -12.4829   -1.2985  -25.9703 H   0  0  0  0  0  0  0  0  0  0  0  0
   -7.8225   -0.1811  -24.5865 H   0  0  0  0  0  0  0  0  0  0  0  0
   -6.9406   -1.6977  -24.4036 H   0  0  0  0  0  0  0  0  0  0  0  0
   -7.4970   -3.3560  -20.6594 H   0  0  0  0  0  0  0  0  0  0  0  0
   -6.3977   -3.0589  -22.0055 H   0  0  0  0  0  0  0  0  0  0  0  0
   -9.4373   -3.1793  -21.9731 H   0  0  0  0  0  0  0  0  0  0  0  0
   -8.2412   -5.0610  -22.9798 H   0  0  0  0  0  0  0  0  0  0  0  0
   -9.0939   -4.1664  -24.2661 H   0  0  0  0  0  0  0  0  0  0  0  0
   -7.3425   -3.9772  -24.0580 H   0  0  0  0  0  0  0  0  0  0  0  0
  1  2  1  0
  2  3  1  0
  3  4  1  0
  4  5  1  0
  5  6  2  0
  6  7  1  0
  7  8  2  0
  8  9  1  0
  9 10  2  0
 10 11  1  0
 11 12  2  0
 12 13  1  0
 13 14  2  0
 13 15  1  0
 12 16  1  0
 11 17  1  0
 10 18  1  0
  8 19  1  0
  6 20  1  0
  4 21  1  0
 21 22  2  0
 21 23  1  0
 23 24  1  6
 24 25  1  0
 25 26  1  0
 26 27  1  0
 27 28  2  0
 28 29  1  0
 29 30  2  0
 29 31  1  0
 31 32  1  0
 32 33  2  0
 32 34  1  0
 31 35  1  0
 28 36  1  0
 26 37  1  0
 26 38  1  0
 25 39  1  0
 39 40  2  0
 39 41  1  0
 41 42  2  0
 42 43  1  0
 43 44  2  0
 44 45  1  0
 44 46  1  0
 46 47  2  0
 46 48  1  0
 43 49  1  0
 42 50  1  0
 24 51  1  0
 24 52  1  0
  3 53  1  0
  3 54  1  0
  2 55  1  1
  1 56  1  0
  1 57  1  0
  1 58  1  0
 23  2  1  0
 33 27  1  0
 47 41  1  0
 14  5  1  0
 47 23  1  0
 14  9  1  0
M  END
>  <cnnaffinities>  (30) 
[6.44607, 6.51593, 6.62217]

>  <score>  (30) 
6.44607

>  <index>  (30) 
30

>  <Smiles>  (30) 
C([C@]1(C(N(c2c(nc(c3c(c(c(c(c23)[H])[H])[H])[H])[H])[H])C(=O)[C@]21C(N(C(c1c(c(=O)n(c(n1)[H])[H])[H])([H])[H])C(=O)c1c(c(c(F)c(c21)[H])[H])[H])([H])[H])([H])[H])[H])([H])([H])[H]

>  <h>  (30) 
<NA>

>  <Training>  (30) 
True

>  <Success>  (30) 
True

>  <enamine_searched>  (30) 
False

>  <enamine_id>  (30) 
nan

$$$$

     RDKit          3D

 66 71  0  0  0  0  0  0  0  0999 V2000
   -7.2816    3.3805  -21.9077 C   0  0  0  0  0  0  0  0  0  0  0  0
   -8.1762    2.9273  -22.9566 N   0  0  0  0  0  0  0  0  0  0  0  0
   -7.6392    2.2222  -23.9876 C   0  0  0  0  0  0  0  0  0  0  0  0
   -6.4364    2.0402  -24.0893 O   0  0  0  0  0  0  0  0  0  0  0  0
   -8.6249    1.6404  -25.0027 C   0  0  0  0  0  0  0  0  0  0  0  0
   -9.3232    0.5064  -24.4238 N   0  0  0  0  0  0  0  0  0  0  0  0
   -8.5819   -0.7359  -24.2396 C   0  0  0  0  0  0  0  0  0  0  0  0
   -9.0161   -1.4880  -22.9539 C   0  0  2  0  0  0  0  0  0  0  0  0
   -8.4782   -0.7460  -21.6998 C   0  0  0  0  0  0  0  0  0  0  0  0
   -8.9000    0.2811  -21.2091 O   0  0  0  0  0  0  0  0  0  0  0  0
   -7.3993   -1.4498  -21.2222 N   0  0  0  0  0  0  0  0  0  0  0  0
   -6.5350   -0.9707  -20.2113 C   0  0  0  0  0  0  0  0  0  0  0  0
   -6.7668   -1.2936  -18.9018 C   0  0  0  0  0  0  0  0  0  0  0  0
   -5.8793   -1.0750  -17.9008 N   0  0  0  0  0  0  0  0  0  0  0  0
   -4.7508   -0.4859  -18.2023 C   0  0  0  0  0  0  0  0  0  0  0  0
   -4.4187   -0.0339  -19.5094 C   0  0  0  0  0  0  0  0  0  0  0  0
   -3.2373    0.7075  -19.7680 C   0  0  0  0  0  0  0  0  0  0  0  0
   -3.0170    1.2520  -21.0026 C   0  0  0  0  0  0  0  0  0  0  0  0
   -3.9421    1.0310  -22.0539 C   0  0  0  0  0  0  0  0  0  0  0  0
   -5.0514    0.2467  -21.8460 C   0  0  0  0  0  0  0  0  0  0  0  0
   -5.3481   -0.2565  -20.5499 C   0  0  0  0  0  0  0  0  0  0  0  0
   -5.7243    0.0305  -22.6693 H   0  0  0  0  0  0  0  0  0  0  0  0
   -3.7768    1.4753  -23.0305 H   0  0  0  0  0  0  0  0  0  0  0  0
   -2.1546    1.8857  -21.1751 H   0  0  0  0  0  0  0  0  0  0  0  0
   -2.5740    0.9033  -18.9306 H   0  0  0  0  0  0  0  0  0  0  0  0
   -4.0318   -0.3231  -17.3960 H   0  0  0  0  0  0  0  0  0  0  0  0
   -7.6962   -1.7913  -18.6365 H   0  0  0  0  0  0  0  0  0  0  0  0
   -7.0605   -2.6301  -21.9784 C   0  0  0  0  0  0  0  0  0  0  0  0
   -8.3075   -2.8745  -22.8290 C   0  0  2  0  0  0  0  0  0  0  0  0
   -7.9388   -3.6224  -24.1051 C   0  0  0  0  0  0  0  0  0  0  0  0
   -9.1059   -3.9844  -24.8739 N   0  0  0  0  0  0  0  0  0  0  0  0
   -8.9990   -4.5991  -26.0800 C   0  0  0  0  0  0  0  0  0  0  0  0
  -10.1425   -4.9229  -26.8404 C   0  0  0  0  0  0  0  0  0  0  0  0
   -9.9222   -5.5349  -28.0495 C   0  0  0  0  0  0  0  0  0  0  0  0
   -8.6976   -5.8275  -28.5175 N   0  0  0  0  0  0  0  0  0  0  0  0
   -7.7010   -5.4883  -27.7144 C   0  0  0  0  0  0  0  0  0  0  0  0
   -7.7666   -4.8897  -26.5232 N   0  0  0  0  0  0  0  0  0  0  0  0
   -6.6999   -5.7263  -28.0762 H   0  0  0  0  0  0  0  0  0  0  0  0
  -10.7633   -5.8077  -28.6889 H   0  0  0  0  0  0  0  0  0  0  0  0
  -11.1481   -4.7107  -26.4865 H   0  0  0  0  0  0  0  0  0  0  0  0
  -10.0180   -3.7075  -24.5427 H   0  0  0  0  0  0  0  0  0  0  0  0
   -7.3856   -4.5348  -23.8490 H   0  0  0  0  0  0  0  0  0  0  0  0
   -7.2681   -3.0207  -24.7351 H   0  0  0  0  0  0  0  0  0  0  0  0
   -8.9710   -3.5285  -22.2566 H   0  0  0  0  0  0  0  0  0  0  0  0
   -6.8408   -3.4696  -21.3096 H   0  0  0  0  0  0  0  0  0  0  0  0
   -6.1680   -2.4778  -22.6059 H   0  0  0  0  0  0  0  0  0  0  0  0
  -10.5339   -1.5310  -22.9056 C   0  0  0  0  0  0  0  0  0  0  0  0
  -11.1910   -2.4131  -22.0369 C   0  0  0  0  0  0  0  0  0  0  0  0
  -12.5723   -2.4160  -21.9499 C   0  0  0  0  0  0  0  0  0  0  0  0
  -13.3488   -3.5103  -20.8392 Cl  0  0  0  0  0  0  0  0  0  0  0  0
  -13.3510   -1.5417  -22.7073 C   0  0  0  0  0  0  0  0  0  0  0  0
  -12.7090   -0.6309  -23.5231 C   0  0  0  0  0  0  0  0  0  0  0  0
  -11.3161   -0.5959  -23.5999 C   0  0  0  0  0  0  0  0  0  0  0  0
  -10.6922    0.5279  -24.3740 C   0  0  0  0  0  0  0  0  0  0  0  0
  -11.3626    1.4103  -24.8889 O   0  0  0  0  0  0  0  0  0  0  0  0
  -13.2710    0.0980  -24.0960 H   0  0  0  0  0  0  0  0  0  0  0  0
  -14.4327   -1.5556  -22.6213 H   0  0  0  0  0  0  0  0  0  0  0  0
  -10.6398   -3.0775  -21.3818 H   0  0  0  0  0  0  0  0  0  0  0  0
   -8.7325   -1.3875  -25.1128 H   0  0  0  0  0  0  0  0  0  0  0  0
   -7.5137   -0.5028  -24.1847 H   0  0  0  0  0  0  0  0  0  0  0  0
   -8.0680    1.3338  -25.8957 H   0  0  0  0  0  0  0  0  0  0  0  0
   -9.3786    2.3711  -25.3101 H   0  0  0  0  0  0  0  0  0  0  0  0
   -9.1338    2.7440  -22.6998 H   0  0  0  0  0  0  0  0  0  0  0  0
   -7.8638    3.8527  -21.1173 H   0  0  0  0  0  0  0  0  0  0  0  0
   -6.5875    4.1251  -22.3015 H   0  0  0  0  0  0  0  0  0  0  0  0
   -6.7002    2.5380  -21.5110 H   0  0  0  0  0  0  0  0  0  0  0  0
  1  2  1  0
  2  3  1  0
  3  4  2  0
  3  5  1  0
  5  6  1  0
  6  7  1  0
  8  7  1  6
  8  9  1  0
  9 10  2  0
  9 11  1  0
 11 12  1  0
 12 13  2  0
 13 14  1  0
 14 15  2  0
 15 16  1  0
 16 17  2  0
 17 18  1  0
 18 19  2  0
 19 20  1  0
 20 21  2  0
 20 22  1  0
 19 23  1  0
 18 24  1  0
 17 25  1  0
 15 26  1  0
 13 27  1  0
 11 28  1  0
 28 29  1  0
 29 30  1  0
 30 31  1  0
 31 32  1  0
 32 33  2  0
 33 34  1  0
 34 35  2  0
 35 36  1  0
 36 37  2  0
 36 38  1  0
 34 39  1  0
 33 40  1  0
 31 41  1  0
 30 42  1  0
 30 43  1  0
 29 44  1  1
 28 45  1  0
 28 46  1  0
  8 47  1  0
 47 48  2  0
 48 49  1  0
 49 50  1  0
 49 51  2  0
 51 52  1  0
 52 53  2  0
 53 54  1  0
 54 55  2  0
 52 56  1  0
 51 57  1  0
 48 58  1  0
  7 59  1  0
  7 60  1  0
  5 61  1  0
  5 62  1  0
  2 63  1  0
  1 64  1  0
  1 65  1  0
  1 66  1  0
 54  6  1  0
 29  8  1  0
 37 32  1  0
 53 47  1  0
 21 12  1  0
 21 16  1  0
M  END
>  <cnnaffinities>  (31) 
[6.7261, 6.73133, 7.19984]

>  <score>  (31) 
6.7261

>  <index>  (31) 
31

>  <Smiles>  (31) 
C(N(C(=O)C(N1C([C@@]2(C(=O)N(c3c(nc(c4c(c(c(c(c34)[H])[H])[H])[H])[H])[H])C([C@@]2(C(N(c2c(c(nc(n2)[H])[H])[H])[H])([H])[H])[H])([H])[H])c2c(c(Cl)c(c(c2C1=O)[H])[H])[H])([H])[H])([H])[H])[H])([H])([H])[H]

>  <h>  (31) 
<NA>

>  <Training>  (31) 
True

>  <Success>  (31) 
True

>  <enamine_searched>  (31) 
False

>  <enamine_id>  (31) 
nan

$$$$

     RDKit          3D

 57 62  0  0  0  0  0  0  0  0999 V2000
   -8.2193   -4.1073  -23.8311 C   0  0  0  0  0  0  0  0  0  0  0  0
   -8.4254   -3.2536  -22.5789 C   0  0  1  0  0  0  0  0  0  0  0  0
   -7.1051   -2.5926  -22.1499 C   0  0  0  0  0  0  0  0  0  0  0  0
   -7.5133   -1.4859  -21.3170 N   0  0  0  0  0  0  0  0  0  0  0  0
   -6.6266   -1.0488  -20.2875 C   0  0  0  0  0  0  0  0  0  0  0  0
   -6.8068   -1.4733  -18.9926 C   0  0  0  0  0  0  0  0  0  0  0  0
   -5.8877   -1.3561  -18.0020 N   0  0  0  0  0  0  0  0  0  0  0  0
   -4.7561   -0.7611  -18.2828 C   0  0  0  0  0  0  0  0  0  0  0  0
   -4.4486   -0.2180  -19.5614 C   0  0  0  0  0  0  0  0  0  0  0  0
   -3.2239    0.4614  -19.8123 C   0  0  0  0  0  0  0  0  0  0  0  0
   -2.9354    0.9351  -21.0612 C   0  0  0  0  0  0  0  0  0  0  0  0
   -3.8720    0.7802  -22.1072 C   0  0  0  0  0  0  0  0  0  0  0  0
   -5.0811    0.1653  -21.8816 C   0  0  0  0  0  0  0  0  0  0  0  0
   -5.3984   -0.3704  -20.6032 C   0  0  0  0  0  0  0  0  0  0  0  0
   -5.8011    0.0994  -22.6933 H   0  0  0  0  0  0  0  0  0  0  0  0
   -3.6404    1.1742  -23.0927 H   0  0  0  0  0  0  0  0  0  0  0  0
   -1.9823    1.4176  -21.2655 H   0  0  0  0  0  0  0  0  0  0  0  0
   -2.5368    0.6234  -18.9867 H   0  0  0  0  0  0  0  0  0  0  0  0
   -4.0115   -0.6847  -17.4880 H   0  0  0  0  0  0  0  0  0  0  0  0
   -7.7285   -1.9749  -18.7131 H   0  0  0  0  0  0  0  0  0  0  0  0
   -8.8264   -1.1070  -21.5428 C   0  0  0  0  0  0  0  0  0  0  0  0
   -9.3968   -0.2009  -20.9814 O   0  0  0  0  0  0  0  0  0  0  0  0
   -9.4275   -2.0489  -22.6626 C   0  0  1  0  0  0  0  0  0  0  0  0
   -9.3021   -1.3988  -24.0670 C   0  0  0  0  0  0  0  0  0  0  0  0
  -10.3147   -0.4035  -24.3751 N   0  0  0  0  0  0  0  0  0  0  0  0
   -9.8703    0.7936  -25.0803 C   0  0  0  0  0  0  0  0  0  0  0  0
   -9.0680    1.6127  -24.1185 C   0  0  0  0  0  0  0  0  0  0  0  0
   -7.7581    1.6993  -24.0597 N   0  0  0  0  0  0  0  0  0  0  0  0
   -7.4822    2.3220  -22.8940 N   0  0  0  0  0  0  0  0  0  0  0  0
   -8.5622    2.6017  -22.2576 N   0  0  0  0  0  0  0  0  0  0  0  0
   -9.5813    2.1626  -23.0064 N   0  0  0  0  0  0  0  0  0  0  0  0
  -10.9424    2.3478  -22.5398 C   0  0  0  0  0  0  0  0  0  0  0  0
  -11.1459    1.6573  -21.7220 H   0  0  0  0  0  0  0  0  0  0  0  0
  -11.6424    2.1803  -23.3583 H   0  0  0  0  0  0  0  0  0  0  0  0
  -11.0504    3.3705  -22.1797 H   0  0  0  0  0  0  0  0  0  0  0  0
  -10.7548    1.3029  -25.4678 H   0  0  0  0  0  0  0  0  0  0  0  0
   -9.2431    0.5141  -25.9305 H   0  0  0  0  0  0  0  0  0  0  0  0
  -11.6323   -0.5511  -24.0548 C   0  0  0  0  0  0  0  0  0  0  0  0
  -12.5193    0.1330  -24.5497 O   0  0  0  0  0  0  0  0  0  0  0  0
  -11.9210   -1.5769  -23.0068 C   0  0  0  0  0  0  0  0  0  0  0  0
  -13.2538   -1.6952  -22.6050 C   0  0  0  0  0  0  0  0  0  0  0  0
  -13.6171   -2.6265  -21.6571 C   0  0  0  0  0  0  0  0  0  0  0  0
  -12.6236   -3.4501  -21.1559 C   0  0  0  0  0  0  0  0  0  0  0  0
  -12.9698   -4.3139  -20.1885 F   0  0  0  0  0  0  0  0  0  0  0  0
  -11.3001   -3.3691  -21.5499 C   0  0  0  0  0  0  0  0  0  0  0  0
  -10.9013   -2.3572  -22.4302 C   0  0  0  0  0  0  0  0  0  0  0  0
  -10.5850   -4.0202  -21.0593 H   0  0  0  0  0  0  0  0  0  0  0  0
  -14.6295   -2.7418  -21.2837 H   0  0  0  0  0  0  0  0  0  0  0  0
  -13.9825   -1.0294  -23.0537 H   0  0  0  0  0  0  0  0  0  0  0  0
   -8.3243   -0.9149  -24.1434 H   0  0  0  0  0  0  0  0  0  0  0  0
   -9.3586   -2.2001  -24.8116 H   0  0  0  0  0  0  0  0  0  0  0  0
   -6.5576   -2.2399  -23.0393 H   0  0  0  0  0  0  0  0  0  0  0  0
   -6.4360   -3.2536  -21.5930 H   0  0  0  0  0  0  0  0  0  0  0  0
   -8.7422   -3.9101  -21.7612 H   0  0  0  0  0  0  0  0  0  0  0  0
   -7.5362   -4.9397  -23.6283 H   0  0  0  0  0  0  0  0  0  0  0  0
   -9.1532   -4.5253  -24.2198 H   0  0  0  0  0  0  0  0  0  0  0  0
   -7.7608   -3.5115  -24.6293 H   0  0  0  0  0  0  0  0  0  0  0  0
  1  2  1  0
  2  3  1  0
  3  4  1  0
  4  5  1  0
  5  6  2  0
  6  7  1  0
  7  8  2  0
  8  9  1  0
  9 10  2  0
 10 11  1  0
 11 12  2  0
 12 13  1  0
 13 14  2  0
 13 15  1  0
 12 16  1  0
 11 17  1  0
 10 18  1  0
  8 19  1  0
  6 20  1  0
  4 21  1  0
 21 22  2  0
 21 23  1  0
 23 24  1  6
 24 25  1  0
 25 26  1  0
 26 27  1  0
 27 28  2  0
 28 29  1  0
 29 30  2  0
 30 31  1  0
 31 32  1  0
 32 33  1  0
 32 34  1  0
 32 35  1  0
 26 36  1  0
 26 37  1  0
 25 38  1  0
 38 39  2  0
 38 40  1  0
 40 41  2  0
 41 42  1  0
 42 43  2  0
 43 44  1  0
 43 45  1  0
 45 46  2  0
 45 47  1  0
 42 48  1  0
 41 49  1  0
 24 50  1  0
 24 51  1  0
  3 52  1  0
  3 53  1  0
  2 54  1  1
  1 55  1  0
  1 56  1  0
  1 57  1  0
 23  2  1  0
 31 27  1  0
 46 40  1  0
 14  5  1  0
 46 23  1  0
 14  9  1  0
M  END
>  <cnnaffinities>  (32) 
[6.70113, 6.446, 6.43443]

>  <score>  (32) 
6.70113

>  <index>  (32) 
32

>  <Smiles>  (32) 
C([C@]1(C(N(c2c(nc(c3c(c(c(c(c23)[H])[H])[H])[H])[H])[H])C(=O)[C@]21C(N(C(c1nnnn1C([H])([H])[H])([H])[H])C(=O)c1c(c(c(F)c(c21)[H])[H])[H])([H])[H])([H])[H])[H])([H])([H])[H]

>  <h>  (32) 
<NA>

>  <Training>  (32) 
True

>  <Success>  (32) 
True

>  <enamine_searched>  (32) 
False

>  <enamine_id>  (32) 
nan

$$$$

     RDKit          3D

 66 70  0  0  0  0  0  0  0  0999 V2000
   -7.3980    3.2846  -21.9337 C   0  0  0  0  0  0  0  0  0  0  0  0
   -8.4071    2.7526  -22.8352 N   0  0  0  0  0  0  0  0  0  0  0  0
   -8.0040    2.0528  -23.9274 C   0  0  0  0  0  0  0  0  0  0  0  0
   -6.8186    1.8721  -24.1676 O   0  0  0  0  0  0  0  0  0  0  0  0
   -9.1027    1.4742  -24.8301 C   0  0  0  0  0  0  0  0  0  0  0  0
   -9.6687    0.2783  -24.2318 N   0  0  0  0  0  0  0  0  0  0  0  0
   -8.8272   -0.9026  -24.0996 C   0  0  0  0  0  0  0  0  0  0  0  0
   -9.1159   -1.6952  -22.7931 C   0  0  2  0  0  0  0  0  0  0  0  0
   -8.5579   -0.9132  -21.5683 C   0  0  0  0  0  0  0  0  0  0  0  0
   -9.0552    0.0427  -21.0111 O   0  0  0  0  0  0  0  0  0  0  0  0
   -7.3586   -1.4817  -21.2083 N   0  0  0  0  0  0  0  0  0  0  0  0
   -6.5254   -0.9666  -20.1864 C   0  0  0  0  0  0  0  0  0  0  0  0
   -6.7398   -1.3076  -18.8753 C   0  0  0  0  0  0  0  0  0  0  0  0
   -5.8453   -1.0868  -17.8809 N   0  0  0  0  0  0  0  0  0  0  0  0
   -4.7216   -0.4965  -18.1963 C   0  0  0  0  0  0  0  0  0  0  0  0
   -4.4095   -0.0215  -19.5002 C   0  0  0  0  0  0  0  0  0  0  0  0
   -3.2169    0.6981  -19.7697 C   0  0  0  0  0  0  0  0  0  0  0  0
   -2.9824    1.2166  -21.0138 C   0  0  0  0  0  0  0  0  0  0  0  0
   -3.9316    1.0274  -22.0467 C   0  0  0  0  0  0  0  0  0  0  0  0
   -5.0667    0.2856  -21.8254 C   0  0  0  0  0  0  0  0  0  0  0  0
   -5.3501   -0.2325  -20.5324 C   0  0  0  0  0  0  0  0  0  0  0  0
   -5.7640    0.0894  -22.6391 H   0  0  0  0  0  0  0  0  0  0  0  0
   -3.7676    1.4634  -23.0281 H   0  0  0  0  0  0  0  0  0  0  0  0
   -2.0959    1.8151  -21.2019 H   0  0  0  0  0  0  0  0  0  0  0  0
   -2.5402    0.8839  -18.9391 H   0  0  0  0  0  0  0  0  0  0  0  0
   -3.9923   -0.3515  -17.3985 H   0  0  0  0  0  0  0  0  0  0  0  0
   -7.6599   -1.8114  -18.5847 H   0  0  0  0  0  0  0  0  0  0  0  0
   -6.9644   -2.6308  -21.9972 C   0  0  0  0  0  0  0  0  0  0  0  0
   -8.2657   -3.0046  -22.7295 C   0  0  2  0  0  0  0  0  0  0  0  0
   -7.9793   -3.6848  -24.0612 C   0  0  0  0  0  0  0  0  0  0  0  0
   -7.2490   -4.8658  -23.8086 O   0  0  0  0  0  0  0  0  0  0  0  0
   -7.0562   -5.6801  -24.9560 C   0  0  0  0  0  0  0  0  0  0  0  0
   -5.6889   -6.3344  -24.8521 C   0  0  0  0  0  0  0  0  0  0  0  0
   -5.4998   -6.9514  -25.7364 H   0  0  0  0  0  0  0  0  0  0  0  0
   -4.8986   -5.5835  -24.7782 H   0  0  0  0  0  0  0  0  0  0  0  0
   -5.6416   -6.9745  -23.9668 H   0  0  0  0  0  0  0  0  0  0  0  0
   -8.1636   -6.7184  -25.0474 C   0  0  0  0  0  0  0  0  0  0  0  0
   -8.1252   -7.3795  -24.1771 H   0  0  0  0  0  0  0  0  0  0  0  0
   -9.1510   -6.2504  -25.0779 H   0  0  0  0  0  0  0  0  0  0  0  0
   -8.0439   -7.3183  -25.9534 H   0  0  0  0  0  0  0  0  0  0  0  0
   -7.0764   -5.0427  -25.8537 H   0  0  0  0  0  0  0  0  0  0  0  0
   -8.9200   -3.8990  -24.5945 H   0  0  0  0  0  0  0  0  0  0  0  0
   -7.3769   -3.0216  -24.7066 H   0  0  0  0  0  0  0  0  0  0  0  0
   -8.7929   -3.7264  -22.1020 H   0  0  0  0  0  0  0  0  0  0  0  0
   -6.1566   -2.3844  -22.7025 H   0  0  0  0  0  0  0  0  0  0  0  0
   -6.5887   -3.4436  -21.3663 H   0  0  0  0  0  0  0  0  0  0  0  0
  -10.6240   -1.8703  -22.6815 C   0  0  0  0  0  0  0  0  0  0  0  0
  -11.1841   -2.8356  -21.8329 C   0  0  0  0  0  0  0  0  0  0  0  0
  -12.5570   -2.9127  -21.6675 C   0  0  0  0  0  0  0  0  0  0  0  0
  -13.2237   -4.0072  -20.4894 Cl  0  0  0  0  0  0  0  0  0  0  0  0
  -13.4280   -2.0955  -22.3875 C   0  0  0  0  0  0  0  0  0  0  0  0
  -12.8896   -1.1407  -23.2222 C   0  0  0  0  0  0  0  0  0  0  0  0
  -11.5088   -0.9921  -23.3288 C   0  0  0  0  0  0  0  0  0  0  0  0
  -11.0246    0.1958  -24.0961 C   0  0  0  0  0  0  0  0  0  0  0  0
  -11.7933    1.0362  -24.5444 O   0  0  0  0  0  0  0  0  0  0  0  0
  -13.5213   -0.4636  -23.7882 H   0  0  0  0  0  0  0  0  0  0  0  0
  -14.4995   -2.1953  -22.2607 H   0  0  0  0  0  0  0  0  0  0  0  0
  -10.5646   -3.5235  -21.2669 H   0  0  0  0  0  0  0  0  0  0  0  0
   -8.9892   -1.5602  -24.9662 H   0  0  0  0  0  0  0  0  0  0  0  0
   -7.7845   -0.5720  -24.1082 H   0  0  0  0  0  0  0  0  0  0  0  0
   -8.6681    1.2556  -25.8141 H   0  0  0  0  0  0  0  0  0  0  0  0
   -9.9359    2.1656  -24.9905 H   0  0  0  0  0  0  0  0  0  0  0  0
   -9.3318    2.5918  -22.4664 H   0  0  0  0  0  0  0  0  0  0  0  0
   -6.6867    3.8969  -22.4922 H   0  0  0  0  0  0  0  0  0  0  0  0
   -7.8676    3.9232  -21.1846 H   0  0  0  0  0  0  0  0  0  0  0  0
   -6.8191    2.4804  -21.4590 H   0  0  0  0  0  0  0  0  0  0  0  0
  1  2  1  0
  2  3  1  0
  3  4  2  0
  3  5  1  0
  5  6  1  0
  6  7  1  0
  8  7  1  6
  8  9  1  0
  9 10  2  0
  9 11  1  0
 11 12  1  0
 12 13  2  0
 13 14  1  0
 14 15  2  0
 15 16  1  0
 16 17  2  0
 17 18  1  0
 18 19  2  0
 19 20  1  0
 20 21  2  0
 20 22  1  0
 19 23  1  0
 18 24  1  0
 17 25  1  0
 15 26  1  0
 13 27  1  0
 11 28  1  0
 28 29  1  0
 29 30  1  0
 30 31  1  0
 31 32  1  0
 32 33  1  0
 33 34  1  0
 33 35  1  0
 33 36  1  0
 32 37  1  0
 37 38  1  0
 37 39  1  0
 37 40  1  0
 32 41  1  0
 30 42  1  0
 30 43  1  0
 29 44  1  1
 28 45  1  0
 28 46  1  0
  8 47  1  0
 47 48  2  0
 48 49  1  0
 49 50  1  0
 49 51  2  0
 51 52  1  0
 52 53  2  0
 53 54  1  0
 54 55  2  0
 52 56  1  0
 51 57  1  0
 48 58  1  0
  7 59  1  0
  7 60  1  0
  5 61  1  0
  5 62  1  0
  2 63  1  0
  1 64  1  0
  1 65  1  0
  1 66  1  0
 54  6  1  0
 29  8  1  0
 53 47  1  0
 21 12  1  0
 21 16  1  0
M  END
>  <cnnaffinities>  (33) 
[6.65351, 6.67202, 6.3519, 6.73747, 7.0102, 7.06194, 6.58212, 6.64112]

>  <score>  (33) 
6.65351

>  <index>  (33) 
34

>  <Smiles>  (33) 
C(N(C(=O)C(N1C([C@@]2(C(=O)N(c3c(nc(c4c(c(c(c(c34)[H])[H])[H])[H])[H])[H])C([C@@]2(C(OC(C([H])([H])[H])(C([H])([H])[H])[H])([H])[H])[H])([H])[H])c2c(c(Cl)c(c(c2C1=O)[H])[H])[H])([H])[H])([H])[H])[H])([H])([H])[H]

>  <h>  (33) 
<NA>

>  <Training>  (33) 
True

>  <Success>  (33) 
True

>  <enamine_searched>  (33) 
False

>  <enamine_id>  (33) 
nan

$$$$

     RDKit          3D

 40 42  0  0  0  0  0  0  0  0999 V2000
   -9.1397   -1.8222  -22.5146 O   0  0  0  0  0  0  0  0  0  0  0  0
   -8.1675   -1.0725  -22.4130 C   0  0  0  0  0  0  0  0  0  0  0  0
   -6.7618   -1.6475  -22.3294 C   0  0  0  0  0  0  0  0  0  0  0  0
   -6.0219   -1.2535  -21.0634 C   0  0  0  0  0  0  0  0  0  0  0  0
   -6.5894   -1.5589  -19.8471 C   0  0  0  0  0  0  0  0  0  0  0  0
   -6.0804   -1.2305  -18.6386 N   0  0  0  0  0  0  0  0  0  0  0  0
   -4.9577   -0.5563  -18.6310 C   0  0  0  0  0  0  0  0  0  0  0  0
   -4.2504   -0.1747  -19.8029 C   0  0  0  0  0  0  0  0  0  0  0  0
   -3.0681    0.6027  -19.7332 C   0  0  0  0  0  0  0  0  0  0  0  0
   -2.4209    0.9874  -20.8740 C   0  0  0  0  0  0  0  0  0  0  0  0
   -2.9216    0.6051  -22.1358 C   0  0  0  0  0  0  0  0  0  0  0  0
   -4.0728   -0.1441  -22.2301 C   0  0  0  0  0  0  0  0  0  0  0  0
   -4.7791   -0.5485  -21.0640 C   0  0  0  0  0  0  0  0  0  0  0  0
   -4.4614   -0.3860  -23.2177 H   0  0  0  0  0  0  0  0  0  0  0  0
   -2.4099    0.9267  -23.0381 H   0  0  0  0  0  0  0  0  0  0  0  0
   -1.5283    1.6011  -20.8149 H   0  0  0  0  0  0  0  0  0  0  0  0
   -2.7265    0.9143  -18.7490 H   0  0  0  0  0  0  0  0  0  0  0  0
   -4.5369   -0.2879  -17.6607 H   0  0  0  0  0  0  0  0  0  0  0  0
   -7.5241   -2.1182  -19.8180 H   0  0  0  0  0  0  0  0  0  0  0  0
   -6.9150   -2.7297  -22.3447 H   0  0  0  0  0  0  0  0  0  0  0  0
   -6.1780   -1.4096  -23.2233 H   0  0  0  0  0  0  0  0  0  0  0  0
   -8.2181    0.2834  -22.3219 N   0  0  0  0  0  0  0  0  0  0  0  0
   -9.4068    0.9461  -21.7311 C   0  0  0  0  0  0  0  0  0  0  0  0
   -9.3724    1.1088  -21.8910 C   0  0  0  0  0  0  0  0  0  0  0  0
   -8.8859    2.8988  -23.5721 C   0  0  0  0  0  0  0  0  0  0  0  0
   -8.5201    5.6767  -23.0891 C   0  0  0  0  0  0  0  0  0  0  0  0
   -7.7115    6.2520  -23.9531 F   0  0  0  0  0  0  0  0  0  0  0  0
   -9.6053    6.3992  -22.9043 F   0  0  0  0  0  0  0  0  0  0  0  0
   -7.9041    5.4420  -21.9504 F   0  0  0  0  0  0  0  0  0  0  0  0
   -7.6326    2.4792  -23.4725 C   0  0  0  0  0  0  0  0  0  0  0  0
   -7.1650    1.1352  -22.9904 C   0  0  0  0  0  0  0  0  0  0  0  0
   -6.7737    0.5814  -23.8407 H   0  0  0  0  0  0  0  0  0  0  0  0
   -6.3610    1.2961  -22.2659 H   0  0  0  0  0  0  0  0  0  0  0  0
   -9.6844    2.1921  -23.5282 H   0  0  0  0  0  0  0  0  0  0  0  0
   -6.8209    3.1380  -23.7712 H   0  0  0  0  0  0  0  0  0  0  0  0
   -9.1053    3.9568  -23.7272 H   0  0  0  0  0  0  0  0  0  0  0  0
  -10.2618    1.9098  -21.6334 H   0  0  0  0  0  0  0  0  0  0  0  0
   -8.6394    1.8675  -21.2619 H   0  0  0  0  0  0  0  0  0  0  0  0
   -9.8671   -0.0226  -20.5944 H   0  0  0  0  0  0  0  0  0  0  0  0
  -10.1206    0.7154  -22.7749 H   0  0  0  0  0  0  0  0  0  0  0  0
  1  2  2  0
  2  3  1  0
  3  4  1  0
  4  5  2  0
  5  6  1  0
  6  7  2  0
  7  8  1  0
  8  9  2  0
  9 10  1  0
 10 11  2  0
 11 12  1  0
 12 13  2  0
 12 14  1  0
 11 15  1  0
 10 16  1  0
  9 17  1  0
  7 18  1  0
  5 19  1  0
  3 20  1  0
  3 21  1  0
  2 22  1  0
 22 23  1  0
 23 24  1  0
 24 25  1  0
 25 26  1  0
 26 27  1  0
 26 28  1  0
 26 29  1  0
 25 30  1  0
 30 31  1  0
 31 32  1  0
 31 33  1  0
 30 34  1  0
 30 35  1  0
 25 36  1  0
 24 37  1  0
 24 38  1  0
 23 39  1  0
 23 40  1  0
 13  4  1  0
 31 22  1  0
 13  8  1  0
M  END
>  <cnnaffinities>  (34) 
[5.21625]

>  <score>  (34) 
5.21625

>  <index>  (34) 
35

>  <Smiles>  (34) 
O=C(C(c1c(nc(c2c(c(c(c(c12)[H])[H])[H])[H])[H])[H])([H])[H])N1C(C(C(C(F)(F)F)(C(C1([H])[H])([H])[H])[H])([H])[H])([H])[H]

>  <h>  (34) 
<NA>

>  <Training>  (34) 
True

>  <Success>  (34) 
True

>  <enamine_searched>  (34) 
False

>  <enamine_id>  (34) 
nan

$$$$

     RDKit          3D

 47 50  0  0  0  0  0  0  0  0999 V2000
   -8.7590    0.5979  -21.2773 O   0  0  0  0  0  0  0  0  0  0  0  0
   -8.4527   -0.4102  -21.8895 C   0  0  0  0  0  0  0  0  0  0  0  0
   -7.4552   -1.4379  -21.3234 C   0  0  0  0  0  0  0  0  0  0  0  0
   -6.5130   -0.9848  -20.2438 C   0  0  0  0  0  0  0  0  0  0  0  0
   -6.7612   -1.2591  -18.9283 C   0  0  0  0  0  0  0  0  0  0  0  0
   -5.9319   -0.9922  -17.8880 N   0  0  0  0  0  0  0  0  0  0  0  0
   -4.8127   -0.3729  -18.1687 C   0  0  0  0  0  0  0  0  0  0  0  0
   -4.4445    0.0377  -19.4807 C   0  0  0  0  0  0  0  0  0  0  0  0
   -3.2861    0.8209  -19.7202 C   0  0  0  0  0  0  0  0  0  0  0  0
   -3.0556    1.3483  -20.9609 C   0  0  0  0  0  0  0  0  0  0  0  0
   -3.9111    1.0156  -22.0378 C   0  0  0  0  0  0  0  0  0  0  0  0
   -4.9926    0.1926  -21.8589 C   0  0  0  0  0  0  0  0  0  0  0  0
   -5.3168   -0.2726  -20.5533 C   0  0  0  0  0  0  0  0  0  0  0  0
   -5.6718   -0.0040  -22.6855 H   0  0  0  0  0  0  0  0  0  0  0  0
   -3.7283    1.4452  -23.0189 H   0  0  0  0  0  0  0  0  0  0  0  0
   -2.2639    2.0709  -21.1196 H   0  0  0  0  0  0  0  0  0  0  0  0
   -2.6246    1.0405  -18.8859 H   0  0  0  0  0  0  0  0  0  0  0  0
   -4.1535   -0.1460  -17.3310 H   0  0  0  0  0  0  0  0  0  0  0  0
   -7.7142   -1.7045  -18.6575 H   0  0  0  0  0  0  0  0  0  0  0  0
   -6.8572   -1.8604  -22.1321 H   0  0  0  0  0  0  0  0  0  0  0  0
   -8.0862   -2.2442  -20.9247 H   0  0  0  0  0  0  0  0  0  0  0  0
   -9.0721   -0.7422  -23.0833 N   0  0  0  0  0  0  0  0  0  0  0  0
  -10.0711    0.2371  -23.5228 C   0  0  0  0  0  0  0  0  0  0  0  0
  -11.0538   -0.3032  -24.5484 C   0  0  0  0  0  0  0  0  0  0  0  0
  -10.3189   -0.9954  -25.6908 C   0  0  0  0  0  0  0  0  0  0  0  0
   -9.5196   -2.1575  -25.1037 C   0  0  0  0  0  0  0  0  0  0  0  0
   -8.5124   -1.7273  -24.0211 C   0  0  1  0  0  0  0  0  0  0  0  0
   -7.1790   -1.2947  -24.6414 C   0  0  0  0  0  0  0  0  0  0  0  0
   -6.1558   -2.2388  -24.7751 C   0  0  0  0  0  0  0  0  0  0  0  0
   -4.9353   -1.9023  -25.3532 C   0  0  0  0  0  0  0  0  0  0  0  0
   -4.7260   -0.6079  -25.8212 C   0  0  0  0  0  0  0  0  0  0  0  0
   -5.7472    0.3347  -25.7163 C   0  0  0  0  0  0  0  0  0  0  0  0
   -6.9645   -0.0066  -25.1312 C   0  0  0  0  0  0  0  0  0  0  0  0
   -7.7444    0.7495  -25.0667 H   0  0  0  0  0  0  0  0  0  0  0  0
   -5.5992    1.3434  -26.0952 H   0  0  0  0  0  0  0  0  0  0  0  0
   -3.7735   -0.3362  -26.2676 H   0  0  0  0  0  0  0  0  0  0  0  0
   -4.1505   -2.6510  -25.4333 H   0  0  0  0  0  0  0  0  0  0  0  0
   -6.3114   -3.2563  -24.4176 H   0  0  0  0  0  0  0  0  0  0  0  0
   -8.2995   -2.6325  -23.4360 H   0  0  0  0  0  0  0  0  0  0  0  0
   -8.9711   -2.7077  -25.8794 H   0  0  0  0  0  0  0  0  0  0  0  0
  -10.2247   -2.8633  -24.6501 H   0  0  0  0  0  0  0  0  0  0  0  0
   -9.6524   -0.2929  -26.2106 H   0  0  0  0  0  0  0  0  0  0  0  0
  -11.0289   -1.3663  -26.4376 H   0  0  0  0  0  0  0  0  0  0  0  0
  -11.6860    0.5260  -24.8954 H   0  0  0  0  0  0  0  0  0  0  0  0
  -11.7232   -1.0270  -24.0668 H   0  0  0  0  0  0  0  0  0  0  0  0
  -10.5979    0.5603  -22.6234 H   0  0  0  0  0  0  0  0  0  0  0  0
   -9.5611    1.1261  -23.9215 H   0  0  0  0  0  0  0  0  0  0  0  0
  1  2  2  0
  2  3  1  0
  3  4  1  0
  4  5  2  0
  5  6  1  0
  6  7  2  0
  7  8  1  0
  8  9  2  0
  9 10  1  0
 10 11  2  0
 11 12  1  0
 12 13  2  0
 12 14  1  0
 11 15  1  0
 10 16  1  0
  9 17  1  0
  7 18  1  0
  5 19  1  0
  3 20  1  0
  3 21  1  0
  2 22  1  0
 22 23  1  0
 23 24  1  0
 24 25  1  0
 25 26  1  0
 26 27  1  0
 27 28  1  0
 28 29  2  0
 29 30  1  0
 30 31  2  0
 31 32  1  0
 32 33  2  0
 33 34  1  0
 32 35  1  0
 31 36  1  0
 30 37  1  0
 29 38  1  0
 27 39  1  1
 26 40  1  0
 26 41  1  0
 25 42  1  0
 25 43  1  0
 24 44  1  0
 24 45  1  0
 23 46  1  0
 23 47  1  0
 13  4  1  0
 27 22  1  0
 33 28  1  0
 13  8  1  0
M  END
>  <cnnaffinities>  (35) 
[5.49879, 5.49888, 5.78821, 5.78663, 5.5792, 5.57922, 5.60946, 5.60981]

>  <score>  (35) 
5.49879

>  <index>  (35) 
36

>  <Smiles>  (35) 
O=C(C(c1c(nc(c2c(c(c(c(c12)[H])[H])[H])[H])[H])[H])([H])[H])N1C(C(C(C([C@]1(c1c(c(c(c(c1[H])[H])[H])[H])[H])[H])([H])[H])([H])[H])([H])[H])([H])[H]

>  <h>  (35) 
<NA>

>  <Training>  (35) 
True

>  <Success>  (35) 
True

>  <enamine_searched>  (35) 
False

>  <enamine_id>  (35) 
nan

$$$$

     RDKit          3D

 56 60  0  0  0  0  0  0  0  0999 V2000
   -7.2748    3.4166  -21.9262 C   0  0  0  0  0  0  0  0  0  0  0  0
   -8.1387    2.9709  -23.0103 N   0  0  0  0  0  0  0  0  0  0  0  0
   -7.5728    2.2382  -24.0125 C   0  0  0  0  0  0  0  0  0  0  0  0
   -6.3678    2.0562  -24.0998 O   0  0  0  0  0  0  0  0  0  0  0  0
   -8.5417    1.6437  -25.0376 C   0  0  0  0  0  0  0  0  0  0  0  0
   -9.2638    0.5195  -24.4699 N   0  0  0  0  0  0  0  0  0  0  0  0
   -8.5518   -0.7324  -24.2651 C   0  0  0  0  0  0  0  0  0  0  0  0
   -8.9896   -1.4386  -22.9579 C   0  0  2  0  0  0  0  0  0  0  0  0
   -8.4437   -0.6738  -21.7244 C   0  0  0  0  0  0  0  0  0  0  0  0
   -8.8368    0.3873  -21.2825 O   0  0  0  0  0  0  0  0  0  0  0  0
   -7.4074   -1.4035  -21.1961 N   0  0  0  0  0  0  0  0  0  0  0  0
   -6.5280   -0.9353  -20.1924 C   0  0  0  0  0  0  0  0  0  0  0  0
   -6.7711   -1.2473  -18.8861 C   0  0  0  0  0  0  0  0  0  0  0  0
   -5.9100   -0.9960  -17.8692 N   0  0  0  0  0  0  0  0  0  0  0  0
   -4.7854   -0.3930  -18.1661 C   0  0  0  0  0  0  0  0  0  0  0  0
   -4.4371    0.0352  -19.4782 C   0  0  0  0  0  0  0  0  0  0  0  0
   -3.2717    0.7955  -19.7382 C   0  0  0  0  0  0  0  0  0  0  0  0
   -3.0513    1.3204  -20.9837 C   0  0  0  0  0  0  0  0  0  0  0  0
   -3.9335    1.0231  -22.0510 C   0  0  0  0  0  0  0  0  0  0  0  0
   -5.0363    0.2385  -21.8373 C   0  0  0  0  0  0  0  0  0  0  0  0
   -5.3297   -0.2460  -20.5354 C   0  0  0  0  0  0  0  0  0  0  0  0
   -5.6939   -0.0060  -22.6677 H   0  0  0  0  0  0  0  0  0  0  0  0
   -3.7652    1.4563  -23.0320 H   0  0  0  0  0  0  0  0  0  0  0  0
   -2.2036    1.9752  -21.1554 H   0  0  0  0  0  0  0  0  0  0  0  0
   -2.6180    1.0107  -18.8983 H   0  0  0  0  0  0  0  0  0  0  0  0
   -4.0842   -0.1901  -17.3553 H   0  0  0  0  0  0  0  0  0  0  0  0
   -7.7040   -1.7522  -18.6381 H   0  0  0  0  0  0  0  0  0  0  0  0
   -7.0776   -2.6048  -21.9183 C   0  0  0  0  0  0  0  0  0  0  0  0
   -8.3013   -2.8368  -22.8161 C   0  0  2  0  0  0  0  0  0  0  0  0
   -7.9153   -3.5730  -24.0950 C   0  0  0  0  0  0  0  0  0  0  0  0
   -7.1483   -3.0171  -24.6471 H   0  0  0  0  0  0  0  0  0  0  0  0
   -7.4949   -4.5515  -23.8394 H   0  0  0  0  0  0  0  0  0  0  0  0
   -8.7725   -3.7295  -24.7580 H   0  0  0  0  0  0  0  0  0  0  0  0
   -8.9924   -3.4802  -22.2664 H   0  0  0  0  0  0  0  0  0  0  0  0
   -6.1485   -2.4938  -22.5054 H   0  0  0  0  0  0  0  0  0  0  0  0
   -6.9229   -3.4226  -21.2071 H   0  0  0  0  0  0  0  0  0  0  0  0
  -10.5068   -1.4521  -22.9032 C   0  0  0  0  0  0  0  0  0  0  0  0
  -11.1756   -2.3112  -22.0286 C   0  0  0  0  0  0  0  0  0  0  0  0
  -12.5555   -2.3170  -21.9461 C   0  0  0  0  0  0  0  0  0  0  0  0
  -13.3160   -1.4425  -22.7237 C   0  0  0  0  0  0  0  0  0  0  0  0
  -12.6717   -0.5479  -23.5529 C   0  0  0  0  0  0  0  0  0  0  0  0
  -11.2786   -0.5300  -23.6200 C   0  0  0  0  0  0  0  0  0  0  0  0
  -10.6315    0.5637  -24.4177 C   0  0  0  0  0  0  0  0  0  0  0  0
  -11.2861    1.4484  -24.9479 O   0  0  0  0  0  0  0  0  0  0  0  0
  -13.2182    0.1741  -24.1474 H   0  0  0  0  0  0  0  0  0  0  0  0
  -14.3989   -1.4468  -22.6514 H   0  0  0  0  0  0  0  0  0  0  0  0
  -13.0398   -3.0034  -21.2619 H   0  0  0  0  0  0  0  0  0  0  0  0
  -10.6180   -2.9821  -21.3824 H   0  0  0  0  0  0  0  0  0  0  0  0
   -8.7468   -1.4112  -25.1069 H   0  0  0  0  0  0  0  0  0  0  0  0
   -7.4750   -0.5305  -24.2440 H   0  0  0  0  0  0  0  0  0  0  0  0
   -7.9607    1.3203  -25.9083 H   0  0  0  0  0  0  0  0  0  0  0  0
   -9.2821    2.3788  -25.3677 H   0  0  0  0  0  0  0  0  0  0  0  0
   -9.1148    2.8182  -22.7862 H   0  0  0  0  0  0  0  0  0  0  0  0
   -6.7109    2.5695  -21.5061 H   0  0  0  0  0  0  0  0  0  0  0  0
   -6.5639    4.1618  -22.2957 H   0  0  0  0  0  0  0  0  0  0  0  0
   -7.8780    3.8858  -21.1464 H   0  0  0  0  0  0  0  0  0  0  0  0
  1  2  1  0
  2  3  1  0
  3  4  2  0
  3  5  1  0
  5  6  1  0
  6  7  1  0
  8  7  1  6
  8  9  1  0
  9 10  2  0
  9 11  1  0
 11 12  1  0
 12 13  2  0
 13 14  1  0
 14 15  2  0
 15 16  1  0
 16 17  2  0
 17 18  1  0
 18 19  2  0
 19 20  1  0
 20 21  2  0
 20 22  1  0
 19 23  1  0
 18 24  1  0
 17 25  1  0
 15 26  1  0
 13 27  1  0
 11 28  1  0
 28 29  1  0
 29 30  1  0
 30 31  1  0
 30 32  1  0
 30 33  1  0
 29 34  1  1
 28 35  1  0
 28 36  1  0
  8 37  1  0
 37 38  2  0
 38 39  1  0
 39 40  2  0
 40 41  1  0
 41 42  2  0
 42 43  1  0
 43 44  2  0
 41 45  1  0
 40 46  1  0
 39 47  1  0
 38 48  1  0
  7 49  1  0
  7 50  1  0
  5 51  1  0
  5 52  1  0
  2 53  1  0
  1 54  1  0
  1 55  1  0
  1 56  1  0
 43  6  1  0
 29  8  1  0
 42 37  1  0
 21 12  1  0
 21 16  1  0
M  END
>  <cnnaffinities>  (36) 
[6.3895, 6.18989, 6.17624]

>  <score>  (36) 
6.3895

>  <index>  (36) 
37

>  <Smiles>  (36) 
C(N(C(=O)C(N1C([C@@]2(C(=O)N(c3c(nc(c4c(c(c(c(c34)[H])[H])[H])[H])[H])[H])C([C@@]2(C([H])([H])[H])[H])([H])[H])c2c(c(c(c(c2C1=O)[H])[H])[H])[H])([H])[H])([H])[H])[H])([H])([H])[H]

>  <h>  (36) 
<NA>

>  <Training>  (36) 
True

>  <Success>  (36) 
True

>  <enamine_searched>  (36) 
False

>  <enamine_id>  (36) 
nan

$$$$

     RDKit          3D

 46 48  0  0  0  0  0  0  0  0999 V2000
   -8.1451   -4.6763  -26.5264 C   0  0  0  0  0  0  0  0  0  0  0  0
   -8.6486   -4.9431  -25.1041 C   0  0  1  0  0  0  0  0  0  0  0  0
   -7.5865   -5.5204  -24.1622 C   0  0  0  0  0  0  0  0  0  0  0  0
   -6.6157   -4.5126  -23.5452 C   0  0  1  0  0  0  0  0  0  0  0  0
   -5.4293   -4.1377  -24.4377 C   0  0  0  0  0  0  0  0  0  0  0  0
   -4.6311   -3.6990  -23.8321 H   0  0  0  0  0  0  0  0  0  0  0  0
   -5.6918   -3.4148  -25.2155 H   0  0  0  0  0  0  0  0  0  0  0  0
   -5.0461   -5.0450  -24.9166 H   0  0  0  0  0  0  0  0  0  0  0  0
   -7.3279   -3.3416  -23.0192 N   0  0  0  0  0  0  0  0  0  0  0  0
   -6.7232   -2.7302  -21.9534 C   0  0  0  0  0  0  0  0  0  0  0  0
   -5.6745   -3.1494  -21.4835 O   0  0  0  0  0  0  0  0  0  0  0  0
   -7.3999   -1.5113  -21.3081 C   0  0  0  0  0  0  0  0  0  0  0  0
   -6.4999   -0.9961  -20.2283 C   0  0  0  0  0  0  0  0  0  0  0  0
   -6.7545   -1.2765  -18.9146 C   0  0  0  0  0  0  0  0  0  0  0  0
   -5.9358   -0.9891  -17.8735 N   0  0  0  0  0  0  0  0  0  0  0  0
   -4.8267   -0.3476  -18.1501 C   0  0  0  0  0  0  0  0  0  0  0  0
   -4.4429    0.0421  -19.4629 C   0  0  0  0  0  0  0  0  0  0  0  0
   -3.2929    0.8372  -19.7083 C   0  0  0  0  0  0  0  0  0  0  0  0
   -3.0503    1.3450  -20.9582 C   0  0  0  0  0  0  0  0  0  0  0  0
   -3.8875    0.9850  -22.0379 C   0  0  0  0  0  0  0  0  0  0  0  0
   -4.9636    0.1587  -21.8427 C   0  0  0  0  0  0  0  0  0  0  0  0
   -5.3033   -0.2930  -20.5377 C   0  0  0  0  0  0  0  0  0  0  0  0
   -5.6314   -0.0662  -22.6702 H   0  0  0  0  0  0  0  0  0  0  0  0
   -3.6940    1.3913  -23.0277 H   0  0  0  0  0  0  0  0  0  0  0  0
   -2.2655    2.0776  -21.1127 H   0  0  0  0  0  0  0  0  0  0  0  0
   -2.6568    1.1037  -18.8672 H   0  0  0  0  0  0  0  0  0  0  0  0
   -4.1983   -0.0785  -17.3009 H   0  0  0  0  0  0  0  0  0  0  0  0
   -7.7077   -1.7263  -18.6437 H   0  0  0  0  0  0  0  0  0  0  0  0
   -7.6374   -0.7551  -22.0665 H   0  0  0  0  0  0  0  0  0  0  0  0
   -8.3632   -1.8226  -20.8824 H   0  0  0  0  0  0  0  0  0  0  0  0
   -8.4117   -2.7074  -23.7819 C   0  0  1  0  0  0  0  0  0  0  0  0
   -7.9322   -1.6646  -24.7963 C   0  0  0  0  0  0  0  0  0  0  0  0
   -7.4430   -2.1178  -25.6630 H   0  0  0  0  0  0  0  0  0  0  0  0
   -8.8023   -1.1088  -25.1634 H   0  0  0  0  0  0  0  0  0  0  0  0
   -7.2270   -0.9509  -24.3567 H   0  0  0  0  0  0  0  0  0  0  0  0
   -9.3366   -3.7598  -24.4087 C   0  0  0  0  0  0  0  0  0  0  0  0
   -9.9619   -4.1651  -23.6039 H   0  0  0  0  0  0  0  0  0  0  0  0
  -10.0074   -3.2441  -25.1113 H   0  0  0  0  0  0  0  0  0  0  0  0
   -9.0237   -2.1773  -23.0412 H   0  0  0  0  0  0  0  0  0  0  0  0
   -6.1918   -4.9925  -22.6583 H   0  0  0  0  0  0  0  0  0  0  0  0
   -8.1007   -6.0229  -23.3330 H   0  0  0  0  0  0  0  0  0  0  0  0
   -6.9901   -6.2837  -24.6824 H   0  0  0  0  0  0  0  0  0  0  0  0
   -9.4216   -5.7177  -25.2074 H   0  0  0  0  0  0  0  0  0  0  0  0
   -7.9054   -5.6216  -27.0289 H   0  0  0  0  0  0  0  0  0  0  0  0
   -8.9143   -4.1766  -27.1275 H   0  0  0  0  0  0  0  0  0  0  0  0
   -7.2398   -4.0642  -26.5609 H   0  0  0  0  0  0  0  0  0  0  0  0
  1  2  1  0
  2  3  1  0
  3  4  1  0
  4  5  1  0
  5  6  1  0
  5  7  1  0
  5  8  1  0
  4  9  1  0
  9 10  1  0
 10 11  2  0
 10 12  1  0
 12 13  1  0
 13 14  2  0
 14 15  1  0
 15 16  2  0
 16 17  1  0
 17 18  2  0
 18 19  1  0
 19 20  2  0
 20 21  1  0
 21 22  2  0
 21 23  1  0
 20 24  1  0
 19 25  1  0
 18 26  1  0
 16 27  1  0
 14 28  1  0
 12 29  1  0
 12 30  1  0
  9 31  1  0
 31 32  1  0
 32 33  1  0
 32 34  1  0
 32 35  1  0
 31 36  1  0
 36 37  1  0
 36 38  1  0
 31 39  1  1
  4 40  1  1
  3 41  1  0
  3 42  1  0
  2 43  1  6
  1 44  1  0
  1 45  1  0
  1 46  1  0
 36  2  1  0
 22 13  1  0
 22 17  1  0
M  END
>  <cnnaffinities>  (37) 
[5.45047]

>  <score>  (37) 
5.45047

>  <index>  (37) 
38

>  <Smiles>  (37) 
C([C@]1(C([C@@](C([H])([H])[H])(N(C(=O)C(c2c(nc(c3c(c(c(c(c23)[H])[H])[H])[H])[H])[H])([H])[H])[C@@](C([H])([H])[H])(C1([H])[H])[H])[H])([H])[H])[H])([H])([H])[H]

>  <h>  (37) 
<NA>

>  <Training>  (37) 
True

>  <Success>  (37) 
True

>  <enamine_searched>  (37) 
False

>  <enamine_id>  (37) 
nan

$$$$

     RDKit          3D

 40 44  0  0  0  0  0  0  0  0999 V2000
   -8.0895   -5.5604  -25.2408 C   0  0  0  0  0  0  0  0  0  0  0  0
   -9.3403   -4.7041  -25.1619 C   0  0  0  0  0  0  0  0  0  0  0  0
  -10.4598   -5.1534  -25.3211 O   0  0  0  0  0  0  0  0  0  0  0  0
   -9.1314   -3.3782  -24.8952 N   0  0  0  0  0  0  0  0  0  0  0  0
  -10.2604   -2.4865  -24.5665 C   0  0  0  0  0  0  0  0  0  0  0  0
   -9.5350   -1.2539  -24.0047 C   0  0  2  0  0  0  0  0  0  0  0  0
   -8.3022   -1.2106  -24.9264 C   0  0  0  0  0  0  0  0  0  0  0  0
   -7.8886   -2.6626  -24.5495 C   0  0  1  0  0  0  0  0  0  0  0  0
   -7.8382   -2.5072  -23.0944 C   0  0  0  0  0  0  0  0  0  0  0  0
   -6.8387   -2.4688  -22.0848 C   0  0  0  0  0  0  0  0  0  0  0  0
   -5.7850   -3.0498  -21.9542 O   0  0  0  0  0  1  0  0  0  0  0  0
   -7.3376   -1.4933  -21.1800 N   0  0  0  0  0  0  0  0  0  0  0  0
   -6.4994   -0.9678  -20.1777 C   0  0  0  0  0  0  0  0  0  0  0  0
   -6.7483   -1.2565  -18.8660 C   0  0  0  0  0  0  0  0  0  0  0  0
   -5.8906   -0.9901  -17.8514 N   0  0  0  0  0  0  0  0  0  0  0  0
   -4.7576   -0.4089  -18.1611 C   0  0  0  0  0  0  0  0  0  0  0  0
   -4.4263    0.0215  -19.4752 C   0  0  0  0  0  0  0  0  0  0  0  0
   -3.2554    0.7770  -19.7231 C   0  0  0  0  0  0  0  0  0  0  0  0
   -3.0325    1.3194  -20.9598 C   0  0  0  0  0  0  0  0  0  0  0  0
   -3.9276    1.0500  -22.0198 C   0  0  0  0  0  0  0  0  0  0  0  0
   -5.0379    0.2722  -21.8175 C   0  0  0  0  0  0  0  0  0  0  0  0
   -5.3209   -0.2480  -20.5255 C   0  0  0  0  0  0  0  0  0  0  0  0
   -5.7108    0.0469  -22.6394 H   0  0  0  0  0  0  0  0  0  0  0  0
   -3.7514    1.4904  -22.9959 H   0  0  0  0  0  0  0  0  0  0  0  0
   -2.1861    1.9806  -21.1264 H   0  0  0  0  0  0  0  0  0  0  0  0
   -2.5861    0.9579  -18.8876 H   0  0  0  0  0  0  0  0  0  0  0  0
   -4.0316   -0.2244  -17.3645 H   0  0  0  0  0  0  0  0  0  0  0  0
   -7.6738   -1.7620  -18.6110 H   0  0  0  0  0  0  0  0  0  0  0  0
   -8.5857   -0.9717  -21.5719 C   0  0  0  0  0  0  0  0  0  0  0  0
   -9.2240   -0.1045  -21.0308 O   0  0  0  0  0  0  0  0  0  0  0  0
   -8.8829   -1.6806  -22.7328 N   0  0  0  0  0  0  0  0  0  0  0  0
   -6.9967   -3.0759  -25.0155 H   0  0  0  0  0  0  0  0  0  0  0  0
   -7.5727   -0.4669  -24.6043 H   0  0  0  0  0  0  0  0  0  0  0  0
   -8.5239   -1.0888  -25.9850 H   0  0  0  0  0  0  0  0  0  0  0  0
  -10.1373   -0.3614  -23.8769 H   0  0  0  0  0  0  0  0  0  0  0  0
  -10.9246   -2.9640  -23.8439 H   0  0  0  0  0  0  0  0  0  0  0  0
  -10.8208   -2.2555  -25.4782 H   0  0  0  0  0  0  0  0  0  0  0  0
   -8.3866   -6.5881  -25.4466 H   0  0  0  0  0  0  0  0  0  0  0  0
   -7.5393   -5.5252  -24.2937 H   0  0  0  0  0  0  0  0  0  0  0  0
   -7.4303   -5.2072  -26.0412 H   0  0  0  0  0  0  0  0  0  0  0  0
  1  2  1  0
  2  3  2  0
  2  4  1  0
  4  5  1  0
  5  6  1  0
  6  7  1  0
  7  8  1  0
  8  9  1  0
  9 10  2  0
 10 11  1  0
 10 12  1  0
 12 13  1  0
 13 14  2  0
 14 15  1  0
 15 16  2  0
 16 17  1  0
 17 18  2  0
 18 19  1  0
 19 20  2  0
 20 21  1  0
 21 22  2  0
 21 23  1  0
 20 24  1  0
 19 25  1  0
 18 26  1  0
 16 27  1  0
 14 28  1  0
 12 29  1  0
 29 30  2  0
 29 31  1  0
  8 32  1  6
  7 33  1  0
  7 34  1  0
  6 35  1  1
  5 36  1  0
  5 37  1  0
  1 38  1  0
  1 39  1  0
  1 40  1  0
  8  4  1  0
 31  9  1  0
 31  6  1  0
 22 13  1  0
 22 17  1  0
M  CHG  1  11  -1
M  END
>  <cnnaffinities>  (38) 
[5.60126, 5.65892]

>  <score>  (38) 
5.60126

>  <index>  (38) 
39

>  <Smiles>  (38) 
C(C(=O)N1C([C@@]2(C([C@]1(c1c([O-])n(c3c(nc(c4c(c(c(c(c34)[H])[H])[H])[H])[H])[H])c(=O)n21)[H])([H])[H])[H])([H])[H])([H])([H])[H]

>  <h>  (38) 
<NA>

>  <Training>  (38) 
True

>  <Success>  (38) 
True

>  <enamine_searched>  (38) 
False

>  <enamine_id>  (38) 
nan

$$$$

     RDKit          3D

 40 42  0  0  0  0  0  0  0  0999 V2000
   -9.3139   -6.6187  -25.1193 C   0  0  0  0  0  0  0  0  0  0  0  0
   -8.9764   -5.7910  -23.8841 C   0  0  0  0  0  0  0  0  0  0  0  0
   -7.5125   -5.9671  -23.4843 C   0  0  0  0  0  0  0  0  0  0  0  0
   -7.2401   -5.1699  -22.2239 C   0  0  0  0  0  0  0  0  0  0  0  0
   -7.6259   -3.7716  -22.3459 N   0  0  0  0  0  0  0  0  0  0  0  0
   -6.7961   -2.8458  -21.7813 C   0  0  0  0  0  0  0  0  0  0  0  0
   -5.6080   -3.0769  -21.6054 O   0  0  0  0  0  0  0  0  0  0  0  0
   -7.4008   -1.5226  -21.2912 C   0  0  0  0  0  0  0  0  0  0  0  0
   -6.4984   -0.9899  -20.2159 C   0  0  0  0  0  0  0  0  0  0  0  0
   -6.7513   -1.2681  -18.8993 C   0  0  0  0  0  0  0  0  0  0  0  0
   -5.9264   -0.9886  -17.8604 N   0  0  0  0  0  0  0  0  0  0  0  0
   -4.8133   -0.3547  -18.1420 C   0  0  0  0  0  0  0  0  0  0  0  0
   -4.4374    0.0397  -19.4557 C   0  0  0  0  0  0  0  0  0  0  0  0
   -3.2849    0.8284  -19.7055 C   0  0  0  0  0  0  0  0  0  0  0  0
   -3.0473    1.3371  -20.9561 C   0  0  0  0  0  0  0  0  0  0  0  0
   -3.8862    0.9745  -22.0340 C   0  0  0  0  0  0  0  0  0  0  0  0
   -4.9606    0.1471  -21.8372 C   0  0  0  0  0  0  0  0  0  0  0  0
   -5.3007   -0.2910  -20.5284 C   0  0  0  0  0  0  0  0  0  0  0  0
   -5.6220   -0.0904  -22.6646 H   0  0  0  0  0  0  0  0  0  0  0  0
   -3.6980    1.3829  -23.0241 H   0  0  0  0  0  0  0  0  0  0  0  0
   -2.2592    2.0658  -21.1138 H   0  0  0  0  0  0  0  0  0  0  0  0
   -2.6405    1.0818  -18.8676 H   0  0  0  0  0  0  0  0  0  0  0  0
   -4.1704   -0.0989  -17.3002 H   0  0  0  0  0  0  0  0  0  0  0  0
   -7.7054   -1.7135  -18.6226 H   0  0  0  0  0  0  0  0  0  0  0  0
   -7.5456   -0.8269  -22.1297 H   0  0  0  0  0  0  0  0  0  0  0  0
   -8.3980   -1.7136  -20.8770 H   0  0  0  0  0  0  0  0  0  0  0  0
   -8.9827   -3.5076  -22.7946 C   0  0  0  0  0  0  0  0  0  0  0  0
   -9.2795   -4.3025  -24.0646 C   0  0  0  0  0  0  0  0  0  0  0  0
  -10.3303   -4.1516  -24.3415 H   0  0  0  0  0  0  0  0  0  0  0  0
   -8.6579   -3.9208  -24.8844 H   0  0  0  0  0  0  0  0  0  0  0  0
   -9.0865   -2.4344  -22.9826 H   0  0  0  0  0  0  0  0  0  0  0  0
   -9.7083   -3.7799  -22.0110 H   0  0  0  0  0  0  0  0  0  0  0  0
   -7.8394   -5.6510  -21.4406 H   0  0  0  0  0  0  0  0  0  0  0  0
   -6.1938   -5.1805  -21.9171 H   0  0  0  0  0  0  0  0  0  0  0  0
   -6.8597   -5.6732  -24.3152 H   0  0  0  0  0  0  0  0  0  0  0  0
   -7.3045   -7.0225  -23.2640 H   0  0  0  0  0  0  0  0  0  0  0  0
   -9.5775   -6.1473  -23.0400 H   0  0  0  0  0  0  0  0  0  0  0  0
   -9.1350   -7.6848  -24.9428 H   0  0  0  0  0  0  0  0  0  0  0  0
  -10.3590   -6.5006  -25.4252 H   0  0  0  0  0  0  0  0  0  0  0  0
   -8.6810   -6.3117  -25.9596 H   0  0  0  0  0  0  0  0  0  0  0  0
  1  2  1  0
  2  3  1  0
  3  4  1  0
  4  5  1  0
  5  6  1  0
  6  7  2  0
  6  8  1  0
  8  9  1  0
  9 10  2  0
 10 11  1  0
 11 12  2  0
 12 13  1  0
 13 14  2  0
 14 15  1  0
 15 16  2  0
 16 17  1  0
 17 18  2  0
 17 19  1  0
 16 20  1  0
 15 21  1  0
 14 22  1  0
 12 23  1  0
 10 24  1  0
  8 25  1  0
  8 26  1  0
  5 27  1  0
 27 28  1  0
 28 29  1  0
 28 30  1  0
 27 31  1  0
 27 32  1  0
  4 33  1  0
  4 34  1  0
  3 35  1  0
  3 36  1  0
  2 37  1  0
  1 38  1  0
  1 39  1  0
  1 40  1  0
 28  2  1  0
 18  9  1  0
 18 13  1  0
M  END
>  <cnnaffinities>  (39) 
[5.16462, 5.16448]

>  <score>  (39) 
5.16462

>  <index>  (39) 
40

>  <Smiles>  (39) 
C(C1(C(C(N(C(=O)C(c2c(nc(c3c(c(c(c(c23)[H])[H])[H])[H])[H])[H])([H])[H])C(C1([H])[H])([H])[H])([H])[H])([H])[H])[H])([H])([H])[H]

>  <h>  (39) 
<NA>

>  <Training>  (39) 
True

>  <Success>  (39) 
True

>  <enamine_searched>  (39) 
False

>  <enamine_id>  (39) 
nan

$$$$

     RDKit          3D

 67 71  0  0  0  0  0  0  0  0999 V2000
   -7.5795    3.0011  -22.0154 C   0  0  0  0  0  0  0  0  0  0  0  0
   -8.7339    2.4873  -22.7469 N   0  0  0  0  0  0  0  0  0  0  0  0
   -8.4914    1.6926  -23.8333 C   0  0  0  0  0  0  0  0  0  0  0  0
   -7.3539    1.4281  -24.2028 O   0  0  0  0  0  0  0  0  0  0  0  0
   -9.7099    1.1267  -24.5742 C   0  0  0  0  0  0  0  0  0  0  0  0
  -10.1533   -0.0975  -23.9374 N   0  0  0  0  0  0  0  0  0  0  0  0
   -9.2550   -1.2422  -23.9042 C   0  0  0  0  0  0  0  0  0  0  0  0
   -9.3192   -1.9746  -22.5346 C   0  0  2  0  0  0  0  0  0  0  0  0
   -8.6880   -1.0408  -21.4531 C   0  0  0  0  0  0  0  0  0  0  0  0
   -9.1981   -0.0669  -20.9353 O   0  0  0  0  0  0  0  0  0  0  0  0
   -7.3990   -1.4739  -21.2135 N   0  0  0  0  0  0  0  0  0  0  0  0
   -6.5595   -0.9641  -20.1941 C   0  0  0  0  0  0  0  0  0  0  0  0
   -6.7744   -1.3027  -18.8785 C   0  0  0  0  0  0  0  0  0  0  0  0
   -5.8718   -1.0901  -17.8909 N   0  0  0  0  0  0  0  0  0  0  0  0
   -4.7492   -0.4965  -18.2069 C   0  0  0  0  0  0  0  0  0  0  0  0
   -4.4336   -0.0335  -19.5137 C   0  0  0  0  0  0  0  0  0  0  0  0
   -3.2451    0.6897  -19.7870 C   0  0  0  0  0  0  0  0  0  0  0  0
   -3.0296    1.2285  -21.0227 C   0  0  0  0  0  0  0  0  0  0  0  0
   -3.9660    1.0272  -22.0624 C   0  0  0  0  0  0  0  0  0  0  0  0
   -5.0933    0.2665  -21.8413 C   0  0  0  0  0  0  0  0  0  0  0  0
   -5.3759   -0.2410  -20.5427 C   0  0  0  0  0  0  0  0  0  0  0  0
   -5.8018    0.0981  -22.6488 H   0  0  0  0  0  0  0  0  0  0  0  0
   -3.7986    1.4663  -23.0424 H   0  0  0  0  0  0  0  0  0  0  0  0
   -2.1510    1.8398  -21.2090 H   0  0  0  0  0  0  0  0  0  0  0  0
   -2.5612    0.8701  -18.9627 H   0  0  0  0  0  0  0  0  0  0  0  0
   -4.0205   -0.3372  -17.4109 H   0  0  0  0  0  0  0  0  0  0  0  0
   -7.6934   -1.8034  -18.5787 H   0  0  0  0  0  0  0  0  0  0  0  0
   -6.9938   -2.6128  -22.0088 C   0  0  0  0  0  0  0  0  0  0  0  0
   -8.3435   -3.1852  -22.4719 C   0  0  2  0  0  0  0  0  0  0  0  0
   -8.2376   -3.9875  -23.7614 C   0  0  0  0  0  0  0  0  0  0  0  0
   -7.2781   -5.4758  -23.5367 S   0  0  0  0  0  0  0  0  0  0  0  0
   -5.8816   -5.1067  -23.3844 O   0  0  0  0  0  0  0  0  0  0  0  0
   -7.9510   -6.3009  -22.5382 O   0  0  0  0  0  0  0  0  0  0  0  0
   -7.4287   -6.2408  -24.9990 N   0  0  0  0  0  0  0  0  0  0  0  0
   -8.6914   -6.9087  -25.2666 C   0  0  0  0  0  0  0  0  0  0  0  0
   -9.5214   -6.2261  -25.5017 H   0  0  0  0  0  0  0  0  0  0  0  0
   -8.5473   -7.5741  -26.1202 H   0  0  0  0  0  0  0  0  0  0  0  0
   -8.9593   -7.5062  -24.3949 H   0  0  0  0  0  0  0  0  0  0  0  0
   -6.7451   -5.6471  -26.1379 C   0  0  0  0  0  0  0  0  0  0  0  0
   -7.2776   -4.7913  -26.5791 H   0  0  0  0  0  0  0  0  0  0  0  0
   -6.6348   -6.4156  -26.9069 H   0  0  0  0  0  0  0  0  0  0  0  0
   -5.7499   -5.3244  -25.8314 H   0  0  0  0  0  0  0  0  0  0  0  0
   -9.2323   -4.2820  -24.1064 H   0  0  0  0  0  0  0  0  0  0  0  0
   -7.7336   -3.4019  -24.5394 H   0  0  0  0  0  0  0  0  0  0  0  0
   -8.6777   -3.8456  -21.6669 H   0  0  0  0  0  0  0  0  0  0  0  0
   -6.3618   -2.3045  -22.8552 H   0  0  0  0  0  0  0  0  0  0  0  0
   -6.4069   -3.3261  -21.4215 H   0  0  0  0  0  0  0  0  0  0  0  0
  -10.7938   -2.2916  -22.2839 C   0  0  0  0  0  0  0  0  0  0  0  0
  -11.2380   -3.4107  -21.5609 C   0  0  0  0  0  0  0  0  0  0  0  0
  -12.5668   -3.4808  -21.1714 C   0  0  0  0  0  0  0  0  0  0  0  0
  -12.9487   -4.3710  -20.2410 F   0  0  0  0  0  0  0  0  0  0  0  0
  -13.5396   -2.6014  -21.6191 C   0  0  0  0  0  0  0  0  0  0  0  0
  -13.1335   -1.5655  -22.4267 C   0  0  0  0  0  0  0  0  0  0  0  0
  -11.7812   -1.3880  -22.7144 C   0  0  0  0  0  0  0  0  0  0  0  0
  -11.4375   -0.1623  -23.4884 C   0  0  0  0  0  0  0  0  0  0  0  0
  -12.2616    0.7211  -23.6986 O   0  0  0  0  0  0  0  0  0  0  0  0
  -13.8439   -0.8520  -22.8281 H   0  0  0  0  0  0  0  0  0  0  0  0
  -14.5647   -2.7330  -21.2932 H   0  0  0  0  0  0  0  0  0  0  0  0
  -10.5640   -4.1857  -21.2127 H   0  0  0  0  0  0  0  0  0  0  0  0
   -9.5192   -1.9393  -24.7122 H   0  0  0  0  0  0  0  0  0  0  0  0
   -8.2460   -0.8640  -24.0932 H   0  0  0  0  0  0  0  0  0  0  0  0
   -9.4252    0.9383  -25.6198 H   0  0  0  0  0  0  0  0  0  0  0  0
  -10.5649    1.8095  -24.5675 H   0  0  0  0  0  0  0  0  0  0  0  0
   -9.5886    2.3469  -22.2165 H   0  0  0  0  0  0  0  0  0  0  0  0
   -7.8898    3.7585  -21.2870 H   0  0  0  0  0  0  0  0  0  0  0  0
   -7.0300    2.2055  -21.4889 H   0  0  0  0  0  0  0  0  0  0  0  0
   -6.8869    3.4558  -22.7307 H   0  0  0  0  0  0  0  0  0  0  0  0
  1  2  1  0
  2  3  1  0
  3  4  2  0
  3  5  1  0
  5  6  1  0
  6  7  1  0
  8  7  1  6
  8  9  1  0
  9 10  2  0
  9 11  1  0
 11 12  1  0
 12 13  2  0
 13 14  1  0
 14 15  2  0
 15 16  1  0
 16 17  2  0
 17 18  1  0
 18 19  2  0
 19 20  1  0
 20 21  2  0
 20 22  1  0
 19 23  1  0
 18 24  1  0
 17 25  1  0
 15 26  1  0
 13 27  1  0
 11 28  1  0
 28 29  1  0
 29 30  1  0
 30 31  1  0
 31 32  2  0
 31 33  2  0
 31 34  1  0
 34 35  1  0
 35 36  1  0
 35 37  1  0
 35 38  1  0
 34 39  1  0
 39 40  1  0
 39 41  1  0
 39 42  1  0
 30 43  1  0
 30 44  1  0
 29 45  1  1
 28 46  1  0
 28 47  1  0
  8 48  1  0
 48 49  2  0
 49 50  1  0
 50 51  1  0
 50 52  2  0
 52 53  1  0
 53 54  2  0
 54 55  1  0
 55 56  2  0
 53 57  1  0
 52 58  1  0
 49 59  1  0
  7 60  1  0
  7 61  1  0
  5 62  1  0
  5 63  1  0
  2 64  1  0
  1 65  1  0
  1 66  1  0
  1 67  1  0
 55  6  1  0
 29  8  1  0
 54 48  1  0
 21 12  1  0
 21 16  1  0
M  END
>  <cnnaffinities>  (40) 
[7.0157]

>  <score>  (40) 
7.0157

>  <index>  (40) 
41

>  <Smiles>  (40) 
C(N(C(=O)C(N1C([C@@]2(C(=O)N(c3c(nc(c4c(c(c(c(c34)[H])[H])[H])[H])[H])[H])C([C@@]2(C(S(=O)(=O)N(C([H])([H])[H])C([H])([H])[H])([H])[H])[H])([H])[H])c2c(c(F)c(c(c2C1=O)[H])[H])[H])([H])[H])([H])[H])[H])([H])([H])[H]

>  <h>  (40) 
<NA>

>  <Training>  (40) 
True

>  <Success>  (40) 
True

>  <enamine_searched>  (40) 
False

>  <enamine_id>  (40) 
nan

$$$$

     RDKit          3D

 67 72  0  0  0  0  0  0  0  0999 V2000
   -7.7968   -3.3442  -29.1351 C   0  0  0  0  0  0  0  0  0  0  0  0
   -8.5108   -2.4182  -28.2738 N   0  0  0  0  0  0  0  0  0  0  0  0
   -7.8638   -1.7646  -27.2790 C   0  0  0  0  0  0  0  0  0  0  0  0
   -6.7281   -2.0412  -26.9122 O   0  0  0  0  0  0  0  0  0  0  0  0
   -8.6792   -0.6289  -26.6565 C   0  0  0  0  0  0  0  0  0  0  0  0
   -9.2889   -1.0534  -25.4100 N   0  0  0  0  0  0  0  0  0  0  0  0
   -8.6000   -0.7049  -24.1736 C   0  0  0  0  0  0  0  0  0  0  0  0
   -9.0567   -1.5318  -22.9473 C   0  0  2  0  0  0  0  0  0  0  0  0
   -8.5323   -0.7799  -21.6962 C   0  0  0  0  0  0  0  0  0  0  0  0
   -8.9667    0.2456  -21.2140 O   0  0  0  0  0  0  0  0  0  0  0  0
   -7.4076   -1.4395  -21.2407 N   0  0  0  0  0  0  0  0  0  0  0  0
   -6.5391   -0.9619  -20.2267 C   0  0  0  0  0  0  0  0  0  0  0  0
   -6.7837   -1.2626  -18.9150 C   0  0  0  0  0  0  0  0  0  0  0  0
   -5.9137   -1.0308  -17.8995 N   0  0  0  0  0  0  0  0  0  0  0  0
   -4.7824   -0.4401  -18.1899 C   0  0  0  0  0  0  0  0  0  0  0  0
   -4.4329   -0.0058  -19.4987 C   0  0  0  0  0  0  0  0  0  0  0  0
   -3.2552    0.7433  -19.7503 C   0  0  0  0  0  0  0  0  0  0  0  0
   -3.0413    1.2940  -20.9849 C   0  0  0  0  0  0  0  0  0  0  0  0
   -3.9228    1.0124  -22.0537 C   0  0  0  0  0  0  0  0  0  0  0  0
   -5.0281    0.2250  -21.8529 C   0  0  0  0  0  0  0  0  0  0  0  0
   -5.3319   -0.2685  -20.5545 C   0  0  0  0  0  0  0  0  0  0  0  0
   -5.6995   -0.0006  -22.6770 H   0  0  0  0  0  0  0  0  0  0  0  0
   -3.7376    1.4478  -23.0299 H   0  0  0  0  0  0  0  0  0  0  0  0
   -2.1882    1.9446  -21.1517 H   0  0  0  0  0  0  0  0  0  0  0  0
   -2.6031    0.9499  -18.9061 H   0  0  0  0  0  0  0  0  0  0  0  0
   -4.0764   -0.2592  -17.3792 H   0  0  0  0  0  0  0  0  0  0  0  0
   -7.7184   -1.7601  -18.6626 H   0  0  0  0  0  0  0  0  0  0  0  0
   -7.0571   -2.6222  -21.9908 C   0  0  0  0  0  0  0  0  0  0  0  0
   -8.3286   -2.9139  -22.7851 C   0  0  2  0  0  0  0  0  0  0  0  0
   -8.0164   -3.7155  -24.0402 C   0  0  0  0  0  0  0  0  0  0  0  0
   -9.2345   -4.2457  -24.5971 N   0  0  0  0  0  0  0  0  0  0  0  0
   -9.3237   -4.9189  -25.7813 C   0  0  0  0  0  0  0  0  0  0  0  0
  -10.8575   -5.1093  -26.5944 S   0  0  0  0  0  0  0  0  0  0  0  0
  -10.0541   -6.0309  -27.8125 C   0  0  0  0  0  0  0  0  0  0  0  0
   -8.7816   -6.1867  -27.6456 N   0  0  0  0  0  0  0  0  0  0  0  0
   -8.3458   -5.5696  -26.4974 C   0  0  0  0  0  0  0  0  0  0  0  0
   -6.8904   -5.6707  -26.1417 C   0  0  0  0  0  0  0  0  0  0  0  0
   -6.3732   -6.2660  -26.8986 H   0  0  0  0  0  0  0  0  0  0  0  0
   -6.7471   -6.1662  -25.1746 H   0  0  0  0  0  0  0  0  0  0  0  0
   -6.4181   -4.6813  -26.0919 H   0  0  0  0  0  0  0  0  0  0  0  0
  -10.6015   -6.4074  -28.6644 H   0  0  0  0  0  0  0  0  0  0  0  0
  -10.1045   -3.9694  -24.1573 H   0  0  0  0  0  0  0  0  0  0  0  0
   -7.3439   -4.5379  -23.7586 H   0  0  0  0  0  0  0  0  0  0  0  0
   -7.4920   -3.0976  -24.7828 H   0  0  0  0  0  0  0  0  0  0  0  0
   -8.9800   -3.5304  -22.1484 H   0  0  0  0  0  0  0  0  0  0  0  0
   -6.1862   -2.4571  -22.6506 H   0  0  0  0  0  0  0  0  0  0  0  0
   -6.7899   -3.4301  -21.2991 H   0  0  0  0  0  0  0  0  0  0  0  0
  -10.5675   -1.6524  -22.9681 C   0  0  0  0  0  0  0  0  0  0  0  0
  -11.2650   -2.0170  -21.8142 C   0  0  0  0  0  0  0  0  0  0  0  0
  -12.6315   -2.2422  -21.8626 C   0  0  0  0  0  0  0  0  0  0  0  0
  -13.3999   -2.9650  -20.4856 Cl  0  0  0  0  0  0  0  0  0  0  0  0
  -13.3837   -1.9270  -22.9953 C   0  0  0  0  0  0  0  0  0  0  0  0
  -12.6962   -1.5114  -24.1221 C   0  0  0  0  0  0  0  0  0  0  0  0
  -11.3047   -1.4928  -24.1449 C   0  0  0  0  0  0  0  0  0  0  0  0
  -10.6084   -1.4040  -25.4617 C   0  0  0  0  0  0  0  0  0  0  0  0
  -11.1825   -1.6224  -26.5265 O   0  0  0  0  0  0  0  0  0  0  0  0
  -13.2208   -1.2150  -25.0250 H   0  0  0  0  0  0  0  0  0  0  0  0
  -14.4656   -2.0480  -23.0142 H   0  0  0  0  0  0  0  0  0  0  0  0
  -10.7288   -2.1302  -20.8836 H   0  0  0  0  0  0  0  0  0  0  0  0
   -8.7598    0.3587  -23.9489 H   0  0  0  0  0  0  0  0  0  0  0  0
   -7.5204   -0.8409  -24.3386 H   0  0  0  0  0  0  0  0  0  0  0  0
   -8.0190    0.2184  -26.4505 H   0  0  0  0  0  0  0  0  0  0  0  0
   -9.4676   -0.3048  -27.3470 H   0  0  0  0  0  0  0  0  0  0  0  0
   -9.5108   -2.2869  -28.3582 H   0  0  0  0  0  0  0  0  0  0  0  0
   -7.1107   -3.9280  -28.5132 H   0  0  0  0  0  0  0  0  0  0  0  0
   -7.2220   -2.8181  -29.9110 H   0  0  0  0  0  0  0  0  0  0  0  0
   -8.4989   -4.0307  -29.6111 H   0  0  0  0  0  0  0  0  0  0  0  0
  1  2  1  0
  2  3  1  0
  3  4  2  0
  3  5  1  0
  5  6  1  0
  6  7  1  0
  8  7  1  6
  8  9  1  0
  9 10  2  0
  9 11  1  0
 11 12  1  0
 12 13  2  0
 13 14  1  0
 14 15  2  0
 15 16  1  0
 16 17  2  0
 17 18  1  0
 18 19  2  0
 19 20  1  0
 20 21  2  0
 20 22  1  0
 19 23  1  0
 18 24  1  0
 17 25  1  0
 15 26  1  0
 13 27  1  0
 11 28  1  0
 28 29  1  0
 29 30  1  0
 30 31  1  0
 31 32  1  0
 32 33  1  0
 33 34  1  0
 34 35  2  0
 35 36  1  0
 36 37  1  0
 37 38  1  0
 37 39  1  0
 37 40  1  0
 34 41  1  0
 31 42  1  0
 30 43  1  0
 30 44  1  0
 29 45  1  1
 28 46  1  0
 28 47  1  0
  8 48  1  0
 48 49  2  0
 49 50  1  0
 50 51  1  0
 50 52  2  0
 52 53  1  0
 53 54  2  0
 54 55  1  0
 55 56  2  0
 53 57  1  0
 52 58  1  0
 49 59  1  0
  7 60  1  0
  7 61  1  0
  5 62  1  0
  5 63  1  0
  2 64  1  0
  1 65  1  0
  1 66  1  0
  1 67  1  0
 55  6  1  0
 29  8  1  0
 36 32  2  0
 54 48  1  0
 21 12  1  0
 21 16  1  0
M  END
>  <cnnaffinities>  (41) 
[6.35159]

>  <score>  (41) 
6.35159

>  <index>  (41) 
43

>  <Smiles>  (41) 
C(N(C(=O)C(N1C([C@@]2(C(=O)N(c3c(nc(c4c(c(c(c(c34)[H])[H])[H])[H])[H])[H])C([C@@]2(C(N(c2sc(nc2C([H])([H])[H])[H])[H])([H])[H])[H])([H])[H])c2c(c(Cl)c(c(c2C1=O)[H])[H])[H])([H])[H])([H])[H])[H])([H])([H])[H]

>  <h>  (41) 
<NA>

>  <Training>  (41) 
True

>  <Success>  (41) 
True

>  <enamine_searched>  (41) 
False

>  <enamine_id>  (41) 
nan

$$$$

     RDKit          3D

 60 64  0  0  0  0  0  0  0  0999 V2000
   -7.3335    3.3720  -21.8644 C   0  0  0  0  0  0  0  0  0  0  0  0
   -8.2497    2.9210  -22.9010 N   0  0  0  0  0  0  0  0  0  0  0  0
   -7.7118    2.2102  -23.9352 C   0  0  0  0  0  0  0  0  0  0  0  0
   -6.5072    2.0413  -24.0565 O   0  0  0  0  0  0  0  0  0  0  0  0
   -8.6958    1.6189  -24.9449 C   0  0  0  0  0  0  0  0  0  0  0  0
   -9.3878    0.4784  -24.3702 N   0  0  0  0  0  0  0  0  0  0  0  0
   -8.6583   -0.7723  -24.1954 C   0  0  0  0  0  0  0  0  0  0  0  0
   -9.0617   -1.5001  -22.8868 C   0  0  2  0  0  0  0  0  0  0  0  0
   -8.5154   -0.7392  -21.6492 C   0  0  0  0  0  0  0  0  0  0  0  0
   -8.9540    0.2759  -21.1488 O   0  0  0  0  0  0  0  0  0  0  0  0
   -7.4042   -1.4135  -21.2012 N   0  0  0  0  0  0  0  0  0  0  0  0
   -6.5313   -0.9414  -20.1953 C   0  0  0  0  0  0  0  0  0  0  0  0
   -6.7746   -1.2482  -18.8856 C   0  0  0  0  0  0  0  0  0  0  0  0
   -5.9069   -1.0035  -17.8725 N   0  0  0  0  0  0  0  0  0  0  0  0
   -4.7792   -0.4081  -18.1721 C   0  0  0  0  0  0  0  0  0  0  0  0
   -4.4365    0.0246  -19.4839 C   0  0  0  0  0  0  0  0  0  0  0  0
   -3.2683    0.7811  -19.7439 C   0  0  0  0  0  0  0  0  0  0  0  0
   -3.0532    1.3124  -20.9862 C   0  0  0  0  0  0  0  0  0  0  0  0
   -3.9419    1.0281  -22.0516 C   0  0  0  0  0  0  0  0  0  0  0  0
   -5.0490    0.2450  -21.8368 C   0  0  0  0  0  0  0  0  0  0  0  0
   -5.3337   -0.2496  -20.5381 C   0  0  0  0  0  0  0  0  0  0  0  0
   -5.7152    0.0126  -22.6630 H   0  0  0  0  0  0  0  0  0  0  0  0
   -3.7763    1.4683  -23.0287 H   0  0  0  0  0  0  0  0  0  0  0  0
   -2.2005    1.9617  -21.1587 H   0  0  0  0  0  0  0  0  0  0  0  0
   -2.6115    0.9846  -18.9041 H   0  0  0  0  0  0  0  0  0  0  0  0
   -4.0668   -0.2192  -17.3674 H   0  0  0  0  0  0  0  0  0  0  0  0
   -7.7047   -1.7570  -18.6363 H   0  0  0  0  0  0  0  0  0  0  0  0
   -7.0675   -2.5965  -21.9494 C   0  0  0  0  0  0  0  0  0  0  0  0
   -8.3366   -2.8749  -22.7577 C   0  0  2  0  0  0  0  0  0  0  0  0
   -7.9915   -3.6303  -24.0264 C   0  0  0  0  0  0  0  0  0  0  0  0
   -9.1617   -3.9158  -24.7470 O   0  0  0  0  0  0  0  0  0  0  0  0
   -8.8891   -4.5710  -25.9618 C   0  0  0  0  0  0  0  0  0  0  0  0
   -8.2931   -3.9392  -26.6384 H   0  0  0  0  0  0  0  0  0  0  0  0
   -8.3426   -5.5129  -25.8023 H   0  0  0  0  0  0  0  0  0  0  0  0
   -9.8437   -4.7967  -26.4411 H   0  0  0  0  0  0  0  0  0  0  0  0
   -7.2872   -3.0343  -24.6317 H   0  0  0  0  0  0  0  0  0  0  0  0
   -7.4676   -4.5604  -23.7478 H   0  0  0  0  0  0  0  0  0  0  0  0
   -8.9811   -3.5282  -22.1698 H   0  0  0  0  0  0  0  0  0  0  0  0
   -6.1932   -2.4423  -22.6079 H   0  0  0  0  0  0  0  0  0  0  0  0
   -6.8260   -3.4089  -21.2571 H   0  0  0  0  0  0  0  0  0  0  0  0
  -10.5762   -1.5515  -22.8336 C   0  0  0  0  0  0  0  0  0  0  0  0
  -11.2216   -2.4515  -21.9812 C   0  0  0  0  0  0  0  0  0  0  0  0
  -12.6001   -2.4633  -21.8906 C   0  0  0  0  0  0  0  0  0  0  0  0
  -13.3558   -3.5775  -20.7960 Cl  0  0  0  0  0  0  0  0  0  0  0  0
  -13.3949   -1.5905  -22.6314 C   0  0  0  0  0  0  0  0  0  0  0  0
  -12.7613   -0.6694  -23.4389 C   0  0  0  0  0  0  0  0  0  0  0  0
  -11.3704   -0.6236  -23.5201 C   0  0  0  0  0  0  0  0  0  0  0  0
  -10.7551    0.5030  -24.2948 C   0  0  0  0  0  0  0  0  0  0  0  0
  -11.4279    1.3938  -24.7919 O   0  0  0  0  0  0  0  0  0  0  0  0
  -13.3243    0.0603  -24.0060 H   0  0  0  0  0  0  0  0  0  0  0  0
  -14.4764   -1.6169  -22.5447 H   0  0  0  0  0  0  0  0  0  0  0  0
  -10.6617   -3.1352  -21.3545 H   0  0  0  0  0  0  0  0  0  0  0  0
   -8.8692   -1.4441  -25.0360 H   0  0  0  0  0  0  0  0  0  0  0  0
   -7.5818   -0.5661  -24.1968 H   0  0  0  0  0  0  0  0  0  0  0  0
   -9.4538    2.3463  -25.2536 H   0  0  0  0  0  0  0  0  0  0  0  0
   -8.1308    1.3120  -25.8327 H   0  0  0  0  0  0  0  0  0  0  0  0
   -9.2100    2.7511  -22.6238 H   0  0  0  0  0  0  0  0  0  0  0  0
   -6.6534    4.1286  -22.2671 H   0  0  0  0  0  0  0  0  0  0  0  0
   -6.7388    2.5237  -21.4891 H   0  0  0  0  0  0  0  0  0  0  0  0
   -7.8997    3.8370  -21.0553 H   0  0  0  0  0  0  0  0  0  0  0  0
  1  2  1  0
  2  3  1  0
  3  4  2  0
  3  5  1  0
  5  6  1  0
  6  7  1  0
  8  7  1  6
  8  9  1  0
  9 10  2  0
  9 11  1  0
 11 12  1  0
 12 13  2  0
 13 14  1  0
 14 15  2  0
 15 16  1  0
 16 17  2  0
 17 18  1  0
 18 19  2  0
 19 20  1  0
 20 21  2  0
 20 22  1  0
 19 23  1  0
 18 24  1  0
 17 25  1  0
 15 26  1  0
 13 27  1  0
 11 28  1  0
 28 29  1  0
 29 30  1  0
 30 31  1  0
 31 32  1  0
 32 33  1  0
 32 34  1  0
 32 35  1  0
 30 36  1  0
 30 37  1  0
 29 38  1  1
 28 39  1  0
 28 40  1  0
  8 41  1  0
 41 42  2  0
 42 43  1  0
 43 44  1  0
 43 45  2  0
 45 46  1  0
 46 47  2  0
 47 48  1  0
 48 49  2  0
 46 50  1  0
 45 51  1  0
 42 52  1  0
  7 53  1  0
  7 54  1  0
  5 55  1  0
  5 56  1  0
  2 57  1  0
  1 58  1  0
  1 59  1  0
  1 60  1  0
 48  6  1  0
 29  8  1  0
 47 41  1  0
 21 12  1  0
 21 16  1  0
M  END
>  <cnnaffinities>  (42) 
[6.64489, 6.71553, 6.62067]

>  <score>  (42) 
6.64489

>  <index>  (42) 
44

>  <Smiles>  (42) 
C(N(C(=O)C(N1C([C@@]2(C(=O)N(c3c(nc(c4c(c(c(c(c34)[H])[H])[H])[H])[H])[H])C([C@@]2(C(OC([H])([H])[H])([H])[H])[H])([H])[H])c2c(c(Cl)c(c(c2C1=O)[H])[H])[H])([H])[H])([H])[H])[H])([H])([H])[H]

>  <h>  (42) 
<NA>

>  <Training>  (42) 
True

>  <Success>  (42) 
True

>  <enamine_searched>  (42) 
False

>  <enamine_id>  (42) 
nan

$$$$

     RDKit          3D

 66 71  0  0  0  0  0  0  0  0999 V2000
   -7.3550    3.3567  -21.8602 C   0  0  0  0  0  0  0  0  0  0  0  0
   -8.2994    2.8987  -22.8688 N   0  0  0  0  0  0  0  0  0  0  0  0
   -7.7836    2.1885  -23.9152 C   0  0  0  0  0  0  0  0  0  0  0  0
   -6.5825    2.0081  -24.0539 O   0  0  0  0  0  0  0  0  0  0  0  0
   -8.7850    1.6030  -24.9103 C   0  0  0  0  0  0  0  0  0  0  0  0
   -9.4513    0.4561  -24.3187 N   0  0  0  0  0  0  0  0  0  0  0  0
   -8.6975   -0.7804  -24.1575 C   0  0  0  0  0  0  0  0  0  0  0  0
   -9.0826   -1.5267  -22.8542 C   0  0  2  0  0  0  0  0  0  0  0  0
   -8.5328   -0.7661  -21.6162 C   0  0  0  0  0  0  0  0  0  0  0  0
   -8.9865    0.2316  -21.0938 O   0  0  0  0  0  0  0  0  0  0  0  0
   -7.3935   -1.4151  -21.2048 N   0  0  0  0  0  0  0  0  0  0  0  0
   -6.5239   -0.9469  -20.1975 C   0  0  0  0  0  0  0  0  0  0  0  0
   -6.7684   -1.2541  -18.8874 C   0  0  0  0  0  0  0  0  0  0  0  0
   -5.8992   -1.0122  -17.8747 N   0  0  0  0  0  0  0  0  0  0  0  0
   -4.7695   -0.4211  -18.1742 C   0  0  0  0  0  0  0  0  0  0  0  0
   -4.4308    0.0180  -19.4851 C   0  0  0  0  0  0  0  0  0  0  0  0
   -3.2622    0.7734  -19.7452 C   0  0  0  0  0  0  0  0  0  0  0  0
   -3.0507    1.3086  -20.9871 C   0  0  0  0  0  0  0  0  0  0  0  0
   -3.9422    1.0305  -22.0512 C   0  0  0  0  0  0  0  0  0  0  0  0
   -5.0510    0.2486  -21.8356 C   0  0  0  0  0  0  0  0  0  0  0  0
   -5.3279   -0.2533  -20.5383 C   0  0  0  0  0  0  0  0  0  0  0  0
   -5.7216    0.0220  -22.6590 H   0  0  0  0  0  0  0  0  0  0  0  0
   -3.7820    1.4754  -23.0267 H   0  0  0  0  0  0  0  0  0  0  0  0
   -2.1960    1.9553  -21.1602 H   0  0  0  0  0  0  0  0  0  0  0  0
   -2.5993    0.9648  -18.9080 H   0  0  0  0  0  0  0  0  0  0  0  0
   -4.0503   -0.2426  -17.3727 H   0  0  0  0  0  0  0  0  0  0  0  0
   -7.6988   -1.7621  -18.6392 H   0  0  0  0  0  0  0  0  0  0  0  0
   -7.0455   -2.5834  -21.9708 C   0  0  0  0  0  0  0  0  0  0  0  0
   -8.3326   -2.8940  -22.7388 C   0  0  2  0  0  0  0  0  0  0  0  0
   -8.0516   -3.6768  -24.0309 C   0  0  0  0  0  0  0  0  0  0  0  0
   -7.4875   -5.0565  -23.7639 C   0  0  0  0  0  0  0  0  0  0  0  0
   -6.1095   -5.2981  -23.7593 C   0  0  0  0  0  0  0  0  0  0  0  0
   -5.6072   -6.5676  -23.4841 C   0  0  0  0  0  0  0  0  0  0  0  0
   -6.4766   -7.6164  -23.2020 C   0  0  0  0  0  0  0  0  0  0  0  0
   -7.8495   -7.3918  -23.2072 C   0  0  0  0  0  0  0  0  0  0  0  0
   -8.3471   -6.1224  -23.4849 C   0  0  0  0  0  0  0  0  0  0  0  0
   -9.4237   -5.9568  -23.4924 H   0  0  0  0  0  0  0  0  0  0  0  0
   -8.5362   -8.2096  -23.0041 H   0  0  0  0  0  0  0  0  0  0  0  0
   -6.0847   -8.6061  -22.9827 H   0  0  0  0  0  0  0  0  0  0  0  0
   -4.5342   -6.7447  -23.4968 H   0  0  0  0  0  0  0  0  0  0  0  0
   -5.4136   -4.4876  -23.9752 H   0  0  0  0  0  0  0  0  0  0  0  0
   -8.9797   -3.7634  -24.6101 H   0  0  0  0  0  0  0  0  0  0  0  0
   -7.3414   -3.1043  -24.6413 H   0  0  0  0  0  0  0  0  0  0  0  0
   -8.9397   -3.5355  -22.0959 H   0  0  0  0  0  0  0  0  0  0  0  0
   -6.7658   -3.3936  -21.2907 H   0  0  0  0  0  0  0  0  0  0  0  0
   -6.1936   -2.4085  -22.6527 H   0  0  0  0  0  0  0  0  0  0  0  0
  -10.5950   -1.6048  -22.7892 C   0  0  0  0  0  0  0  0  0  0  0  0
  -11.2221   -2.5384  -21.9592 C   0  0  0  0  0  0  0  0  0  0  0  0
  -12.5997   -2.5648  -21.8575 C   0  0  0  0  0  0  0  0  0  0  0  0
  -13.3343   -3.7021  -20.7721 Cl  0  0  0  0  0  0  0  0  0  0  0  0
  -13.4120   -1.6897  -22.5747 C   0  0  0  0  0  0  0  0  0  0  0  0
  -12.7974   -0.7459  -23.3699 C   0  0  0  0  0  0  0  0  0  0  0  0
  -11.4077   -0.6783  -23.4546 C   0  0  0  0  0  0  0  0  0  0  0  0
  -10.8156    0.4612  -24.2257 C   0  0  0  0  0  0  0  0  0  0  0  0
  -11.5075    1.3481  -24.7098 O   0  0  0  0  0  0  0  0  0  0  0  0
  -13.3739   -0.0178  -23.9252 H   0  0  0  0  0  0  0  0  0  0  0  0
  -14.4924   -1.7359  -22.4829 H   0  0  0  0  0  0  0  0  0  0  0  0
  -10.6533   -3.2422  -21.3634 H   0  0  0  0  0  0  0  0  0  0  0  0
   -7.6260   -0.5499  -24.1649 H   0  0  0  0  0  0  0  0  0  0  0  0
   -8.8991   -1.4443  -25.0089 H   0  0  0  0  0  0  0  0  0  0  0  0
   -8.2354    1.3006  -25.8101 H   0  0  0  0  0  0  0  0  0  0  0  0
   -9.5549    2.3259  -25.2025 H   0  0  0  0  0  0  0  0  0  0  0  0
   -9.2498    2.7247  -22.5594 H   0  0  0  0  0  0  0  0  0  0  0  0
   -7.9008    3.8375  -21.0462 H   0  0  0  0  0  0  0  0  0  0  0  0
   -6.6833    4.1078  -22.2876 H   0  0  0  0  0  0  0  0  0  0  0  0
   -6.7562    2.5070  -21.4920 H   0  0  0  0  0  0  0  0  0  0  0  0
  1  2  1  0
  2  3  1  0
  3  4  2  0
  3  5  1  0
  5  6  1  0
  6  7  1  0
  8  7  1  6
  8  9  1  0
  9 10  2  0
  9 11  1  0
 11 12  1  0
 12 13  2  0
 13 14  1  0
 14 15  2  0
 15 16  1  0
 16 17  2  0
 17 18  1  0
 18 19  2  0
 19 20  1  0
 20 21  2  0
 20 22  1  0
 19 23  1  0
 18 24  1  0
 17 25  1  0
 15 26  1  0
 13 27  1  0
 11 28  1  0
 28 29  1  0
 29 30  1  0
 30 31  1  0
 31 32  2  0
 32 33  1  0
 33 34  2  0
 34 35  1  0
 35 36  2  0
 36 37  1  0
 35 38  1  0
 34 39  1  0
 33 40  1  0
 32 41  1  0
 30 42  1  0
 30 43  1  0
 29 44  1  1
 28 45  1  0
 28 46  1  0
  8 47  1  0
 47 48  2  0
 48 49  1  0
 49 50  1  0
 49 51  2  0
 51 52  1  0
 52 53  2  0
 53 54  1  0
 54 55  2  0
 52 56  1  0
 51 57  1  0
 48 58  1  0
  7 59  1  0
  7 60  1  0
  5 61  1  0
  5 62  1  0
  2 63  1  0
  1 64  1  0
  1 65  1  0
  1 66  1  0
 54  6  1  0
 29  8  1  0
 36 31  1  0
 53 47  1  0
 21 12  1  0
 21 16  1  0
M  END
>  <cnnaffinities>  (43) 
[7.15814, 7.16394]

>  <score>  (43) 
7.15814

>  <index>  (43) 
45

>  <Smiles>  (43) 
C(N(C(=O)C(N1C([C@@]2(C(=O)N(c3c(nc(c4c(c(c(c(c34)[H])[H])[H])[H])[H])[H])C([C@@]2(C(c2c(c(c(c(c2[H])[H])[H])[H])[H])([H])[H])[H])([H])[H])c2c(c(Cl)c(c(c2C1=O)[H])[H])[H])([H])[H])([H])[H])[H])([H])([H])[H]

>  <h>  (43) 
<NA>

>  <Training>  (43) 
True

>  <Success>  (43) 
True

>  <enamine_searched>  (43) 
False

>  <enamine_id>  (43) 
nan

$$$$

     RDKit          3D

 50 54  0  0  0  0  0  0  0  0999 V2000
  -10.1995   -2.9548  -22.0687 C   0  0  0  0  0  0  0  0  0  0  0  0
   -9.1488   -2.0003  -22.6526 C   0  0  1  0  0  0  0  0  0  0  0  0
   -8.6373   -1.0213  -21.5684 C   0  0  0  0  0  0  0  0  0  0  0  0
   -7.3275   -1.5143  -21.2277 N   0  0  0  0  0  0  0  0  0  0  0  0
   -6.4934   -1.0085  -20.2073 C   0  0  0  0  0  0  0  0  0  0  0  0
   -6.7387   -1.3141  -18.8931 C   0  0  0  0  0  0  0  0  0  0  0  0
   -5.8742   -1.0555  -17.8836 N   0  0  0  0  0  0  0  0  0  0  0  0
   -4.7563   -0.4393  -18.1876 C   0  0  0  0  0  0  0  0  0  0  0  0
   -4.4259    0.0118  -19.4983 C   0  0  0  0  0  0  0  0  0  0  0  0
   -3.2330    0.7372  -19.7577 C   0  0  0  0  0  0  0  0  0  0  0  0
   -2.9951    1.2589  -20.9998 C   0  0  0  0  0  0  0  0  0  0  0  0
   -3.9184    1.0338  -22.0499 C   0  0  0  0  0  0  0  0  0  0  0  0
   -5.0418    0.2702  -21.8459 C   0  0  0  0  0  0  0  0  0  0  0  0
   -5.3334   -0.2456  -20.5462 C   0  0  0  0  0  0  0  0  0  0  0  0
   -5.7073    0.0339  -22.6772 H   0  0  0  0  0  0  0  0  0  0  0  0
   -3.7233    1.4639  -23.0294 H   0  0  0  0  0  0  0  0  0  0  0  0
   -2.1057    1.8579  -21.1820 H   0  0  0  0  0  0  0  0  0  0  0  0
   -2.5597    0.9316  -18.9273 H   0  0  0  0  0  0  0  0  0  0  0  0
   -4.0503   -0.2656  -17.3726 H   0  0  0  0  0  0  0  0  0  0  0  0
   -7.6556   -1.8289  -18.6025 H   0  0  0  0  0  0  0  0  0  0  0  0
   -6.8463   -2.4909  -22.0602 C   0  0  0  0  0  0  0  0  0  0  0  0
   -5.7897   -3.0616  -21.8846 O   0  0  0  0  0  0  0  0  0  0  0  0
   -7.8623   -2.6957  -23.2059 C   0  0  1  0  0  0  0  0  0  0  0  0
   -8.0186   -4.2137  -23.4482 C   0  0  0  0  0  0  0  0  0  0  0  0
   -6.8060   -4.7564  -24.0245 N   0  0  0  0  0  0  0  0  0  0  0  0
   -6.2830   -6.0134  -23.5405 C   0  0  0  0  0  0  0  0  0  0  0  0
   -6.7019   -7.4555  -24.1070 C   0  0  0  0  0  0  0  0  0  0  0  0
   -6.6707   -7.3604  -24.1864 N   0  0  0  0  0  0  0  0  0  0  0  0
   -6.5500   -6.1438  -22.4950 H   0  0  0  0  0  0  0  0  0  0  0  0
   -5.2062   -5.9774  -23.6289 H   0  0  0  0  0  0  0  0  0  0  0  0
   -6.2311   -4.2032  -25.1427 C   0  0  0  0  0  0  0  0  0  0  0  0
   -5.4431   -4.8442  -25.8195 O   0  0  0  0  0  0  0  0  0  0  0  0
   -6.5959   -2.7775  -25.4163 C   0  0  0  0  0  0  0  0  0  0  0  0
   -6.1333   -2.1967  -26.5985 C   0  0  0  0  0  0  0  0  0  0  0  0
   -6.3736   -0.8649  -26.8729 C   0  0  0  0  0  0  0  0  0  0  0  0
   -7.0769   -0.1241  -25.9314 C   0  0  0  0  0  0  0  0  0  0  0  0
   -7.3040    1.1797  -26.1790 F   0  0  0  0  0  0  0  0  0  0  0  0
   -7.5435   -0.6756  -24.7514 C   0  0  0  0  0  0  0  0  0  0  0  0
   -7.3503   -2.0424  -24.4934 C   0  0  0  0  0  0  0  0  0  0  0  0
   -8.0669   -0.0201  -24.0620 H   0  0  0  0  0  0  0  0  0  0  0  0
   -6.0367   -0.3923  -27.7882 H   0  0  0  0  0  0  0  0  0  0  0  0
   -5.5684   -2.8168  -27.2857 H   0  0  0  0  0  0  0  0  0  0  0  0
   -8.8789   -4.4077  -24.1062 H   0  0  0  0  0  0  0  0  0  0  0  0
   -8.1876   -4.7162  -22.4924 H   0  0  0  0  0  0  0  0  0  0  0  0
   -9.2758   -1.0349  -20.6884 H   0  0  0  0  0  0  0  0  0  0  0  0
   -8.5907    0.0165  -21.9251 H   0  0  0  0  0  0  0  0  0  0  0  0
   -9.6400   -1.4488  -23.4635 H   0  0  0  0  0  0  0  0  0  0  0  0
  -10.5697   -3.6517  -22.8259 H   0  0  0  0  0  0  0  0  0  0  0  0
   -9.7892   -3.5403  -21.2388 H   0  0  0  0  0  0  0  0  0  0  0  0
  -11.0599   -2.3931  -21.6880 H   0  0  0  0  0  0  0  0  0  0  0  0
  1  2  1  0
  2  3  1  0
  3  4  1  0
  4  5  1  0
  5  6  2  0
  6  7  1  0
  7  8  2  0
  8  9  1  0
  9 10  2  0
 10 11  1  0
 11 12  2  0
 12 13  1  0
 13 14  2  0
 13 15  1  0
 12 16  1  0
 11 17  1  0
 10 18  1  0
  8 19  1  0
  6 20  1  0
  4 21  1  0
 21 22  2  0
 21 23  1  0
 23 24  1  6
 24 25  1  0
 25 26  1  0
 26 27  1  0
 27 28  3  0
 26 29  1  0
 26 30  1  0
 25 31  1  0
 31 32  2  0
 31 33  1  0
 33 34  2  0
 34 35  1  0
 35 36  2  0
 36 37  1  0
 36 38  1  0
 38 39  2  0
 38 40  1  0
 35 41  1  0
 34 42  1  0
 24 43  1  0
 24 44  1  0
  3 45  1  0
  3 46  1  0
  2 47  1  6
  1 48  1  0
  1 49  1  0
  1 50  1  0
 23  2  1  0
 39 33  1  0
 14  5  1  0
 39 23  1  0
 14  9  1  0
M  END
>  <cnnaffinities>  (44) 
[6.2388]

>  <score>  (44) 
6.2388

>  <index>  (44) 
46

>  <Smiles>  (44) 
C([C@]1(C(N(c2c(nc(c3c(c(c(c(c23)[H])[H])[H])[H])[H])[H])C(=O)[C@]21C(N(C(C#N)([H])[H])C(=O)c1c(c(c(F)c(c21)[H])[H])[H])([H])[H])([H])[H])[H])([H])([H])[H]

>  <h>  (44) 
<NA>

>  <Training>  (44) 
True

>  <Success>  (44) 
True

>  <enamine_searched>  (44) 
False

>  <enamine_id>  (44) 
nan

$$$$

     RDKit          3D

 58 63  0  0  0  0  0  0  0  0999 V2000
   -8.5742    0.7324  -21.3607 O   0  0  0  0  0  0  0  0  0  0  0  0
   -8.4833   -0.3887  -21.8308 C   0  0  0  0  0  0  0  0  0  0  0  0
   -7.4817   -1.4306  -21.3010 C   0  0  0  0  0  0  0  0  0  0  0  0
   -6.5099   -0.9937  -20.2345 C   0  0  0  0  0  0  0  0  0  0  0  0
   -6.7552   -1.2624  -18.9163 C   0  0  0  0  0  0  0  0  0  0  0  0
   -5.9284   -0.9832  -17.8767 N   0  0  0  0  0  0  0  0  0  0  0  0
   -4.8103   -0.3617  -18.1591 C   0  0  0  0  0  0  0  0  0  0  0  0
   -4.4485    0.0442  -19.4719 C   0  0  0  0  0  0  0  0  0  0  0  0
   -3.2889    0.8208  -19.7204 C   0  0  0  0  0  0  0  0  0  0  0  0
   -3.0645    1.3547  -20.9608 C   0  0  0  0  0  0  0  0  0  0  0  0
   -3.9242    1.0242  -22.0356 C   0  0  0  0  0  0  0  0  0  0  0  0
   -5.0059    0.2057  -21.8393 C   0  0  0  0  0  0  0  0  0  0  0  0
   -5.3181   -0.2767  -20.5428 C   0  0  0  0  0  0  0  0  0  0  0  0
   -5.7020    0.0174  -22.6577 H   0  0  0  0  0  0  0  0  0  0  0  0
   -3.7444    1.4538  -23.0159 H   0  0  0  0  0  0  0  0  0  0  0  0
   -2.2511    2.0539  -21.1241 H   0  0  0  0  0  0  0  0  0  0  0  0
   -2.6271    1.0472  -18.8873 H   0  0  0  0  0  0  0  0  0  0  0  0
   -4.1466   -0.1177  -17.3277 H   0  0  0  0  0  0  0  0  0  0  0  0
   -7.7041   -1.7162  -18.6322 H   0  0  0  0  0  0  0  0  0  0  0  0
   -6.9354   -1.8302  -22.1637 H   0  0  0  0  0  0  0  0  0  0  0  0
   -8.0843   -2.2498  -20.8856 H   0  0  0  0  0  0  0  0  0  0  0  0
   -9.3059   -0.8108  -22.8728 N   0  0  0  0  0  0  0  0  0  0  0  0
   -9.2642   -2.1247  -23.5138 C   0  0  0  0  0  0  0  0  0  0  0  0
   -8.5215   -2.1645  -24.8425 C   0  0  0  0  0  0  0  0  0  0  0  0
   -7.4243   -1.3396  -25.0958 C   0  0  0  0  0  0  0  0  0  0  0  0
   -6.7604   -1.4004  -26.3170 C   0  0  0  0  0  0  0  0  0  0  0  0
   -7.1781   -2.2796  -27.3103 C   0  0  0  0  0  0  0  0  0  0  0  0
   -8.2726   -3.0970  -27.0576 C   0  0  0  0  0  0  0  0  0  0  0  0
   -8.8197   -4.1992  -28.2958 Cl  0  0  0  0  0  0  0  0  0  0  0  0
   -8.9401   -3.0515  -25.8378 C   0  0  0  0  0  0  0  0  0  0  0  0
   -9.7989   -3.7016  -25.6806 H   0  0  0  0  0  0  0  0  0  0  0  0
   -6.6657   -2.3421  -28.2647 H   0  0  0  0  0  0  0  0  0  0  0  0
   -5.9070   -0.7514  -26.4955 H   0  0  0  0  0  0  0  0  0  0  0  0
   -7.0761   -0.6291  -24.3469 H   0  0  0  0  0  0  0  0  0  0  0  0
  -10.2895   -2.4713  -23.6790 H   0  0  0  0  0  0  0  0  0  0  0  0
   -8.8349   -2.8469  -22.8163 H   0  0  0  0  0  0  0  0  0  0  0  0
  -10.2296    0.1664  -23.4082 C   0  0  2  0  0  0  0  0  0  0  0  0
  -11.3609    0.6551  -22.4946 C   0  0  0  0  0  0  0  0  0  0  0  0
  -12.0607    1.6091  -23.4344 N   0  0  1  0  0  4  0  0  0  0  0  0
  -12.2631    2.9665  -22.9149 C   0  0  0  0  0  0  0  0  0  0  0  0
  -13.5542    3.3021  -22.2461 C   0  0  0  0  0  0  0  0  0  0  0  0
  -13.2374    3.8698  -23.5992 C   0  0  0  0  0  0  0  0  0  0  0  0
  -13.0031    4.9215  -23.6965 H   0  0  0  0  0  0  0  0  0  0  0  0
  -13.7813    3.4328  -24.4297 H   0  0  0  0  0  0  0  0  0  0  0  0
  -13.5200    3.9281  -21.3654 H   0  0  0  0  0  0  0  0  0  0  0  0
  -14.3058    2.5224  -22.2284 H   0  0  0  0  0  0  0  0  0  0  0  0
  -11.3707    3.4301  -22.5126 H   0  0  0  0  0  0  0  0  0  0  0  0
  -11.1379    1.5009  -24.6372 C   0  0  2  0  0  0  0  0  0  0  0  0
  -11.0028   -0.0265  -24.7350 C   0  0  0  0  0  0  0  0  0  0  0  0
  -10.3688   -0.3736  -25.5449 H   0  0  0  0  0  0  0  0  0  0  0  0
  -11.9376   -0.5992  -24.6788 H   0  0  0  0  0  0  0  0  0  0  0  0
   -9.7428    1.5162  -23.9922 C   0  0  0  0  0  0  0  0  0  0  0  0
   -8.9306    1.3890  -24.7034 H   0  0  0  0  0  0  0  0  0  0  0  0
   -9.5050    2.2877  -23.2547 H   0  0  0  0  0  0  0  0  0  0  0  0
  -11.4172    2.1501  -25.4593 H   0  0  0  0  0  0  0  0  0  0  0  0
  -12.9963    1.2260  -23.6769 H   0  0  0  0  0  0  0  0  0  0  0  0
  -10.9789    1.2040  -21.6398 H   0  0  0  0  0  0  0  0  0  0  0  0
  -12.0423   -0.1291  -22.1653 H   0  0  0  0  0  0  0  0  0  0  0  0
  1  2  2  0
  2  3  1  0
  3  4  1  0
  4  5  2  0
  5  6  1  0
  6  7  2  0
  7  8  1  0
  8  9  2  0
  9 10  1  0
 10 11  2  0
 11 12  1  0
 12 13  2  0
 12 14  1  0
 11 15  1  0
 10 16  1  0
  9 17  1  0
  7 18  1  0
  5 19  1  0
  3 20  1  0
  3 21  1  0
  2 22  1  0
 22 23  1  0
 23 24  1  0
 24 25  2  0
 25 26  1  0
 26 27  2  0
 27 28  1  0
 28 29  1  0
 28 30  2  0
 30 31  1  0
 27 32  1  0
 26 33  1  0
 25 34  1  0
 23 35  1  0
 23 36  1  0
 37 22  1  1
 37 38  1  0
 38 39  1  0
 39 40  1  0
 40 41  1  0
 41 42  1  0
 42 43  1  0
 42 44  1  0
 41 45  1  0
 41 46  1  0
 40 47  1  0
 39 48  1  0
 48 49  1  0
 49 50  1  0
 49 51  1  0
 48 52  1  0
 52 53  1  0
 52 54  1  0
 48 55  1  6
 39 56  1  6
 38 57  1  0
 38 58  1  0
 13  4  1  0
 30 24  1  0
 49 37  1  0
 13  8  1  0
 52 37  1  0
 42 40  1  0
M  CHG  1  39   1
M  END
>  <cnnaffinities>  (45) 
[6.24164, 6.44764, 6.38874, 6.07193]

>  <score>  (45) 
6.24164

>  <index>  (45) 
47

>  <Smiles>  (45) 
O=C(C(c1c(nc(c2c(c(c(c(c12)[H])[H])[H])[H])[H])[H])([H])[H])N(C(c1c(c(c(c(Cl)c1[H])[H])[H])[H])([H])[H])[C@]12C([N@@+](C3(C(C3([H])[H])([H])[H])[H])([C@](C1([H])[H])(C2([H])[H])[H])[H])([H])[H]

>  <h>  (45) 
<NA>

>  <Training>  (45) 
True

>  <Success>  (45) 
True

>  <enamine_searched>  (45) 
False

>  <enamine_id>  (45) 
nan

$$$$

     RDKit          3D

 46 48  0  0  0  0  0  0  0  0999 V2000
   -8.4920   -6.7355  -25.9276 C   0  0  0  0  0  0  0  0  0  0  0  0
   -9.5820   -6.6935  -24.8571 C   0  0  0  0  0  0  0  0  0  0  0  0
  -10.9572   -6.5355  -25.5110 C   0  0  0  0  0  0  0  0  0  0  0  0
  -11.7663   -6.5219  -24.7745 H   0  0  0  0  0  0  0  0  0  0  0  0
  -11.1581   -7.3543  -26.2107 H   0  0  0  0  0  0  0  0  0  0  0  0
  -11.0163   -5.6029  -26.0833 H   0  0  0  0  0  0  0  0  0  0  0  0
   -9.3473   -5.6360  -23.7491 C   0  0  0  0  0  0  0  0  0  0  0  0
   -9.2535   -4.1945  -24.2663 C   0  0  0  0  0  0  0  0  0  0  0  0
   -8.8494   -3.2330  -23.1538 C   0  0  0  0  0  0  0  0  0  0  0  0
   -7.5739   -3.6328  -22.5686 N   0  0  0  0  0  0  0  0  0  0  0  0
   -6.7760   -2.8072  -21.8411 C   0  0  0  0  0  0  0  0  0  0  0  0
   -5.6140   -3.0953  -21.5858 O   0  0  0  0  0  0  0  0  0  0  0  0
   -7.3969   -1.5189  -21.2948 C   0  0  0  0  0  0  0  0  0  0  0  0
   -6.4960   -0.9984  -20.2177 C   0  0  0  0  0  0  0  0  0  0  0  0
   -6.7518   -1.2769  -18.9025 C   0  0  0  0  0  0  0  0  0  0  0  0
   -5.9261   -0.9982  -17.8644 N   0  0  0  0  0  0  0  0  0  0  0  0
   -4.8143   -0.3631  -18.1460 C   0  0  0  0  0  0  0  0  0  0  0  0
   -4.4340    0.0289  -19.4595 C   0  0  0  0  0  0  0  0  0  0  0  0
   -3.2845    0.8227  -19.7086 C   0  0  0  0  0  0  0  0  0  0  0  0
   -3.0488    1.3343  -20.9583 C   0  0  0  0  0  0  0  0  0  0  0  0
   -3.8886    0.9748  -22.0370 C   0  0  0  0  0  0  0  0  0  0  0  0
   -4.9638    0.1474  -21.8398 C   0  0  0  0  0  0  0  0  0  0  0  0
   -5.2987   -0.2993  -20.5320 C   0  0  0  0  0  0  0  0  0  0  0  0
   -5.6293   -0.0820  -22.6668 H   0  0  0  0  0  0  0  0  0  0  0  0
   -3.6995    1.3836  -23.0268 H   0  0  0  0  0  0  0  0  0  0  0  0
   -2.2653    2.0689  -21.1142 H   0  0  0  0  0  0  0  0  0  0  0  0
   -2.6437    1.0824  -18.8696 H   0  0  0  0  0  0  0  0  0  0  0  0
   -4.1801   -0.0983  -17.3003 H   0  0  0  0  0  0  0  0  0  0  0  0
   -7.7088   -1.7167  -18.6262 H   0  0  0  0  0  0  0  0  0  0  0  0
   -8.3860   -1.7478  -20.8821 H   0  0  0  0  0  0  0  0  0  0  0  0
   -7.5635   -0.7952  -22.1055 H   0  0  0  0  0  0  0  0  0  0  0  0
   -7.0350   -4.9419  -22.8975 C   0  0  0  0  0  0  0  0  0  0  0  0
   -8.1408   -5.9873  -22.8422 C   0  0  0  0  0  0  0  0  0  0  0  0
   -7.7244   -6.9663  -23.1079 H   0  0  0  0  0  0  0  0  0  0  0  0
   -8.4786   -6.0640  -21.8013 H   0  0  0  0  0  0  0  0  0  0  0  0
   -6.2425   -5.1458  -22.1752 H   0  0  0  0  0  0  0  0  0  0  0  0
   -6.5644   -4.9040  -23.8897 H   0  0  0  0  0  0  0  0  0  0  0  0
   -8.7609   -2.2172  -23.5617 H   0  0  0  0  0  0  0  0  0  0  0  0
   -9.6344   -3.2080  -22.3823 H   0  0  0  0  0  0  0  0  0  0  0  0
  -10.2283   -3.8759  -24.6521 H   0  0  0  0  0  0  0  0  0  0  0  0
   -8.5288   -4.1192  -25.0853 H   0  0  0  0  0  0  0  0  0  0  0  0
  -10.2400   -5.6293  -23.1121 H   0  0  0  0  0  0  0  0  0  0  0  0
   -9.5432   -7.6740  -24.3637 H   0  0  0  0  0  0  0  0  0  0  0  0
   -7.4895   -6.8278  -25.4957 H   0  0  0  0  0  0  0  0  0  0  0  0
   -8.5069   -5.8436  -26.5633 H   0  0  0  0  0  0  0  0  0  0  0  0
   -8.6455   -7.6012  -26.5816 H   0  0  0  0  0  0  0  0  0  0  0  0
  1  2  1  0
  2  3  1  0
  3  4  1  0
  3  5  1  0
  3  6  1  0
  2  7  1  0
  7  8  1  0
  8  9  1  0
  9 10  1  0
 10 11  1  0
 11 12  2  0
 11 13  1  0
 13 14  1  0
 14 15  2  0
 15 16  1  0
 16 17  2  0
 17 18  1  0
 18 19  2  0
 19 20  1  0
 20 21  2  0
 21 22  1  0
 22 23  2  0
 22 24  1  0
 21 25  1  0
 20 26  1  0
 19 27  1  0
 17 28  1  0
 15 29  1  0
 13 30  1  0
 13 31  1  0
 10 32  1  0
 32 33  1  0
 33 34  1  0
 33 35  1  0
 32 36  1  0
 32 37  1  0
  9 38  1  0
  9 39  1  0
  8 40  1  0
  8 41  1  0
  7 42  1  0
  2 43  1  0
  1 44  1  0
  1 45  1  0
  1 46  1  0
 33  7  1  0
 23 14  1  0
 23 18  1  0
M  END
>  <cnnaffinities>  (46) 
[5.50916, 5.51461, 5.51462, 5.51502, 5.46608]

>  <score>  (46) 
5.50916

>  <index>  (46) 
48

>  <Smiles>  (46) 
C(C(C([H])([H])[H])(C1(C(C(N(C(=O)C(c2c(nc(c3c(c(c(c(c23)[H])[H])[H])[H])[H])[H])([H])[H])C(C1([H])[H])([H])[H])([H])[H])([H])[H])[H])[H])([H])([H])[H]

>  <h>  (46) 
<NA>

>  <Training>  (46) 
True

>  <Success>  (46) 
True

>  <enamine_searched>  (46) 
False

>  <enamine_id>  (46) 
nan

$$$$

     RDKit          3D

 67 72  0  0  0  0  0  0  0  0999 V2000
   -7.3383    3.3642  -21.8680 C   0  0  0  0  0  0  0  0  0  0  0  0
   -8.2507    2.9155  -22.9104 N   0  0  0  0  0  0  0  0  0  0  0  0
   -7.7023    2.2030  -23.9380 C   0  0  0  0  0  0  0  0  0  0  0  0
   -6.4948    2.0418  -24.0554 O   0  0  0  0  0  0  0  0  0  0  0  0
   -8.6801    1.6028  -24.9467 C   0  0  0  0  0  0  0  0  0  0  0  0
   -9.3678    0.4623  -24.3712 N   0  0  0  0  0  0  0  0  0  0  0  0
   -8.6339   -0.7841  -24.2038 C   0  0  0  0  0  0  0  0  0  0  0  0
   -9.0390   -1.5182  -22.9008 C   0  0  2  0  0  0  0  0  0  0  0  0
   -8.4945   -0.7583  -21.6625 C   0  0  0  0  0  0  0  0  0  0  0  0
   -8.9378    0.2535  -21.1584 O   0  0  0  0  0  0  0  0  0  0  0  0
   -7.3794   -1.4271  -21.2188 N   0  0  0  0  0  0  0  0  0  0  0  0
   -6.5144   -0.9566  -20.2089 C   0  0  0  0  0  0  0  0  0  0  0  0
   -6.7693   -1.2590  -18.9010 C   0  0  0  0  0  0  0  0  0  0  0  0
   -5.9131   -1.0055  -17.8805 N   0  0  0  0  0  0  0  0  0  0  0  0
   -4.7834   -0.4101  -18.1732 C   0  0  0  0  0  0  0  0  0  0  0  0
   -4.4326    0.0243  -19.4844 C   0  0  0  0  0  0  0  0  0  0  0  0
   -3.2669    0.7862  -19.7418 C   0  0  0  0  0  0  0  0  0  0  0  0
   -3.0510    1.3187  -20.9846 C   0  0  0  0  0  0  0  0  0  0  0  0
   -3.9337    1.0304  -22.0514 C   0  0  0  0  0  0  0  0  0  0  0  0
   -5.0400    0.2471  -21.8403 C   0  0  0  0  0  0  0  0  0  0  0  0
   -5.3190   -0.2596  -20.5446 C   0  0  0  0  0  0  0  0  0  0  0  0
   -5.7129    0.0256  -22.6640 H   0  0  0  0  0  0  0  0  0  0  0  0
   -3.7736    1.4742  -23.0279 H   0  0  0  0  0  0  0  0  0  0  0  0
   -2.2052    1.9768  -21.1534 H   0  0  0  0  0  0  0  0  0  0  0  0
   -2.6064    0.9845  -18.9044 H   0  0  0  0  0  0  0  0  0  0  0  0
   -4.0808   -0.2140  -17.3605 H   0  0  0  0  0  0  0  0  0  0  0  0
   -7.7067   -1.7535  -18.6546 H   0  0  0  0  0  0  0  0  0  0  0  0
   -7.0368   -2.6067  -21.9638 C   0  0  0  0  0  0  0  0  0  0  0  0
   -8.3114   -2.8916  -22.7630 C   0  0  2  0  0  0  0  0  0  0  0  0
   -7.9841   -3.6736  -24.0389 C   0  0  0  0  0  0  0  0  0  0  0  0
   -7.4693   -4.9880  -23.7308 N   0  0  0  0  0  0  0  0  0  0  0  0
   -6.1386   -5.2941  -23.6354 C   0  0  0  0  0  0  0  0  0  0  0  0
   -5.0346   -4.5676  -23.9850 C   0  0  0  0  0  0  0  0  0  0  0  0
   -3.8144   -5.1709  -23.7779 N   0  0  0  0  0  0  0  0  0  0  0  0
   -3.9551   -6.3633  -23.2934 C   0  0  0  0  0  0  0  0  0  0  0  0
   -2.8184   -7.2812  -22.9850 C   0  0  0  0  0  0  0  0  0  0  0  0
   -3.0293   -7.9097  -22.1195 H   0  0  0  0  0  0  0  0  0  0  0  0
   -2.6219   -7.9461  -23.8325 H   0  0  0  0  0  0  0  0  0  0  0  0
   -1.9217   -6.6881  -22.8014 H   0  0  0  0  0  0  0  0  0  0  0  0
   -5.6144   -6.8542  -23.0344 S   0  0  0  0  0  0  0  0  0  0  0  0
   -5.0517   -3.5752  -24.4203 H   0  0  0  0  0  0  0  0  0  0  0  0
   -8.1255   -5.7202  -23.5133 H   0  0  0  0  0  0  0  0  0  0  0  0
   -8.8748   -3.7758  -24.6689 H   0  0  0  0  0  0  0  0  0  0  0  0
   -7.2240   -3.1328  -24.6145 H   0  0  0  0  0  0  0  0  0  0  0  0
   -8.9472   -3.5329  -22.1460 H   0  0  0  0  0  0  0  0  0  0  0  0
   -6.1589   -2.4568  -22.6190 H   0  0  0  0  0  0  0  0  0  0  0  0
   -6.7884   -3.4209  -21.2779 H   0  0  0  0  0  0  0  0  0  0  0  0
  -10.5527   -1.5702  -22.8452 C   0  0  0  0  0  0  0  0  0  0  0  0
  -11.1980   -2.4728  -21.9958 C   0  0  0  0  0  0  0  0  0  0  0  0
  -12.5773   -2.4887  -21.9172 C   0  0  0  0  0  0  0  0  0  0  0  0
  -13.3372   -3.6082  -20.8297 Cl  0  0  0  0  0  0  0  0  0  0  0  0
  -13.3715   -1.6202  -22.6642 C   0  0  0  0  0  0  0  0  0  0  0  0
  -12.7379   -0.6946  -23.4652 C   0  0  0  0  0  0  0  0  0  0  0  0
  -11.3475   -0.6445  -23.5332 C   0  0  0  0  0  0  0  0  0  0  0  0
  -10.7325    0.4813  -24.3019 C   0  0  0  0  0  0  0  0  0  0  0  0
  -11.4089    1.3735  -24.8030 O   0  0  0  0  0  0  0  0  0  0  0  0
  -13.2961    0.0342  -24.0383 H   0  0  0  0  0  0  0  0  0  0  0  0
  -14.4531   -1.6569  -22.5863 H   0  0  0  0  0  0  0  0  0  0  0  0
  -10.6388   -3.1563  -21.3673 H   0  0  0  0  0  0  0  0  0  0  0  0
   -7.5597   -0.5655  -24.2045 H   0  0  0  0  0  0  0  0  0  0  0  0
   -8.8411   -1.4461  -25.0554 H   0  0  0  0  0  0  0  0  0  0  0  0
   -9.4441    2.3247  -25.2564 H   0  0  0  0  0  0  0  0  0  0  0  0
   -8.1049    1.2960  -25.8272 H   0  0  0  0  0  0  0  0  0  0  0  0
   -9.2099    2.7337  -22.6335 H   0  0  0  0  0  0  0  0  0  0  0  0
   -6.7407    2.5159  -21.4959 H   0  0  0  0  0  0  0  0  0  0  0  0
   -6.6574    4.1218  -22.2682 H   0  0  0  0  0  0  0  0  0  0  0  0
   -7.9063    3.8225  -21.0561 H   0  0  0  0  0  0  0  0  0  0  0  0
  1  2  1  0
  2  3  1  0
  3  4  2  0
  3  5  1  0
  5  6  1  0
  6  7  1  0
  8  7  1  6
  8  9  1  0
  9 10  2  0
  9 11  1  0
 11 12  1  0
 12 13  2  0
 13 14  1  0
 14 15  2  0
 15 16  1  0
 16 17  2  0
 17 18  1  0
 18 19  2  0
 19 20  1  0
 20 21  2  0
 20 22  1  0
 19 23  1  0
 18 24  1  0
 17 25  1  0
 15 26  1  0
 13 27  1  0
 11 28  1  0
 28 29  1  0
 29 30  1  0
 30 31  1  0
 31 32  1  0
 32 33  2  0
 33 34  1  0
 34 35  2  0
 35 36  1  0
 36 37  1  0
 36 38  1  0
 36 39  1  0
 35 40  1  0
 33 41  1  0
 31 42  1  0
 30 43  1  0
 30 44  1  0
 29 45  1  1
 28 46  1  0
 28 47  1  0
  8 48  1  0
 48 49  2  0
 49 50  1  0
 50 51  1  0
 50 52  2  0
 52 53  1  0
 53 54  2  0
 54 55  1  0
 55 56  2  0
 53 57  1  0
 52 58  1  0
 49 59  1  0
  7 60  1  0
  7 61  1  0
  5 62  1  0
  5 63  1  0
  2 64  1  0
  1 65  1  0
  1 66  1  0
  1 67  1  0
 55  6  1  0
 29  8  1  0
 40 32  1  0
 54 48  1  0
 21 12  1  0
 21 16  1  0
M  END
>  <cnnaffinities>  (47) 
[7.34539, 7.15736]

>  <score>  (47) 
7.34539

>  <index>  (47) 
49

>  <Smiles>  (47) 
C(N(C(=O)C(N1C([C@@]2(C(=O)N(c3c(nc(c4c(c(c(c(c34)[H])[H])[H])[H])[H])[H])C([C@@]2(C(N(c2c(nc(C([H])([H])[H])s2)[H])[H])([H])[H])[H])([H])[H])c2c(c(Cl)c(c(c2C1=O)[H])[H])[H])([H])[H])([H])[H])[H])([H])([H])[H]

>  <h>  (47) 
<NA>

>  <Training>  (47) 
True

>  <Success>  (47) 
True

>  <enamine_searched>  (47) 
False

>  <enamine_id>  (47) 
nan

$$$$

     RDKit          3D

 66 70  0  0  0  0  0  0  0  0999 V2000
   -7.3608    3.3318  -21.9031 C   0  0  0  0  0  0  0  0  0  0  0  0
   -8.3181    2.8741  -22.8964 N   0  0  0  0  0  0  0  0  0  0  0  0
   -7.8413    2.1302  -23.9307 C   0  0  0  0  0  0  0  0  0  0  0  0
   -6.6466    1.9039  -24.0732 O   0  0  0  0  0  0  0  0  0  0  0  0
   -8.8721    1.5533  -24.8993 C   0  0  0  0  0  0  0  0  0  0  0  0
   -9.5314    0.4108  -24.2888 N   0  0  0  0  0  0  0  0  0  0  0  0
   -8.7847   -0.8322  -24.1425 C   0  0  0  0  0  0  0  0  0  0  0  0
   -9.1254   -1.5586  -22.8134 C   0  0  2  0  0  0  0  0  0  0  0  0
   -8.5336   -0.7732  -21.6108 C   0  0  0  0  0  0  0  0  0  0  0  0
   -8.9635    0.2423  -21.1066 O   0  0  0  0  0  0  0  0  0  0  0  0
   -7.3902   -1.4242  -21.2089 N   0  0  0  0  0  0  0  0  0  0  0  0
   -6.5301   -0.9519  -20.1940 C   0  0  0  0  0  0  0  0  0  0  0  0
   -6.7687   -1.2585  -18.8818 C   0  0  0  0  0  0  0  0  0  0  0  0
   -5.8884   -1.0255  -17.8785 N   0  0  0  0  0  0  0  0  0  0  0  0
   -4.7597   -0.4294  -18.1786 C   0  0  0  0  0  0  0  0  0  0  0  0
   -4.4265    0.0074  -19.4906 C   0  0  0  0  0  0  0  0  0  0  0  0
   -3.2513    0.7532  -19.7519 C   0  0  0  0  0  0  0  0  0  0  0  0
   -3.0358    1.2847  -20.9957 C   0  0  0  0  0  0  0  0  0  0  0  0
   -3.9451    1.0274  -22.0513 C   0  0  0  0  0  0  0  0  0  0  0  0
   -5.0521    0.2444  -21.8353 C   0  0  0  0  0  0  0  0  0  0  0  0
   -5.3401   -0.2457  -20.5342 C   0  0  0  0  0  0  0  0  0  0  0  0
   -5.7277    0.0236  -22.6546 H   0  0  0  0  0  0  0  0  0  0  0  0
   -3.7762    1.4593  -23.0330 H   0  0  0  0  0  0  0  0  0  0  0  0
   -2.1759    1.9197  -21.1713 H   0  0  0  0  0  0  0  0  0  0  0  0
   -2.5902    0.9550  -18.9123 H   0  0  0  0  0  0  0  0  0  0  0  0
   -4.0380   -0.2625  -17.3767 H   0  0  0  0  0  0  0  0  0  0  0  0
   -7.6950   -1.7694  -18.6231 H   0  0  0  0  0  0  0  0  0  0  0  0
   -7.0636   -2.6149  -21.9579 C   0  0  0  0  0  0  0  0  0  0  0  0
   -8.3694   -2.9188  -22.7041 C   0  0  2  0  0  0  0  0  0  0  0  0
   -8.1183   -3.6599  -24.0078 C   0  0  0  0  0  0  0  0  0  0  0  0
   -7.4815   -4.8851  -23.7160 O   0  0  0  0  0  0  0  0  0  0  0  0
   -7.3114   -5.7347  -24.8419 C   0  0  0  0  0  0  0  0  0  0  0  0
   -8.4477   -6.7466  -24.9122 C   0  0  0  0  0  0  0  0  0  0  0  0
   -8.4361   -7.3870  -24.0244 H   0  0  0  0  0  0  0  0  0  0  0  0
   -8.3305   -7.3721  -25.8030 H   0  0  0  0  0  0  0  0  0  0  0  0
   -9.4238   -6.2531  -24.9659 H   0  0  0  0  0  0  0  0  0  0  0  0
   -5.9591   -6.4230  -24.7281 C   0  0  0  0  0  0  0  0  0  0  0  0
   -5.9283   -7.0475  -23.8292 H   0  0  0  0  0  0  0  0  0  0  0  0
   -5.7941   -7.0593  -25.6055 H   0  0  0  0  0  0  0  0  0  0  0  0
   -5.1497   -5.6883  -24.6733 H   0  0  0  0  0  0  0  0  0  0  0  0
   -7.3171   -5.1250  -25.7587 H   0  0  0  0  0  0  0  0  0  0  0  0
   -9.0671   -3.8223  -24.5423 H   0  0  0  0  0  0  0  0  0  0  0  0
   -7.4619   -3.0630  -24.6617 H   0  0  0  0  0  0  0  0  0  0  0  0
   -8.9501   -3.5893  -22.0689 H   0  0  0  0  0  0  0  0  0  0  0  0
   -6.7820   -3.4198  -21.2737 H   0  0  0  0  0  0  0  0  0  0  0  0
   -6.2193   -2.4540  -22.6476 H   0  0  0  0  0  0  0  0  0  0  0  0
  -10.6375   -1.6384  -22.7047 C   0  0  0  0  0  0  0  0  0  0  0  0
  -11.2462   -2.5740  -21.8613 C   0  0  0  0  0  0  0  0  0  0  0  0
  -12.6168   -2.5767  -21.7107 C   0  0  0  0  0  0  0  0  0  0  0  0
  -13.1724   -3.4646  -20.8707 F   0  0  0  0  0  0  0  0  0  0  0  0
  -13.4483   -1.6856  -22.3776 C   0  0  0  0  0  0  0  0  0  0  0  0
  -12.8525   -0.7511  -23.1983 C   0  0  0  0  0  0  0  0  0  0  0  0
  -11.4660   -0.7022  -23.3440 C   0  0  0  0  0  0  0  0  0  0  0  0
  -10.8916    0.4261  -24.1481 C   0  0  0  0  0  0  0  0  0  0  0  0
  -11.5980    1.3090  -24.6210 O   0  0  0  0  0  0  0  0  0  0  0  0
  -13.4474   -0.0187  -23.7298 H   0  0  0  0  0  0  0  0  0  0  0  0
  -14.5206   -1.7210  -22.2227 H   0  0  0  0  0  0  0  0  0  0  0  0
  -10.6774   -3.3004  -21.2936 H   0  0  0  0  0  0  0  0  0  0  0  0
   -9.0259   -1.5024  -24.9808 H   0  0  0  0  0  0  0  0  0  0  0  0
   -7.7124   -0.6089  -24.1846 H   0  0  0  0  0  0  0  0  0  0  0  0
   -8.3625    1.2495  -25.8219 H   0  0  0  0  0  0  0  0  0  0  0  0
   -9.6426    2.2828  -25.1633 H   0  0  0  0  0  0  0  0  0  0  0  0
   -9.2741    2.7405  -22.5954 H   0  0  0  0  0  0  0  0  0  0  0  0
   -7.8912    3.8395  -21.0973 H   0  0  0  0  0  0  0  0  0  0  0  0
   -6.7804    2.4826  -21.5145 H   0  0  0  0  0  0  0  0  0  0  0  0
   -6.6723    4.0506  -22.3546 H   0  0  0  0  0  0  0  0  0  0  0  0
  1  2  1  0
  2  3  1  0
  3  4  2  0
  3  5  1  0
  5  6  1  0
  6  7  1  0
  8  7  1  6
  8  9  1  0
  9 10  2  0
  9 11  1  0
 11 12  1  0
 12 13  2  0
 13 14  1  0
 14 15  2  0
 15 16  1  0
 16 17  2  0
 17 18  1  0
 18 19  2  0
 19 20  1  0
 20 21  2  0
 20 22  1  0
 19 23  1  0
 18 24  1  0
 17 25  1  0
 15 26  1  0
 13 27  1  0
 11 28  1  0
 28 29  1  0
 29 30  1  0
 30 31  1  0
 31 32  1  0
 32 33  1  0
 33 34  1  0
 33 35  1  0
 33 36  1  0
 32 37  1  0
 37 38  1  0
 37 39  1  0
 37 40  1  0
 32 41  1  0
 30 42  1  0
 30 43  1  0
 29 44  1  1
 28 45  1  0
 28 46  1  0
  8 47  1  0
 47 48  2  0
 48 49  1  0
 49 50  1  0
 49 51  2  0
 51 52  1  0
 52 53  2  0
 53 54  1  0
 54 55  2  0
 52 56  1  0
 51 57  1  0
 48 58  1  0
  7 59  1  0
  7 60  1  0
  5 61  1  0
  5 62  1  0
  2 63  1  0
  1 64  1  0
  1 65  1  0
  1 66  1  0
 54  6  1  0
 29  8  1  0
 53 47  1  0
 21 12  1  0
 21 16  1  0
M  END
>  <cnnaffinities>  (48) 
[6.9002, 6.7501, 6.69904, 6.82897, 6.87024, 6.96967]

>  <score>  (48) 
6.9002

>  <index>  (48) 
50

>  <Smiles>  (48) 
C(N(C(=O)C(N1C([C@@]2(C(=O)N(c3c(nc(c4c(c(c(c(c34)[H])[H])[H])[H])[H])[H])C([C@@]2(C(OC(C([H])([H])[H])(C([H])([H])[H])[H])([H])[H])[H])([H])[H])c2c(c(F)c(c(c2C1=O)[H])[H])[H])([H])[H])([H])[H])[H])([H])([H])[H]

>  <h>  (48) 
<NA>

>  <Training>  (48) 
True

>  <Success>  (48) 
True

>  <enamine_searched>  (48) 
False

>  <enamine_id>  (48) 
nan

$$$$

     RDKit          3D

 50 52  0  0  0  0  0  0  0  0999 V2000
  -11.5941   -0.2636  -25.0488 C   0  0  0  0  0  0  0  0  0  0  0  0
  -10.8001   -0.0011  -24.0149 C   0  0  0  0  0  0  0  0  0  0  0  0
  -10.6955   -0.9349  -22.8255 C   0  0  0  0  0  0  0  0  0  0  0  0
   -9.3394   -1.4141  -22.5718 N   0  0  0  0  0  0  0  0  0  0  0  0
   -8.6388   -0.8658  -21.5131 C   0  0  0  0  0  0  0  0  0  0  0  0
   -9.1174    0.0048  -20.7909 O   0  0  0  0  0  0  0  0  0  0  0  0
   -7.3768   -1.3645  -21.3333 N   0  0  0  0  0  0  0  0  0  0  0  0
   -6.5323   -0.9653  -20.2705 C   0  0  0  0  0  0  0  0  0  0  0  0
   -6.8139   -1.2525  -18.9606 C   0  0  0  0  0  0  0  0  0  0  0  0
   -5.9605   -1.0025  -17.9357 N   0  0  0  0  0  0  0  0  0  0  0  0
   -4.8301   -0.3960  -18.2013 C   0  0  0  0  0  0  0  0  0  0  0  0
   -4.4606    0.0323  -19.5066 C   0  0  0  0  0  0  0  0  0  0  0  0
   -3.2932    0.7956  -19.7563 C   0  0  0  0  0  0  0  0  0  0  0  0
   -3.0711    1.3255  -20.9999 C   0  0  0  0  0  0  0  0  0  0  0  0
   -3.9531    1.0488  -22.0695 C   0  0  0  0  0  0  0  0  0  0  0  0
   -5.0552    0.2564  -21.8664 C   0  0  0  0  0  0  0  0  0  0  0  0
   -5.3463   -0.2391  -20.5705 C   0  0  0  0  0  0  0  0  0  0  0  0
   -5.7170    0.0024  -22.6911 H   0  0  0  0  0  0  0  0  0  0  0  0
   -3.7684    1.4745  -23.0511 H   0  0  0  0  0  0  0  0  0  0  0  0
   -2.2308    1.9924  -21.1647 H   0  0  0  0  0  0  0  0  0  0  0  0
   -2.6515    1.0187  -18.9097 H   0  0  0  0  0  0  0  0  0  0  0  0
   -4.1483   -0.1913  -17.3714 H   0  0  0  0  0  0  0  0  0  0  0  0
   -7.7490   -1.7483  -18.7059 H   0  0  0  0  0  0  0  0  0  0  0  0
   -7.0189   -2.0100  -22.0226 H   0  0  0  0  0  0  0  0  0  0  0  0
   -8.7332   -2.1976  -23.6033 C   0  0  0  0  0  0  0  0  0  0  0  0
   -9.1696   -3.4970  -23.8551 C   0  0  0  0  0  0  0  0  0  0  0  0
   -8.5774   -4.2403  -24.8709 C   0  0  0  0  0  0  0  0  0  0  0  0
   -7.5765   -3.6970  -25.6685 C   0  0  0  0  0  0  0  0  0  0  0  0
   -7.1863   -2.3846  -25.4364 C   0  0  0  0  0  0  0  0  0  0  0  0
   -5.9612   -1.6649  -26.4454 Cl  0  0  0  0  0  0  0  0  0  0  0  0
   -7.7538   -1.6299  -24.4180 C   0  0  0  0  0  0  0  0  0  0  0  0
   -7.4477   -0.5968  -24.2712 H   0  0  0  0  0  0  0  0  0  0  0  0
   -7.1266   -4.2702  -26.4746 H   0  0  0  0  0  0  0  0  0  0  0  0
   -8.9141   -5.2560  -25.0557 H   0  0  0  0  0  0  0  0  0  0  0  0
   -9.9602   -3.9318  -23.2477 H   0  0  0  0  0  0  0  0  0  0  0  0
  -11.3183   -1.8179  -23.0031 H   0  0  0  0  0  0  0  0  0  0  0  0
  -11.0516   -0.4663  -21.9103 H   0  0  0  0  0  0  0  0  0  0  0  0
   -9.9031    1.1995  -24.1631 C   0  0  0  0  0  0  0  0  0  0  0  0
   -9.6532    1.6515  -25.2764 O   0  0  0  0  0  0  0  0  0  0  0  0
   -9.3701    1.7424  -23.0416 N   0  0  0  0  0  0  0  0  0  0  0  0
   -8.1393    2.4963  -23.2009 C   0  0  0  0  0  0  0  0  0  0  0  0
   -7.5012    2.7485  -21.8515 C   0  0  0  0  0  0  0  0  0  0  0  0
   -7.5350    1.8352  -21.2396 H   0  0  0  0  0  0  0  0  0  0  0  0
   -6.4539    3.0320  -21.9692 H   0  0  0  0  0  0  0  0  0  0  0  0
   -7.9875    3.5803  -21.3302 H   0  0  0  0  0  0  0  0  0  0  0  0
   -7.4592    1.9125  -23.8386 H   0  0  0  0  0  0  0  0  0  0  0  0
   -8.3398    3.4312  -23.7345 H   0  0  0  0  0  0  0  0  0  0  0  0
   -9.5295    1.3070  -22.1374 H   0  0  0  0  0  0  0  0  0  0  0  0
  -11.5736    0.3976  -25.9098 H   0  0  0  0  0  0  0  0  0  0  0  0
  -12.2522   -1.1298  -25.0584 H   0  0  0  0  0  0  0  0  0  0  0  0
  1  2  2  0
  2  3  1  0
  3  4  1  0
  4  5  1  0
  5  6  2  0
  5  7  1  0
  7  8  1  0
  8  9  2  0
  9 10  1  0
 10 11  2  0
 11 12  1  0
 12 13  2  0
 13 14  1  0
 14 15  2  0
 15 16  1  0
 16 17  2  0
 16 18  1  0
 15 19  1  0
 14 20  1  0
 13 21  1  0
 11 22  1  0
  9 23  1  0
  7 24  1  0
  4 25  1  0
 25 26  2  0
 26 27  1  0
 27 28  2  0
 28 29  1  0
 29 30  1  0
 29 31  2  0
 31 32  1  0
 28 33  1  0
 27 34  1  0
 26 35  1  0
  3 36  1  0
  3 37  1  0
  2 38  1  0
 38 39  2  0
 38 40  1  0
 40 41  1  0
 41 42  1  0
 42 43  1  0
 42 44  1  0
 42 45  1  0
 41 46  1  0
 41 47  1  0
 40 48  1  0
  1 49  1  0
  1 50  1  0
 17  8  1  0
 31 25  1  0
 17 12  1  0
M  END
>  <cnnaffinities>  (49) 
[6.17295, 6.27577, 6.17219, 6.0513]

>  <score>  (49) 
6.17295

>  <index>  (49) 
51

>  <Smiles>  (49) 
C(=C(C(N(C(=O)N(c1c(nc(c2c(c(c(c(c12)[H])[H])[H])[H])[H])[H])[H])c1c(c(c(c(Cl)c1[H])[H])[H])[H])([H])[H])C(=O)N(C(C([H])([H])[H])([H])[H])[H])([H])[H]

>  <h>  (49) 
<NA>

>  <Training>  (49) 
True

>  <Success>  (49) 
True

>  <enamine_searched>  (49) 
False

>  <enamine_id>  (49) 
nan

$$$$

     RDKit          3D

 57 60  0  0  0  0  0  0  0  0999 V2000
  -10.8567   -6.3871  -26.4185 C   0  0  0  0  0  0  0  0  0  0  0  0
  -10.5370   -6.2946  -24.9258 C   0  0  0  0  0  0  0  0  0  0  0  0
   -9.9318   -4.9893  -24.4424 C   0  0  0  0  0  0  0  0  0  0  0  0
  -10.3232   -4.4526  -23.4231 O   0  0  0  0  0  0  0  0  0  0  0  0
   -8.9155   -4.5243  -25.2423 N   0  0  0  0  0  0  0  0  0  0  0  0
   -8.2208   -3.3043  -25.1458 C   0  0  0  0  0  0  0  0  0  0  0  0
   -7.1933   -3.0450  -26.0632 C   0  0  0  0  0  0  0  0  0  0  0  0
   -6.5394   -1.8168  -26.0422 C   0  0  0  0  0  0  0  0  0  0  0  0
   -6.8937   -0.8501  -25.1035 C   0  0  0  0  0  0  0  0  0  0  0  0
   -7.9059   -1.1237  -24.1843 C   0  0  0  0  0  0  0  0  0  0  0  0
   -8.2982   -0.1209  -23.2378 N   0  0  0  0  0  0  0  0  0  0  0  0
   -8.9922    1.0679  -23.7545 C   0  0  0  0  0  0  0  0  0  0  0  0
  -10.4512    0.8090  -24.0771 C   0  0  0  0  0  0  0  0  0  0  0  0
  -10.8083    0.1747  -25.2671 C   0  0  0  0  0  0  0  0  0  0  0  0
  -12.1399   -0.1123  -25.5430 C   0  0  0  0  0  0  0  0  0  0  0  0
  -13.1339    0.2540  -24.6406 C   0  0  0  0  0  0  0  0  0  0  0  0
  -12.7873    0.8891  -23.4532 C   0  0  0  0  0  0  0  0  0  0  0  0
  -11.4514    1.1543  -23.1679 C   0  0  0  0  0  0  0  0  0  0  0  0
  -11.1767    1.6206  -22.2236 H   0  0  0  0  0  0  0  0  0  0  0  0
  -13.5586    1.1786  -22.7436 H   0  0  0  0  0  0  0  0  0  0  0  0
  -14.1762    0.0403  -24.8602 H   0  0  0  0  0  0  0  0  0  0  0  0
  -12.3917   -0.6372  -26.4593 H   0  0  0  0  0  0  0  0  0  0  0  0
  -10.0326   -0.1135  -25.9757 H   0  0  0  0  0  0  0  0  0  0  0  0
   -8.9001    1.8576  -23.0054 H   0  0  0  0  0  0  0  0  0  0  0  0
   -8.4598    1.3985  -24.6550 H   0  0  0  0  0  0  0  0  0  0  0  0
   -8.3149   -0.3353  -21.8688 C   0  0  0  0  0  0  0  0  0  0  0  0
   -8.9702    0.3634  -21.1184 O   0  0  0  0  0  0  0  0  0  0  0  0
   -7.4437   -1.4742  -21.3152 C   0  0  0  0  0  0  0  0  0  0  0  0
   -6.4856   -1.0268  -20.2397 C   0  0  0  0  0  0  0  0  0  0  0  0
   -6.7206   -1.3314  -18.9277 C   0  0  0  0  0  0  0  0  0  0  0  0
   -5.8690   -1.0739  -17.9023 N   0  0  0  0  0  0  0  0  0  0  0  0
   -4.7657   -0.4341  -18.1901 C   0  0  0  0  0  0  0  0  0  0  0  0
   -4.4141   -0.0017  -19.4961 C   0  0  0  0  0  0  0  0  0  0  0  0
   -3.2364    0.7471  -19.7472 C   0  0  0  0  0  0  0  0  0  0  0  0
   -2.9705    1.2371  -20.9925 C   0  0  0  0  0  0  0  0  0  0  0  0
   -3.8603    0.9715  -22.0594 C   0  0  0  0  0  0  0  0  0  0  0  0
   -4.9881    0.2106  -21.8561 C   0  0  0  0  0  0  0  0  0  0  0  0
   -5.3098   -0.2794  -20.5588 C   0  0  0  0  0  0  0  0  0  0  0  0
   -5.6484    0.0028  -22.6981 H   0  0  0  0  0  0  0  0  0  0  0  0
   -3.6595    1.3937  -23.0405 H   0  0  0  0  0  0  0  0  0  0  0  0
   -2.0913    1.8531  -21.1677 H   0  0  0  0  0  0  0  0  0  0  0  0
   -2.5772    0.9649  -18.9112 H   0  0  0  0  0  0  0  0  0  0  0  0
   -4.0901   -0.2150  -17.3618 H   0  0  0  0  0  0  0  0  0  0  0  0
   -7.6425   -1.8362  -18.6366 H   0  0  0  0  0  0  0  0  0  0  0  0
   -8.1396   -2.2146  -20.8957 H   0  0  0  0  0  0  0  0  0  0  0  0
   -6.8845   -1.9572  -22.1207 H   0  0  0  0  0  0  0  0  0  0  0  0
   -8.5691   -2.3467  -24.2003 C   0  0  0  0  0  0  0  0  0  0  0  0
   -9.3670   -2.5482  -23.4938 H   0  0  0  0  0  0  0  0  0  0  0  0
   -6.4096    0.1217  -25.0888 H   0  0  0  0  0  0  0  0  0  0  0  0
   -5.7639   -1.6002  -26.7752 H   0  0  0  0  0  0  0  0  0  0  0  0
   -6.9214   -3.7933  -26.8042 H   0  0  0  0  0  0  0  0  0  0  0  0
   -8.7690   -5.0332  -26.1022 H   0  0  0  0  0  0  0  0  0  0  0  0
  -11.4641   -6.3880  -24.3621 H   0  0  0  0  0  0  0  0  0  0  0  0
   -9.8594   -7.0926  -24.5939 H   0  0  0  0  0  0  0  0  0  0  0  0
  -11.5573   -5.5961  -26.6918 H   0  0  0  0  0  0  0  0  0  0  0  0
  -11.3249   -7.3456  -26.6679 H   0  0  0  0  0  0  0  0  0  0  0  0
   -9.9857   -6.2702  -27.0724 H   0  0  0  0  0  0  0  0  0  0  0  0
  1  2  1  0
  2  3  1  0
  3  4  2  0
  3  5  1  0
  5  6  1  0
  6  7  2  0
  7  8  1  0
  8  9  2  0
  9 10  1  0
 10 11  1  0
 11 12  1  0
 12 13  1  0
 13 14  2  0
 14 15  1  0
 15 16  2  0
 16 17  1  0
 17 18  2  0
 18 19  1  0
 17 20  1  0
 16 21  1  0
 15 22  1  0
 14 23  1  0
 12 24  1  0
 12 25  1  0
 11 26  1  0
 26 27  2  0
 26 28  1  0
 28 29  1  0
 29 30  2  0
 30 31  1  0
 31 32  2  0
 32 33  1  0
 33 34  2  0
 34 35  1  0
 35 36  2  0
 36 37  1  0
 37 38  2  0
 37 39  1  0
 36 40  1  0
 35 41  1  0
 34 42  1  0
 32 43  1  0
 30 44  1  0
 28 45  1  0
 28 46  1  0
 10 47  2  0
 47 48  1  0
  9 49  1  0
  8 50  1  0
  7 51  1  0
  5 52  1  0
  2 53  1  0
  2 54  1  0
  1 55  1  0
  1 56  1  0
  1 57  1  0
 47  6  1  0
 18 13  1  0
 38 29  1  0
 38 33  1  0
M  END
>  <cnnaffinities>  (50) 
[6.35037, 6.34697]

>  <score>  (50) 
6.35037

>  <index>  (50) 
52

>  <Smiles>  (50) 
C(C(C(=O)N(c1c(c(c(c(N(C(c2c(c(c(c(c2[H])[H])[H])[H])[H])([H])[H])C(=O)C(c2c(nc(c3c(c(c(c(c23)[H])[H])[H])[H])[H])[H])([H])[H])c1[H])[H])[H])[H])[H])([H])[H])([H])([H])[H]

>  <h>  (50) 
<NA>

>  <Training>  (50) 
True

>  <Success>  (50) 
True

>  <enamine_searched>  (50) 
False

>  <enamine_id>  (50) 
nan

$$$$

     RDKit          3D

 59 63  0  0  0  0  0  0  0  0999 V2000
   -7.5190   -6.1621  -28.9873 C   0  0  0  0  0  0  0  0  0  0  0  0
   -8.7705   -5.4953  -28.4104 C   0  0  0  0  0  0  0  0  0  0  0  0
   -8.5965   -4.0707  -28.1281 N   0  0  0  0  0  0  0  0  0  0  0  0
   -7.7478   -3.6810  -27.1296 C   0  0  0  0  0  0  0  0  0  0  0  0
   -7.0383   -4.4555  -26.4994 O   0  0  0  0  0  0  0  0  0  0  0  0
   -7.7295   -2.1700  -26.8646 C   0  0  0  0  0  0  0  0  0  0  0  0
   -8.5785   -1.8358  -25.7236 N   0  0  0  0  0  0  0  0  0  0  0  0
   -7.9994   -1.2914  -24.4989 C   0  0  0  0  0  0  0  0  0  0  0  0
   -8.8360   -1.5709  -23.2166 C   0  0  2  0  0  0  0  0  0  0  0  0
   -8.2517   -0.6309  -22.1233 C   0  0  0  0  0  0  0  0  0  0  0  0
   -8.4078    0.5708  -22.0424 O   0  0  0  0  0  0  0  0  0  0  0  0
   -7.4556   -1.3784  -21.2699 N   0  0  0  0  0  0  0  0  0  0  0  0
   -6.5423   -0.9224  -20.2777 C   0  0  0  0  0  0  0  0  0  0  0  0
   -6.7253   -1.3436  -18.9792 C   0  0  0  0  0  0  0  0  0  0  0  0
   -5.8364   -1.1775  -17.9746 N   0  0  0  0  0  0  0  0  0  0  0  0
   -4.7172   -0.5574  -18.2500 C   0  0  0  0  0  0  0  0  0  0  0  0
   -4.4003   -0.0343  -19.5332 C   0  0  0  0  0  0  0  0  0  0  0  0
   -3.1808    0.6564  -19.7701 C   0  0  0  0  0  0  0  0  0  0  0  0
   -2.8931    1.1591  -21.0069 C   0  0  0  0  0  0  0  0  0  0  0  0
   -3.7886    0.9443  -22.0787 C   0  0  0  0  0  0  0  0  0  0  0  0
   -4.9630    0.2549  -21.8831 C   0  0  0  0  0  0  0  0  0  0  0  0
   -5.3204   -0.2299  -20.5930 C   0  0  0  0  0  0  0  0  0  0  0  0
   -5.6164    0.0543  -22.7277 H   0  0  0  0  0  0  0  0  0  0  0  0
   -3.5650    1.3674  -23.0525 H   0  0  0  0  0  0  0  0  0  0  0  0
   -1.9743    1.7201  -21.1715 H   0  0  0  0  0  0  0  0  0  0  0  0
   -2.5100    0.8128  -18.9308 H   0  0  0  0  0  0  0  0  0  0  0  0
   -3.9930   -0.4450  -17.4442 H   0  0  0  0  0  0  0  0  0  0  0  0
   -7.6388   -1.8636  -18.6933 H   0  0  0  0  0  0  0  0  0  0  0  0
   -7.3928   -2.7743  -21.6349 C   0  0  0  0  0  0  0  0  0  0  0  0
   -8.5811   -2.9728  -22.5702 C   0  0  2  0  0  0  0  0  0  0  0  0
   -8.3576   -4.1415  -23.5174 C   0  0  0  0  0  0  0  0  0  0  0  0
   -8.2621   -5.0732  -22.9519 H   0  0  0  0  0  0  0  0  0  0  0  0
   -7.4391   -4.0182  -24.1018 H   0  0  0  0  0  0  0  0  0  0  0  0
   -9.1866   -4.2527  -24.2190 H   0  0  0  0  0  0  0  0  0  0  0  0
   -9.4681   -3.1653  -21.9481 H   0  0  0  0  0  0  0  0  0  0  0  0
   -6.4412   -3.0306  -22.1279 H   0  0  0  0  0  0  0  0  0  0  0  0
   -7.4494   -3.3874  -20.7394 H   0  0  0  0  0  0  0  0  0  0  0  0
  -10.3121   -1.3464  -23.5240 C   0  0  0  0  0  0  0  0  0  0  0  0
  -11.2503   -1.2250  -22.4818 C   0  0  0  0  0  0  0  0  0  0  0  0
  -12.5972   -1.0697  -22.7894 C   0  0  0  0  0  0  0  0  0  0  0  0
  -13.8184   -1.0131  -21.5490 Cl  0  0  0  0  0  0  0  0  0  0  0  0
  -13.0482   -0.9924  -24.1056 C   0  0  0  0  0  0  0  0  0  0  0  0
  -12.1326   -1.1224  -25.1287 C   0  0  0  0  0  0  0  0  0  0  0  0
  -10.7885   -1.3559  -24.8439 C   0  0  0  0  0  0  0  0  0  0  0  0
   -9.9083   -1.7204  -25.9940 C   0  0  0  0  0  0  0  0  0  0  0  0
  -10.3589   -1.9408  -27.1212 O   0  0  0  0  0  0  0  0  0  0  0  0
  -12.4413   -1.0796  -26.1675 H   0  0  0  0  0  0  0  0  0  0  0  0
  -14.1103   -0.8814  -24.2981 H   0  0  0  0  0  0  0  0  0  0  0  0
  -10.9292   -1.2639  -21.4438 H   0  0  0  0  0  0  0  0  0  0  0  0
   -6.9941   -1.7117  -24.3798 H   0  0  0  0  0  0  0  0  0  0  0  0
   -7.8828   -0.2023  -24.5801 H   0  0  0  0  0  0  0  0  0  0  0  0
   -8.1101   -1.6383  -27.7443 H   0  0  0  0  0  0  0  0  0  0  0  0
   -6.7022   -1.8516  -26.6623 H   0  0  0  0  0  0  0  0  0  0  0  0
   -9.4089   -3.4754  -28.2666 H   0  0  0  0  0  0  0  0  0  0  0  0
   -9.5965   -5.5817  -29.1269 H   0  0  0  0  0  0  0  0  0  0  0  0
   -9.0700   -6.0251  -27.4947 H   0  0  0  0  0  0  0  0  0  0  0  0
   -6.7015   -6.1596  -28.2617 H   0  0  0  0  0  0  0  0  0  0  0  0
   -7.1833   -5.6567  -29.8991 H   0  0  0  0  0  0  0  0  0  0  0  0
   -7.7416   -7.2071  -29.2352 H   0  0  0  0  0  0  0  0  0  0  0  0
  1  2  1  0
  2  3  1  0
  3  4  1  0
  4  5  2  0
  4  6  1  0
  6  7  1  0
  7  8  1  0
  9  8  1  6
  9 10  1  0
 10 11  2  0
 10 12  1  0
 12 13  1  0
 13 14  2  0
 14 15  1  0
 15 16  2  0
 16 17  1  0
 17 18  2  0
 18 19  1  0
 19 20  2  0
 20 21  1  0
 21 22  2  0
 21 23  1  0
 20 24  1  0
 19 25  1  0
 18 26  1  0
 16 27  1  0
 14 28  1  0
 12 29  1  0
 29 30  1  0
 30 31  1  0
 31 32  1  0
 31 33  1  0
 31 34  1  0
 30 35  1  1
 29 36  1  0
 29 37  1  0
  9 38  1  0
 38 39  2  0
 39 40  1  0
 40 41  1  0
 40 42  2  0
 42 43  1  0
 43 44  2  0
 44 45  1  0
 45 46  2  0
 43 47  1  0
 42 48  1  0
 39 49  1  0
  8 50  1  0
  8 51  1  0
  6 52  1  0
  6 53  1  0
  3 54  1  0
  2 55  1  0
  2 56  1  0
  1 57  1  0
  1 58  1  0
  1 59  1  0
 45  7  1  0
 30  9  1  0
 44 38  1  0
 22 13  1  0
 22 17  1  0
M  END
>  <cnnaffinities>  (51) 
[6.40514, 6.51167]

>  <score>  (51) 
6.40514

>  <index>  (51) 
53

>  <Smiles>  (51) 
C(C(N(C(=O)C(N1C([C@@]2(C(=O)N(c3c(nc(c4c(c(c(c(c34)[H])[H])[H])[H])[H])[H])C([C@@]2(C([H])([H])[H])[H])([H])[H])c2c(c(Cl)c(c(c2C1=O)[H])[H])[H])([H])[H])([H])[H])[H])([H])[H])([H])([H])[H]

>  <h>  (51) 
<NA>

>  <Training>  (51) 
True

>  <Success>  (51) 
True

>  <enamine_searched>  (51) 
False

>  <enamine_id>  (51) 
nan

$$$$

     RDKit          3D

 40 43  0  0  0  0  0  0  0  0999 V2000
   -7.9587   -3.5377  -24.0321 C   0  0  0  0  0  0  0  0  0  0  0  0
   -8.0125   -2.6603  -22.8947 N   0  0  0  0  0  0  0  0  0  0  0  0
   -9.0655   -2.0144  -22.3087 C   0  0  0  0  0  0  0  0  0  0  0  0
  -10.4393   -2.0451  -22.8911 C   0  0  0  0  0  0  0  0  0  0  0  0
  -10.5389   -1.1650  -24.1255 C   0  0  0  0  0  0  0  0  0  0  0  0
  -10.5372    0.2196  -23.9672 C   0  0  0  0  0  0  0  0  0  0  0  0
  -10.6033    1.0601  -25.0728 C   0  0  0  0  0  0  0  0  0  0  0  0
  -10.6499    0.5207  -26.3555 C   0  0  0  0  0  0  0  0  0  0  0  0
  -10.6579   -0.8598  -26.5241 C   0  0  0  0  0  0  0  0  0  0  0  0
  -10.5874   -1.6969  -25.4134 C   0  0  0  0  0  0  0  0  0  0  0  0
  -10.5421   -2.7756  -25.5533 H   0  0  0  0  0  0  0  0  0  0  0  0
  -10.7104   -1.2821  -27.5238 H   0  0  0  0  0  0  0  0  0  0  0  0
  -10.6484    1.1694  -27.2271 H   0  0  0  0  0  0  0  0  0  0  0  0
  -10.6066    2.1382  -24.9338 H   0  0  0  0  0  0  0  0  0  0  0  0
  -10.4701    0.6320  -22.9621 H   0  0  0  0  0  0  0  0  0  0  0  0
  -10.7183   -3.0764  -23.1426 H   0  0  0  0  0  0  0  0  0  0  0  0
  -11.1183   -1.7061  -22.1026 H   0  0  0  0  0  0  0  0  0  0  0  0
   -8.6937   -1.3246  -21.2700 N   0  0  0  0  0  0  0  0  0  0  0  0
   -7.3338   -1.4831  -21.2259 N   0  0  0  0  0  0  0  0  0  0  0  0
   -6.4855   -1.0056  -20.2156 C   0  0  0  0  0  0  0  0  0  0  0  0
   -6.7782   -1.2707  -18.9064 C   0  0  0  0  0  0  0  0  0  0  0  0
   -5.9433   -0.9951  -17.8868 N   0  0  0  0  0  0  0  0  0  0  0  0
   -4.8171   -0.3826  -18.1742 C   0  0  0  0  0  0  0  0  0  0  0  0
   -4.4447    0.0308  -19.4857 C   0  0  0  0  0  0  0  0  0  0  0  0
   -3.2888    0.8258  -19.7267 C   0  0  0  0  0  0  0  0  0  0  0  0
   -3.0692    1.3788  -20.9583 C   0  0  0  0  0  0  0  0  0  0  0  0
   -3.9367    1.0754  -22.0357 C   0  0  0  0  0  0  0  0  0  0  0  0
   -5.0125    0.2486  -21.8542 C   0  0  0  0  0  0  0  0  0  0  0  0
   -5.3100   -0.2704  -20.5556 C   0  0  0  0  0  0  0  0  0  0  0  0
   -5.7052    0.0727  -22.6739 H   0  0  0  0  0  0  0  0  0  0  0  0
   -3.7602    1.5155  -23.0141 H   0  0  0  0  0  0  0  0  0  0  0  0
   -2.2748    2.1039  -21.1087 H   0  0  0  0  0  0  0  0  0  0  0  0
   -2.6260    1.0414  -18.8900 H   0  0  0  0  0  0  0  0  0  0  0  0
   -4.1689   -0.1432  -17.3329 H   0  0  0  0  0  0  0  0  0  0  0  0
   -7.7440   -1.6963  -18.6550 H   0  0  0  0  0  0  0  0  0  0  0  0
   -6.8776   -2.3727  -22.1636 C   0  0  0  0  0  0  0  0  0  0  0  0
   -5.7525   -2.8073  -22.3005 O   0  0  0  0  0  0  0  0  0  0  0  0
   -8.8134   -4.2159  -24.0300 H   0  0  0  0  0  0  0  0  0  0  0  0
   -7.0364   -4.1114  -23.9379 H   0  0  0  0  0  0  0  0  0  0  0  0
   -7.9310   -2.9639  -24.9613 H   0  0  0  0  0  0  0  0  0  0  0  0
  1  2  1  0
  2  3  1  0
  3  4  1  0
  4  5  1  0
  5  6  2  0
  6  7  1  0
  7  8  2  0
  8  9  1  0
  9 10  2  0
 10 11  1  0
  9 12  1  0
  8 13  1  0
  7 14  1  0
  6 15  1  0
  4 16  1  0
  4 17  1  0
  3 18  2  0
 18 19  1  0
 19 20  1  0
 20 21  2  0
 21 22  1  0
 22 23  2  0
 23 24  1  0
 24 25  2  0
 25 26  1  0
 26 27  2  0
 27 28  1  0
 28 29  2  0
 28 30  1  0
 27 31  1  0
 26 32  1  0
 25 33  1  0
 23 34  1  0
 21 35  1  0
 19 36  1  0
 36 37  2  0
  1 38  1  0
  1 39  1  0
  1 40  1  0
 36  2  1  0
 10  5  1  0
 29 20  1  0
 29 24  1  0
M  END
>  <cnnaffinities>  (52) 
[5.73742, 5.73806]

>  <score>  (52) 
5.73742

>  <index>  (52) 
54

>  <Smiles>  (52) 
C(n1c(C(c2c(c(c(c(c2[H])[H])[H])[H])[H])([H])[H])nn(c2c(nc(c3c(c(c(c(c23)[H])[H])[H])[H])[H])[H])c1=O)([H])([H])[H]

>  <h>  (52) 
<NA>

>  <Training>  (52) 
True

>  <Success>  (52) 
True

>  <enamine_searched>  (52) 
False

>  <enamine_id>  (52) 
nan

$$$$

     RDKit          3D

 61 66  0  0  0  0  0  0  0  0999 V2000
   -7.0135   -5.4579  -25.0335 C   0  0  0  0  0  0  0  0  0  0  0  0
   -7.3598   -4.7876  -23.8499 O   0  0  0  0  0  0  0  0  0  0  0  0
   -8.0134   -3.5683  -24.0961 C   0  0  0  0  0  0  0  0  0  0  0  0
   -8.3085   -2.9182  -22.7522 C   0  0  1  0  0  0  0  0  0  0  0  0
   -7.0134   -2.5731  -22.0008 C   0  0  0  0  0  0  0  0  0  0  0  0
   -7.3730   -1.4044  -21.2316 N   0  0  0  0  0  0  0  0  0  0  0  0
   -6.5216   -0.9431  -20.2055 C   0  0  0  0  0  0  0  0  0  0  0  0
   -6.7592   -1.2717  -18.8962 C   0  0  0  0  0  0  0  0  0  0  0  0
   -5.8822   -1.0350  -17.8886 N   0  0  0  0  0  0  0  0  0  0  0  0
   -4.7563   -0.4337  -18.1855 C   0  0  0  0  0  0  0  0  0  0  0  0
   -4.4138    0.0053  -19.4961 C   0  0  0  0  0  0  0  0  0  0  0  0
   -3.2451    0.7622  -19.7578 C   0  0  0  0  0  0  0  0  0  0  0  0
   -3.0255    1.2904  -21.0007 C   0  0  0  0  0  0  0  0  0  0  0  0
   -3.9242    1.0200  -22.0562 C   0  0  0  0  0  0  0  0  0  0  0  0
   -5.0119    0.2089  -21.8467 C   0  0  0  0  0  0  0  0  0  0  0  0
   -5.3199   -0.2555  -20.5420 C   0  0  0  0  0  0  0  0  0  0  0  0
   -5.6873   -0.0372  -22.6580 H   0  0  0  0  0  0  0  0  0  0  0  0
   -3.7512    1.4596  -23.0360 H   0  0  0  0  0  0  0  0  0  0  0  0
   -2.1762    1.9410  -21.1708 H   0  0  0  0  0  0  0  0  0  0  0  0
   -2.5667    0.9442  -18.9288 H   0  0  0  0  0  0  0  0  0  0  0  0
   -4.0389   -0.2692  -17.3770 H   0  0  0  0  0  0  0  0  0  0  0  0
   -7.6949   -1.7604  -18.6325 H   0  0  0  0  0  0  0  0  0  0  0  0
   -8.5793   -0.8294  -21.5632 C   0  0  0  0  0  0  0  0  0  0  0  0
   -9.0752    0.1239  -21.0011 O   0  0  0  0  0  0  0  0  0  0  0  0
   -9.1451   -1.6064  -22.7840 C   0  0  1  0  0  0  0  0  0  0  0  0
   -8.8618   -0.8109  -24.0857 C   0  0  0  0  0  0  0  0  0  0  0  0
   -9.6716    0.3896  -24.1704 N   0  0  0  0  0  0  0  0  0  0  0  0
   -9.0490    1.6116  -24.6601 C   0  0  0  0  0  0  0  0  0  0  0  0
   -8.2055    2.2720  -23.6157 C   0  0  0  0  0  0  0  0  0  0  0  0
   -6.8588    2.3267  -23.4656 C   0  0  0  0  0  0  0  0  0  0  0  0
   -6.5935    3.0765  -22.3414 N   0  0  0  0  0  4  0  0  0  0  0  0
   -7.7527    3.4694  -21.8130 C   0  0  0  0  0  0  0  0  0  0  0  0
   -8.7575    2.9854  -22.5645 N   0  0  0  0  0  0  0  0  0  0  0  0
   -9.7342    2.9303  -22.2817 H   0  0  0  0  0  0  0  0  0  0  0  0
   -7.8481    4.1481  -20.9875 H   0  0  0  0  0  0  0  0  0  0  0  0
   -5.6848    3.1022  -21.8814 H   0  0  0  0  0  0  0  0  0  0  0  0
   -6.0374    1.8942  -24.0254 H   0  0  0  0  0  0  0  0  0  0  0  0
   -9.8544    2.2729  -24.9967 H   0  0  0  0  0  0  0  0  0  0  0  0
   -8.4409    1.3705  -25.5411 H   0  0  0  0  0  0  0  0  0  0  0  0
  -11.0288    0.3282  -24.0137 C   0  0  0  0  0  0  0  0  0  0  0  0
  -11.7856    1.1956  -24.4284 O   0  0  0  0  0  0  0  0  0  0  0  0
  -11.5334   -0.8743  -23.2654 C   0  0  0  0  0  0  0  0  0  0  0  0
  -12.9145   -1.0173  -23.1232 C   0  0  0  0  0  0  0  0  0  0  0  0
  -13.4437   -2.0015  -22.3148 C   0  0  0  0  0  0  0  0  0  0  0  0
  -12.5609   -2.8432  -21.6416 C   0  0  0  0  0  0  0  0  0  0  0  0
  -13.2038   -3.9774  -20.4953 Cl  0  0  0  0  0  0  0  0  0  0  0  0
  -11.1921   -2.7614  -21.8243 C   0  0  0  0  0  0  0  0  0  0  0  0
  -10.6487   -1.7782  -22.6599 C   0  0  0  0  0  0  0  0  0  0  0  0
  -10.5613   -3.4568  -21.2814 H   0  0  0  0  0  0  0  0  0  0  0  0
  -14.5146   -2.1052  -22.1707 H   0  0  0  0  0  0  0  0  0  0  0  0
  -13.5579   -0.3132  -23.6367 H   0  0  0  0  0  0  0  0  0  0  0  0
   -9.0780   -1.4582  -24.9475 H   0  0  0  0  0  0  0  0  0  0  0  0
   -7.8016   -0.5353  -24.1293 H   0  0  0  0  0  0  0  0  0  0  0  0
   -6.1753   -2.3726  -22.6871 H   0  0  0  0  0  0  0  0  0  0  0  0
   -6.7005   -3.3804  -21.3315 H   0  0  0  0  0  0  0  0  0  0  0  0
   -8.8398   -3.6627  -22.1569 H   0  0  0  0  0  0  0  0  0  0  0  0
   -8.9462   -3.7306  -24.6630 H   0  0  0  0  0  0  0  0  0  0  0  0
   -7.3670   -2.9063  -24.7017 H   0  0  0  0  0  0  0  0  0  0  0  0
   -6.5456   -6.4047  -24.7537 H   0  0  0  0  0  0  0  0  0  0  0  0
   -7.8991   -5.6698  -25.6530 H   0  0  0  0  0  0  0  0  0  0  0  0
   -6.3001   -4.8756  -25.6380 H   0  0  0  0  0  0  0  0  0  0  0  0
  1  2  1  0
  2  3  1  0
  3  4  1  0
  4  5  1  0
  5  6  1  0
  6  7  1  0
  7  8  2  0
  8  9  1  0
  9 10  2  0
 10 11  1  0
 11 12  2  0
 12 13  1  0
 13 14  2  0
 14 15  1  0
 15 16  2  0
 15 17  1  0
 14 18  1  0
 13 19  1  0
 12 20  1  0
 10 21  1  0
  8 22  1  0
  6 23  1  0
 23 24  2  0
 23 25  1  0
 25 26  1  6
 26 27  1  0
 27 28  1  0
 28 29  1  0
 29 30  2  0
 30 31  1  0
 31 32  2  0
 32 33  1  0
 33 34  1  0
 32 35  1  0
 31 36  1  0
 30 37  1  0
 28 38  1  0
 28 39  1  0
 27 40  1  0
 40 41  2  0
 40 42  1  0
 42 43  2  0
 43 44  1  0
 44 45  2  0
 45 46  1  0
 45 47  1  0
 47 48  2  0
 47 49  1  0
 44 50  1  0
 43 51  1  0
 26 52  1  0
 26 53  1  0
  5 54  1  0
  5 55  1  0
  4 56  1  1
  3 57  1  0
  3 58  1  0
  1 59  1  0
  1 60  1  0
  1 61  1  0
 25  4  1  0
 33 29  1  0
 48 42  1  0
 16  7  1  0
 48 25  1  0
 16 11  1  0
M  CHG  1  31   1
M  END
>  <cnnaffinities>  (53) 
[6.69685, 6.5929]

>  <score>  (53) 
6.69685

>  <index>  (53) 
55

>  <Smiles>  (53) 
C(OC([C@]1(C(N(c2c(nc(c3c(c(c(c(c23)[H])[H])[H])[H])[H])[H])C(=O)[C@]21C(N(C(c1c([n+](c(n1[H])[H])[H])[H])([H])[H])C(=O)c1c(c(c(Cl)c(c21)[H])[H])[H])([H])[H])([H])[H])[H])([H])[H])([H])([H])[H]

>  <h>  (53) 
<NA>

>  <Training>  (53) 
True

>  <Success>  (53) 
True

>  <enamine_searched>  (53) 
False

>  <enamine_id>  (53) 
nan

$$$$

     RDKit          3D

 57 62  0  0  0  0  0  0  0  0999 V2000
   -8.3018   -4.1384  -23.4877 C   0  0  0  0  0  0  0  0  0  0  0  0
   -8.5424   -2.9761  -22.5437 C   0  0  1  0  0  0  0  0  0  0  0  0
   -7.3825   -2.7891  -21.5684 C   0  0  0  0  0  0  0  0  0  0  0  0
   -7.4223   -1.3866  -21.2373 N   0  0  0  0  0  0  0  0  0  0  0  0
   -6.5282   -0.9193  -20.2426 C   0  0  0  0  0  0  0  0  0  0  0  0
   -6.7546   -1.2656  -18.9354 C   0  0  0  0  0  0  0  0  0  0  0  0
   -5.9091   -1.0147  -17.9078 N   0  0  0  0  0  0  0  0  0  0  0  0
   -4.7865   -0.3996  -18.1825 C   0  0  0  0  0  0  0  0  0  0  0  0
   -4.4343    0.0325  -19.4898 C   0  0  0  0  0  0  0  0  0  0  0  0
   -3.2544    0.7805  -19.7222 C   0  0  0  0  0  0  0  0  0  0  0  0
   -2.9929    1.2810  -20.9693 C   0  0  0  0  0  0  0  0  0  0  0  0
   -3.8450    0.9743  -22.0554 C   0  0  0  0  0  0  0  0  0  0  0  0
   -4.9650    0.2110  -21.8642 C   0  0  0  0  0  0  0  0  0  0  0  0
   -5.3137   -0.2376  -20.5613 C   0  0  0  0  0  0  0  0  0  0  0  0
   -5.5924   -0.0584  -22.7076 H   0  0  0  0  0  0  0  0  0  0  0  0
   -3.6202    1.3703  -23.0419 H   0  0  0  0  0  0  0  0  0  0  0  0
   -2.1334    1.9247  -21.1284 H   0  0  0  0  0  0  0  0  0  0  0  0
   -2.6203    0.9952  -18.8667 H   0  0  0  0  0  0  0  0  0  0  0  0
   -4.0814   -0.2176  -17.3669 H   0  0  0  0  0  0  0  0  0  0  0  0
   -7.6721   -1.7986  -18.6892 H   0  0  0  0  0  0  0  0  0  0  0  0
   -8.1537   -0.6235  -22.1246 C   0  0  0  0  0  0  0  0  0  0  0  0
   -8.2623    0.5807  -22.0771 O   0  0  0  0  0  0  0  0  0  0  0  0
   -8.7590   -1.5627  -23.1934 C   0  0  1  0  0  0  0  0  0  0  0  0
   -7.9711   -1.3026  -24.5001 C   0  0  0  0  0  0  0  0  0  0  0  0
   -8.6137   -1.8756  -25.6774 N   0  0  0  0  0  0  0  0  0  0  0  0
   -7.7936   -2.3041  -26.8018 C   0  0  0  0  0  0  0  0  0  0  0  0
   -7.6952   -3.8105  -26.8602 C   0  0  0  0  0  0  0  0  0  0  0  0
   -6.5247   -4.3493  -26.5199 N   0  0  0  0  0  0  0  0  0  0  0  0
   -6.4365   -5.6766  -26.6589 C   0  0  0  0  0  0  0  0  0  0  0  0
   -7.4937   -6.4591  -27.0827 C   0  0  0  0  0  0  0  0  0  0  0  0
   -8.6794   -5.7909  -27.3510 C   0  0  0  0  0  0  0  0  0  0  0  0
   -8.7995   -4.4728  -27.2307 N   0  0  0  0  0  0  0  0  0  0  0  0
   -9.5631   -6.3362  -27.6800 H   0  0  0  0  0  0  0  0  0  0  0  0
   -7.4054   -7.5336  -27.2028 H   0  0  0  0  0  0  0  0  0  0  0  0
   -5.4717   -6.1255  -26.4323 H   0  0  0  0  0  0  0  0  0  0  0  0
   -8.2719   -1.9246  -27.7124 H   0  0  0  0  0  0  0  0  0  0  0  0
   -6.7936   -1.8731  -26.7056 H   0  0  0  0  0  0  0  0  0  0  0  0
   -9.9530   -1.7295  -25.9153 C   0  0  0  0  0  0  0  0  0  0  0  0
  -10.4488   -1.9123  -27.0201 O   0  0  0  0  0  0  0  0  0  0  0  0
  -10.7758   -1.3590  -24.7358 C   0  0  0  0  0  0  0  0  0  0  0  0
  -12.1362   -1.1581  -24.9520 C   0  0  0  0  0  0  0  0  0  0  0  0
  -12.9857   -0.8696  -23.9084 C   0  0  0  0  0  0  0  0  0  0  0  0
  -12.4286   -0.7911  -22.6403 C   0  0  0  0  0  0  0  0  0  0  0  0
  -13.2610   -0.5323  -21.6257 F   0  0  0  0  0  0  0  0  0  0  0  0
  -11.0812   -0.9882  -22.3929 C   0  0  0  0  0  0  0  0  0  0  0  0
  -10.2221   -1.2702  -23.4575 C   0  0  0  0  0  0  0  0  0  0  0  0
  -10.6912   -0.9296  -21.3853 H   0  0  0  0  0  0  0  0  0  0  0  0
  -14.0503   -0.7111  -24.0515 H   0  0  0  0  0  0  0  0  0  0  0  0
  -12.5019   -1.2472  -25.9652 H   0  0  0  0  0  0  0  0  0  0  0  0
   -6.9599   -1.7199  -24.4129 H   0  0  0  0  0  0  0  0  0  0  0  0
   -7.8618   -0.2151  -24.6293 H   0  0  0  0  0  0  0  0  0  0  0  0
   -7.4984   -3.3553  -20.6512 H   0  0  0  0  0  0  0  0  0  0  0  0
   -6.4126   -3.0775  -22.0077 H   0  0  0  0  0  0  0  0  0  0  0  0
   -9.4500   -3.1746  -21.9525 H   0  0  0  0  0  0  0  0  0  0  0  0
   -7.3445   -4.0120  -24.0031 H   0  0  0  0  0  0  0  0  0  0  0  0
   -8.2598   -5.0727  -22.9194 H   0  0  0  0  0  0  0  0  0  0  0  0
   -9.0956   -4.2073  -24.2363 H   0  0  0  0  0  0  0  0  0  0  0  0
  1  2  1  0
  2  3  1  0
  3  4  1  0
  4  5  1  0
  5  6  2  0
  6  7  1  0
  7  8  2  0
  8  9  1  0
  9 10  2  0
 10 11  1  0
 11 12  2  0
 12 13  1  0
 13 14  2  0
 13 15  1  0
 12 16  1  0
 11 17  1  0
 10 18  1  0
  8 19  1  0
  6 20  1  0
  4 21  1  0
 21 22  2  0
 21 23  1  0
 23 24  1  6
 24 25  1  0
 25 26  1  0
 26 27  1  0
 27 28  2  0
 28 29  1  0
 29 30  2  0
 30 31  1  0
 31 32  2  0
 31 33  1  0
 30 34  1  0
 29 35  1  0
 26 36  1  0
 26 37  1  0
 25 38  1  0
 38 39  2  0
 38 40  1  0
 40 41  2  0
 41 42  1  0
 42 43  2  0
 43 44  1  0
 43 45  1  0
 45 46  2  0
 45 47  1  0
 42 48  1  0
 41 49  1  0
 24 50  1  0
 24 51  1  0
  3 52  1  0
  3 53  1  0
  2 54  1  1
  1 55  1  0
  1 56  1  0
  1 57  1  0
 23  2  1  0
 32 27  1  0
 46 40  1  0
 14  5  1  0
 46 23  1  0
 14  9  1  0
M  END
>  <cnnaffinities>  (54) 
[6.52986, 6.66535, 6.62142, 6.62216]

>  <score>  (54) 
6.52986

>  <index>  (54) 
56

>  <Smiles>  (54) 
C([C@]1(C(N(c2c(nc(c3c(c(c(c(c23)[H])[H])[H])[H])[H])[H])C(=O)[C@]21C(N(C(c1nc(c(c(n1)[H])[H])[H])([H])[H])C(=O)c1c(c(c(F)c(c21)[H])[H])[H])([H])[H])([H])[H])[H])([H])([H])[H]

>  <h>  (54) 
<NA>

>  <Training>  (54) 
True

>  <Success>  (54) 
True

>  <enamine_searched>  (54) 
False

>  <enamine_id>  (54) 
nan

$$$$

     RDKit          3D

 59 63  0  0  0  0  0  0  0  0999 V2000
  -14.5164   -1.2488  -23.5421 C   0  0  0  0  0  0  0  0  0  0  0  0
  -13.7852   -2.4318  -23.1296 N   0  0  0  0  0  0  0  0  0  0  0  0
  -13.4745   -2.6433  -21.8221 C   0  0  0  0  0  0  0  0  0  0  0  0
  -13.9290   -1.9438  -20.9286 O   0  0  0  0  0  0  0  0  0  0  0  0
  -12.5377   -3.8289  -21.5596 C   0  0  0  0  0  0  0  0  0  0  0  0
  -11.2209   -3.7705  -22.1956 N   0  0  0  0  0  0  0  0  0  0  0  0
  -10.0594   -3.2938  -21.4456 C   0  0  0  0  0  0  0  0  0  0  0  0
   -8.8512   -2.9362  -22.3508 C   0  0  2  0  0  0  0  0  0  0  0  0
   -7.6084   -2.7270  -21.4801 C   0  0  0  0  0  0  0  0  0  0  0  0
   -6.8359   -3.5834  -21.1031 O   0  0  0  0  0  0  0  0  0  0  0  0
   -7.4298   -1.3848  -21.2410 N   0  0  0  0  0  0  0  0  0  0  0  0
   -6.5242   -0.9787  -20.2242 C   0  0  0  0  0  0  0  0  0  0  0  0
   -6.7419   -1.3228  -18.9116 C   0  0  0  0  0  0  0  0  0  0  0  0
   -5.8723   -1.0708  -17.9026 N   0  0  0  0  0  0  0  0  0  0  0  0
   -4.7595   -0.4480  -18.1974 C   0  0  0  0  0  0  0  0  0  0  0  0
   -4.4256   -0.0015  -19.5041 C   0  0  0  0  0  0  0  0  0  0  0  0
   -3.2340    0.7251  -19.7544 C   0  0  0  0  0  0  0  0  0  0  0  0
   -2.9900    1.2412  -20.9975 C   0  0  0  0  0  0  0  0  0  0  0  0
   -3.8837    0.9738  -22.0611 C   0  0  0  0  0  0  0  0  0  0  0  0
   -5.0073    0.2148  -21.8531 C   0  0  0  0  0  0  0  0  0  0  0  0
   -5.3400   -0.2458  -20.5530 C   0  0  0  0  0  0  0  0  0  0  0  0
   -5.6421   -0.0640  -22.6867 H   0  0  0  0  0  0  0  0  0  0  0  0
   -3.6708    1.3679  -23.0510 H   0  0  0  0  0  0  0  0  0  0  0  0
   -2.1211    1.8685  -21.1719 H   0  0  0  0  0  0  0  0  0  0  0  0
   -2.5892    0.9512  -18.9085 H   0  0  0  0  0  0  0  0  0  0  0  0
   -4.0629   -0.2477  -17.3824 H   0  0  0  0  0  0  0  0  0  0  0  0
   -7.6443   -1.8632  -18.6321 H   0  0  0  0  0  0  0  0  0  0  0  0
   -8.4190   -0.5579  -21.9136 C   0  0  0  0  0  0  0  0  0  0  0  0
   -9.0262   -1.4875  -23.0058 C   0  0  0  0  0  0  0  0  0  0  0  0
  -10.4770   -1.0888  -23.3055 C   0  0  0  0  0  0  0  0  0  0  0  0
  -11.0921   -1.0726  -22.4011 H   0  0  0  0  0  0  0  0  0  0  0  0
  -10.9248   -1.8009  -24.0032 H   0  0  0  0  0  0  0  0  0  0  0  0
  -10.5290   -0.0936  -23.7604 H   0  0  0  0  0  0  0  0  0  0  0  0
   -8.2273   -1.4068  -24.3154 C   0  0  0  0  0  0  0  0  0  0  0  0
   -8.6243   -2.1299  -25.0362 H   0  0  0  0  0  0  0  0  0  0  0  0
   -8.3019   -0.4093  -24.7597 H   0  0  0  0  0  0  0  0  0  0  0  0
   -7.1696   -1.6500  -24.1623 H   0  0  0  0  0  0  0  0  0  0  0  0
   -7.9614    0.3402  -22.3413 H   0  0  0  0  0  0  0  0  0  0  0  0
   -9.1981   -0.2314  -21.2067 H   0  0  0  0  0  0  0  0  0  0  0  0
   -8.6069   -4.1027  -23.2839 C   0  0  0  0  0  0  0  0  0  0  0  0
   -7.3245   -4.4553  -23.7364 C   0  0  0  0  0  0  0  0  0  0  0  0
   -7.1647   -5.4693  -24.6643 C   0  0  0  0  0  0  0  0  0  0  0  0
   -5.5628   -5.8539  -25.2424 Cl  0  0  0  0  0  0  0  0  0  0  0  0
   -8.2509   -6.1927  -25.1521 C   0  0  0  0  0  0  0  0  0  0  0  0
   -9.5104   -5.8697  -24.6872 C   0  0  0  0  0  0  0  0  0  0  0  0
   -9.6860   -4.8413  -23.7647 C   0  0  0  0  0  0  0  0  0  0  0  0
  -11.0706   -4.5556  -23.3061 C   0  0  0  0  0  0  0  0  0  0  0  0
  -12.0400   -5.0218  -23.8956 O   0  0  0  0  0  0  0  0  0  0  0  0
  -10.3889   -6.4090  -25.0240 H   0  0  0  0  0  0  0  0  0  0  0  0
   -8.1055   -6.9860  -25.8762 H   0  0  0  0  0  0  0  0  0  0  0  0
   -6.4434   -3.9596  -23.3537 H   0  0  0  0  0  0  0  0  0  0  0  0
  -10.3278   -2.3961  -20.8829 H   0  0  0  0  0  0  0  0  0  0  0  0
   -9.7610   -4.0574  -20.7238 H   0  0  0  0  0  0  0  0  0  0  0  0
  -12.4580   -4.0102  -20.4858 H   0  0  0  0  0  0  0  0  0  0  0  0
  -13.0398   -4.6800  -22.0188 H   0  0  0  0  0  0  0  0  0  0  0  0
  -13.5257   -3.1189  -23.8220 H   0  0  0  0  0  0  0  0  0  0  0  0
  -13.8793   -0.3516  -23.5346 H   0  0  0  0  0  0  0  0  0  0  0  0
  -14.9012   -1.4125  -24.5540 H   0  0  0  0  0  0  0  0  0  0  0  0
  -15.3480   -1.0556  -22.8571 H   0  0  0  0  0  0  0  0  0  0  0  0
  1  2  1  0
  2  3  1  0
  3  4  2  0
  3  5  1  0
  5  6  1  0
  6  7  1  0
  8  7  1  1
  8  9  1  0
  9 10  2  0
  9 11  1  0
 11 12  1  0
 12 13  2  0
 13 14  1  0
 14 15  2  0
 15 16  1  0
 16 17  2  0
 17 18  1  0
 18 19  2  0
 19 20  1  0
 20 21  2  0
 20 22  1  0
 19 23  1  0
 18 24  1  0
 17 25  1  0
 15 26  1  0
 13 27  1  0
 11 28  1  0
 28 29  1  0
 29 30  1  0
 30 31  1  0
 30 32  1  0
 30 33  1  0
 29 34  1  0
 34 35  1  0
 34 36  1  0
 34 37  1  0
 28 38  1  0
 28 39  1  0
  8 40  1  0
 40 41  2  0
 41 42  1  0
 42 43  1  0
 42 44  2  0
 44 45  1  0
 45 46  2  0
 46 47  1  0
 47 48  2  0
 45 49  1  0
 44 50  1  0
 41 51  1  0
  7 52  1  0
  7 53  1  0
  5 54  1  0
  5 55  1  0
  2 56  1  0
  1 57  1  0
  1 58  1  0
  1 59  1  0
 47  6  1  0
 29  8  1  0
 46 40  1  0
 21 12  1  0
 21 16  1  0
M  END
>  <cnnaffinities>  (55) 
[6.59281]

>  <score>  (55) 
6.59281

>  <index>  (55) 
57

>  <Smiles>  (55) 
C(N(C(=O)C(N1C([C@@]2(C(=O)N(c3c(nc(c4c(c(c(c(c34)[H])[H])[H])[H])[H])[H])C(C2(C([H])([H])[H])C([H])([H])[H])([H])[H])c2c(c(Cl)c(c(c2C1=O)[H])[H])[H])([H])[H])([H])[H])[H])([H])([H])[H]

>  <h>  (55) 
<NA>

>  <Training>  (55) 
True

>  <Success>  (55) 
True

>  <enamine_searched>  (55) 
False

>  <enamine_id>  (55) 
nan

$$$$

     RDKit          3D

 42 45  0  0  0  0  0  0  0  0999 V2000
  -10.9900   -4.9434  -23.5521 C   0  0  0  0  0  0  0  0  0  0  0  0
  -10.1069   -3.8080  -23.6440 N   0  0  0  0  0  0  0  0  0  0  0  0
   -9.4117   -3.3096  -22.4772 C   0  0  0  0  0  0  0  0  0  0  0  0
   -9.4146   -1.7773  -22.5314 C   0  0  1  0  0  0  0  0  0  0  0  0
   -8.6345   -1.1194  -21.4057 C   0  0  0  0  0  0  0  0  0  0  0  0
   -9.0932   -0.2072  -20.7418 O   0  0  0  0  0  0  0  0  0  0  0  0
   -7.3384   -1.5560  -21.2588 N   0  0  0  0  0  0  0  0  0  0  0  0
   -6.4745   -1.0813  -20.2430 C   0  0  0  0  0  0  0  0  0  0  0  0
   -6.7491   -1.3017  -18.9217 C   0  0  0  0  0  0  0  0  0  0  0  0
   -5.8928   -1.0265  -17.9063 N   0  0  0  0  0  0  0  0  0  0  0  0
   -4.7521   -0.4502  -18.1955 C   0  0  0  0  0  0  0  0  0  0  0  0
   -4.4105   -0.0364  -19.5087 C   0  0  0  0  0  0  0  0  0  0  0  0
   -3.2492    0.7277  -19.7662 C   0  0  0  0  0  0  0  0  0  0  0  0
   -3.0434    1.2621  -21.0088 C   0  0  0  0  0  0  0  0  0  0  0  0
   -3.9538    1.0013  -22.0569 C   0  0  0  0  0  0  0  0  0  0  0  0
   -5.0544    0.2125  -21.8475 C   0  0  0  0  0  0  0  0  0  0  0  0
   -5.3036   -0.3255  -20.5619 C   0  0  0  0  0  0  0  0  0  0  0  0
   -5.7275   -0.0265  -22.6660 H   0  0  0  0  0  0  0  0  0  0  0  0
   -3.7982    1.4530  -23.0320 H   0  0  0  0  0  0  0  0  0  0  0  0
   -2.1977    1.9162  -21.1866 H   0  0  0  0  0  0  0  0  0  0  0  0
   -2.5935    0.9390  -18.9276 H   0  0  0  0  0  0  0  0  0  0  0  0
   -4.0546   -0.2474  -17.3778 H   0  0  0  0  0  0  0  0  0  0  0  0
   -7.6917   -1.7649  -18.6392 H   0  0  0  0  0  0  0  0  0  0  0  0
   -6.9381   -2.0714  -22.0328 H   0  0  0  0  0  0  0  0  0  0  0  0
   -8.9005   -1.2996  -23.8816 C   0  0  0  0  0  0  0  0  0  0  0  0
   -8.3137   -0.0419  -24.0324 C   0  0  0  0  0  0  0  0  0  0  0  0
   -7.8276    0.3510  -25.2698 C   0  0  0  0  0  0  0  0  0  0  0  0
   -7.0539    1.9067  -25.3981 Cl  0  0  0  0  0  0  0  0  0  0  0  0
   -7.9395   -0.4697  -26.3893 C   0  0  0  0  0  0  0  0  0  0  0  0
   -8.5495   -1.7029  -26.2448 C   0  0  0  0  0  0  0  0  0  0  0  0
   -9.0263   -2.1159  -25.0013 C   0  0  0  0  0  0  0  0  0  0  0  0
   -9.7402   -3.4186  -24.9032 C   0  0  0  0  0  0  0  0  0  0  0  0
  -10.0219   -4.0851  -25.8893 O   0  0  0  0  0  0  0  0  0  0  0  0
   -8.6788   -2.3651  -27.0943 H   0  0  0  0  0  0  0  0  0  0  0  0
   -7.5791   -0.1325  -27.3551 H   0  0  0  0  0  0  0  0  0  0  0  0
   -8.2304    0.6240  -23.1804 H   0  0  0  0  0  0  0  0  0  0  0  0
  -10.4451   -1.4351  -22.3967 H   0  0  0  0  0  0  0  0  0  0  0  0
   -8.3814   -3.6935  -22.4223 H   0  0  0  0  0  0  0  0  0  0  0  0
   -9.9300   -3.6521  -21.5741 H   0  0  0  0  0  0  0  0  0  0  0  0
  -11.9150   -4.7319  -24.0823 H   0  0  0  0  0  0  0  0  0  0  0  0
  -10.5393   -5.8356  -23.9958 H   0  0  0  0  0  0  0  0  0  0  0  0
  -11.2419   -5.1092  -22.5070 H   0  0  0  0  0  0  0  0  0  0  0  0
  1  2  1  0
  2  3  1  0
  3  4  1  0
  4  5  1  0
  5  6  2  0
  5  7  1  0
  7  8  1  0
  8  9  2  0
  9 10  1  0
 10 11  2  0
 11 12  1  0
 12 13  2  0
 13 14  1  0
 14 15  2  0
 15 16  1  0
 16 17  2  0
 16 18  1  0
 15 19  1  0
 14 20  1  0
 13 21  1  0
 11 22  1  0
  9 23  1  0
  7 24  1  0
  4 25  1  0
 25 26  2  0
 26 27  1  0
 27 28  1  0
 27 29  2  0
 29 30  1  0
 30 31  2  0
 31 32  1  0
 32 33  2  0
 30 34  1  0
 29 35  1  0
 26 36  1  0
  4 37  1  1
  3 38  1  0
  3 39  1  0
  1 40  1  0
  1 41  1  0
  1 42  1  0
 32  2  1  0
 17  8  1  0
 31 25  1  0
 17 12  1  0
M  END
>  <cnnaffinities>  (56) 
[5.50043]

>  <score>  (56) 
5.50043

>  <index>  (56) 
58

>  <Smiles>  (56) 
C(N1C([C@@](C(=O)N(c2c(nc(c3c(c(c(c(c23)[H])[H])[H])[H])[H])[H])[H])(c2c(c(Cl)c(c(c2C1=O)[H])[H])[H])[H])([H])[H])([H])([H])[H]

>  <h>  (56) 
<NA>

>  <Training>  (56) 
True

>  <Success>  (56) 
True

>  <enamine_searched>  (56) 
False

>  <enamine_id>  (56) 
nan

$$$$

     RDKit          3D

 60 65  0  0  0  0  0  0  0  0999 V2000
   -8.0046   -6.0091  -26.8027 C   0  0  0  0  0  0  0  0  0  0  0  0
   -8.2547   -4.5927  -27.0127 N   0  0  0  0  0  0  0  0  0  0  0  0
   -7.2870   -3.6941  -26.7096 C   0  0  0  0  0  0  0  0  0  0  0  0
   -6.1952   -4.0384  -26.2867 O   0  0  0  0  0  0  0  0  0  0  0  0
   -7.6859   -2.2153  -26.8343 C   0  0  0  0  0  0  0  0  0  0  0  0
   -8.5311   -1.8063  -25.7173 N   0  0  0  0  0  0  0  0  0  0  0  0
   -7.9445   -1.2573  -24.4941 C   0  0  0  0  0  0  0  0  0  0  0  0
   -8.7795   -1.5494  -23.2060 C   0  0  2  0  0  0  0  0  0  0  0  0
   -8.2021   -0.6197  -22.1129 C   0  0  0  0  0  0  0  0  0  0  0  0
   -8.3301    0.5849  -22.0511 O   0  0  0  0  0  0  0  0  0  0  0  0
   -7.4285   -1.3784  -21.2502 N   0  0  0  0  0  0  0  0  0  0  0  0
   -6.5431   -0.8950  -20.2469 C   0  0  0  0  0  0  0  0  0  0  0  0
   -6.7473   -1.2769  -18.9410 C   0  0  0  0  0  0  0  0  0  0  0  0
   -5.8783   -1.0584  -17.9269 N   0  0  0  0  0  0  0  0  0  0  0  0
   -4.7597   -0.4387  -18.2068 C   0  0  0  0  0  0  0  0  0  0  0  0
   -4.4189    0.0274  -19.5056 C   0  0  0  0  0  0  0  0  0  0  0  0
   -3.2138    0.7426  -19.7387 C   0  0  0  0  0  0  0  0  0  0  0  0
   -2.9331    1.2348  -20.9831 C   0  0  0  0  0  0  0  0  0  0  0  0
   -3.8119    0.9762  -22.0597 C   0  0  0  0  0  0  0  0  0  0  0  0
   -4.9557    0.2399  -21.8672 C   0  0  0  0  0  0  0  0  0  0  0  0
   -5.3264   -0.1993  -20.5657 C   0  0  0  0  0  0  0  0  0  0  0  0
   -5.5842   -0.0275  -22.7123 H   0  0  0  0  0  0  0  0  0  0  0  0
   -3.5796    1.3622  -23.0487 H   0  0  0  0  0  0  0  0  0  0  0  0
   -2.0458    1.8405  -21.1474 H   0  0  0  0  0  0  0  0  0  0  0  0
   -2.5769    0.9575  -18.8836 H   0  0  0  0  0  0  0  0  0  0  0  0
   -4.0640   -0.2648  -17.3856 H   0  0  0  0  0  0  0  0  0  0  0  0
   -7.6522   -1.8217  -18.6734 H   0  0  0  0  0  0  0  0  0  0  0  0
   -7.3950   -2.7868  -21.5835 C   0  0  0  0  0  0  0  0  0  0  0  0
   -8.5416   -2.9661  -22.5763 C   0  0  2  0  0  0  0  0  0  0  0  0
   -8.2814   -4.0989  -23.5745 C   0  0  0  0  0  0  0  0  0  0  0  0
   -8.1077   -5.4604  -22.9784 C   0  0  0  0  0  0  0  0  0  0  0  0
   -7.2088   -5.7669  -22.0476 N   0  0  0  0  0  0  0  0  0  0  0  0
   -7.3037   -7.0834  -21.9009 N   0  0  0  0  0  0  0  0  0  0  0  0
   -8.2288   -7.5518  -22.6911 N   0  0  0  0  0  2  0  0  0  0  0  0
   -8.7440   -6.5497  -23.4000 N   0  0  0  0  0  0  0  0  0  0  0  0
   -9.1083   -4.1668  -24.2789 H   0  0  0  0  0  0  0  0  0  0  0  0
   -7.3537   -3.8956  -24.1267 H   0  0  0  0  0  0  0  0  0  0  0  0
   -9.4487   -3.2025  -22.0024 H   0  0  0  0  0  0  0  0  0  0  0  0
   -7.5209   -3.3809  -20.6847 H   0  0  0  0  0  0  0  0  0  0  0  0
   -6.4341   -3.0970  -22.0168 H   0  0  0  0  0  0  0  0  0  0  0  0
  -10.2539   -1.3039  -23.5021 C   0  0  0  0  0  0  0  0  0  0  0  0
  -11.1882   -1.1239  -22.4634 C   0  0  0  0  0  0  0  0  0  0  0  0
  -12.5383   -0.9813  -22.7637 C   0  0  0  0  0  0  0  0  0  0  0  0
  -13.7583   -0.8933  -21.5226 Cl  0  0  0  0  0  0  0  0  0  0  0  0
  -12.9894   -0.9515  -24.0822 C   0  0  0  0  0  0  0  0  0  0  0  0
  -12.0833   -1.1454  -25.1038 C   0  0  0  0  0  0  0  0  0  0  0  0
  -10.7410   -1.3828  -24.8136 C   0  0  0  0  0  0  0  0  0  0  0  0
   -9.8760   -1.8243  -25.9436 C   0  0  0  0  0  0  0  0  0  0  0  0
  -10.3534   -2.2219  -27.0038 O   0  0  0  0  0  0  0  0  0  0  0  0
  -12.3977   -1.1474  -26.1447 H   0  0  0  0  0  0  0  0  0  0  0  0
  -14.0481   -0.8208  -24.2762 H   0  0  0  0  0  0  0  0  0  0  0  0
  -10.8750   -1.1065  -21.4247 H   0  0  0  0  0  0  0  0  0  0  0  0
   -7.8536   -0.1659  -24.5792 H   0  0  0  0  0  0  0  0  0  0  0  0
   -6.9276   -1.6618  -24.3827 H   0  0  0  0  0  0  0  0  0  0  0  0
   -6.7797   -1.6059  -26.8641 H   0  0  0  0  0  0  0  0  0  0  0  0
   -8.2666   -2.0545  -27.7484 H   0  0  0  0  0  0  0  0  0  0  0  0
   -9.1732   -4.2617  -27.2694 H   0  0  0  0  0  0  0  0  0  0  0  0
   -7.7502   -6.2077  -25.7533 H   0  0  0  0  0  0  0  0  0  0  0  0
   -7.1644   -6.3451  -27.4193 H   0  0  0  0  0  0  0  0  0  0  0  0
   -8.9016   -6.5719  -27.0716 H   0  0  0  0  0  0  0  0  0  0  0  0
  1  2  1  0
  2  3  1  0
  3  4  2  0
  3  5  1  0
  5  6  1  0
  6  7  1  0
  8  7  1  6
  8  9  1  0
  9 10  2  0
  9 11  1  0
 11 12  1  0
 12 13  2  0
 13 14  1  0
 14 15  2  0
 15 16  1  0
 16 17  2  0
 17 18  1  0
 18 19  2  0
 19 20  1  0
 20 21  2  0
 20 22  1  0
 19 23  1  0
 18 24  1  0
 17 25  1  0
 15 26  1  0
 13 27  1  0
 11 28  1  0
 28 29  1  0
 29 30  1  0
 30 31  1  0
 31 32  1  0
 32 33  2  0
 33 34  1  0
 34 35  1  0
 30 36  1  0
 30 37  1  0
 29 38  1  1
 28 39  1  0
 28 40  1  0
  8 41  1  0
 41 42  2  0
 42 43  1  0
 43 44  1  0
 43 45  2  0
 45 46  1  0
 46 47  2  0
 47 48  1  0
 48 49  2  0
 46 50  1  0
 45 51  1  0
 42 52  1  0
  7 53  1  0
  7 54  1  0
  5 55  1  0
  5 56  1  0
  2 57  1  0
  1 58  1  0
  1 59  1  0
  1 60  1  0
 48  6  1  0
 29  8  1  0
 35 31  2  0
 47 41  1  0
 21 12  1  0
 21 16  1  0
M  CHG  1  34  -1
M  END
>  <cnnaffinities>  (57) 
[6.83939, 7.17837, 7.14272, 7.14169]

>  <score>  (57) 
6.83939

>  <index>  (57) 
59

>  <Smiles>  (57) 
C(N(C(=O)C(N1C([C@@]2(C(=O)N(c3c(nc(c4c(c(c(c(c34)[H])[H])[H])[H])[H])[H])C([C@@]2(C(c2nn[n-]n2)([H])[H])[H])([H])[H])c2c(c(Cl)c(c(c2C1=O)[H])[H])[H])([H])[H])([H])[H])[H])([H])([H])[H]

>  <h>  (57) 
<NA>

>  <Training>  (57) 
True

>  <Success>  (57) 
True

>  <enamine_searched>  (57) 
False

>  <enamine_id>  (57) 
nan

$$$$

     RDKit          3D

 62 67  0  0  0  0  0  0  0  0999 V2000
  -11.6460    3.1705  -22.7201 C   0  0  0  0  0  0  0  0  0  0  0  0
  -10.8225    1.9266  -22.4157 C   0  0  0  0  0  0  0  0  0  0  0  0
   -9.4865    1.9656  -22.9841 N   0  0  0  0  0  0  0  0  0  0  0  0
   -8.5243    2.5479  -22.2484 N   0  0  0  0  0  0  0  0  0  0  0  0
   -7.4304    2.5022  -22.9952 C   0  0  0  0  0  0  0  0  0  0  0  0
   -7.6896    1.9033  -24.2479 C   0  0  0  0  0  0  0  0  0  0  0  0
   -9.0312    1.5722  -24.2056 C   0  0  0  0  0  0  0  0  0  0  0  0
   -9.8640    0.8131  -25.1993 C   0  0  0  0  0  0  0  0  0  0  0  0
  -10.3337   -0.4452  -24.6310 N   0  0  0  0  0  0  0  0  0  0  0  0
   -9.3440   -1.4570  -24.3071 C   0  0  0  0  0  0  0  0  0  0  0  0
   -9.5517   -2.1124  -22.9183 C   0  0  2  0  0  0  0  0  0  0  0  0
   -8.9131   -1.2663  -21.7683 C   0  0  0  0  0  0  0  0  0  0  0  0
   -9.4527   -0.4378  -21.0715 O   0  0  0  0  0  0  0  0  0  0  0  0
   -7.5915   -1.6487  -21.6419 N   0  0  0  0  0  0  0  0  0  0  0  0
   -6.7745   -1.3186  -20.5399 C   0  0  0  0  0  0  0  0  0  0  0  0
   -7.0610   -1.7531  -19.2691 C   0  0  0  0  0  0  0  0  0  0  0  0
   -6.2202   -1.5904  -18.2189 N   0  0  0  0  0  0  0  0  0  0  0  0
   -5.0726   -0.9932  -18.4255 C   0  0  0  0  0  0  0  0  0  0  0  0
   -4.6383   -0.5357  -19.7026 C   0  0  0  0  0  0  0  0  0  0  0  0
   -3.3740    0.0689  -19.9213 C   0  0  0  0  0  0  0  0  0  0  0  0
   -3.0005    0.4565  -21.1780 C   0  0  0  0  0  0  0  0  0  0  0  0
   -3.8561    0.2491  -22.2820 C   0  0  0  0  0  0  0  0  0  0  0  0
   -5.0836   -0.3324  -22.0954 C   0  0  0  0  0  0  0  0  0  0  0  0
   -5.5060   -0.7209  -20.7977 C   0  0  0  0  0  0  0  0  0  0  0  0
   -5.7417   -0.5134  -22.9378 H   0  0  0  0  0  0  0  0  0  0  0  0
   -3.5337    0.5270  -23.2804 H   0  0  0  0  0  0  0  0  0  0  0  0
   -2.0386    0.9294  -21.3418 H   0  0  0  0  0  0  0  0  0  0  0  0
   -2.7175    0.2173  -19.0706 H   0  0  0  0  0  0  0  0  0  0  0  0
   -4.4165   -0.8562  -17.5627 H   0  0  0  0  0  0  0  0  0  0  0  0
   -7.9938   -2.2753  -19.0554 H   0  0  0  0  0  0  0  0  0  0  0  0
   -7.2638   -2.8296  -22.4115 C   0  0  0  0  0  0  0  0  0  0  0  0
   -8.6497   -3.3800  -22.7612 C   0  0  2  0  0  0  0  0  0  0  0  0
   -8.6189   -4.4041  -23.8832 C   0  0  0  0  0  0  0  0  0  0  0  0
   -9.6221   -4.7622  -24.1343 H   0  0  0  0  0  0  0  0  0  0  0  0
   -8.0104   -5.2688  -23.5914 H   0  0  0  0  0  0  0  0  0  0  0  0
   -8.1688   -3.9902  -24.7932 H   0  0  0  0  0  0  0  0  0  0  0  0
   -8.9891   -3.8688  -21.8413 H   0  0  0  0  0  0  0  0  0  0  0  0
   -6.6670   -2.5963  -23.3091 H   0  0  0  0  0  0  0  0  0  0  0  0
   -6.6704   -3.5188  -21.8012 H   0  0  0  0  0  0  0  0  0  0  0  0
  -11.0356   -2.3301  -22.6935 C   0  0  0  0  0  0  0  0  0  0  0  0
  -11.4689   -3.2119  -21.6936 C   0  0  0  0  0  0  0  0  0  0  0  0
  -12.8011   -3.2627  -21.3422 C   0  0  0  0  0  0  0  0  0  0  0  0
  -13.1759   -4.0786  -20.3410 F   0  0  0  0  0  0  0  0  0  0  0  0
  -13.7780   -2.5053  -21.9719 C   0  0  0  0  0  0  0  0  0  0  0  0
  -13.3767   -1.6815  -23.0084 C   0  0  0  0  0  0  0  0  0  0  0  0
  -12.0303   -1.6145  -23.3816 C   0  0  0  0  0  0  0  0  0  0  0  0
  -11.6768   -0.6801  -24.4998 C   0  0  0  0  0  0  0  0  0  0  0  0
  -12.5265   -0.1043  -25.1598 O   0  0  0  0  0  0  0  0  0  0  0  0
  -14.0980   -1.0722  -23.5451 H   0  0  0  0  0  0  0  0  0  0  0  0
  -14.8084   -2.5875  -21.6429 H   0  0  0  0  0  0  0  0  0  0  0  0
  -10.7898   -3.8697  -21.1656 H   0  0  0  0  0  0  0  0  0  0  0  0
   -9.3679   -2.2436  -25.0717 H   0  0  0  0  0  0  0  0  0  0  0  0
   -8.3581   -0.9923  -24.3542 H   0  0  0  0  0  0  0  0  0  0  0  0
   -9.2505    0.6281  -26.0918 H   0  0  0  0  0  0  0  0  0  0  0  0
  -10.7397    1.3769  -25.5356 H   0  0  0  0  0  0  0  0  0  0  0  0
   -6.9995    1.6821  -25.0555 H   0  0  0  0  0  0  0  0  0  0  0  0
   -6.5130    2.9264  -22.6052 H   0  0  0  0  0  0  0  0  0  0  0  0
  -11.3414    1.0303  -22.7642 H   0  0  0  0  0  0  0  0  0  0  0  0
  -10.6703    1.8026  -21.3442 H   0  0  0  0  0  0  0  0  0  0  0  0
  -12.0084    3.1588  -23.7535 H   0  0  0  0  0  0  0  0  0  0  0  0
  -11.0602    4.0805  -22.5651 H   0  0  0  0  0  0  0  0  0  0  0  0
  -12.5200    3.2167  -22.0627 H   0  0  0  0  0  0  0  0  0  0  0  0
  1  2  1  0
  2  3  1  0
  3  4  1  0
  4  5  2  0
  5  6  1  0
  6  7  2  0
  7  8  1  0
  8  9  1  0
  9 10  1  0
 11 10  1  6
 11 12  1  0
 12 13  2  0
 12 14  1  0
 14 15  1  0
 15 16  2  0
 16 17  1  0
 17 18  2  0
 18 19  1  0
 19 20  2  0
 20 21  1  0
 21 22  2  0
 22 23  1  0
 23 24  2  0
 23 25  1  0
 22 26  1  0
 21 27  1  0
 20 28  1  0
 18 29  1  0
 16 30  1  0
 14 31  1  0
 31 32  1  0
 32 33  1  0
 33 34  1  0
 33 35  1  0
 33 36  1  0
 32 37  1  1
 31 38  1  0
 31 39  1  0
 11 40  1  0
 40 41  2  0
 41 42  1  0
 42 43  1  0
 42 44  2  0
 44 45  1  0
 45 46  2  0
 46 47  1  0
 47 48  2  0
 45 49  1  0
 44 50  1  0
 41 51  1  0
 10 52  1  0
 10 53  1  0
  8 54  1  0
  8 55  1  0
  6 56  1  0
  5 57  1  0
  2 58  1  0
  2 59  1  0
  1 60  1  0
  1 61  1  0
  1 62  1  0
  7  3  1  0
 47  9  1  0
 32 11  1  0
 46 40  1  0
 24 15  1  0
 24 19  1  0
M  END
>  <cnnaffinities>  (58) 
[6.74012]

>  <score>  (58) 
6.74012

>  <index>  (58) 
60

>  <Smiles>  (58) 
C(C(n1nc(c(c1C(N1C([C@@]2(C(=O)N(c3c(nc(c4c(c(c(c(c34)[H])[H])[H])[H])[H])[H])C([C@@]2(C([H])([H])[H])[H])([H])[H])c2c(c(F)c(c(c2C1=O)[H])[H])[H])([H])[H])([H])[H])[H])[H])([H])[H])([H])([H])[H]

>  <h>  (58) 
<NA>

>  <Training>  (58) 
True

>  <Success>  (58) 
True

>  <enamine_searched>  (58) 
False

>  <enamine_id>  (58) 
nan

$$$$

     RDKit          3D

 44 47  0  0  0  0  0  0  0  0999 V2000
   -8.9499    0.4317  -21.0921 O   0  0  0  0  0  0  0  0  0  0  0  0
   -8.3239   -0.2918  -21.8470 C   0  0  0  0  0  0  0  0  0  0  0  0
   -7.4625   -1.4399  -21.3007 C   0  0  0  0  0  0  0  0  0  0  0  0
   -6.4890   -1.0124  -20.2218 C   0  0  0  0  0  0  0  0  0  0  0  0
   -6.7378   -1.2720  -18.9034 C   0  0  0  0  0  0  0  0  0  0  0  0
   -5.9132   -0.9838  -17.8612 N   0  0  0  0  0  0  0  0  0  0  0  0
   -4.7876   -0.3826  -18.1544 C   0  0  0  0  0  0  0  0  0  0  0  0
   -4.4287    0.0299  -19.4662 C   0  0  0  0  0  0  0  0  0  0  0  0
   -3.2741    0.8180  -19.7136 C   0  0  0  0  0  0  0  0  0  0  0  0
   -3.0424    1.3427  -20.9570 C   0  0  0  0  0  0  0  0  0  0  0  0
   -3.9002    1.0074  -22.0244 C   0  0  0  0  0  0  0  0  0  0  0  0
   -4.9898    0.2005  -21.8321 C   0  0  0  0  0  0  0  0  0  0  0  0
   -5.2983   -0.2926  -20.5348 C   0  0  0  0  0  0  0  0  0  0  0  0
   -5.6602   -0.0271  -22.6601 H   0  0  0  0  0  0  0  0  0  0  0  0
   -3.7273    1.4425  -23.0059 H   0  0  0  0  0  0  0  0  0  0  0  0
   -2.2282    2.0423  -21.1194 H   0  0  0  0  0  0  0  0  0  0  0  0
   -2.6127    1.0371  -18.8798 H   0  0  0  0  0  0  0  0  0  0  0  0
   -4.1120   -0.1470  -17.3296 H   0  0  0  0  0  0  0  0  0  0  0  0
   -7.6813   -1.7395  -18.6293 H   0  0  0  0  0  0  0  0  0  0  0  0
   -6.9170   -1.9047  -22.1279 H   0  0  0  0  0  0  0  0  0  0  0  0
   -8.1646   -2.1761  -20.8886 H   0  0  0  0  0  0  0  0  0  0  0  0
   -8.3562   -0.1162  -23.2193 N   0  0  0  0  0  0  0  0  0  0  0  0
   -8.0638   -1.1523  -24.2039 C   0  0  0  0  0  0  0  0  0  0  0  0
   -8.9457   -0.9817  -25.4411 C   0  0  0  0  0  0  0  0  0  0  0  0
   -8.8384    0.4209  -26.0306 C   0  0  0  0  0  0  0  0  0  0  0  0
   -9.6491    0.6283  -27.3298 C   0  0  0  0  0  0  0  0  0  0  0  0
   -8.3548    0.8993  -28.1237 C   0  0  0  0  0  0  0  0  0  0  0  0
   -7.5385    0.6979  -26.8307 C   0  0  0  0  0  0  0  0  0  0  0  0
   -6.9912    1.5835  -26.4981 H   0  0  0  0  0  0  0  0  0  0  0  0
   -6.8497   -0.1500  -26.8588 H   0  0  0  0  0  0  0  0  0  0  0  0
   -8.1442    0.1701  -28.9095 H   0  0  0  0  0  0  0  0  0  0  0  0
   -8.2898    1.9040  -28.5490 H   0  0  0  0  0  0  0  0  0  0  0  0
  -10.2154   -0.2466  -27.6571 H   0  0  0  0  0  0  0  0  0  0  0  0
  -10.3275    1.4821  -27.2822 H   0  0  0  0  0  0  0  0  0  0  0  0
   -9.1636    1.4447  -24.9470 C   0  0  0  0  0  0  0  0  0  0  0  0
   -8.3021    1.2575  -23.7108 C   0  0  0  0  0  0  0  0  0  0  0  0
   -7.2576    1.5403  -23.9355 H   0  0  0  0  0  0  0  0  0  0  0  0
   -8.6411    1.8945  -22.8920 H   0  0  0  0  0  0  0  0  0  0  0  0
   -9.0422    2.4660  -25.3290 H   0  0  0  0  0  0  0  0  0  0  0  0
  -10.2209    1.3418  -24.6773 H   0  0  0  0  0  0  0  0  0  0  0  0
   -8.6896   -1.7387  -26.1919 H   0  0  0  0  0  0  0  0  0  0  0  0
   -9.9903   -1.1653  -25.1665 H   0  0  0  0  0  0  0  0  0  0  0  0
   -7.0027   -1.1290  -24.5050 H   0  0  0  0  0  0  0  0  0  0  0  0
   -8.2511   -2.1313  -23.7557 H   0  0  0  0  0  0  0  0  0  0  0  0
  1  2  2  0
  2  3  1  0
  3  4  1  0
  4  5  2  0
  5  6  1  0
  6  7  2  0
  7  8  1  0
  8  9  2  0
  9 10  1  0
 10 11  2  0
 11 12  1  0
 12 13  2  0
 12 14  1  0
 11 15  1  0
 10 16  1  0
  9 17  1  0
  7 18  1  0
  5 19  1  0
  3 20  1  0
  3 21  1  0
  2 22  1  0
 22 23  1  0
 23 24  1  0
 24 25  1  0
 25 26  1  0
 26 27  1  0
 27 28  1  0
 28 29  1  0
 28 30  1  0
 27 31  1  0
 27 32  1  0
 26 33  1  0
 26 34  1  0
 25 35  1  0
 35 36  1  0
 36 37  1  0
 36 38  1  0
 35 39  1  0
 35 40  1  0
 24 41  1  0
 24 42  1  0
 23 43  1  0
 23 44  1  0
 13  4  1  0
 36 22  1  0
 13  8  1  0
 28 25  1  0
M  END
>  <cnnaffinities>  (59) 
[4.99295, 5.10346, 5.1035, 5.10362, 5.10353, 5.40464]

>  <score>  (59) 
4.99295

>  <index>  (59) 
61

>  <Smiles>  (59) 
O=C(C(c1c(nc(c2c(c(c(c(c12)[H])[H])[H])[H])[H])[H])([H])[H])N1C(C(C2(C(C(C2([H])[H])([H])[H])([H])[H])C(C1([H])[H])([H])[H])([H])[H])([H])[H]

>  <h>  (59) 
<NA>

>  <Training>  (59) 
True

>  <Success>  (59) 
True

>  <enamine_searched>  (59) 
False

>  <enamine_id>  (59) 
nan

$$$$

     RDKit          3D

 44 47  0  0  0  0  0  0  0  0999 V2000
   -5.5826   -3.1255  -21.5943 O   0  0  0  0  0  0  0  0  0  0  0  0
   -6.7640   -2.8725  -21.7744 C   0  0  0  0  0  0  0  0  0  0  0  0
   -7.3770   -1.5464  -21.2832 C   0  0  0  0  0  0  0  0  0  0  0  0
   -6.4952   -0.9861  -20.2131 C   0  0  0  0  0  0  0  0  0  0  0  0
   -6.7461   -1.2722  -18.8969 C   0  0  0  0  0  0  0  0  0  0  0  0
   -5.9169   -0.9928  -17.8598 N   0  0  0  0  0  0  0  0  0  0  0  0
   -4.7890   -0.3919  -18.1518 C   0  0  0  0  0  0  0  0  0  0  0  0
   -4.4346    0.0282  -19.4612 C   0  0  0  0  0  0  0  0  0  0  0  0
   -3.2726    0.7994  -19.7107 C   0  0  0  0  0  0  0  0  0  0  0  0
   -3.0308    1.3022  -20.9607 C   0  0  0  0  0  0  0  0  0  0  0  0
   -3.8843    0.9648  -22.0308 C   0  0  0  0  0  0  0  0  0  0  0  0
   -4.9854    0.1734  -21.8314 C   0  0  0  0  0  0  0  0  0  0  0  0
   -5.3008   -0.2886  -20.5274 C   0  0  0  0  0  0  0  0  0  0  0  0
   -5.6186   -0.1085  -22.6648 H   0  0  0  0  0  0  0  0  0  0  0  0
   -3.7001    1.3828  -23.0161 H   0  0  0  0  0  0  0  0  0  0  0  0
   -2.1968    1.9759  -21.1303 H   0  0  0  0  0  0  0  0  0  0  0  0
   -2.6196    1.0185  -18.8727 H   0  0  0  0  0  0  0  0  0  0  0  0
   -4.0912   -0.1812  -17.3392 H   0  0  0  0  0  0  0  0  0  0  0  0
   -7.6728   -1.7786  -18.6309 H   0  0  0  0  0  0  0  0  0  0  0  0
   -8.3773   -1.7360  -20.8711 H   0  0  0  0  0  0  0  0  0  0  0  0
   -7.5035   -0.8544  -22.1259 H   0  0  0  0  0  0  0  0  0  0  0  0
   -7.5920   -3.7847  -22.3695 N   0  0  0  0  0  0  0  0  0  0  0  0
   -7.2050   -5.1863  -22.2340 C   0  0  0  0  0  0  0  0  0  0  0  0
   -7.4693   -5.9590  -23.5026 C   0  0  0  0  0  0  0  0  0  0  0  0
   -8.9330   -5.7862  -23.8950 C   0  0  0  0  0  0  0  0  0  0  0  0
   -9.2453   -6.6429  -25.1054 C   0  0  0  0  0  0  0  0  0  0  0  0
  -10.6578   -6.8893  -25.5521 C   0  0  0  0  0  0  0  0  0  0  0  0
   -9.7201   -6.0867  -26.4135 C   0  0  0  0  0  0  0  0  0  0  0  0
   -9.8791   -5.0158  -26.5147 H   0  0  0  0  0  0  0  0  0  0  0  0
   -9.3712   -6.5840  -27.3140 H   0  0  0  0  0  0  0  0  0  0  0  0
  -10.8656   -7.8818  -25.9412 H   0  0  0  0  0  0  0  0  0  0  0  0
  -11.4858   -6.4003  -25.0348 H   0  0  0  0  0  0  0  0  0  0  0  0
   -8.6073   -7.5193  -25.1971 H   0  0  0  0  0  0  0  0  0  0  0  0
   -9.2594   -4.2982  -24.0678 C   0  0  0  0  0  0  0  0  0  0  0  0
   -8.9645   -3.5243  -22.7919 C   0  0  0  0  0  0  0  0  0  0  0  0
   -9.6933   -3.8074  -22.0143 H   0  0  0  0  0  0  0  0  0  0  0  0
   -9.0991   -2.4540  -22.9688 H   0  0  0  0  0  0  0  0  0  0  0  0
   -8.6517   -3.8845  -24.8813 H   0  0  0  0  0  0  0  0  0  0  0  0
  -10.3071   -4.1529  -24.3559 H   0  0  0  0  0  0  0  0  0  0  0  0
   -9.5181   -6.1538  -23.0369 H   0  0  0  0  0  0  0  0  0  0  0  0
   -7.2443   -7.0201  -23.3304 H   0  0  0  0  0  0  0  0  0  0  0  0
   -6.8165   -5.6251  -24.3145 H   0  0  0  0  0  0  0  0  0  0  0  0
   -6.1592   -5.2146  -21.9325 H   0  0  0  0  0  0  0  0  0  0  0  0
   -7.7830   -5.6668  -21.4350 H   0  0  0  0  0  0  0  0  0  0  0  0
  1  2  2  0
  2  3  1  0
  3  4  1  0
  4  5  2  0
  5  6  1  0
  6  7  2  0
  7  8  1  0
  8  9  2  0
  9 10  1  0
 10 11  2  0
 11 12  1  0
 12 13  2  0
 12 14  1  0
 11 15  1  0
 10 16  1  0
  9 17  1  0
  7 18  1  0
  5 19  1  0
  3 20  1  0
  3 21  1  0
  2 22  1  0
 22 23  1  0
 23 24  1  0
 24 25  1  0
 25 26  1  0
 26 27  1  0
 27 28  1  0
 28 29  1  0
 28 30  1  0
 27 31  1  0
 27 32  1  0
 26 33  1  0
 25 34  1  0
 34 35  1  0
 35 36  1  0
 35 37  1  0
 34 38  1  0
 34 39  1  0
 25 40  1  0
 24 41  1  0
 24 42  1  0
 23 43  1  0
 23 44  1  0
 13  4  1  0
 35 22  1  0
 13  8  1  0
 28 26  1  0
M  END
>  <cnnaffinities>  (60) 
[5.37306, 5.58709]

>  <score>  (60) 
5.37306

>  <index>  (60) 
62

>  <Smiles>  (60) 
O=C(C(c1c(nc(c2c(c(c(c(c12)[H])[H])[H])[H])[H])[H])([H])[H])N1C(C(C(C2(C(C2([H])[H])([H])[H])[H])(C(C1([H])[H])([H])[H])[H])([H])[H])([H])[H]

>  <h>  (60) 
<NA>

>  <Training>  (60) 
True

>  <Success>  (60) 
True

>  <enamine_searched>  (60) 
False

>  <enamine_id>  (60) 
nan

$$$$

     RDKit          3D

 57 61  0  0  0  0  0  0  0  0999 V2000
   -7.2969    3.4039  -21.9021 C   0  0  0  0  0  0  0  0  0  0  0  0
   -8.1722    2.9598  -22.9773 N   0  0  0  0  0  0  0  0  0  0  0  0
   -7.6106    2.2333  -23.9866 C   0  0  0  0  0  0  0  0  0  0  0  0
   -6.4051    2.0564  -24.0816 O   0  0  0  0  0  0  0  0  0  0  0  0
   -8.5830    1.6387  -25.0071 C   0  0  0  0  0  0  0  0  0  0  0  0
   -9.2987    0.5128  -24.4370 N   0  0  0  0  0  0  0  0  0  0  0  0
   -8.5832   -0.7376  -24.2462 C   0  0  0  0  0  0  0  0  0  0  0  0
   -9.0125   -1.4533  -22.9412 C   0  0  2  0  0  0  0  0  0  0  0  0
   -8.4636   -0.6953  -21.7063 C   0  0  0  0  0  0  0  0  0  0  0  0
   -8.8683    0.3493  -21.2432 O   0  0  0  0  0  0  0  0  0  0  0  0
   -7.4013   -1.4135  -21.2097 N   0  0  0  0  0  0  0  0  0  0  0  0
   -6.5259   -0.9460  -20.2024 C   0  0  0  0  0  0  0  0  0  0  0  0
   -6.7758   -1.2517  -18.8959 C   0  0  0  0  0  0  0  0  0  0  0  0
   -5.9189   -0.9967  -17.8759 N   0  0  0  0  0  0  0  0  0  0  0  0
   -4.7936   -0.3934  -18.1693 C   0  0  0  0  0  0  0  0  0  0  0  0
   -4.4410    0.0342  -19.4810 C   0  0  0  0  0  0  0  0  0  0  0  0
   -3.2764    0.7966  -19.7394 C   0  0  0  0  0  0  0  0  0  0  0  0
   -3.0568    1.3247  -20.9841 C   0  0  0  0  0  0  0  0  0  0  0  0
   -3.9356    1.0250  -22.0527 C   0  0  0  0  0  0  0  0  0  0  0  0
   -5.0368    0.2372  -21.8416 C   0  0  0  0  0  0  0  0  0  0  0  0
   -5.3285   -0.2523  -20.5413 C   0  0  0  0  0  0  0  0  0  0  0  0
   -5.6979   -0.0006  -22.6712 H   0  0  0  0  0  0  0  0  0  0  0  0
   -3.7679    1.4608  -23.0326 H   0  0  0  0  0  0  0  0  0  0  0  0
   -2.2125    1.9843  -21.1533 H   0  0  0  0  0  0  0  0  0  0  0  0
   -2.6225    1.0117  -18.9001 H   0  0  0  0  0  0  0  0  0  0  0  0
   -4.0965   -0.1883  -17.3554 H   0  0  0  0  0  0  0  0  0  0  0  0
   -7.7115   -1.7508  -18.6479 H   0  0  0  0  0  0  0  0  0  0  0  0
   -7.0756   -2.6126  -21.9399 C   0  0  0  0  0  0  0  0  0  0  0  0
   -8.3201   -2.8403  -22.8097 C   0  0  2  0  0  0  0  0  0  0  0  0
   -7.9655   -3.5675  -24.0956 C   0  0  0  0  0  0  0  0  0  0  0  0
   -7.4575   -4.8306  -23.7141 O   0  0  0  0  0  0  0  0  0  0  0  0
   -7.2064   -5.3031  -24.5150 H   0  0  0  0  0  0  0  0  0  0  0  0
   -7.2026   -2.9907  -24.6427 H   0  0  0  0  0  0  0  0  0  0  0  0
   -8.8476   -3.6640  -24.7471 H   0  0  0  0  0  0  0  0  0  0  0  0
   -8.9899   -3.5045  -22.2630 H   0  0  0  0  0  0  0  0  0  0  0  0
   -6.9047   -3.4327  -21.2376 H   0  0  0  0  0  0  0  0  0  0  0  0
   -6.1602   -2.4945  -22.5456 H   0  0  0  0  0  0  0  0  0  0  0  0
  -10.5262   -1.4771  -22.8848 C   0  0  0  0  0  0  0  0  0  0  0  0
  -11.1818   -2.3432  -22.0050 C   0  0  0  0  0  0  0  0  0  0  0  0
  -12.5612   -2.3394  -21.9259 C   0  0  0  0  0  0  0  0  0  0  0  0
  -13.3413   -3.4190  -20.8119 Cl  0  0  0  0  0  0  0  0  0  0  0  0
  -13.3404   -1.4770  -22.6964 C   0  0  0  0  0  0  0  0  0  0  0  0
  -12.6942   -0.5832  -23.5238 C   0  0  0  0  0  0  0  0  0  0  0  0
  -11.3028   -0.5562  -23.5969 C   0  0  0  0  0  0  0  0  0  0  0  0
  -10.6666    0.5479  -24.3876 C   0  0  0  0  0  0  0  0  0  0  0  0
  -11.3253    1.4317  -24.9130 O   0  0  0  0  0  0  0  0  0  0  0  0
  -13.2439    0.1400  -24.1124 H   0  0  0  0  0  0  0  0  0  0  0  0
  -14.4223   -1.4907  -22.6136 H   0  0  0  0  0  0  0  0  0  0  0  0
  -10.6268   -3.0103  -21.3546 H   0  0  0  0  0  0  0  0  0  0  0  0
   -7.5069   -0.5329  -24.2284 H   0  0  0  0  0  0  0  0  0  0  0  0
   -8.7828   -1.4052  -25.0951 H   0  0  0  0  0  0  0  0  0  0  0  0
   -8.0030    1.3182  -25.8797 H   0  0  0  0  0  0  0  0  0  0  0  0
   -9.3292    2.3707  -25.3306 H   0  0  0  0  0  0  0  0  0  0  0  0
   -9.1454    2.8029  -22.7436 H   0  0  0  0  0  0  0  0  0  0  0  0
   -6.5937    4.1533  -22.2777 H   0  0  0  0  0  0  0  0  0  0  0  0
   -7.8914    3.8675  -21.1122 H   0  0  0  0  0  0  0  0  0  0  0  0
   -6.7230    2.5561  -21.4967 H   0  0  0  0  0  0  0  0  0  0  0  0
  1  2  1  0
  2  3  1  0
  3  4  2  0
  3  5  1  0
  5  6  1  0
  6  7  1  0
  8  7  1  6
  8  9  1  0
  9 10  2  0
  9 11  1  0
 11 12  1  0
 12 13  2  0
 13 14  1  0
 14 15  2  0
 15 16  1  0
 16 17  2  0
 17 18  1  0
 18 19  2  0
 19 20  1  0
 20 21  2  0
 20 22  1  0
 19 23  1  0
 18 24  1  0
 17 25  1  0
 15 26  1  0
 13 27  1  0
 11 28  1  0
 28 29  1  0
 29 30  1  0
 30 31  1  0
 31 32  1  0
 30 33  1  0
 30 34  1  0
 29 35  1  1
 28 36  1  0
 28 37  1  0
  8 38  1  0
 38 39  2  0
 39 40  1  0
 40 41  1  0
 40 42  2  0
 42 43  1  0
 43 44  2  0
 44 45  1  0
 45 46  2  0
 43 47  1  0
 42 48  1  0
 39 49  1  0
  7 50  1  0
  7 51  1  0
  5 52  1  0
  5 53  1  0
  2 54  1  0
  1 55  1  0
  1 56  1  0
  1 57  1  0
 45  6  1  0
 29  8  1  0
 44 38  1  0
 21 12  1  0
 21 16  1  0
M  END
>  <cnnaffinities>  (61) 
[6.37354]

>  <score>  (61) 
6.37354

>  <index>  (61) 
63

>  <Smiles>  (61) 
C(N(C(=O)C(N1C([C@@]2(C(=O)N(c3c(nc(c4c(c(c(c(c34)[H])[H])[H])[H])[H])[H])C([C@@]2(C(O[H])([H])[H])[H])([H])[H])c2c(c(Cl)c(c(c2C1=O)[H])[H])[H])([H])[H])([H])[H])[H])([H])([H])[H]

>  <h>  (61) 
<NA>

>  <Training>  (61) 
True

>  <Success>  (61) 
True

>  <enamine_searched>  (61) 
False

>  <enamine_id>  (61) 
nan

$$$$

     RDKit          3D

 55 60  0  0  0  0  0  0  0  0999 V2000
   -8.6138   -4.1914  -23.7608 C   0  0  0  0  0  0  0  0  0  0  0  0
   -8.6652   -3.2833  -22.5433 C   0  0  1  0  0  0  0  0  0  0  0  0
   -7.2811   -2.7584  -22.1556 C   0  0  0  0  0  0  0  0  0  0  0  0
   -7.6064   -1.6557  -21.2773 N   0  0  0  0  0  0  0  0  0  0  0  0
   -6.7160   -1.2397  -20.2494 C   0  0  0  0  0  0  0  0  0  0  0  0
   -6.8691   -1.6616  -18.9509 C   0  0  0  0  0  0  0  0  0  0  0  0
   -5.9441   -1.4839  -17.9723 N   0  0  0  0  0  0  0  0  0  0  0  0
   -4.8265   -0.8827  -18.2926 C   0  0  0  0  0  0  0  0  0  0  0  0
   -4.5270   -0.4011  -19.5962 C   0  0  0  0  0  0  0  0  0  0  0  0
   -3.2804    0.2053  -19.9057 C   0  0  0  0  0  0  0  0  0  0  0  0
   -3.0392    0.6723  -21.1695 C   0  0  0  0  0  0  0  0  0  0  0  0
   -4.0517    0.6111  -22.1552 C   0  0  0  0  0  0  0  0  0  0  0  0
   -5.2756    0.0586  -21.8600 C   0  0  0  0  0  0  0  0  0  0  0  0
   -5.5175   -0.5309  -20.5927 C   0  0  0  0  0  0  0  0  0  0  0  0
   -6.0924    0.0960  -22.5715 H   0  0  0  0  0  0  0  0  0  0  0  0
   -3.8672    1.0245  -23.1427 H   0  0  0  0  0  0  0  0  0  0  0  0
   -2.0842    1.1318  -21.4095 H   0  0  0  0  0  0  0  0  0  0  0  0
   -2.5510    0.3100  -19.1058 H   0  0  0  0  0  0  0  0  0  0  0  0
   -4.0882   -0.7553  -17.5014 H   0  0  0  0  0  0  0  0  0  0  0  0
   -7.7685   -2.2037  -18.6671 H   0  0  0  0  0  0  0  0  0  0  0  0
   -8.8779   -1.1492  -21.4748 C   0  0  0  0  0  0  0  0  0  0  0  0
   -9.3191   -0.1743  -20.9150 O   0  0  0  0  0  0  0  0  0  0  0  0
   -9.5784   -2.0232  -22.5732 C   0  0  1  0  0  0  0  0  0  0  0  0
   -9.4976   -1.2643  -23.9140 C   0  0  0  0  0  0  0  0  0  0  0  0
  -10.3549   -0.0932  -23.9077 N   0  0  0  0  0  0  0  0  0  0  0  0
   -9.9572    0.9653  -24.7993 C   0  0  0  0  0  0  0  0  0  0  0  0
   -9.9886    0.5038  -26.2271 C   0  0  0  0  0  0  0  0  0  0  0  0
  -10.9720   -0.3017  -26.7308 N   0  0  0  0  0  0  0  0  0  0  0  0
  -10.6245   -0.4207  -27.9964 C   0  0  0  0  0  0  0  0  0  0  0  0
   -9.4749    0.2387  -28.2207 N   0  0  0  0  0  0  0  0  0  0  0  0
   -9.0610    0.8553  -27.0890 N   0  0  0  0  0  0  0  0  0  0  0  0
   -8.9849    0.3806  -29.0856 H   0  0  0  0  0  0  0  0  0  0  0  0
  -11.1731   -0.9522  -28.7624 H   0  0  0  0  0  0  0  0  0  0  0  0
   -8.9383    1.2909  -24.5578 H   0  0  0  0  0  0  0  0  0  0  0  0
  -10.6550    1.7935  -24.6458 H   0  0  0  0  0  0  0  0  0  0  0  0
  -11.6607   -0.1458  -23.5101 C   0  0  0  0  0  0  0  0  0  0  0  0
  -12.4609    0.7487  -23.7572 O   0  0  0  0  0  0  0  0  0  0  0  0
  -12.0366   -1.3745  -22.7600 C   0  0  0  0  0  0  0  0  0  0  0  0
  -13.3927   -1.5793  -22.5052 C   0  0  0  0  0  0  0  0  0  0  0  0
  -13.8168   -2.6140  -21.7042 C   0  0  0  0  0  0  0  0  0  0  0  0
  -12.8336   -3.4298  -21.1575 C   0  0  0  0  0  0  0  0  0  0  0  0
  -13.1958   -4.3109  -20.2134 F   0  0  0  0  0  0  0  0  0  0  0  0
  -11.4957   -3.3248  -21.4987 C   0  0  0  0  0  0  0  0  0  0  0  0
  -11.0567   -2.2696  -22.2990 C   0  0  0  0  0  0  0  0  0  0  0  0
  -10.8028   -4.0385  -21.0688 H   0  0  0  0  0  0  0  0  0  0  0  0
  -14.8660   -2.7968  -21.4919 H   0  0  0  0  0  0  0  0  0  0  0  0
  -14.1020   -0.8713  -22.9193 H   0  0  0  0  0  0  0  0  0  0  0  0
   -9.7757   -1.9300  -24.7422 H   0  0  0  0  0  0  0  0  0  0  0  0
   -8.4771   -0.9256  -24.1072 H   0  0  0  0  0  0  0  0  0  0  0  0
   -6.6726   -3.5113  -21.6401 H   0  0  0  0  0  0  0  0  0  0  0  0
   -6.7138   -2.4268  -23.0413 H   0  0  0  0  0  0  0  0  0  0  0  0
   -8.9952   -3.8690  -21.6814 H   0  0  0  0  0  0  0  0  0  0  0  0
   -9.5737   -4.6786  -23.9432 H   0  0  0  0  0  0  0  0  0  0  0  0
   -8.3316   -3.6378  -24.6615 H   0  0  0  0  0  0  0  0  0  0  0  0
   -7.8558   -4.9685  -23.6078 H   0  0  0  0  0  0  0  0  0  0  0  0
  1  2  1  0
  2  3  1  0
  3  4  1  0
  4  5  1  0
  5  6  2  0
  6  7  1  0
  7  8  2  0
  8  9  1  0
  9 10  2  0
 10 11  1  0
 11 12  2  0
 12 13  1  0
 13 14  2  0
 13 15  1  0
 12 16  1  0
 11 17  1  0
 10 18  1  0
  8 19  1  0
  6 20  1  0
  4 21  1  0
 21 22  2  0
 21 23  1  0
 23 24  1  6
 24 25  1  0
 25 26  1  0
 26 27  1  0
 27 28  1  0
 28 29  2  0
 29 30  1  0
 30 31  1  0
 30 32  1  0
 29 33  1  0
 26 34  1  0
 26 35  1  0
 25 36  1  0
 36 37  2  0
 36 38  1  0
 38 39  2  0
 39 40  1  0
 40 41  2  0
 41 42  1  0
 41 43  1  0
 43 44  2  0
 43 45  1  0
 40 46  1  0
 39 47  1  0
 24 48  1  0
 24 49  1  0
  3 50  1  0
  3 51  1  0
  2 52  1  1
  1 53  1  0
  1 54  1  0
  1 55  1  0
 23  2  1  0
 31 27  2  0
 44 38  1  0
 14  5  1  0
 44 23  1  0
 14  9  1  0
M  END
>  <cnnaffinities>  (62) 
[6.37478, 6.55419, 6.49896]

>  <score>  (62) 
6.37478

>  <index>  (62) 
64

>  <Smiles>  (62) 
C([C@]1(C(N(c2c(nc(c3c(c(c(c(c23)[H])[H])[H])[H])[H])[H])C(=O)[C@]21C(N(C(c1nc(n(n1)[H])[H])([H])[H])C(=O)c1c(c(c(F)c(c21)[H])[H])[H])([H])[H])([H])[H])[H])([H])([H])[H]

>  <h>  (62) 
<NA>

>  <Training>  (62) 
True

>  <Success>  (62) 
True

>  <enamine_searched>  (62) 
False

>  <enamine_id>  (62) 
nan

$$$$

     RDKit          3D

 55 60  0  0  0  0  0  0  0  0999 V2000
   -7.9094   -3.5845  -24.0923 C   0  0  0  0  0  0  0  0  0  0  0  0
   -8.2932   -2.8430  -22.8176 C   0  0  1  0  0  0  0  0  0  0  0  0
   -7.0694   -2.6134  -21.9222 C   0  0  0  0  0  0  0  0  0  0  0  0
   -7.3953   -1.4129  -21.1975 N   0  0  0  0  0  0  0  0  0  0  0  0
   -6.5160   -0.9473  -20.1918 C   0  0  0  0  0  0  0  0  0  0  0  0
   -6.7657   -1.2507  -18.8829 C   0  0  0  0  0  0  0  0  0  0  0  0
   -5.9026   -0.9971  -17.8673 N   0  0  0  0  0  0  0  0  0  0  0  0
   -4.7786   -0.3945  -18.1593 C   0  0  0  0  0  0  0  0  0  0  0  0
   -4.4256    0.0234  -19.4720 C   0  0  0  0  0  0  0  0  0  0  0  0
   -3.2626    0.7874  -19.7284 C   0  0  0  0  0  0  0  0  0  0  0  0
   -3.0332    1.3012  -20.9758 C   0  0  0  0  0  0  0  0  0  0  0  0
   -3.9006    0.9828  -22.0482 C   0  0  0  0  0  0  0  0  0  0  0  0
   -4.9985    0.1846  -21.8373 C   0  0  0  0  0  0  0  0  0  0  0  0
   -5.3120   -0.2653  -20.5300 C   0  0  0  0  0  0  0  0  0  0  0  0
   -5.6453   -0.0702  -22.6708 H   0  0  0  0  0  0  0  0  0  0  0  0
   -3.7190    1.4053  -23.0312 H   0  0  0  0  0  0  0  0  0  0  0  0
   -2.1876    1.9595  -21.1468 H   0  0  0  0  0  0  0  0  0  0  0  0
   -2.6211    1.0195  -18.8808 H   0  0  0  0  0  0  0  0  0  0  0  0
   -4.0741   -0.1969  -17.3473 H   0  0  0  0  0  0  0  0  0  0  0  0
   -7.6983   -1.7552  -18.6362 H   0  0  0  0  0  0  0  0  0  0  0  0
   -8.4332   -0.6766  -21.7244 C   0  0  0  0  0  0  0  0  0  0  0  0
   -8.8332    0.3702  -21.2690 O   0  0  0  0  0  0  0  0  0  0  0  0
   -8.9680   -1.4415  -22.9726 C   0  0  1  0  0  0  0  0  0  0  0  0
   -8.4998   -0.7643  -24.2897 C   0  0  0  0  0  0  0  0  0  0  0  0
   -9.1995    0.4731  -24.5728 N   0  0  0  0  0  0  0  0  0  0  0  0
   -8.4633    1.6742  -24.9358 C   0  0  0  0  0  0  0  0  0  0  0  0
   -8.1656    2.5272  -23.7399 C   0  0  0  0  0  0  0  0  0  0  0  0
   -8.9393    3.4198  -23.0873 C   0  0  0  0  0  0  0  0  0  0  0  0
   -8.2112    3.9437  -22.0620 O   0  0  0  0  0  0  0  0  0  0  0  0
   -7.0305    3.2995  -22.1283 C   0  0  0  0  0  0  0  0  0  0  0  0
   -6.9365    2.4528  -23.0956 N   0  0  0  0  0  0  0  0  0  0  0  0
   -6.2822    3.5602  -21.3871 H   0  0  0  0  0  0  0  0  0  0  0  0
   -9.9627    3.7529  -23.1825 H   0  0  0  0  0  0  0  0  0  0  0  0
   -9.0552    2.2188  -25.6791 H   0  0  0  0  0  0  0  0  0  0  0  0
   -7.5189    1.3766  -25.3989 H   0  0  0  0  0  0  0  0  0  0  0  0
  -10.5573    0.5884  -24.4436 C   0  0  0  0  0  0  0  0  0  0  0  0
  -11.1765    1.5400  -24.8973 O   0  0  0  0  0  0  0  0  0  0  0  0
  -11.2324   -0.5054  -23.6773 C   0  0  0  0  0  0  0  0  0  0  0  0
  -12.6275   -0.5020  -23.6311 C   0  0  0  0  0  0  0  0  0  0  0  0
  -13.3110   -1.3920  -22.8309 C   0  0  0  0  0  0  0  0  0  0  0  0
  -12.5561   -2.2677  -22.0595 C   0  0  0  0  0  0  0  0  0  0  0  0
  -13.2006   -3.1094  -21.2379 F   0  0  0  0  0  0  0  0  0  0  0  0
  -11.1778   -2.3027  -22.0952 C   0  0  0  0  0  0  0  0  0  0  0  0
  -10.4859   -1.4426  -22.9524 C   0  0  0  0  0  0  0  0  0  0  0  0
  -10.6609   -2.9878  -21.4332 H   0  0  0  0  0  0  0  0  0  0  0  0
  -14.3943   -1.3991  -22.7660 H   0  0  0  0  0  0  0  0  0  0  0  0
  -13.1537    0.2360  -24.2225 H   0  0  0  0  0  0  0  0  0  0  0  0
   -8.6694   -1.4686  -25.1139 H   0  0  0  0  0  0  0  0  0  0  0  0
   -7.4234   -0.5591  -24.2367 H   0  0  0  0  0  0  0  0  0  0  0  0
   -6.1429   -2.5040  -22.5124 H   0  0  0  0  0  0  0  0  0  0  0  0
   -6.9130   -3.4347  -21.2164 H   0  0  0  0  0  0  0  0  0  0  0  0
   -8.9890   -3.4764  -22.2635 H   0  0  0  0  0  0  0  0  0  0  0  0
   -8.7653   -3.7322  -24.7587 H   0  0  0  0  0  0  0  0  0  0  0  0
   -7.1336   -3.0363  -24.6396 H   0  0  0  0  0  0  0  0  0  0  0  0
   -7.4987   -4.5641  -23.8320 H   0  0  0  0  0  0  0  0  0  0  0  0
  1  2  1  0
  2  3  1  0
  3  4  1  0
  4  5  1  0
  5  6  2  0
  6  7  1  0
  7  8  2  0
  8  9  1  0
  9 10  2  0
 10 11  1  0
 11 12  2  0
 12 13  1  0
 13 14  2  0
 13 15  1  0
 12 16  1  0
 11 17  1  0
 10 18  1  0
  8 19  1  0
  6 20  1  0
  4 21  1  0
 21 22  2  0
 21 23  1  0
 23 24  1  6
 24 25  1  0
 25 26  1  0
 26 27  1  0
 27 28  2  0
 28 29  1  0
 29 30  1  0
 30 31  2  0
 30 32  1  0
 28 33  1  0
 26 34  1  0
 26 35  1  0
 25 36  1  0
 36 37  2  0
 36 38  1  0
 38 39  2  0
 39 40  1  0
 40 41  2  0
 41 42  1  0
 41 43  1  0
 43 44  2  0
 43 45  1  0
 40 46  1  0
 39 47  1  0
 24 48  1  0
 24 49  1  0
  3 50  1  0
  3 51  1  0
  2 52  1  1
  1 53  1  0
  1 54  1  0
  1 55  1  0
 23  2  1  0
 31 27  1  0
 44 38  1  0
 14  5  1  0
 44 23  1  0
 14  9  1  0
M  END
>  <cnnaffinities>  (63) 
[6.55679, 6.27853]

>  <score>  (63) 
6.55679

>  <index>  (63) 
65

>  <Smiles>  (63) 
C([C@]1(C(N(c2c(nc(c3c(c(c(c(c23)[H])[H])[H])[H])[H])[H])C(=O)[C@]21C(N(C(c1c(oc(n1)[H])[H])([H])[H])C(=O)c1c(c(c(F)c(c21)[H])[H])[H])([H])[H])([H])[H])[H])([H])([H])[H]

>  <h>  (63) 
<NA>

>  <Training>  (63) 
True

>  <Success>  (63) 
True

>  <enamine_searched>  (63) 
False

>  <enamine_id>  (63) 
nan

$$$$

     RDKit          3D

 44 47  0  0  0  0  0  0  0  0999 V2000
   -9.8302    1.4091  -24.4212 C   0  0  0  0  0  0  0  0  0  0  0  0
  -10.9718    0.5061  -23.9946 C   0  0  0  0  0  0  0  0  0  0  0  0
  -10.7905   -0.1283  -22.6092 C   0  0  1  0  0  0  0  0  0  0  0  0
  -12.0185   -0.9247  -22.2796 C   0  0  0  0  0  0  0  0  0  0  0  0
  -13.3318   -0.3791  -22.1108 C   0  0  0  0  0  0  0  0  0  0  0  0
  -14.2156   -1.2941  -21.6313 C   0  0  0  0  0  0  0  0  0  0  0  0
  -13.4879   -2.8542  -21.4825 S   0  0  0  0  0  0  0  0  0  0  0  0
  -11.9635   -2.2621  -22.0390 C   0  0  0  0  0  0  0  0  0  0  0  0
  -10.7503   -3.1271  -22.2412 C   0  0  0  0  0  0  0  0  0  0  0  0
   -9.7047   -2.3077  -22.9997 C   0  0  0  0  0  0  0  0  0  0  0  0
   -9.5919   -0.9595  -22.4474 N   0  0  0  0  0  0  0  0  0  0  0  0
   -8.5166   -0.4312  -21.7660 C   0  0  0  0  0  0  0  0  0  0  0  0
   -8.4235    0.7601  -21.5343 O   0  0  0  0  0  0  0  0  0  0  0  0
   -7.4662   -1.4515  -21.2944 C   0  0  0  0  0  0  0  0  0  0  0  0
   -6.5033   -0.9969  -20.2258 C   0  0  0  0  0  0  0  0  0  0  0  0
   -6.7533   -1.2612  -18.9056 C   0  0  0  0  0  0  0  0  0  0  0  0
   -5.9291   -0.9651  -17.8673 N   0  0  0  0  0  0  0  0  0  0  0  0
   -4.8141   -0.3429  -18.1523 C   0  0  0  0  0  0  0  0  0  0  0  0
   -4.4527    0.0608  -19.4651 C   0  0  0  0  0  0  0  0  0  0  0  0
   -3.2922    0.8339  -19.7143 C   0  0  0  0  0  0  0  0  0  0  0  0
   -3.0633    1.3556  -20.9606 C   0  0  0  0  0  0  0  0  0  0  0  0
   -3.9275    1.0286  -22.0307 C   0  0  0  0  0  0  0  0  0  0  0  0
   -5.0184    0.2199  -21.8321 C   0  0  0  0  0  0  0  0  0  0  0  0
   -5.3219   -0.2652  -20.5343 C   0  0  0  0  0  0  0  0  0  0  0  0
   -5.7094    0.0217  -22.6495 H   0  0  0  0  0  0  0  0  0  0  0  0
   -3.7421    1.4489  -23.0145 H   0  0  0  0  0  0  0  0  0  0  0  0
   -2.2409    2.0439  -21.1276 H   0  0  0  0  0  0  0  0  0  0  0  0
   -2.6314    1.0600  -18.8821 H   0  0  0  0  0  0  0  0  0  0  0  0
   -4.1388   -0.1023  -17.3260 H   0  0  0  0  0  0  0  0  0  0  0  0
   -7.6936   -1.7304  -18.6197 H   0  0  0  0  0  0  0  0  0  0  0  0
   -8.0340   -2.3063  -20.9036 H   0  0  0  0  0  0  0  0  0  0  0  0
   -6.9178   -1.7997  -22.1806 H   0  0  0  0  0  0  0  0  0  0  0  0
   -8.7286   -2.8018  -23.0255 H   0  0  0  0  0  0  0  0  0  0  0  0
  -10.0398   -2.2167  -24.0403 H   0  0  0  0  0  0  0  0  0  0  0  0
  -10.3542   -3.4607  -21.2744 H   0  0  0  0  0  0  0  0  0  0  0  0
  -10.9972   -4.0426  -22.7940 H   0  0  0  0  0  0  0  0  0  0  0  0
  -15.2212   -1.1133  -21.2707 H   0  0  0  0  0  0  0  0  0  0  0  0
  -13.5942    0.6556  -22.3170 H   0  0  0  0  0  0  0  0  0  0  0  0
  -10.6674    0.7007  -21.8981 H   0  0  0  0  0  0  0  0  0  0  0  0
  -11.9037    1.0811  -23.9278 H   0  0  0  0  0  0  0  0  0  0  0  0
  -11.1698   -0.2766  -24.7376 H   0  0  0  0  0  0  0  0  0  0  0  0
   -8.8959    0.8504  -24.5326 H   0  0  0  0  0  0  0  0  0  0  0  0
  -10.0595    1.8914  -25.3761 H   0  0  0  0  0  0  0  0  0  0  0  0
   -9.6690    2.1891  -23.6705 H   0  0  0  0  0  0  0  0  0  0  0  0
  1  2  1  0
  2  3  1  0
  3  4  1  0
  4  5  1  0
  5  6  2  0
  6  7  1  0
  7  8  1  0
  8  9  1  0
  9 10  1  0
 10 11  1  0
 11 12  1  0
 12 13  2  0
 12 14  1  0
 14 15  1  0
 15 16  2  0
 16 17  1  0
 17 18  2  0
 18 19  1  0
 19 20  2  0
 20 21  1  0
 21 22  2  0
 22 23  1  0
 23 24  2  0
 23 25  1  0
 22 26  1  0
 21 27  1  0
 20 28  1  0
 18 29  1  0
 16 30  1  0
 14 31  1  0
 14 32  1  0
 10 33  1  0
 10 34  1  0
  9 35  1  0
  9 36  1  0
  6 37  1  0
  5 38  1  0
  3 39  1  1
  2 40  1  0
  2 41  1  0
  1 42  1  0
  1 43  1  0
  1 44  1  0
 11  3  1  0
 24 15  1  0
  8  4  2  0
 24 19  1  0
M  END
>  <cnnaffinities>  (64) 
[5.95589, 5.71026]

>  <score>  (64) 
5.95589

>  <index>  (64) 
66

>  <Smiles>  (64) 
C(C([C@]1(c2c(c(sc2C(C(N1C(=O)C(c1c(nc(c2c(c(c(c(c12)[H])[H])[H])[H])[H])[H])([H])[H])([H])[H])([H])[H])[H])[H])[H])([H])[H])([H])([H])[H]

>  <h>  (64) 
<NA>

>  <Training>  (64) 
True

>  <Success>  (64) 
True

>  <enamine_searched>  (64) 
False

>  <enamine_id>  (64) 
nan

$$$$

     RDKit          3D

 58 63  0  0  0  0  0  0  0  0999 V2000
   -8.3991   -7.1490  -27.5926 C   0  0  0  0  0  0  0  0  0  0  0  0
   -7.8384   -5.8041  -27.2547 C   0  0  0  0  0  0  0  0  0  0  0  0
   -8.5352   -4.5712  -27.3552 C   0  0  0  0  0  0  0  0  0  0  0  0
   -7.6310   -3.6520  -26.9517 C   0  0  0  0  0  0  0  0  0  0  0  0
   -7.7158   -2.1640  -26.8049 C   0  0  0  0  0  0  0  0  0  0  0  0
   -8.5533   -1.7703  -25.6802 N   0  0  0  0  0  0  0  0  0  0  0  0
   -7.9355   -1.2478  -24.4703 C   0  0  0  0  0  0  0  0  0  0  0  0
   -8.7513   -1.5388  -23.1832 C   0  0  2  0  0  0  0  0  0  0  0  0
   -8.1628   -0.6153  -22.0953 C   0  0  0  0  0  0  0  0  0  0  0  0
   -8.2804    0.5929  -22.0299 O   0  0  0  0  0  0  0  0  0  0  0  0
   -7.4247   -1.3827  -21.2205 N   0  0  0  0  0  0  0  0  0  0  0  0
   -6.5261   -0.9175  -20.2305 C   0  0  0  0  0  0  0  0  0  0  0  0
   -6.7523   -1.2614  -18.9238 C   0  0  0  0  0  0  0  0  0  0  0  0
   -5.9088   -1.0055  -17.8966 N   0  0  0  0  0  0  0  0  0  0  0  0
   -4.7875   -0.3896  -18.1766 C   0  0  0  0  0  0  0  0  0  0  0  0
   -4.4377    0.0410  -19.4852 C   0  0  0  0  0  0  0  0  0  0  0  0
   -3.2593    0.7879  -19.7199 C   0  0  0  0  0  0  0  0  0  0  0  0
   -2.9963    1.2876  -20.9676 C   0  0  0  0  0  0  0  0  0  0  0  0
   -3.8488    0.9771  -22.0526 C   0  0  0  0  0  0  0  0  0  0  0  0
   -4.9678    0.2116  -21.8597 C   0  0  0  0  0  0  0  0  0  0  0  0
   -5.3167   -0.2307  -20.5553 C   0  0  0  0  0  0  0  0  0  0  0  0
   -5.5946   -0.0603  -22.7036 H   0  0  0  0  0  0  0  0  0  0  0  0
   -3.6217    1.3681  -23.0396 H   0  0  0  0  0  0  0  0  0  0  0  0
   -2.1367    1.9291  -21.1296 H   0  0  0  0  0  0  0  0  0  0  0  0
   -2.6238    1.0064  -18.8669 H   0  0  0  0  0  0  0  0  0  0  0  0
   -4.0811   -0.2075  -17.3644 H   0  0  0  0  0  0  0  0  0  0  0  0
   -7.6692   -1.7977  -18.6829 H   0  0  0  0  0  0  0  0  0  0  0  0
   -7.3749   -2.7794  -21.5728 C   0  0  0  0  0  0  0  0  0  0  0  0
   -8.5343   -2.9585  -22.5480 C   0  0  2  0  0  0  0  0  0  0  0  0
   -8.2746   -4.1073  -23.5016 C   0  0  0  0  0  0  0  0  0  0  0  0
   -7.3043   -3.9683  -23.9868 H   0  0  0  0  0  0  0  0  0  0  0  0
   -9.0427   -4.1654  -24.2773 H   0  0  0  0  0  0  0  0  0  0  0  0
   -8.2452   -5.0473  -22.9429 H   0  0  0  0  0  0  0  0  0  0  0  0
   -9.4441   -3.1705  -21.9648 H   0  0  0  0  0  0  0  0  0  0  0  0
   -7.4823   -3.3642  -20.6661 H   0  0  0  0  0  0  0  0  0  0  0  0
   -6.4080   -3.0543  -22.0280 H   0  0  0  0  0  0  0  0  0  0  0  0
  -10.2129   -1.2565  -23.4576 C   0  0  0  0  0  0  0  0  0  0  0  0
  -11.0830   -0.9866  -22.3989 C   0  0  0  0  0  0  0  0  0  0  0  0
  -12.4298   -0.8041  -22.6539 C   0  0  0  0  0  0  0  0  0  0  0  0
  -13.2671   -0.5527  -21.6413 F   0  0  0  0  0  0  0  0  0  0  0  0
  -12.9780   -0.8911  -23.9273 C   0  0  0  0  0  0  0  0  0  0  0  0
  -12.1166   -1.1776  -24.9637 C   0  0  0  0  0  0  0  0  0  0  0  0
  -10.7533   -1.3630  -24.7403 C   0  0  0  0  0  0  0  0  0  0  0  0
   -9.9034   -1.7406  -25.9031 C   0  0  0  0  0  0  0  0  0  0  0  0
  -10.3967   -2.0286  -26.9872 O   0  0  0  0  0  0  0  0  0  0  0  0
  -12.4819   -1.2751  -25.9774 H   0  0  0  0  0  0  0  0  0  0  0  0
  -14.0446   -0.7465  -24.0786 H   0  0  0  0  0  0  0  0  0  0  0  0
  -10.7004   -0.9350  -21.3873 H   0  0  0  0  0  0  0  0  0  0  0  0
   -6.9275   -1.6692  -24.3649 H   0  0  0  0  0  0  0  0  0  0  0  0
   -7.8098   -0.1600  -24.5588 H   0  0  0  0  0  0  0  0  0  0  0  0
   -8.1740   -1.7525  -27.7093 H   0  0  0  0  0  0  0  0  0  0  0  0
   -6.7221   -1.7317  -26.6927 H   0  0  0  0  0  0  0  0  0  0  0  0
   -6.4839   -4.2617  -26.6211 O   0  0  0  0  0  0  0  0  0  0  0  0
   -6.6127   -5.6302  -26.8169 N   0  0  0  0  0  0  0  0  0  0  0  0
   -9.5562   -4.4255  -27.6858 H   0  0  0  0  0  0  0  0  0  0  0  0
   -9.4748   -7.1606  -27.3938 H   0  0  0  0  0  0  0  0  0  0  0  0
   -7.9340   -7.9256  -26.9942 H   0  0  0  0  0  0  0  0  0  0  0  0
   -8.2491   -7.3864  -28.6515 H   0  0  0  0  0  0  0  0  0  0  0  0
  1  2  1  0
  2  3  1  0
  3  4  2  0
  4  5  1  0
  5  6  1  0
  6  7  1  0
  8  7  1  6
  8  9  1  0
  9 10  2  0
  9 11  1  0
 11 12  1  0
 12 13  2  0
 13 14  1  0
 14 15  2  0
 15 16  1  0
 16 17  2  0
 17 18  1  0
 18 19  2  0
 19 20  1  0
 20 21  2  0
 20 22  1  0
 19 23  1  0
 18 24  1  0
 17 25  1  0
 15 26  1  0
 13 27  1  0
 11 28  1  0
 28 29  1  0
 29 30  1  0
 30 31  1  0
 30 32  1  0
 30 33  1  0
 29 34  1  1
 28 35  1  0
 28 36  1  0
  8 37  1  0
 37 38  2  0
 38 39  1  0
 39 40  1  0
 39 41  2  0
 41 42  1  0
 42 43  2  0
 43 44  1  0
 44 45  2  0
 42 46  1  0
 41 47  1  0
 38 48  1  0
  7 49  1  0
  7 50  1  0
  5 51  1  0
  5 52  1  0
  4 53  1  0
 53 54  1  0
  3 55  1  0
  1 56  1  0
  1 57  1  0
  1 58  1  0
 54  2  2  0
 44  6  1  0
 29  8  1  0
 43 37  1  0
 21 12  1  0
 21 16  1  0
M  END
>  <cnnaffinities>  (65) 
[6.5422]

>  <score>  (65) 
6.5422

>  <index>  (65) 
67

>  <Smiles>  (65) 
C(c1c(c(C(N2C([C@@]3(C(=O)N(c4c(nc(c5c(c(c(c(c45)[H])[H])[H])[H])[H])[H])C([C@@]3(C([H])([H])[H])[H])([H])[H])c3c(c(F)c(c(c3C2=O)[H])[H])[H])([H])[H])([H])[H])on1)[H])([H])([H])[H]

>  <h>  (65) 
<NA>

>  <Training>  (65) 
True

>  <Success>  (65) 
True

>  <enamine_searched>  (65) 
False

>  <enamine_id>  (65) 
nan

$$$$

     RDKit          3D

 65 70  0  0  0  0  0  0  0  0999 V2000
   -9.0693    0.1882  -20.8157 O   0  0  0  0  0  0  0  0  0  0  0  0
   -8.2801   -0.1602  -21.6699 C   0  0  0  0  0  0  0  0  0  0  0  0
   -7.4560   -1.4197  -21.4004 C   0  0  0  0  0  0  0  0  0  0  0  0
   -6.4488   -1.1168  -20.3172 C   0  0  0  0  0  0  0  0  0  0  0  0
   -6.6493   -1.5128  -19.0207 C   0  0  0  0  0  0  0  0  0  0  0  0
   -5.7538   -1.3569  -18.0139 N   0  0  0  0  0  0  0  0  0  0  0  0
   -4.6452   -0.7216  -18.2965 C   0  0  0  0  0  0  0  0  0  0  0  0
   -4.3471   -0.1733  -19.5760 C   0  0  0  0  0  0  0  0  0  0  0  0
   -3.1615    0.5603  -19.8155 C   0  0  0  0  0  0  0  0  0  0  0  0
   -2.9062    1.1014  -21.0441 C   0  0  0  0  0  0  0  0  0  0  0  0
   -3.8456    0.9534  -22.0825 C   0  0  0  0  0  0  0  0  0  0  0  0
   -4.9891    0.2167  -21.8865 C   0  0  0  0  0  0  0  0  0  0  0  0
   -5.2803   -0.3578  -20.6187 C   0  0  0  0  0  0  0  0  0  0  0  0
   -5.6909    0.1168  -22.7045 H   0  0  0  0  0  0  0  0  0  0  0  0
   -3.6665    1.4280  -23.0423 H   0  0  0  0  0  0  0  0  0  0  0  0
   -1.9826    1.6406  -21.2262 H   0  0  0  0  0  0  0  0  0  0  0  0
   -2.4679    0.6966  -18.9942 H   0  0  0  0  0  0  0  0  0  0  0  0
   -3.9118   -0.6248  -17.4966 H   0  0  0  0  0  0  0  0  0  0  0  0
   -7.5831   -1.9954  -18.7273 H   0  0  0  0  0  0  0  0  0  0  0  0
   -6.9586   -1.8017  -22.2941 H   0  0  0  0  0  0  0  0  0  0  0  0
   -8.1568   -2.1825  -21.0399 H   0  0  0  0  0  0  0  0  0  0  0  0
   -8.0729    0.5647  -22.8474 N   0  0  0  0  0  0  0  0  0  0  0  0
   -8.0179   -0.0809  -24.1593 C   0  0  0  0  0  0  0  0  0  0  0  0
   -9.3870   -0.3014  -24.7795 C   0  0  0  0  0  0  0  0  0  0  0  0
   -9.6967    0.1502  -26.0593 C   0  0  0  0  0  0  0  0  0  0  0  0
  -10.9871    0.0133  -26.5675 C   0  0  0  0  0  0  0  0  0  0  0  0
  -11.9747   -0.6238  -25.8218 C   0  0  0  0  0  0  0  0  0  0  0  0
  -11.6488   -1.1025  -24.5597 C   0  0  0  0  0  0  0  0  0  0  0  0
  -12.8623   -1.8897  -23.5877 Cl  0  0  0  0  0  0  0  0  0  0  0  0
  -10.3756   -0.9429  -24.0319 C   0  0  0  0  0  0  0  0  0  0  0  0
  -10.1785   -1.2798  -23.0186 H   0  0  0  0  0  0  0  0  0  0  0  0
  -12.9869   -0.7526  -26.1917 H   0  0  0  0  0  0  0  0  0  0  0  0
  -11.2078    0.4274  -27.5484 H   0  0  0  0  0  0  0  0  0  0  0  0
   -8.9325    0.6186  -26.6778 H   0  0  0  0  0  0  0  0  0  0  0  0
   -7.3918    0.5205  -24.8251 H   0  0  0  0  0  0  0  0  0  0  0  0
   -7.5127   -1.0436  -24.0475 H   0  0  0  0  0  0  0  0  0  0  0  0
   -8.4201    1.9896  -22.8008 C   0  0  2  0  0  0  0  0  0  0  0  0
   -9.9225    2.3434  -22.7635 C   0  0  0  0  0  0  0  0  0  0  0  0
   -9.9300    3.8607  -23.0974 C   0  0  0  0  0  0  0  0  0  0  0  0
   -8.4456    4.1879  -23.2849 C   0  0  2  0  0  0  0  0  0  0  0  0
   -7.9254    2.8993  -23.9327 C   0  0  0  0  0  0  0  0  0  0  0  0
   -8.4548    2.6870  -24.8653 H   0  0  0  0  0  0  0  0  0  0  0  0
   -6.8382    2.8693  -24.0804 H   0  0  0  0  0  0  0  0  0  0  0  0
   -7.8176    4.1641  -21.8779 N   0  0  2  0  0  4  0  0  0  0  0  0
   -6.4957    4.8826  -21.7460 C   0  0  0  0  0  0  0  0  0  0  0  0
   -5.8604    4.9219  -20.3599 C   0  0  0  0  0  0  0  0  0  0  0  0
   -4.3901    5.3773  -20.2635 C   0  0  0  0  0  0  0  0  0  0  0  0
   -4.6969    6.3456  -19.2434 O   0  0  0  0  0  0  0  0  0  0  0  0
   -6.1054    6.0782  -19.3698 C   0  0  0  0  0  0  0  0  0  0  0  0
   -6.6467    6.9449  -19.7741 H   0  0  0  0  0  0  0  0  0  0  0  0
   -6.5505    5.7865  -18.4121 H   0  0  0  0  0  0  0  0  0  0  0  0
   -3.6941    4.6067  -19.9064 H   0  0  0  0  0  0  0  0  0  0  0  0
   -3.9674    5.8522  -21.1640 H   0  0  0  0  0  0  0  0  0  0  0  0
   -5.9710    3.9412  -19.8992 H   0  0  0  0  0  0  0  0  0  0  0  0
   -5.7739    4.3903  -22.4110 H   0  0  0  0  0  0  0  0  0  0  0  0
   -6.6147    5.9034  -22.1236 H   0  0  0  0  0  0  0  0  0  0  0  0
   -7.7779    2.6667  -21.5906 C   0  0  0  0  0  0  0  0  0  0  0  0
   -6.7380    2.3681  -21.4488 H   0  0  0  0  0  0  0  0  0  0  0  0
   -8.3565    2.4489  -20.6935 H   0  0  0  0  0  0  0  0  0  0  0  0
   -8.4940    4.5852  -21.2123 H   0  0  0  0  0  0  0  0  0  0  0  0
   -8.2267    5.1339  -23.7766 H   0  0  0  0  0  0  0  0  0  0  0  0
  -10.4846    4.0479  -24.0199 H   0  0  0  0  0  0  0  0  0  0  0  0
  -10.3771    4.4867  -22.3172 H   0  0  0  0  0  0  0  0  0  0  0  0
  -10.4393    1.7723  -23.5371 H   0  0  0  0  0  0  0  0  0  0  0  0
  -10.3597    2.0875  -21.7964 H   0  0  0  0  0  0  0  0  0  0  0  0
  1  2  2  0
  2  3  1  0
  3  4  1  0
  4  5  2  0
  5  6  1  0
  6  7  2  0
  7  8  1  0
  8  9  2  0
  9 10  1  0
 10 11  2  0
 11 12  1  0
 12 13  2  0
 12 14  1  0
 11 15  1  0
 10 16  1  0
  9 17  1  0
  7 18  1  0
  5 19  1  0
  3 20  1  0
  3 21  1  0
  2 22  1  0
 22 23  1  0
 23 24  1  0
 24 25  2  0
 25 26  1  0
 26 27  2  0
 27 28  1  0
 28 29  1  0
 28 30  2  0
 30 31  1  0
 27 32  1  0
 26 33  1  0
 25 34  1  0
 23 35  1  0
 23 36  1  0
 37 22  1  6
 37 38  1  0
 38 39  1  0
 39 40  1  0
 40 41  1  0
 41 42  1  0
 41 43  1  0
 40 44  1  0
 44 45  1  0
 45 46  1  0
 46 47  1  0
 47 48  1  0
 48 49  1  0
 49 50  1  0
 49 51  1  0
 47 52  1  0
 47 53  1  0
 46 54  1  0
 45 55  1  0
 45 56  1  0
 44 57  1  0
 57 58  1  0
 57 59  1  0
 44 60  1  1
 40 61  1  6
 39 62  1  0
 39 63  1  0
 38 64  1  0
 38 65  1  0
 13  4  1  0
 30 24  1  0
 41 37  1  0
 49 46  1  0
 13  8  1  0
 57 37  1  0
M  CHG  1  44   1
M  END
>  <cnnaffinities>  (66) 
[6.30624]

>  <score>  (66) 
6.30624

>  <index>  (66) 
68

>  <Smiles>  (66) 
O=C(C(c1c(nc(c2c(c(c(c(c12)[H])[H])[H])[H])[H])[H])([H])[H])N(C(c1c(c(c(c(Cl)c1[H])[H])[H])[H])([H])[H])[C@]12C(C([C@](C1([H])[H])([N@+](C(C1(C(OC1([H])[H])([H])[H])[H])([H])[H])(C2([H])[H])[H])[H])([H])[H])([H])[H]

>  <h>  (66) 
<NA>

>  <Training>  (66) 
True

>  <Success>  (66) 
True

>  <enamine_searched>  (66) 
False

>  <enamine_id>  (66) 
nan

$$$$

     RDKit          3D

 63 67  0  0  0  0  0  0  0  0999 V2000
  -12.2787    6.3835  -23.7974 C   0  0  0  0  0  0  0  0  0  0  0  0
  -11.4314    5.3591  -23.7652 C   0  0  0  0  0  0  0  0  0  0  0  0
  -10.5904    5.0604  -24.9571 C   0  0  0  0  0  0  0  0  0  0  0  0
  -10.4705    5.8458  -25.8845 O   0  0  0  0  0  0  0  0  0  0  0  0
   -9.8913    3.8583  -24.9268 N   0  0  0  0  0  0  0  0  0  0  0  0
   -8.5638    3.8625  -25.5283 C   0  0  0  0  0  0  0  0  0  0  0  0
   -7.6103    3.1975  -24.5580 C   0  0  0  0  0  0  0  0  0  0  0  0
   -8.0396    1.7535  -24.3603 C   0  0  0  0  0  0  0  0  0  0  0  0
   -9.5202    1.6133  -24.0458 C   0  0  0  0  0  0  0  0  0  0  0  0
  -10.4073    2.6450  -24.4110 C   0  0  0  0  0  0  0  0  0  0  0  0
  -11.7927    2.4501  -24.3005 C   0  0  0  0  0  0  0  0  0  0  0  0
  -12.2933    1.2745  -23.7719 C   0  0  0  0  0  0  0  0  0  0  0  0
  -11.4284    0.2749  -23.3356 C   0  0  0  0  0  0  0  0  0  0  0  0
  -10.0547    0.4524  -23.4766 C   0  0  0  0  0  0  0  0  0  0  0  0
   -9.1445   -0.6778  -23.0133 N   0  0  1  0  0  4  0  0  0  0  0  0
   -8.3505   -1.3578  -24.2111 C   0  0  0  0  0  0  0  0  0  0  0  0
   -8.4183   -2.8692  -24.1964 C   0  0  0  0  0  0  0  0  0  0  0  0
   -7.2571   -3.6422  -24.1135 C   0  0  0  0  0  0  0  0  0  0  0  0
   -7.3202   -5.0310  -24.1443 C   0  0  0  0  0  0  0  0  0  0  0  0
   -8.5376   -5.6827  -24.2882 C   0  0  0  0  0  0  0  0  0  0  0  0
   -9.6902   -4.9152  -24.3964 C   0  0  0  0  0  0  0  0  0  0  0  0
  -11.2201   -5.7155  -24.6412 Cl  0  0  0  0  0  0  0  0  0  0  0  0
   -9.6442   -3.5286  -24.3323 C   0  0  0  0  0  0  0  0  0  0  0  0
  -10.5722   -2.9721  -24.4180 H   0  0  0  0  0  0  0  0  0  0  0  0
   -8.5872   -6.7659  -24.3175 H   0  0  0  0  0  0  0  0  0  0  0  0
   -6.4039   -5.6092  -24.0689 H   0  0  0  0  0  0  0  0  0  0  0  0
   -6.2839   -3.1613  -24.0350 H   0  0  0  0  0  0  0  0  0  0  0  0
   -7.3148   -1.0071  -24.1871 H   0  0  0  0  0  0  0  0  0  0  0  0
   -8.8044   -0.9690  -25.1252 H   0  0  0  0  0  0  0  0  0  0  0  0
   -8.3727   -0.3278  -21.7392 C   0  0  0  0  0  0  0  0  0  0  0  0
   -8.5655    0.7091  -21.1692 O   0  0  0  0  0  0  0  0  0  0  0  0
   -7.4559   -1.4489  -21.2638 C   0  0  0  0  0  0  0  0  0  0  0  0
   -6.4812   -1.0261  -20.1953 C   0  0  0  0  0  0  0  0  0  0  0  0
   -6.7259   -1.2761  -18.8730 C   0  0  0  0  0  0  0  0  0  0  0  0
   -5.8880   -0.9784  -17.8418 N   0  0  0  0  0  0  0  0  0  0  0  0
   -4.7673   -0.3756  -18.1459 C   0  0  0  0  0  0  0  0  0  0  0  0
   -4.4214    0.0325  -19.4609 C   0  0  0  0  0  0  0  0  0  0  0  0
   -3.2694    0.8140  -19.7171 C   0  0  0  0  0  0  0  0  0  0  0  0
   -3.0470    1.3332  -20.9621 C   0  0  0  0  0  0  0  0  0  0  0  0
   -3.9230    1.0095  -22.0221 C   0  0  0  0  0  0  0  0  0  0  0  0
   -5.0150    0.2056  -21.8102 C   0  0  0  0  0  0  0  0  0  0  0  0
   -5.3053   -0.2889  -20.5159 C   0  0  0  0  0  0  0  0  0  0  0  0
   -5.6726   -0.0576  -22.6371 H   0  0  0  0  0  0  0  0  0  0  0  0
   -3.7535    1.4367  -23.0026 H   0  0  0  0  0  0  0  0  0  0  0  0
   -2.2165    2.0119  -21.1378 H   0  0  0  0  0  0  0  0  0  0  0  0
   -2.6143    1.0436  -18.8836 H   0  0  0  0  0  0  0  0  0  0  0  0
   -4.0727   -0.1408  -17.3355 H   0  0  0  0  0  0  0  0  0  0  0  0
   -7.6505   -1.7732  -18.5837 H   0  0  0  0  0  0  0  0  0  0  0  0
   -8.1173   -2.2449  -20.8922 H   0  0  0  0  0  0  0  0  0  0  0  0
   -6.9358   -1.8550  -22.1355 H   0  0  0  0  0  0  0  0  0  0  0  0
   -9.7927   -1.4406  -22.7089 H   0  0  0  0  0  0  0  0  0  0  0  0
  -11.8368   -0.6363  -22.9062 H   0  0  0  0  0  0  0  0  0  0  0  0
  -13.3666    1.1381  -23.6814 H   0  0  0  0  0  0  0  0  0  0  0  0
  -12.4779    3.2309  -24.6138 H   0  0  0  0  0  0  0  0  0  0  0  0
   -7.8244    1.2087  -25.2906 H   0  0  0  0  0  0  0  0  0  0  0  0
   -7.4172    1.3044  -23.5819 H   0  0  0  0  0  0  0  0  0  0  0  0
   -6.5801    3.2522  -24.9259 H   0  0  0  0  0  0  0  0  0  0  0  0
   -7.6399    3.7244  -23.5982 H   0  0  0  0  0  0  0  0  0  0  0  0
   -8.5862    3.3430  -26.4967 H   0  0  0  0  0  0  0  0  0  0  0  0
   -8.2864    4.9016  -25.7141 H   0  0  0  0  0  0  0  0  0  0  0  0
  -11.3311    4.7142  -22.8951 H   0  0  0  0  0  0  0  0  0  0  0  0
  -12.3527    6.9989  -24.6896 H   0  0  0  0  0  0  0  0  0  0  0  0
  -12.8634    6.6565  -22.9257 H   0  0  0  0  0  0  0  0  0  0  0  0
  1  2  2  0
  2  3  1  0
  3  4  2  0
  3  5  1  0
  5  6  1  0
  6  7  1  0
  7  8  1  0
  8  9  1  0
  9 10  2  0
 10 11  1  0
 11 12  2  0
 12 13  1  0
 13 14  2  0
 14 15  1  0
 15 16  1  0
 16 17  1  0
 17 18  2  0
 18 19  1  0
 19 20  2  0
 20 21  1  0
 21 22  1  0
 21 23  2  0
 23 24  1  0
 20 25  1  0
 19 26  1  0
 18 27  1  0
 16 28  1  0
 16 29  1  0
 15 30  1  0
 30 31  2  0
 30 32  1  0
 32 33  1  0
 33 34  2  0
 34 35  1  0
 35 36  2  0
 36 37  1  0
 37 38  2  0
 38 39  1  0
 39 40  2  0
 40 41  1  0
 41 42  2  0
 41 43  1  0
 40 44  1  0
 39 45  1  0
 38 46  1  0
 36 47  1  0
 34 48  1  0
 32 49  1  0
 32 50  1  0
 15 51  1  1
 13 52  1  0
 12 53  1  0
 11 54  1  0
  8 55  1  0
  8 56  1  0
  7 57  1  0
  7 58  1  0
  6 59  1  0
  6 60  1  0
  2 61  1  0
  1 62  1  0
  1 63  1  0
 10  5  1  0
 23 17  1  0
 42 33  1  0
 14  9  1  0
 42 37  1  0
M  CHG  1  15   1
M  END
>  <cnnaffinities>  (67) 
[6.67664]

>  <score>  (67) 
6.67664

>  <index>  (67) 
69

>  <Smiles>  (67) 
C(=C(C(=O)N1C(C(C(c2c1c(c(c(c2[N@@+](C(c1c(c(c(c(Cl)c1[H])[H])[H])[H])([H])[H])(C(=O)C(c1c(nc(c2c(c(c(c(c12)[H])[H])[H])[H])[H])[H])([H])[H])[H])[H])[H])[H])([H])[H])([H])[H])([H])[H])[H])([H])[H]

>  <h>  (67) 
<NA>

>  <Training>  (67) 
True

>  <Success>  (67) 
True

>  <enamine_searched>  (67) 
False

>  <enamine_id>  (67) 
nan

$$$$

     RDKit          3D

 52 54  0  0  0  0  0  0  0  0999 V2000
   -2.5805   -3.2095  -25.4057 C   0  0  0  0  0  0  0  0  0  0  0  0
   -3.8621   -2.6973  -24.7391 C   0  0  0  0  0  0  0  0  0  0  0  0
   -4.4567   -1.5478  -25.5543 C   0  0  0  0  0  0  0  0  0  0  0  0
   -4.7654   -1.8869  -26.5494 H   0  0  0  0  0  0  0  0  0  0  0  0
   -3.7290   -0.7393  -25.6836 H   0  0  0  0  0  0  0  0  0  0  0  0
   -5.3357   -1.1267  -25.0517 H   0  0  0  0  0  0  0  0  0  0  0  0
   -4.9389   -3.7661  -24.5097 C   0  0  0  0  0  0  0  0  0  0  0  0
   -4.6946   -4.8879  -23.4700 C   0  0  0  0  0  0  0  0  0  0  0  0
   -3.6950   -5.9238  -23.9925 C   0  0  0  0  0  0  0  0  0  0  0  0
   -3.9906   -6.3063  -24.9768 H   0  0  0  0  0  0  0  0  0  0  0  0
   -3.6377   -6.7729  -23.3025 H   0  0  0  0  0  0  0  0  0  0  0  0
   -2.6829   -5.5227  -24.0766 H   0  0  0  0  0  0  0  0  0  0  0  0
   -4.1965   -4.3642  -22.1162 C   0  0  0  0  0  0  0  0  0  0  0  0
   -5.1201   -3.3175  -21.5072 C   0  0  0  0  0  0  0  0  0  0  0  0
   -6.5142   -3.7421  -21.6272 N   0  0  0  0  0  0  0  0  0  0  0  0
   -7.6139   -2.9553  -21.4323 C   0  0  0  0  0  0  0  0  0  0  0  0
   -8.7525   -3.4108  -21.4492 O   0  0  0  0  0  0  0  0  0  0  0  0
   -7.3920   -1.4461  -21.3020 C   0  0  0  0  0  0  0  0  0  0  0  0
   -6.4474   -0.9914  -20.2166 C   0  0  0  0  0  0  0  0  0  0  0  0
   -6.7131   -1.2777  -18.9004 C   0  0  0  0  0  0  0  0  0  0  0  0
   -5.9010   -0.9744  -17.8624 N   0  0  0  0  0  0  0  0  0  0  0  0
   -4.7849   -0.3390  -18.1412 C   0  0  0  0  0  0  0  0  0  0  0  0
   -4.4024    0.0735  -19.4448 C   0  0  0  0  0  0  0  0  0  0  0  0
   -3.2346    0.8362  -19.7005 C   0  0  0  0  0  0  0  0  0  0  0  0
   -2.9943    1.3754  -20.9386 C   0  0  0  0  0  0  0  0  0  0  0  0
   -3.8591    1.0631  -22.0011 C   0  0  0  0  0  0  0  0  0  0  0  0
   -4.9489    0.2490  -21.8061 C   0  0  0  0  0  0  0  0  0  0  0  0
   -5.2745   -0.2404  -20.5173 C   0  0  0  0  0  0  0  0  0  0  0  0
   -5.5974    0.0276  -22.6496 H   0  0  0  0  0  0  0  0  0  0  0  0
   -3.6681    1.4579  -22.9927 H   0  0  0  0  0  0  0  0  0  0  0  0
   -2.1626    2.0562  -21.1081 H   0  0  0  0  0  0  0  0  0  0  0  0
   -2.5887    1.0869  -18.8631 H   0  0  0  0  0  0  0  0  0  0  0  0
   -4.1315   -0.0910  -17.3024 H   0  0  0  0  0  0  0  0  0  0  0  0
   -7.6505   -1.7644  -18.6378 H   0  0  0  0  0  0  0  0  0  0  0  0
   -8.3808   -1.0033  -21.1667 H   0  0  0  0  0  0  0  0  0  0  0  0
   -7.0658   -1.0926  -22.2839 H   0  0  0  0  0  0  0  0  0  0  0  0
   -6.7173   -5.1571  -21.8917 C   0  0  0  0  0  0  0  0  0  0  0  0
   -6.0437   -5.6117  -23.1875 C   0  0  0  0  0  0  0  0  0  0  0  0
   -6.7303   -5.4824  -24.0329 H   0  0  0  0  0  0  0  0  0  0  0  0
   -5.8717   -6.6902  -23.0976 H   0  0  0  0  0  0  0  0  0  0  0  0
   -6.3303   -5.7452  -21.0503 H   0  0  0  0  0  0  0  0  0  0  0  0
   -7.7925   -5.3137  -21.9177 H   0  0  0  0  0  0  0  0  0  0  0  0
   -4.8525   -3.1536  -20.4571 H   0  0  0  0  0  0  0  0  0  0  0  0
   -4.9766   -2.3777  -22.0370 H   0  0  0  0  0  0  0  0  0  0  0  0
   -4.1645   -5.2252  -21.4435 H   0  0  0  0  0  0  0  0  0  0  0  0
   -3.1721   -3.9753  -22.1753 H   0  0  0  0  0  0  0  0  0  0  0  0
   -5.8671   -3.2451  -24.2436 H   0  0  0  0  0  0  0  0  0  0  0  0
   -5.1682   -4.2416  -25.4744 H   0  0  0  0  0  0  0  0  0  0  0  0
   -3.6020   -2.2754  -23.7654 H   0  0  0  0  0  0  0  0  0  0  0  0
   -2.0302   -2.3861  -25.8737 H   0  0  0  0  0  0  0  0  0  0  0  0
   -1.8943   -3.6831  -24.6984 H   0  0  0  0  0  0  0  0  0  0  0  0
   -2.8121   -3.9364  -26.1922 H   0  0  0  0  0  0  0  0  0  0  0  0
  1  2  1  0
  2  3  1  0
  3  4  1  0
  3  5  1  0
  3  6  1  0
  2  7  1  0
  7  8  1  0
  8  9  1  0
  9 10  1  0
  9 11  1  0
  9 12  1  0
  8 13  1  0
 13 14  1  0
 14 15  1  0
 15 16  1  0
 16 17  2  0
 16 18  1  0
 18 19  1  0
 19 20  2  0
 20 21  1  0
 21 22  2  0
 22 23  1  0
 23 24  2  0
 24 25  1  0
 25 26  2  0
 26 27  1  0
 27 28  2  0
 27 29  1  0
 26 30  1  0
 25 31  1  0
 24 32  1  0
 22 33  1  0
 20 34  1  0
 18 35  1  0
 18 36  1  0
 15 37  1  0
 37 38  1  0
 38 39  1  0
 38 40  1  0
 37 41  1  0
 37 42  1  0
 14 43  1  0
 14 44  1  0
 13 45  1  0
 13 46  1  0
  7 47  1  0
  7 48  1  0
  2 49  1  0
  1 50  1  0
  1 51  1  0
  1 52  1  0
 38  8  1  0
 28 19  1  0
 28 23  1  0
M  END
>  <cnnaffinities>  (68) 
[5.48832, 5.52022, 5.51581, 5.11739, 5.11731, 5.11733, 5.29289, 5.10217, 5.13404, 5.06729, 5.06733, 5.10334, 5.10544]

>  <score>  (68) 
5.48832

>  <index>  (68) 
70

>  <Smiles>  (68) 
C(C(C([H])([H])[H])(C(C1(C([H])([H])[H])C(C(N(C(=O)C(c2c(nc(c3c(c(c(c(c23)[H])[H])[H])[H])[H])[H])([H])[H])C(C1([H])[H])([H])[H])([H])[H])([H])[H])([H])[H])[H])([H])([H])[H]

>  <h>  (68) 
<NA>

>  <Training>  (68) 
True

>  <Success>  (68) 
True

>  <enamine_searched>  (68) 
False

>  <enamine_id>  (68) 
nan

$$$$

     RDKit          3D

 50 54  0  0  0  0  0  0  0  0999 V2000
  -10.2058   -2.9561  -22.0735 C   0  0  0  0  0  0  0  0  0  0  0  0
   -9.1554   -1.9969  -22.6491 C   0  0  1  0  0  0  0  0  0  0  0  0
   -8.6566   -1.0205  -21.5578 C   0  0  0  0  0  0  0  0  0  0  0  0
   -7.3315   -1.4907  -21.2369 N   0  0  0  0  0  0  0  0  0  0  0  0
   -6.4991   -0.9973  -20.2082 C   0  0  0  0  0  0  0  0  0  0  0  0
   -6.7564   -1.2881  -18.8946 C   0  0  0  0  0  0  0  0  0  0  0  0
   -5.8934   -1.0267  -17.8845 N   0  0  0  0  0  0  0  0  0  0  0  0
   -4.7694   -0.4238  -18.1852 C   0  0  0  0  0  0  0  0  0  0  0  0
   -4.4297    0.0112  -19.4944 C   0  0  0  0  0  0  0  0  0  0  0  0
   -3.2514    0.7586  -19.7511 C   0  0  0  0  0  0  0  0  0  0  0  0
   -3.0200    1.2925  -20.9889 C   0  0  0  0  0  0  0  0  0  0  0  0
   -3.9271    1.0435  -22.0480 C   0  0  0  0  0  0  0  0  0  0  0  0
   -5.0370    0.2603  -21.8476 C   0  0  0  0  0  0  0  0  0  0  0  0
   -5.3288   -0.2493  -20.5440 C   0  0  0  0  0  0  0  0  0  0  0  0
   -5.6962    0.0125  -22.6819 H   0  0  0  0  0  0  0  0  0  0  0  0
   -3.7395    1.4802  -23.0245 H   0  0  0  0  0  0  0  0  0  0  0  0
   -2.1671    1.9369  -21.1567 H   0  0  0  0  0  0  0  0  0  0  0  0
   -2.5817    0.9593  -18.9152 H   0  0  0  0  0  0  0  0  0  0  0  0
   -4.0694   -0.2363  -17.3723 H   0  0  0  0  0  0  0  0  0  0  0  0
   -7.6785   -1.7986  -18.6209 H   0  0  0  0  0  0  0  0  0  0  0  0
   -6.8466   -2.4619  -22.0746 C   0  0  0  0  0  0  0  0  0  0  0  0
   -5.7752   -3.0179  -21.9234 O   0  0  0  0  0  0  0  0  0  0  0  0
   -7.8691   -2.6854  -23.2004 C   0  0  1  0  0  0  0  0  0  0  0  0
   -8.0185   -4.2053  -23.4292 C   0  0  0  0  0  0  0  0  0  0  0  0
   -6.8115   -4.7544  -24.0149 N   0  0  0  0  0  0  0  0  0  0  0  0
   -6.2814   -6.0169  -23.5323 C   0  0  0  0  0  0  0  0  0  0  0  0
   -6.6912   -7.4530  -24.1220 C   0  0  0  0  0  0  0  0  0  0  0  0
   -6.6582   -7.3575  -24.1997 N   0  0  0  0  0  0  0  0  0  0  0  0
   -6.5537   -6.1657  -22.4900 H   0  0  0  0  0  0  0  0  0  0  0  0
   -5.1996   -5.9815  -23.5922 H   0  0  0  0  0  0  0  0  0  0  0  0
   -6.2324   -4.1962  -25.1326 C   0  0  0  0  0  0  0  0  0  0  0  0
   -5.4484   -4.8307  -25.8237 O   0  0  0  0  0  0  0  0  0  0  0  0
   -6.6075   -2.7755  -25.4117 C   0  0  0  0  0  0  0  0  0  0  0  0
   -6.1341   -2.1979  -26.5897 C   0  0  0  0  0  0  0  0  0  0  0  0
   -6.3747   -0.8682  -26.8666 C   0  0  0  0  0  0  0  0  0  0  0  0
   -7.0749   -0.1226  -25.9243 C   0  0  0  0  0  0  0  0  0  0  0  0
   -7.3009    1.1806  -26.1804 F   0  0  0  0  0  0  0  0  0  0  0  0
   -7.5469   -0.6696  -24.7436 C   0  0  0  0  0  0  0  0  0  0  0  0
   -7.3486   -2.0347  -24.4841 C   0  0  0  0  0  0  0  0  0  0  0  0
   -8.0819   -0.0165  -24.0616 H   0  0  0  0  0  0  0  0  0  0  0  0
   -6.0355   -0.4018  -27.7843 H   0  0  0  0  0  0  0  0  0  0  0  0
   -5.5806   -2.8253  -27.2800 H   0  0  0  0  0  0  0  0  0  0  0  0
   -8.8984   -4.3804  -24.0732 H   0  0  0  0  0  0  0  0  0  0  0  0
   -8.1785   -4.7096  -22.4677 H   0  0  0  0  0  0  0  0  0  0  0  0
   -9.2907   -1.0607  -20.6758 H   0  0  0  0  0  0  0  0  0  0  0  0
   -8.6461    0.0226  -21.9002 H   0  0  0  0  0  0  0  0  0  0  0  0
   -9.6430   -1.4490  -23.4632 H   0  0  0  0  0  0  0  0  0  0  0  0
  -10.5759   -3.6450  -22.8372 H   0  0  0  0  0  0  0  0  0  0  0  0
   -9.7987   -3.5474  -21.2457 H   0  0  0  0  0  0  0  0  0  0  0  0
  -11.0654   -2.3938  -21.6942 H   0  0  0  0  0  0  0  0  0  0  0  0
  1  2  1  0
  2  3  1  0
  3  4  1  0
  4  5  1  0
  5  6  2  0
  6  7  1  0
  7  8  2  0
  8  9  1  0
  9 10  2  0
 10 11  1  0
 11 12  2  0
 12 13  1  0
 13 14  2  0
 13 15  1  0
 12 16  1  0
 11 17  1  0
 10 18  1  0
  8 19  1  0
  6 20  1  0
  4 21  1  0
 21 22  2  0
 21 23  1  0
 23 24  1  6
 24 25  1  0
 25 26  1  0
 26 27  1  0
 27 28  3  0
 26 29  1  0
 26 30  1  0
 25 31  1  0
 31 32  2  0
 31 33  1  0
 33 34  2  0
 34 35  1  0
 35 36  2  0
 36 37  1  0
 36 38  1  0
 38 39  2  0
 38 40  1  0
 35 41  1  0
 34 42  1  0
 24 43  1  0
 24 44  1  0
  3 45  1  0
  3 46  1  0
  2 47  1  6
  1 48  1  0
  1 49  1  0
  1 50  1  0
 23  2  1  0
 39 33  1  0
 14  5  1  0
 39 23  1  0
 14  9  1  0
M  END
>  <cnnaffinities>  (69) 
[6.23264]

>  <score>  (69) 
6.23264

>  <index>  (69) 
71

>  <Smiles>  (69) 
C([C@]1(C(N(c2c(nc(c3c(c(c(c(c23)[H])[H])[H])[H])[H])[H])C(=O)[C@]21C(N(C(C#N)([H])[H])C(=O)c1c(c(c(F)c(c21)[H])[H])[H])([H])[H])([H])[H])[H])([H])([H])[H]

>  <h>  (69) 
<NA>

>  <Training>  (69) 
True

>  <Success>  (69) 
True

>  <enamine_searched>  (69) 
False

>  <enamine_id>  (69) 
nan

$$$$

     RDKit          3D

 41 44  0  0  0  0  0  0  0  0999 V2000
   -5.5838   -3.1358  -21.5075 O   0  0  0  0  0  0  0  0  0  0  0  0
   -6.6233   -2.6692  -21.9516 C   0  0  0  0  0  0  0  0  0  0  0  0
   -7.3500   -1.5011  -21.2650 C   0  0  0  0  0  0  0  0  0  0  0  0
   -6.4891   -0.9766  -20.1759 C   0  0  0  0  0  0  0  0  0  0  0  0
   -6.7263   -1.2940  -18.8678 C   0  0  0  0  0  0  0  0  0  0  0  0
   -5.8640   -1.0568  -17.8488 N   0  0  0  0  0  0  0  0  0  0  0  0
   -4.7335   -0.4619  -18.1541 C   0  0  0  0  0  0  0  0  0  0  0  0
   -4.3977   -0.0101  -19.4600 C   0  0  0  0  0  0  0  0  0  0  0  0
   -3.2293    0.7396  -19.7208 C   0  0  0  0  0  0  0  0  0  0  0  0
   -2.9997    1.2602  -20.9677 C   0  0  0  0  0  0  0  0  0  0  0  0
   -3.8859    0.9691  -22.0315 C   0  0  0  0  0  0  0  0  0  0  0  0
   -4.9975    0.1945  -21.8137 C   0  0  0  0  0  0  0  0  0  0  0  0
   -5.2996   -0.2749  -20.5091 C   0  0  0  0  0  0  0  0  0  0  0  0
   -5.6373   -0.0794  -22.6481 H   0  0  0  0  0  0  0  0  0  0  0  0
   -3.7048    1.3921  -23.0136 H   0  0  0  0  0  0  0  0  0  0  0  0
   -2.1544    1.9185  -21.1413 H   0  0  0  0  0  0  0  0  0  0  0  0
   -2.5624    0.9360  -18.8870 H   0  0  0  0  0  0  0  0  0  0  0  0
   -4.0154   -0.2904  -17.3518 H   0  0  0  0  0  0  0  0  0  0  0  0
   -7.6496   -1.8173  -18.6135 H   0  0  0  0  0  0  0  0  0  0  0  0
   -7.5534   -0.7075  -21.9946 H   0  0  0  0  0  0  0  0  0  0  0  0
   -8.3111   -1.8613  -20.8693 H   0  0  0  0  0  0  0  0  0  0  0  0
   -7.1758   -3.1422  -23.1134 N   0  0  0  0  0  0  0  0  0  0  0  0
   -8.5840   -2.9469  -23.4432 C   0  0  0  0  0  0  0  0  0  0  0  0
   -9.4943   -3.9905  -22.7979 C   0  0  0  0  0  0  0  0  0  0  0  0
   -9.1915   -5.3938  -23.3492 C   0  0  0  0  0  0  0  0  0  0  0  0
   -7.9574   -6.0409  -22.7712 C   0  0  0  0  0  0  0  0  0  0  0  0
   -7.9440   -7.5499  -21.9182 S   0  0  0  0  0  0  0  0  0  0  0  0
   -6.2229   -7.5338  -21.7978 C   0  0  0  0  0  0  0  0  0  0  0  0
   -5.6915   -6.4306  -22.3892 C   0  0  0  0  0  0  0  0  0  0  0  0
   -6.6894   -5.5715  -22.9489 C   0  0  0  0  0  0  0  0  0  0  0  0
   -6.4704   -4.2788  -23.7044 C   0  0  0  0  0  0  0  0  0  0  0  0
   -5.4100   -4.0194  -23.7467 H   0  0  0  0  0  0  0  0  0  0  0  0
   -6.8216   -4.3837  -24.7366 H   0  0  0  0  0  0  0  0  0  0  0  0
   -4.6258   -6.2261  -22.4322 H   0  0  0  0  0  0  0  0  0  0  0  0
   -5.6692   -8.3381  -21.3313 H   0  0  0  0  0  0  0  0  0  0  0  0
   -9.0261   -5.2957  -24.4313 H   0  0  0  0  0  0  0  0  0  0  0  0
  -10.0480   -6.0497  -23.2682 H   0  0  0  0  0  0  0  0  0  0  0  0
  -10.5387   -3.7265  -22.9965 H   0  0  0  0  0  0  0  0  0  0  0  0
   -9.3757   -3.9591  -21.7063 H   0  0  0  0  0  0  0  0  0  0  0  0
   -8.6825   -2.9975  -24.5376 H   0  0  0  0  0  0  0  0  0  0  0  0
   -8.8886   -1.9401  -23.1429 H   0  0  0  0  0  0  0  0  0  0  0  0
  1  2  2  0
  2  3  1  0
  3  4  1  0
  4  5  2  0
  5  6  1  0
  6  7  2  0
  7  8  1  0
  8  9  2  0
  9 10  1  0
 10 11  2  0
 11 12  1  0
 12 13  2  0
 12 14  1  0
 11 15  1  0
 10 16  1  0
  9 17  1  0
  7 18  1  0
  5 19  1  0
  3 20  1  0
  3 21  1  0
  2 22  1  0
 22 23  1  0
 23 24  1  0
 24 25  1  0
 25 26  1  0
 26 27  1  0
 27 28  1  0
 28 29  2  0
 29 30  1  0
 30 31  1  0
 31 32  1  0
 31 33  1  0
 29 34  1  0
 28 35  1  0
 25 36  1  0
 25 37  1  0
 24 38  1  0
 24 39  1  0
 23 40  1  0
 23 41  1  0
 13  4  1  0
 31 22  1  0
 13  8  1  0
 30 26  2  0
M  END
>  <cnnaffinities>  (70) 
[5.65259, 5.66733, 5.75042, 5.59184, 5.69679]

>  <score>  (70) 
5.65259

>  <index>  (70) 
72

>  <Smiles>  (70) 
O=C(C(c1c(nc(c2c(c(c(c(c12)[H])[H])[H])[H])[H])[H])([H])[H])N1C(C(C(c2sc(c(c2C1([H])[H])[H])[H])([H])[H])([H])[H])([H])[H]

>  <h>  (70) 
<NA>

>  <Training>  (70) 
True

>  <Success>  (70) 
True

>  <enamine_searched>  (70) 
False

>  <enamine_id>  (70) 
nan

$$$$

     RDKit          3D

 50 53  0  0  0  0  0  0  0  0999 V2000
   -5.6146   -3.0855  -21.5677 O   0  0  0  0  0  0  0  0  0  0  0  0
   -6.7619   -2.7892  -21.8704 C   0  0  0  0  0  0  0  0  0  0  0  0
   -7.4008   -1.5160  -21.2977 C   0  0  0  0  0  0  0  0  0  0  0  0
   -6.4997   -0.9934  -20.2210 C   0  0  0  0  0  0  0  0  0  0  0  0
   -6.7558   -1.2718  -18.9068 C   0  0  0  0  0  0  0  0  0  0  0  0
   -5.9360   -0.9843  -17.8662 N   0  0  0  0  0  0  0  0  0  0  0  0
   -4.8264   -0.3443  -18.1446 C   0  0  0  0  0  0  0  0  0  0  0  0
   -4.4444    0.0463  -19.4578 C   0  0  0  0  0  0  0  0  0  0  0  0
   -3.2926    0.8378  -19.7057 C   0  0  0  0  0  0  0  0  0  0  0  0
   -3.0505    1.3429  -20.9565 C   0  0  0  0  0  0  0  0  0  0  0  0
   -3.8878    0.9800  -22.0356 C   0  0  0  0  0  0  0  0  0  0  0  0
   -4.9648    0.1551  -21.8392 C   0  0  0  0  0  0  0  0  0  0  0  0
   -5.3047   -0.2883  -20.5322 C   0  0  0  0  0  0  0  0  0  0  0  0
   -5.6272   -0.0782  -22.6675 H   0  0  0  0  0  0  0  0  0  0  0  0
   -3.6940    1.3826  -23.0268 H   0  0  0  0  0  0  0  0  0  0  0  0
   -2.2640    2.0735  -21.1135 H   0  0  0  0  0  0  0  0  0  0  0  0
   -2.6551    1.1033  -18.8656 H   0  0  0  0  0  0  0  0  0  0  0  0
   -4.1929   -0.0782  -17.2984 H   0  0  0  0  0  0  0  0  0  0  0  0
   -7.7094   -1.7197  -18.6337 H   0  0  0  0  0  0  0  0  0  0  0  0
   -7.5844   -0.7844  -22.0967 H   0  0  0  0  0  0  0  0  0  0  0  0
   -8.3830   -1.7646  -20.8765 H   0  0  0  0  0  0  0  0  0  0  0  0
   -7.5251   -3.5942  -22.6684 N   0  0  0  0  0  0  0  0  0  0  0  0
   -8.6672   -3.1134  -23.4411 C   0  0  0  0  0  0  0  0  0  0  0  0
   -9.7446   -4.1858  -23.5504 C   0  0  0  0  0  0  0  0  0  0  0  0
   -9.1500   -5.4833  -24.0988 C   0  0  0  0  0  0  0  0  0  0  0  0
   -7.9764   -5.9294  -23.2228 C   0  0  0  0  0  0  0  0  0  0  0  0
   -6.9042   -4.8530  -23.0897 C   0  0  1  0  0  0  0  0  0  0  0  0
   -6.0451   -4.6926  -24.3655 C   0  0  0  0  0  0  0  0  0  0  0  0
   -5.2095   -5.9188  -24.6838 C   0  0  0  0  0  0  0  0  0  0  0  0
   -4.0531   -6.1873  -23.9430 C   0  0  0  0  0  0  0  0  0  0  0  0
   -3.2815   -7.3156  -24.2017 C   0  0  0  0  0  0  0  0  0  0  0  0
   -3.6472   -8.1975  -25.2149 C   0  0  0  0  0  0  0  0  0  0  0  0
   -4.7854   -7.9368  -25.9698 C   0  0  0  0  0  0  0  0  0  0  0  0
   -5.5698   -6.8188  -25.6915 C   0  0  0  0  0  0  0  0  0  0  0  0
   -6.4799   -6.6464  -26.2666 H   0  0  0  0  0  0  0  0  0  0  0  0
   -5.0526   -8.6038  -26.7859 H   0  0  0  0  0  0  0  0  0  0  0  0
   -3.0497   -9.0831  -25.4178 H   0  0  0  0  0  0  0  0  0  0  0  0
   -2.3834   -7.5048  -23.6181 H   0  0  0  0  0  0  0  0  0  0  0  0
   -3.7502   -5.4926  -23.1595 H   0  0  0  0  0  0  0  0  0  0  0  0
   -6.6921   -4.4455  -25.2177 H   0  0  0  0  0  0  0  0  0  0  0  0
   -5.3930   -3.8274  -24.2040 H   0  0  0  0  0  0  0  0  0  0  0  0
   -6.2295   -5.1222  -22.2700 H   0  0  0  0  0  0  0  0  0  0  0  0
   -8.3475   -6.1535  -22.2160 H   0  0  0  0  0  0  0  0  0  0  0  0
   -7.4999   -6.8367  -23.6137 H   0  0  0  0  0  0  0  0  0  0  0  0
   -9.9115   -6.2684  -24.1321 H   0  0  0  0  0  0  0  0  0  0  0  0
   -8.8158   -5.3440  -25.1377 H   0  0  0  0  0  0  0  0  0  0  0  0
  -10.1687   -4.3802  -22.5575 H   0  0  0  0  0  0  0  0  0  0  0  0
  -10.5595   -3.8097  -24.1821 H   0  0  0  0  0  0  0  0  0  0  0  0
   -9.0678   -2.2165  -22.9607 H   0  0  0  0  0  0  0  0  0  0  0  0
   -8.3390   -2.8211  -24.4518 H   0  0  0  0  0  0  0  0  0  0  0  0
  1  2  2  0
  2  3  1  0
  3  4  1  0
  4  5  2  0
  5  6  1  0
  6  7  2  0
  7  8  1  0
  8  9  2  0
  9 10  1  0
 10 11  2  0
 11 12  1  0
 12 13  2  0
 12 14  1  0
 11 15  1  0
 10 16  1  0
  9 17  1  0
  7 18  1  0
  5 19  1  0
  3 20  1  0
  3 21  1  0
  2 22  1  0
 22 23  1  0
 23 24  1  0
 24 25  1  0
 25 26  1  0
 26 27  1  0
 27 28  1  0
 28 29  1  0
 29 30  2  0
 30 31  1  0
 31 32  2  0
 32 33  1  0
 33 34  2  0
 34 35  1  0
 33 36  1  0
 32 37  1  0
 31 38  1  0
 30 39  1  0
 28 40  1  0
 28 41  1  0
 27 42  1  1
 26 43  1  0
 26 44  1  0
 25 45  1  0
 25 46  1  0
 24 47  1  0
 24 48  1  0
 23 49  1  0
 23 50  1  0
 13  4  1  0
 27 22  1  0
 34 29  1  0
 13  8  1  0
M  END
>  <cnnaffinities>  (71) 
[5.95969, 5.75489, 5.83608]

>  <score>  (71) 
5.95969

>  <index>  (71) 
73

>  <Smiles>  (71) 
O=C(C(c1c(nc(c2c(c(c(c(c12)[H])[H])[H])[H])[H])[H])([H])[H])N1C(C(C(C([C@]1(C(c1c(c(c(c(c1[H])[H])[H])[H])[H])([H])[H])[H])([H])[H])([H])[H])([H])[H])([H])[H]

>  <h>  (71) 
<NA>

>  <Training>  (71) 
True

>  <Success>  (71) 
True

>  <enamine_searched>  (71) 
False

>  <enamine_id>  (71) 
nan

$$$$

     RDKit          3D

 43 47  0  0  0  0  0  0  0  0999 V2000
   -5.6026   -3.2115  -21.8903 O   0  0  0  0  0  0  0  0  0  0  0  0
   -6.6571   -2.6331  -21.9953 C   0  0  0  0  0  0  0  0  0  0  0  0
   -7.6142   -2.7653  -22.9710 N   0  0  0  0  0  0  0  0  0  0  0  0
   -8.6457   -1.7546  -22.8728 C   0  0  1  0  0  0  0  0  0  0  0  0
   -8.7956   -0.7867  -24.0703 C   0  0  0  0  0  0  0  0  0  0  0  0
  -10.1821   -1.4068  -24.3702 C   0  0  2  0  0  0  0  0  0  0  0  0
  -11.3317   -0.4615  -24.3707 C   0  0  0  0  0  0  0  0  0  0  0  0
  -11.4687    0.4570  -23.3290 C   0  0  0  0  0  0  0  0  0  0  0  0
  -12.6594    1.1476  -23.1427 C   0  0  0  0  0  0  0  0  0  0  0  0
  -13.7516    0.8983  -23.9640 C   0  0  0  0  0  0  0  0  0  0  0  0
  -13.6160    0.0113  -25.0274 C   0  0  0  0  0  0  0  0  0  0  0  0
  -12.3831   -0.5753  -25.2659 C   0  0  0  0  0  0  0  0  0  0  0  0
  -12.1624   -1.4782  -26.7370 Cl  0  0  0  0  0  0  0  0  0  0  0  0
  -14.4201   -0.3109  -25.6643 H   0  0  0  0  0  0  0  0  0  0  0  0
  -14.6855    1.4074  -23.7495 H   0  0  0  0  0  0  0  0  0  0  0  0
  -12.7760    1.8453  -22.3191 H   0  0  0  0  0  0  0  0  0  0  0  0
  -10.6502    0.6082  -22.6255 H   0  0  0  0  0  0  0  0  0  0  0  0
  -10.0873   -2.2472  -23.0599 C   0  0  0  0  0  0  0  0  0  0  0  0
  -10.7437   -1.8925  -22.2608 H   0  0  0  0  0  0  0  0  0  0  0  0
  -10.1796   -3.3325  -23.1232 H   0  0  0  0  0  0  0  0  0  0  0  0
  -10.1722   -2.0270  -25.2600 H   0  0  0  0  0  0  0  0  0  0  0  0
   -8.8425    0.2573  -23.7534 H   0  0  0  0  0  0  0  0  0  0  0  0
   -8.0119   -0.8778  -24.8270 H   0  0  0  0  0  0  0  0  0  0  0  0
   -8.3437   -1.0885  -21.5447 C   0  0  0  0  0  0  0  0  0  0  0  0
   -8.9750   -0.2268  -20.9817 O   0  0  0  0  0  0  0  0  0  0  0  0
   -7.1482   -1.6526  -21.1109 N   0  0  0  0  0  0  0  0  0  0  0  0
   -6.3170   -1.0923  -20.1084 C   0  0  0  0  0  0  0  0  0  0  0  0
   -6.5643   -1.3890  -18.7928 C   0  0  0  0  0  0  0  0  0  0  0  0
   -5.6570   -1.1769  -17.8118 N   0  0  0  0  0  0  0  0  0  0  0  0
   -4.5368   -0.5794  -18.1367 C   0  0  0  0  0  0  0  0  0  0  0  0
   -4.2401   -0.0766  -19.4379 C   0  0  0  0  0  0  0  0  0  0  0  0
   -3.0526    0.6414  -19.7276 C   0  0  0  0  0  0  0  0  0  0  0  0
   -2.8318    1.1644  -20.9688 C   0  0  0  0  0  0  0  0  0  0  0  0
   -3.7997    1.0095  -21.9822 C   0  0  0  0  0  0  0  0  0  0  0  0
   -4.9447    0.2895  -21.7454 C   0  0  0  0  0  0  0  0  0  0  0  0
   -5.1813   -0.2932  -20.4628 C   0  0  0  0  0  0  0  0  0  0  0  0
   -5.6655    0.1568  -22.5471 H   0  0  0  0  0  0  0  0  0  0  0  0
   -3.6386    1.4771  -22.9480 H   0  0  0  0  0  0  0  0  0  0  0  0
   -1.9100    1.6973  -21.1797 H   0  0  0  0  0  0  0  0  0  0  0  0
   -2.3388    0.7850  -18.9308 H   0  0  0  0  0  0  0  0  0  0  0  0
   -3.7930   -0.4743  -17.3467 H   0  0  0  0  0  0  0  0  0  0  0  0
   -7.5052   -1.8458  -18.4862 H   0  0  0  0  0  0  0  0  0  0  0  0
   -7.3408   -3.1538  -23.8619 H   0  0  0  0  0  0  0  0  0  0  0  0
  1  2  2  0
  2  3  1  0
  4  3  1  6
  4  5  1  0
  5  6  1  0
  6  7  1  0
  7  8  2  0
  8  9  1  0
  9 10  2  0
 10 11  1  0
 11 12  2  0
 12 13  1  0
 11 14  1  0
 10 15  1  0
  9 16  1  0
  8 17  1  0
  6 18  1  0
 18 19  1  0
 18 20  1  0
  6 21  1  6
  5 22  1  0
  5 23  1  0
  4 24  1  0
 24 25  2  0
 24 26  1  0
 26 27  1  0
 27 28  2  0
 28 29  1  0
 29 30  2  0
 30 31  1  0
 31 32  2  0
 32 33  1  0
 33 34  2  0
 34 35  1  0
 35 36  2  0
 35 37  1  0
 34 38  1  0
 33 39  1  0
 32 40  1  0
 30 41  1  0
 28 42  1  0
  3 43  1  0
 26  2  1  0
 36 27  1  0
 18  4  1  0
 36 31  1  0
 12  7  1  0
M  END
>  <cnnaffinities>  (72) 
[5.85971]

>  <score>  (72) 
5.85971

>  <index>  (72) 
74

>  <Smiles>  (72) 
O=C1N([C@]2(C([C@](c3c(c(c(c(c3Cl)[H])[H])[H])[H])(C2([H])[H])[H])([H])[H])C(=O)N1c1c(nc(c2c(c(c(c(c12)[H])[H])[H])[H])[H])[H])[H]

>  <h>  (72) 
<NA>

>  <Training>  (72) 
True

>  <Success>  (72) 
True

>  <enamine_searched>  (72) 
False

>  <enamine_id>  (72) 
nan

$$$$

     RDKit          3D

 66 71  0  0  0  0  0  0  0  0999 V2000
   -7.1394    3.3345  -21.9352 C   0  0  0  0  0  0  0  0  0  0  0  0
   -8.0750    2.8248  -22.9176 N   0  0  0  0  0  0  0  0  0  0  0  0
   -7.6255    2.2765  -24.0732 C   0  0  0  0  0  0  0  0  0  0  0  0
   -6.4422    2.2130  -24.3766 O   0  0  0  0  0  0  0  0  0  0  0  0
   -8.7447    1.7138  -24.9552 C   0  0  0  0  0  0  0  0  0  0  0  0
   -9.4749    0.6971  -24.2151 N   0  0  0  0  0  0  0  0  0  0  0  0
   -8.7557   -0.5514  -24.0388 C   0  0  0  0  0  0  0  0  0  0  0  0
   -9.1686   -1.3214  -22.7654 C   0  0  2  0  0  0  0  0  0  0  0  0
   -8.5864   -0.6246  -21.5058 C   0  0  0  0  0  0  0  0  0  0  0  0
   -9.0067    0.3770  -20.9647 O   0  0  0  0  0  0  0  0  0  0  0  0
   -7.4711   -1.3256  -21.1052 N   0  0  0  0  0  0  0  0  0  0  0  0
   -6.5398   -0.9057  -20.1211 C   0  0  0  0  0  0  0  0  0  0  0  0
   -6.6752   -1.3425  -18.8267 C   0  0  0  0  0  0  0  0  0  0  0  0
   -5.7693   -1.1086  -17.8467 N   0  0  0  0  0  0  0  0  0  0  0  0
   -4.6823   -0.4527  -18.1654 C   0  0  0  0  0  0  0  0  0  0  0  0
   -4.3941    0.0245  -19.4765 C   0  0  0  0  0  0  0  0  0  0  0  0
   -3.1795    0.6909  -19.7862 C   0  0  0  0  0  0  0  0  0  0  0  0
   -2.9486    1.1600  -21.0495 C   0  0  0  0  0  0  0  0  0  0  0  0
   -3.9144    0.9808  -22.0631 C   0  0  0  0  0  0  0  0  0  0  0  0
   -5.0912    0.3242  -21.7931 C   0  0  0  0  0  0  0  0  0  0  0  0
   -5.3545   -0.1907  -20.4905 C   0  0  0  0  0  0  0  0  0  0  0  0
   -5.8443    0.2457  -22.5732 H   0  0  0  0  0  0  0  0  0  0  0  0
   -3.7371    1.3704  -23.0602 H   0  0  0  0  0  0  0  0  0  0  0  0
   -2.0246    1.6792  -21.2771 H   0  0  0  0  0  0  0  0  0  0  0  0
   -2.4785    0.8729  -18.9787 H   0  0  0  0  0  0  0  0  0  0  0  0
   -3.9699   -0.2589  -17.3638 H   0  0  0  0  0  0  0  0  0  0  0  0
   -7.5677   -1.8988  -18.5404 H   0  0  0  0  0  0  0  0  0  0  0  0
   -7.1385   -2.4433  -21.9552 C   0  0  0  0  0  0  0  0  0  0  0  0
   -8.4418   -2.7020  -22.7230 C   0  0  2  0  0  0  0  0  0  0  0  0
   -8.1912   -3.3869  -24.0683 C   0  0  0  0  0  0  0  0  0  0  0  0
   -7.4584   -4.6132  -23.8682 N   0  0  0  0  0  0  0  0  0  0  0  0
   -6.9947   -5.3698  -24.8894 C   0  0  0  0  0  0  0  0  0  0  0  0
   -5.8678   -7.2215  -25.5509 C   0  0  0  0  0  0  0  0  0  0  0  0
   -6.3153   -6.4832  -24.5491 N   0  0  0  0  0  0  0  0  0  0  0  0
   -6.1161   -6.9181  -26.8925 C   0  0  0  0  0  0  0  0  0  0  0  0
   -6.8174   -5.7349  -27.1213 C   0  0  0  0  0  0  0  0  0  0  0  0
   -7.2655   -4.9535  -26.1377 N   0  0  0  0  0  0  0  0  0  0  0  0
   -7.0322   -5.3705  -28.1296 H   0  0  0  0  0  0  0  0  0  0  0  0
   -5.7928   -7.5839  -27.6917 H   0  0  0  0  0  0  0  0  0  0  0  0
   -5.3285   -8.1317  -25.2636 H   0  0  0  0  0  0  0  0  0  0  0  0
   -7.2815   -4.9449  -22.9366 H   0  0  0  0  0  0  0  0  0  0  0  0
   -9.1388   -3.5799  -24.5886 H   0  0  0  0  0  0  0  0  0  0  0  0
   -7.5920   -2.7460  -24.7273 H   0  0  0  0  0  0  0  0  0  0  0  0
   -9.0551   -3.3769  -22.1168 H   0  0  0  0  0  0  0  0  0  0  0  0
   -6.8312   -3.2947  -21.3384 H   0  0  0  0  0  0  0  0  0  0  0  0
   -6.2965   -2.2038  -22.6309 H   0  0  0  0  0  0  0  0  0  0  0  0
  -10.6861   -1.3607  -22.7289 C   0  0  0  0  0  0  0  0  0  0  0  0
  -11.3533   -2.3200  -21.9578 C   0  0  0  0  0  0  0  0  0  0  0  0
  -12.7357   -2.3405  -21.9063 C   0  0  0  0  0  0  0  0  0  0  0  0
  -13.5277   -3.5483  -20.9317 Cl  0  0  0  0  0  0  0  0  0  0  0  0
  -13.5095   -1.4147  -22.6056 C   0  0  0  0  0  0  0  0  0  0  0  0
  -12.8619   -0.4515  -23.3546 C   0  0  0  0  0  0  0  0  0  0  0  0
  -11.4680   -0.4088  -23.4086 C   0  0  0  0  0  0  0  0  0  0  0  0
  -10.8470    0.7030  -24.2054 C   0  0  0  0  0  0  0  0  0  0  0  0
  -11.5169    1.5566  -24.7743 O   0  0  0  0  0  0  0  0  0  0  0  0
  -13.4165    0.3000  -23.9089 H   0  0  0  0  0  0  0  0  0  0  0  0
  -14.5923   -1.4499  -22.5429 H   0  0  0  0  0  0  0  0  0  0  0  0
  -10.8082   -3.0550  -21.3765 H   0  0  0  0  0  0  0  0  0  0  0  0
   -7.6854   -0.3221  -24.0045 H   0  0  0  0  0  0  0  0  0  0  0  0
   -8.9488   -1.1940  -24.9078 H   0  0  0  0  0  0  0  0  0  0  0  0
   -8.2867    1.3000  -25.8613 H   0  0  0  0  0  0  0  0  0  0  0  0
   -9.4653    2.4870  -25.2373 H   0  0  0  0  0  0  0  0  0  0  0  0
   -8.9905    2.5363  -22.5929 H   0  0  0  0  0  0  0  0  0  0  0  0
   -6.4079    3.9782  -22.4333 H   0  0  0  0  0  0  0  0  0  0  0  0
   -6.5968    2.5171  -21.4341 H   0  0  0  0  0  0  0  0  0  0  0  0
   -7.6930    3.9277  -21.2011 H   0  0  0  0  0  0  0  0  0  0  0  0
  1  2  1  0
  2  3  1  0
  3  4  2  0
  3  5  1  0
  5  6  1  0
  6  7  1  0
  8  7  1  6
  8  9  1  0
  9 10  2  0
  9 11  1  0
 11 12  1  0
 12 13  2  0
 13 14  1  0
 14 15  2  0
 15 16  1  0
 16 17  2  0
 17 18  1  0
 18 19  2  0
 19 20  1  0
 20 21  2  0
 20 22  1  0
 19 23  1  0
 18 24  1  0
 17 25  1  0
 15 26  1  0
 13 27  1  0
 11 28  1  0
 28 29  1  0
 29 30  1  0
 30 31  1  0
 31 32  1  0
 32 33  2  0
 33 34  1  0
 34 35  2  0
 35 36  1  0
 36 37  2  0
 36 38  1  0
 35 39  1  0
 33 40  1  0
 31 41  1  0
 30 42  1  0
 30 43  1  0
 29 44  1  1
 28 45  1  0
 28 46  1  0
  8 47  1  0
 47 48  2  0
 48 49  1  0
 49 50  1  0
 49 51  2  0
 51 52  1  0
 52 53  2  0
 53 54  1  0
 54 55  2  0
 52 56  1  0
 51 57  1  0
 48 58  1  0
  7 59  1  0
  7 60  1  0
  5 61  1  0
  5 62  1  0
  2 63  1  0
  1 64  1  0
  1 65  1  0
  1 66  1  0
 54  6  1  0
 29  8  1  0
 37 32  1  0
 53 47  1  0
 21 12  1  0
 21 16  1  0
M  END
>  <cnnaffinities>  (73) 
[7.20379]

>  <score>  (73) 
7.20379

>  <index>  (73) 
75

>  <Smiles>  (73) 
C(N(C(=O)C(N1C([C@@]2(C(=O)N(c3c(nc(c4c(c(c(c(c34)[H])[H])[H])[H])[H])[H])C([C@@]2(C(N(c2c(nc(c(n2)[H])[H])[H])[H])([H])[H])[H])([H])[H])c2c(c(Cl)c(c(c2C1=O)[H])[H])[H])([H])[H])([H])[H])[H])([H])([H])[H]

>  <h>  (73) 
<NA>

>  <Training>  (73) 
True

>  <Success>  (73) 
True

>  <enamine_searched>  (73) 
False

>  <enamine_id>  (73) 
nan

$$$$

     RDKit          3D

 66 71  0  0  0  0  0  0  0  0999 V2000
   -8.2261   -3.4552  -24.0822 C   0  0  0  0  0  0  0  0  0  0  0  0
   -8.4785   -2.7208  -22.7707 C   0  0  1  0  0  0  0  0  0  0  0  0
   -7.1809   -2.5178  -21.9754 C   0  0  0  0  0  0  0  0  0  0  0  0
   -7.4626   -1.3429  -21.1829 N   0  0  0  0  0  0  0  0  0  0  0  0
   -6.5536   -0.9152  -20.1893 C   0  0  0  0  0  0  0  0  0  0  0  0
   -6.7807   -1.2407  -18.8773 C   0  0  0  0  0  0  0  0  0  0  0  0
   -5.8967   -0.9998  -17.8781 N   0  0  0  0  0  0  0  0  0  0  0  0
   -4.7760   -0.3941  -18.1754 C   0  0  0  0  0  0  0  0  0  0  0  0
   -4.4370    0.0322  -19.4931 C   0  0  0  0  0  0  0  0  0  0  0  0
   -3.2798    0.8055  -19.7500 C   0  0  0  0  0  0  0  0  0  0  0  0
   -3.0565    1.3180  -20.9989 C   0  0  0  0  0  0  0  0  0  0  0  0
   -3.9485    1.0388  -22.0623 C   0  0  0  0  0  0  0  0  0  0  0  0
   -5.0473    0.2414  -21.8455 C   0  0  0  0  0  0  0  0  0  0  0  0
   -5.3483   -0.2367  -20.5390 C   0  0  0  0  0  0  0  0  0  0  0  0
   -5.6770   -0.0511  -22.6830 H   0  0  0  0  0  0  0  0  0  0  0  0
   -3.7673    1.4676  -23.0452 H   0  0  0  0  0  0  0  0  0  0  0  0
   -2.2181    1.9845  -21.1658 H   0  0  0  0  0  0  0  0  0  0  0  0
   -2.6237    1.0115  -18.9063 H   0  0  0  0  0  0  0  0  0  0  0  0
   -4.0596   -0.2034  -17.3675 H   0  0  0  0  0  0  0  0  0  0  0  0
   -7.7125   -1.7453  -18.6196 H   0  0  0  0  0  0  0  0  0  0  0  0
   -8.5216   -0.5914  -21.6257 C   0  0  0  0  0  0  0  0  0  0  0  0
   -8.8771    0.4676  -21.1446 O   0  0  0  0  0  0  0  0  0  0  0  0
   -9.1340   -1.3090  -22.8562 C   0  0  1  0  0  0  0  0  0  0  0  0
   -8.7028   -0.5733  -24.1480 C   0  0  0  0  0  0  0  0  0  0  0  0
   -9.3091    0.7423  -24.2443 N   0  0  0  0  0  0  0  0  0  0  0  0
   -8.5421    1.7920  -24.9005 C   0  0  0  0  0  0  0  0  0  0  0  0
   -7.5471    2.4233  -23.9324 C   0  0  0  0  0  0  0  0  0  0  0  0
   -8.2456    3.2167  -22.8634 N   0  0  0  0  0  4  0  0  0  0  0  0
   -7.4464    3.3073  -21.5996 C   0  0  0  0  0  0  0  0  0  0  0  0
   -6.3103    4.3131  -21.6578 C   0  0  0  0  0  0  0  0  0  0  0  0
   -6.7948    5.6024  -21.9845 O   0  0  0  0  0  0  0  0  0  0  0  0
   -7.4447    5.5889  -23.2424 C   0  0  0  0  0  0  0  0  0  0  0  0
   -8.6381    4.6316  -23.2683 C   0  0  0  0  0  0  0  0  0  0  0  0
   -9.3932    4.9775  -22.5573 H   0  0  0  0  0  0  0  0  0  0  0  0
   -9.0883    4.6124  -24.2648 H   0  0  0  0  0  0  0  0  0  0  0  0
   -6.7315    5.3192  -24.0373 H   0  0  0  0  0  0  0  0  0  0  0  0
   -7.7922    6.6077  -23.4259 H   0  0  0  0  0  0  0  0  0  0  0  0
   -5.8474    4.3786  -20.6676 H   0  0  0  0  0  0  0  0  0  0  0  0
   -5.5418    3.9817  -22.3757 H   0  0  0  0  0  0  0  0  0  0  0  0
   -7.0874    2.3056  -21.3325 H   0  0  0  0  0  0  0  0  0  0  0  0
   -8.1316    3.6343  -20.8159 H   0  0  0  0  0  0  0  0  0  0  0  0
   -9.1097    2.7011  -22.6082 H   0  0  0  0  0  0  0  0  0  0  0  0
   -6.9775    1.6373  -23.4230 H   0  0  0  0  0  0  0  0  0  0  0  0
   -6.8304    3.0504  -24.4657 H   0  0  0  0  0  0  0  0  0  0  0  0
   -8.0061    1.3725  -25.7614 H   0  0  0  0  0  0  0  0  0  0  0  0
   -9.2519    2.5339  -25.2702 H   0  0  0  0  0  0  0  0  0  0  0  0
  -10.6613    0.8874  -24.1013 C   0  0  0  0  0  0  0  0  0  0  0  0
  -11.2683    1.8735  -24.4976 O   0  0  0  0  0  0  0  0  0  0  0  0
  -11.3640   -0.2279  -23.3825 C   0  0  0  0  0  0  0  0  0  0  0  0
  -12.7519   -0.1650  -23.2823 C   0  0  0  0  0  0  0  0  0  0  0  0
  -13.4546   -1.1066  -22.5628 C   0  0  0  0  0  0  0  0  0  0  0  0
  -12.7321   -2.1152  -21.9290 C   0  0  0  0  0  0  0  0  0  0  0  0
  -13.5701   -3.2732  -20.9464 Cl  0  0  0  0  0  0  0  0  0  0  0  0
  -11.3571   -2.2027  -22.0252 C   0  0  0  0  0  0  0  0  0  0  0  0
  -10.6468   -1.2735  -22.7859 C   0  0  0  0  0  0  0  0  0  0  0  0
  -10.8545   -2.9920  -21.4766 H   0  0  0  0  0  0  0  0  0  0  0  0
  -14.5342   -1.0548  -22.4661 H   0  0  0  0  0  0  0  0  0  0  0  0
  -13.2569    0.6560  -23.7715 H   0  0  0  0  0  0  0  0  0  0  0  0
   -7.6141   -0.4677  -24.1763 H   0  0  0  0  0  0  0  0  0  0  0  0
   -8.9862   -1.1871  -25.0163 H   0  0  0  0  0  0  0  0  0  0  0  0
   -6.9562   -3.3579  -21.3122 H   0  0  0  0  0  0  0  0  0  0  0  0
   -6.3083   -2.3861  -22.6396 H   0  0  0  0  0  0  0  0  0  0  0  0
   -9.1288   -3.3437  -22.1524 H   0  0  0  0  0  0  0  0  0  0  0  0
   -9.1436   -3.5637  -24.6701 H   0  0  0  0  0  0  0  0  0  0  0  0
   -7.4889   -2.9177  -24.6919 H   0  0  0  0  0  0  0  0  0  0  0  0
   -7.8234   -4.4534  -23.8772 H   0  0  0  0  0  0  0  0  0  0  0  0
  1  2  1  0
  2  3  1  0
  3  4  1  0
  4  5  1  0
  5  6  2  0
  6  7  1  0
  7  8  2  0
  8  9  1  0
  9 10  2  0
 10 11  1  0
 11 12  2  0
 12 13  1  0
 13 14  2  0
 13 15  1  0
 12 16  1  0
 11 17  1  0
 10 18  1  0
  8 19  1  0
  6 20  1  0
  4 21  1  0
 21 22  2  0
 21 23  1  0
 23 24  1  6
 24 25  1  0
 25 26  1  0
 26 27  1  0
 27 28  1  0
 28 29  1  0
 29 30  1  0
 30 31  1  0
 31 32  1  0
 32 33  1  0
 33 34  1  0
 33 35  1  0
 32 36  1  0
 32 37  1  0
 30 38  1  0
 30 39  1  0
 29 40  1  0
 29 41  1  0
 28 42  1  0
 27 43  1  0
 27 44  1  0
 26 45  1  0
 26 46  1  0
 25 47  1  0
 47 48  2  0
 47 49  1  0
 49 50  2  0
 50 51  1  0
 51 52  2  0
 52 53  1  0
 52 54  1  0
 54 55  2  0
 54 56  1  0
 51 57  1  0
 50 58  1  0
 24 59  1  0
 24 60  1  0
  3 61  1  0
  3 62  1  0
  2 63  1  1
  1 64  1  0
  1 65  1  0
  1 66  1  0
 23  2  1  0
 33 28  1  0
 55 49  1  0
 14  5  1  0
 55 23  1  0
 14  9  1  0
M  CHG  1  28   1
M  END
>  <cnnaffinities>  (74) 
[6.87959]

>  <score>  (74) 
6.87959

>  <index>  (74) 
76

>  <Smiles>  (74) 
C([C@]1(C(N(c2c(nc(c3c(c(c(c(c23)[H])[H])[H])[H])[H])[H])C(=O)[C@]21C(N(C(C([N+]1(C(C(OC(C1([H])[H])([H])[H])([H])[H])([H])[H])[H])([H])[H])([H])[H])C(=O)c1c(c(c(Cl)c(c21)[H])[H])[H])([H])[H])([H])[H])[H])([H])([H])[H]

>  <h>  (74) 
<NA>

>  <Training>  (74) 
True

>  <Success>  (74) 
True

>  <enamine_searched>  (74) 
False

>  <enamine_id>  (74) 
nan

$$$$

     RDKit          3D

 55 60  0  0  0  0  0  0  0  0999 V2000
   -7.9094   -3.5845  -24.0923 C   0  0  0  0  0  0  0  0  0  0  0  0
   -8.2932   -2.8430  -22.8176 C   0  0  1  0  0  0  0  0  0  0  0  0
   -7.0694   -2.6134  -21.9222 C   0  0  0  0  0  0  0  0  0  0  0  0
   -7.3953   -1.4129  -21.1975 N   0  0  0  0  0  0  0  0  0  0  0  0
   -6.5160   -0.9473  -20.1919 C   0  0  0  0  0  0  0  0  0  0  0  0
   -6.7657   -1.2507  -18.8830 C   0  0  0  0  0  0  0  0  0  0  0  0
   -5.9027   -0.9971  -17.8673 N   0  0  0  0  0  0  0  0  0  0  0  0
   -4.7787   -0.3945  -18.1592 C   0  0  0  0  0  0  0  0  0  0  0  0
   -4.4256    0.0235  -19.4720 C   0  0  0  0  0  0  0  0  0  0  0  0
   -3.2626    0.7874  -19.7284 C   0  0  0  0  0  0  0  0  0  0  0  0
   -3.0332    1.3012  -20.9758 C   0  0  0  0  0  0  0  0  0  0  0  0
   -3.9006    0.9828  -22.0482 C   0  0  0  0  0  0  0  0  0  0  0  0
   -4.9985    0.1846  -21.8373 C   0  0  0  0  0  0  0  0  0  0  0  0
   -5.3120   -0.2653  -20.5300 C   0  0  0  0  0  0  0  0  0  0  0  0
   -5.6454   -0.0702  -22.6709 H   0  0  0  0  0  0  0  0  0  0  0  0
   -3.7191    1.4053  -23.0312 H   0  0  0  0  0  0  0  0  0  0  0  0
   -2.1877    1.9595  -21.1468 H   0  0  0  0  0  0  0  0  0  0  0  0
   -2.6211    1.0195  -18.8808 H   0  0  0  0  0  0  0  0  0  0  0  0
   -4.0742   -0.1968  -17.3473 H   0  0  0  0  0  0  0  0  0  0  0  0
   -7.6983   -1.7552  -18.6362 H   0  0  0  0  0  0  0  0  0  0  0  0
   -8.4332   -0.6765  -21.7244 C   0  0  0  0  0  0  0  0  0  0  0  0
   -8.8332    0.3701  -21.2690 O   0  0  0  0  0  0  0  0  0  0  0  0
   -8.9680   -1.4415  -22.9726 C   0  0  1  0  0  0  0  0  0  0  0  0
   -8.4998   -0.7643  -24.2897 C   0  0  0  0  0  0  0  0  0  0  0  0
   -9.1995    0.4731  -24.5728 N   0  0  0  0  0  0  0  0  0  0  0  0
   -8.4633    1.6742  -24.9358 C   0  0  0  0  0  0  0  0  0  0  0  0
   -8.1656    2.5272  -23.7399 C   0  0  0  0  0  0  0  0  0  0  0  0
   -8.9393    3.4198  -23.0873 C   0  0  0  0  0  0  0  0  0  0  0  0
   -8.2112    3.9437  -22.0620 O   0  0  0  0  0  0  0  0  0  0  0  0
   -7.0305    3.2995  -22.1283 C   0  0  0  0  0  0  0  0  0  0  0  0
   -6.9365    2.4528  -23.0956 N   0  0  0  0  0  0  0  0  0  0  0  0
   -6.2822    3.5602  -21.3871 H   0  0  0  0  0  0  0  0  0  0  0  0
   -9.9627    3.7528  -23.1825 H   0  0  0  0  0  0  0  0  0  0  0  0
   -9.0552    2.2188  -25.6791 H   0  0  0  0  0  0  0  0  0  0  0  0
   -7.5189    1.3766  -25.3989 H   0  0  0  0  0  0  0  0  0  0  0  0
  -10.5573    0.5883  -24.4436 C   0  0  0  0  0  0  0  0  0  0  0  0
  -11.1765    1.5400  -24.8973 O   0  0  0  0  0  0  0  0  0  0  0  0
  -11.2324   -0.5054  -23.6773 C   0  0  0  0  0  0  0  0  0  0  0  0
  -12.6275   -0.5020  -23.6311 C   0  0  0  0  0  0  0  0  0  0  0  0
  -13.3110   -1.3920  -22.8310 C   0  0  0  0  0  0  0  0  0  0  0  0
  -12.5561   -2.2676  -22.0595 C   0  0  0  0  0  0  0  0  0  0  0  0
  -13.2006   -3.1094  -21.2379 F   0  0  0  0  0  0  0  0  0  0  0  0
  -11.1778   -2.3027  -22.0952 C   0  0  0  0  0  0  0  0  0  0  0  0
  -10.4859   -1.4426  -22.9524 C   0  0  0  0  0  0  0  0  0  0  0  0
  -10.6608   -2.9878  -21.4332 H   0  0  0  0  0  0  0  0  0  0  0  0
  -14.3943   -1.3991  -22.7660 H   0  0  0  0  0  0  0  0  0  0  0  0
  -13.1537    0.2360  -24.2225 H   0  0  0  0  0  0  0  0  0  0  0  0
   -8.6694   -1.4686  -25.1139 H   0  0  0  0  0  0  0  0  0  0  0  0
   -7.4234   -0.5592  -24.2368 H   0  0  0  0  0  0  0  0  0  0  0  0
   -6.1429   -2.5040  -22.5124 H   0  0  0  0  0  0  0  0  0  0  0  0
   -6.9130   -3.4347  -21.2164 H   0  0  0  0  0  0  0  0  0  0  0  0
   -8.9890   -3.4764  -22.2635 H   0  0  0  0  0  0  0  0  0  0  0  0
   -8.7653   -3.7322  -24.7587 H   0  0  0  0  0  0  0  0  0  0  0  0
   -7.1336   -3.0363  -24.6396 H   0  0  0  0  0  0  0  0  0  0  0  0
   -7.4987   -4.5641  -23.8320 H   0  0  0  0  0  0  0  0  0  0  0  0
  1  2  1  0
  2  3  1  0
  3  4  1  0
  4  5  1  0
  5  6  2  0
  6  7  1  0
  7  8  2  0
  8  9  1  0
  9 10  2  0
 10 11  1  0
 11 12  2  0
 12 13  1  0
 13 14  2  0
 13 15  1  0
 12 16  1  0
 11 17  1  0
 10 18  1  0
  8 19  1  0
  6 20  1  0
  4 21  1  0
 21 22  2  0
 21 23  1  0
 23 24  1  6
 24 25  1  0
 25 26  1  0
 26 27  1  0
 27 28  2  0
 28 29  1  0
 29 30  1  0
 30 31  2  0
 30 32  1  0
 28 33  1  0
 26 34  1  0
 26 35  1  0
 25 36  1  0
 36 37  2  0
 36 38  1  0
 38 39  2  0
 39 40  1  0
 40 41  2  0
 41 42  1  0
 41 43  1  0
 43 44  2  0
 43 45  1  0
 40 46  1  0
 39 47  1  0
 24 48  1  0
 24 49  1  0
  3 50  1  0
  3 51  1  0
  2 52  1  1
  1 53  1  0
  1 54  1  0
  1 55  1  0
 23  2  1  0
 31 27  1  0
 44 38  1  0
 14  5  1  0
 44 23  1  0
 14  9  1  0
M  END
>  <cnnaffinities>  (75) 
[6.55677, 6.27476]

>  <score>  (75) 
6.55677

>  <index>  (75) 
77

>  <Smiles>  (75) 
C([C@]1(C(N(c2c(nc(c3c(c(c(c(c23)[H])[H])[H])[H])[H])[H])C(=O)[C@]21C(N(C(c1c(oc(n1)[H])[H])([H])[H])C(=O)c1c(c(c(F)c(c21)[H])[H])[H])([H])[H])([H])[H])[H])([H])([H])[H]

>  <h>  (75) 
<NA>

>  <Training>  (75) 
True

>  <Success>  (75) 
True

>  <enamine_searched>  (75) 
False

>  <enamine_id>  (75) 
nan

$$$$

     RDKit          3D

 56 60  0  0  0  0  0  0  0  0999 V2000
   -7.2755    3.4176  -21.9252 C   0  0  0  0  0  0  0  0  0  0  0  0
   -8.1428    2.9745  -23.0079 N   0  0  0  0  0  0  0  0  0  0  0  0
   -7.5806    2.2396  -24.0111 C   0  0  0  0  0  0  0  0  0  0  0  0
   -6.3761    2.0534  -24.0997 O   0  0  0  0  0  0  0  0  0  0  0  0
   -8.5525    1.6482  -25.0350 C   0  0  0  0  0  0  0  0  0  0  0  0
   -9.2709    0.5212  -24.4685 N   0  0  0  0  0  0  0  0  0  0  0  0
   -8.5556   -0.7286  -24.2646 C   0  0  0  0  0  0  0  0  0  0  0  0
   -8.9909   -1.4376  -22.9583 C   0  0  2  0  0  0  0  0  0  0  0  0
   -8.4491   -0.6746  -21.7222 C   0  0  0  0  0  0  0  0  0  0  0  0
   -8.8452    0.3835  -21.2778 O   0  0  0  0  0  0  0  0  0  0  0  0
   -7.4102   -1.4030  -21.1965 N   0  0  0  0  0  0  0  0  0  0  0  0
   -6.5294   -0.9359  -20.1936 C   0  0  0  0  0  0  0  0  0  0  0  0
   -6.7719   -1.2481  -18.8873 C   0  0  0  0  0  0  0  0  0  0  0  0
   -5.9110   -0.9962  -17.8703 N   0  0  0  0  0  0  0  0  0  0  0  0
   -4.7867   -0.3926  -18.1664 C   0  0  0  0  0  0  0  0  0  0  0  0
   -4.4386    0.0359  -19.4785 C   0  0  0  0  0  0  0  0  0  0  0  0
   -3.2728    0.7954  -19.7387 C   0  0  0  0  0  0  0  0  0  0  0  0
   -3.0530    1.3211  -20.9838 C   0  0  0  0  0  0  0  0  0  0  0  0
   -3.9344    1.0229  -22.0513 C   0  0  0  0  0  0  0  0  0  0  0  0
   -5.0370    0.2378  -21.8381 C   0  0  0  0  0  0  0  0  0  0  0  0
   -5.3303   -0.2471  -20.5363 C   0  0  0  0  0  0  0  0  0  0  0  0
   -5.6953   -0.0049  -22.6686 H   0  0  0  0  0  0  0  0  0  0  0  0
   -3.7662    1.4567  -23.0320 H   0  0  0  0  0  0  0  0  0  0  0  0
   -2.2055    1.9761  -21.1553 H   0  0  0  0  0  0  0  0  0  0  0  0
   -2.6188    1.0096  -18.8990 H   0  0  0  0  0  0  0  0  0  0  0  0
   -4.0849   -0.1902  -17.3558 H   0  0  0  0  0  0  0  0  0  0  0  0
   -7.7054   -1.7515  -18.6385 H   0  0  0  0  0  0  0  0  0  0  0  0
   -7.0827   -2.6056  -21.9172 C   0  0  0  0  0  0  0  0  0  0  0  0
   -8.3041   -2.8350  -22.8189 C   0  0  2  0  0  0  0  0  0  0  0  0
   -7.9126   -3.5672  -24.0987 C   0  0  0  0  0  0  0  0  0  0  0  0
   -7.4904   -4.5450  -23.8440 H   0  0  0  0  0  0  0  0  0  0  0  0
   -7.1450   -3.0083  -24.6471 H   0  0  0  0  0  0  0  0  0  0  0  0
   -8.7677   -3.7246  -24.7643 H   0  0  0  0  0  0  0  0  0  0  0  0
   -8.9993   -3.4791  -22.2758 H   0  0  0  0  0  0  0  0  0  0  0  0
   -6.1511   -2.4972  -22.5007 H   0  0  0  0  0  0  0  0  0  0  0  0
   -6.9323   -3.4234  -21.2054 H   0  0  0  0  0  0  0  0  0  0  0  0
  -10.5061   -1.4544  -22.9033 C   0  0  0  0  0  0  0  0  0  0  0  0
  -11.1651   -2.3113  -22.0173 C   0  0  0  0  0  0  0  0  0  0  0  0
  -12.5442   -2.3065  -21.9407 C   0  0  0  0  0  0  0  0  0  0  0  0
  -13.3255   -3.3838  -20.8257 Cl  0  0  0  0  0  0  0  0  0  0  0  0
  -13.3212   -1.4478  -22.7173 C   0  0  0  0  0  0  0  0  0  0  0  0
  -12.6718   -0.5600  -23.5486 C   0  0  0  0  0  0  0  0  0  0  0  0
  -11.2800   -0.5361  -23.6214 C   0  0  0  0  0  0  0  0  0  0  0  0
  -10.6388    0.5608  -24.4182 C   0  0  0  0  0  0  0  0  0  0  0  0
  -11.2946    1.4441  -24.9481 O   0  0  0  0  0  0  0  0  0  0  0  0
  -13.2208    0.1594  -24.1422 H   0  0  0  0  0  0  0  0  0  0  0  0
  -14.4034   -1.4603  -22.6367 H   0  0  0  0  0  0  0  0  0  0  0  0
  -10.6134   -2.9730  -21.3591 H   0  0  0  0  0  0  0  0  0  0  0  0
   -7.4798   -0.5242  -24.2446 H   0  0  0  0  0  0  0  0  0  0  0  0
   -8.7487   -1.4067  -25.1071 H   0  0  0  0  0  0  0  0  0  0  0  0
   -7.9741    1.3295  -25.9094 H   0  0  0  0  0  0  0  0  0  0  0  0
   -9.2958    2.3836  -25.3582 H   0  0  0  0  0  0  0  0  0  0  0  0
   -9.1190    2.8245  -22.7819 H   0  0  0  0  0  0  0  0  0  0  0  0
   -7.8760    3.8884  -21.1439 H   0  0  0  0  0  0  0  0  0  0  0  0
   -6.7128    2.5687  -21.5067 H   0  0  0  0  0  0  0  0  0  0  0  0
   -6.5631    4.1608  -22.2963 H   0  0  0  0  0  0  0  0  0  0  0  0
  1  2  1  0
  2  3  1  0
  3  4  2  0
  3  5  1  0
  5  6  1  0
  6  7  1  0
  8  7  1  6
  8  9  1  0
  9 10  2  0
  9 11  1  0
 11 12  1  0
 12 13  2  0
 13 14  1  0
 14 15  2  0
 15 16  1  0
 16 17  2  0
 17 18  1  0
 18 19  2  0
 19 20  1  0
 20 21  2  0
 20 22  1  0
 19 23  1  0
 18 24  1  0
 17 25  1  0
 15 26  1  0
 13 27  1  0
 11 28  1  0
 28 29  1  0
 29 30  1  0
 30 31  1  0
 30 32  1  0
 30 33  1  0
 29 34  1  1
 28 35  1  0
 28 36  1  0
  8 37  1  0
 37 38  2  0
 38 39  1  0
 39 40  1  0
 39 41  2  0
 41 42  1  0
 42 43  2  0
 43 44  1  0
 44 45  2  0
 42 46  1  0
 41 47  1  0
 38 48  1  0
  7 49  1  0
  7 50  1  0
  5 51  1  0
  5 52  1  0
  2 53  1  0
  1 54  1  0
  1 55  1  0
  1 56  1  0
 44  6  1  0
 29  8  1  0
 43 37  1  0
 21 12  1  0
 21 16  1  0
M  END
>  <cnnaffinities>  (76) 
[6.61682]

>  <score>  (76) 
6.61682

>  <index>  (76) 
78

>  <Smiles>  (76) 
C(N(C(=O)C(N1C([C@@]2(C(=O)N(c3c(nc(c4c(c(c(c(c34)[H])[H])[H])[H])[H])[H])C([C@@]2(C([H])([H])[H])[H])([H])[H])c2c(c(Cl)c(c(c2C1=O)[H])[H])[H])([H])[H])([H])[H])[H])([H])([H])[H]

>  <h>  (76) 
<NA>

>  <Training>  (76) 
True

>  <Success>  (76) 
True

>  <enamine_searched>  (76) 
False

>  <enamine_id>  (76) 
nan

$$$$

     RDKit          3D

 45 49  0  0  0  0  0  0  0  0999 V2000
  -10.5346   -2.6726  -22.4626 C   0  0  0  0  0  0  0  0  0  0  0  0
   -9.1398   -2.4202  -22.1805 N   0  0  0  0  0  0  0  0  0  0  0  0
   -8.7000   -1.3350  -21.4612 C   0  0  0  0  0  0  0  0  0  0  0  0
   -9.3481   -0.4033  -21.0449 O   0  0  0  0  0  0  0  0  0  0  0  0
   -7.3121   -1.5286  -21.3119 N   0  0  0  0  0  0  0  0  0  0  0  0
   -6.5196   -1.0040  -20.2610 C   0  0  0  0  0  0  0  0  0  0  0  0
   -6.8099   -1.2698  -18.9461 C   0  0  0  0  0  0  0  0  0  0  0  0
   -5.9839   -0.9695  -17.9123 N   0  0  0  0  0  0  0  0  0  0  0  0
   -4.8565   -0.3642  -18.1976 C   0  0  0  0  0  0  0  0  0  0  0  0
   -4.4867    0.0320  -19.5126 C   0  0  0  0  0  0  0  0  0  0  0  0
   -3.3274    0.8093  -19.7383 C   0  0  0  0  0  0  0  0  0  0  0  0
   -3.0827    1.3339  -20.9784 C   0  0  0  0  0  0  0  0  0  0  0  0
   -3.9462    1.0380  -22.0573 C   0  0  0  0  0  0  0  0  0  0  0  0
   -5.0444    0.2396  -21.8770 C   0  0  0  0  0  0  0  0  0  0  0  0
   -5.3422   -0.2764  -20.5848 C   0  0  0  0  0  0  0  0  0  0  0  0
   -5.7006    0.0084  -22.7118 H   0  0  0  0  0  0  0  0  0  0  0  0
   -3.7607    1.4780  -23.0341 H   0  0  0  0  0  0  0  0  0  0  0  0
   -2.2548    2.0183  -21.1296 H   0  0  0  0  0  0  0  0  0  0  0  0
   -2.6927    1.0170  -18.8818 H   0  0  0  0  0  0  0  0  0  0  0  0
   -4.1774   -0.1159  -17.3773 H   0  0  0  0  0  0  0  0  0  0  0  0
   -7.7444   -1.7576  -18.6787 H   0  0  0  0  0  0  0  0  0  0  0  0
   -6.8434   -2.5712  -22.1085 C   0  0  0  0  0  0  0  0  0  0  0  0
   -5.6921   -2.9245  -22.2150 O   0  0  0  0  0  0  0  0  0  0  0  0
   -8.0603   -3.1643  -22.7811 C   0  0  0  0  0  0  0  0  0  0  0  0
   -7.9957   -3.2398  -24.3261 C   0  0  0  0  0  0  0  0  0  0  0  0
   -8.0118   -4.7191  -24.2653 N   0  0  0  0  0  0  0  0  0  0  0  0
   -9.2721   -5.5548  -25.0019 S   0  0  0  0  0  0  0  0  0  0  0  0
  -10.5367   -4.9140  -24.6588 O   0  0  0  0  0  0  0  0  0  0  0  0
   -9.0475   -6.9564  -24.6984 O   0  0  0  0  0  0  0  0  0  0  0  0
   -9.0101   -5.2815  -26.7330 C   0  0  0  0  0  0  0  0  0  0  0  0
   -9.7413   -4.1417  -27.3865 C   0  0  0  0  0  0  0  0  0  0  0  0
  -10.2181   -5.5467  -27.5882 C   0  0  0  0  0  0  0  0  0  0  0  0
  -10.0569   -6.0161  -28.5555 H   0  0  0  0  0  0  0  0  0  0  0  0
  -11.1227   -5.8529  -27.0700 H   0  0  0  0  0  0  0  0  0  0  0  0
   -9.2572   -3.6499  -28.2275 H   0  0  0  0  0  0  0  0  0  0  0  0
  -10.3326   -3.5056  -26.7317 H   0  0  0  0  0  0  0  0  0  0  0  0
   -8.0342   -5.5612  -27.1112 H   0  0  0  0  0  0  0  0  0  0  0  0
   -8.0785   -4.7063  -22.7734 C   0  0  0  0  0  0  0  0  0  0  0  0
   -7.1735   -5.1407  -22.3476 H   0  0  0  0  0  0  0  0  0  0  0  0
   -8.9657   -5.1799  -22.3440 H   0  0  0  0  0  0  0  0  0  0  0  0
   -8.8401   -2.7769  -24.8469 H   0  0  0  0  0  0  0  0  0  0  0  0
   -7.0476   -2.8702  -24.7212 H   0  0  0  0  0  0  0  0  0  0  0  0
  -10.7542   -2.5330  -23.5254 H   0  0  0  0  0  0  0  0  0  0  0  0
  -11.1316   -1.9765  -21.8730 H   0  0  0  0  0  0  0  0  0  0  0  0
  -10.7965   -3.6990  -22.1917 H   0  0  0  0  0  0  0  0  0  0  0  0
  1  2  1  0
  2  3  1  0
  3  4  2  0
  3  5  1  0
  5  6  1  0
  6  7  2  0
  7  8  1  0
  8  9  2  0
  9 10  1  0
 10 11  2  0
 11 12  1  0
 12 13  2  0
 13 14  1  0
 14 15  2  0
 14 16  1  0
 13 17  1  0
 12 18  1  0
 11 19  1  0
  9 20  1  0
  7 21  1  0
  5 22  1  0
 22 23  2  0
 22 24  1  0
 24 25  1  0
 25 26  1  0
 26 27  1  0
 27 28  2  0
 27 29  2  0
 27 30  1  0
 30 31  1  0
 31 32  1  0
 32 33  1  0
 32 34  1  0
 31 35  1  0
 31 36  1  0
 30 37  1  0
 26 38  1  0
 38 39  1  0
 38 40  1  0
 25 41  1  0
 25 42  1  0
  1 43  1  0
  1 44  1  0
  1 45  1  0
 24  2  1  0
 32 30  1  0
 15  6  1  0
 38 24  1  0
 15 10  1  0
M  END
>  <cnnaffinities>  (77) 
[5.46601, 5.46332, 5.47995, 5.66419, 5.64448, 5.64573, 5.65964]

>  <score>  (77) 
5.46601

>  <index>  (77) 
79

>  <Smiles>  (77) 
C(N1C(=O)N(c2c(nc(c3c(c(c(c(c23)[H])[H])[H])[H])[H])[H])C(=O)C21C(N(S(=O)(=O)C1(C(C1([H])[H])([H])[H])[H])C2([H])[H])([H])[H])([H])([H])[H]

>  <h>  (77) 
<NA>

>  <Training>  (77) 
True

>  <Success>  (77) 
True

>  <enamine_searched>  (77) 
False

>  <enamine_id>  (77) 
nan

$$$$

     RDKit          3D

 60 65  0  0  0  0  0  0  0  0999 V2000
   -8.3032    2.2576  -28.8965 C   0  0  0  0  0  0  0  0  0  0  0  0
   -8.6302    2.2850  -27.4828 N   0  0  0  0  0  0  0  0  0  0  0  0
   -7.8814    1.5187  -26.6397 C   0  0  0  0  0  0  0  0  0  0  0  0
   -6.9087    0.8762  -27.0030 O   0  0  0  0  0  0  0  0  0  0  0  0
   -8.2859    1.5877  -25.1830 C   0  0  0  0  0  0  0  0  0  0  0  0
   -9.0461    0.5008  -24.6554 N   0  0  0  0  0  0  0  0  0  0  0  0
   -8.3657   -0.7491  -24.3774 C   0  0  0  0  0  0  0  0  0  0  0  0
   -8.8804   -1.3953  -23.0682 C   0  0  2  0  0  0  0  0  0  0  0  0
   -8.3553   -0.6294  -21.8255 C   0  0  0  0  0  0  0  0  0  0  0  0
   -8.6866    0.4787  -21.4480 O   0  0  0  0  0  0  0  0  0  0  0  0
   -7.4198   -1.4145  -21.1903 N   0  0  0  0  0  0  0  0  0  0  0  0
   -6.5280   -0.9515  -20.1933 C   0  0  0  0  0  0  0  0  0  0  0  0
   -6.7632   -1.2625  -18.8824 C   0  0  0  0  0  0  0  0  0  0  0  0
   -5.9050   -1.0013  -17.8661 N   0  0  0  0  0  0  0  0  0  0  0  0
   -4.7822   -0.3960  -18.1615 C   0  0  0  0  0  0  0  0  0  0  0  0
   -4.4366    0.0225  -19.4786 C   0  0  0  0  0  0  0  0  0  0  0  0
   -3.2750    0.7961  -19.7344 C   0  0  0  0  0  0  0  0  0  0  0  0
   -3.0485    1.3117  -20.9791 C   0  0  0  0  0  0  0  0  0  0  0  0
   -3.9092    0.9847  -22.0528 C   0  0  0  0  0  0  0  0  0  0  0  0
   -5.0033    0.1826  -21.8447 C   0  0  0  0  0  0  0  0  0  0  0  0
   -5.3206   -0.2707  -20.5340 C   0  0  0  0  0  0  0  0  0  0  0  0
   -5.6255   -0.1122  -22.6810 H   0  0  0  0  0  0  0  0  0  0  0  0
   -3.7253    1.4008  -23.0381 H   0  0  0  0  0  0  0  0  0  0  0  0
   -2.2131    1.9856  -21.1509 H   0  0  0  0  0  0  0  0  0  0  0  0
   -2.6293    1.0296  -18.8937 H   0  0  0  0  0  0  0  0  0  0  0  0
   -4.0836   -0.1806  -17.3516 H   0  0  0  0  0  0  0  0  0  0  0  0
   -7.6909   -1.7701  -18.6284 H   0  0  0  0  0  0  0  0  0  0  0  0
   -7.0995   -2.6334  -21.8876 C   0  0  0  0  0  0  0  0  0  0  0  0
   -8.2741   -2.8192  -22.8538 C   0  0  2  0  0  0  0  0  0  0  0  0
   -7.8534   -3.6096  -24.0856 C   0  0  0  0  0  0  0  0  0  0  0  0
   -8.6820   -3.7575  -24.7852 H   0  0  0  0  0  0  0  0  0  0  0  0
   -7.0366   -3.1027  -24.6118 H   0  0  0  0  0  0  0  0  0  0  0  0
   -7.4872   -4.5930  -23.7750 H   0  0  0  0  0  0  0  0  0  0  0  0
   -9.0307   -3.4090  -22.3346 H   0  0  0  0  0  0  0  0  0  0  0  0
   -7.0213   -3.4515  -21.1666 H   0  0  0  0  0  0  0  0  0  0  0  0
   -6.1342   -2.5665  -22.4192 H   0  0  0  0  0  0  0  0  0  0  0  0
  -10.4004   -1.3436  -23.0814 C   0  0  0  0  0  0  0  0  0  0  0  0
  -11.1238   -2.1351  -22.1821 C   0  0  0  0  0  0  0  0  0  0  0  0
  -12.5049   -2.1010  -22.1749 C   0  0  0  0  0  0  0  0  0  0  0  0
  -13.3623   -3.1186  -21.0586 Cl  0  0  0  0  0  0  0  0  0  0  0  0
  -13.2241   -1.2700  -23.0314 C   0  0  0  0  0  0  0  0  0  0  0  0
  -12.5162   -0.4418  -23.8773 C   0  0  0  0  0  0  0  0  0  0  0  0
  -11.1207   -0.4552  -23.8922 C   0  0  0  0  0  0  0  0  0  0  0  0
  -10.4168    0.5581  -24.7321 C   0  0  0  0  0  0  0  0  0  0  0  0
  -10.9971    1.4104  -25.3899 O   0  0  0  0  0  0  0  0  0  0  0  0
  -13.0270    0.2522  -24.5320 H   0  0  0  0  0  0  0  0  0  0  0  0
  -14.3092   -1.2609  -23.0080 H   0  0  0  0  0  0  0  0  0  0  0  0
  -10.6262   -2.7802  -21.4672 H   0  0  0  0  0  0  0  0  0  0  0  0
   -8.5317   -1.4416  -25.2118 H   0  0  0  0  0  0  0  0  0  0  0  0
   -7.2919   -0.5548  -24.3380 H   0  0  0  0  0  0  0  0  0  0  0  0
   -8.4480    2.9362  -24.5560 C   0  0  0  0  0  0  0  0  0  0  0  0
   -7.2038    2.1368  -24.2986 C   0  0  0  0  0  0  0  0  0  0  0  0
   -6.2807    2.4120  -24.8033 H   0  0  0  0  0  0  0  0  0  0  0  0
   -7.1283    1.6774  -23.3176 H   0  0  0  0  0  0  0  0  0  0  0  0
   -8.4037    3.8026  -25.2139 H   0  0  0  0  0  0  0  0  0  0  0  0
   -9.1599    2.9696  -23.7373 H   0  0  0  0  0  0  0  0  0  0  0  0
   -9.5981    2.4331  -27.2082 H   0  0  0  0  0  0  0  0  0  0  0  0
   -8.8585    3.0452  -29.4103 H   0  0  0  0  0  0  0  0  0  0  0  0
   -8.5094    1.2768  -29.3563 H   0  0  0  0  0  0  0  0  0  0  0  0
   -7.2413    2.4920  -29.0073 H   0  0  0  0  0  0  0  0  0  0  0  0
  1  2  1  0
  2  3  1  0
  3  4  2  0
  3  5  1  0
  5  6  1  0
  6  7  1  0
  8  7  1  6
  8  9  1  0
  9 10  2  0
  9 11  1  0
 11 12  1  0
 12 13  2  0
 13 14  1  0
 14 15  2  0
 15 16  1  0
 16 17  2  0
 17 18  1  0
 18 19  2  0
 19 20  1  0
 20 21  2  0
 20 22  1  0
 19 23  1  0
 18 24  1  0
 17 25  1  0
 15 26  1  0
 13 27  1  0
 11 28  1  0
 28 29  1  0
 29 30  1  0
 30 31  1  0
 30 32  1  0
 30 33  1  0
 29 34  1  1
 28 35  1  0
 28 36  1  0
  8 37  1  0
 37 38  2  0
 38 39  1  0
 39 40  1  0
 39 41  2  0
 41 42  1  0
 42 43  2  0
 43 44  1  0
 44 45  2  0
 42 46  1  0
 41 47  1  0
 38 48  1  0
  7 49  1  0
  7 50  1  0
  5 51  1  0
 51 52  1  0
 52 53  1  0
 52 54  1  0
 51 55  1  0
 51 56  1  0
  2 57  1  0
  1 58  1  0
  1 59  1  0
  1 60  1  0
 52  5  1  0
 44  6  1  0
 29  8  1  0
 43 37  1  0
 21 12  1  0
 21 16  1  0
M  END
>  <cnnaffinities>  (78) 
[6.56643, 6.36945, 6.40671]

>  <score>  (78) 
6.56643

>  <index>  (78) 
80

>  <Smiles>  (78) 
C(N(C(=O)C1(N2C([C@@]3(C(=O)N(c4c(nc(c5c(c(c(c(c45)[H])[H])[H])[H])[H])[H])C([C@@]3(C([H])([H])[H])[H])([H])[H])c3c(c(Cl)c(c(c3C2=O)[H])[H])[H])([H])[H])C(C1([H])[H])([H])[H])[H])([H])([H])[H]

>  <h>  (78) 
<NA>

>  <Training>  (78) 
True

>  <Success>  (78) 
True

>  <enamine_searched>  (78) 
False

>  <enamine_id>  (78) 
nan

$$$$

     RDKit          3D

 36 38  0  0  0  0  0  0  0  0999 V2000
   -8.5378    0.7483  -21.4319 O   0  0  0  0  0  0  0  0  0  0  0  0
   -8.3939   -0.3663  -21.8987 C   0  0  0  0  0  0  0  0  0  0  0  0
   -7.4557   -1.4253  -21.3007 C   0  0  0  0  0  0  0  0  0  0  0  0
   -6.5023   -0.9890  -20.2252 C   0  0  0  0  0  0  0  0  0  0  0  0
   -6.7616   -1.2607  -18.9106 C   0  0  0  0  0  0  0  0  0  0  0  0
   -5.9272   -0.9915  -17.8761 N   0  0  0  0  0  0  0  0  0  0  0  0
   -4.8156   -0.3566  -18.1506 C   0  0  0  0  0  0  0  0  0  0  0  0
   -4.4366    0.0406  -19.4635 C   0  0  0  0  0  0  0  0  0  0  0  0
   -3.2835    0.8307  -19.7140 C   0  0  0  0  0  0  0  0  0  0  0  0
   -3.0651    1.3574  -20.9589 C   0  0  0  0  0  0  0  0  0  0  0  0
   -3.9179    1.0218  -22.0364 C   0  0  0  0  0  0  0  0  0  0  0  0
   -4.9944    0.1945  -21.8391 C   0  0  0  0  0  0  0  0  0  0  0  0
   -5.3110   -0.2719  -20.5338 C   0  0  0  0  0  0  0  0  0  0  0  0
   -5.6862    0.0022  -22.6551 H   0  0  0  0  0  0  0  0  0  0  0  0
   -3.7370    1.4421  -23.0231 H   0  0  0  0  0  0  0  0  0  0  0  0
   -2.2847    2.0962  -21.1116 H   0  0  0  0  0  0  0  0  0  0  0  0
   -2.6302    1.0733  -18.8783 H   0  0  0  0  0  0  0  0  0  0  0  0
   -4.1818   -0.1025  -17.3013 H   0  0  0  0  0  0  0  0  0  0  0  0
   -7.7208   -1.6972  -18.6312 H   0  0  0  0  0  0  0  0  0  0  0  0
   -6.8764   -1.8801  -22.1126 H   0  0  0  0  0  0  0  0  0  0  0  0
   -8.1073   -2.2064  -20.8956 H   0  0  0  0  0  0  0  0  0  0  0  0
   -9.0565   -0.7653  -23.0508 N   0  0  0  0  0  0  0  0  0  0  0  0
   -9.9865    0.1855  -23.6315 C   0  0  0  0  0  0  0  0  0  0  0  0
  -11.3653    0.1832  -23.0227 C   0  0  0  0  0  0  0  0  0  0  0  0
  -12.0153   -0.8017  -22.3914 C   0  0  0  0  0  0  0  0  0  0  0  0
  -11.5705   -2.1799  -22.1249 C   0  0  0  0  0  0  0  0  0  0  0  0
  -10.4474   -2.7747  -22.5395 C   0  0  0  0  0  0  0  0  0  0  0  0
   -9.3516   -2.1539  -23.3768 C   0  0  0  0  0  0  0  0  0  0  0  0
   -8.4415   -2.7618  -23.3061 H   0  0  0  0  0  0  0  0  0  0  0  0
   -9.6336   -2.1596  -24.4402 H   0  0  0  0  0  0  0  0  0  0  0  0
  -10.3035   -3.8209  -22.2774 H   0  0  0  0  0  0  0  0  0  0  0  0
  -12.2847   -2.7705  -21.5513 H   0  0  0  0  0  0  0  0  0  0  0  0
  -13.0174   -0.5846  -22.0211 H   0  0  0  0  0  0  0  0  0  0  0  0
  -11.8738    1.1409  -23.1113 H   0  0  0  0  0  0  0  0  0  0  0  0
  -10.0447   -0.0247  -24.7116 H   0  0  0  0  0  0  0  0  0  0  0  0
   -9.5510    1.1815  -23.5174 H   0  0  0  0  0  0  0  0  0  0  0  0
  1  2  2  0
  2  3  1  0
  3  4  1  0
  4  5  2  0
  5  6  1  0
  6  7  2  0
  7  8  1  0
  8  9  2  0
  9 10  1  0
 10 11  2  0
 11 12  1  0
 12 13  2  0
 12 14  1  0
 11 15  1  0
 10 16  1  0
  9 17  1  0
  7 18  1  0
  5 19  1  0
  3 20  1  0
  3 21  1  0
  2 22  1  0
 22 23  1  0
 23 24  1  0
 24 25  2  0
 25 26  1  0
 26 27  2  0
 27 28  1  0
 28 29  1  0
 28 30  1  0
 27 31  1  0
 26 32  1  0
 25 33  1  0
 24 34  1  0
 23 35  1  0
 23 36  1  0
 13  4  1  0
 28 22  1  0
 13  8  1  0
M  END
>  <cnnaffinities>  (79) 
[5.09691, 5.0969, 5.07804, 5.07787, 5.26181, 5.30102]

>  <score>  (79) 
5.09691

>  <index>  (79) 
81

>  <Smiles>  (79) 
O=C(C(c1c(nc(c2c(c(c(c(c12)[H])[H])[H])[H])[H])[H])([H])[H])N1C(C(=C(C(=C(C1([H])[H])[H])[H])[H])[H])([H])[H]

>  <h>  (79) 
<NA>

>  <Training>  (79) 
True

>  <Success>  (79) 
True

>  <enamine_searched>  (79) 
False

>  <enamine_id>  (79) 
nan

$$$$

     RDKit          3D

 54 57  0  0  0  0  0  0  0  0999 V2000
  -10.6872    0.3581  -25.3896 C   0  0  0  0  0  0  0  0  0  0  0  0
   -9.8142   -0.6301  -24.9049 O   0  0  0  0  0  0  0  0  0  0  0  0
   -8.4897   -0.5230  -25.2042 C   0  0  0  0  0  0  0  0  0  0  0  0
   -7.9575    0.5107  -25.9767 C   0  0  0  0  0  0  0  0  0  0  0  0
   -6.5894    0.5411  -26.2396 C   0  0  0  0  0  0  0  0  0  0  0  0
   -5.7664   -0.4525  -25.7256 C   0  0  0  0  0  0  0  0  0  0  0  0
   -6.3116   -1.4702  -24.9403 C   0  0  0  0  0  0  0  0  0  0  0  0
   -7.6724   -1.5393  -24.6716 C   0  0  0  0  0  0  0  0  0  0  0  0
   -8.3206   -2.6523  -23.8385 C   0  0  1  0  0  0  0  0  0  0  0  0
   -9.1553   -3.6365  -24.6821 C   0  0  0  0  0  0  0  0  0  0  0  0
   -8.4076   -4.8444  -25.2624 C   0  0  1  0  0  0  0  0  0  0  0  0
   -7.5060   -4.5225  -26.4580 C   0  0  0  0  0  0  0  0  0  0  0  0
   -6.6823   -3.8514  -26.1955 H   0  0  0  0  0  0  0  0  0  0  0  0
   -7.0676   -5.4377  -26.8727 H   0  0  0  0  0  0  0  0  0  0  0  0
   -8.0782   -4.0416  -27.2589 H   0  0  0  0  0  0  0  0  0  0  0  0
   -7.6719   -5.5407  -24.1156 C   0  0  0  0  0  0  0  0  0  0  0  0
   -6.7219   -4.5958  -23.4046 C   0  0  0  0  0  0  0  0  0  0  0  0
   -7.3819   -3.3693  -22.9654 N   0  0  0  0  0  0  0  0  0  0  0  0
   -6.7641   -2.7606  -21.9025 C   0  0  0  0  0  0  0  0  0  0  0  0
   -5.7419   -3.2140  -21.4089 O   0  0  0  0  0  0  0  0  0  0  0  0
   -7.4017   -1.5010  -21.3103 C   0  0  0  0  0  0  0  0  0  0  0  0
   -6.5038   -0.9895  -20.2286 C   0  0  0  0  0  0  0  0  0  0  0  0
   -6.7588   -1.2694  -18.9151 C   0  0  0  0  0  0  0  0  0  0  0  0
   -5.9442   -0.9756  -17.8724 N   0  0  0  0  0  0  0  0  0  0  0  0
   -4.8356   -0.3326  -18.1495 C   0  0  0  0  0  0  0  0  0  0  0  0
   -4.4501    0.0519  -19.4631 C   0  0  0  0  0  0  0  0  0  0  0  0
   -3.3012    0.8476  -19.7087 C   0  0  0  0  0  0  0  0  0  0  0  0
   -3.0557    1.3515  -20.9586 C   0  0  0  0  0  0  0  0  0  0  0  0
   -3.8912    0.9862  -22.0377 C   0  0  0  0  0  0  0  0  0  0  0  0
   -4.9669    0.1592  -21.8450 C   0  0  0  0  0  0  0  0  0  0  0  0
   -5.3075   -0.2872  -20.5385 C   0  0  0  0  0  0  0  0  0  0  0  0
   -5.6333   -0.0655  -22.6748 H   0  0  0  0  0  0  0  0  0  0  0  0
   -3.6955    1.3894  -23.0291 H   0  0  0  0  0  0  0  0  0  0  0  0
   -2.2700    2.0816  -21.1159 H   0  0  0  0  0  0  0  0  0  0  0  0
   -2.6685    1.1208  -18.8670 H   0  0  0  0  0  0  0  0  0  0  0  0
   -4.2076   -0.0582  -17.3017 H   0  0  0  0  0  0  0  0  0  0  0  0
   -7.7093   -1.7254  -18.6451 H   0  0  0  0  0  0  0  0  0  0  0  0
   -7.5914   -0.7642  -22.1002 H   0  0  0  0  0  0  0  0  0  0  0  0
   -8.3830   -1.7725  -20.9009 H   0  0  0  0  0  0  0  0  0  0  0  0
   -6.3206   -5.0614  -22.5028 H   0  0  0  0  0  0  0  0  0  0  0  0
   -5.8599   -4.3636  -24.0486 H   0  0  0  0  0  0  0  0  0  0  0  0
   -8.4095   -5.9118  -23.3936 H   0  0  0  0  0  0  0  0  0  0  0  0
   -7.1045   -6.4098  -24.4763 H   0  0  0  0  0  0  0  0  0  0  0  0
   -9.1796   -5.5373  -25.6250 H   0  0  0  0  0  0  0  0  0  0  0  0
   -9.6515   -3.0662  -25.4738 H   0  0  0  0  0  0  0  0  0  0  0  0
   -9.9389   -4.0263  -24.0217 H   0  0  0  0  0  0  0  0  0  0  0  0
   -9.0457   -2.1550  -23.1809 H   0  0  0  0  0  0  0  0  0  0  0  0
   -5.6514   -2.2380  -24.5397 H   0  0  0  0  0  0  0  0  0  0  0  0
   -4.7002   -0.4479  -25.9304 H   0  0  0  0  0  0  0  0  0  0  0  0
   -6.1790    1.3451  -26.8499 H   0  0  0  0  0  0  0  0  0  0  0  0
   -8.6089    1.2808  -26.3793 H   0  0  0  0  0  0  0  0  0  0  0  0
  -11.6763    0.0782  -25.0241 H   0  0  0  0  0  0  0  0  0  0  0  0
  -10.6925    0.3901  -26.4875 H   0  0  0  0  0  0  0  0  0  0  0  0
  -10.4176    1.3512  -25.0069 H   0  0  0  0  0  0  0  0  0  0  0  0
  1  2  1  0
  2  3  1  0
  3  4  2  0
  4  5  1  0
  5  6  2  0
  6  7  1  0
  7  8  2  0
  8  9  1  0
  9 10  1  0
 10 11  1  0
 11 12  1  0
 12 13  1  0
 12 14  1  0
 12 15  1  0
 11 16  1  0
 16 17  1  0
 17 18  1  0
 18 19  1  0
 19 20  2  0
 19 21  1  0
 21 22  1  0
 22 23  2  0
 23 24  1  0
 24 25  2  0
 25 26  1  0
 26 27  2  0
 27 28  1  0
 28 29  2  0
 29 30  1  0
 30 31  2  0
 30 32  1  0
 29 33  1  0
 28 34  1  0
 27 35  1  0
 25 36  1  0
 23 37  1  0
 21 38  1  0
 21 39  1  0
 17 40  1  0
 17 41  1  0
 16 42  1  0
 16 43  1  0
 11 44  1  6
 10 45  1  0
 10 46  1  0
  9 47  1  1
  7 48  1  0
  6 49  1  0
  5 50  1  0
  4 51  1  0
  1 52  1  0
  1 53  1  0
  1 54  1  0
  8  3  1  0
 18  9  1  0
 31 22  1  0
 31 26  1  0
M  END
>  <cnnaffinities>  (80) 
[5.89507, 6.05252]

>  <score>  (80) 
5.89507

>  <index>  (80) 
82

>  <Smiles>  (80) 
C(Oc1c(c(c(c(c1[C@]1(C([C@@](C([H])([H])[H])(C(C(N1C(=O)C(c1c(nc(c2c(c(c(c(c12)[H])[H])[H])[H])[H])[H])([H])[H])([H])[H])([H])[H])[H])([H])[H])[H])[H])[H])[H])[H])([H])([H])[H]

>  <h>  (80) 
<NA>

>  <Training>  (80) 
True

>  <Success>  (80) 
True

>  <enamine_searched>  (80) 
False

>  <enamine_id>  (80) 
nan

$$$$

     RDKit          3D

 46 50  0  0  0  0  0  0  0  0999 V2000
   -9.8717    0.2530  -27.9903 N   0  0  0  0  0  0  0  0  0  0  0  0
   -9.0401    0.5486  -26.5720 S   0  0  0  0  0  0  0  0  0  0  0  0
   -9.1678    1.9662  -26.2891 O   0  0  0  0  0  0  0  0  0  0  0  0
   -7.7205   -0.0685  -26.6186 O   0  0  0  0  0  0  0  0  0  0  0  0
  -10.0152   -0.4090  -25.4602 C   0  0  0  0  0  0  0  0  0  0  0  0
  -11.4016   -0.5006  -25.5568 C   0  0  0  0  0  0  0  0  0  0  0  0
  -12.0790   -1.3061  -24.6564 C   0  0  0  0  0  0  0  0  0  0  0  0
  -11.3656   -2.0326  -23.6992 C   0  0  0  0  0  0  0  0  0  0  0  0
   -9.9809   -1.8694  -23.5630 C   0  0  0  0  0  0  0  0  0  0  0  0
   -9.3154   -1.0615  -24.4663 C   0  0  0  0  0  0  0  0  0  0  0  0
   -8.2392   -0.9603  -24.4262 H   0  0  0  0  0  0  0  0  0  0  0  0
   -9.1804   -2.4698  -22.4359 C   0  0  1  0  0  0  0  0  0  0  0  0
  -10.0408   -3.5318  -21.7363 C   0  0  0  0  0  0  0  0  0  0  0  0
  -11.4831   -3.0615  -21.6335 C   0  0  0  0  0  0  0  0  0  0  0  0
  -12.0649   -2.8979  -22.9177 O   0  0  0  0  0  0  0  0  0  0  0  0
  -11.5226   -2.0944  -21.1254 H   0  0  0  0  0  0  0  0  0  0  0  0
  -12.1068   -3.7833  -21.1049 H   0  0  0  0  0  0  0  0  0  0  0  0
   -9.6199   -3.7573  -20.7571 H   0  0  0  0  0  0  0  0  0  0  0  0
   -9.9959   -4.4400  -22.3466 H   0  0  0  0  0  0  0  0  0  0  0  0
   -7.9003   -3.0059  -22.8797 N   0  0  0  0  0  0  0  0  0  0  0  0
   -6.8405   -2.6133  -22.1065 C   0  0  0  0  0  0  0  0  0  0  0  0
   -5.7011   -3.0250  -22.1129 O   0  0  0  0  0  0  0  0  0  0  0  0
   -7.3222   -1.5942  -21.2672 N   0  0  0  0  0  0  0  0  0  0  0  0
   -6.5134   -1.0388  -20.2373 C   0  0  0  0  0  0  0  0  0  0  0  0
   -6.7809   -1.2993  -18.9161 C   0  0  0  0  0  0  0  0  0  0  0  0
   -5.9214   -1.0327  -17.9055 N   0  0  0  0  0  0  0  0  0  0  0  0
   -4.7968   -0.4357  -18.2103 C   0  0  0  0  0  0  0  0  0  0  0  0
   -4.4485   -0.0170  -19.5189 C   0  0  0  0  0  0  0  0  0  0  0  0
   -3.2639    0.7254  -19.7547 C   0  0  0  0  0  0  0  0  0  0  0  0
   -3.0395    1.2762  -20.9854 C   0  0  0  0  0  0  0  0  0  0  0  0
   -3.9412    1.0338  -22.0472 C   0  0  0  0  0  0  0  0  0  0  0  0
   -5.0477    0.2428  -21.8570 C   0  0  0  0  0  0  0  0  0  0  0  0
   -5.3479   -0.2817  -20.5694 C   0  0  0  0  0  0  0  0  0  0  0  0
   -5.7054    0.0180  -22.6893 H   0  0  0  0  0  0  0  0  0  0  0  0
   -3.7568    1.4787  -23.0205 H   0  0  0  0  0  0  0  0  0  0  0  0
   -2.1813    1.9202  -21.1442 H   0  0  0  0  0  0  0  0  0  0  0  0
   -2.6312    0.9393  -18.8959 H   0  0  0  0  0  0  0  0  0  0  0  0
   -4.0988   -0.2382  -17.3991 H   0  0  0  0  0  0  0  0  0  0  0  0
   -7.7015   -1.8074  -18.6452 H   0  0  0  0  0  0  0  0  0  0  0  0
   -8.6862   -1.3846  -21.4585 C   0  0  0  0  0  0  0  0  0  0  0  0
   -9.3313   -0.4849  -20.9831 O   0  0  0  0  0  0  0  0  0  0  0  0
   -7.8429   -3.8750  -23.3869 H   0  0  0  0  0  0  0  0  0  0  0  0
  -13.1607   -1.3676  -24.6667 H   0  0  0  0  0  0  0  0  0  0  0  0
  -11.9237    0.0288  -26.3496 H   0  0  0  0  0  0  0  0  0  0  0  0
   -9.8500    1.0675  -28.6021 H   0  0  0  0  0  0  0  0  0  0  0  0
   -9.5380   -0.5979  -28.4326 H   0  0  0  0  0  0  0  0  0  0  0  0
  1  2  1  0
  2  3  2  0
  2  4  2  0
  2  5  1  0
  5  6  2  0
  6  7  1  0
  7  8  2  0
  8  9  1  0
  9 10  2  0
 10 11  1  0
  9 12  1  0
 12 13  1  0
 13 14  1  0
 14 15  1  0
 14 16  1  0
 14 17  1  0
 13 18  1  0
 13 19  1  0
 12 20  1  6
 20 21  1  0
 21 22  2  0
 21 23  1  0
 23 24  1  0
 24 25  2  0
 25 26  1  0
 26 27  2  0
 27 28  1  0
 28 29  2  0
 29 30  1  0
 30 31  2  0
 31 32  1  0
 32 33  2  0
 32 34  1  0
 31 35  1  0
 30 36  1  0
 29 37  1  0
 27 38  1  0
 25 39  1  0
 23 40  1  0
 40 41  2  0
 20 42  1  0
  7 43  1  0
  6 44  1  0
  1 45  1  0
  1 46  1  0
 10  5  1  0
 40 12  1  0
 15  8  1  0
 33 24  1  0
 33 28  1  0
M  END
>  <cnnaffinities>  (81) 
[5.68179, 5.68178, 5.70598]

>  <score>  (81) 
5.68179

>  <index>  (81) 
83

>  <Smiles>  (81) 
N(S(=O)(=O)c1c(c(c2c(c1[H])[C@@]1(C(C(O2)([H])[H])([H])[H])N(C(=O)N(c2c(nc(c3c(c(c(c(c23)[H])[H])[H])[H])[H])[H])C1=O)[H])[H])[H])([H])[H]

>  <h>  (81) 
<NA>

>  <Training>  (81) 
True

>  <Success>  (81) 
True

>  <enamine_searched>  (81) 
False

>  <enamine_id>  (81) 
nan

$$$$

     RDKit          3D

 63 68  0  0  0  0  0  0  0  0999 V2000
   -8.4300   -4.1357  -23.4835 C   0  0  0  0  0  0  0  0  0  0  0  0
   -8.6062   -2.9564  -22.5395 C   0  0  1  0  0  0  0  0  0  0  0  0
   -7.4166   -2.7904  -21.5953 C   0  0  0  0  0  0  0  0  0  0  0  0
   -7.4317   -1.3837  -21.2620 N   0  0  0  0  0  0  0  0  0  0  0  0
   -6.5422   -0.9185  -20.2566 C   0  0  0  0  0  0  0  0  0  0  0  0
   -6.7491   -1.3005  -18.9522 C   0  0  0  0  0  0  0  0  0  0  0  0
   -5.8741   -1.0933  -17.9415 N   0  0  0  0  0  0  0  0  0  0  0  0
   -4.7516   -0.4767  -18.2186 C   0  0  0  0  0  0  0  0  0  0  0  0
   -4.4143   -0.0062  -19.5159 C   0  0  0  0  0  0  0  0  0  0  0  0
   -3.2117    0.7128  -19.7468 C   0  0  0  0  0  0  0  0  0  0  0  0
   -2.9476    1.2276  -20.9858 C   0  0  0  0  0  0  0  0  0  0  0  0
   -3.8273    0.9759  -22.0616 C   0  0  0  0  0  0  0  0  0  0  0  0
   -4.9598    0.2241  -21.8742 C   0  0  0  0  0  0  0  0  0  0  0  0
   -5.3245   -0.2270  -20.5742 C   0  0  0  0  0  0  0  0  0  0  0  0
   -5.5984   -0.0242  -22.7165 H   0  0  0  0  0  0  0  0  0  0  0  0
   -3.5988    1.3735  -23.0475 H   0  0  0  0  0  0  0  0  0  0  0  0
   -2.0688    1.8430  -21.1408 H   0  0  0  0  0  0  0  0  0  0  0  0
   -2.5747    0.9174  -18.8916 H   0  0  0  0  0  0  0  0  0  0  0  0
   -4.0463   -0.3243  -17.4008 H   0  0  0  0  0  0  0  0  0  0  0  0
   -7.6648   -1.8304  -18.6844 H   0  0  0  0  0  0  0  0  0  0  0  0
   -8.1929   -0.6172  -22.1253 C   0  0  0  0  0  0  0  0  0  0  0  0
   -8.2976    0.5895  -22.0730 O   0  0  0  0  0  0  0  0  0  0  0  0
   -8.8221   -1.5470  -23.1918 C   0  0  1  0  0  0  0  0  0  0  0  0
   -8.0331   -1.2985  -24.5057 C   0  0  0  0  0  0  0  0  0  0  0  0
   -8.6913   -1.8479  -25.6912 N   0  0  0  0  0  0  0  0  0  0  0  0
   -7.8968   -2.2299  -26.8523 C   0  0  0  0  0  0  0  0  0  0  0  0
   -7.9476   -3.7434  -27.0582 C   0  0  0  0  0  0  0  0  0  0  0  0
   -7.1714   -4.4957  -26.4953 O   0  0  0  0  0  0  0  0  0  0  0  0
   -8.9160   -4.1690  -27.9250 N   0  0  0  0  0  0  0  0  0  0  0  0
   -9.1290   -5.5925  -28.0621 C   0  0  0  0  0  0  0  0  0  0  0  0
   -9.7327   -6.1936  -26.8154 C   0  0  0  0  0  0  0  0  0  0  0  0
  -10.7760   -5.4208  -26.3420 F   0  0  0  0  0  0  0  0  0  0  0  0
   -8.9383   -6.8820  -25.7629 C   0  0  0  0  0  0  0  0  0  0  0  0
   -9.8682   -7.6650  -26.6594 C   0  0  0  0  0  0  0  0  0  0  0  0
  -10.7903   -8.0377  -26.2333 H   0  0  0  0  0  0  0  0  0  0  0  0
   -9.4318   -8.3031  -27.4218 H   0  0  0  0  0  0  0  0  0  0  0  0
   -7.8714   -6.9722  -25.9353 H   0  0  0  0  0  0  0  0  0  0  0  0
   -9.2458   -6.7204  -24.7345 H   0  0  0  0  0  0  0  0  0  0  0  0
   -9.7883   -5.7517  -28.9227 H   0  0  0  0  0  0  0  0  0  0  0  0
   -8.1696   -6.0795  -28.2678 H   0  0  0  0  0  0  0  0  0  0  0  0
   -9.7386   -3.5756  -27.9598 H   0  0  0  0  0  0  0  0  0  0  0  0
   -8.2952   -1.7308  -27.7405 H   0  0  0  0  0  0  0  0  0  0  0  0
   -6.8626   -1.9103  -26.6995 H   0  0  0  0  0  0  0  0  0  0  0  0
  -10.0331   -1.7302  -25.8995 C   0  0  0  0  0  0  0  0  0  0  0  0
  -10.5492   -1.9606  -26.9943 O   0  0  0  0  0  0  0  0  0  0  0  0
  -10.8533   -1.3376  -24.7259 C   0  0  0  0  0  0  0  0  0  0  0  0
  -12.2129   -1.1103  -24.9409 C   0  0  0  0  0  0  0  0  0  0  0  0
  -13.0473   -0.8391  -23.8755 C   0  0  0  0  0  0  0  0  0  0  0  0
  -12.5084   -0.8056  -22.5969 C   0  0  0  0  0  0  0  0  0  0  0  0
  -13.3547   -0.5783  -21.5788 F   0  0  0  0  0  0  0  0  0  0  0  0
  -11.1568   -1.0102  -22.3647 C   0  0  0  0  0  0  0  0  0  0  0  0
  -10.2969   -1.2595  -23.4446 C   0  0  0  0  0  0  0  0  0  0  0  0
  -10.7654   -0.9837  -21.3563 H   0  0  0  0  0  0  0  0  0  0  0  0
  -14.1088   -0.6724  -24.0078 H   0  0  0  0  0  0  0  0  0  0  0  0
  -12.5957   -1.1691  -25.9552 H   0  0  0  0  0  0  0  0  0  0  0  0
   -7.9240   -0.2101  -24.6176 H   0  0  0  0  0  0  0  0  0  0  0  0
   -7.0282   -1.7407  -24.4301 H   0  0  0  0  0  0  0  0  0  0  0  0
   -6.4670   -3.0912  -22.0671 H   0  0  0  0  0  0  0  0  0  0  0  0
   -7.5064   -3.3726  -20.6813 H   0  0  0  0  0  0  0  0  0  0  0  0
   -9.4927   -3.1333  -21.9140 H   0  0  0  0  0  0  0  0  0  0  0  0
   -8.3573   -5.0718  -22.9142 H   0  0  0  0  0  0  0  0  0  0  0  0
   -7.5150   -4.0268  -24.0755 H   0  0  0  0  0  0  0  0  0  0  0  0
   -9.2749   -4.2216  -24.1749 H   0  0  0  0  0  0  0  0  0  0  0  0
  1  2  1  0
  2  3  1  0
  3  4  1  0
  4  5  1  0
  5  6  2  0
  6  7  1  0
  7  8  2  0
  8  9  1  0
  9 10  2  0
 10 11  1  0
 11 12  2  0
 12 13  1  0
 13 14  2  0
 13 15  1  0
 12 16  1  0
 11 17  1  0
 10 18  1  0
  8 19  1  0
  6 20  1  0
  4 21  1  0
 21 22  2  0
 21 23  1  0
 23 24  1  6
 24 25  1  0
 25 26  1  0
 26 27  1  0
 27 28  2  0
 27 29  1  0
 29 30  1  0
 30 31  1  0
 31 32  1  0
 31 33  1  0
 33 34  1  0
 34 35  1  0
 34 36  1  0
 33 37  1  0
 33 38  1  0
 30 39  1  0
 30 40  1  0
 29 41  1  0
 26 42  1  0
 26 43  1  0
 25 44  1  0
 44 45  2  0
 44 46  1  0
 46 47  2  0
 47 48  1  0
 48 49  2  0
 49 50  1  0
 49 51  1  0
 51 52  2  0
 51 53  1  0
 48 54  1  0
 47 55  1  0
 24 56  1  0
 24 57  1  0
  3 58  1  0
  3 59  1  0
  2 60  1  1
  1 61  1  0
  1 62  1  0
  1 63  1  0
 23  2  1  0
 34 31  1  0
 52 46  1  0
 14  5  1  0
 52 23  1  0
 14  9  1  0
M  END
>  <cnnaffinities>  (82) 
[6.40481, 6.44404]

>  <score>  (82) 
6.40481

>  <index>  (82) 
84

>  <Smiles>  (82) 
C([C@]1(C(N(c2c(nc(c3c(c(c(c(c23)[H])[H])[H])[H])[H])[H])C(=O)[C@]21C(N(C(C(=O)N(C(C1(F)C(C1([H])[H])([H])[H])([H])[H])[H])([H])[H])C(=O)c1c(c(c(F)c(c21)[H])[H])[H])([H])[H])([H])[H])[H])([H])([H])[H]

>  <h>  (82) 
<NA>

>  <Training>  (82) 
True

>  <Success>  (82) 
True

>  <enamine_searched>  (82) 
False

>  <enamine_id>  (82) 
nan

$$$$

     RDKit          3D

 57 62  0  0  0  0  0  0  0  0999 V2000
   -6.5908    3.4505  -23.0950 C   0  0  0  0  0  0  0  0  0  0  0  0
   -6.9801    2.4600  -24.0872 N   0  0  0  0  0  0  0  0  0  0  0  0
   -8.2461    2.5290  -24.5932 C   0  0  0  0  0  0  0  0  0  0  0  0
   -8.9693    3.4835  -24.3892 O   0  0  0  0  0  0  0  0  0  0  0  0
   -8.6843    1.3428  -25.4640 C   0  0  0  0  0  0  0  0  0  0  0  0
   -9.3719    0.3162  -24.6964 N   0  0  0  0  0  0  0  0  0  0  0  0
   -8.7706   -0.9909  -24.4610 C   0  0  0  0  0  0  0  0  0  0  0  0
   -9.0069   -1.4855  -23.0066 C   0  0  2  0  0  0  0  0  0  0  0  0
   -8.2295   -0.5796  -22.0081 C   0  0  0  0  0  0  0  0  0  0  0  0
   -8.3198    0.6251  -21.8939 O   0  0  0  0  0  0  0  0  0  0  0  0
   -7.3793   -1.3746  -21.2675 N   0  0  0  0  0  0  0  0  0  0  0  0
   -6.5097   -0.9283  -20.2437 C   0  0  0  0  0  0  0  0  0  0  0  0
   -6.7385   -1.2892  -18.9415 C   0  0  0  0  0  0  0  0  0  0  0  0
   -5.8795   -1.0528  -17.9226 N   0  0  0  0  0  0  0  0  0  0  0  0
   -4.7582   -0.4331  -18.1994 C   0  0  0  0  0  0  0  0  0  0  0  0
   -4.4047    0.0111  -19.5037 C   0  0  0  0  0  0  0  0  0  0  0  0
   -3.2220    0.7581  -19.7443 C   0  0  0  0  0  0  0  0  0  0  0  0
   -2.9706    1.2633  -20.9901 C   0  0  0  0  0  0  0  0  0  0  0  0
   -3.8384    0.9804  -22.0692 C   0  0  0  0  0  0  0  0  0  0  0  0
   -4.9572    0.2082  -21.8718 C   0  0  0  0  0  0  0  0  0  0  0  0
   -5.3026   -0.2350  -20.5660 C   0  0  0  0  0  0  0  0  0  0  0  0
   -5.5703   -0.0954  -22.7131 H   0  0  0  0  0  0  0  0  0  0  0  0
   -3.6168    1.3779  -23.0565 H   0  0  0  0  0  0  0  0  0  0  0  0
   -2.1220    1.9190  -21.1522 H   0  0  0  0  0  0  0  0  0  0  0  0
   -2.5929    0.9877  -18.8892 H   0  0  0  0  0  0  0  0  0  0  0  0
   -4.0741   -0.2407  -17.3723 H   0  0  0  0  0  0  0  0  0  0  0  0
   -7.6629   -1.8080  -18.6803 H   0  0  0  0  0  0  0  0  0  0  0  0
   -7.5271   -2.7888  -21.4947 C   0  0  0  0  0  0  0  0  0  0  0  0
   -8.3873   -2.8740  -22.7410 C   0  0  0  0  0  0  0  0  0  0  0  0
   -7.9256   -3.8053  -23.8314 C   0  0  0  0  0  0  0  0  0  0  0  0
   -9.1267   -4.1528  -23.0053 C   0  0  0  0  0  0  0  0  0  0  0  0
  -10.1014   -4.0621  -23.4744 H   0  0  0  0  0  0  0  0  0  0  0  0
   -9.0516   -4.9466  -22.2603 H   0  0  0  0  0  0  0  0  0  0  0  0
   -8.0753   -3.5184  -24.8676 H   0  0  0  0  0  0  0  0  0  0  0  0
   -7.0106   -4.3651  -23.6540 H   0  0  0  0  0  0  0  0  0  0  0  0
   -6.5493   -3.2758  -21.6149 H   0  0  0  0  0  0  0  0  0  0  0  0
   -8.0387   -3.2509  -20.6485 H   0  0  0  0  0  0  0  0  0  0  0  0
  -10.5126   -1.3884  -22.7607 C   0  0  0  0  0  0  0  0  0  0  0  0
  -11.1755   -2.2692  -21.9039 C   0  0  0  0  0  0  0  0  0  0  0  0
  -12.5457   -2.2027  -21.7378 C   0  0  0  0  0  0  0  0  0  0  0  0
  -13.3089   -3.4505  -20.7923 Cl  0  0  0  0  0  0  0  0  0  0  0  0
  -13.3012   -1.1739  -22.2961 C   0  0  0  0  0  0  0  0  0  0  0  0
  -12.6464   -0.2683  -23.1087 C   0  0  0  0  0  0  0  0  0  0  0  0
  -11.2858   -0.4000  -23.3821 C   0  0  0  0  0  0  0  0  0  0  0  0
  -10.6973    0.5234  -24.4078 C   0  0  0  0  0  0  0  0  0  0  0  0
  -11.3752    1.3787  -24.9600 O   0  0  0  0  0  0  0  0  0  0  0  0
  -13.1690    0.5552  -23.5811 H   0  0  0  0  0  0  0  0  0  0  0  0
  -14.3639   -1.0830  -22.1002 H   0  0  0  0  0  0  0  0  0  0  0  0
  -10.6453   -3.0428  -21.3678 H   0  0  0  0  0  0  0  0  0  0  0  0
   -7.6949   -0.9349  -24.6435 H   0  0  0  0  0  0  0  0  0  0  0  0
   -9.2041   -1.7273  -25.1576 H   0  0  0  0  0  0  0  0  0  0  0  0
   -7.8249    0.9023  -25.9793 H   0  0  0  0  0  0  0  0  0  0  0  0
   -9.3908    1.7153  -26.2092 H   0  0  0  0  0  0  0  0  0  0  0  0
   -6.5317    1.5574  -24.0345 H   0  0  0  0  0  0  0  0  0  0  0  0
   -5.5792    3.2276  -22.7481 H   0  0  0  0  0  0  0  0  0  0  0  0
   -7.2762    3.4367  -22.2403 H   0  0  0  0  0  0  0  0  0  0  0  0
   -6.6097    4.4502  -23.5406 H   0  0  0  0  0  0  0  0  0  0  0  0
  1  2  1  0
  2  3  1  0
  3  4  2  0
  3  5  1  0
  5  6  1  0
  6  7  1  0
  8  7  1  6
  8  9  1  0
  9 10  2  0
  9 11  1  0
 11 12  1  0
 12 13  2  0
 13 14  1  0
 14 15  2  0
 15 16  1  0
 16 17  2  0
 17 18  1  0
 18 19  2  0
 19 20  1  0
 20 21  2  0
 20 22  1  0
 19 23  1  0
 18 24  1  0
 17 25  1  0
 15 26  1  0
 13 27  1  0
 11 28  1  0
 28 29  1  0
 29 30  1  0
 30 31  1  0
 31 32  1  0
 31 33  1  0
 30 34  1  0
 30 35  1  0
 28 36  1  0
 28 37  1  0
  8 38  1  0
 38 39  2  0
 39 40  1  0
 40 41  1  0
 40 42  2  0
 42 43  1  0
 43 44  2  0
 44 45  1  0
 45 46  2  0
 43 47  1  0
 42 48  1  0
 39 49  1  0
  7 50  1  0
  7 51  1  0
  5 52  1  0
  5 53  1  0
  2 54  1  0
  1 55  1  0
  1 56  1  0
  1 57  1  0
 45  6  1  0
 29  8  1  0
 44 38  1  0
 21 12  1  0
 31 29  1  0
 21 16  1  0
M  END
>  <cnnaffinities>  (83) 
[6.46191]

>  <score>  (83) 
6.46191

>  <index>  (83) 
85

>  <Smiles>  (83) 
C(N(C(=O)C(N1C([C@@]2(C(=O)N(c3c(nc(c4c(c(c(c(c34)[H])[H])[H])[H])[H])[H])C(C32C(C3([H])[H])([H])[H])([H])[H])c2c(c(Cl)c(c(c2C1=O)[H])[H])[H])([H])[H])([H])[H])[H])([H])([H])[H]

>  <h>  (83) 
<NA>

>  <Training>  (83) 
True

>  <Success>  (83) 
True

>  <enamine_searched>  (83) 
False

>  <enamine_id>  (83) 
nan

$$$$

     RDKit          3D

 43 45  0  0  0  0  0  0  0  0999 V2000
   -8.5375   -5.5418  -25.7748 C   0  0  0  0  0  0  0  0  0  0  0  0
   -9.0540   -5.4325  -24.3373 C   0  0  1  0  0  0  0  0  0  0  0  0
   -8.0169   -5.8753  -23.2980 C   0  0  0  0  0  0  0  0  0  0  0  0
   -6.9386   -4.8246  -23.0851 C   0  0  0  0  0  0  0  0  0  0  0  0
   -7.5357   -3.5514  -22.7016 N   0  0  0  0  0  0  0  0  0  0  0  0
   -6.7692   -2.7813  -21.8655 C   0  0  0  0  0  0  0  0  0  0  0  0
   -5.6470   -3.1161  -21.5292 O   0  0  0  0  0  0  0  0  0  0  0  0
   -7.4020   -1.5078  -21.2957 C   0  0  0  0  0  0  0  0  0  0  0  0
   -6.5003   -0.9870  -20.2211 C   0  0  0  0  0  0  0  0  0  0  0  0
   -6.7530   -1.2699  -18.9075 C   0  0  0  0  0  0  0  0  0  0  0  0
   -5.9346   -0.9834  -17.8653 N   0  0  0  0  0  0  0  0  0  0  0  0
   -4.8232   -0.3476  -18.1463 C   0  0  0  0  0  0  0  0  0  0  0  0
   -4.4451    0.0449  -19.4591 C   0  0  0  0  0  0  0  0  0  0  0  0
   -3.2932    0.8383  -19.7050 C   0  0  0  0  0  0  0  0  0  0  0  0
   -3.0471    1.3405  -20.9565 C   0  0  0  0  0  0  0  0  0  0  0  0
   -3.8851    0.9799  -22.0340 C   0  0  0  0  0  0  0  0  0  0  0  0
   -4.9634    0.1564  -21.8405 C   0  0  0  0  0  0  0  0  0  0  0  0
   -5.3045   -0.2867  -20.5325 C   0  0  0  0  0  0  0  0  0  0  0  0
   -5.6289   -0.0741  -22.6659 H   0  0  0  0  0  0  0  0  0  0  0  0
   -3.6937    1.3859  -23.0246 H   0  0  0  0  0  0  0  0  0  0  0  0
   -2.2562    2.0662  -21.1143 H   0  0  0  0  0  0  0  0  0  0  0  0
   -2.6500    1.0946  -18.8666 H   0  0  0  0  0  0  0  0  0  0  0  0
   -4.1822   -0.0886  -17.3034 H   0  0  0  0  0  0  0  0  0  0  0  0
   -7.7030   -1.7258  -18.6392 H   0  0  0  0  0  0  0  0  0  0  0  0
   -7.5862   -0.7837  -22.1005 H   0  0  0  0  0  0  0  0  0  0  0  0
   -8.3856   -1.7558  -20.8794 H   0  0  0  0  0  0  0  0  0  0  0  0
   -8.5461   -2.9820  -23.6015 C   0  0  1  0  0  0  0  0  0  0  0  0
   -7.9415   -2.2985  -24.8353 C   0  0  0  0  0  0  0  0  0  0  0  0
   -8.7459   -1.9990  -25.5151 H   0  0  0  0  0  0  0  0  0  0  0  0
   -7.2653   -2.9610  -25.3834 H   0  0  0  0  0  0  0  0  0  0  0  0
   -7.3694   -1.4011  -24.5744 H   0  0  0  0  0  0  0  0  0  0  0  0
   -9.5951   -4.0463  -23.9546 C   0  0  0  0  0  0  0  0  0  0  0  0
  -10.2254   -3.6506  -24.7636 H   0  0  0  0  0  0  0  0  0  0  0  0
  -10.2381   -4.1707  -23.0762 H   0  0  0  0  0  0  0  0  0  0  0  0
   -9.0771   -2.2121  -23.0272 H   0  0  0  0  0  0  0  0  0  0  0  0
   -6.3206   -4.6934  -23.9855 H   0  0  0  0  0  0  0  0  0  0  0  0
   -6.2659   -5.1098  -22.2739 H   0  0  0  0  0  0  0  0  0  0  0  0
   -7.5483   -6.8239  -23.5940 H   0  0  0  0  0  0  0  0  0  0  0  0
   -8.5211   -6.0449  -22.3386 H   0  0  0  0  0  0  0  0  0  0  0  0
   -9.9075   -6.1197  -24.2668 H   0  0  0  0  0  0  0  0  0  0  0  0
   -7.5947   -5.0109  -25.9344 H   0  0  0  0  0  0  0  0  0  0  0  0
   -8.3608   -6.5903  -26.0407 H   0  0  0  0  0  0  0  0  0  0  0  0
   -9.2674   -5.1425  -26.4874 H   0  0  0  0  0  0  0  0  0  0  0  0
  1  2  1  0
  2  3  1  0
  3  4  1  0
  4  5  1  0
  5  6  1  0
  6  7  2  0
  6  8  1  0
  8  9  1  0
  9 10  2  0
 10 11  1  0
 11 12  2  0
 12 13  1  0
 13 14  2  0
 14 15  1  0
 15 16  2  0
 16 17  1  0
 17 18  2  0
 17 19  1  0
 16 20  1  0
 15 21  1  0
 14 22  1  0
 12 23  1  0
 10 24  1  0
  8 25  1  0
  8 26  1  0
  5 27  1  0
 27 28  1  0
 28 29  1  0
 28 30  1  0
 28 31  1  0
 27 32  1  0
 32 33  1  0
 32 34  1  0
 27 35  1  1
  4 36  1  0
  4 37  1  0
  3 38  1  0
  3 39  1  0
  2 40  1  6
  1 41  1  0
  1 42  1  0
  1 43  1  0
 32  2  1  0
 18  9  1  0
 18 13  1  0
M  END
>  <cnnaffinities>  (84) 
[5.38411, 5.35848]

>  <score>  (84) 
5.38411

>  <index>  (84) 
86

>  <Smiles>  (84) 
C([C@]1(C(C(N(C(=O)C(c2c(nc(c3c(c(c(c(c23)[H])[H])[H])[H])[H])[H])([H])[H])[C@@](C([H])([H])[H])(C1([H])[H])[H])([H])[H])([H])[H])[H])([H])([H])[H]

>  <h>  (84) 
<NA>

>  <Training>  (84) 
True

>  <Success>  (84) 
True

>  <enamine_searched>  (84) 
False

>  <enamine_id>  (84) 
nan

$$$$

     RDKit          3D

 59 64  0  0  0  0  0  0  0  0999 V2000
   -7.9043   -3.6707  -24.0484 C   0  0  0  0  0  0  0  0  0  0  0  0
   -8.2848   -2.8786  -22.8035 C   0  0  1  0  0  0  0  0  0  0  0  0
   -7.0612   -2.6431  -21.9073 C   0  0  0  0  0  0  0  0  0  0  0  0
   -7.3915   -1.4337  -21.2008 N   0  0  0  0  0  0  0  0  0  0  0  0
   -6.5198   -0.9537  -20.1968 C   0  0  0  0  0  0  0  0  0  0  0  0
   -6.7665   -1.2544  -18.8870 C   0  0  0  0  0  0  0  0  0  0  0  0
   -5.9102   -0.9920  -17.8689 N   0  0  0  0  0  0  0  0  0  0  0  0
   -4.7845   -0.3909  -18.1643 C   0  0  0  0  0  0  0  0  0  0  0  0
   -4.4367    0.0326  -19.4784 C   0  0  0  0  0  0  0  0  0  0  0  0
   -3.2710    0.7939  -19.7344 C   0  0  0  0  0  0  0  0  0  0  0  0
   -3.0473    1.3130  -20.9788 C   0  0  0  0  0  0  0  0  0  0  0  0
   -3.9132    0.9997  -22.0522 C   0  0  0  0  0  0  0  0  0  0  0  0
   -5.0192    0.2138  -21.8406 C   0  0  0  0  0  0  0  0  0  0  0  0
   -5.3190   -0.2641  -20.5371 C   0  0  0  0  0  0  0  0  0  0  0  0
   -5.6623   -0.0506  -22.6760 H   0  0  0  0  0  0  0  0  0  0  0  0
   -3.7208    1.4195  -23.0330 H   0  0  0  0  0  0  0  0  0  0  0  0
   -2.2008    1.9697  -21.1498 H   0  0  0  0  0  0  0  0  0  0  0  0
   -2.6278    1.0174  -18.8891 H   0  0  0  0  0  0  0  0  0  0  0  0
   -4.0791   -0.1868  -17.3572 H   0  0  0  0  0  0  0  0  0  0  0  0
   -7.6971   -1.7610  -18.6382 H   0  0  0  0  0  0  0  0  0  0  0  0
   -8.4432   -0.7230  -21.7293 C   0  0  0  0  0  0  0  0  0  0  0  0
   -8.8968    0.2924  -21.2449 O   0  0  0  0  0  0  0  0  0  0  0  0
   -8.9303   -1.4679  -23.0034 C   0  0  1  0  0  0  0  0  0  0  0  0
   -8.3981   -0.8192  -24.3074 C   0  0  0  0  0  0  0  0  0  0  0  0
   -9.0427    0.4389  -24.6218 N   0  0  0  0  0  0  0  0  0  0  0  0
   -8.2906    1.5161  -25.2474 C   0  0  0  0  0  0  0  0  0  0  0  0
   -8.1540    2.7008  -24.3368 C   0  0  0  0  0  0  0  0  0  0  0  0
   -7.5730    2.8167  -23.0870 C   0  0  0  0  0  0  0  0  0  0  0  0
   -7.7747    4.1613  -22.7258 C   0  0  0  0  0  0  0  0  0  0  0  0
   -8.4142    4.8288  -23.6788 N   0  0  0  0  0  0  0  0  0  0  0  0
   -8.6402    3.9301  -24.6462 N   0  0  0  0  0  0  0  0  0  0  0  0
   -9.3152    4.3607  -25.8606 C   0  0  0  0  0  0  0  0  0  0  0  0
  -10.2148    3.7652  -26.0440 H   0  0  0  0  0  0  0  0  0  0  0  0
   -8.6409    4.2960  -26.7225 H   0  0  0  0  0  0  0  0  0  0  0  0
   -9.5835    5.4063  -25.7051 H   0  0  0  0  0  0  0  0  0  0  0  0
   -7.4748    4.6826  -21.8241 H   0  0  0  0  0  0  0  0  0  0  0  0
   -7.0725    2.0497  -22.5071 H   0  0  0  0  0  0  0  0  0  0  0  0
   -8.7763    1.7954  -26.1890 H   0  0  0  0  0  0  0  0  0  0  0  0
   -7.3000    1.1305  -25.5068 H   0  0  0  0  0  0  0  0  0  0  0  0
  -10.4025    0.5654  -24.5845 C   0  0  0  0  0  0  0  0  0  0  0  0
  -10.9881    1.4913  -25.1344 O   0  0  0  0  0  0  0  0  0  0  0  0
  -11.1370   -0.4836  -23.8058 C   0  0  0  0  0  0  0  0  0  0  0  0
  -12.5325   -0.4458  -23.8061 C   0  0  0  0  0  0  0  0  0  0  0  0
  -13.2660   -1.3085  -23.0179 C   0  0  0  0  0  0  0  0  0  0  0  0
  -12.5599   -2.1935  -22.2118 C   0  0  0  0  0  0  0  0  0  0  0  0
  -13.2506   -3.0127  -21.4053 F   0  0  0  0  0  0  0  0  0  0  0  0
  -11.1829   -2.2622  -22.1975 C   0  0  0  0  0  0  0  0  0  0  0  0
  -10.4433   -1.4322  -23.0428 C   0  0  0  0  0  0  0  0  0  0  0  0
  -10.7018   -2.9510  -21.5128 H   0  0  0  0  0  0  0  0  0  0  0  0
  -14.3512   -1.2926  -22.9896 H   0  0  0  0  0  0  0  0  0  0  0  0
  -13.0233    0.2945  -24.4240 H   0  0  0  0  0  0  0  0  0  0  0  0
   -8.5590   -1.5317  -25.1279 H   0  0  0  0  0  0  0  0  0  0  0  0
   -7.3190   -0.6521  -24.2238 H   0  0  0  0  0  0  0  0  0  0  0  0
   -6.1289   -2.5458  -22.4928 H   0  0  0  0  0  0  0  0  0  0  0  0
   -6.9130   -3.4543  -21.1877 H   0  0  0  0  0  0  0  0  0  0  0  0
   -8.9937   -3.4825  -22.2303 H   0  0  0  0  0  0  0  0  0  0  0  0
   -8.7547   -3.8185  -24.7223 H   0  0  0  0  0  0  0  0  0  0  0  0
   -7.1047   -3.1623  -24.6014 H   0  0  0  0  0  0  0  0  0  0  0  0
   -7.5230   -4.6534  -23.7511 H   0  0  0  0  0  0  0  0  0  0  0  0
  1  2  1  0
  2  3  1  0
  3  4  1  0
  4  5  1  0
  5  6  2  0
  6  7  1  0
  7  8  2  0
  8  9  1  0
  9 10  2  0
 10 11  1  0
 11 12  2  0
 12 13  1  0
 13 14  2  0
 13 15  1  0
 12 16  1  0
 11 17  1  0
 10 18  1  0
  8 19  1  0
  6 20  1  0
  4 21  1  0
 21 22  2  0
 21 23  1  0
 23 24  1  6
 24 25  1  0
 25 26  1  0
 26 27  1  0
 27 28  2  0
 28 29  1  0
 29 30  2  0
 30 31  1  0
 31 32  1  0
 32 33  1  0
 32 34  1  0
 32 35  1  0
 29 36  1  0
 28 37  1  0
 26 38  1  0
 26 39  1  0
 25 40  1  0
 40 41  2  0
 40 42  1  0
 42 43  2  0
 43 44  1  0
 44 45  2  0
 45 46  1  0
 45 47  1  0
 47 48  2  0
 47 49  1  0
 44 50  1  0
 43 51  1  0
 24 52  1  0
 24 53  1  0
  3 54  1  0
  3 55  1  0
  2 56  1  1
  1 57  1  0
  1 58  1  0
  1 59  1  0
 23  2  1  0
 31 27  1  0
 48 42  1  0
 14  5  1  0
 48 23  1  0
 14  9  1  0
M  END
>  <cnnaffinities>  (85) 
[6.81443, 6.47708]

>  <score>  (85) 
6.81443

>  <index>  (85) 
87

>  <Smiles>  (85) 
C([C@]1(C(N(c2c(nc(c3c(c(c(c(c23)[H])[H])[H])[H])[H])[H])C(=O)[C@]21C(N(C(c1c(c(nn1C([H])([H])[H])[H])[H])([H])[H])C(=O)c1c(c(c(F)c(c21)[H])[H])[H])([H])[H])([H])[H])[H])([H])([H])[H]

>  <h>  (85) 
<NA>

>  <Training>  (85) 
True

>  <Success>  (85) 
True

>  <enamine_searched>  (85) 
False

>  <enamine_id>  (85) 
nan

$$$$

     RDKit          3D

 40 42  0  0  0  0  0  0  0  0999 V2000
   -8.8029   -3.2992  -21.4693 O   0  0  0  0  0  0  0  0  0  0  0  0
   -7.6648   -2.8642  -21.5769 C   0  0  0  0  0  0  0  0  0  0  0  0
   -7.4030   -1.3755  -21.3448 C   0  0  0  0  0  0  0  0  0  0  0  0
   -6.4284   -0.9887  -20.2561 C   0  0  0  0  0  0  0  0  0  0  0  0
   -6.6954   -1.2979  -18.9455 C   0  0  0  0  0  0  0  0  0  0  0  0
   -5.8678   -1.0237  -17.9099 N   0  0  0  0  0  0  0  0  0  0  0  0
   -4.7465   -0.3920  -18.1700 C   0  0  0  0  0  0  0  0  0  0  0  0
   -4.3712    0.0499  -19.4648 C   0  0  0  0  0  0  0  0  0  0  0  0
   -3.2028    0.8236  -19.6929 C   0  0  0  0  0  0  0  0  0  0  0  0
   -2.9476    1.3575  -20.9247 C   0  0  0  0  0  0  0  0  0  0  0  0
   -3.8160    1.0799  -22.0017 C   0  0  0  0  0  0  0  0  0  0  0  0
   -4.9113    0.2709  -21.8210 C   0  0  0  0  0  0  0  0  0  0  0  0
   -5.2475   -0.2373  -20.5416 C   0  0  0  0  0  0  0  0  0  0  0  0
   -5.4937   -0.0197  -22.6912 H   0  0  0  0  0  0  0  0  0  0  0  0
   -3.6152    1.4979  -22.9813 H   0  0  0  0  0  0  0  0  0  0  0  0
   -2.0912    2.0065  -21.0875 H   0  0  0  0  0  0  0  0  0  0  0  0
   -2.5593    1.0390  -18.8413 H   0  0  0  0  0  0  0  0  0  0  0  0
   -4.0695   -0.1818  -17.3375 H   0  0  0  0  0  0  0  0  0  0  0  0
   -7.6244   -1.8113  -18.6794 H   0  0  0  0  0  0  0  0  0  0  0  0
   -7.1281   -0.9458  -22.3100 H   0  0  0  0  0  0  0  0  0  0  0  0
   -8.3720   -0.9469  -21.0912 H   0  0  0  0  0  0  0  0  0  0  0  0
   -6.6293   -3.6754  -22.0039 N   0  0  0  0  0  0  0  0  0  0  0  0
   -7.0980   -4.8715  -22.7113 C   0  0  0  0  0  0  0  0  0  0  0  0
   -6.0423   -5.9482  -22.8389 C   0  0  0  0  0  0  0  0  0  0  0  0
   -4.7857   -5.3861  -23.4972 C   0  0  0  0  0  0  0  0  0  0  0  0
   -3.7195   -6.4542  -23.6327 C   0  0  0  0  0  0  0  0  0  0  0  0
   -3.4360   -6.9867  -22.4050 F   0  0  0  0  0  0  0  0  0  0  0  0
   -4.1629   -7.4745  -24.4229 F   0  0  0  0  0  0  0  0  0  0  0  0
   -2.7839   -6.0733  -24.0591 H   0  0  0  0  0  0  0  0  0  0  0  0
   -4.2991   -4.2194  -22.6406 C   0  0  0  0  0  0  0  0  0  0  0  0
   -5.3530   -3.1264  -22.4876 C   0  0  0  0  0  0  0  0  0  0  0  0
   -5.4832   -2.5982  -23.4494 H   0  0  0  0  0  0  0  0  0  0  0  0
   -4.9632   -2.4133  -21.7587 H   0  0  0  0  0  0  0  0  0  0  0  0
   -4.0684   -4.6019  -21.6467 H   0  0  0  0  0  0  0  0  0  0  0  0
   -3.3749   -3.7835  -23.0382 H   0  0  0  0  0  0  0  0  0  0  0  0
   -5.0272   -5.0321  -24.5133 H   0  0  0  0  0  0  0  0  0  0  0  0
   -6.4658   -6.7731  -23.4209 H   0  0  0  0  0  0  0  0  0  0  0  0
   -5.7905   -6.3486  -21.8503 H   0  0  0  0  0  0  0  0  0  0  0  0
   -7.4536   -4.5795  -23.7142 H   0  0  0  0  0  0  0  0  0  0  0  0
   -7.9591   -5.2530  -22.1621 H   0  0  0  0  0  0  0  0  0  0  0  0
  1  2  2  0
  2  3  1  0
  3  4  1  0
  4  5  2  0
  5  6  1  0
  6  7  2  0
  7  8  1  0
  8  9  2  0
  9 10  1  0
 10 11  2  0
 11 12  1  0
 12 13  2  0
 12 14  1  0
 11 15  1  0
 10 16  1  0
  9 17  1  0
  7 18  1  0
  5 19  1  0
  3 20  1  0
  3 21  1  0
  2 22  1  0
 22 23  1  0
 23 24  1  0
 24 25  1  0
 25 26  1  0
 26 27  1  0
 26 28  1  0
 26 29  1  0
 25 30  1  0
 30 31  1  0
 31 32  1  0
 31 33  1  0
 30 34  1  0
 30 35  1  0
 25 36  1  0
 24 37  1  0
 24 38  1  0
 23 39  1  0
 23 40  1  0
 13  4  1  0
 31 22  1  0
 13  8  1  0
M  END
>  <cnnaffinities>  (86) 
[5.38539, 5.28602, 4.88683, 4.88683, 4.88682, 5.48533, 5.49657, 5.51548, 5.51545, 5.51506]

>  <score>  (86) 
5.38539

>  <index>  (86) 
88

>  <Smiles>  (86) 
O=C(C(c1c(nc(c2c(c(c(c(c12)[H])[H])[H])[H])[H])[H])([H])[H])N1C(C(C(C(F)(F)[H])(C(C1([H])[H])([H])[H])[H])([H])[H])([H])[H]

>  <h>  (86) 
<NA>

>  <Training>  (86) 
True

>  <Success>  (86) 
True

>  <enamine_searched>  (86) 
False

>  <enamine_id>  (86) 
nan

$$$$

     RDKit          3D

 43 45  0  0  0  0  0  0  0  0999 V2000
   -6.2527    1.4955  -26.6447 C   0  0  0  0  0  0  0  0  0  0  0  0
   -7.4331    1.1171  -25.7456 C   0  0  0  0  0  0  0  0  0  0  0  0
   -8.7296    1.3500  -26.5342 C   0  0  0  0  0  0  0  0  0  0  0  0
   -9.6317    1.1127  -25.9647 H   0  0  0  0  0  0  0  0  0  0  0  0
   -8.7485    0.7405  -27.4442 H   0  0  0  0  0  0  0  0  0  0  0  0
   -8.8058    2.4000  -26.8381 H   0  0  0  0  0  0  0  0  0  0  0  0
   -7.2759   -0.3595  -25.3358 C   0  0  0  0  0  0  0  0  0  0  0  0
   -8.2396   -0.7796  -24.2298 C   0  0  0  0  0  0  0  0  0  0  0  0
   -8.1429    0.1334  -23.0902 N   0  0  0  0  0  0  0  0  0  0  0  0
   -8.3157   -0.2455  -21.7677 C   0  0  0  0  0  0  0  0  0  0  0  0
   -9.0487    0.3548  -21.0098 O   0  0  0  0  0  0  0  0  0  0  0  0
   -7.4708   -1.4358  -21.2972 C   0  0  0  0  0  0  0  0  0  0  0  0
   -6.4795   -1.0356  -20.2235 C   0  0  0  0  0  0  0  0  0  0  0  0
   -6.7268   -1.2972  -18.9043 C   0  0  0  0  0  0  0  0  0  0  0  0
   -5.8916   -1.0229  -17.8667 N   0  0  0  0  0  0  0  0  0  0  0  0
   -4.7643   -0.4313  -18.1645 C   0  0  0  0  0  0  0  0  0  0  0  0
   -4.4157   -0.0036  -19.4743 C   0  0  0  0  0  0  0  0  0  0  0  0
   -3.2619    0.7854  -19.7254 C   0  0  0  0  0  0  0  0  0  0  0  0
   -3.0432    1.3284  -20.9613 C   0  0  0  0  0  0  0  0  0  0  0  0
   -3.9070    1.0029  -22.0244 C   0  0  0  0  0  0  0  0  0  0  0  0
   -4.9910    0.1863  -21.8310 C   0  0  0  0  0  0  0  0  0  0  0  0
   -5.2917   -0.3153  -20.5376 C   0  0  0  0  0  0  0  0  0  0  0  0
   -5.6650   -0.0383  -22.6530 H   0  0  0  0  0  0  0  0  0  0  0  0
   -3.7396    1.4439  -23.0026 H   0  0  0  0  0  0  0  0  0  0  0  0
   -2.2277    2.0293  -21.1225 H   0  0  0  0  0  0  0  0  0  0  0  0
   -2.5859    0.9877  -18.9006 H   0  0  0  0  0  0  0  0  0  0  0  0
   -4.0775   -0.2137  -17.3453 H   0  0  0  0  0  0  0  0  0  0  0  0
   -7.6731   -1.7523  -18.6272 H   0  0  0  0  0  0  0  0  0  0  0  0
   -8.1658   -2.1891  -20.9055 H   0  0  0  0  0  0  0  0  0  0  0  0
   -6.9455   -1.8618  -22.1572 H   0  0  0  0  0  0  0  0  0  0  0  0
   -8.4075    1.5285  -23.4176 C   0  0  0  0  0  0  0  0  0  0  0  0
   -7.4100    1.9895  -24.4768 C   0  0  0  0  0  0  0  0  0  0  0  0
   -7.5763    3.0430  -24.7331 H   0  0  0  0  0  0  0  0  0  0  0  0
   -6.4060    1.9336  -24.0329 H   0  0  0  0  0  0  0  0  0  0  0  0
   -9.4479    1.6766  -23.7415 H   0  0  0  0  0  0  0  0  0  0  0  0
   -8.2889    2.1038  -22.4979 H   0  0  0  0  0  0  0  0  0  0  0  0
   -9.2673   -0.7982  -24.6271 H   0  0  0  0  0  0  0  0  0  0  0  0
   -8.0309   -1.7980  -23.8984 H   0  0  0  0  0  0  0  0  0  0  0  0
   -6.2479   -0.5130  -24.9835 H   0  0  0  0  0  0  0  0  0  0  0  0
   -7.3944   -1.0054  -26.2151 H   0  0  0  0  0  0  0  0  0  0  0  0
   -5.2987    1.3397  -26.1296 H   0  0  0  0  0  0  0  0  0  0  0  0
   -6.3029    2.5477  -26.9471 H   0  0  0  0  0  0  0  0  0  0  0  0
   -6.2428    0.8832  -27.5542 H   0  0  0  0  0  0  0  0  0  0  0  0
  1  2  1  0
  2  3  1  0
  3  4  1  0
  3  5  1  0
  3  6  1  0
  2  7  1  0
  7  8  1  0
  8  9  1  0
  9 10  1  0
 10 11  2  0
 10 12  1  0
 12 13  1  0
 13 14  2  0
 14 15  1  0
 15 16  2  0
 16 17  1  0
 17 18  2  0
 18 19  1  0
 19 20  2  0
 20 21  1  0
 21 22  2  0
 21 23  1  0
 20 24  1  0
 19 25  1  0
 18 26  1  0
 16 27  1  0
 14 28  1  0
 12 29  1  0
 12 30  1  0
  9 31  1  0
 31 32  1  0
 32 33  1  0
 32 34  1  0
 31 35  1  0
 31 36  1  0
  8 37  1  0
  8 38  1  0
  7 39  1  0
  7 40  1  0
  1 41  1  0
  1 42  1  0
  1 43  1  0
 32  2  1  0
 22 13  1  0
 22 17  1  0
M  END
>  <cnnaffinities>  (87) 
[5.06089, 5.06085, 5.06085, 5.06085, 4.97905, 4.91677, 4.91676, 4.91678]

>  <score>  (87) 
5.06089

>  <index>  (87) 
89

>  <Smiles>  (87) 
C(C1(C([H])([H])[H])C(C(N(C(=O)C(c2c(nc(c3c(c(c(c(c23)[H])[H])[H])[H])[H])[H])([H])[H])C(C1([H])[H])([H])[H])([H])[H])([H])[H])([H])([H])[H]

>  <h>  (87) 
<NA>

>  <Training>  (87) 
True

>  <Success>  (87) 
True

>  <enamine_searched>  (87) 
False

>  <enamine_id>  (87) 
nan

$$$$

     RDKit          3D

 64 68  0  0  0  0  0  0  0  0999 V2000
   -7.3227    3.3680  -21.8973 C   0  0  0  0  0  0  0  0  0  0  0  0
   -8.2733    2.8681  -22.8771 N   0  0  0  0  0  0  0  0  0  0  0  0
   -7.7882    2.1654  -23.9374 C   0  0  0  0  0  0  0  0  0  0  0  0
   -6.5888    1.9857  -24.0981 O   0  0  0  0  0  0  0  0  0  0  0  0
   -8.8254    1.5844  -24.9052 C   0  0  0  0  0  0  0  0  0  0  0  0
   -9.4817    0.4386  -24.3012 N   0  0  0  0  0  0  0  0  0  0  0  0
   -8.7200   -0.7927  -24.1346 C   0  0  0  0  0  0  0  0  0  0  0  0
   -9.0930   -1.5410  -22.8256 C   0  0  2  0  0  0  0  0  0  0  0  0
   -8.5299   -0.7786  -21.5955 C   0  0  0  0  0  0  0  0  0  0  0  0
   -8.9828    0.2135  -21.0607 O   0  0  0  0  0  0  0  0  0  0  0  0
   -7.3833   -1.4240  -21.1976 N   0  0  0  0  0  0  0  0  0  0  0  0
   -6.5310   -0.9473  -20.1796 C   0  0  0  0  0  0  0  0  0  0  0  0
   -6.7461   -1.2955  -18.8719 C   0  0  0  0  0  0  0  0  0  0  0  0
   -5.8521   -1.0852  -17.8778 N   0  0  0  0  0  0  0  0  0  0  0  0
   -4.7236   -0.4972  -18.1943 C   0  0  0  0  0  0  0  0  0  0  0  0
   -4.4067   -0.0278  -19.5028 C   0  0  0  0  0  0  0  0  0  0  0  0
   -3.2161    0.6989  -19.7719 C   0  0  0  0  0  0  0  0  0  0  0  0
   -3.0003    1.2375  -21.0087 C   0  0  0  0  0  0  0  0  0  0  0  0
   -3.9425    1.0393  -22.0454 C   0  0  0  0  0  0  0  0  0  0  0  0
   -5.0604    0.2685  -21.8307 C   0  0  0  0  0  0  0  0  0  0  0  0
   -5.3473   -0.2323  -20.5312 C   0  0  0  0  0  0  0  0  0  0  0  0
   -5.7500    0.0586  -22.6444 H   0  0  0  0  0  0  0  0  0  0  0  0
   -3.7825    1.4770  -23.0261 H   0  0  0  0  0  0  0  0  0  0  0  0
   -2.1245    1.8536  -21.1905 H   0  0  0  0  0  0  0  0  0  0  0  0
   -2.5439    0.8874  -18.9396 H   0  0  0  0  0  0  0  0  0  0  0  0
   -3.9948   -0.3461  -17.3954 H   0  0  0  0  0  0  0  0  0  0  0  0
   -7.6711   -1.7943  -18.5954 H   0  0  0  0  0  0  0  0  0  0  0  0
   -7.0384   -2.6023  -21.9579 C   0  0  0  0  0  0  0  0  0  0  0  0
   -8.3392   -2.9056  -22.7134 C   0  0  2  0  0  0  0  0  0  0  0  0
   -8.1043   -3.6435  -24.0303 C   0  0  0  0  0  0  0  0  0  0  0  0
   -7.4464   -5.2878  -23.7377 S   0  0  0  0  0  0  0  0  0  0  0  0
   -8.4317   -6.0451  -22.9845 O   0  0  0  0  0  0  0  0  0  0  0  0
   -6.0744   -5.1435  -23.2650 O   0  0  0  0  0  0  0  0  0  0  0  0
   -7.3367   -5.9529  -25.2364 N   0  0  0  0  0  0  0  0  0  0  0  0
   -8.5101   -6.4387  -25.9389 C   0  0  0  0  0  0  0  0  0  0  0  0
   -9.0603   -7.1188  -25.2845 H   0  0  0  0  0  0  0  0  0  0  0  0
   -8.1731   -6.9973  -26.8150 H   0  0  0  0  0  0  0  0  0  0  0  0
   -9.1865   -5.6443  -26.2856 H   0  0  0  0  0  0  0  0  0  0  0  0
   -6.5378   -5.6424  -25.7700 H   0  0  0  0  0  0  0  0  0  0  0  0
   -7.3732   -3.1091  -24.6496 H   0  0  0  0  0  0  0  0  0  0  0  0
   -9.0438   -3.7484  -24.5819 H   0  0  0  0  0  0  0  0  0  0  0  0
   -8.9257   -3.5589  -22.0642 H   0  0  0  0  0  0  0  0  0  0  0  0
   -6.1982   -2.4140  -22.6412 H   0  0  0  0  0  0  0  0  0  0  0  0
   -6.7336   -3.4253  -21.3028 H   0  0  0  0  0  0  0  0  0  0  0  0
  -10.6079   -1.6326  -22.7565 C   0  0  0  0  0  0  0  0  0  0  0  0
  -11.2389   -2.5896  -21.9493 C   0  0  0  0  0  0  0  0  0  0  0  0
  -12.6162   -2.6115  -21.8497 C   0  0  0  0  0  0  0  0  0  0  0  0
  -13.1904   -3.5262  -21.0473 F   0  0  0  0  0  0  0  0  0  0  0  0
  -13.4268   -1.7155  -22.5378 C   0  0  0  0  0  0  0  0  0  0  0  0
  -12.8136   -0.7585  -23.3211 C   0  0  0  0  0  0  0  0  0  0  0  0
  -11.4225   -0.6967  -23.4140 C   0  0  0  0  0  0  0  0  0  0  0  0
  -10.8444    0.4463  -24.1887 C   0  0  0  0  0  0  0  0  0  0  0  0
  -11.5470    1.3293  -24.6626 O   0  0  0  0  0  0  0  0  0  0  0  0
  -13.3986   -0.0216  -23.8617 H   0  0  0  0  0  0  0  0  0  0  0  0
  -14.5039   -1.7697  -22.4266 H   0  0  0  0  0  0  0  0  0  0  0  0
  -10.6815   -3.3168  -21.3692 H   0  0  0  0  0  0  0  0  0  0  0  0
   -8.9130   -1.4465  -24.9956 H   0  0  0  0  0  0  0  0  0  0  0  0
   -7.6538   -0.5437  -24.1345 H   0  0  0  0  0  0  0  0  0  0  0  0
   -8.3094    1.3019  -25.8301 H   0  0  0  0  0  0  0  0  0  0  0  0
   -9.6073    2.3059  -25.1659 H   0  0  0  0  0  0  0  0  0  0  0  0
   -9.2154    2.6866  -22.5541 H   0  0  0  0  0  0  0  0  0  0  0  0
   -6.7210    2.5446  -21.4849 H   0  0  0  0  0  0  0  0  0  0  0  0
   -7.8582    3.8941  -21.1048 H   0  0  0  0  0  0  0  0  0  0  0  0
   -6.6431    4.0867  -22.3621 H   0  0  0  0  0  0  0  0  0  0  0  0
  1  2  1  0
  2  3  1  0
  3  4  2  0
  3  5  1  0
  5  6  1  0
  6  7  1  0
  8  7  1  6
  8  9  1  0
  9 10  2  0
  9 11  1  0
 11 12  1  0
 12 13  2  0
 13 14  1  0
 14 15  2  0
 15 16  1  0
 16 17  2  0
 17 18  1  0
 18 19  2  0
 19 20  1  0
 20 21  2  0
 20 22  1  0
 19 23  1  0
 18 24  1  0
 17 25  1  0
 15 26  1  0
 13 27  1  0
 11 28  1  0
 28 29  1  0
 29 30  1  0
 30 31  1  0
 31 32  2  0
 31 33  2  0
 31 34  1  0
 34 35  1  0
 35 36  1  0
 35 37  1  0
 35 38  1  0
 34 39  1  0
 30 40  1  0
 30 41  1  0
 29 42  1  1
 28 43  1  0
 28 44  1  0
  8 45  1  0
 45 46  2  0
 46 47  1  0
 47 48  1  0
 47 49  2  0
 49 50  1  0
 50 51  2  0
 51 52  1  0
 52 53  2  0
 50 54  1  0
 49 55  1  0
 46 56  1  0
  7 57  1  0
  7 58  1  0
  5 59  1  0
  5 60  1  0
  2 61  1  0
  1 62  1  0
  1 63  1  0
  1 64  1  0
 52  6  1  0
 29  8  1  0
 51 45  1  0
 21 12  1  0
 21 16  1  0
M  END
>  <cnnaffinities>  (88) 
[7.0271, 6.88139, 6.95518]

>  <score>  (88) 
7.0271

>  <index>  (88) 
90

>  <Smiles>  (88) 
C(N(C(=O)C(N1C([C@@]2(C(=O)N(c3c(nc(c4c(c(c(c(c34)[H])[H])[H])[H])[H])[H])C([C@@]2(C(S(=O)(=O)N(C([H])([H])[H])[H])([H])[H])[H])([H])[H])c2c(c(F)c(c(c2C1=O)[H])[H])[H])([H])[H])([H])[H])[H])([H])([H])[H]

>  <h>  (88) 
<NA>

>  <Training>  (88) 
True

>  <Success>  (88) 
True

>  <enamine_searched>  (88) 
False

>  <enamine_id>  (88) 
nan

$$$$

     RDKit          3D

 66 71  0  0  0  0  0  0  0  0999 V2000
   -7.1437    3.3364  -21.9346 C   0  0  0  0  0  0  0  0  0  0  0  0
   -8.0792    2.8272  -22.9178 N   0  0  0  0  0  0  0  0  0  0  0  0
   -7.6245    2.2737  -24.0704 C   0  0  0  0  0  0  0  0  0  0  0  0
   -6.4414    2.2055  -24.3682 O   0  0  0  0  0  0  0  0  0  0  0  0
   -8.7411    1.7107  -24.9549 C   0  0  0  0  0  0  0  0  0  0  0  0
   -9.4709    0.6933  -24.2162 N   0  0  0  0  0  0  0  0  0  0  0  0
   -8.7536   -0.5551  -24.0392 C   0  0  0  0  0  0  0  0  0  0  0  0
   -9.1673   -1.3221  -22.7649 C   0  0  2  0  0  0  0  0  0  0  0  0
   -8.5853   -0.6240  -21.5052 C   0  0  0  0  0  0  0  0  0  0  0  0
   -9.0050    0.3772  -20.9627 O   0  0  0  0  0  0  0  0  0  0  0  0
   -7.4696   -1.3267  -21.1075 N   0  0  0  0  0  0  0  0  0  0  0  0
   -6.5381   -0.9098  -20.1229 C   0  0  0  0  0  0  0  0  0  0  0  0
   -6.6781   -1.3403  -18.8280 C   0  0  0  0  0  0  0  0  0  0  0  0
   -5.7726   -1.1083  -17.8474 N   0  0  0  0  0  0  0  0  0  0  0  0
   -4.6853   -0.4522  -18.1661 C   0  0  0  0  0  0  0  0  0  0  0  0
   -4.3955    0.0232  -19.4769 C   0  0  0  0  0  0  0  0  0  0  0  0
   -3.1821    0.6924  -19.7856 C   0  0  0  0  0  0  0  0  0  0  0  0
   -2.9513    1.1645  -21.0478 C   0  0  0  0  0  0  0  0  0  0  0  0
   -3.9136    0.9791  -22.0641 C   0  0  0  0  0  0  0  0  0  0  0  0
   -5.0906    0.3216  -21.7944 C   0  0  0  0  0  0  0  0  0  0  0  0
   -5.3536   -0.1938  -20.4919 C   0  0  0  0  0  0  0  0  0  0  0  0
   -5.8431    0.2440  -22.5751 H   0  0  0  0  0  0  0  0  0  0  0  0
   -3.7380    1.3743  -23.0595 H   0  0  0  0  0  0  0  0  0  0  0  0
   -2.0277    1.6857  -21.2733 H   0  0  0  0  0  0  0  0  0  0  0  0
   -2.4842    0.8760  -18.9758 H   0  0  0  0  0  0  0  0  0  0  0  0
   -3.9747   -0.2545  -17.3646 H   0  0  0  0  0  0  0  0  0  0  0  0
   -7.5698   -1.8990  -18.5433 H   0  0  0  0  0  0  0  0  0  0  0  0
   -7.1400   -2.4470  -21.9549 C   0  0  0  0  0  0  0  0  0  0  0  0
   -8.4419   -2.7017  -22.7229 C   0  0  2  0  0  0  0  0  0  0  0  0
   -8.1910   -3.3808  -24.0692 C   0  0  0  0  0  0  0  0  0  0  0  0
   -7.4542   -4.6035  -23.8683 N   0  0  0  0  0  0  0  0  0  0  0  0
   -6.9961   -5.3668  -24.8857 C   0  0  0  0  0  0  0  0  0  0  0  0
   -5.8786   -7.2276  -25.5475 C   0  0  0  0  0  0  0  0  0  0  0  0
   -6.3248   -6.4867  -24.5451 N   0  0  0  0  0  0  0  0  0  0  0  0
   -6.1171   -6.9190  -26.8905 C   0  0  0  0  0  0  0  0  0  0  0  0
   -6.8188   -5.7356  -27.1183 C   0  0  0  0  0  0  0  0  0  0  0  0
   -7.2520   -4.9467  -26.1361 N   0  0  0  0  0  0  0  0  0  0  0  0
   -7.0430   -5.3830  -28.1312 H   0  0  0  0  0  0  0  0  0  0  0  0
   -5.8142   -7.6027  -27.6847 H   0  0  0  0  0  0  0  0  0  0  0  0
   -5.3318   -8.1335  -25.2612 H   0  0  0  0  0  0  0  0  0  0  0  0
   -7.2866   -4.9324  -22.9349 H   0  0  0  0  0  0  0  0  0  0  0  0
   -9.1409   -3.5737  -24.5837 H   0  0  0  0  0  0  0  0  0  0  0  0
   -7.5980   -2.7349  -24.7279 H   0  0  0  0  0  0  0  0  0  0  0  0
   -9.0554   -3.3783  -22.1200 H   0  0  0  0  0  0  0  0  0  0  0  0
   -6.8342   -3.2976  -21.3365 H   0  0  0  0  0  0  0  0  0  0  0  0
   -6.2995   -2.2125  -22.6330 H   0  0  0  0  0  0  0  0  0  0  0  0
  -10.6840   -1.3623  -22.7294 C   0  0  0  0  0  0  0  0  0  0  0  0
  -11.3504   -2.3217  -21.9584 C   0  0  0  0  0  0  0  0  0  0  0  0
  -12.7325   -2.3415  -21.9056 C   0  0  0  0  0  0  0  0  0  0  0  0
  -13.5224   -3.5462  -20.9264 Cl  0  0  0  0  0  0  0  0  0  0  0  0
  -13.5061   -1.4159  -22.6048 C   0  0  0  0  0  0  0  0  0  0  0  0
  -12.8591   -0.4539  -23.3557 C   0  0  0  0  0  0  0  0  0  0  0  0
  -11.4654   -0.4118  -23.4106 C   0  0  0  0  0  0  0  0  0  0  0  0
  -10.8431    0.6996  -24.2070 C   0  0  0  0  0  0  0  0  0  0  0  0
  -11.5118    1.5547  -24.7756 O   0  0  0  0  0  0  0  0  0  0  0  0
  -13.4120    0.2984  -23.9103 H   0  0  0  0  0  0  0  0  0  0  0  0
  -14.5886   -1.4478  -22.5398 H   0  0  0  0  0  0  0  0  0  0  0  0
  -10.8051   -3.0565  -21.3775 H   0  0  0  0  0  0  0  0  0  0  0  0
   -7.6828   -0.3287  -24.0048 H   0  0  0  0  0  0  0  0  0  0  0  0
   -8.9498   -1.1982  -24.9072 H   0  0  0  0  0  0  0  0  0  0  0  0
   -8.2821    1.2979  -25.8610 H   0  0  0  0  0  0  0  0  0  0  0  0
   -9.4646    2.4808  -25.2373 H   0  0  0  0  0  0  0  0  0  0  0  0
   -8.9963    2.5430  -22.5945 H   0  0  0  0  0  0  0  0  0  0  0  0
   -6.4149    3.9842  -22.4314 H   0  0  0  0  0  0  0  0  0  0  0  0
   -6.5989    2.5183  -21.4361 H   0  0  0  0  0  0  0  0  0  0  0  0
   -7.6987    3.9262  -21.1986 H   0  0  0  0  0  0  0  0  0  0  0  0
  1  2  1  0
  2  3  1  0
  3  4  2  0
  3  5  1  0
  5  6  1  0
  6  7  1  0
  8  7  1  6
  8  9  1  0
  9 10  2  0
  9 11  1  0
 11 12  1  0
 12 13  2  0
 13 14  1  0
 14 15  2  0
 15 16  1  0
 16 17  2  0
 17 18  1  0
 18 19  2  0
 19 20  1  0
 20 21  2  0
 20 22  1  0
 19 23  1  0
 18 24  1  0
 17 25  1  0
 15 26  1  0
 13 27  1  0
 11 28  1  0
 28 29  1  0
 29 30  1  0
 30 31  1  0
 31 32  1  0
 32 33  2  0
 33 34  1  0
 34 35  2  0
 35 36  1  0
 36 37  2  0
 36 38  1  0
 35 39  1  0
 33 40  1  0
 31 41  1  0
 30 42  1  0
 30 43  1  0
 29 44  1  1
 28 45  1  0
 28 46  1  0
  8 47  1  0
 47 48  2  0
 48 49  1  0
 49 50  1  0
 49 51  2  0
 51 52  1  0
 52 53  2  0
 53 54  1  0
 54 55  2  0
 52 56  1  0
 51 57  1  0
 48 58  1  0
  7 59  1  0
  7 60  1  0
  5 61  1  0
  5 62  1  0
  2 63  1  0
  1 64  1  0
  1 65  1  0
  1 66  1  0
 54  6  1  0
 29  8  1  0
 37 32  1  0
 53 47  1  0
 21 12  1  0
 21 16  1  0
M  END
>  <cnnaffinities>  (89) 
[7.20087]

>  <score>  (89) 
7.20087

>  <index>  (89) 
91

>  <Smiles>  (89) 
C(N(C(=O)C(N1C([C@@]2(C(=O)N(c3c(nc(c4c(c(c(c(c34)[H])[H])[H])[H])[H])[H])C([C@@]2(C(N(c2c(nc(c(n2)[H])[H])[H])[H])([H])[H])[H])([H])[H])c2c(c(Cl)c(c(c2C1=O)[H])[H])[H])([H])[H])([H])[H])[H])([H])([H])[H]

>  <h>  (89) 
<NA>

>  <Training>  (89) 
True

>  <Success>  (89) 
True

>  <enamine_searched>  (89) 
False

>  <enamine_id>  (89) 
nan

$$$$

     RDKit          3D

 60 65  0  0  0  0  0  0  0  0999 V2000
   -8.2964   -6.0212  -23.7718 C   0  0  0  0  0  0  0  0  0  0  0  0
   -7.4204   -4.9246  -23.7714 O   0  0  0  0  0  0  0  0  0  0  0  0
   -8.0564   -3.6870  -24.0099 C   0  0  0  0  0  0  0  0  0  0  0  0
   -8.3391   -2.9572  -22.6980 C   0  0  1  0  0  0  0  0  0  0  0  0
   -7.0347   -2.5937  -21.9722 C   0  0  0  0  0  0  0  0  0  0  0  0
   -7.3835   -1.4080  -21.2288 N   0  0  0  0  0  0  0  0  0  0  0  0
   -6.5312   -0.9313  -20.2068 C   0  0  0  0  0  0  0  0  0  0  0  0
   -6.7854   -1.2239  -18.8936 C   0  0  0  0  0  0  0  0  0  0  0  0
   -5.9376   -0.9523  -17.8697 N   0  0  0  0  0  0  0  0  0  0  0  0
   -4.8123   -0.3476  -18.1590 C   0  0  0  0  0  0  0  0  0  0  0  0
   -4.4533    0.0648  -19.4728 C   0  0  0  0  0  0  0  0  0  0  0  0
   -3.2896    0.8326  -19.7241 C   0  0  0  0  0  0  0  0  0  0  0  0
   -3.0550    1.3425  -20.9732 C   0  0  0  0  0  0  0  0  0  0  0  0
   -3.9085    1.0055  -22.0499 C   0  0  0  0  0  0  0  0  0  0  0  0
   -5.0000    0.1981  -21.8467 C   0  0  0  0  0  0  0  0  0  0  0  0
   -5.3273   -0.2420  -20.5367 C   0  0  0  0  0  0  0  0  0  0  0  0
   -5.6303   -0.1132  -22.6768 H   0  0  0  0  0  0  0  0  0  0  0  0
   -3.7099    1.4254  -23.0337 H   0  0  0  0  0  0  0  0  0  0  0  0
   -2.2154    2.0087  -21.1478 H   0  0  0  0  0  0  0  0  0  0  0  0
   -2.6482    1.0672  -18.8791 H   0  0  0  0  0  0  0  0  0  0  0  0
   -4.1235   -0.1200  -17.3426 H   0  0  0  0  0  0  0  0  0  0  0  0
   -7.7071   -1.7409  -18.6400 H   0  0  0  0  0  0  0  0  0  0  0  0
   -8.5841   -0.8315  -21.5780 C   0  0  0  0  0  0  0  0  0  0  0  0
   -9.0774    0.1291  -21.0303 O   0  0  0  0  0  0  0  0  0  0  0  0
   -9.1526   -1.6334  -22.7845 C   0  0  1  0  0  0  0  0  0  0  0  0
   -8.8488   -0.9061  -24.1189 C   0  0  0  0  0  0  0  0  0  0  0  0
   -9.6452    0.2874  -24.3004 N   0  0  0  0  0  0  0  0  0  0  0  0
   -8.9984    1.4962  -24.7880 C   0  0  0  0  0  0  0  0  0  0  0  0
   -8.4024    2.3407  -23.6897 C   0  0  0  0  0  0  0  0  0  0  0  0
   -7.0520    2.5505  -23.3307 C   0  0  0  0  0  0  0  0  0  0  0  0
   -6.9141    3.3993  -22.3169 N   0  0  0  0  0  0  0  0  0  0  0  0
   -8.1738    3.7424  -22.0218 N   0  0  0  0  0  0  0  0  0  0  0  0
   -9.0984    3.1270  -22.7986 C   0  0  0  0  0  0  0  0  0  0  0  0
  -10.1610    3.2770  -22.6428 H   0  0  0  0  0  0  0  0  0  0  0  0
   -8.3570    4.3650  -21.2463 H   0  0  0  0  0  0  0  0  0  0  0  0
   -6.1633    2.0940  -23.7480 H   0  0  0  0  0  0  0  0  0  0  0  0
   -9.7490    2.0663  -25.3425 H   0  0  0  0  0  0  0  0  0  0  0  0
   -8.2320    1.2024  -25.5133 H   0  0  0  0  0  0  0  0  0  0  0  0
  -10.9942    0.2957  -24.0780 C   0  0  0  0  0  0  0  0  0  0  0  0
  -11.7176    1.1981  -24.4738 O   0  0  0  0  0  0  0  0  0  0  0  0
  -11.5244   -0.8650  -23.2897 C   0  0  0  0  0  0  0  0  0  0  0  0
  -12.9079   -0.9688  -23.1330 C   0  0  0  0  0  0  0  0  0  0  0  0
  -13.4601   -1.9312  -22.3144 C   0  0  0  0  0  0  0  0  0  0  0  0
  -12.5906   -2.7853  -21.6423 C   0  0  0  0  0  0  0  0  0  0  0  0
  -13.2479   -3.9290  -20.5178 Cl  0  0  0  0  0  0  0  0  0  0  0  0
  -11.2208   -2.7249  -21.8140 C   0  0  0  0  0  0  0  0  0  0  0  0
  -10.6571   -1.7719  -22.6660 C   0  0  0  0  0  0  0  0  0  0  0  0
  -10.6013   -3.4098  -21.2485 H   0  0  0  0  0  0  0  0  0  0  0  0
  -14.5327   -2.0140  -22.1596 H   0  0  0  0  0  0  0  0  0  0  0  0
  -13.5417   -0.2560  -23.6429 H   0  0  0  0  0  0  0  0  0  0  0  0
   -7.7892   -0.6360  -24.1673 H   0  0  0  0  0  0  0  0  0  0  0  0
   -9.0453   -1.6002  -24.9442 H   0  0  0  0  0  0  0  0  0  0  0  0
   -6.2000   -2.4164  -22.6704 H   0  0  0  0  0  0  0  0  0  0  0  0
   -6.7195   -3.3739  -21.2760 H   0  0  0  0  0  0  0  0  0  0  0  0
   -8.8806   -3.6494  -22.0483 H   0  0  0  0  0  0  0  0  0  0  0  0
   -8.9780   -3.8163  -24.6016 H   0  0  0  0  0  0  0  0  0  0  0  0
   -7.3551   -3.0886  -24.6078 H   0  0  0  0  0  0  0  0  0  0  0  0
   -7.7183   -6.9030  -23.4849 H   0  0  0  0  0  0  0  0  0  0  0  0
   -9.1241   -5.8949  -23.0564 H   0  0  0  0  0  0  0  0  0  0  0  0
   -8.7218   -6.1922  -24.7722 H   0  0  0  0  0  0  0  0  0  0  0  0
  1  2  1  0
  2  3  1  0
  3  4  1  0
  4  5  1  0
  5  6  1  0
  6  7  1  0
  7  8  2  0
  8  9  1  0
  9 10  2  0
 10 11  1  0
 11 12  2  0
 12 13  1  0
 13 14  2  0
 14 15  1  0
 15 16  2  0
 15 17  1  0
 14 18  1  0
 13 19  1  0
 12 20  1  0
 10 21  1  0
  8 22  1  0
  6 23  1  0
 23 24  2  0
 23 25  1  0
 25 26  1  6
 26 27  1  0
 27 28  1  0
 28 29  1  0
 29 30  1  0
 30 31  2  0
 31 32  1  0
 32 33  1  0
 33 34  1  0
 32 35  1  0
 30 36  1  0
 28 37  1  0
 28 38  1  0
 27 39  1  0
 39 40  2  0
 39 41  1  0
 41 42  2  0
 42 43  1  0
 43 44  2  0
 44 45  1  0
 44 46  1  0
 46 47  2  0
 46 48  1  0
 43 49  1  0
 42 50  1  0
 26 51  1  0
 26 52  1  0
  5 53  1  0
  5 54  1  0
  4 55  1  1
  3 56  1  0
  3 57  1  0
  1 58  1  0
  1 59  1  0
  1 60  1  0
 25  4  1  0
 33 29  2  0
 47 41  1  0
 16  7  1  0
 47 25  1  0
 16 11  1  0
M  END
>  <cnnaffinities>  (90) 
[6.60957, 6.57383]

>  <score>  (90) 
6.60957

>  <index>  (90) 
92

>  <Smiles>  (90) 
C(OC([C@]1(C(N(c2c(nc(c3c(c(c(c(c23)[H])[H])[H])[H])[H])[H])C(=O)[C@]21C(N(C(c1c(nn(c1[H])[H])[H])([H])[H])C(=O)c1c(c(c(Cl)c(c21)[H])[H])[H])([H])[H])([H])[H])[H])([H])[H])([H])([H])[H]

>  <h>  (90) 
<NA>

>  <Training>  (90) 
True

>  <Success>  (90) 
True

>  <enamine_searched>  (90) 
False

>  <enamine_id>  (90) 
nan

$$$$

     RDKit          3D

 62 67  0  0  0  0  0  0  0  0999 V2000
  -11.6565    3.2016  -22.6849 C   0  0  0  0  0  0  0  0  0  0  0  0
  -10.8452    1.9451  -22.3698 C   0  0  0  0  0  0  0  0  0  0  0  0
   -9.5055    1.9520  -22.9424 N   0  0  0  0  0  0  0  0  0  0  0  0
   -8.5199    2.4850  -22.1980 N   0  0  0  0  0  0  0  0  0  0  0  0
   -7.4369    2.4589  -22.9585 C   0  0  0  0  0  0  0  0  0  0  0  0
   -7.7183    1.8915  -24.2171 C   0  0  0  0  0  0  0  0  0  0  0  0
   -9.0626    1.5747  -24.1723 C   0  0  0  0  0  0  0  0  0  0  0  0
   -9.8906    0.8127  -25.1637 C   0  0  0  0  0  0  0  0  0  0  0  0
  -10.3549   -0.4479  -24.5970 N   0  0  0  0  0  0  0  0  0  0  0  0
   -9.3567   -1.4572  -24.2768 C   0  0  0  0  0  0  0  0  0  0  0  0
   -9.5457   -2.1149  -22.8842 C   0  0  2  0  0  0  0  0  0  0  0  0
   -8.9058   -1.2607  -21.7351 C   0  0  0  0  0  0  0  0  0  0  0  0
   -9.4547   -0.4291  -21.0468 O   0  0  0  0  0  0  0  0  0  0  0  0
   -7.5811   -1.6364  -21.6051 N   0  0  0  0  0  0  0  0  0  0  0  0
   -6.7572   -1.3064  -20.5079 C   0  0  0  0  0  0  0  0  0  0  0  0
   -7.0296   -1.7425  -19.2318 C   0  0  0  0  0  0  0  0  0  0  0  0
   -6.1795   -1.5783  -18.1896 N   0  0  0  0  0  0  0  0  0  0  0  0
   -5.0369   -0.9797  -18.4123 C   0  0  0  0  0  0  0  0  0  0  0  0
   -4.6247   -0.5065  -19.6911 C   0  0  0  0  0  0  0  0  0  0  0  0
   -3.3649    0.1040  -19.9160 C   0  0  0  0  0  0  0  0  0  0  0  0
   -2.9957    0.4996  -21.1707 C   0  0  0  0  0  0  0  0  0  0  0  0
   -3.8590    0.2954  -22.2684 C   0  0  0  0  0  0  0  0  0  0  0  0
   -5.0869   -0.2838  -22.0750 C   0  0  0  0  0  0  0  0  0  0  0  0
   -5.5013   -0.6878  -20.7784 C   0  0  0  0  0  0  0  0  0  0  0  0
   -5.7558   -0.4467  -22.9108 H   0  0  0  0  0  0  0  0  0  0  0  0
   -3.5410    0.5836  -23.2648 H   0  0  0  0  0  0  0  0  0  0  0  0
   -2.0417    0.9919  -21.3295 H   0  0  0  0  0  0  0  0  0  0  0  0
   -2.6998    0.2456  -19.0718 H   0  0  0  0  0  0  0  0  0  0  0  0
   -4.3772   -0.8349  -17.5543 H   0  0  0  0  0  0  0  0  0  0  0  0
   -7.9564   -2.2632  -18.9961 H   0  0  0  0  0  0  0  0  0  0  0  0
   -7.2387   -2.8077  -22.3834 C   0  0  0  0  0  0  0  0  0  0  0  0
   -8.6182   -3.3682  -22.7445 C   0  0  2  0  0  0  0  0  0  0  0  0
   -8.5669   -4.3743  -23.8792 C   0  0  0  0  0  0  0  0  0  0  0  0
   -9.5609   -4.7519  -24.1378 H   0  0  0  0  0  0  0  0  0  0  0  0
   -7.9374   -5.2237  -23.5954 H   0  0  0  0  0  0  0  0  0  0  0  0
   -8.1172   -3.9321  -24.7754 H   0  0  0  0  0  0  0  0  0  0  0  0
   -8.9688   -3.8583  -21.8337 H   0  0  0  0  0  0  0  0  0  0  0  0
   -6.6387   -2.5672  -23.2790 H   0  0  0  0  0  0  0  0  0  0  0  0
   -6.6507   -3.5053  -21.7761 H   0  0  0  0  0  0  0  0  0  0  0  0
  -11.0362   -2.3369  -22.6538 C   0  0  0  0  0  0  0  0  0  0  0  0
  -11.4578   -3.2314  -21.6612 C   0  0  0  0  0  0  0  0  0  0  0  0
  -12.7881   -3.2934  -21.3089 C   0  0  0  0  0  0  0  0  0  0  0  0
  -13.1448   -4.1140  -20.3069 F   0  0  0  0  0  0  0  0  0  0  0  0
  -13.7665   -2.5328  -21.9264 C   0  0  0  0  0  0  0  0  0  0  0  0
  -13.3781   -1.6982  -22.9593 C   0  0  0  0  0  0  0  0  0  0  0  0
  -12.0362   -1.6159  -23.3357 C   0  0  0  0  0  0  0  0  0  0  0  0
  -11.6955   -0.6732  -24.4495 C   0  0  0  0  0  0  0  0  0  0  0  0
  -12.5526   -0.1021  -25.1135 O   0  0  0  0  0  0  0  0  0  0  0  0
  -14.1108   -1.1017  -23.4883 H   0  0  0  0  0  0  0  0  0  0  0  0
  -14.7908   -2.6443  -21.5997 H   0  0  0  0  0  0  0  0  0  0  0  0
  -10.7578   -3.8839  -21.1513 H   0  0  0  0  0  0  0  0  0  0  0  0
   -9.3823   -2.2460  -25.0418 H   0  0  0  0  0  0  0  0  0  0  0  0
   -8.3809   -0.9700  -24.3384 H   0  0  0  0  0  0  0  0  0  0  0  0
   -9.2676    0.6200  -26.0475 H   0  0  0  0  0  0  0  0  0  0  0  0
  -10.7703    1.3735  -25.4991 H   0  0  0  0  0  0  0  0  0  0  0  0
   -7.0400    1.6691  -25.0267 H   0  0  0  0  0  0  0  0  0  0  0  0
   -6.5054    2.8449  -22.5606 H   0  0  0  0  0  0  0  0  0  0  0  0
  -11.3763    1.0542  -22.7187 H   0  0  0  0  0  0  0  0  0  0  0  0
  -10.6753    1.8125  -21.2996 H   0  0  0  0  0  0  0  0  0  0  0  0
  -12.0102    3.1782  -23.7239 H   0  0  0  0  0  0  0  0  0  0  0  0
  -11.0614    4.1081  -22.5306 H   0  0  0  0  0  0  0  0  0  0  0  0
  -12.5368    3.2578  -22.0337 H   0  0  0  0  0  0  0  0  0  0  0  0
  1  2  1  0
  2  3  1  0
  3  4  1  0
  4  5  2  0
  5  6  1  0
  6  7  2  0
  7  8  1  0
  8  9  1  0
  9 10  1  0
 11 10  1  6
 11 12  1  0
 12 13  2  0
 12 14  1  0
 14 15  1  0
 15 16  2  0
 16 17  1  0
 17 18  2  0
 18 19  1  0
 19 20  2  0
 20 21  1  0
 21 22  2  0
 22 23  1  0
 23 24  2  0
 23 25  1  0
 22 26  1  0
 21 27  1  0
 20 28  1  0
 18 29  1  0
 16 30  1  0
 14 31  1  0
 31 32  1  0
 32 33  1  0
 33 34  1  0
 33 35  1  0
 33 36  1  0
 32 37  1  1
 31 38  1  0
 31 39  1  0
 11 40  1  0
 40 41  2  0
 41 42  1  0
 42 43  1  0
 42 44  2  0
 44 45  1  0
 45 46  2  0
 46 47  1  0
 47 48  2  0
 45 49  1  0
 44 50  1  0
 41 51  1  0
 10 52  1  0
 10 53  1  0
  8 54  1  0
  8 55  1  0
  6 56  1  0
  5 57  1  0
  2 58  1  0
  2 59  1  0
  1 60  1  0
  1 61  1  0
  1 62  1  0
  7  3  1  0
 47  9  1  0
 32 11  1  0
 46 40  1  0
 24 15  1  0
 24 19  1  0
M  END
>  <cnnaffinities>  (91) 
[6.78095, 6.97854]

>  <score>  (91) 
6.78095

>  <index>  (91) 
93

>  <Smiles>  (91) 
C(C(n1nc(c(c1C(N1C([C@@]2(C(=O)N(c3c(nc(c4c(c(c(c(c34)[H])[H])[H])[H])[H])[H])C([C@@]2(C([H])([H])[H])[H])([H])[H])c2c(c(F)c(c(c2C1=O)[H])[H])[H])([H])[H])([H])[H])[H])[H])([H])[H])([H])([H])[H]

>  <h>  (91) 
<NA>

>  <Training>  (91) 
True

>  <Success>  (91) 
True

>  <enamine_searched>  (91) 
False

>  <enamine_id>  (91) 
nan

$$$$

     RDKit          3D

 66 71  0  0  0  0  0  0  0  0999 V2000
   -7.2816    3.3805  -21.9077 C   0  0  0  0  0  0  0  0  0  0  0  0
   -8.1762    2.9273  -22.9566 N   0  0  0  0  0  0  0  0  0  0  0  0
   -7.6392    2.2222  -23.9876 C   0  0  0  0  0  0  0  0  0  0  0  0
   -6.4364    2.0402  -24.0893 O   0  0  0  0  0  0  0  0  0  0  0  0
   -8.6249    1.6404  -25.0027 C   0  0  0  0  0  0  0  0  0  0  0  0
   -9.3232    0.5064  -24.4238 N   0  0  0  0  0  0  0  0  0  0  0  0
   -8.5819   -0.7359  -24.2396 C   0  0  0  0  0  0  0  0  0  0  0  0
   -9.0161   -1.4880  -22.9539 C   0  0  2  0  0  0  0  0  0  0  0  0
   -8.4782   -0.7460  -21.6998 C   0  0  0  0  0  0  0  0  0  0  0  0
   -8.9000    0.2811  -21.2091 O   0  0  0  0  0  0  0  0  0  0  0  0
   -7.3993   -1.4498  -21.2222 N   0  0  0  0  0  0  0  0  0  0  0  0
   -6.5350   -0.9707  -20.2113 C   0  0  0  0  0  0  0  0  0  0  0  0
   -6.7668   -1.2936  -18.9018 C   0  0  0  0  0  0  0  0  0  0  0  0
   -5.8793   -1.0750  -17.9008 N   0  0  0  0  0  0  0  0  0  0  0  0
   -4.7508   -0.4859  -18.2023 C   0  0  0  0  0  0  0  0  0  0  0  0
   -4.4186   -0.0339  -19.5095 C   0  0  0  0  0  0  0  0  0  0  0  0
   -3.2373    0.7075  -19.7679 C   0  0  0  0  0  0  0  0  0  0  0  0
   -3.0170    1.2520  -21.0026 C   0  0  0  0  0  0  0  0  0  0  0  0
   -3.9421    1.0310  -22.0539 C   0  0  0  0  0  0  0  0  0  0  0  0
   -5.0514    0.2467  -21.8460 C   0  0  0  0  0  0  0  0  0  0  0  0
   -5.3481   -0.2565  -20.5499 C   0  0  0  0  0  0  0  0  0  0  0  0
   -5.7243    0.0305  -22.6693 H   0  0  0  0  0  0  0  0  0  0  0  0
   -3.7768    1.4753  -23.0305 H   0  0  0  0  0  0  0  0  0  0  0  0
   -2.1546    1.8857  -21.1751 H   0  0  0  0  0  0  0  0  0  0  0  0
   -2.5740    0.9033  -18.9306 H   0  0  0  0  0  0  0  0  0  0  0  0
   -4.0318   -0.3231  -17.3960 H   0  0  0  0  0  0  0  0  0  0  0  0
   -7.6962   -1.7913  -18.6365 H   0  0  0  0  0  0  0  0  0  0  0  0
   -7.0605   -2.6301  -21.9784 C   0  0  0  0  0  0  0  0  0  0  0  0
   -8.3075   -2.8745  -22.8290 C   0  0  2  0  0  0  0  0  0  0  0  0
   -7.9388   -3.6224  -24.1051 C   0  0  0  0  0  0  0  0  0  0  0  0
   -9.1059   -3.9844  -24.8739 N   0  0  0  0  0  0  0  0  0  0  0  0
   -8.9990   -4.5991  -26.0800 C   0  0  0  0  0  0  0  0  0  0  0  0
  -10.1425   -4.9229  -26.8404 C   0  0  0  0  0  0  0  0  0  0  0  0
   -9.9222   -5.5349  -28.0495 C   0  0  0  0  0  0  0  0  0  0  0  0
   -8.6976   -5.8275  -28.5175 N   0  0  0  0  0  0  0  0  0  0  0  0
   -7.7010   -5.4883  -27.7144 C   0  0  0  0  0  0  0  0  0  0  0  0
   -7.7666   -4.8897  -26.5232 N   0  0  0  0  0  0  0  0  0  0  0  0
   -6.6999   -5.7263  -28.0762 H   0  0  0  0  0  0  0  0  0  0  0  0
  -10.7633   -5.8077  -28.6889 H   0  0  0  0  0  0  0  0  0  0  0  0
  -11.1481   -4.7107  -26.4865 H   0  0  0  0  0  0  0  0  0  0  0  0
  -10.0180   -3.7075  -24.5427 H   0  0  0  0  0  0  0  0  0  0  0  0
   -7.3856   -4.5349  -23.8490 H   0  0  0  0  0  0  0  0  0  0  0  0
   -7.2681   -3.0207  -24.7351 H   0  0  0  0  0  0  0  0  0  0  0  0
   -8.9710   -3.5285  -22.2566 H   0  0  0  0  0  0  0  0  0  0  0  0
   -6.8409   -3.4696  -21.3096 H   0  0  0  0  0  0  0  0  0  0  0  0
   -6.1680   -2.4779  -22.6059 H   0  0  0  0  0  0  0  0  0  0  0  0
  -10.5339   -1.5310  -22.9056 C   0  0  0  0  0  0  0  0  0  0  0  0
  -11.1910   -2.4131  -22.0369 C   0  0  0  0  0  0  0  0  0  0  0  0
  -12.5723   -2.4160  -21.9499 C   0  0  0  0  0  0  0  0  0  0  0  0
  -13.3488   -3.5103  -20.8392 Cl  0  0  0  0  0  0  0  0  0  0  0  0
  -13.3511   -1.5417  -22.7073 C   0  0  0  0  0  0  0  0  0  0  0  0
  -12.7090   -0.6309  -23.5231 C   0  0  0  0  0  0  0  0  0  0  0  0
  -11.3161   -0.5959  -23.5999 C   0  0  0  0  0  0  0  0  0  0  0  0
  -10.6922    0.5279  -24.3740 C   0  0  0  0  0  0  0  0  0  0  0  0
  -11.3626    1.4103  -24.8889 O   0  0  0  0  0  0  0  0  0  0  0  0
  -13.2710    0.0980  -24.0960 H   0  0  0  0  0  0  0  0  0  0  0  0
  -14.4327   -1.5556  -22.6213 H   0  0  0  0  0  0  0  0  0  0  0  0
  -10.6398   -3.0775  -21.3818 H   0  0  0  0  0  0  0  0  0  0  0  0
   -8.7325   -1.3875  -25.1128 H   0  0  0  0  0  0  0  0  0  0  0  0
   -7.5137   -0.5028  -24.1847 H   0  0  0  0  0  0  0  0  0  0  0  0
   -8.0680    1.3338  -25.8957 H   0  0  0  0  0  0  0  0  0  0  0  0
   -9.3786    2.3711  -25.3101 H   0  0  0  0  0  0  0  0  0  0  0  0
   -9.1338    2.7440  -22.6998 H   0  0  0  0  0  0  0  0  0  0  0  0
   -7.8638    3.8527  -21.1173 H   0  0  0  0  0  0  0  0  0  0  0  0
   -6.5875    4.1251  -22.3015 H   0  0  0  0  0  0  0  0  0  0  0  0
   -6.7002    2.5380  -21.5110 H   0  0  0  0  0  0  0  0  0  0  0  0
  1  2  1  0
  2  3  1  0
  3  4  2  0
  3  5  1  0
  5  6  1  0
  6  7  1  0
  8  7  1  6
  8  9  1  0
  9 10  2  0
  9 11  1  0
 11 12  1  0
 12 13  2  0
 13 14  1  0
 14 15  2  0
 15 16  1  0
 16 17  2  0
 17 18  1  0
 18 19  2  0
 19 20  1  0
 20 21  2  0
 20 22  1  0
 19 23  1  0
 18 24  1  0
 17 25  1  0
 15 26  1  0
 13 27  1  0
 11 28  1  0
 28 29  1  0
 29 30  1  0
 30 31  1  0
 31 32  1  0
 32 33  2  0
 33 34  1  0
 34 35  2  0
 35 36  1  0
 36 37  2  0
 36 38  1  0
 34 39  1  0
 33 40  1  0
 31 41  1  0
 30 42  1  0
 30 43  1  0
 29 44  1  1
 28 45  1  0
 28 46  1  0
  8 47  1  0
 47 48  2  0
 48 49  1  0
 49 50  1  0
 49 51  2  0
 51 52  1  0
 52 53  2  0
 53 54  1  0
 54 55  2  0
 52 56  1  0
 51 57  1  0
 48 58  1  0
  7 59  1  0
  7 60  1  0
  5 61  1  0
  5 62  1  0
  2 63  1  0
  1 64  1  0
  1 65  1  0
  1 66  1  0
 54  6  1  0
 29  8  1  0
 37 32  1  0
 53 47  1  0
 21 12  1  0
 21 16  1  0
M  END
>  <cnnaffinities>  (92) 
[6.72611, 6.73133, 7.19995]

>  <score>  (92) 
6.72611

>  <index>  (92) 
95

>  <Smiles>  (92) 
C(N(C(=O)C(N1C([C@@]2(C(=O)N(c3c(nc(c4c(c(c(c(c34)[H])[H])[H])[H])[H])[H])C([C@@]2(C(N(c2c(c(nc(n2)[H])[H])[H])[H])([H])[H])[H])([H])[H])c2c(c(Cl)c(c(c2C1=O)[H])[H])[H])([H])[H])([H])[H])[H])([H])([H])[H]

>  <h>  (92) 
<NA>

>  <Training>  (92) 
True

>  <Success>  (92) 
True

>  <enamine_searched>  (92) 
False

>  <enamine_id>  (92) 
nan

$$$$

     RDKit          3D

 66 70  0  0  0  0  0  0  0  0999 V2000
   -7.3981    3.2846  -21.9336 C   0  0  0  0  0  0  0  0  0  0  0  0
   -8.4072    2.7527  -22.8350 N   0  0  0  0  0  0  0  0  0  0  0  0
   -8.0041    2.0528  -23.9273 C   0  0  0  0  0  0  0  0  0  0  0  0
   -6.8187    1.8722  -24.1674 O   0  0  0  0  0  0  0  0  0  0  0  0
   -9.1027    1.4742  -24.8300 C   0  0  0  0  0  0  0  0  0  0  0  0
   -9.6687    0.2783  -24.2318 N   0  0  0  0  0  0  0  0  0  0  0  0
   -8.8271   -0.9026  -24.0996 C   0  0  0  0  0  0  0  0  0  0  0  0
   -9.1159   -1.6951  -22.7931 C   0  0  2  0  0  0  0  0  0  0  0  0
   -8.5579   -0.9131  -21.5683 C   0  0  0  0  0  0  0  0  0  0  0  0
   -9.0553    0.0427  -21.0112 O   0  0  0  0  0  0  0  0  0  0  0  0
   -7.3586   -1.4817  -21.2083 N   0  0  0  0  0  0  0  0  0  0  0  0
   -6.5254   -0.9666  -20.1864 C   0  0  0  0  0  0  0  0  0  0  0  0
   -6.7399   -1.3075  -18.8753 C   0  0  0  0  0  0  0  0  0  0  0  0
   -5.8454   -1.0867  -17.8809 N   0  0  0  0  0  0  0  0  0  0  0  0
   -4.7217   -0.4964  -18.1962 C   0  0  0  0  0  0  0  0  0  0  0  0
   -4.4096   -0.0215  -19.5002 C   0  0  0  0  0  0  0  0  0  0  0  0
   -3.2170    0.6983  -19.7697 C   0  0  0  0  0  0  0  0  0  0  0  0
   -2.9825    1.2167  -21.0137 C   0  0  0  0  0  0  0  0  0  0  0  0
   -3.9316    1.0275  -22.0467 C   0  0  0  0  0  0  0  0  0  0  0  0
   -5.0666    0.2855  -21.8255 C   0  0  0  0  0  0  0  0  0  0  0  0
   -5.3501   -0.2324  -20.5324 C   0  0  0  0  0  0  0  0  0  0  0  0
   -5.7639    0.0893  -22.6391 H   0  0  0  0  0  0  0  0  0  0  0  0
   -3.7676    1.4634  -23.0281 H   0  0  0  0  0  0  0  0  0  0  0  0
   -2.0960    1.8153  -21.2018 H   0  0  0  0  0  0  0  0  0  0  0  0
   -2.5403    0.8841  -18.9390 H   0  0  0  0  0  0  0  0  0  0  0  0
   -3.9924   -0.3512  -17.3984 H   0  0  0  0  0  0  0  0  0  0  0  0
   -7.6600   -1.8114  -18.5847 H   0  0  0  0  0  0  0  0  0  0  0  0
   -6.9644   -2.6307  -21.9972 C   0  0  0  0  0  0  0  0  0  0  0  0
   -8.2657   -3.0046  -22.7295 C   0  0  2  0  0  0  0  0  0  0  0  0
   -7.9793   -3.6848  -24.0612 C   0  0  0  0  0  0  0  0  0  0  0  0
   -7.2490   -4.8658  -23.8086 O   0  0  0  0  0  0  0  0  0  0  0  0
   -7.0562   -5.6801  -24.9560 C   0  0  0  0  0  0  0  0  0  0  0  0
   -5.6889   -6.3344  -24.8521 C   0  0  0  0  0  0  0  0  0  0  0  0
   -5.4998   -6.9514  -25.7364 H   0  0  0  0  0  0  0  0  0  0  0  0
   -4.8986   -5.5835  -24.7782 H   0  0  0  0  0  0  0  0  0  0  0  0
   -5.6416   -6.9745  -23.9668 H   0  0  0  0  0  0  0  0  0  0  0  0
   -8.1636   -6.7184  -25.0474 C   0  0  0  0  0  0  0  0  0  0  0  0
   -8.1252   -7.3795  -24.1771 H   0  0  0  0  0  0  0  0  0  0  0  0
   -9.1510   -6.2504  -25.0780 H   0  0  0  0  0  0  0  0  0  0  0  0
   -8.0439   -7.3183  -25.9534 H   0  0  0  0  0  0  0  0  0  0  0  0
   -7.0764   -5.0428  -25.8537 H   0  0  0  0  0  0  0  0  0  0  0  0
   -8.9199   -3.8990  -24.5945 H   0  0  0  0  0  0  0  0  0  0  0  0
   -7.3768   -3.0216  -24.7065 H   0  0  0  0  0  0  0  0  0  0  0  0
   -8.7928   -3.7264  -22.1020 H   0  0  0  0  0  0  0  0  0  0  0  0
   -6.1566   -2.3844  -22.7025 H   0  0  0  0  0  0  0  0  0  0  0  0
   -6.5887   -3.4436  -21.3662 H   0  0  0  0  0  0  0  0  0  0  0  0
  -10.6240   -1.8703  -22.6815 C   0  0  0  0  0  0  0  0  0  0  0  0
  -11.1840   -2.8356  -21.8329 C   0  0  0  0  0  0  0  0  0  0  0  0
  -12.5569   -2.9128  -21.6675 C   0  0  0  0  0  0  0  0  0  0  0  0
  -13.2236   -4.0072  -20.4894 Cl  0  0  0  0  0  0  0  0  0  0  0  0
  -13.4279   -2.0955  -22.3875 C   0  0  0  0  0  0  0  0  0  0  0  0
  -12.8896   -1.1407  -23.2222 C   0  0  0  0  0  0  0  0  0  0  0  0
  -11.5087   -0.9922  -23.3288 C   0  0  0  0  0  0  0  0  0  0  0  0
  -11.0245    0.1958  -24.0961 C   0  0  0  0  0  0  0  0  0  0  0  0
  -11.7933    1.0362  -24.5443 O   0  0  0  0  0  0  0  0  0  0  0  0
  -13.5213   -0.4636  -23.7882 H   0  0  0  0  0  0  0  0  0  0  0  0
  -14.4995   -2.1953  -22.2607 H   0  0  0  0  0  0  0  0  0  0  0  0
  -10.5646   -3.5235  -21.2669 H   0  0  0  0  0  0  0  0  0  0  0  0
   -8.9893   -1.5602  -24.9662 H   0  0  0  0  0  0  0  0  0  0  0  0
   -7.7845   -0.5721  -24.1083 H   0  0  0  0  0  0  0  0  0  0  0  0
   -8.6680    1.2556  -25.8140 H   0  0  0  0  0  0  0  0  0  0  0  0
   -9.9359    2.1656  -24.9905 H   0  0  0  0  0  0  0  0  0  0  0  0
   -9.3319    2.5919  -22.4663 H   0  0  0  0  0  0  0  0  0  0  0  0
   -6.6869    3.8970  -22.4921 H   0  0  0  0  0  0  0  0  0  0  0  0
   -7.8678    3.9231  -21.1844 H   0  0  0  0  0  0  0  0  0  0  0  0
   -6.8192    2.4803  -21.4591 H   0  0  0  0  0  0  0  0  0  0  0  0
  1  2  1  0
  2  3  1  0
  3  4  2  0
  3  5  1  0
  5  6  1  0
  6  7  1  0
  8  7  1  6
  8  9  1  0
  9 10  2  0
  9 11  1  0
 11 12  1  0
 12 13  2  0
 13 14  1  0
 14 15  2  0
 15 16  1  0
 16 17  2  0
 17 18  1  0
 18 19  2  0
 19 20  1  0
 20 21  2  0
 20 22  1  0
 19 23  1  0
 18 24  1  0
 17 25  1  0
 15 26  1  0
 13 27  1  0
 11 28  1  0
 28 29  1  0
 29 30  1  0
 30 31  1  0
 31 32  1  0
 32 33  1  0
 33 34  1  0
 33 35  1  0
 33 36  1  0
 32 37  1  0
 37 38  1  0
 37 39  1  0
 37 40  1  0
 32 41  1  0
 30 42  1  0
 30 43  1  0
 29 44  1  1
 28 45  1  0
 28 46  1  0
  8 47  1  0
 47 48  2  0
 48 49  1  0
 49 50  1  0
 49 51  2  0
 51 52  1  0
 52 53  2  0
 53 54  1  0
 54 55  2  0
 52 56  1  0
 51 57  1  0
 48 58  1  0
  7 59  1  0
  7 60  1  0
  5 61  1  0
  5 62  1  0
  2 63  1  0
  1 64  1  0
  1 65  1  0
  1 66  1  0
 54  6  1  0
 29  8  1  0
 53 47  1  0
 21 12  1  0
 21 16  1  0
M  END
>  <cnnaffinities>  (93) 
[6.65335, 6.67204, 6.35202, 6.73757, 7.00796, 7.06201, 6.58221, 6.64109]

>  <score>  (93) 
6.65335

>  <index>  (93) 
96

>  <Smiles>  (93) 
C(N(C(=O)C(N1C([C@@]2(C(=O)N(c3c(nc(c4c(c(c(c(c34)[H])[H])[H])[H])[H])[H])C([C@@]2(C(OC(C([H])([H])[H])(C([H])([H])[H])[H])([H])[H])[H])([H])[H])c2c(c(Cl)c(c(c2C1=O)[H])[H])[H])([H])[H])([H])[H])[H])([H])([H])[H]

>  <h>  (93) 
<NA>

>  <Training>  (93) 
True

>  <Success>  (93) 
True

>  <enamine_searched>  (93) 
False

>  <enamine_id>  (93) 
nan

$$$$

     RDKit          3D

 40 43  0  0  0  0  0  0  0  0999 V2000
  -12.6774   -3.7154  -21.1356 C   0  0  0  0  0  0  0  0  0  0  0  0
  -11.5618   -2.8010  -21.6641 C   0  0  2  0  0  0  0  0  0  0  0  0
  -12.0197   -2.2537  -23.0028 C   0  0  0  0  0  0  0  0  0  0  0  0
  -11.1198   -1.3123  -23.5398 O   0  0  0  0  0  0  0  0  0  0  0  0
   -9.8524   -1.8683  -23.7656 C   0  0  0  0  0  0  0  0  0  0  0  0
   -9.1839   -2.3971  -22.4902 C   0  0  1  0  0  0  0  0  0  0  0  0
  -10.1519   -3.3880  -21.7915 C   0  0  0  0  0  0  0  0  0  0  0  0
  -10.1782   -4.3073  -22.3933 H   0  0  0  0  0  0  0  0  0  0  0  0
   -9.7277   -3.6417  -20.8123 H   0  0  0  0  0  0  0  0  0  0  0  0
   -7.9286   -3.0258  -22.8542 N   0  0  0  0  0  0  0  0  0  0  0  0
   -6.8643   -2.6331  -22.0965 C   0  0  0  0  0  0  0  0  0  0  0  0
   -5.7328   -3.0702  -22.1002 O   0  0  0  0  0  0  0  0  0  0  0  0
   -7.3281   -1.5855  -21.2890 N   0  0  0  0  0  0  0  0  0  0  0  0
   -6.5062   -1.0636  -20.2528 C   0  0  0  0  0  0  0  0  0  0  0  0
   -6.7606   -1.3483  -18.9347 C   0  0  0  0  0  0  0  0  0  0  0  0
   -5.8808   -1.1189  -17.9301 N   0  0  0  0  0  0  0  0  0  0  0  0
   -4.7387   -0.5545  -18.2365 C   0  0  0  0  0  0  0  0  0  0  0  0
   -4.4065   -0.1026  -19.5400 C   0  0  0  0  0  0  0  0  0  0  0  0
   -3.2218    0.6396  -19.7764 C   0  0  0  0  0  0  0  0  0  0  0  0
   -3.0064    1.2062  -21.0032 C   0  0  0  0  0  0  0  0  0  0  0  0
   -3.9378    1.0058  -22.0512 C   0  0  0  0  0  0  0  0  0  0  0  0
   -5.0515    0.2258  -21.8632 C   0  0  0  0  0  0  0  0  0  0  0  0
   -5.3270   -0.3299  -20.5830 C   0  0  0  0  0  0  0  0  0  0  0  0
   -5.7288    0.0182  -22.6847 H   0  0  0  0  0  0  0  0  0  0  0  0
   -3.7720    1.4809  -23.0156 H   0  0  0  0  0  0  0  0  0  0  0  0
   -2.1534    1.8621  -21.1595 H   0  0  0  0  0  0  0  0  0  0  0  0
   -2.5435    0.7946  -18.9428 H   0  0  0  0  0  0  0  0  0  0  0  0
   -4.0199   -0.3999  -17.4298 H   0  0  0  0  0  0  0  0  0  0  0  0
   -7.6990   -1.8161  -18.6482 H   0  0  0  0  0  0  0  0  0  0  0  0
   -8.6732   -1.2977  -21.5311 C   0  0  0  0  0  0  0  0  0  0  0  0
   -9.2799   -0.3692  -21.0607 O   0  0  0  0  0  0  0  0  0  0  0  0
   -7.9080   -3.9212  -23.3200 H   0  0  0  0  0  0  0  0  0  0  0  0
   -9.2311   -1.0983  -24.2259 H   0  0  0  0  0  0  0  0  0  0  0  0
   -9.9123   -2.7214  -24.4635 H   0  0  0  0  0  0  0  0  0  0  0  0
  -12.9733   -1.7224  -22.8786 H   0  0  0  0  0  0  0  0  0  0  0  0
  -12.1588   -3.1138  -23.6881 H   0  0  0  0  0  0  0  0  0  0  0  0
  -11.4285   -1.9601  -20.9919 H   0  0  0  0  0  0  0  0  0  0  0  0
  -12.4206   -4.2965  -20.2438 H   0  0  0  0  0  0  0  0  0  0  0  0
  -12.9862   -4.4254  -21.9122 H   0  0  0  0  0  0  0  0  0  0  0  0
  -13.5554   -3.0988  -20.8920 H   0  0  0  0  0  0  0  0  0  0  0  0
  1  2  1  0
  2  3  1  0
  3  4  1  0
  4  5  1  0
  5  6  1  0
  6  7  1  0
  7  8  1  0
  7  9  1  0
  6 10  1  6
 10 11  1  0
 11 12  2  0
 11 13  1  0
 13 14  1  0
 14 15  2  0
 15 16  1  0
 16 17  2  0
 17 18  1  0
 18 19  2  0
 19 20  1  0
 20 21  2  0
 21 22  1  0
 22 23  2  0
 22 24  1  0
 21 25  1  0
 20 26  1  0
 19 27  1  0
 17 28  1  0
 15 29  1  0
 13 30  1  0
 30 31  2  0
 10 32  1  0
  5 33  1  0
  5 34  1  0
  3 35  1  0
  3 36  1  0
  2 37  1  1
  1 38  1  0
  1 39  1  0
  1 40  1  0
  7  2  1  0
 23 14  1  0
 30  6  1  0
 23 18  1  0
M  END
>  <cnnaffinities>  (94) 
[5.43223]

>  <score>  (94) 
5.43223

>  <index>  (94) 
97

>  <Smiles>  (94) 
C([C@@]1(C(OC([C@@]2(C1([H])[H])N(C(=O)N(c1c(nc(c3c(c(c(c(c13)[H])[H])[H])[H])[H])[H])C2=O)[H])([H])[H])([H])[H])[H])([H])([H])[H]

>  <h>  (94) 
<NA>

>  <Training>  (94) 
True

>  <Success>  (94) 
True

>  <enamine_searched>  (94) 
False

>  <enamine_id>  (94) 
nan

$$$$
