
     RDKit          3D

 66 71  0  0  0  0  0  0  0  0999 V2000
   -7.8251   -6.0313  -26.6787 C   0  0  0  0  0  0  0  0  0  0  0  0
   -8.0214   -4.6167  -26.9517 N   0  0  0  0  0  0  0  0  0  0  0  0
   -7.0872   -3.7121  -26.5723 C   0  0  0  0  0  0  0  0  0  0  0  0
   -6.0497   -4.0124  -25.9914 O   0  0  0  0  0  0  0  0  0  0  0  0
   -7.4623   -2.2484  -26.8298 C   0  0  0  0  0  0  0  0  0  0  0  0
   -8.3671   -1.7735  -25.7862 N   0  0  0  0  0  0  0  0  0  0  0  0
   -7.8352   -1.3124  -24.5110 C   0  0  0  0  0  0  0  0  0  0  0  0
   -8.7413   -1.5756  -23.2647 C   0  0  2  0  0  0  0  0  0  0  0  0
   -8.2214   -0.6073  -22.1923 C   0  0  0  0  0  0  0  0  0  0  0  0
   -8.4227    0.5850  -22.1209 O   0  0  0  0  0  0  0  0  0  0  0  0
   -7.3838   -1.3104  -21.3425 N   0  0  0  0  0  0  0  0  0  0  0  0
   -6.6253   -0.7133  -20.3066 C   0  0  0  0  0  0  0  0  0  0  0  0
   -6.9598   -0.9598  -18.9989 C   0  0  0  0  0  0  0  0  0  0  0  0
   -6.3030   -0.4565  -17.9270 N   0  0  0  0  0  0  0  0  0  0  0  0
   -5.2460    0.2809  -18.1635 C   0  0  0  0  0  0  0  0  0  0  0  0
   -4.7561    0.5800  -19.4656 C   0  0  0  0  0  0  0  0  0  0  0  0
   -3.5913    1.3695  -19.6601 C   0  0  0  0  0  0  0  0  0  0  0  0
   -3.1353    1.6283  -20.9230 C   0  0  0  0  0  0  0  0  0  0  0  0
   -3.8109    1.1021  -22.0471 C   0  0  0  0  0  0  0  0  0  0  0  0
   -4.9398    0.3381  -21.8830 C   0  0  0  0  0  0  0  0  0  0  0  0
   -5.4531    0.0662  -20.5832 C   0  0  0  0  0  0  0  0  0  0  0  0
   -5.4460   -0.0694  -22.7531 H   0  0  0  0  0  0  0  0  0  0  0  0
   -3.4359    1.3126  -23.0446 H   0  0  0  0  0  0  0  0  0  0  0  0
   -2.2551    2.2471  -21.0700 H   0  0  0  0  0  0  0  0  0  0  0  0
   -3.0854    1.7685  -18.7843 H   0  0  0  0  0  0  0  0  0  0  0  0
   -4.7170    0.6757  -17.2968 H   0  0  0  0  0  0  0  0  0  0  0  0
   -7.8268   -1.5831  -18.7797 H   0  0  0  0  0  0  0  0  0  0  0  0
   -7.3178   -2.7343  -21.6037 C   0  0  0  0  0  0  0  0  0  0  0  0
   -8.5188   -2.9376  -22.5343 C   0  0  2  0  0  0  0  0  0  0  0  0
   -8.4540   -4.1315  -23.4821 C   0  0  0  0  0  0  0  0  0  0  0  0
   -8.3848   -5.4377  -22.8499 N   0  0  0  0  0  0  0  0  0  0  0  0
   -7.2001   -5.9506  -22.3997 C   0  0  0  0  0  0  0  0  0  0  0  0
   -5.9790   -5.6686  -23.0421 C   0  0  0  0  0  0  0  0  0  0  0  0
   -4.8507   -6.1662  -22.4177 C   0  0  0  0  0  0  0  0  0  0  0  0
   -4.8776   -6.8840  -21.2867 N   0  0  0  0  0  0  0  0  0  0  0  0
   -6.0907   -7.1371  -20.8200 C   0  0  0  0  0  0  0  0  0  0  0  0
   -7.2579   -6.7638  -21.3347 N   0  0  0  0  0  0  0  0  0  0  0  0
   -6.1416   -7.7018  -19.8885 H   0  0  0  0  0  0  0  0  0  0  0  0
   -3.8588   -5.9675  -22.8204 H   0  0  0  0  0  0  0  0  0  0  0  0
   -5.9325   -5.1029  -23.9774 H   0  0  0  0  0  0  0  0  0  0  0  0
   -9.1612   -5.6571  -22.2419 H   0  0  0  0  0  0  0  0  0  0  0  0
   -9.3601   -4.1215  -24.0939 H   0  0  0  0  0  0  0  0  0  0  0  0
   -7.5972   -4.0259  -24.1426 H   0  0  0  0  0  0  0  0  0  0  0  0
   -9.3966   -3.0816  -21.8826 H   0  0  0  0  0  0  0  0  0  0  0  0
   -7.4096   -3.2785  -20.6609 H   0  0  0  0  0  0  0  0  0  0  0  0
   -6.3519   -3.0191  -22.0581 H   0  0  0  0  0  0  0  0  0  0  0  0
  -10.2022   -1.4109  -23.6155 C   0  0  0  0  0  0  0  0  0  0  0  0
  -11.1763   -1.3061  -22.6086 C   0  0  0  0  0  0  0  0  0  0  0  0
  -12.5165   -1.3142  -22.9648 C   0  0  0  0  0  0  0  0  0  0  0  0
  -13.7547   -1.3604  -21.7487 Cl  0  0  0  0  0  0  0  0  0  0  0  0
  -12.9358   -1.3939  -24.2919 C   0  0  0  0  0  0  0  0  0  0  0  0
  -11.9762   -1.5047  -25.2725 C   0  0  0  0  0  0  0  0  0  0  0  0
  -10.6286   -1.5556  -24.9401 C   0  0  0  0  0  0  0  0  0  0  0  0
   -9.6915   -1.9349  -26.0332 C   0  0  0  0  0  0  0  0  0  0  0  0
  -10.0899   -2.4287  -27.0903 O   0  0  0  0  0  0  0  0  0  0  0  0
  -12.2193   -1.6198  -26.3221 H   0  0  0  0  0  0  0  0  0  0  0  0
  -14.0008   -1.4472  -24.4934 H   0  0  0  0  0  0  0  0  0  0  0  0
  -10.9004   -1.2649  -21.5554 H   0  0  0  0  0  0  0  0  0  0  0  0
   -7.6718   -0.2289  -24.5494 H   0  0  0  0  0  0  0  0  0  0  0  0
   -6.8580   -1.7968  -24.3699 H   0  0  0  0  0  0  0  0  0  0  0  0
   -6.5520   -1.6465  -26.8686 H   0  0  0  0  0  0  0  0  0  0  0  0
   -7.9942   -2.1700  -27.7797 H   0  0  0  0  0  0  0  0  0  0  0  0
   -8.9228   -4.2759  -27.2660 H   0  0  0  0  0  0  0  0  0  0  0  0
   -7.5711   -6.1964  -25.6218 H   0  0  0  0  0  0  0  0  0  0  0  0
   -8.7419   -6.5751  -26.9186 H   0  0  0  0  0  0  0  0  0  0  0  0
   -7.0073   -6.4327  -27.2847 H   0  0  0  0  0  0  0  0  0  0  0  0
  1  2  1  0
  2  3  1  0
  3  4  2  0
  3  5  1  0
  5  6  1  0
  6  7  1  0
  8  7  1  6
  8  9  1  0
  9 10  2  0
  9 11  1  0
 11 12  1  0
 12 13  2  0
 13 14  1  0
 14 15  2  0
 15 16  1  0
 16 17  2  0
 17 18  1  0
 18 19  2  0
 19 20  1  0
 20 21  2  0
 20 22  1  0
 19 23  1  0
 18 24  1  0
 17 25  1  0
 15 26  1  0
 13 27  1  0
 11 28  1  0
 28 29  1  0
 29 30  1  0
 30 31  1  0
 31 32  1  0
 32 33  2  0
 33 34  1  0
 34 35  2  0
 35 36  1  0
 36 37  2  0
 36 38  1  0
 34 39  1  0
 33 40  1  0
 31 41  1  0
 30 42  1  0
 30 43  1  0
 29 44  1  1
 28 45  1  0
 28 46  1  0
  8 47  1  0
 47 48  2  0
 48 49  1  0
 49 50  1  0
 49 51  2  0
 51 52  1  0
 52 53  2  0
 53 54  1  0
 54 55  2  0
 52 56  1  0
 51 57  1  0
 48 58  1  0
  7 59  1  0
  7 60  1  0
  5 61  1  0
  5 62  1  0
  2 63  1  0
  1 64  1  0
  1 65  1  0
  1 66  1  0
 54  6  1  0
 29  8  1  0
 37 32  1  0
 53 47  1  0
 21 12  1  0
 21 16  1  0
M  END
>  <cnnaffinities>  (1) 
[6.47534]

>  <score>  (1) 
6.47534

>  <index>  (1) 
0

>  <Smiles>  (1) 
C(N(C(=O)C(N1C([C@@]2(C(=O)N(c3c(nc(c4c(c(c(c(c34)[H])[H])[H])[H])[H])[H])C([C@@]2(C(N(c2c(c(nc(n2)[H])[H])[H])[H])([H])[H])[H])([H])[H])c2c(c(Cl)c(c(c2C1=O)[H])[H])[H])([H])[H])([H])[H])[H])([H])([H])[H]

>  <h>  (1) 
<NA>

>  <Training>  (1) 
True

>  <Success>  (1) 
True

>  <enamine_searched>  (1) 
False

>  <enamine_id>  (1) 
nan

$$$$

     RDKit          3D

 68 73  0  0  0  0  0  0  0  0999 V2000
   -7.5622   -5.9373  -26.7876 C   0  0  0  0  0  0  0  0  0  0  0  0
   -7.8374   -4.5295  -27.0132 N   0  0  0  0  0  0  0  0  0  0  0  0
   -6.9626   -3.5821  -26.6014 C   0  0  0  0  0  0  0  0  0  0  0  0
   -5.9037   -3.8402  -26.0381 O   0  0  0  0  0  0  0  0  0  0  0  0
   -7.4252   -2.1363  -26.8183 C   0  0  0  0  0  0  0  0  0  0  0  0
   -8.3600   -1.7009  -25.7858 N   0  0  0  0  0  0  0  0  0  0  0  0
   -7.8472   -1.2172  -24.5117 C   0  0  0  0  0  0  0  0  0  0  0  0
   -8.7413   -1.5429  -23.2726 C   0  0  2  0  0  0  0  0  0  0  0  0
   -8.2509   -0.5903  -22.1655 C   0  0  0  0  0  0  0  0  0  0  0  0
   -8.4989    0.5874  -22.0326 O   0  0  0  0  0  0  0  0  0  0  0  0
   -7.3803   -1.2986  -21.3528 N   0  0  0  0  0  0  0  0  0  0  0  0
   -6.6215   -0.7052  -20.3135 C   0  0  0  0  0  0  0  0  0  0  0  0
   -6.9583   -0.9551  -19.0083 C   0  0  0  0  0  0  0  0  0  0  0  0
   -6.3050   -0.4515  -17.9346 N   0  0  0  0  0  0  0  0  0  0  0  0
   -5.2504    0.2886  -18.1686 C   0  0  0  0  0  0  0  0  0  0  0  0
   -4.7551    0.5888  -19.4677 C   0  0  0  0  0  0  0  0  0  0  0  0
   -3.5904    1.3770  -19.6606 C   0  0  0  0  0  0  0  0  0  0  0  0
   -3.1321    1.6372  -20.9207 C   0  0  0  0  0  0  0  0  0  0  0  0
   -3.8071    1.1149  -22.0460 C   0  0  0  0  0  0  0  0  0  0  0  0
   -4.9350    0.3508  -21.8841 C   0  0  0  0  0  0  0  0  0  0  0  0
   -5.4499    0.0761  -20.5870 C   0  0  0  0  0  0  0  0  0  0  0  0
   -5.4412   -0.0531  -22.7558 H   0  0  0  0  0  0  0  0  0  0  0  0
   -3.4323    1.3264  -23.0426 H   0  0  0  0  0  0  0  0  0  0  0  0
   -2.2524    2.2560  -21.0672 H   0  0  0  0  0  0  0  0  0  0  0  0
   -3.0857    1.7777  -18.7859 H   0  0  0  0  0  0  0  0  0  0  0  0
   -4.7252    0.6776  -17.2982 H   0  0  0  0  0  0  0  0  0  0  0  0
   -7.8215   -1.5849  -18.7934 H   0  0  0  0  0  0  0  0  0  0  0  0
   -7.2682   -2.7102  -21.6667 C   0  0  0  0  0  0  0  0  0  0  0  0
   -8.4674   -2.9255  -22.5940 C   0  0  2  0  0  0  0  0  0  0  0  0
   -8.3496   -4.0900  -23.5723 C   0  0  0  0  0  0  0  0  0  0  0  0
   -8.2713   -5.4047  -22.9722 N   0  0  0  0  0  0  0  0  0  0  0  0
   -7.0516   -5.9352  -22.5617 C   0  0  0  0  0  0  0  0  0  0  0  0
   -6.8663   -6.8923  -21.5303 C   0  0  0  0  0  0  0  0  0  0  0  0
   -5.6052   -7.2892  -21.4606 N   0  0  0  0  0  0  0  0  0  0  0  0
   -4.9611   -6.6239  -22.4256 N   0  0  0  0  0  0  0  0  0  0  0  0
   -3.5781   -6.9674  -22.7037 C   0  0  0  0  0  0  0  0  0  0  0  0
   -3.3536   -7.8630  -22.1186 H   0  0  0  0  0  0  0  0  0  0  0  0
   -3.4576   -7.1902  -23.7693 H   0  0  0  0  0  0  0  0  0  0  0  0
   -2.8836   -6.1696  -22.4151 H   0  0  0  0  0  0  0  0  0  0  0  0
   -5.7925   -5.7838  -23.1205 C   0  0  0  0  0  0  0  0  0  0  0  0
   -5.4628   -5.1775  -23.9694 H   0  0  0  0  0  0  0  0  0  0  0  0
   -7.6136   -7.3336  -20.8751 H   0  0  0  0  0  0  0  0  0  0  0  0
   -9.0398   -5.6121  -22.3498 H   0  0  0  0  0  0  0  0  0  0  0  0
   -9.2310   -4.0638  -24.2244 H   0  0  0  0  0  0  0  0  0  0  0  0
   -7.4677   -3.9576  -24.1968 H   0  0  0  0  0  0  0  0  0  0  0  0
   -9.3436   -3.1162  -21.9531 H   0  0  0  0  0  0  0  0  0  0  0  0
   -6.3053   -2.9529  -22.1516 H   0  0  0  0  0  0  0  0  0  0  0  0
   -7.3255   -3.2953  -20.7456 H   0  0  0  0  0  0  0  0  0  0  0  0
  -10.2096   -1.4130  -23.6247 C   0  0  0  0  0  0  0  0  0  0  0  0
  -11.1916   -1.3418  -22.6230 C   0  0  0  0  0  0  0  0  0  0  0  0
  -12.5347   -1.3567  -22.9631 C   0  0  0  0  0  0  0  0  0  0  0  0
  -13.7819   -1.3309  -21.7522 Cl  0  0  0  0  0  0  0  0  0  0  0  0
  -12.9416   -1.4647  -24.2895 C   0  0  0  0  0  0  0  0  0  0  0  0
  -11.9814   -1.5572  -25.2727 C   0  0  0  0  0  0  0  0  0  0  0  0
  -10.6331   -1.5636  -24.9475 C   0  0  0  0  0  0  0  0  0  0  0  0
   -9.6792   -1.9029  -26.0399 C   0  0  0  0  0  0  0  0  0  0  0  0
  -10.0609   -2.4033  -27.0986 O   0  0  0  0  0  0  0  0  0  0  0  0
  -12.2341   -1.6798  -26.3195 H   0  0  0  0  0  0  0  0  0  0  0  0
  -13.9990   -1.5315  -24.5070 H   0  0  0  0  0  0  0  0  0  0  0  0
  -10.8943   -1.3087  -21.5810 H   0  0  0  0  0  0  0  0  0  0  0  0
   -7.7418   -0.1243  -24.5501 H   0  0  0  0  0  0  0  0  0  0  0  0
   -6.8514   -1.6689  -24.3796 H   0  0  0  0  0  0  0  0  0  0  0  0
   -6.5465   -1.4903  -26.8496 H   0  0  0  0  0  0  0  0  0  0  0  0
   -7.9535   -2.0672  -27.7681 H   0  0  0  0  0  0  0  0  0  0  0  0
   -8.7528   -4.2345  -27.3242 H   0  0  0  0  0  0  0  0  0  0  0  0
   -7.3042   -6.1228  -25.7363 H   0  0  0  0  0  0  0  0  0  0  0  0
   -8.4511   -6.5157  -27.0387 H   0  0  0  0  0  0  0  0  0  0  0  0
   -6.7370   -6.2845  -27.4163 H   0  0  0  0  0  0  0  0  0  0  0  0
  1  2  1  0
  2  3  1  0
  3  4  2  0
  3  5  1  0
  5  6  1  0
  6  7  1  0
  8  7  1  6
  8  9  1  0
  9 10  2  0
  9 11  1  0
 11 12  1  0
 12 13  2  0
 13 14  1  0
 14 15  2  0
 15 16  1  0
 16 17  2  0
 17 18  1  0
 18 19  2  0
 19 20  1  0
 20 21  2  0
 20 22  1  0
 19 23  1  0
 18 24  1  0
 17 25  1  0
 15 26  1  0
 13 27  1  0
 11 28  1  0
 28 29  1  0
 29 30  1  0
 30 31  1  0
 31 32  1  0
 32 33  1  0
 33 34  2  0
 34 35  1  0
 35 36  1  0
 36 37  1  0
 36 38  1  0
 36 39  1  0
 35 40  1  0
 40 41  1  0
 33 42  1  0
 31 43  1  0
 30 44  1  0
 30 45  1  0
 29 46  1  1
 28 47  1  0
 28 48  1  0
  8 49  1  0
 49 50  2  0
 50 51  1  0
 51 52  1  0
 51 53  2  0
 53 54  1  0
 54 55  2  0
 55 56  1  0
 56 57  2  0
 54 58  1  0
 53 59  1  0
 50 60  1  0
  7 61  1  0
  7 62  1  0
  5 63  1  0
  5 64  1  0
  2 65  1  0
  1 66  1  0
  1 67  1  0
  1 68  1  0
 56  6  1  0
 29  8  1  0
 40 32  2  0
 55 49  1  0
 21 12  1  0
 21 16  1  0
M  END
>  <cnnaffinities>  (2) 
[6.67819, 6.81979]

>  <score>  (2) 
6.67819

>  <index>  (2) 
1

>  <Smiles>  (2) 
C(N(C(=O)C(N1C([C@@]2(C(=O)N(c3c(nc(c4c(c(c(c(c34)[H])[H])[H])[H])[H])[H])C([C@@]2(C(N(c2c(nn(C([H])([H])[H])c2[H])[H])[H])([H])[H])[H])([H])[H])c2c(c(Cl)c(c(c2C1=O)[H])[H])[H])([H])[H])([H])[H])[H])([H])([H])[H]

>  <h>  (2) 
<NA>

>  <Training>  (2) 
True

>  <Success>  (2) 
True

>  <enamine_searched>  (2) 
False

>  <enamine_id>  (2) 
nan

$$$$

     RDKit          3D

 60 65  0  0  0  0  0  0  0  0999 V2000
   -5.9885   -7.4664  -26.6799 C   0  0  0  0  0  0  0  0  0  0  0  0
   -6.4404   -6.0361  -26.6679 C   0  0  0  0  0  0  0  0  0  0  0  0
   -5.6135   -4.9767  -26.3011 C   0  0  0  0  0  0  0  0  0  0  0  0
   -6.0169   -3.7058  -26.3341 N   0  0  0  0  0  0  0  0  0  0  0  0
   -7.2545   -3.4778  -26.7688 C   0  0  0  0  0  0  0  0  0  0  0  0
   -7.7146   -2.0493  -26.8681 C   0  0  0  0  0  0  0  0  0  0  0  0
   -8.5521   -1.7080  -25.7273 N   0  0  0  0  0  0  0  0  0  0  0  0
   -7.9224   -1.2445  -24.4968 C   0  0  0  0  0  0  0  0  0  0  0  0
   -8.7465   -1.5359  -23.2103 C   0  0  2  0  0  0  0  0  0  0  0  0
   -8.1835   -0.5879  -22.1420 C   0  0  0  0  0  0  0  0  0  0  0  0
   -8.3289    0.6148  -22.0750 O   0  0  0  0  0  0  0  0  0  0  0  0
   -7.3931   -1.3158  -21.2833 N   0  0  0  0  0  0  0  0  0  0  0  0
   -6.6160   -0.7345  -20.2590 C   0  0  0  0  0  0  0  0  0  0  0  0
   -6.9343   -0.9903  -18.9528 C   0  0  0  0  0  0  0  0  0  0  0  0
   -6.2687   -0.4857  -17.8908 N   0  0  0  0  0  0  0  0  0  0  0  0
   -5.2190    0.2589  -18.1398 C   0  0  0  0  0  0  0  0  0  0  0  0
   -4.7501    0.5585  -19.4482 C   0  0  0  0  0  0  0  0  0  0  0  0
   -3.6011    1.3614  -19.6530 C   0  0  0  0  0  0  0  0  0  0  0  0
   -3.1593    1.6259  -20.9212 C   0  0  0  0  0  0  0  0  0  0  0  0
   -3.8427    1.0907  -22.0372 C   0  0  0  0  0  0  0  0  0  0  0  0
   -4.9576    0.3139  -21.8665 C   0  0  0  0  0  0  0  0  0  0  0  0
   -5.4556    0.0443  -20.5584 C   0  0  0  0  0  0  0  0  0  0  0  0
   -5.4763   -0.0938  -22.7334 H   0  0  0  0  0  0  0  0  0  0  0  0
   -3.4784    1.3044  -23.0385 H   0  0  0  0  0  0  0  0  0  0  0  0
   -2.2860    2.2514  -21.0762 H   0  0  0  0  0  0  0  0  0  0  0  0
   -3.0872    1.7579  -18.7835 H   0  0  0  0  0  0  0  0  0  0  0  0
   -4.6823    0.6601  -17.2809 H   0  0  0  0  0  0  0  0  0  0  0  0
   -7.7923   -1.6255  -18.7242 H   0  0  0  0  0  0  0  0  0  0  0  0
   -7.3359   -2.7278  -21.5645 C   0  0  0  0  0  0  0  0  0  0  0  0
   -8.4965   -2.9330  -22.5395 C   0  0  2  0  0  0  0  0  0  0  0  0
   -8.3035   -4.1054  -23.4843 C   0  0  0  0  0  0  0  0  0  0  0  0
   -9.1195   -4.1456  -24.2135 H   0  0  0  0  0  0  0  0  0  0  0  0
   -8.2814   -5.0503  -22.9294 H   0  0  0  0  0  0  0  0  0  0  0  0
   -7.3637   -4.0101  -24.0374 H   0  0  0  0  0  0  0  0  0  0  0  0
   -9.3875   -3.1260  -21.9250 H   0  0  0  0  0  0  0  0  0  0  0  0
   -6.3675   -3.0232  -21.9961 H   0  0  0  0  0  0  0  0  0  0  0  0
   -7.4524   -3.2862  -20.6369 H   0  0  0  0  0  0  0  0  0  0  0  0
  -10.2227   -1.3361  -23.4841 C   0  0  0  0  0  0  0  0  0  0  0  0
  -11.1222   -1.0995  -22.4377 C   0  0  0  0  0  0  0  0  0  0  0  0
  -12.4791   -1.0337  -22.6987 C   0  0  0  0  0  0  0  0  0  0  0  0
  -13.3375   -0.8230  -21.6916 F   0  0  0  0  0  0  0  0  0  0  0  0
  -13.0063   -1.1961  -23.9739 C   0  0  0  0  0  0  0  0  0  0  0  0
  -12.1219   -1.4548  -24.9984 C   0  0  0  0  0  0  0  0  0  0  0  0
  -10.7559   -1.5235  -24.7593 C   0  0  0  0  0  0  0  0  0  0  0  0
   -9.8920   -1.8374  -25.9209 C   0  0  0  0  0  0  0  0  0  0  0  0
  -10.3620   -2.1950  -26.9993 O   0  0  0  0  0  0  0  0  0  0  0  0
  -12.4465   -1.6322  -26.0164 H   0  0  0  0  0  0  0  0  0  0  0  0
  -14.0756   -1.1408  -24.1436 H   0  0  0  0  0  0  0  0  0  0  0  0
  -10.7684   -0.9613  -21.4246 H   0  0  0  0  0  0  0  0  0  0  0  0
   -6.9294   -1.7086  -24.4124 H   0  0  0  0  0  0  0  0  0  0  0  0
   -7.7659   -0.1583  -24.5644 H   0  0  0  0  0  0  0  0  0  0  0  0
   -8.3238   -1.8913  -27.7678 H   0  0  0  0  0  0  0  0  0  0  0  0
   -6.8389   -1.3982  -26.8945 H   0  0  0  0  0  0  0  0  0  0  0  0
   -8.1060   -4.5398  -27.0706 C   0  0  0  0  0  0  0  0  0  0  0  0
   -7.7071   -5.8075  -27.0326 N   0  0  0  0  0  0  0  0  0  0  0  0
   -9.1319   -4.3645  -27.3828 H   0  0  0  0  0  0  0  0  0  0  0  0
   -4.5819   -5.1310  -25.9934 H   0  0  0  0  0  0  0  0  0  0  0  0
   -4.9723   -7.5966  -27.0624 H   0  0  0  0  0  0  0  0  0  0  0  0
   -6.0158   -7.9160  -25.6826 H   0  0  0  0  0  0  0  0  0  0  0  0
   -6.6763   -8.0128  -27.3191 H   0  0  0  0  0  0  0  0  0  0  0  0
  1  2  1  0
  2  3  2  0
  3  4  1  0
  4  5  2  0
  5  6  1  0
  6  7  1  0
  7  8  1  0
  9  8  1  6
  9 10  1  0
 10 11  2  0
 10 12  1  0
 12 13  1  0
 13 14  2  0
 14 15  1  0
 15 16  2  0
 16 17  1  0
 17 18  2  0
 18 19  1  0
 19 20  2  0
 20 21  1  0
 21 22  2  0
 21 23  1  0
 20 24  1  0
 19 25  1  0
 18 26  1  0
 16 27  1  0
 14 28  1  0
 12 29  1  0
 29 30  1  0
 30 31  1  0
 31 32  1  0
 31 33  1  0
 31 34  1  0
 30 35  1  1
 29 36  1  0
 29 37  1  0
  9 38  1  0
 38 39  2  0
 39 40  1  0
 40 41  1  0
 40 42  2  0
 42 43  1  0
 43 44  2  0
 44 45  1  0
 45 46  2  0
 43 47  1  0
 42 48  1  0
 39 49  1  0
  8 50  1  0
  8 51  1  0
  6 52  1  0
  6 53  1  0
  5 54  1  0
 54 55  2  0
 54 56  1  0
  3 57  1  0
  1 58  1  0
  1 59  1  0
  1 60  1  0
 55  2  1  0
 45  7  1  0
 30  9  1  0
 44 38  1  0
 22 13  1  0
 22 17  1  0
M  END
>  <cnnaffinities>  (3) 
[6.46551]

>  <score>  (3) 
6.46551

>  <index>  (3) 
2

>  <Smiles>  (3) 
C(c1c(nc(C(N2C([C@@]3(C(=O)N(c4c(nc(c5c(c(c(c(c45)[H])[H])[H])[H])[H])[H])C([C@@]3(C([H])([H])[H])[H])([H])[H])c3c(c(F)c(c(c3C2=O)[H])[H])[H])([H])[H])([H])[H])c(n1)[H])[H])([H])([H])[H]

>  <h>  (3) 
<NA>

>  <Training>  (3) 
True

>  <Success>  (3) 
True

>  <enamine_searched>  (3) 
False

>  <enamine_id>  (3) 
nan

$$$$

     RDKit          3D

 66 70  0  0  0  0  0  0  0  0999 V2000
   -7.7271   -0.2497  -29.8105 C   0  0  0  0  0  0  0  0  0  0  0  0
   -7.9668   -1.2757  -28.8231 N   0  0  0  0  0  0  0  0  0  0  0  0
   -7.1532   -1.3529  -27.7339 C   0  0  0  0  0  0  0  0  0  0  0  0
   -6.1910   -0.6291  -27.5414 O   0  0  0  0  0  0  0  0  0  0  0  0
   -7.5406   -2.4461  -26.7353 C   0  0  0  0  0  0  0  0  0  0  0  0
   -8.4306   -1.9341  -25.7055 N   0  0  0  0  0  0  0  0  0  0  0  0
   -7.9043   -1.2467  -24.5358 C   0  0  0  0  0  0  0  0  0  0  0  0
   -8.7388   -1.5511  -23.2651 C   0  0  2  0  0  0  0  0  0  0  0  0
   -8.2443   -0.5798  -22.1800 C   0  0  0  0  0  0  0  0  0  0  0  0
   -8.4774    0.6057  -22.0958 O   0  0  0  0  0  0  0  0  0  0  0  0
   -7.4181   -1.2795  -21.3189 N   0  0  0  0  0  0  0  0  0  0  0  0
   -6.6418   -0.6842  -20.2898 C   0  0  0  0  0  0  0  0  0  0  0  0
   -6.9564   -0.9478  -18.9820 C   0  0  0  0  0  0  0  0  0  0  0  0
   -6.2857   -0.4572  -17.9138 N   0  0  0  0  0  0  0  0  0  0  0  0
   -5.2324    0.2837  -18.1520 C   0  0  0  0  0  0  0  0  0  0  0  0
   -4.7522    0.5906  -19.4553 C   0  0  0  0  0  0  0  0  0  0  0  0
   -3.5873    1.3781  -19.6563 C   0  0  0  0  0  0  0  0  0  0  0  0
   -3.1363    1.6344  -20.9209 C   0  0  0  0  0  0  0  0  0  0  0  0
   -3.8179    1.1042  -22.0389 C   0  0  0  0  0  0  0  0  0  0  0  0
   -4.9473    0.3429  -21.8692 C   0  0  0  0  0  0  0  0  0  0  0  0
   -5.4607    0.0826  -20.5688 C   0  0  0  0  0  0  0  0  0  0  0  0
   -5.4541   -0.0732  -22.7346 H   0  0  0  0  0  0  0  0  0  0  0  0
   -3.4481    1.3108  -23.0383 H   0  0  0  0  0  0  0  0  0  0  0  0
   -2.2577    2.2544  -21.0752 H   0  0  0  0  0  0  0  0  0  0  0  0
   -3.0746    1.7787  -18.7861 H   0  0  0  0  0  0  0  0  0  0  0  0
   -4.6994    0.6685  -17.2841 H   0  0  0  0  0  0  0  0  0  0  0  0
   -7.8132   -1.5826  -18.7579 H   0  0  0  0  0  0  0  0  0  0  0  0
   -7.3003   -2.6947  -21.6130 C   0  0  0  0  0  0  0  0  0  0  0  0
   -8.4380   -2.9408  -22.6098 C   0  0  2  0  0  0  0  0  0  0  0  0
   -8.1771   -4.0814  -23.5859 C   0  0  0  0  0  0  0  0  0  0  0  0
   -7.7702   -5.2365  -22.8825 O   0  0  0  0  0  0  0  0  0  0  0  0
   -7.4700   -6.3175  -23.7554 C   0  0  0  0  0  0  0  0  0  0  0  0
   -6.5469   -7.2536  -22.9953 C   0  0  0  0  0  0  0  0  0  0  0  0
   -5.5725   -6.7861  -22.8243 H   0  0  0  0  0  0  0  0  0  0  0  0
   -6.9948   -7.5104  -22.0292 H   0  0  0  0  0  0  0  0  0  0  0  0
   -6.3727   -8.1714  -23.5630 H   0  0  0  0  0  0  0  0  0  0  0  0
   -8.7424   -7.0119  -24.2364 C   0  0  0  0  0  0  0  0  0  0  0  0
   -9.0731   -7.7650  -23.5093 H   0  0  0  0  0  0  0  0  0  0  0  0
   -8.5642   -7.5079  -25.1943 H   0  0  0  0  0  0  0  0  0  0  0  0
   -9.5300   -6.2709  -24.3989 H   0  0  0  0  0  0  0  0  0  0  0  0
   -6.9263   -5.9232  -24.6319 H   0  0  0  0  0  0  0  0  0  0  0  0
   -9.0954   -4.2641  -24.1631 H   0  0  0  0  0  0  0  0  0  0  0  0
   -7.4027   -3.8090  -24.3146 H   0  0  0  0  0  0  0  0  0  0  0  0
   -9.3314   -3.2143  -22.0320 H   0  0  0  0  0  0  0  0  0  0  0  0
   -7.4323   -3.2761  -20.6990 H   0  0  0  0  0  0  0  0  0  0  0  0
   -6.3069   -2.9405  -22.0212 H   0  0  0  0  0  0  0  0  0  0  0  0
  -10.2101   -1.3940  -23.5983 C   0  0  0  0  0  0  0  0  0  0  0  0
  -11.1699   -1.3195  -22.5782 C   0  0  0  0  0  0  0  0  0  0  0  0
  -12.5174   -1.3115  -22.9071 C   0  0  0  0  0  0  0  0  0  0  0  0
  -13.7422   -1.3415  -21.6779 Cl  0  0  0  0  0  0  0  0  0  0  0  0
  -12.9574   -1.3946  -24.2262 C   0  0  0  0  0  0  0  0  0  0  0  0
  -12.0141   -1.4857  -25.2230 C   0  0  0  0  0  0  0  0  0  0  0  0
  -10.6616   -1.4958  -24.9188 C   0  0  0  0  0  0  0  0  0  0  0  0
   -9.7388   -1.7956  -26.0453 C   0  0  0  0  0  0  0  0  0  0  0  0
  -10.1455   -1.9686  -27.1955 O   0  0  0  0  0  0  0  0  0  0  0  0
  -12.2742   -1.6158  -26.2652 H   0  0  0  0  0  0  0  0  0  0  0  0
  -14.0230   -1.4466  -24.4244 H   0  0  0  0  0  0  0  0  0  0  0  0
  -10.8639   -1.3207  -21.5344 H   0  0  0  0  0  0  0  0  0  0  0  0
   -6.8581   -1.5462  -24.3843 H   0  0  0  0  0  0  0  0  0  0  0  0
   -7.9298   -0.1575  -24.6861 H   0  0  0  0  0  0  0  0  0  0  0  0
   -8.0639   -3.2602  -27.2477 H   0  0  0  0  0  0  0  0  0  0  0  0
   -6.6234   -2.8301  -26.2752 H   0  0  0  0  0  0  0  0  0  0  0  0
   -8.9194   -1.5994  -28.6845 H   0  0  0  0  0  0  0  0  0  0  0  0
   -6.6936   -0.3215  -30.1549 H   0  0  0  0  0  0  0  0  0  0  0  0
   -7.8816    0.7584  -29.4082 H   0  0  0  0  0  0  0  0  0  0  0  0
   -8.3959   -0.4145  -30.6583 H   0  0  0  0  0  0  0  0  0  0  0  0
  1  2  1  0
  2  3  1  0
  3  4  2  0
  3  5  1  0
  5  6  1  0
  6  7  1  0
  8  7  1  6
  8  9  1  0
  9 10  2  0
  9 11  1  0
 11 12  1  0
 12 13  2  0
 13 14  1  0
 14 15  2  0
 15 16  1  0
 16 17  2  0
 17 18  1  0
 18 19  2  0
 19 20  1  0
 20 21  2  0
 20 22  1  0
 19 23  1  0
 18 24  1  0
 17 25  1  0
 15 26  1  0
 13 27  1  0
 11 28  1  0
 28 29  1  0
 29 30  1  0
 30 31  1  0
 31 32  1  0
 32 33  1  0
 33 34  1  0
 33 35  1  0
 33 36  1  0
 32 37  1  0
 37 38  1  0
 37 39  1  0
 37 40  1  0
 32 41  1  0
 30 42  1  0
 30 43  1  0
 29 44  1  1
 28 45  1  0
 28 46  1  0
  8 47  1  0
 47 48  2  0
 48 49  1  0
 49 50  1  0
 49 51  2  0
 51 52  1  0
 52 53  2  0
 53 54  1  0
 54 55  2  0
 52 56  1  0
 51 57  1  0
 48 58  1  0
  7 59  1  0
  7 60  1  0
  5 61  1  0
  5 62  1  0
  2 63  1  0
  1 64  1  0
  1 65  1  0
  1 66  1  0
 54  6  1  0
 29  8  1  0
 53 47  1  0
 21 12  1  0
 21 16  1  0
M  END
>  <cnnaffinities>  (4) 
[6.49287, 6.53444, 6.54003, 6.61838, 6.61225]

>  <score>  (4) 
6.49287

>  <index>  (4) 
3

>  <Smiles>  (4) 
C(N(C(=O)C(N1C([C@@]2(C(=O)N(c3c(nc(c4c(c(c(c(c34)[H])[H])[H])[H])[H])[H])C([C@@]2(C(OC(C([H])([H])[H])(C([H])([H])[H])[H])([H])[H])[H])([H])[H])c2c(c(Cl)c(c(c2C1=O)[H])[H])[H])([H])[H])([H])[H])[H])([H])([H])[H]

>  <h>  (4) 
<NA>

>  <Training>  (4) 
True

>  <Success>  (4) 
True

>  <enamine_searched>  (4) 
False

>  <enamine_id>  (4) 
nan

$$$$

     RDKit          3D

 59 64  0  0  0  0  0  0  0  0999 V2000
   -8.2657   -4.1067  -23.5406 C   0  0  0  0  0  0  0  0  0  0  0  0
   -8.5141   -2.9569  -22.5649 C   0  0  1  0  0  0  0  0  0  0  0  0
   -7.3832   -2.7733  -21.5418 C   0  0  0  0  0  0  0  0  0  0  0  0
   -7.4057   -1.3604  -21.2274 N   0  0  0  0  0  0  0  0  0  0  0  0
   -6.6101   -0.7916  -20.1981 C   0  0  0  0  0  0  0  0  0  0  0  0
   -6.9013   -1.0388  -18.8813 C   0  0  0  0  0  0  0  0  0  0  0  0
   -6.2120   -0.5227  -17.8357 N   0  0  0  0  0  0  0  0  0  0  0  0
   -5.1709    0.2253  -18.0943 C   0  0  0  0  0  0  0  0  0  0  0  0
   -4.7266    0.5307  -19.4077 C   0  0  0  0  0  0  0  0  0  0  0  0
   -3.5888    1.3494  -19.6399 C   0  0  0  0  0  0  0  0  0  0  0  0
   -3.1791    1.6192  -20.9152 C   0  0  0  0  0  0  0  0  0  0  0  0
   -3.8809    1.0678  -22.0127 C   0  0  0  0  0  0  0  0  0  0  0  0
   -4.9800    0.2741  -21.8108 C   0  0  0  0  0  0  0  0  0  0  0  0
   -5.4536    0.0021  -20.4990 C   0  0  0  0  0  0  0  0  0  0  0  0
   -5.5120   -0.1424  -22.6601 H   0  0  0  0  0  0  0  0  0  0  0  0
   -3.5566    1.2881  -23.0233 H   0  0  0  0  0  0  0  0  0  0  0  0
   -2.3231    2.2639  -21.0940 H   0  0  0  0  0  0  0  0  0  0  0  0
   -3.0692    1.7667  -18.7807 H   0  0  0  0  0  0  0  0  0  0  0  0
   -4.6227    0.6209  -17.2392 H   0  0  0  0  0  0  0  0  0  0  0  0
   -7.7395   -1.6779  -18.6084 H   0  0  0  0  0  0  0  0  0  0  0  0
   -8.1349   -0.5999  -22.1141 C   0  0  0  0  0  0  0  0  0  0  0  0
   -8.2506    0.6041  -22.0395 O   0  0  0  0  0  0  0  0  0  0  0  0
   -8.7314   -1.5314  -23.1927 C   0  0  1  0  0  0  0  0  0  0  0  0
   -7.9662   -1.2616  -24.5076 C   0  0  0  0  0  0  0  0  0  0  0  0
   -8.6012   -1.8229  -25.6991 N   0  0  0  0  0  0  0  0  0  0  0  0
   -7.7338   -2.0652  -26.8453 C   0  0  0  0  0  0  0  0  0  0  0  0
   -6.9399   -3.3385  -26.7182 C   0  0  0  0  0  0  0  0  0  0  0  0
   -5.7060   -3.3982  -26.2623 N   0  0  0  0  0  0  0  0  0  0  0  0
   -5.3744   -4.7306  -26.2698 C   0  0  0  0  0  0  0  0  0  0  0  0
   -6.4301   -5.4773  -26.7161 C   0  0  0  0  0  0  0  0  0  0  0  0
   -7.4323   -4.5752  -27.0180 N   0  0  0  0  0  0  0  0  0  0  0  0
   -8.7735   -4.8941  -27.4762 C   0  0  0  0  0  0  0  0  0  0  0  0
   -9.0381   -4.2900  -28.3503 H   0  0  0  0  0  0  0  0  0  0  0  0
   -9.5184   -4.7211  -26.6914 H   0  0  0  0  0  0  0  0  0  0  0  0
   -8.7851   -5.9504  -27.7522 H   0  0  0  0  0  0  0  0  0  0  0  0
   -6.5828   -6.5407  -26.8219 H   0  0  0  0  0  0  0  0  0  0  0  0
   -4.3978   -5.0588  -25.9388 H   0  0  0  0  0  0  0  0  0  0  0  0
   -8.3685   -2.0515  -27.7340 H   0  0  0  0  0  0  0  0  0  0  0  0
   -7.0119   -1.2448  -26.9137 H   0  0  0  0  0  0  0  0  0  0  0  0
   -9.9557   -1.8066  -25.8858 C   0  0  0  0  0  0  0  0  0  0  0  0
  -10.4913   -2.1124  -26.9439 O   0  0  0  0  0  0  0  0  0  0  0  0
  -10.7679   -1.4234  -24.6966 C   0  0  0  0  0  0  0  0  0  0  0  0
  -12.1431   -1.3137  -24.8846 C   0  0  0  0  0  0  0  0  0  0  0  0
  -12.9573   -0.9522  -23.8351 C   0  0  0  0  0  0  0  0  0  0  0  0
  -12.3956   -0.8488  -22.5745 C   0  0  0  0  0  0  0  0  0  0  0  0
  -13.2679   -0.7037  -21.5724 F   0  0  0  0  0  0  0  0  0  0  0  0
  -11.0390   -0.9701  -22.3451 C   0  0  0  0  0  0  0  0  0  0  0  0
  -10.1997   -1.2460  -23.4319 C   0  0  0  0  0  0  0  0  0  0  0  0
  -10.6259   -0.8706  -21.3481 H   0  0  0  0  0  0  0  0  0  0  0  0
  -14.0273   -0.8028  -23.9082 H   0  0  0  0  0  0  0  0  0  0  0  0
  -12.5303   -1.5987  -25.8561 H   0  0  0  0  0  0  0  0  0  0  0  0
   -6.9616   -1.6965  -24.4606 H   0  0  0  0  0  0  0  0  0  0  0  0
   -7.8770   -0.1677  -24.5906 H   0  0  0  0  0  0  0  0  0  0  0  0
   -6.4104   -3.0868  -21.9537 H   0  0  0  0  0  0  0  0  0  0  0  0
   -7.5566   -3.3331  -20.6280 H   0  0  0  0  0  0  0  0  0  0  0  0
   -9.4378   -3.1682  -22.0050 H   0  0  0  0  0  0  0  0  0  0  0  0
   -7.3116   -3.9749  -24.0623 H   0  0  0  0  0  0  0  0  0  0  0  0
   -8.2309   -5.0665  -23.0123 H   0  0  0  0  0  0  0  0  0  0  0  0
   -9.0614   -4.1609  -24.2906 H   0  0  0  0  0  0  0  0  0  0  0  0
  1  2  1  0
  2  3  1  0
  3  4  1  0
  4  5  1  0
  5  6  2  0
  6  7  1  0
  7  8  2  0
  8  9  1  0
  9 10  2  0
 10 11  1  0
 11 12  2  0
 12 13  1  0
 13 14  2  0
 13 15  1  0
 12 16  1  0
 11 17  1  0
 10 18  1  0
  8 19  1  0
  6 20  1  0
  4 21  1  0
 21 22  2  0
 21 23  1  0
 23 24  1  6
 24 25  1  0
 25 26  1  0
 26 27  1  0
 27 28  2  0
 28 29  1  0
 29 30  2  0
 30 31  1  0
 31 32  1  0
 32 33  1  0
 32 34  1  0
 32 35  1  0
 30 36  1  0
 29 37  1  0
 26 38  1  0
 26 39  1  0
 25 40  1  0
 40 41  2  0
 40 42  1  0
 42 43  2  0
 43 44  1  0
 44 45  2  0
 45 46  1  0
 45 47  1  0
 47 48  2  0
 47 49  1  0
 44 50  1  0
 43 51  1  0
 24 52  1  0
 24 53  1  0
  3 54  1  0
  3 55  1  0
  2 56  1  1
  1 57  1  0
  1 58  1  0
  1 59  1  0
 23  2  1  0
 31 27  1  0
 48 42  1  0
 14  5  1  0
 48 23  1  0
 14  9  1  0
M  END
>  <cnnaffinities>  (5) 
[6.35118, 6.11348]

>  <score>  (5) 
6.35118

>  <index>  (5) 
4

>  <Smiles>  (5) 
C([C@]1(C(N(c2c(nc(c3c(c(c(c(c23)[H])[H])[H])[H])[H])[H])C(=O)[C@]21C(N(C(c1nc(c(n1C([H])([H])[H])[H])[H])([H])[H])C(=O)c1c(c(c(F)c(c21)[H])[H])[H])([H])[H])([H])[H])[H])([H])([H])[H]

>  <h>  (5) 
<NA>

>  <Training>  (5) 
True

>  <Success>  (5) 
True

>  <enamine_searched>  (5) 
False

>  <enamine_id>  (5) 
nan

$$$$

     RDKit          3D

 58 61  0  0  0  0  0  0  0  0999 V2000
   -5.0862   -3.0917  -22.4243 C   0  0  0  0  0  0  0  0  0  0  0  0
   -6.4046   -3.2700  -22.4080 C   0  0  0  0  0  0  0  0  0  0  0  0
   -7.3743   -2.8148  -21.3575 C   0  0  0  0  0  0  0  0  0  0  0  0
   -7.4019   -1.3684  -21.2076 N   0  0  0  0  0  0  0  0  0  0  0  0
   -8.2254   -0.5016  -21.9136 C   0  0  0  0  0  0  0  0  0  0  0  0
   -8.3707    0.6414  -21.5285 O   0  0  0  0  0  0  0  0  0  0  0  0
   -8.9178   -1.0043  -23.1990 C   0  0  2  0  0  0  0  0  0  0  0  0
   -8.4461   -0.1564  -24.4189 C   0  0  0  0  0  0  0  0  0  0  0  0
   -8.9630    1.2073  -24.3800 N   0  0  0  0  0  0  0  0  0  0  0  0
   -8.1437    2.3050  -24.8577 C   0  0  0  0  0  0  0  0  0  0  0  0
   -7.1307    2.7528  -23.8038 C   0  0  0  0  0  0  0  0  0  0  0  0
   -5.9406    2.4867  -23.9097 O   0  0  0  0  0  0  0  0  0  0  0  0
   -7.6290    3.4508  -22.7597 N   0  0  0  0  0  0  0  0  0  0  0  0
   -6.7572    3.7515  -21.6420 C   0  0  0  0  0  0  0  0  0  0  0  0
   -7.3510    4.2352  -20.8656 H   0  0  0  0  0  0  0  0  0  0  0  0
   -5.9607    4.4332  -21.9571 H   0  0  0  0  0  0  0  0  0  0  0  0
   -6.2902    2.8328  -21.2530 H   0  0  0  0  0  0  0  0  0  0  0  0
   -8.6302    3.4754  -22.6269 H   0  0  0  0  0  0  0  0  0  0  0  0
   -8.8130    3.1270  -25.1245 H   0  0  0  0  0  0  0  0  0  0  0  0
   -7.6042    1.9871  -25.7514 H   0  0  0  0  0  0  0  0  0  0  0  0
  -10.1897    1.4998  -23.8725 C   0  0  0  0  0  0  0  0  0  0  0  0
  -10.5741    2.6621  -23.7408 O   0  0  0  0  0  0  0  0  0  0  0  0
  -11.0347    0.3111  -23.5240 C   0  0  0  0  0  0  0  0  0  0  0  0
  -12.4223    0.3980  -23.5653 C   0  0  0  0  0  0  0  0  0  0  0  0
  -13.2060   -0.5959  -23.0003 C   0  0  0  0  0  0  0  0  0  0  0  0
  -12.5772   -1.6743  -22.3793 C   0  0  0  0  0  0  0  0  0  0  0  0
  -13.5400   -2.8325  -21.5064 Cl  0  0  0  0  0  0  0  0  0  0  0  0
  -11.1977   -1.8244  -22.4302 C   0  0  0  0  0  0  0  0  0  0  0  0
  -10.4199   -0.8472  -23.0514 C   0  0  0  0  0  0  0  0  0  0  0  0
  -10.7480   -2.7224  -22.0133 H   0  0  0  0  0  0  0  0  0  0  0  0
  -14.2887   -0.5044  -22.9791 H   0  0  0  0  0  0  0  0  0  0  0  0
  -12.8810    1.2884  -23.9809 H   0  0  0  0  0  0  0  0  0  0  0  0
   -7.3518   -0.1004  -24.4389 H   0  0  0  0  0  0  0  0  0  0  0  0
   -8.7793   -0.6469  -25.3464 H   0  0  0  0  0  0  0  0  0  0  0  0
   -8.6763   -2.0593  -23.4042 H   0  0  0  0  0  0  0  0  0  0  0  0
   -6.6065   -0.7903  -20.1853 C   0  0  0  0  0  0  0  0  0  0  0  0
   -6.9381   -0.9955  -18.8707 C   0  0  0  0  0  0  0  0  0  0  0  0
   -6.2640   -0.4692  -17.8282 N   0  0  0  0  0  0  0  0  0  0  0  0
   -5.2051    0.2573  -18.0953 C   0  0  0  0  0  0  0  0  0  0  0  0
   -4.7503    0.5471  -19.4114 C   0  0  0  0  0  0  0  0  0  0  0  0
   -3.6032    1.3470  -19.6560 C   0  0  0  0  0  0  0  0  0  0  0  0
   -3.2004    1.6165  -20.9366 C   0  0  0  0  0  0  0  0  0  0  0  0
   -3.9195    1.0946  -22.0311 C   0  0  0  0  0  0  0  0  0  0  0  0
   -5.0215    0.2996  -21.8190 C   0  0  0  0  0  0  0  0  0  0  0  0
   -5.4755    0.0158  -20.5017 C   0  0  0  0  0  0  0  0  0  0  0  0
   -5.5598   -0.1164  -22.6677 H   0  0  0  0  0  0  0  0  0  0  0  0
   -3.6202    1.3420  -23.0438 H   0  0  0  0  0  0  0  0  0  0  0  0
   -2.3304    2.2442  -21.1133 H   0  0  0  0  0  0  0  0  0  0  0  0
   -3.0657    1.7497  -18.8027 H   0  0  0  0  0  0  0  0  0  0  0  0
   -4.6555    0.6636  -17.2460 H   0  0  0  0  0  0  0  0  0  0  0  0
   -7.8058   -1.6076  -18.6275 H   0  0  0  0  0  0  0  0  0  0  0  0
   -8.3417   -3.1972  -21.6880 H   0  0  0  0  0  0  0  0  0  0  0  0
   -7.0869   -3.2184  -20.3863 H   0  0  0  0  0  0  0  0  0  0  0  0
   -7.1554   -3.9062  -23.5633 C   0  0  0  0  0  0  0  0  0  0  0  0
   -8.3965   -3.9442  -23.4358 O   0  0  0  0  0  0  0  0  0  0  0  0
   -6.4682   -4.2907  -24.5250 O   0  0  0  0  0  1  0  0  0  0  0  0
   -4.4654   -3.4616  -23.2351 H   0  0  0  0  0  0  0  0  0  0  0  0
   -4.6079   -2.5290  -21.6225 H   0  0  0  0  0  0  0  0  0  0  0  0
  1  2  2  0
  2  3  1  0
  3  4  1  0
  4  5  1  0
  5  6  2  0
  5  7  1  0
  7  8  1  0
  8  9  1  0
  9 10  1  0
 10 11  1  0
 11 12  2  0
 11 13  1  0
 13 14  1  0
 14 15  1  0
 14 16  1  0
 14 17  1  0
 13 18  1  0
 10 19  1  0
 10 20  1  0
  9 21  1  0
 21 22  2  0
 21 23  1  0
 23 24  2  0
 24 25  1  0
 25 26  2  0
 26 27  1  0
 26 28  1  0
 28 29  2  0
 28 30  1  0
 25 31  1  0
 24 32  1  0
  8 33  1  0
  8 34  1  0
  7 35  1  6
  4 36  1  0
 36 37  2  0
 37 38  1  0
 38 39  2  0
 39 40  1  0
 40 41  2  0
 41 42  1  0
 42 43  2  0
 43 44  1  0
 44 45  2  0
 44 46  1  0
 43 47  1  0
 42 48  1  0
 41 49  1  0
 39 50  1  0
 37 51  1  0
  3 52  1  0
  3 53  1  0
  2 54  1  0
 54 55  2  0
 54 56  1  0
  1 57  1  0
  1 58  1  0
 29  7  1  0
 45 36  1  0
 29 23  1  0
 45 40  1  0
M  CHG  1  56  -1
M  END
>  <cnnaffinities>  (6) 
[6.34399]

>  <score>  (6) 
6.34399

>  <index>  (6) 
5

>  <Smiles>  (6) 
C(=C(C(N(C(=O)[C@@]1(C(N(C(C(=O)N(C([H])([H])[H])[H])([H])[H])C(=O)c2c(c(c(Cl)c(c12)[H])[H])[H])([H])[H])[H])c1c(nc(c2c(c(c(c(c12)[H])[H])[H])[H])[H])[H])([H])[H])C(=O)[O-])([H])[H]

>  <h>  (6) 
<NA>

>  <Training>  (6) 
True

>  <Success>  (6) 
True

>  <enamine_searched>  (6) 
False

>  <enamine_id>  (6) 
nan

$$$$

     RDKit          3D

 43 45  0  0  0  0  0  0  0  0999 V2000
  -14.5052   -2.7189  -22.6860 C   0  0  0  0  0  0  0  0  0  0  0  0
  -13.0536   -3.1124  -22.9834 C   0  0  0  0  0  0  0  0  0  0  0  0
  -12.2099   -1.9745  -23.5955 C   0  0  0  0  0  0  0  0  0  0  0  0
  -12.0855   -0.8027  -22.6198 C   0  0  0  0  0  0  0  0  0  0  0  0
  -10.7564   -0.0424  -22.6954 C   0  0  0  0  0  0  0  0  0  0  0  0
   -9.6406   -0.9506  -22.4181 N   0  0  0  0  0  0  0  0  0  0  0  0
   -8.5264   -0.4413  -21.8014 C   0  0  0  0  0  0  0  0  0  0  0  0
   -8.3779    0.7618  -21.6578 O   0  0  0  0  0  0  0  0  0  0  0  0
   -7.4640   -1.4341  -21.2653 C   0  0  0  0  0  0  0  0  0  0  0  0
   -6.5859   -0.8272  -20.1935 C   0  0  0  0  0  0  0  0  0  0  0  0
   -6.8862   -1.0288  -18.8723 C   0  0  0  0  0  0  0  0  0  0  0  0
   -6.2097   -0.5005  -17.8213 N   0  0  0  0  0  0  0  0  0  0  0  0
   -5.1619    0.2355  -18.0816 C   0  0  0  0  0  0  0  0  0  0  0  0
   -4.7213    0.5341  -19.3946 C   0  0  0  0  0  0  0  0  0  0  0  0
   -3.5945    1.3610  -19.6284 C   0  0  0  0  0  0  0  0  0  0  0  0
   -3.2059    1.6583  -20.9034 C   0  0  0  0  0  0  0  0  0  0  0  0
   -3.9343    1.1335  -21.9986 C   0  0  0  0  0  0  0  0  0  0  0  0
   -5.0296    0.3286  -21.7936 C   0  0  0  0  0  0  0  0  0  0  0  0
   -5.4559    0.0009  -20.4837 C   0  0  0  0  0  0  0  0  0  0  0  0
   -5.5934   -0.0486  -22.6411 H   0  0  0  0  0  0  0  0  0  0  0  0
   -3.6270    1.3802  -23.0073 H   0  0  0  0  0  0  0  0  0  0  0  0
   -2.3548    2.3075  -21.0837 H   0  0  0  0  0  0  0  0  0  0  0  0
   -3.0653    1.7678  -18.7686 H   0  0  0  0  0  0  0  0  0  0  0  0
   -4.6085    0.6270  -17.2264 H   0  0  0  0  0  0  0  0  0  0  0  0
   -7.7259   -1.6568  -18.5821 H   0  0  0  0  0  0  0  0  0  0  0  0
   -6.8438   -1.7981  -22.0983 H   0  0  0  0  0  0  0  0  0  0  0  0
   -7.9726   -2.3186  -20.8564 H   0  0  0  0  0  0  0  0  0  0  0  0
   -9.7569   -2.3236  -22.9002 C   0  0  0  0  0  0  0  0  0  0  0  0
  -10.8093   -2.4339  -24.0091 C   0  0  0  0  0  0  0  0  0  0  0  0
  -10.4828   -1.8374  -24.8701 H   0  0  0  0  0  0  0  0  0  0  0  0
  -10.8651   -3.4754  -24.3362 H   0  0  0  0  0  0  0  0  0  0  0  0
   -8.7894   -2.6288  -23.3134 H   0  0  0  0  0  0  0  0  0  0  0  0
   -9.9879   -3.0148  -22.0731 H   0  0  0  0  0  0  0  0  0  0  0  0
  -10.6288    0.4472  -23.6758 H   0  0  0  0  0  0  0  0  0  0  0  0
  -10.6951    0.7565  -21.9550 H   0  0  0  0  0  0  0  0  0  0  0  0
  -12.9379   -0.1435  -22.7871 H   0  0  0  0  0  0  0  0  0  0  0  0
  -12.1815   -1.2526  -21.6331 H   0  0  0  0  0  0  0  0  0  0  0  0
  -12.7394   -1.6349  -24.5004 H   0  0  0  0  0  0  0  0  0  0  0  0
  -12.5730   -3.4843  -22.0631 H   0  0  0  0  0  0  0  0  0  0  0  0
  -13.0478   -3.9570  -23.6839 H   0  0  0  0  0  0  0  0  0  0  0  0
  -15.0842   -3.5844  -22.3467 H   0  0  0  0  0  0  0  0  0  0  0  0
  -14.5809   -1.9504  -21.9068 H   0  0  0  0  0  0  0  0  0  0  0  0
  -14.9974   -2.3248  -23.5845 H   0  0  0  0  0  0  0  0  0  0  0  0
  1  2  1  0
  2  3  1  0
  3  4  1  0
  4  5  1  0
  5  6  1  0
  6  7  1  0
  7  8  2  0
  7  9  1  0
  9 10  1  0
 10 11  2  0
 11 12  1  0
 12 13  2  0
 13 14  1  0
 14 15  2  0
 15 16  1  0
 16 17  2  0
 17 18  1  0
 18 19  2  0
 18 20  1  0
 17 21  1  0
 16 22  1  0
 15 23  1  0
 13 24  1  0
 11 25  1  0
  9 26  1  0
  9 27  1  0
  6 28  1  0
 28 29  1  0
 29 30  1  0
 29 31  1  0
 28 32  1  0
 28 33  1  0
  5 34  1  0
  5 35  1  0
  4 36  1  0
  4 37  1  0
  3 38  1  0
  2 39  1  0
  2 40  1  0
  1 41  1  0
  1 42  1  0
  1 43  1  0
 29  3  1  0
 19 10  1  0
 19 14  1  0
M  END
>  <cnnaffinities>  (7) 
[4.82041, 4.86639, 4.86637, 4.49301, 5.07898, 4.49292, 4.98758, 4.98724, 4.75931, 4.76086]

>  <score>  (7) 
4.82041

>  <index>  (7) 
6

>  <Smiles>  (7) 
C(C(C1(C(C(N(C(=O)C(c2c(nc(c3c(c(c(c(c23)[H])[H])[H])[H])[H])[H])([H])[H])C(C1([H])[H])([H])[H])([H])[H])([H])[H])[H])([H])[H])([H])([H])[H]

>  <h>  (7) 
<NA>

>  <Training>  (7) 
True

>  <Success>  (7) 
True

>  <enamine_searched>  (7) 
False

>  <enamine_id>  (7) 
nan

$$$$

     RDKit          3D

 44 47  0  0  0  0  0  0  0  0999 V2000
  -10.1064   -5.9912  -27.5697 C   0  0  0  0  0  0  0  0  0  0  0  0
   -8.9833   -5.2960  -26.7947 C   0  0  0  0  0  0  0  0  0  0  0  0
   -9.2389   -5.5185  -25.0392 S   0  0  0  0  0  0  0  0  0  0  0  0
   -9.0646   -6.9245  -24.7220 O   0  0  0  0  0  0  0  0  0  0  0  0
  -10.4839   -4.8306  -24.7135 O   0  0  0  0  0  0  0  0  0  0  0  0
   -7.9651   -4.6999  -24.2718 N   0  0  0  0  0  0  0  0  0  0  0  0
   -8.0715   -4.6915  -22.7708 C   0  0  0  0  0  0  0  0  0  0  0  0
   -8.0685   -3.1514  -22.7668 C   0  0  0  0  0  0  0  0  0  0  0  0
   -7.9968   -3.2154  -24.3140 C   0  0  0  0  0  0  0  0  0  0  0  0
   -7.0682   -2.8278  -24.7327 H   0  0  0  0  0  0  0  0  0  0  0  0
   -8.8557   -2.7810  -24.8378 H   0  0  0  0  0  0  0  0  0  0  0  0
   -6.8694   -2.5286  -22.0679 C   0  0  0  0  0  0  0  0  0  0  0  0
   -5.7100   -2.8175  -22.2255 O   0  0  0  0  0  0  0  0  0  0  0  0
   -7.3663   -1.5348  -21.2193 N   0  0  0  0  0  0  0  0  0  0  0  0
   -6.5982   -0.8652  -20.2091 C   0  0  0  0  0  0  0  0  0  0  0  0
   -6.9188   -1.0502  -18.8858 C   0  0  0  0  0  0  0  0  0  0  0  0
   -6.2326   -0.5149  -17.8469 N   0  0  0  0  0  0  0  0  0  0  0  0
   -5.1845    0.2194  -18.1112 C   0  0  0  0  0  0  0  0  0  0  0  0
   -4.7457    0.5210  -19.4251 C   0  0  0  0  0  0  0  0  0  0  0  0
   -3.6135    1.3530  -19.6450 C   0  0  0  0  0  0  0  0  0  0  0  0
   -3.2224    1.6608  -20.9180 C   0  0  0  0  0  0  0  0  0  0  0  0
   -3.9537    1.1481  -22.0123 C   0  0  0  0  0  0  0  0  0  0  0  0
   -5.0485    0.3390  -21.8225 C   0  0  0  0  0  0  0  0  0  0  0  0
   -5.4752   -0.0167  -20.5141 C   0  0  0  0  0  0  0  0  0  0  0  0
   -5.5960   -0.0442  -22.6767 H   0  0  0  0  0  0  0  0  0  0  0  0
   -3.6462    1.4008  -23.0213 H   0  0  0  0  0  0  0  0  0  0  0  0
   -2.3666    2.3096  -21.0932 H   0  0  0  0  0  0  0  0  0  0  0  0
   -3.0843    1.7516  -18.7826 H   0  0  0  0  0  0  0  0  0  0  0  0
   -4.6289    0.6132  -17.2587 H   0  0  0  0  0  0  0  0  0  0  0  0
   -7.7590   -1.6781  -18.6039 H   0  0  0  0  0  0  0  0  0  0  0  0
   -8.7595   -1.3804  -21.4093 C   0  0  0  0  0  0  0  0  0  0  0  0
   -9.4354   -0.4574  -21.0137 O   0  0  0  0  0  0  0  0  0  0  0  0
   -9.1734   -2.4480  -22.1705 N   0  0  0  0  0  0  0  0  0  0  0  0
  -10.5632   -2.6989  -22.4929 C   0  0  0  0  0  0  0  0  0  0  0  0
  -10.8348   -3.7409  -22.2786 H   0  0  0  0  0  0  0  0  0  0  0  0
  -10.7637   -2.4934  -23.5514 H   0  0  0  0  0  0  0  0  0  0  0  0
  -11.1482   -2.0239  -21.8668 H   0  0  0  0  0  0  0  0  0  0  0  0
   -7.1862   -5.1303  -22.3078 H   0  0  0  0  0  0  0  0  0  0  0  0
   -8.9774   -5.1495  -22.3608 H   0  0  0  0  0  0  0  0  0  0  0  0
   -8.9751   -4.2131  -26.9646 H   0  0  0  0  0  0  0  0  0  0  0  0
   -7.9946   -5.7086  -27.0169 H   0  0  0  0  0  0  0  0  0  0  0  0
   -9.9596   -5.8557  -28.6455 H   0  0  0  0  0  0  0  0  0  0  0  0
  -11.0836   -5.5784  -27.2978 H   0  0  0  0  0  0  0  0  0  0  0  0
  -10.1167   -7.0649  -27.3534 H   0  0  0  0  0  0  0  0  0  0  0  0
  1  2  1  0
  2  3  1  0
  3  4  2  0
  3  5  2  0
  3  6  1  0
  6  7  1  0
  7  8  1  0
  8  9  1  0
  9 10  1  0
  9 11  1  0
  8 12  1  0
 12 13  2  0
 12 14  1  0
 14 15  1  0
 15 16  2  0
 16 17  1  0
 17 18  2  0
 18 19  1  0
 19 20  2  0
 20 21  1  0
 21 22  2  0
 22 23  1  0
 23 24  2  0
 23 25  1  0
 22 26  1  0
 21 27  1  0
 20 28  1  0
 18 29  1  0
 16 30  1  0
 14 31  1  0
 31 32  2  0
 31 33  1  0
 33 34  1  0
 34 35  1  0
 34 36  1  0
 34 37  1  0
  7 38  1  0
  7 39  1  0
  2 40  1  0
  2 41  1  0
  1 42  1  0
  1 43  1  0
  1 44  1  0
  9  6  1  0
 24 15  1  0
 33  8  1  0
 24 19  1  0
M  END
>  <cnnaffinities>  (8) 
[5.37527, 5.37999, 5.37857, 5.3655, 5.36085, 5.20056, 5.20062]

>  <score>  (8) 
5.37527

>  <index>  (8) 
7

>  <Smiles>  (8) 
C(C(S(=O)(=O)N1C(C2(C1([H])[H])C(=O)N(c1c(nc(c3c(c(c(c(c13)[H])[H])[H])[H])[H])[H])C(=O)N2C([H])([H])[H])([H])[H])([H])[H])([H])([H])[H]

>  <h>  (8) 
<NA>

>  <Training>  (8) 
True

>  <Success>  (8) 
True

>  <enamine_searched>  (8) 
False

>  <enamine_id>  (8) 
nan

$$$$

     RDKit          3D

 60 64  0  0  0  0  0  0  0  0999 V2000
   -8.1403    0.0084  -29.7688 C   0  0  0  0  0  0  0  0  0  0  0  0
   -8.1996   -1.1187  -28.8671 N   0  0  0  0  0  0  0  0  0  0  0  0
   -7.3813   -1.1137  -27.7712 C   0  0  0  0  0  0  0  0  0  0  0  0
   -6.5400   -0.2585  -27.5496 O   0  0  0  0  0  0  0  0  0  0  0  0
   -7.6099   -2.3024  -26.8237 C   0  0  0  0  0  0  0  0  0  0  0  0
   -8.4749   -1.9281  -25.7149 N   0  0  0  0  0  0  0  0  0  0  0  0
   -7.9118   -1.2894  -24.5299 C   0  0  0  0  0  0  0  0  0  0  0  0
   -8.7527   -1.5435  -23.2485 C   0  0  2  0  0  0  0  0  0  0  0  0
   -8.2125   -0.5745  -22.1806 C   0  0  0  0  0  0  0  0  0  0  0  0
   -8.4037    0.6179  -22.0981 O   0  0  0  0  0  0  0  0  0  0  0  0
   -7.4129   -1.2939  -21.3125 N   0  0  0  0  0  0  0  0  0  0  0  0
   -6.6320   -0.7147  -20.2854 C   0  0  0  0  0  0  0  0  0  0  0  0
   -6.9499   -0.9826  -18.9793 C   0  0  0  0  0  0  0  0  0  0  0  0
   -6.2822   -0.4853  -17.9126 N   0  0  0  0  0  0  0  0  0  0  0  0
   -5.2310    0.2609  -18.1461 C   0  0  0  0  0  0  0  0  0  0  0  0
   -4.7532    0.5660  -19.4516 C   0  0  0  0  0  0  0  0  0  0  0  0
   -3.5969    1.3638  -19.6557 C   0  0  0  0  0  0  0  0  0  0  0  0
   -3.1522    1.6267  -20.9211 C   0  0  0  0  0  0  0  0  0  0  0  0
   -3.8300    1.0950  -22.0413 C   0  0  0  0  0  0  0  0  0  0  0  0
   -4.9524    0.3237  -21.8705 C   0  0  0  0  0  0  0  0  0  0  0  0
   -5.4585    0.0580  -20.5670 C   0  0  0  0  0  0  0  0  0  0  0  0
   -5.4626   -0.0893  -22.7366 H   0  0  0  0  0  0  0  0  0  0  0  0
   -3.4666    1.3100  -23.0417 H   0  0  0  0  0  0  0  0  0  0  0  0
   -2.2793    2.2543  -21.0748 H   0  0  0  0  0  0  0  0  0  0  0  0
   -3.0874    1.7639  -18.7833 H   0  0  0  0  0  0  0  0  0  0  0  0
   -4.6944    0.6590  -17.2819 H   0  0  0  0  0  0  0  0  0  0  0  0
   -7.8064   -1.6183  -18.7493 H   0  0  0  0  0  0  0  0  0  0  0  0
   -7.3347   -2.7086  -21.6031 C   0  0  0  0  0  0  0  0  0  0  0  0
   -8.5109   -2.9206  -22.5469 C   0  0  2  0  0  0  0  0  0  0  0  0
   -8.3942   -4.1353  -23.4468 C   0  0  0  0  0  0  0  0  0  0  0  0
   -7.1387   -4.1382  -24.0915 O   0  0  0  0  0  0  0  0  0  0  0  0
   -6.9701   -5.2502  -24.9302 C   0  0  0  0  0  0  0  0  0  0  0  0
   -7.0207   -6.1945  -24.3654 H   0  0  0  0  0  0  0  0  0  0  0  0
   -5.9809   -5.1668  -25.3862 H   0  0  0  0  0  0  0  0  0  0  0  0
   -7.7263   -5.2787  -25.7311 H   0  0  0  0  0  0  0  0  0  0  0  0
   -8.5105   -5.0496  -22.8441 H   0  0  0  0  0  0  0  0  0  0  0  0
   -9.2098   -4.1118  -24.1843 H   0  0  0  0  0  0  0  0  0  0  0  0
   -9.4081   -3.0689  -21.9254 H   0  0  0  0  0  0  0  0  0  0  0  0
   -7.4475   -3.2732  -20.6812 H   0  0  0  0  0  0  0  0  0  0  0  0
   -6.3712   -2.9880  -22.0482 H   0  0  0  0  0  0  0  0  0  0  0  0
  -10.2305   -1.3754  -23.5626 C   0  0  0  0  0  0  0  0  0  0  0  0
  -11.1822   -1.2532  -22.5370 C   0  0  0  0  0  0  0  0  0  0  0  0
  -12.5362   -1.2605  -22.8656 C   0  0  0  0  0  0  0  0  0  0  0  0
  -13.7497   -1.3564  -21.6330 Cl  0  0  0  0  0  0  0  0  0  0  0  0
  -12.9918   -1.3060  -24.1799 C   0  0  0  0  0  0  0  0  0  0  0  0
  -12.0524   -1.4305  -25.1808 C   0  0  0  0  0  0  0  0  0  0  0  0
  -10.6950   -1.4865  -24.8766 C   0  0  0  0  0  0  0  0  0  0  0  0
   -9.7937   -1.8095  -26.0154 C   0  0  0  0  0  0  0  0  0  0  0  0
  -10.2228   -2.0143  -27.1533 O   0  0  0  0  0  0  0  0  0  0  0  0
  -12.3033   -1.5555  -26.2270 H   0  0  0  0  0  0  0  0  0  0  0  0
  -14.0648   -1.3059  -24.3657 H   0  0  0  0  0  0  0  0  0  0  0  0
  -10.8857   -1.1912  -21.4939 H   0  0  0  0  0  0  0  0  0  0  0  0
   -6.8989   -1.6668  -24.3802 H   0  0  0  0  0  0  0  0  0  0  0  0
   -7.8301   -0.2036  -24.6770 H   0  0  0  0  0  0  0  0  0  0  0  0
   -6.6510   -2.6502  -26.4259 H   0  0  0  0  0  0  0  0  0  0  0  0
   -8.1038   -3.1144  -27.3719 H   0  0  0  0  0  0  0  0  0  0  0  0
   -9.1174   -1.5173  -28.6975 H   0  0  0  0  0  0  0  0  0  0  0  0
   -8.4161    0.9485  -29.2740 H   0  0  0  0  0  0  0  0  0  0  0  0
   -8.8078   -0.1762  -30.6153 H   0  0  0  0  0  0  0  0  0  0  0  0
   -7.1198    0.1220  -30.1419 H   0  0  0  0  0  0  0  0  0  0  0  0
  1  2  1  0
  2  3  1  0
  3  4  2  0
  3  5  1  0
  5  6  1  0
  6  7  1  0
  8  7  1  6
  8  9  1  0
  9 10  2  0
  9 11  1  0
 11 12  1  0
 12 13  2  0
 13 14  1  0
 14 15  2  0
 15 16  1  0
 16 17  2  0
 17 18  1  0
 18 19  2  0
 19 20  1  0
 20 21  2  0
 20 22  1  0
 19 23  1  0
 18 24  1  0
 17 25  1  0
 15 26  1  0
 13 27  1  0
 11 28  1  0
 28 29  1  0
 29 30  1  0
 30 31  1  0
 31 32  1  0
 32 33  1  0
 32 34  1  0
 32 35  1  0
 30 36  1  0
 30 37  1  0
 29 38  1  1
 28 39  1  0
 28 40  1  0
  8 41  1  0
 41 42  2  0
 42 43  1  0
 43 44  1  0
 43 45  2  0
 45 46  1  0
 46 47  2  0
 47 48  1  0
 48 49  2  0
 46 50  1  0
 45 51  1  0
 42 52  1  0
  7 53  1  0
  7 54  1  0
  5 55  1  0
  5 56  1  0
  2 57  1  0
  1 58  1  0
  1 59  1  0
  1 60  1  0
 48  6  1  0
 29  8  1  0
 47 41  1  0
 21 12  1  0
 21 16  1  0
M  END
>  <cnnaffinities>  (9) 
[6.25517, 6.61416]

>  <score>  (9) 
6.25517

>  <index>  (9) 
8

>  <Smiles>  (9) 
C(N(C(=O)C(N1C([C@@]2(C(=O)N(c3c(nc(c4c(c(c(c(c34)[H])[H])[H])[H])[H])[H])C([C@@]2(C(OC([H])([H])[H])([H])[H])[H])([H])[H])c2c(c(Cl)c(c(c2C1=O)[H])[H])[H])([H])[H])([H])[H])[H])([H])([H])[H]

>  <h>  (9) 
<NA>

>  <Training>  (9) 
True

>  <Success>  (9) 
True

>  <enamine_searched>  (9) 
False

>  <enamine_id>  (9) 
nan

$$$$

     RDKit          3D

 41 43  0  0  0  0  0  0  0  0999 V2000
  -13.1786   -2.9268  -22.9038 C   0  0  0  0  0  0  0  0  0  0  0  0
  -11.9682   -2.0497  -23.2210 C   0  0  1  0  0  0  0  0  0  0  0  0
  -12.1517   -0.6608  -22.6481 C   0  0  0  0  0  0  0  0  0  0  0  0
  -11.3097    0.3524  -22.8400 C   0  0  0  0  0  0  0  0  0  0  0  0
  -10.0167    0.2140  -23.6083 C   0  0  0  0  0  0  0  0  0  0  0  0
   -9.0884   -0.7837  -23.0607 N   0  0  0  0  0  0  0  0  0  0  0  0
   -8.3783   -0.4056  -21.9322 C   0  0  0  0  0  0  0  0  0  0  0  0
   -8.4817    0.7165  -21.4715 O   0  0  0  0  0  0  0  0  0  0  0  0
   -7.4318   -1.4341  -21.2755 C   0  0  0  0  0  0  0  0  0  0  0  0
   -6.5780   -0.8291  -20.1871 C   0  0  0  0  0  0  0  0  0  0  0  0
   -6.8799   -1.0335  -18.8684 C   0  0  0  0  0  0  0  0  0  0  0  0
   -6.2007   -0.5110  -17.8144 N   0  0  0  0  0  0  0  0  0  0  0  0
   -5.1548    0.2295  -18.0729 C   0  0  0  0  0  0  0  0  0  0  0  0
   -4.7192    0.5360  -19.3867 C   0  0  0  0  0  0  0  0  0  0  0  0
   -3.5942    1.3653  -19.6245 C   0  0  0  0  0  0  0  0  0  0  0  0
   -3.2084    1.6585  -20.9033 C   0  0  0  0  0  0  0  0  0  0  0  0
   -3.9334    1.1302  -21.9941 C   0  0  0  0  0  0  0  0  0  0  0  0
   -5.0259    0.3234  -21.7886 C   0  0  0  0  0  0  0  0  0  0  0  0
   -5.4527    0.0016  -20.4757 C   0  0  0  0  0  0  0  0  0  0  0  0
   -5.5771   -0.0660  -22.6379 H   0  0  0  0  0  0  0  0  0  0  0  0
   -3.6229    1.3733  -23.0055 H   0  0  0  0  0  0  0  0  0  0  0  0
   -2.3531    2.3040  -21.0878 H   0  0  0  0  0  0  0  0  0  0  0  0
   -3.0561    1.7759  -18.7730 H   0  0  0  0  0  0  0  0  0  0  0  0
   -4.6006    0.6276  -17.2188 H   0  0  0  0  0  0  0  0  0  0  0  0
   -7.7269   -1.6581  -18.5849 H   0  0  0  0  0  0  0  0  0  0  0  0
   -6.7962   -1.9002  -22.0394 H   0  0  0  0  0  0  0  0  0  0  0  0
   -8.0410   -2.2444  -20.8458 H   0  0  0  0  0  0  0  0  0  0  0  0
   -9.3939   -2.1699  -23.3975 C   0  0  0  0  0  0  0  0  0  0  0  0
  -10.6661   -2.7295  -22.7532 C   0  0  0  0  0  0  0  0  0  0  0  0
  -10.5877   -2.6369  -21.6644 H   0  0  0  0  0  0  0  0  0  0  0  0
  -10.7249   -3.8071  -22.9660 H   0  0  0  0  0  0  0  0  0  0  0  0
   -8.5299   -2.7932  -23.1561 H   0  0  0  0  0  0  0  0  0  0  0  0
   -9.5105   -2.2193  -24.4854 H   0  0  0  0  0  0  0  0  0  0  0  0
  -10.2430   -0.0787  -24.6398 H   0  0  0  0  0  0  0  0  0  0  0  0
   -9.5070    1.1777  -23.6539 H   0  0  0  0  0  0  0  0  0  0  0  0
  -11.4865    1.3332  -22.3995 H   0  0  0  0  0  0  0  0  0  0  0  0
  -13.0266   -0.5167  -22.0127 H   0  0  0  0  0  0  0  0  0  0  0  0
  -11.9077   -1.9536  -24.3151 H   0  0  0  0  0  0  0  0  0  0  0  0
  -13.0976   -3.9090  -23.3855 H   0  0  0  0  0  0  0  0  0  0  0  0
  -13.2636   -3.0903  -21.8220 H   0  0  0  0  0  0  0  0  0  0  0  0
  -14.1067   -2.4569  -23.2514 H   0  0  0  0  0  0  0  0  0  0  0  0
  1  2  1  0
  2  3  1  0
  3  4  2  0
  4  5  1  0
  5  6  1  0
  6  7  1  0
  7  8  2  0
  7  9  1  0
  9 10  1  0
 10 11  2  0
 11 12  1  0
 12 13  2  0
 13 14  1  0
 14 15  2  0
 15 16  1  0
 16 17  2  0
 17 18  1  0
 18 19  2  0
 18 20  1  0
 17 21  1  0
 16 22  1  0
 15 23  1  0
 13 24  1  0
 11 25  1  0
  9 26  1  0
  9 27  1  0
  6 28  1  0
 28 29  1  0
 29 30  1  0
 29 31  1  0
 28 32  1  0
 28 33  1  0
  5 34  1  0
  5 35  1  0
  4 36  1  0
  3 37  1  0
  2 38  1  6
  1 39  1  0
  1 40  1  0
  1 41  1  0
 29  2  1  0
 19 10  1  0
 19 14  1  0
M  END
>  <cnnaffinities>  (10) 
[4.91806]

>  <score>  (10) 
4.91806

>  <index>  (10) 
9

>  <Smiles>  (10) 
C([C@]1(C(=C(C(N(C(=O)C(c2c(nc(c3c(c(c(c(c23)[H])[H])[H])[H])[H])[H])([H])[H])C(C1([H])[H])([H])[H])([H])[H])[H])[H])[H])([H])([H])[H]

>  <h>  (10) 
<NA>

>  <Training>  (10) 
True

>  <Success>  (10) 
True

>  <enamine_searched>  (10) 
False

>  <enamine_id>  (10) 
nan

$$$$

     RDKit          3D

 57 62  0  0  0  0  0  0  0  0999 V2000
  -10.4470   -1.0574  -23.4077 C   0  0  0  0  0  0  0  0  0  0  0  0
   -9.0106   -1.3923  -23.0113 C   0  0  1  0  0  0  0  0  0  0  0  0
   -8.4331   -0.4708  -21.9211 C   0  0  0  0  0  0  0  0  0  0  0  0
   -7.4209   -1.2943  -21.2898 N   0  0  0  0  0  0  0  0  0  0  0  0
   -6.6031   -0.8100  -20.2386 C   0  0  0  0  0  0  0  0  0  0  0  0
   -6.9326   -1.0369  -18.9261 C   0  0  0  0  0  0  0  0  0  0  0  0
   -6.2716   -0.4857  -17.8770 N   0  0  0  0  0  0  0  0  0  0  0  0
   -5.2330    0.2701  -18.1311 C   0  0  0  0  0  0  0  0  0  0  0  0
   -4.7604    0.5566  -19.4433 C   0  0  0  0  0  0  0  0  0  0  0  0
   -3.6222    1.3714  -19.6775 C   0  0  0  0  0  0  0  0  0  0  0  0
   -3.2097    1.6269  -20.9568 C   0  0  0  0  0  0  0  0  0  0  0  0
   -3.9131    1.0835  -22.0561 C   0  0  0  0  0  0  0  0  0  0  0  0
   -5.0178    0.2914  -21.8538 C   0  0  0  0  0  0  0  0  0  0  0  0
   -5.4685    0.0116  -20.5364 C   0  0  0  0  0  0  0  0  0  0  0  0
   -5.5528   -0.1393  -22.6941 H   0  0  0  0  0  0  0  0  0  0  0  0
   -3.5765    1.2970  -23.0667 H   0  0  0  0  0  0  0  0  0  0  0  0
   -2.3385    2.2519  -21.1341 H   0  0  0  0  0  0  0  0  0  0  0  0
   -3.0965    1.7804  -18.8186 H   0  0  0  0  0  0  0  0  0  0  0  0
   -4.7074    0.7029  -17.2780 H   0  0  0  0  0  0  0  0  0  0  0  0
   -7.7767   -1.6734  -18.6644 H   0  0  0  0  0  0  0  0  0  0  0  0
   -7.5752   -2.6405  -21.5274 C   0  0  0  0  0  0  0  0  0  0  0  0
   -6.8291   -3.4841  -21.0747 O   0  0  0  0  0  0  0  0  0  0  0  0
   -8.7869   -2.8486  -22.4597 C   0  0  1  0  0  0  0  0  0  0  0  0
   -9.9793   -3.3325  -21.5917 C   0  0  0  0  0  0  0  0  0  0  0  0
  -11.1242   -3.8259  -22.3605 N   0  0  0  0  0  0  0  0  0  0  0  0
  -12.4789   -3.8582  -21.7941 C   0  0  0  0  0  0  0  0  0  0  0  0
  -13.3722   -2.7284  -22.2191 C   0  0  0  0  0  0  0  0  0  0  0  0
  -13.9960   -1.7488  -21.5267 C   0  0  0  0  0  0  0  0  0  0  0  0
  -14.7718   -1.0480  -22.4280 N   0  0  0  0  0  4  0  0  0  0  0  0
  -14.6081   -1.5775  -23.6480 C   0  0  0  0  0  0  0  0  0  0  0  0
  -13.7497   -2.5981  -23.5438 N   0  0  0  0  0  0  0  0  0  0  0  0
  -13.3889   -3.2316  -24.2608 H   0  0  0  0  0  0  0  0  0  0  0  0
  -15.0521   -1.2371  -24.5705 H   0  0  0  0  0  0  0  0  0  0  0  0
  -15.3753   -0.2778  -22.1605 H   0  0  0  0  0  0  0  0  0  0  0  0
  -13.9622   -1.4684  -20.4777 H   0  0  0  0  0  0  0  0  0  0  0  0
  -12.9591   -4.7558  -22.1966 H   0  0  0  0  0  0  0  0  0  0  0  0
  -12.4314   -3.9496  -20.7048 H   0  0  0  0  0  0  0  0  0  0  0  0
  -10.9638   -4.4751  -23.5466 C   0  0  0  0  0  0  0  0  0  0  0  0
  -11.9310   -4.8625  -24.2046 O   0  0  0  0  0  0  0  0  0  0  0  0
   -9.5586   -4.6809  -24.0041 C   0  0  0  0  0  0  0  0  0  0  0  0
   -9.3268   -5.6771  -24.9474 C   0  0  0  0  0  0  0  0  0  0  0  0
   -8.0563   -5.8945  -25.4434 C   0  0  0  0  0  0  0  0  0  0  0  0
   -7.0318   -5.0678  -24.9973 C   0  0  0  0  0  0  0  0  0  0  0  0
   -5.7983   -5.2485  -25.4957 F   0  0  0  0  0  0  0  0  0  0  0  0
   -7.2264   -4.0776  -24.0543 C   0  0  0  0  0  0  0  0  0  0  0  0
   -8.5084   -3.8912  -23.5198 C   0  0  0  0  0  0  0  0  0  0  0  0
   -6.3696   -3.5087  -23.7058 H   0  0  0  0  0  0  0  0  0  0  0  0
   -7.8412   -6.6930  -26.1448 H   0  0  0  0  0  0  0  0  0  0  0  0
  -10.1720   -6.2724  -25.2741 H   0  0  0  0  0  0  0  0  0  0  0  0
   -9.6130   -4.1213  -20.9317 H   0  0  0  0  0  0  0  0  0  0  0  0
  -10.2874   -2.4931  -20.9617 H   0  0  0  0  0  0  0  0  0  0  0  0
   -7.9908    0.4528  -22.3103 H   0  0  0  0  0  0  0  0  0  0  0  0
   -9.1984   -0.1652  -21.1918 H   0  0  0  0  0  0  0  0  0  0  0  0
   -8.3645   -1.3101  -23.8956 H   0  0  0  0  0  0  0  0  0  0  0  0
  -11.1179   -1.0842  -22.5417 H   0  0  0  0  0  0  0  0  0  0  0  0
  -10.8098   -1.7822  -24.1419 H   0  0  0  0  0  0  0  0  0  0  0  0
  -10.5327   -0.0620  -23.8506 H   0  0  0  0  0  0  0  0  0  0  0  0
  1  2  1  0
  2  3  1  0
  3  4  1  0
  4  5  1  0
  5  6  2  0
  6  7  1  0
  7  8  2  0
  8  9  1  0
  9 10  2  0
 10 11  1  0
 11 12  2  0
 12 13  1  0
 13 14  2  0
 13 15  1  0
 12 16  1  0
 11 17  1  0
 10 18  1  0
  8 19  1  0
  6 20  1  0
  4 21  1  0
 21 22  2  0
 21 23  1  0
 23 24  1  1
 24 25  1  0
 25 26  1  0
 26 27  1  0
 27 28  2  0
 28 29  1  0
 29 30  2  0
 30 31  1  0
 31 32  1  0
 30 33  1  0
 29 34  1  0
 28 35  1  0
 26 36  1  0
 26 37  1  0
 25 38  1  0
 38 39  2  0
 38 40  1  0
 40 41  2  0
 41 42  1  0
 42 43  2  0
 43 44  1  0
 43 45  1  0
 45 46  2  0
 45 47  1  0
 42 48  1  0
 41 49  1  0
 24 50  1  0
 24 51  1  0
  3 52  1  0
  3 53  1  0
  2 54  1  6
  1 55  1  0
  1 56  1  0
  1 57  1  0
 23  2  1  0
 31 27  1  0
 46 40  1  0
 14  5  1  0
 46 23  1  0
 14  9  1  0
M  CHG  1  29   1
M  END
>  <cnnaffinities>  (11) 
[6.72835]

>  <score>  (11) 
6.72835

>  <index>  (11) 
10

>  <Smiles>  (11) 
C([C@]1(C(N(c2c(nc(c3c(c(c(c(c23)[H])[H])[H])[H])[H])[H])C(=O)[C@]21C(N(C(c1c([n+](c(n1[H])[H])[H])[H])([H])[H])C(=O)c1c(c(c(F)c(c21)[H])[H])[H])([H])[H])([H])[H])[H])([H])([H])[H]

>  <h>  (11) 
<NA>

>  <Training>  (11) 
True

>  <Success>  (11) 
True

>  <enamine_searched>  (11) 
False

>  <enamine_id>  (11) 
nan

$$$$

     RDKit          3D

 48 52  0  0  0  0  0  0  0  0999 V2000
   -9.8149   -0.9917  -23.9204 C   0  0  0  0  0  0  0  0  0  0  0  0
   -8.7590   -1.4033  -23.0212 N   0  0  0  0  0  0  0  0  0  0  0  0
   -8.4997   -0.7635  -21.8358 C   0  0  0  0  0  0  0  0  0  0  0  0
   -9.1033    0.1626  -21.3450 O   0  0  0  0  0  0  0  0  0  0  0  0
   -7.3713   -1.3973  -21.2805 N   0  0  0  0  0  0  0  0  0  0  0  0
   -6.5896   -0.8243  -20.2274 C   0  0  0  0  0  0  0  0  0  0  0  0
   -6.9175   -1.0454  -18.9183 C   0  0  0  0  0  0  0  0  0  0  0  0
   -6.2342   -0.5256  -17.8663 N   0  0  0  0  0  0  0  0  0  0  0  0
   -5.1856    0.2136  -18.1108 C   0  0  0  0  0  0  0  0  0  0  0  0
   -4.7251    0.5253  -19.4166 C   0  0  0  0  0  0  0  0  0  0  0  0
   -3.5946    1.3564  -19.6412 C   0  0  0  0  0  0  0  0  0  0  0  0
   -3.2041    1.6543  -20.9157 C   0  0  0  0  0  0  0  0  0  0  0  0
   -3.9255    1.1351  -22.0137 C   0  0  0  0  0  0  0  0  0  0  0  0
   -5.0182    0.3330  -21.8189 C   0  0  0  0  0  0  0  0  0  0  0  0
   -5.4486   -0.0006  -20.5096 C   0  0  0  0  0  0  0  0  0  0  0  0
   -5.5798   -0.0497  -22.6641 H   0  0  0  0  0  0  0  0  0  0  0  0
   -3.6216    1.3788  -23.0254 H   0  0  0  0  0  0  0  0  0  0  0  0
   -2.3517    2.3039  -21.0944 H   0  0  0  0  0  0  0  0  0  0  0  0
   -3.0719    1.7619  -18.7792 H   0  0  0  0  0  0  0  0  0  0  0  0
   -4.6412    0.6044  -17.2502 H   0  0  0  0  0  0  0  0  0  0  0  0
   -7.7602   -1.6782  -18.6517 H   0  0  0  0  0  0  0  0  0  0  0  0
   -6.9153   -2.4300  -22.0999 C   0  0  0  0  0  0  0  0  0  0  0  0
   -5.9598   -3.1291  -21.8749 O   0  0  0  0  0  0  0  0  0  0  0  0
   -7.8292   -2.4573  -23.3185 C   0  0  0  0  0  0  0  0  0  0  0  0
   -8.3853   -3.8482  -23.7177 C   0  0  0  0  0  0  0  0  0  0  0  0
   -7.6378   -3.8065  -24.9970 N   0  0  0  0  0  0  0  0  0  0  0  0
   -8.5462   -3.8899  -26.4234 S   0  0  0  0  0  0  0  0  0  0  0  0
   -7.5943   -3.8514  -27.5137 O   0  0  0  0  0  0  0  0  0  0  0  0
   -9.6220   -2.9132  -26.3151 O   0  0  0  0  0  0  0  0  0  0  0  0
   -9.3168   -5.4847  -26.4159 C   0  0  0  0  0  0  0  0  0  0  0  0
   -8.6026   -6.5746  -26.8946 C   0  0  0  0  0  0  0  0  0  0  0  0
   -9.2533   -7.7966  -26.9713 C   0  0  0  0  0  0  0  0  0  0  0  0
  -10.5648   -7.9390  -26.5494 C   0  0  0  0  0  0  0  0  0  0  0  0
  -11.2738   -6.8371  -26.0787 C   0  0  0  0  0  0  0  0  0  0  0  0
  -10.6512   -5.5974  -26.0277 C   0  0  0  0  0  0  0  0  0  0  0  0
  -11.1974   -4.7137  -25.7098 H   0  0  0  0  0  0  0  0  0  0  0  0
  -12.3130   -6.9274  -25.7752 H   0  0  0  0  0  0  0  0  0  0  0  0
  -11.0069   -8.9286  -26.6276 H   0  0  0  0  0  0  0  0  0  0  0  0
   -8.7842   -8.6509  -27.4266 H   0  0  0  0  0  0  0  0  0  0  0  0
   -7.5765   -6.4564  -27.2296 H   0  0  0  0  0  0  0  0  0  0  0  0
   -7.0946   -2.4447  -24.6856 C   0  0  0  0  0  0  0  0  0  0  0  0
   -7.3844   -1.6473  -25.3808 H   0  0  0  0  0  0  0  0  0  0  0  0
   -6.0086   -2.4858  -24.6036 H   0  0  0  0  0  0  0  0  0  0  0  0
   -8.0157   -4.6643  -23.0997 H   0  0  0  0  0  0  0  0  0  0  0  0
   -9.4761   -3.9203  -23.8116 H   0  0  0  0  0  0  0  0  0  0  0  0
  -10.4609   -1.8434  -24.1596 H   0  0  0  0  0  0  0  0  0  0  0  0
   -9.3993   -0.5970  -24.8555 H   0  0  0  0  0  0  0  0  0  0  0  0
  -10.3753   -0.2118  -23.4037 H   0  0  0  0  0  0  0  0  0  0  0  0
  1  2  1  0
  2  3  1  0
  3  4  2  0
  3  5  1  0
  5  6  1  0
  6  7  2  0
  7  8  1  0
  8  9  2  0
  9 10  1  0
 10 11  2  0
 11 12  1  0
 12 13  2  0
 13 14  1  0
 14 15  2  0
 14 16  1  0
 13 17  1  0
 12 18  1  0
 11 19  1  0
  9 20  1  0
  7 21  1  0
  5 22  1  0
 22 23  2  0
 22 24  1  0
 24 25  1  0
 25 26  1  0
 26 27  1  0
 27 28  2  0
 27 29  2  0
 27 30  1  0
 30 31  2  0
 31 32  1  0
 32 33  2  0
 33 34  1  0
 34 35  2  0
 35 36  1  0
 34 37  1  0
 33 38  1  0
 32 39  1  0
 31 40  1  0
 26 41  1  0
 41 42  1  0
 41 43  1  0
 25 44  1  0
 25 45  1  0
  1 46  1  0
  1 47  1  0
  1 48  1  0
 24  2  1  0
 35 30  1  0
 15  6  1  0
 41 24  1  0
 15 10  1  0
M  END
>  <cnnaffinities>  (12) 
[5.67993, 6.08325, 5.68406, 6.0786, 5.69308, 5.70095, 5.39739, 5.69777, 5.6798]

>  <score>  (12) 
5.67993

>  <index>  (12) 
11

>  <Smiles>  (12) 
C(N1C(=O)N(c2c(nc(c3c(c(c(c(c23)[H])[H])[H])[H])[H])[H])C(=O)C21C(N(S(=O)(=O)c1c(c(c(c(c1[H])[H])[H])[H])[H])C2([H])[H])([H])[H])([H])([H])[H]

>  <h>  (12) 
<NA>

>  <Training>  (12) 
True

>  <Success>  (12) 
True

>  <enamine_searched>  (12) 
False

>  <enamine_id>  (12) 
nan

$$$$

     RDKit          3D

 76 82  0  0  0  0  0  0  0  0999 V2000
  -11.2175    1.6511  -23.5177 O   0  0  0  0  0  0  0  0  0  0  0  0
  -10.6830    0.5537  -23.6297 C   0  0  0  0  0  0  0  0  0  0  0  0
  -11.3669   -0.7184  -23.2135 C   0  0  0  0  0  0  0  0  0  0  0  0
  -12.7576   -0.7367  -23.2084 C   0  0  0  0  0  0  0  0  0  0  0  0
  -13.4255   -1.8362  -22.7085 C   0  0  0  0  0  0  0  0  0  0  0  0
  -12.6974   -2.9091  -22.2018 C   0  0  0  0  0  0  0  0  0  0  0  0
  -13.5981   -4.1779  -21.4191 Cl  0  0  0  0  0  0  0  0  0  0  0  0
  -11.3111   -2.9292  -22.2428 C   0  0  0  0  0  0  0  0  0  0  0  0
  -10.6213   -1.8255  -22.7722 C   0  0  0  0  0  0  0  0  0  0  0  0
   -9.1086   -1.7011  -22.8192 C   0  0  1  0  0  0  0  0  0  0  0  0
   -8.7757   -0.8975  -24.1104 C   0  0  0  0  0  0  0  0  0  0  0  0
   -9.4342    0.3946  -24.1380 N   0  0  0  0  0  0  0  0  0  0  0  0
   -8.6705    1.5754  -24.4941 C   0  0  0  0  0  0  0  0  0  0  0  0
   -8.0721    2.2350  -23.2522 C   0  0  0  0  0  0  0  0  0  0  0  0
   -7.2482    3.4297  -23.5326 N   0  0  0  0  0  4  0  0  0  0  0  0
   -6.0626    3.1492  -24.4395 C   0  0  0  0  0  0  0  0  0  0  0  0
   -5.0403    4.2785  -24.2848 C   0  0  0  0  0  0  0  0  0  0  0  0
   -5.7279    5.4600  -23.9353 O   0  0  0  0  0  0  0  0  0  0  0  0
   -6.0770    5.4021  -22.5678 C   0  0  0  0  0  0  0  0  0  0  0  0
   -6.8271    4.0955  -22.2512 C   0  0  0  0  0  0  0  0  0  0  0  0
   -7.7195    4.2844  -21.6466 H   0  0  0  0  0  0  0  0  0  0  0  0
   -6.1903    3.3959  -21.6967 H   0  0  0  0  0  0  0  0  0  0  0  0
   -5.1627    5.4671  -21.9602 H   0  0  0  0  0  0  0  0  0  0  0  0
   -6.6806    6.2891  -22.3636 H   0  0  0  0  0  0  0  0  0  0  0  0
   -4.2962    4.0356  -23.5084 H   0  0  0  0  0  0  0  0  0  0  0  0
   -4.5024    4.4716  -25.2184 H   0  0  0  0  0  0  0  0  0  0  0  0
   -6.4221    3.1215  -25.4701 H   0  0  0  0  0  0  0  0  0  0  0  0
   -5.6364    2.1749  -24.1856 H   0  0  0  0  0  0  0  0  0  0  0  0
   -7.8410    4.1225  -24.0261 H   0  0  0  0  0  0  0  0  0  0  0  0
   -7.4582    1.4951  -22.7266 H   0  0  0  0  0  0  0  0  0  0  0  0
   -8.8812    2.5041  -22.5658 H   0  0  0  0  0  0  0  0  0  0  0  0
   -9.3415    2.2558  -25.0219 H   0  0  0  0  0  0  0  0  0  0  0  0
   -7.8907    1.2443  -25.1908 H   0  0  0  0  0  0  0  0  0  0  0  0
   -9.1104   -1.4919  -24.9682 H   0  0  0  0  0  0  0  0  0  0  0  0
   -7.6969   -0.7236  -24.1781 H   0  0  0  0  0  0  0  0  0  0  0  0
   -8.5990   -0.9238  -21.5850 C   0  0  0  0  0  0  0  0  0  0  0  0
   -9.1570    0.0005  -21.0165 O   0  0  0  0  0  0  0  0  0  0  0  0
   -7.3776   -1.4342  -21.2189 N   0  0  0  0  0  0  0  0  0  0  0  0
   -6.5991   -0.8272  -20.1984 C   0  0  0  0  0  0  0  0  0  0  0  0
   -6.9252   -1.0279  -18.8806 C   0  0  0  0  0  0  0  0  0  0  0  0
   -6.2390   -0.5026  -17.8376 N   0  0  0  0  0  0  0  0  0  0  0  0
   -5.1864    0.2305  -18.1012 C   0  0  0  0  0  0  0  0  0  0  0  0
   -4.7398    0.5275  -19.4187 C   0  0  0  0  0  0  0  0  0  0  0  0
   -3.6086    1.3537  -19.6478 C   0  0  0  0  0  0  0  0  0  0  0  0
   -3.2069    1.6405  -20.9249 C   0  0  0  0  0  0  0  0  0  0  0  0
   -3.9213    1.1175  -22.0239 C   0  0  0  0  0  0  0  0  0  0  0  0
   -5.0216    0.3126  -21.8269 C   0  0  0  0  0  0  0  0  0  0  0  0
   -5.4619   -0.0105  -20.5111 C   0  0  0  0  0  0  0  0  0  0  0  0
   -5.5642   -0.0760  -22.6834 H   0  0  0  0  0  0  0  0  0  0  0  0
   -3.5968    1.3524  -23.0352 H   0  0  0  0  0  0  0  0  0  0  0  0
   -2.3498    2.2868  -21.0939 H   0  0  0  0  0  0  0  0  0  0  0  0
   -3.0849    1.7609  -18.7886 H   0  0  0  0  0  0  0  0  0  0  0  0
   -4.6233    0.6283  -17.2548 H   0  0  0  0  0  0  0  0  0  0  0  0
   -7.7808   -1.6495  -18.6216 H   0  0  0  0  0  0  0  0  0  0  0  0
   -6.9740   -2.5959  -21.9920 C   0  0  0  0  0  0  0  0  0  0  0  0
   -8.2777   -3.0077  -22.7013 C   0  0  2  0  0  0  0  0  0  0  0  0
   -8.0850   -3.8850  -23.9465 C   0  0  0  0  0  0  0  0  0  0  0  0
   -7.1760   -3.3458  -24.9401 N   0  0  0  0  0  0  0  0  0  0  0  0
   -7.4459   -3.3314  -26.2790 C   0  0  0  0  0  0  0  0  0  0  0  0
   -6.4025   -2.9676  -27.0494 N   0  0  0  0  0  0  0  0  0  0  0  0
   -6.6635   -2.8373  -28.3337 C   0  0  0  0  0  0  0  0  0  0  0  0
   -7.9022   -3.1145  -28.8891 C   0  0  0  0  0  0  0  0  0  0  0  0
   -8.8869   -3.5339  -28.0166 C   0  0  0  0  0  0  0  0  0  0  0  0
   -8.6818   -3.6302  -26.6990 N   0  0  0  0  0  0  0  0  0  0  0  0
   -9.8835   -3.7968  -28.3718 H   0  0  0  0  0  0  0  0  0  0  0  0
   -8.0503   -2.9983  -29.9468 H   0  0  0  0  0  0  0  0  0  0  0  0
   -5.8238   -2.4838  -28.9267 H   0  0  0  0  0  0  0  0  0  0  0  0
   -6.1894   -3.2842  -24.7382 H   0  0  0  0  0  0  0  0  0  0  0  0
   -7.7563   -4.8842  -23.6248 H   0  0  0  0  0  0  0  0  0  0  0  0
   -9.0466   -4.0121  -24.4429 H   0  0  0  0  0  0  0  0  0  0  0  0
   -8.8308   -3.6239  -21.9853 H   0  0  0  0  0  0  0  0  0  0  0  0
   -6.1687   -2.3304  -22.6904 H   0  0  0  0  0  0  0  0  0  0  0  0
   -6.6014   -3.3856  -21.3324 H   0  0  0  0  0  0  0  0  0  0  0  0
  -10.7870   -3.7792  -21.8214 H   0  0  0  0  0  0  0  0  0  0  0  0
  -14.5050   -1.8610  -22.6422 H   0  0  0  0  0  0  0  0  0  0  0  0
  -13.2893    0.1220  -23.6085 H   0  0  0  0  0  0  0  0  0  0  0  0
  1  2  2  0
  2  3  1  0
  3  4  2  0
  4  5  1  0
  5  6  2  0
  6  7  1  0
  6  8  1  0
  8  9  2  0
  9 10  1  0
 10 11  1  6
 11 12  1  0
 12 13  1  0
 13 14  1  0
 14 15  1  0
 15 16  1  0
 16 17  1  0
 17 18  1  0
 18 19  1  0
 19 20  1  0
 20 21  1  0
 20 22  1  0
 19 23  1  0
 19 24  1  0
 17 25  1  0
 17 26  1  0
 16 27  1  0
 16 28  1  0
 15 29  1  0
 14 30  1  0
 14 31  1  0
 13 32  1  0
 13 33  1  0
 11 34  1  0
 11 35  1  0
 10 36  1  0
 36 37  2  0
 36 38  1  0
 38 39  1  0
 39 40  2  0
 40 41  1  0
 41 42  2  0
 42 43  1  0
 43 44  2  0
 44 45  1  0
 45 46  2  0
 46 47  1  0
 47 48  2  0
 47 49  1  0
 46 50  1  0
 45 51  1  0
 44 52  1  0
 42 53  1  0
 40 54  1  0
 38 55  1  0
 55 56  1  0
 56 57  1  0
 57 58  1  0
 58 59  1  0
 59 60  2  0
 60 61  1  0
 61 62  2  0
 62 63  1  0
 63 64  2  0
 63 65  1  0
 62 66  1  0
 61 67  1  0
 58 68  1  0
 57 69  1  0
 57 70  1  0
 56 71  1  1
 55 72  1  0
 55 73  1  0
  8 74  1  0
  5 75  1  0
  4 76  1  0
 12  2  1  0
 20 15  1  0
 48 39  1  0
 64 59  1  0
  9  3  1  0
 56 10  1  0
 48 43  1  0
M  CHG  1  15   1
M  END
>  <cnnaffinities>  (13) 
[6.29057]

>  <score>  (13) 
6.29057

>  <index>  (13) 
12

>  <Smiles>  (13) 
O=C1c2c(c(c(Cl)c(c2[C@@]2(C(N1C(C([N+]1(C(C(OC(C1([H])[H])([H])[H])([H])[H])([H])[H])[H])([H])[H])([H])[H])([H])[H])C(=O)N(c1c(nc(c3c(c(c(c(c13)[H])[H])[H])[H])[H])[H])C([C@@]2(C(N(c1nc(c(c(n1)[H])[H])[H])[H])([H])[H])[H])([H])[H])[H])[H])[H]

>  <h>  (13) 
<NA>

>  <Training>  (13) 
True

>  <Success>  (13) 
True

>  <enamine_searched>  (13) 
False

>  <enamine_id>  (13) 
nan

$$$$

     RDKit          3D

 69 74  0  0  0  0  0  0  0  0999 V2000
   -7.4152    3.3413  -21.7567 C   0  0  0  0  0  0  0  0  0  0  0  0
   -8.4426    2.8396  -22.6454 N   0  0  0  0  0  0  0  0  0  0  0  0
   -8.0374    2.1034  -23.7087 C   0  0  0  0  0  0  0  0  0  0  0  0
   -6.8613    1.8466  -23.9244 O   0  0  0  0  0  0  0  0  0  0  0  0
   -9.1377    1.5837  -24.6212 C   0  0  0  0  0  0  0  0  0  0  0  0
   -9.7567    0.4126  -24.0445 N   0  0  0  0  0  0  0  0  0  0  0  0
   -9.0052   -0.8302  -24.0491 C   0  0  0  0  0  0  0  0  0  0  0  0
   -9.2316   -1.6303  -22.7394 C   0  0  2  0  0  0  0  0  0  0  0  0
   -8.6361   -0.8262  -21.5564 C   0  0  0  0  0  0  0  0  0  0  0  0
   -9.1111    0.1556  -21.0191 O   0  0  0  0  0  0  0  0  0  0  0  0
   -7.4271   -1.3867  -21.2181 N   0  0  0  0  0  0  0  0  0  0  0  0
   -6.6220   -0.8066  -20.2065 C   0  0  0  0  0  0  0  0  0  0  0  0
   -6.9534   -1.0009  -18.8893 C   0  0  0  0  0  0  0  0  0  0  0  0
   -6.2603   -0.4925  -17.8463 N   0  0  0  0  0  0  0  0  0  0  0  0
   -5.2003    0.2276  -18.1143 C   0  0  0  0  0  0  0  0  0  0  0  0
   -4.7515    0.5229  -19.4296 C   0  0  0  0  0  0  0  0  0  0  0  0
   -3.6225    1.3517  -19.6622 C   0  0  0  0  0  0  0  0  0  0  0  0
   -3.2381    1.6558  -20.9379 C   0  0  0  0  0  0  0  0  0  0  0  0
   -3.9617    1.1435  -22.0371 C   0  0  0  0  0  0  0  0  0  0  0  0
   -5.0589    0.3360  -21.8388 C   0  0  0  0  0  0  0  0  0  0  0  0
   -5.4807   -0.0032  -20.5242 C   0  0  0  0  0  0  0  0  0  0  0  0
   -5.6276   -0.0039  -22.6987 H   0  0  0  0  0  0  0  0  0  0  0  0
   -3.6561    1.4002  -23.0464 H   0  0  0  0  0  0  0  0  0  0  0  0
   -2.3833    2.3031  -21.1105 H   0  0  0  0  0  0  0  0  0  0  0  0
   -3.0916    1.7485  -18.8012 H   0  0  0  0  0  0  0  0  0  0  0  0
   -4.6386    0.6257  -17.2685 H   0  0  0  0  0  0  0  0  0  0  0  0
   -7.8223   -1.6052  -18.6413 H   0  0  0  0  0  0  0  0  0  0  0  0
   -7.0812   -2.5628  -21.9945 C   0  0  0  0  0  0  0  0  0  0  0  0
   -8.3997   -2.9436  -22.6908 C   0  0  2  0  0  0  0  0  0  0  0  0
   -8.1575   -3.6927  -24.0070 C   0  0  0  0  0  0  0  0  0  0  0  0
   -9.3986   -4.1219  -24.6109 N   0  0  0  0  0  0  0  0  0  0  0  0
   -9.4342   -4.7533  -25.8154 C   0  0  0  0  0  0  0  0  0  0  0  0
  -10.6577   -5.1743  -26.3792 C   0  0  0  0  0  0  0  0  0  0  0  0
  -10.5842   -5.7811  -27.6117 C   0  0  0  0  0  0  0  0  0  0  0  0
   -9.4342   -5.9810  -28.2707 N   0  0  0  0  0  0  0  0  0  0  0  0
   -8.3319   -5.5642  -27.6467 C   0  0  0  0  0  0  0  0  0  0  0  0
   -7.0313   -5.8183  -28.3666 C   0  0  0  0  0  0  0  0  0  0  0  0
   -7.2064   -5.7701  -29.4472 H   0  0  0  0  0  0  0  0  0  0  0  0
   -6.6706   -6.8302  -28.1362 H   0  0  0  0  0  0  0  0  0  0  0  0
   -6.2628   -5.0965  -28.0700 H   0  0  0  0  0  0  0  0  0  0  0  0
   -8.2700   -4.9622  -26.4495 N   0  0  0  0  0  0  0  0  0  0  0  0
  -11.4846   -6.1306  -28.1206 H   0  0  0  0  0  0  0  0  0  0  0  0
  -11.6080   -5.0349  -25.8687 H   0  0  0  0  0  0  0  0  0  0  0  0
  -10.2729   -3.9345  -24.1398 H   0  0  0  0  0  0  0  0  0  0  0  0
   -7.5292   -4.5748  -23.8223 H   0  0  0  0  0  0  0  0  0  0  0  0
   -7.6130   -3.0630  -24.7265 H   0  0  0  0  0  0  0  0  0  0  0  0
   -8.9249   -3.6343  -22.0224 H   0  0  0  0  0  0  0  0  0  0  0  0
   -6.2911   -2.3402  -22.7277 H   0  0  0  0  0  0  0  0  0  0  0  0
   -6.7199   -3.3675  -21.3464 H   0  0  0  0  0  0  0  0  0  0  0  0
  -10.7261   -1.7812  -22.5370 C   0  0  0  0  0  0  0  0  0  0  0  0
  -11.2861   -2.8370  -21.8109 C   0  0  0  0  0  0  0  0  0  0  0  0
  -12.6509   -2.8706  -21.5871 C   0  0  0  0  0  0  0  0  0  0  0  0
  -13.3110   -4.0857  -20.5386 Cl  0  0  0  0  0  0  0  0  0  0  0  0
  -13.5144   -1.9349  -22.1490 C   0  0  0  0  0  0  0  0  0  0  0  0
  -12.9646   -0.8715  -22.8358 C   0  0  0  0  0  0  0  0  0  0  0  0
  -11.5805   -0.7475  -22.9544 C   0  0  0  0  0  0  0  0  0  0  0  0
  -10.9883    0.5371  -23.4715 C   0  0  0  0  0  0  0  0  0  0  0  0
  -11.5462    1.6269  -23.3652 O   0  0  0  0  0  0  0  0  0  0  0  0
  -13.6042   -0.1153  -23.2765 H   0  0  0  0  0  0  0  0  0  0  0  0
  -14.5828   -2.0146  -21.9809 H   0  0  0  0  0  0  0  0  0  0  0  0
  -10.6890   -3.6096  -21.3410 H   0  0  0  0  0  0  0  0  0  0  0  0
   -7.9406   -0.5974  -24.1581 H   0  0  0  0  0  0  0  0  0  0  0  0
   -9.3066   -1.4369  -24.9106 H   0  0  0  0  0  0  0  0  0  0  0  0
   -8.7184    1.3481  -25.6070 H   0  0  0  0  0  0  0  0  0  0  0  0
   -9.9071    2.3417  -24.7214 H   0  0  0  0  0  0  0  0  0  0  0  0
   -9.4006    2.8065  -22.3154 H   0  0  0  0  0  0  0  0  0  0  0  0
   -6.7664    2.5079  -21.4552 H   0  0  0  0  0  0  0  0  0  0  0  0
   -6.8123    4.1058  -22.2569 H   0  0  0  0  0  0  0  0  0  0  0  0
   -7.8889    3.8036  -20.8944 H   0  0  0  0  0  0  0  0  0  0  0  0
  1  2  1  0
  2  3  1  0
  3  4  2  0
  3  5  1  0
  5  6  1  0
  6  7  1  0
  8  7  1  6
  8  9  1  0
  9 10  2  0
  9 11  1  0
 11 12  1  0
 12 13  2  0
 13 14  1  0
 14 15  2  0
 15 16  1  0
 16 17  2  0
 17 18  1  0
 18 19  2  0
 19 20  1  0
 20 21  2  0
 20 22  1  0
 19 23  1  0
 18 24  1  0
 17 25  1  0
 15 26  1  0
 13 27  1  0
 11 28  1  0
 28 29  1  0
 29 30  1  0
 30 31  1  0
 31 32  1  0
 32 33  2  0
 33 34  1  0
 34 35  2  0
 35 36  1  0
 36 37  1  0
 37 38  1  0
 37 39  1  0
 37 40  1  0
 36 41  2  0
 34 42  1  0
 33 43  1  0
 31 44  1  0
 30 45  1  0
 30 46  1  0
 29 47  1  1
 28 48  1  0
 28 49  1  0
  8 50  1  0
 50 51  2  0
 51 52  1  0
 52 53  1  0
 52 54  2  0
 54 55  1  0
 55 56  2  0
 56 57  1  0
 57 58  2  0
 55 59  1  0
 54 60  1  0
 51 61  1  0
  7 62  1  0
  7 63  1  0
  5 64  1  0
  5 65  1  0
  2 66  1  0
  1 67  1  0
  1 68  1  0
  1 69  1  0
 57  6  1  0
 29  8  1  0
 41 32  1  0
 56 50  1  0
 21 12  1  0
 21 16  1  0
M  END
>  <cnnaffinities>  (14) 
[6.54167]

>  <score>  (14) 
6.54167

>  <index>  (14) 
13

>  <Smiles>  (14) 
C(N(C(=O)C(N1C([C@@]2(C(=O)N(c3c(nc(c4c(c(c(c(c34)[H])[H])[H])[H])[H])[H])C([C@@]2(C(N(c2c(c(nc(C([H])([H])[H])n2)[H])[H])[H])([H])[H])[H])([H])[H])c2c(c(Cl)c(c(c2C1=O)[H])[H])[H])([H])[H])([H])[H])[H])([H])([H])[H]

>  <h>  (14) 
<NA>

>  <Training>  (14) 
True

>  <Success>  (14) 
True

>  <enamine_searched>  (14) 
False

>  <enamine_id>  (14) 
nan

$$$$

     RDKit          3D

 73 78  0  0  0  0  0  0  0  0999 V2000
   -8.4183   -4.1661  -23.4079 C   0  0  0  0  0  0  0  0  0  0  0  0
   -8.5337   -2.9401  -22.5200 C   0  0  1  0  0  0  0  0  0  0  0  0
   -7.3373   -2.6897  -21.6060 C   0  0  0  0  0  0  0  0  0  0  0  0
   -7.4266   -1.2714  -21.3355 N   0  0  0  0  0  0  0  0  0  0  0  0
   -6.6544   -0.6762  -20.3109 C   0  0  0  0  0  0  0  0  0  0  0  0
   -6.9780   -0.9343  -19.0037 C   0  0  0  0  0  0  0  0  0  0  0  0
   -6.3126   -0.4434  -17.9333 N   0  0  0  0  0  0  0  0  0  0  0  0
   -5.2545    0.2928  -18.1666 C   0  0  0  0  0  0  0  0  0  0  0  0
   -4.7718    0.5950  -19.4704 C   0  0  0  0  0  0  0  0  0  0  0  0
   -3.6046    1.3806  -19.6649 C   0  0  0  0  0  0  0  0  0  0  0  0
   -3.1421    1.6345  -20.9259 C   0  0  0  0  0  0  0  0  0  0  0  0
   -3.8196    1.1089  -22.0492 C   0  0  0  0  0  0  0  0  0  0  0  0
   -4.9543    0.3520  -21.8878 C   0  0  0  0  0  0  0  0  0  0  0  0
   -5.4747    0.0897  -20.5890 C   0  0  0  0  0  0  0  0  0  0  0  0
   -5.4592   -0.0541  -22.7600 H   0  0  0  0  0  0  0  0  0  0  0  0
   -3.4402    1.3109  -23.0463 H   0  0  0  0  0  0  0  0  0  0  0  0
   -2.2581    2.2498  -21.0743 H   0  0  0  0  0  0  0  0  0  0  0  0
   -3.0965    1.7792  -18.7910 H   0  0  0  0  0  0  0  0  0  0  0  0
   -4.7124    0.6782  -17.3016 H   0  0  0  0  0  0  0  0  0  0  0  0
   -7.8365   -1.5664  -18.7789 H   0  0  0  0  0  0  0  0  0  0  0  0
   -8.2792   -0.5876  -22.1808 C   0  0  0  0  0  0  0  0  0  0  0  0
   -8.5185    0.6008  -22.1056 O   0  0  0  0  0  0  0  0  0  0  0  0
   -8.7829   -1.5787  -23.2499 C   0  0  1  0  0  0  0  0  0  0  0  0
   -7.8993   -1.3246  -24.5153 C   0  0  0  0  0  0  0  0  0  0  0  0
   -8.4190   -1.8711  -25.7646 N   0  0  0  0  0  0  0  0  0  0  0  0
   -7.5371   -2.1008  -26.9100 C   0  0  0  0  0  0  0  0  0  0  0  0
   -7.0639   -3.5488  -27.0478 C   0  0  0  0  0  0  0  0  0  0  0  0
   -8.1827   -4.5429  -27.1538 N   0  0  0  0  0  4  0  0  0  0  0  0
   -7.7206   -5.9097  -26.7072 C   0  0  0  0  0  0  0  0  0  0  0  0
   -8.5901   -7.0348  -27.2634 C   0  0  0  0  0  0  0  0  0  0  0  0
   -8.5762   -7.0827  -28.7390 N   0  0  0  0  0  0  0  0  0  0  0  0
   -7.7132   -8.3086  -29.5201 S   0  0  0  0  0  0  0  0  0  0  0  0
   -7.6905   -7.9359  -30.9268 O   0  0  0  0  0  0  0  0  0  0  0  0
   -6.4625   -8.5400  -28.8087 O   0  0  0  0  0  0  0  0  0  0  0  0
   -8.6743   -9.8244  -29.4160 C   0  0  0  0  0  0  0  0  0  0  0  0
   -9.4015   -9.8314  -30.2301 H   0  0  0  0  0  0  0  0  0  0  0  0
   -7.9684  -10.6477  -29.5457 H   0  0  0  0  0  0  0  0  0  0  0  0
   -9.1666   -9.9128  -28.4431 H   0  0  0  0  0  0  0  0  0  0  0  0
   -8.2548   -5.7718  -29.3463 C   0  0  0  0  0  0  0  0  0  0  0  0
   -8.8147   -4.6204  -28.5286 C   0  0  0  0  0  0  0  0  0  0  0  0
   -9.8958   -4.7210  -28.4019 H   0  0  0  0  0  0  0  0  0  0  0  0
   -8.6241   -3.6800  -29.0469 H   0  0  0  0  0  0  0  0  0  0  0  0
   -7.1678   -5.6318  -29.4621 H   0  0  0  0  0  0  0  0  0  0  0  0
   -8.6871   -5.7942  -30.3384 H   0  0  0  0  0  0  0  0  0  0  0  0
   -9.6290   -6.8856  -26.9423 H   0  0  0  0  0  0  0  0  0  0  0  0
   -8.2506   -7.9835  -26.8519 H   0  0  0  0  0  0  0  0  0  0  0  0
   -6.6864   -6.0544  -27.0414 H   0  0  0  0  0  0  0  0  0  0  0  0
   -7.7180   -5.9401  -25.6137 H   0  0  0  0  0  0  0  0  0  0  0  0
   -8.9327   -4.2261  -26.5248 H   0  0  0  0  0  0  0  0  0  0  0  0
   -6.4184   -3.6411  -27.9294 H   0  0  0  0  0  0  0  0  0  0  0  0
   -6.4603   -3.8149  -26.1737 H   0  0  0  0  0  0  0  0  0  0  0  0
   -6.6669   -1.4379  -26.8455 H   0  0  0  0  0  0  0  0  0  0  0  0
   -8.1010   -1.8243  -27.8033 H   0  0  0  0  0  0  0  0  0  0  0  0
   -9.7509   -1.9821  -26.0024 C   0  0  0  0  0  0  0  0  0  0  0  0
  -10.1823   -2.4607  -27.0527 O   0  0  0  0  0  0  0  0  0  0  0  0
  -10.6863   -1.5942  -24.9124 C   0  0  0  0  0  0  0  0  0  0  0  0
  -12.0392   -1.5816  -25.2307 C   0  0  0  0  0  0  0  0  0  0  0  0
  -12.9938   -1.4541  -24.2432 C   0  0  0  0  0  0  0  0  0  0  0  0
  -12.5736   -1.3530  -22.9175 C   0  0  0  0  0  0  0  0  0  0  0  0
  -13.8086   -1.3049  -21.6931 Cl  0  0  0  0  0  0  0  0  0  0  0  0
  -11.2256   -1.3499  -22.5869 C   0  0  0  0  0  0  0  0  0  0  0  0
  -10.2505   -1.4338  -23.5970 C   0  0  0  0  0  0  0  0  0  0  0  0
  -10.9272   -1.3356  -21.5458 H   0  0  0  0  0  0  0  0  0  0  0  0
  -14.0479   -1.5003  -24.4870 H   0  0  0  0  0  0  0  0  0  0  0  0
  -12.3145   -1.7188  -26.2707 H   0  0  0  0  0  0  0  0  0  0  0  0
   -6.9037   -1.7570  -24.3509 H   0  0  0  0  0  0  0  0  0  0  0  0
   -7.7857   -0.2346  -24.6048 H   0  0  0  0  0  0  0  0  0  0  0  0
   -6.3815   -2.9535  -22.0823 H   0  0  0  0  0  0  0  0  0  0  0  0
   -7.3953   -3.2477  -20.6711 H   0  0  0  0  0  0  0  0  0  0  0  0
   -9.4061   -3.0717  -21.8653 H   0  0  0  0  0  0  0  0  0  0  0  0
   -7.5319   -4.0989  -24.0482 H   0  0  0  0  0  0  0  0  0  0  0  0
   -8.3297   -5.0755  -22.8050 H   0  0  0  0  0  0  0  0  0  0  0  0
   -9.2999   -4.2618  -24.0530 H   0  0  0  0  0  0  0  0  0  0  0  0
  1  2  1  0
  2  3  1  0
  3  4  1  0
  4  5  1  0
  5  6  2  0
  6  7  1  0
  7  8  2  0
  8  9  1  0
  9 10  2  0
 10 11  1  0
 11 12  2  0
 12 13  1  0
 13 14  2  0
 13 15  1  0
 12 16  1  0
 11 17  1  0
 10 18  1  0
  8 19  1  0
  6 20  1  0
  4 21  1  0
 21 22  2  0
 21 23  1  0
 23 24  1  6
 24 25  1  0
 25 26  1  0
 26 27  1  0
 27 28  1  0
 28 29  1  0
 29 30  1  0
 30 31  1  0
 31 32  1  0
 32 33  2  0
 32 34  2  0
 32 35  1  0
 35 36  1  0
 35 37  1  0
 35 38  1  0
 31 39  1  0
 39 40  1  0
 40 41  1  0
 40 42  1  0
 39 43  1  0
 39 44  1  0
 30 45  1  0
 30 46  1  0
 29 47  1  0
 29 48  1  0
 28 49  1  0
 27 50  1  0
 27 51  1  0
 26 52  1  0
 26 53  1  0
 25 54  1  0
 54 55  2  0
 54 56  1  0
 56 57  2  0
 57 58  1  0
 58 59  2  0
 59 60  1  0
 59 61  1  0
 61 62  2  0
 61 63  1  0
 58 64  1  0
 57 65  1  0
 24 66  1  0
 24 67  1  0
  3 68  1  0
  3 69  1  0
  2 70  1  1
  1 71  1  0
  1 72  1  0
  1 73  1  0
 23  2  1  0
 40 28  1  0
 62 56  1  0
 14  5  1  0
 62 23  1  0
 14  9  1  0
M  CHG  1  28   1
M  END
>  <cnnaffinities>  (15) 
[6.3978]

>  <score>  (15) 
6.3978

>  <index>  (15) 
14

>  <Smiles>  (15) 
C([C@]1(C(N(c2c(nc(c3c(c(c(c(c23)[H])[H])[H])[H])[H])[H])C(=O)[C@]21C(N(C(C([N+]1(C(C(N(S(=O)(=O)C([H])([H])[H])C(C1([H])[H])([H])[H])([H])[H])([H])[H])[H])([H])[H])([H])[H])C(=O)c1c(c(c(Cl)c(c21)[H])[H])[H])([H])[H])([H])[H])[H])([H])([H])[H]

>  <h>  (15) 
<NA>

>  <Training>  (15) 
True

>  <Success>  (15) 
True

>  <enamine_searched>  (15) 
False

>  <enamine_id>  (15) 
nan

$$$$

     RDKit          3D

 63 68  0  0  0  0  0  0  0  0999 V2000
   -7.4923    3.2138  -21.7522 C   0  0  0  0  0  0  0  0  0  0  0  0
   -8.5880    2.7130  -22.5577 N   0  0  0  0  0  0  0  0  0  0  0  0
   -8.2634    1.9360  -23.6233 C   0  0  0  0  0  0  0  0  0  0  0  0
   -7.1048    1.6538  -23.9042 O   0  0  0  0  0  0  0  0  0  0  0  0
   -9.4068    1.4189  -24.4715 C   0  0  0  0  0  0  0  0  0  0  0  0
   -9.9236    0.1791  -23.9456 N   0  0  0  0  0  0  0  0  0  0  0  0
   -9.1007   -1.0152  -23.9545 C   0  0  0  0  0  0  0  0  0  0  0  0
   -9.2491   -1.8023  -22.6249 C   0  0  2  0  0  0  0  0  0  0  0  0
   -8.6641   -0.9350  -21.4876 C   0  0  0  0  0  0  0  0  0  0  0  0
   -9.1869    0.0290  -20.9641 O   0  0  0  0  0  0  0  0  0  0  0  0
   -7.4008   -1.4033  -21.1942 N   0  0  0  0  0  0  0  0  0  0  0  0
   -6.6085   -0.8090  -20.1873 C   0  0  0  0  0  0  0  0  0  0  0  0
   -6.9372   -1.0077  -18.8697 C   0  0  0  0  0  0  0  0  0  0  0  0
   -6.2459   -0.4881  -17.8318 N   0  0  0  0  0  0  0  0  0  0  0  0
   -5.1884    0.2364  -18.1001 C   0  0  0  0  0  0  0  0  0  0  0  0
   -4.7404    0.5250  -19.4174 C   0  0  0  0  0  0  0  0  0  0  0  0
   -3.6153    1.3548  -19.6560 C   0  0  0  0  0  0  0  0  0  0  0  0
   -3.2366    1.6580  -20.9342 C   0  0  0  0  0  0  0  0  0  0  0  0
   -3.9608    1.1446  -22.0305 C   0  0  0  0  0  0  0  0  0  0  0  0
   -5.0569    0.3353  -21.8267 C   0  0  0  0  0  0  0  0  0  0  0  0
   -5.4705   -0.0045  -20.5091 C   0  0  0  0  0  0  0  0  0  0  0  0
   -5.6359    0.0087  -22.6842 H   0  0  0  0  0  0  0  0  0  0  0  0
   -3.6589    1.4008  -23.0419 H   0  0  0  0  0  0  0  0  0  0  0  0
   -2.3840    2.3058  -21.1118 H   0  0  0  0  0  0  0  0  0  0  0  0
   -3.0810    1.7541  -18.7993 H   0  0  0  0  0  0  0  0  0  0  0  0
   -4.6234    0.6359  -17.2556 H   0  0  0  0  0  0  0  0  0  0  0  0
   -7.7999   -1.6215  -18.6175 H   0  0  0  0  0  0  0  0  0  0  0  0
   -7.0042   -2.5640  -21.9637 C   0  0  0  0  0  0  0  0  0  0  0  0
   -8.3328   -3.0491  -22.5581 C   0  0  2  0  0  0  0  0  0  0  0  0
   -8.1438   -3.8142  -23.8682 C   0  0  0  0  0  0  0  0  0  0  0  0
   -7.4136   -5.0463  -23.6713 N   0  0  0  0  0  0  0  0  0  0  0  0
   -6.0795   -5.2347  -23.7765 C   0  0  0  0  0  0  0  0  0  0  0  0
   -5.8355   -6.5470  -23.4408 C   0  0  0  0  0  0  0  0  0  0  0  0
   -7.1106   -7.0665  -23.1390 C   0  0  0  0  0  0  0  0  0  0  0  0
   -8.0591   -6.1452  -23.2647 N   0  0  0  0  0  0  0  0  0  0  0  0
   -7.3784   -8.0743  -22.8409 H   0  0  0  0  0  0  0  0  0  0  0  0
   -4.8822   -7.0569  -23.4203 H   0  0  0  0  0  0  0  0  0  0  0  0
   -5.4204   -4.4336  -24.0911 H   0  0  0  0  0  0  0  0  0  0  0  0
   -7.5936   -3.1997  -24.5865 H   0  0  0  0  0  0  0  0  0  0  0  0
   -9.1048   -4.0817  -24.3090 H   0  0  0  0  0  0  0  0  0  0  0  0
   -8.7698   -3.7383  -21.8345 H   0  0  0  0  0  0  0  0  0  0  0  0
   -6.5437   -3.3187  -21.3219 H   0  0  0  0  0  0  0  0  0  0  0  0
   -6.2790   -2.3113  -22.7540 H   0  0  0  0  0  0  0  0  0  0  0  0
  -10.7341   -2.0545  -22.4296 C   0  0  0  0  0  0  0  0  0  0  0  0
  -11.2317   -3.1183  -21.6711 C   0  0  0  0  0  0  0  0  0  0  0  0
  -12.5857   -3.1931  -21.3943 C   0  0  0  0  0  0  0  0  0  0  0  0
  -13.1522   -4.3216  -20.2073 Cl  0  0  0  0  0  0  0  0  0  0  0  0
  -13.5121   -2.3183  -21.9501 C   0  0  0  0  0  0  0  0  0  0  0  0
  -13.0356   -1.2856  -22.7254 C   0  0  0  0  0  0  0  0  0  0  0  0
  -11.6657   -1.1186  -22.9058 C   0  0  0  0  0  0  0  0  0  0  0  0
  -11.2129    0.1627  -23.5182 C   0  0  0  0  0  0  0  0  0  0  0  0
  -11.9440    1.1454  -23.5942 O   0  0  0  0  0  0  0  0  0  0  0  0
  -13.7067   -0.5610  -23.1677 H   0  0  0  0  0  0  0  0  0  0  0  0
  -14.5632   -2.4297  -21.7101 H   0  0  0  0  0  0  0  0  0  0  0  0
  -10.5869   -3.8682  -21.2295 H   0  0  0  0  0  0  0  0  0  0  0  0
   -8.0659   -0.6997  -24.1133 H   0  0  0  0  0  0  0  0  0  0  0  0
   -9.4027   -1.6585  -24.7904 H   0  0  0  0  0  0  0  0  0  0  0  0
  -10.2350    2.1241  -24.4467 H   0  0  0  0  0  0  0  0  0  0  0  0
   -9.0345    1.2722  -25.4929 H   0  0  0  0  0  0  0  0  0  0  0  0
   -9.4910    2.6246  -22.1102 H   0  0  0  0  0  0  0  0  0  0  0  0
   -7.8926    3.7785  -20.9102 H   0  0  0  0  0  0  0  0  0  0  0  0
   -6.8896    3.8973  -22.3492 H   0  0  0  0  0  0  0  0  0  0  0  0
   -6.8485    2.3737  -21.4540 H   0  0  0  0  0  0  0  0  0  0  0  0
  1  2  1  0
  2  3  1  0
  3  4  2  0
  3  5  1  0
  5  6  1  0
  6  7  1  0
  8  7  1  6
  8  9  1  0
  9 10  2  0
  9 11  1  0
 11 12  1  0
 12 13  2  0
 13 14  1  0
 14 15  2  0
 15 16  1  0
 16 17  2  0
 17 18  1  0
 18 19  2  0
 19 20  1  0
 20 21  2  0
 20 22  1  0
 19 23  1  0
 18 24  1  0
 17 25  1  0
 15 26  1  0
 13 27  1  0
 11 28  1  0
 28 29  1  0
 29 30  1  0
 30 31  1  0
 31 32  1  0
 32 33  2  0
 33 34  1  0
 34 35  2  0
 34 36  1  0
 33 37  1  0
 32 38  1  0
 30 39  1  0
 30 40  1  0
 29 41  1  1
 28 42  1  0
 28 43  1  0
  8 44  1  0
 44 45  2  0
 45 46  1  0
 46 47  1  0
 46 48  2  0
 48 49  1  0
 49 50  2  0
 50 51  1  0
 51 52  2  0
 49 53  1  0
 48 54  1  0
 45 55  1  0
  7 56  1  0
  7 57  1  0
  5 58  1  0
  5 59  1  0
  2 60  1  0
  1 61  1  0
  1 62  1  0
  1 63  1  0
 51  6  1  0
 29  8  1  0
 35 31  1  0
 50 44  1  0
 21 12  1  0
 21 16  1  0
M  END
>  <cnnaffinities>  (16) 
[6.64532]

>  <score>  (16) 
6.64532

>  <index>  (16) 
15

>  <Smiles>  (16) 
C(N(C(=O)C(N1C([C@@]2(C(=O)N(c3c(nc(c4c(c(c(c(c34)[H])[H])[H])[H])[H])[H])C([C@@]2(C(n2c(c(c(n2)[H])[H])[H])([H])[H])[H])([H])[H])c2c(c(Cl)c(c(c2C1=O)[H])[H])[H])([H])[H])([H])[H])[H])([H])([H])[H]

>  <h>  (16) 
<NA>

>  <Training>  (16) 
True

>  <Success>  (16) 
True

>  <enamine_searched>  (16) 
False

>  <enamine_id>  (16) 
nan

$$$$

     RDKit          3D

 61 66  0  0  0  0  0  0  0  0999 V2000
   -8.4053   -5.3606  -28.5060 C   0  0  0  0  0  0  0  0  0  0  0  0
   -8.3015   -3.9660  -28.1257 N   0  0  0  0  0  0  0  0  0  0  0  0
   -7.3579   -3.5639  -27.2322 C   0  0  0  0  0  0  0  0  0  0  0  0
   -6.5251   -4.3043  -26.7278 O   0  0  0  0  0  0  0  0  0  0  0  0
   -7.4052   -2.0663  -26.8935 C   0  0  0  0  0  0  0  0  0  0  0  0
   -8.3251   -1.7982  -25.7878 N   0  0  0  0  0  0  0  0  0  0  0  0
   -7.7859   -1.3703  -24.4998 C   0  0  0  0  0  0  0  0  0  0  0  0
   -8.7247   -1.5809  -23.2748 C   0  0  2  0  0  0  0  0  0  0  0  0
   -8.2051   -0.6104  -22.2012 C   0  0  0  0  0  0  0  0  0  0  0  0
   -8.4041    0.5841  -22.1255 O   0  0  0  0  0  0  0  0  0  0  0  0
   -7.4002   -1.3225  -21.3310 N   0  0  0  0  0  0  0  0  0  0  0  0
   -6.6292   -0.7326  -20.2999 C   0  0  0  0  0  0  0  0  0  0  0  0
   -6.9543   -0.9877  -18.9921 C   0  0  0  0  0  0  0  0  0  0  0  0
   -6.2955   -0.4811  -17.9244 N   0  0  0  0  0  0  0  0  0  0  0  0
   -5.2457    0.2655  -18.1634 C   0  0  0  0  0  0  0  0  0  0  0  0
   -4.7604    0.5661  -19.4659 C   0  0  0  0  0  0  0  0  0  0  0  0
   -3.6011    1.3615  -19.6636 C   0  0  0  0  0  0  0  0  0  0  0  0
   -3.1517    1.6241  -20.9282 C   0  0  0  0  0  0  0  0  0  0  0  0
   -3.8302    1.0949  -22.0491 C   0  0  0  0  0  0  0  0  0  0  0  0
   -4.9524    0.3243  -21.8813 C   0  0  0  0  0  0  0  0  0  0  0  0
   -5.4607    0.0513  -20.5800 C   0  0  0  0  0  0  0  0  0  0  0  0
   -5.4631   -0.0838  -22.7485 H   0  0  0  0  0  0  0  0  0  0  0  0
   -3.4652    1.3115  -23.0489 H   0  0  0  0  0  0  0  0  0  0  0  0
   -2.2774    2.2489  -21.0789 H   0  0  0  0  0  0  0  0  0  0  0  0
   -3.0960    1.7650  -18.7901 H   0  0  0  0  0  0  0  0  0  0  0  0
   -4.7205    0.6662  -17.2980 H   0  0  0  0  0  0  0  0  0  0  0  0
   -7.8138   -1.6206  -18.7684 H   0  0  0  0  0  0  0  0  0  0  0  0
   -7.3458   -2.7428  -21.6141 C   0  0  0  0  0  0  0  0  0  0  0  0
   -8.5560   -2.9504  -22.5284 C   0  0  2  0  0  0  0  0  0  0  0  0
   -8.4448   -4.2124  -23.3759 C   0  0  0  0  0  0  0  0  0  0  0  0
   -9.6846   -4.5383  -24.0591 N   0  0  0  0  0  0  0  0  0  0  0  0
   -9.7207   -5.0298  -25.2757 N   0  0  0  0  0  0  0  0  0  0  0  0
  -11.0304   -5.1840  -25.4548 C   0  0  0  0  0  0  0  0  0  0  0  0
  -11.7373   -4.8415  -24.3579 N   0  0  0  0  0  0  0  0  0  0  0  0
  -10.8506   -4.4378  -23.4753 N   0  0  0  0  0  0  0  0  0  0  0  0
  -11.4897   -5.5499  -26.3697 H   0  0  0  0  0  0  0  0  0  0  0  0
   -7.6965   -4.0988  -24.1569 H   0  0  0  0  0  0  0  0  0  0  0  0
   -8.1688   -5.0738  -22.7582 H   0  0  0  0  0  0  0  0  0  0  0  0
   -9.4410   -3.0440  -21.8857 H   0  0  0  0  0  0  0  0  0  0  0  0
   -7.4163   -3.3060  -20.6826 H   0  0  0  0  0  0  0  0  0  0  0  0
   -6.4003   -3.0240  -22.1095 H   0  0  0  0  0  0  0  0  0  0  0  0
  -10.1655   -1.3410  -23.6649 C   0  0  0  0  0  0  0  0  0  0  0  0
  -11.1424   -1.2071  -22.6663 C   0  0  0  0  0  0  0  0  0  0  0  0
  -12.4797   -1.2248  -23.0158 C   0  0  0  0  0  0  0  0  0  0  0  0
  -13.7003   -1.2343  -21.7768 Cl  0  0  0  0  0  0  0  0  0  0  0  0
  -12.8970   -1.3392  -24.3392 C   0  0  0  0  0  0  0  0  0  0  0  0
  -11.9384   -1.4571  -25.3219 C   0  0  0  0  0  0  0  0  0  0  0  0
  -10.5933   -1.4611  -24.9864 C   0  0  0  0  0  0  0  0  0  0  0  0
   -9.6474   -1.7394  -26.0993 C   0  0  0  0  0  0  0  0  0  0  0  0
  -10.0600   -1.9617  -27.2407 O   0  0  0  0  0  0  0  0  0  0  0  0
  -12.1910   -1.5989  -26.3656 H   0  0  0  0  0  0  0  0  0  0  0  0
  -13.9573   -1.3846  -24.5507 H   0  0  0  0  0  0  0  0  0  0  0  0
  -10.8634   -1.1622  -21.6168 H   0  0  0  0  0  0  0  0  0  0  0  0
   -6.8415   -1.9065  -24.3241 H   0  0  0  0  0  0  0  0  0  0  0  0
   -7.5574   -0.2964  -24.5328 H   0  0  0  0  0  0  0  0  0  0  0  0
   -6.3977   -1.7380  -26.6184 H   0  0  0  0  0  0  0  0  0  0  0  0
   -7.7379   -1.4965  -27.7685 H   0  0  0  0  0  0  0  0  0  0  0  0
   -9.1190   -3.3706  -28.2165 H   0  0  0  0  0  0  0  0  0  0  0  0
   -7.4228   -5.7310  -28.8011 H   0  0  0  0  0  0  0  0  0  0  0  0
   -9.0729   -5.4413  -29.3667 H   0  0  0  0  0  0  0  0  0  0  0  0
   -8.7802   -5.9813  -27.6838 H   0  0  0  0  0  0  0  0  0  0  0  0
  1  2  1  0
  2  3  1  0
  3  4  2  0
  3  5  1  0
  5  6  1  0
  6  7  1  0
  8  7  1  6
  8  9  1  0
  9 10  2  0
  9 11  1  0
 11 12  1  0
 12 13  2  0
 13 14  1  0
 14 15  2  0
 15 16  1  0
 16 17  2  0
 17 18  1  0
 18 19  2  0
 19 20  1  0
 20 21  2  0
 20 22  1  0
 19 23  1  0
 18 24  1  0
 17 25  1  0
 15 26  1  0
 13 27  1  0
 11 28  1  0
 28 29  1  0
 29 30  1  0
 30 31  1  0
 31 32  1  0
 32 33  2  0
 33 34  1  0
 34 35  2  0
 33 36  1  0
 30 37  1  0
 30 38  1  0
 29 39  1  1
 28 40  1  0
 28 41  1  0
  8 42  1  0
 42 43  2  0
 43 44  1  0
 44 45  1  0
 44 46  2  0
 46 47  1  0
 47 48  2  0
 48 49  1  0
 49 50  2  0
 47 51  1  0
 46 52  1  0
 43 53  1  0
  7 54  1  0
  7 55  1  0
  5 56  1  0
  5 57  1  0
  2 58  1  0
  1 59  1  0
  1 60  1  0
  1 61  1  0
 49  6  1  0
 29  8  1  0
 35 31  1  0
 48 42  1  0
 21 12  1  0
 21 16  1  0
M  END
>  <cnnaffinities>  (17) 
[6.42306]

>  <score>  (17) 
6.42306

>  <index>  (17) 
16

>  <Smiles>  (17) 
C(N(C(=O)C(N1C([C@@]2(C(=O)N(c3c(nc(c4c(c(c(c(c34)[H])[H])[H])[H])[H])[H])C([C@@]2(C(n2nc(nn2)[H])([H])[H])[H])([H])[H])c2c(c(Cl)c(c(c2C1=O)[H])[H])[H])([H])[H])([H])[H])[H])([H])([H])[H]

>  <h>  (17) 
<NA>

>  <Training>  (17) 
True

>  <Success>  (17) 
True

>  <enamine_searched>  (17) 
False

>  <enamine_id>  (17) 
nan

$$$$

     RDKit          3D

 38 41  0  0  0  0  0  0  0  0999 V2000
   -9.3484   -4.9447  -25.6902 C   0  0  0  0  0  0  0  0  0  0  0  0
   -9.3467   -4.1956  -24.3569 C   0  0  2  0  0  0  0  0  0  0  0  0
  -10.3480   -3.0414  -24.3804 C   0  0  0  0  0  0  0  0  0  0  0  0
  -10.4238   -2.3518  -23.0160 C   0  0  0  0  0  0  0  0  0  0  0  0
   -9.0852   -2.1167  -22.4678 C   0  0  0  0  0  0  0  0  0  0  0  0
   -8.7211   -1.1942  -21.4399 C   0  0  0  0  0  0  0  0  0  0  0  0
   -9.3845   -0.3302  -20.9125 O   0  0  0  0  0  1  0  0  0  0  0  0
   -7.3447   -1.4715  -21.2015 N   0  0  0  0  0  0  0  0  0  0  0  0
   -6.5706   -0.8439  -20.1887 C   0  0  0  0  0  0  0  0  0  0  0  0
   -6.8908   -1.0442  -18.8718 C   0  0  0  0  0  0  0  0  0  0  0  0
   -6.2027   -0.5156  -17.8313 N   0  0  0  0  0  0  0  0  0  0  0  0
   -5.1573    0.2253  -18.0852 C   0  0  0  0  0  0  0  0  0  0  0  0
   -4.7204    0.5335  -19.3982 C   0  0  0  0  0  0  0  0  0  0  0  0
   -3.5937    1.3660  -19.6319 C   0  0  0  0  0  0  0  0  0  0  0  0
   -3.2184    1.6694  -20.9104 C   0  0  0  0  0  0  0  0  0  0  0  0
   -3.9530    1.1571  -22.0030 C   0  0  0  0  0  0  0  0  0  0  0  0
   -5.0467    0.3543  -21.8006 C   0  0  0  0  0  0  0  0  0  0  0  0
   -5.4542    0.0038  -20.4884 C   0  0  0  0  0  0  0  0  0  0  0  0
   -5.6086   -0.0304  -22.6442 H   0  0  0  0  0  0  0  0  0  0  0  0
   -3.6553    1.4099  -23.0156 H   0  0  0  0  0  0  0  0  0  0  0  0
   -2.3662    2.3185  -21.0958 H   0  0  0  0  0  0  0  0  0  0  0  0
   -3.0577    1.7721  -18.7772 H   0  0  0  0  0  0  0  0  0  0  0  0
   -4.6090    0.6221  -17.2259 H   0  0  0  0  0  0  0  0  0  0  0  0
   -7.7352   -1.6702  -18.5948 H   0  0  0  0  0  0  0  0  0  0  0  0
   -6.8632   -2.4206  -22.1203 C   0  0  0  0  0  0  0  0  0  0  0  0
   -5.7279   -2.8163  -22.2444 O   0  0  0  0  0  0  0  0  0  0  0  0
   -7.9772   -2.7851  -22.8656 N   0  0  0  0  0  0  0  0  0  0  0  0
   -7.9459   -3.6824  -24.0085 C   0  0  0  0  0  0  0  0  0  0  0  0
   -7.2774   -4.4998  -23.7574 H   0  0  0  0  0  0  0  0  0  0  0  0
   -7.5092   -3.1772  -24.8743 H   0  0  0  0  0  0  0  0  0  0  0  0
  -10.9662   -1.4015  -23.0757 H   0  0  0  0  0  0  0  0  0  0  0  0
  -11.0050   -2.9653  -22.3108 H   0  0  0  0  0  0  0  0  0  0  0  0
  -10.0337   -2.3168  -25.1406 H   0  0  0  0  0  0  0  0  0  0  0  0
  -11.3403   -3.4061  -24.6757 H   0  0  0  0  0  0  0  0  0  0  0  0
   -9.6529   -4.9013  -23.5740 H   0  0  0  0  0  0  0  0  0  0  0  0
  -10.3425   -5.3464  -25.9212 H   0  0  0  0  0  0  0  0  0  0  0  0
   -8.6479   -5.7873  -25.6927 H   0  0  0  0  0  0  0  0  0  0  0  0
   -9.0727   -4.2815  -26.5197 H   0  0  0  0  0  0  0  0  0  0  0  0
  1  2  1  0
  2  3  1  0
  3  4  1  0
  4  5  1  0
  5  6  2  0
  6  7  1  0
  6  8  1  0
  8  9  1  0
  9 10  2  0
 10 11  1  0
 11 12  2  0
 12 13  1  0
 13 14  2  0
 14 15  1  0
 15 16  2  0
 16 17  1  0
 17 18  2  0
 17 19  1  0
 16 20  1  0
 15 21  1  0
 14 22  1  0
 12 23  1  0
 10 24  1  0
  8 25  1  0
 25 26  2  0
 25 27  1  0
 27 28  1  0
 28 29  1  0
 28 30  1  0
  4 31  1  0
  4 32  1  0
  3 33  1  0
  3 34  1  0
  2 35  1  1
  1 36  1  0
  1 37  1  0
  1 38  1  0
 28  2  1  0
 27  5  1  0
 18  9  1  0
 18 13  1  0
M  CHG  1   7  -1
M  END
>  <cnnaffinities>  (18) 
[5.3371]

>  <score>  (18) 
5.3371

>  <index>  (18) 
17

>  <Smiles>  (18) 
C([C@@]1(C(C(c2c([O-])n(c3c(nc(c4c(c(c(c(c34)[H])[H])[H])[H])[H])[H])c(=O)n2C1([H])[H])([H])[H])([H])[H])[H])([H])([H])[H]

>  <h>  (18) 
<NA>

>  <Training>  (18) 
True

>  <Success>  (18) 
True

>  <enamine_searched>  (18) 
False

>  <enamine_id>  (18) 
nan

$$$$

     RDKit          3D

 56 61  0  0  0  0  0  0  0  0999 V2000
  -10.4758   -1.1073  -23.3088 C   0  0  0  0  0  0  0  0  0  0  0  0
   -9.0274   -1.4479  -22.9748 C   0  0  1  0  0  0  0  0  0  0  0  0
   -8.4318   -0.4988  -21.9195 C   0  0  0  0  0  0  0  0  0  0  0  0
   -7.4253   -1.3099  -21.2618 N   0  0  0  0  0  0  0  0  0  0  0  0
   -6.5994   -0.8155  -20.2221 C   0  0  0  0  0  0  0  0  0  0  0  0
   -6.9205   -1.0393  -18.9068 C   0  0  0  0  0  0  0  0  0  0  0  0
   -6.2509   -0.4958  -17.8618 N   0  0  0  0  0  0  0  0  0  0  0  0
   -5.2160    0.2589  -18.1233 C   0  0  0  0  0  0  0  0  0  0  0  0
   -4.7556    0.5500  -19.4355 C   0  0  0  0  0  0  0  0  0  0  0  0
   -3.6132    1.3590  -19.6625 C   0  0  0  0  0  0  0  0  0  0  0  0
   -3.2062    1.6235  -20.9408 C   0  0  0  0  0  0  0  0  0  0  0  0
   -3.9148    1.0829  -22.0385 C   0  0  0  0  0  0  0  0  0  0  0  0
   -5.0176    0.2888  -21.8424 C   0  0  0  0  0  0  0  0  0  0  0  0
   -5.4686    0.0057  -20.5268 C   0  0  0  0  0  0  0  0  0  0  0  0
   -5.5491   -0.1390  -22.6869 H   0  0  0  0  0  0  0  0  0  0  0  0
   -3.5760    1.2936  -23.0483 H   0  0  0  0  0  0  0  0  0  0  0  0
   -2.3355    2.2481  -21.1207 H   0  0  0  0  0  0  0  0  0  0  0  0
   -3.0793    1.7639  -18.8062 H   0  0  0  0  0  0  0  0  0  0  0  0
   -4.6791    0.6755  -17.2711 H   0  0  0  0  0  0  0  0  0  0  0  0
   -7.7665   -1.6681  -18.6411 H   0  0  0  0  0  0  0  0  0  0  0  0
   -7.5566   -2.6606  -21.4998 C   0  0  0  0  0  0  0  0  0  0  0  0
   -6.7735   -3.4960  -21.1031 O   0  0  0  0  0  0  0  0  0  0  0  0
   -8.7874   -2.8929  -22.3982 C   0  0  1  0  0  0  0  0  0  0  0  0
   -9.9878   -3.3631  -21.5359 C   0  0  0  0  0  0  0  0  0  0  0  0
  -11.1247   -3.8123  -22.3489 N   0  0  0  0  0  0  0  0  0  0  0  0
  -12.5013   -3.7544  -21.8476 C   0  0  0  0  0  0  0  0  0  0  0  0
  -13.3686   -2.6889  -22.4730 C   0  0  0  0  0  0  0  0  0  0  0  0
  -14.0097   -1.5678  -21.8941 C   0  0  0  0  0  0  0  0  0  0  0  0
  -14.7937   -1.0537  -22.9014 C   0  0  0  0  0  0  0  0  0  0  0  0
  -14.6073   -1.8584  -23.9731 N   0  0  0  0  0  0  0  0  0  0  0  0
  -13.7505   -2.8610  -23.7311 N   0  0  0  0  0  0  0  0  0  0  0  0
  -15.1328   -1.8978  -24.8306 H   0  0  0  0  0  0  0  0  0  0  0  0
  -15.4627   -0.2034  -22.9361 H   0  0  0  0  0  0  0  0  0  0  0  0
  -13.9058   -1.2078  -20.8800 H   0  0  0  0  0  0  0  0  0  0  0  0
  -12.9601   -4.6986  -22.1542 H   0  0  0  0  0  0  0  0  0  0  0  0
  -12.4834   -3.7054  -20.7547 H   0  0  0  0  0  0  0  0  0  0  0  0
  -10.9264   -4.6437  -23.4239 C   0  0  0  0  0  0  0  0  0  0  0  0
  -11.8497   -5.2022  -23.9939 O   0  0  0  0  0  0  0  0  0  0  0  0
   -9.5173   -4.7964  -23.8994 C   0  0  0  0  0  0  0  0  0  0  0  0
   -9.2610   -5.7731  -24.8632 C   0  0  0  0  0  0  0  0  0  0  0  0
   -7.9966   -5.9058  -25.4072 C   0  0  0  0  0  0  0  0  0  0  0  0
   -7.0009   -5.0325  -24.9836 C   0  0  0  0  0  0  0  0  0  0  0  0
   -5.7680   -5.1544  -25.5061 F   0  0  0  0  0  0  0  0  0  0  0  0
   -7.2236   -4.0808  -24.0079 C   0  0  0  0  0  0  0  0  0  0  0  0
   -8.5001   -3.9514  -23.4428 C   0  0  0  0  0  0  0  0  0  0  0  0
   -6.3849   -3.4910  -23.6620 H   0  0  0  0  0  0  0  0  0  0  0  0
   -7.7748   -6.6654  -26.1472 H   0  0  0  0  0  0  0  0  0  0  0  0
  -10.0814   -6.4114  -25.1849 H   0  0  0  0  0  0  0  0  0  0  0  0
  -10.2808   -2.5008  -20.9244 H   0  0  0  0  0  0  0  0  0  0  0  0
   -9.6634   -4.1817  -20.8804 H   0  0  0  0  0  0  0  0  0  0  0  0
   -9.1983   -0.1481  -21.2071 H   0  0  0  0  0  0  0  0  0  0  0  0
   -7.9765    0.3905  -22.3663 H   0  0  0  0  0  0  0  0  0  0  0  0
   -8.4163   -1.3921  -23.8859 H   0  0  0  0  0  0  0  0  0  0  0  0
  -11.0700   -1.0757  -22.3905 H   0  0  0  0  0  0  0  0  0  0  0  0
  -10.5678   -0.1353  -23.8008 H   0  0  0  0  0  0  0  0  0  0  0  0
  -10.9151   -1.8744  -23.9503 H   0  0  0  0  0  0  0  0  0  0  0  0
  1  2  1  0
  2  3  1  0
  3  4  1  0
  4  5  1  0
  5  6  2  0
  6  7  1  0
  7  8  2  0
  8  9  1  0
  9 10  2  0
 10 11  1  0
 11 12  2  0
 12 13  1  0
 13 14  2  0
 13 15  1  0
 12 16  1  0
 11 17  1  0
 10 18  1  0
  8 19  1  0
  6 20  1  0
  4 21  1  0
 21 22  2  0
 21 23  1  0
 23 24  1  1
 24 25  1  0
 25 26  1  0
 26 27  1  0
 27 28  1  0
 28 29  2  0
 29 30  1  0
 30 31  1  0
 30 32  1  0
 29 33  1  0
 28 34  1  0
 26 35  1  0
 26 36  1  0
 25 37  1  0
 37 38  2  0
 37 39  1  0
 39 40  2  0
 40 41  1  0
 41 42  2  0
 42 43  1  0
 42 44  1  0
 44 45  2  0
 44 46  1  0
 41 47  1  0
 40 48  1  0
 24 49  1  0
 24 50  1  0
  3 51  1  0
  3 52  1  0
  2 53  1  6
  1 54  1  0
  1 55  1  0
  1 56  1  0
 23  2  1  0
 31 27  2  0
 45 39  1  0
 14  5  1  0
 45 23  1  0
 14  9  1  0
M  END
>  <cnnaffinities>  (19) 
[6.64943]

>  <score>  (19) 
6.64943

>  <index>  (19) 
18

>  <Smiles>  (19) 
C([C@]1(C(N(c2c(nc(c3c(c(c(c(c23)[H])[H])[H])[H])[H])[H])C(=O)[C@]21C(N(C(c1c(c(n(n1)[H])[H])[H])([H])[H])C(=O)c1c(c(c(F)c(c21)[H])[H])[H])([H])[H])([H])[H])[H])([H])([H])[H]

>  <h>  (19) 
<NA>

>  <Training>  (19) 
True

>  <Success>  (19) 
True

>  <enamine_searched>  (19) 
False

>  <enamine_id>  (19) 
nan

$$$$

     RDKit          3D

 42 45  0  0  0  0  0  0  0  0999 V2000
   -9.1374   -0.0552  -20.7421 O   0  0  0  0  0  0  0  0  0  0  0  0
   -8.6476   -0.9147  -21.4509 C   0  0  0  0  0  0  0  0  0  0  0  0
   -9.3614   -1.5275  -22.6635 C   0  0  1  0  0  0  0  0  0  0  0  0
  -10.4534   -0.5802  -23.1019 C   0  0  0  0  0  0  0  0  0  0  0  0
  -10.1372    0.7532  -23.3398 C   0  0  0  0  0  0  0  0  0  0  0  0
  -11.1305    1.6832  -23.5820 C   0  0  0  0  0  0  0  0  0  0  0  0
  -12.4524    1.2604  -23.7104 C   0  0  0  0  0  0  0  0  0  0  0  0
  -13.6719    2.4536  -23.9836 Cl  0  0  0  0  0  0  0  0  0  0  0  0
  -12.7565   -0.0992  -23.6411 C   0  0  0  0  0  0  0  0  0  0  0  0
  -14.3247   -0.6934  -24.0680 Cl  0  0  0  0  0  0  0  0  0  0  0  0
  -11.7586   -1.0079  -23.3005 C   0  0  0  0  0  0  0  0  0  0  0  0
  -12.0182   -2.0592  -23.2563 H   0  0  0  0  0  0  0  0  0  0  0  0
  -10.8768    2.7221  -23.7661 H   0  0  0  0  0  0  0  0  0  0  0  0
   -9.1001    1.0675  -23.3103 H   0  0  0  0  0  0  0  0  0  0  0  0
   -8.3351   -1.7926  -23.7770 C   0  0  0  0  0  0  0  0  0  0  0  0
   -7.2286   -2.7591  -23.3428 C   0  0  2  0  0  0  0  0  0  0  0  0
   -7.5334   -4.1123  -23.6553 O   0  0  0  0  0  0  0  0  0  0  0  0
   -8.3956   -4.3231  -23.2701 H   0  0  0  0  0  0  0  0  0  0  0  0
   -6.9206   -2.6340  -21.8394 C   0  0  0  0  0  0  0  0  0  0  0  0
   -7.3632   -1.3752  -21.2583 N   0  0  0  0  0  0  0  0  0  0  0  0
   -6.5998   -0.8053  -20.2029 C   0  0  0  0  0  0  0  0  0  0  0  0
   -6.9185   -1.0357  -18.8906 C   0  0  0  0  0  0  0  0  0  0  0  0
   -6.2255   -0.5250  -17.8455 N   0  0  0  0  0  0  0  0  0  0  0  0
   -5.1757    0.2154  -18.0980 C   0  0  0  0  0  0  0  0  0  0  0  0
   -4.7241    0.5249  -19.4097 C   0  0  0  0  0  0  0  0  0  0  0  0
   -3.5951    1.3514  -19.6452 C   0  0  0  0  0  0  0  0  0  0  0  0
   -3.2076    1.6381  -20.9269 C   0  0  0  0  0  0  0  0  0  0  0  0
   -3.9279    1.1053  -22.0221 C   0  0  0  0  0  0  0  0  0  0  0  0
   -5.0200    0.3019  -21.8151 C   0  0  0  0  0  0  0  0  0  0  0  0
   -5.4493   -0.0047  -20.4986 C   0  0  0  0  0  0  0  0  0  0  0  0
   -5.5842   -0.0951  -22.6528 H   0  0  0  0  0  0  0  0  0  0  0  0
   -3.6231    1.3512  -23.0349 H   0  0  0  0  0  0  0  0  0  0  0  0
   -2.3588    2.2912  -21.1100 H   0  0  0  0  0  0  0  0  0  0  0  0
   -3.0670    1.7651  -18.7899 H   0  0  0  0  0  0  0  0  0  0  0  0
   -4.6286    0.6120  -17.2427 H   0  0  0  0  0  0  0  0  0  0  0  0
   -7.7687   -1.6581  -18.6196 H   0  0  0  0  0  0  0  0  0  0  0  0
   -7.4010   -3.4960  -21.3433 H   0  0  0  0  0  0  0  0  0  0  0  0
   -5.8437   -2.6933  -21.6596 H   0  0  0  0  0  0  0  0  0  0  0  0
   -6.3252   -2.5495  -23.9291 H   0  0  0  0  0  0  0  0  0  0  0  0
   -7.8975   -0.8295  -24.0731 H   0  0  0  0  0  0  0  0  0  0  0  0
   -8.8235   -2.2106  -24.6653 H   0  0  0  0  0  0  0  0  0  0  0  0
   -9.8096   -2.4847  -22.3531 H   0  0  0  0  0  0  0  0  0  0  0  0
  1  2  2  0
  2  3  1  0
  3  4  1  0
  4  5  2  0
  5  6  1  0
  6  7  2  0
  7  8  1  0
  7  9  1  0
  9 10  1  0
  9 11  2  0
 11 12  1  0
  6 13  1  0
  5 14  1  0
  3 15  1  0
 15 16  1  0
 16 17  1  0
 17 18  1  0
 16 19  1  0
 19 20  1  0
 20 21  1  0
 21 22  2  0
 22 23  1  0
 23 24  2  0
 24 25  1  0
 25 26  2  0
 26 27  1  0
 27 28  2  0
 28 29  1  0
 29 30  2  0
 29 31  1  0
 28 32  1  0
 27 33  1  0
 26 34  1  0
 24 35  1  0
 22 36  1  0
 19 37  1  0
 19 38  1  0
 16 39  1  6
 15 40  1  0
 15 41  1  0
  3 42  1  1
 20  2  1  0
 30 21  1  0
 11  4  1  0
 30 25  1  0
M  END
>  <cnnaffinities>  (20) 
[5.91348, 5.91816]

>  <score>  (20) 
5.91348

>  <index>  (20) 
19

>  <Smiles>  (20) 
O=C1[C@@](c2c(c(c(Cl)c(Cl)c2[H])[H])[H])(C([C@](O[H])(C(N1c1c(nc(c2c(c(c(c(c12)[H])[H])[H])[H])[H])[H])([H])[H])[H])([H])[H])[H]

>  <h>  (20) 
<NA>

>  <Training>  (20) 
True

>  <Success>  (20) 
True

>  <enamine_searched>  (20) 
False

>  <enamine_id>  (20) 
nan

$$$$

     RDKit          3D

 66 71  0  0  0  0  0  0  0  0999 V2000
   -7.0350    0.4839  -29.2725 C   0  0  0  0  0  0  0  0  0  0  0  0
   -7.4961   -0.6613  -28.5232 N   0  0  0  0  0  0  0  0  0  0  0  0
   -6.7352   -1.1163  -27.4924 C   0  0  0  0  0  0  0  0  0  0  0  0
   -5.6568   -0.6302  -27.1807 O   0  0  0  0  0  0  0  0  0  0  0  0
   -7.3429   -2.3037  -26.7403 C   0  0  0  0  0  0  0  0  0  0  0  0
   -8.2632   -1.8715  -25.7005 N   0  0  0  0  0  0  0  0  0  0  0  0
   -7.7265   -1.3538  -24.4514 C   0  0  0  0  0  0  0  0  0  0  0  0
   -8.6760   -1.5454  -23.2386 C   0  0  2  0  0  0  0  0  0  0  0  0
   -8.1972   -0.5687  -22.1533 C   0  0  0  0  0  0  0  0  0  0  0  0
   -8.4110    0.6208  -22.0732 O   0  0  0  0  0  0  0  0  0  0  0  0
   -7.3957   -1.2742  -21.2730 N   0  0  0  0  0  0  0  0  0  0  0  0
   -6.6166   -0.6844  -20.2519 C   0  0  0  0  0  0  0  0  0  0  0  0
   -6.9289   -0.9437  -18.9425 C   0  0  0  0  0  0  0  0  0  0  0  0
   -6.2599   -0.4395  -17.8807 N   0  0  0  0  0  0  0  0  0  0  0  0
   -5.2104    0.3039  -18.1308 C   0  0  0  0  0  0  0  0  0  0  0  0
   -4.7328    0.5992  -19.4381 C   0  0  0  0  0  0  0  0  0  0  0  0
   -3.5704    1.3869  -19.6497 C   0  0  0  0  0  0  0  0  0  0  0  0
   -3.1289    1.6379  -20.9187 C   0  0  0  0  0  0  0  0  0  0  0  0
   -3.8126    1.1012  -22.0323 C   0  0  0  0  0  0  0  0  0  0  0  0
   -4.9374    0.3359  -21.8511 C   0  0  0  0  0  0  0  0  0  0  0  0
   -5.4418    0.0832  -20.5447 C   0  0  0  0  0  0  0  0  0  0  0  0
   -5.4481   -0.0841  -22.7121 H   0  0  0  0  0  0  0  0  0  0  0  0
   -3.4513    1.3067  -23.0352 H   0  0  0  0  0  0  0  0  0  0  0  0
   -2.2534    2.2588  -21.0794 H   0  0  0  0  0  0  0  0  0  0  0  0
   -3.0580    1.7938  -18.7822 H   0  0  0  0  0  0  0  0  0  0  0  0
   -4.6793    0.7024  -17.2689 H   0  0  0  0  0  0  0  0  0  0  0  0
   -7.7863   -1.5784  -18.7173 H   0  0  0  0  0  0  0  0  0  0  0  0
   -7.3059   -2.6890  -21.5584 C   0  0  0  0  0  0  0  0  0  0  0  0
   -8.4827   -2.9150  -22.5064 C   0  0  2  0  0  0  0  0  0  0  0  0
   -8.3219   -4.1685  -23.3617 C   0  0  0  0  0  0  0  0  0  0  0  0
   -9.4995   -4.5512  -24.2315 C   0  0  0  0  0  0  0  0  0  0  0  0
   -9.2611   -5.0432  -25.5163 C   0  0  0  0  0  0  0  0  0  0  0  0
  -10.2860   -5.5981  -26.2718 C   0  0  0  0  0  0  0  0  0  0  0  0
  -11.5784   -5.6258  -25.7676 C   0  0  0  0  0  0  0  0  0  0  0  0
  -11.8435   -5.0632  -24.5211 C   0  0  0  0  0  0  0  0  0  0  0  0
  -10.8111   -4.5234  -23.7657 C   0  0  0  0  0  0  0  0  0  0  0  0
  -11.0576   -4.0803  -22.8042 H   0  0  0  0  0  0  0  0  0  0  0  0
  -12.8503   -5.0239  -24.1113 H   0  0  0  0  0  0  0  0  0  0  0  0
  -12.3657   -6.0711  -26.3681 H   0  0  0  0  0  0  0  0  0  0  0  0
  -10.0789   -6.0324  -27.2484 H   0  0  0  0  0  0  0  0  0  0  0  0
   -8.2569   -4.9845  -25.9361 H   0  0  0  0  0  0  0  0  0  0  0  0
   -7.4436   -4.0596  -24.0057 H   0  0  0  0  0  0  0  0  0  0  0  0
   -8.1004   -5.0108  -22.6901 H   0  0  0  0  0  0  0  0  0  0  0  0
   -9.3752   -3.0414  -21.8791 H   0  0  0  0  0  0  0  0  0  0  0  0
   -7.3953   -3.2610  -20.6332 H   0  0  0  0  0  0  0  0  0  0  0  0
   -6.3404   -2.9502  -22.0257 H   0  0  0  0  0  0  0  0  0  0  0  0
  -10.1185   -1.3405  -23.6489 C   0  0  0  0  0  0  0  0  0  0  0  0
  -11.1190   -1.2567  -22.6717 C   0  0  0  0  0  0  0  0  0  0  0  0
  -12.4548   -1.2704  -23.0257 C   0  0  0  0  0  0  0  0  0  0  0  0
  -13.6780   -1.2324  -21.7867 Cl  0  0  0  0  0  0  0  0  0  0  0  0
  -12.8507   -1.3839  -24.3564 C   0  0  0  0  0  0  0  0  0  0  0  0
  -11.8759   -1.4486  -25.3281 C   0  0  0  0  0  0  0  0  0  0  0  0
  -10.5271   -1.4139  -24.9825 C   0  0  0  0  0  0  0  0  0  0  0  0
   -9.5434   -1.6071  -26.0841 C   0  0  0  0  0  0  0  0  0  0  0  0
   -9.8849   -1.5950  -27.2679 O   0  0  0  0  0  0  0  0  0  0  0  0
  -12.1215   -1.5564  -26.3806 H   0  0  0  0  0  0  0  0  0  0  0  0
  -13.9106   -1.4650  -24.5824 H   0  0  0  0  0  0  0  0  0  0  0  0
  -10.8675   -1.1998  -21.6171 H   0  0  0  0  0  0  0  0  0  0  0  0
   -7.5089   -0.2817  -24.5435 H   0  0  0  0  0  0  0  0  0  0  0  0
   -6.7737   -1.8568  -24.2470 H   0  0  0  0  0  0  0  0  0  0  0  0
   -6.5257   -2.8829  -26.2981 H   0  0  0  0  0  0  0  0  0  0  0  0
   -7.9137   -2.9394  -27.4290 H   0  0  0  0  0  0  0  0  0  0  0  0
   -8.4906   -0.8677  -28.4857 H   0  0  0  0  0  0  0  0  0  0  0  0
   -7.6957    0.6488  -30.1257 H   0  0  0  0  0  0  0  0  0  0  0  0
   -6.0247    0.2956  -29.6404 H   0  0  0  0  0  0  0  0  0  0  0  0
   -6.9992    1.3889  -28.6574 H   0  0  0  0  0  0  0  0  0  0  0  0
  1  2  1  0
  2  3  1  0
  3  4  2  0
  3  5  1  0
  5  6  1  0
  6  7  1  0
  8  7  1  6
  8  9  1  0
  9 10  2  0
  9 11  1  0
 11 12  1  0
 12 13  2  0
 13 14  1  0
 14 15  2  0
 15 16  1  0
 16 17  2  0
 17 18  1  0
 18 19  2  0
 19 20  1  0
 20 21  2  0
 20 22  1  0
 19 23  1  0
 18 24  1  0
 17 25  1  0
 15 26  1  0
 13 27  1  0
 11 28  1  0
 28 29  1  0
 29 30  1  0
 30 31  1  0
 31 32  2  0
 32 33  1  0
 33 34  2  0
 34 35  1  0
 35 36  2  0
 36 37  1  0
 35 38  1  0
 34 39  1  0
 33 40  1  0
 32 41  1  0
 30 42  1  0
 30 43  1  0
 29 44  1  1
 28 45  1  0
 28 46  1  0
  8 47  1  0
 47 48  2  0
 48 49  1  0
 49 50  1  0
 49 51  2  0
 51 52  1  0
 52 53  2  0
 53 54  1  0
 54 55  2  0
 52 56  1  0
 51 57  1  0
 48 58  1  0
  7 59  1  0
  7 60  1  0
  5 61  1  0
  5 62  1  0
  2 63  1  0
  1 64  1  0
  1 65  1  0
  1 66  1  0
 54  6  1  0
 29  8  1  0
 36 31  1  0
 53 47  1  0
 21 12  1  0
 21 16  1  0
M  END
>  <cnnaffinities>  (21) 
[6.48609]

>  <score>  (21) 
6.48609

>  <index>  (21) 
20

>  <Smiles>  (21) 
C(N(C(=O)C(N1C([C@@]2(C(=O)N(c3c(nc(c4c(c(c(c(c34)[H])[H])[H])[H])[H])[H])C([C@@]2(C(c2c(c(c(c(c2[H])[H])[H])[H])[H])([H])[H])[H])([H])[H])c2c(c(Cl)c(c(c2C1=O)[H])[H])[H])([H])[H])([H])[H])[H])([H])([H])[H]

>  <h>  (21) 
<NA>

>  <Training>  (21) 
True

>  <Success>  (21) 
True

>  <enamine_searched>  (21) 
False

>  <enamine_id>  (21) 
nan

$$$$

     RDKit          3D

 63 68  0  0  0  0  0  0  0  0999 V2000
   -8.3232   -4.1220  -23.4707 C   0  0  0  0  0  0  0  0  0  0  0  0
   -8.5215   -2.9495  -22.5271 C   0  0  1  0  0  0  0  0  0  0  0  0
   -7.3679   -2.7421  -21.5433 C   0  0  0  0  0  0  0  0  0  0  0  0
   -7.3997   -1.3226  -21.2776 N   0  0  0  0  0  0  0  0  0  0  0  0
   -6.6148   -0.7534  -20.2516 C   0  0  0  0  0  0  0  0  0  0  0  0
   -6.9261   -1.0098  -18.9417 C   0  0  0  0  0  0  0  0  0  0  0  0
   -6.2594   -0.4995  -17.8820 N   0  0  0  0  0  0  0  0  0  0  0  0
   -5.2124    0.2462  -18.1311 C   0  0  0  0  0  0  0  0  0  0  0  0
   -4.7501    0.5461  -19.4414 C   0  0  0  0  0  0  0  0  0  0  0  0
   -3.6024    1.3519  -19.6514 C   0  0  0  0  0  0  0  0  0  0  0  0
   -3.1707    1.6213  -20.9194 C   0  0  0  0  0  0  0  0  0  0  0  0
   -3.8527    1.0841  -22.0335 C   0  0  0  0  0  0  0  0  0  0  0  0
   -4.9626    0.2993  -21.8557 C   0  0  0  0  0  0  0  0  0  0  0  0
   -5.4548    0.0272  -20.5478 C   0  0  0  0  0  0  0  0  0  0  0  0
   -5.4757   -0.1077  -22.7205 H   0  0  0  0  0  0  0  0  0  0  0  0
   -3.4962    1.3000  -23.0354 H   0  0  0  0  0  0  0  0  0  0  0  0
   -2.3033    2.2539  -21.0775 H   0  0  0  0  0  0  0  0  0  0  0  0
   -3.0894    1.7530  -18.7825 H   0  0  0  0  0  0  0  0  0  0  0  0
   -4.6647    0.6431  -17.2753 H   0  0  0  0  0  0  0  0  0  0  0  0
   -7.7779   -1.6449  -18.7048 H   0  0  0  0  0  0  0  0  0  0  0  0
   -8.1579   -0.5862  -22.1584 C   0  0  0  0  0  0  0  0  0  0  0  0
   -8.2901    0.6216  -22.1047 O   0  0  0  0  0  0  0  0  0  0  0  0
   -8.7541   -1.5483  -23.2057 C   0  0  1  0  0  0  0  0  0  0  0  0
   -7.9682   -1.2994  -24.5214 C   0  0  0  0  0  0  0  0  0  0  0  0
   -8.6030   -1.8658  -25.7065 N   0  0  0  0  0  0  0  0  0  0  0  0
   -7.7999   -2.2301  -26.8616 C   0  0  0  0  0  0  0  0  0  0  0  0
   -7.7843   -3.7489  -27.0276 C   0  0  0  0  0  0  0  0  0  0  0  0
   -6.9731   -4.4580  -26.4512 O   0  0  0  0  0  0  0  0  0  0  0  0
   -8.7384   -4.2279  -27.8779 N   0  0  0  0  0  0  0  0  0  0  0  0
   -8.9180   -5.6607  -28.0152 C   0  0  0  0  0  0  0  0  0  0  0  0
   -9.5383   -6.2800  -26.7744 C   0  0  0  0  0  0  0  0  0  0  0  0
   -9.5879   -7.7733  -26.6314 C   0  0  0  0  0  0  0  0  0  0  0  0
   -8.6657   -6.9739  -25.7627 C   0  0  0  0  0  0  0  0  0  0  0  0
   -8.9129   -6.8465  -24.7104 H   0  0  0  0  0  0  0  0  0  0  0  0
   -7.6049   -7.0240  -26.0057 H   0  0  0  0  0  0  0  0  0  0  0  0
   -9.1353   -8.3787  -27.4146 H   0  0  0  0  0  0  0  0  0  0  0  0
  -10.4735   -8.2045  -26.1747 H   0  0  0  0  0  0  0  0  0  0  0  0
  -10.3956   -5.7313  -26.3702 H   0  0  0  0  0  0  0  0  0  0  0  0
   -9.5466   -5.8441  -28.8979 H   0  0  0  0  0  0  0  0  0  0  0  0
   -7.9376   -6.1123  -28.2194 H   0  0  0  0  0  0  0  0  0  0  0  0
   -9.5628   -3.6465  -27.9924 H   0  0  0  0  0  0  0  0  0  0  0  0
   -6.7909   -1.8447  -26.7205 H   0  0  0  0  0  0  0  0  0  0  0  0
   -8.2413   -1.7606  -27.7438 H   0  0  0  0  0  0  0  0  0  0  0  0
   -9.9435   -1.8291  -25.9103 C   0  0  0  0  0  0  0  0  0  0  0  0
  -10.4471   -2.1007  -27.0065 O   0  0  0  0  0  0  0  0  0  0  0  0
  -10.7796   -1.4895  -24.7382 C   0  0  0  0  0  0  0  0  0  0  0  0
  -12.1490   -1.4089  -24.9536 C   0  0  0  0  0  0  0  0  0  0  0  0
  -13.0127   -1.1222  -23.9223 C   0  0  0  0  0  0  0  0  0  0  0  0
  -12.4613   -0.9938  -22.6564 C   0  0  0  0  0  0  0  0  0  0  0  0
  -13.3121   -0.8167  -21.6418 F   0  0  0  0  0  0  0  0  0  0  0  0
  -11.1018   -1.0698  -22.4090 C   0  0  0  0  0  0  0  0  0  0  0  0
  -10.2273   -1.3140  -23.4693 C   0  0  0  0  0  0  0  0  0  0  0  0
  -10.7084   -0.9387  -21.4101 H   0  0  0  0  0  0  0  0  0  0  0  0
  -14.0800   -0.9979  -24.0707 H   0  0  0  0  0  0  0  0  0  0  0  0
  -12.4887   -1.6082  -25.9581 H   0  0  0  0  0  0  0  0  0  0  0  0
   -7.8485   -0.2123  -24.6480 H   0  0  0  0  0  0  0  0  0  0  0  0
   -6.9673   -1.7396  -24.4384 H   0  0  0  0  0  0  0  0  0  0  0  0
   -7.5134   -3.2677  -20.6021 H   0  0  0  0  0  0  0  0  0  0  0  0
   -6.3957   -3.0628  -21.9508 H   0  0  0  0  0  0  0  0  0  0  0  0
   -9.4256   -3.1343  -21.9280 H   0  0  0  0  0  0  0  0  0  0  0  0
   -9.1554   -4.1824  -24.1796 H   0  0  0  0  0  0  0  0  0  0  0  0
   -8.2799   -5.0620  -22.9098 H   0  0  0  0  0  0  0  0  0  0  0  0
   -7.4006   -4.0168  -24.0493 H   0  0  0  0  0  0  0  0  0  0  0  0
  1  2  1  0
  2  3  1  0
  3  4  1  0
  4  5  1  0
  5  6  2  0
  6  7  1  0
  7  8  2  0
  8  9  1  0
  9 10  2  0
 10 11  1  0
 11 12  2  0
 12 13  1  0
 13 14  2  0
 13 15  1  0
 12 16  1  0
 11 17  1  0
 10 18  1  0
  8 19  1  0
  6 20  1  0
  4 21  1  0
 21 22  2  0
 21 23  1  0
 23 24  1  6
 24 25  1  0
 25 26  1  0
 26 27  1  0
 27 28  2  0
 27 29  1  0
 29 30  1  0
 30 31  1  0
 31 32  1  0
 32 33  1  0
 33 34  1  0
 33 35  1  0
 32 36  1  0
 32 37  1  0
 31 38  1  0
 30 39  1  0
 30 40  1  0
 29 41  1  0
 26 42  1  0
 26 43  1  0
 25 44  1  0
 44 45  2  0
 44 46  1  0
 46 47  2  0
 47 48  1  0
 48 49  2  0
 49 50  1  0
 49 51  1  0
 51 52  2  0
 51 53  1  0
 48 54  1  0
 47 55  1  0
 24 56  1  0
 24 57  1  0
  3 58  1  0
  3 59  1  0
  2 60  1  1
  1 61  1  0
  1 62  1  0
  1 63  1  0
 23  2  1  0
 33 31  1  0
 52 46  1  0
 14  5  1  0
 52 23  1  0
 14  9  1  0
M  END
>  <cnnaffinities>  (22) 
[6.42117, 6.46227, 6.39337]

>  <score>  (22) 
6.42117

>  <index>  (22) 
21

>  <Smiles>  (22) 
C([C@]1(C(N(c2c(nc(c3c(c(c(c(c23)[H])[H])[H])[H])[H])[H])C(=O)[C@]21C(N(C(C(=O)N(C(C1(C(C1([H])[H])([H])[H])[H])([H])[H])[H])([H])[H])C(=O)c1c(c(c(F)c(c21)[H])[H])[H])([H])[H])([H])[H])[H])([H])([H])[H]

>  <h>  (22) 
<NA>

>  <Training>  (22) 
True

>  <Success>  (22) 
True

>  <enamine_searched>  (22) 
False

>  <enamine_id>  (22) 
nan

$$$$

     RDKit          3D

 68 73  0  0  0  0  0  0  0  0999 V2000
   -8.0226   -5.7030  -27.2776 C   0  0  0  0  0  0  0  0  0  0  0  0
   -8.2198   -4.2630  -27.3232 N   0  0  0  0  0  0  0  0  0  0  0  0
   -7.2538   -3.4148  -26.9239 C   0  0  0  0  0  0  0  0  0  0  0  0
   -6.1554   -3.7865  -26.5072 O   0  0  0  0  0  0  0  0  0  0  0  0
   -7.6169   -1.9287  -26.9145 C   0  0  0  0  0  0  0  0  0  0  0  0
   -8.4911   -1.6018  -25.7932 N   0  0  0  0  0  0  0  0  0  0  0  0
   -7.9192   -1.1970  -24.5137 C   0  0  0  0  0  0  0  0  0  0  0  0
   -8.7802   -1.5200  -23.2497 C   0  0  2  0  0  0  0  0  0  0  0  0
   -8.2780   -0.5776  -22.1436 C   0  0  0  0  0  0  0  0  0  0  0  0
   -8.5101    0.6069  -22.0263 O   0  0  0  0  0  0  0  0  0  0  0  0
   -7.4141   -1.2909  -21.3302 N   0  0  0  0  0  0  0  0  0  0  0  0
   -6.6409   -0.7012  -20.2964 C   0  0  0  0  0  0  0  0  0  0  0  0
   -6.9655   -0.9468  -18.9862 C   0  0  0  0  0  0  0  0  0  0  0  0
   -6.2997   -0.4489  -17.9172 N   0  0  0  0  0  0  0  0  0  0  0  0
   -5.2425    0.2856  -18.1586 C   0  0  0  0  0  0  0  0  0  0  0  0
   -4.7594    0.5860  -19.4621 C   0  0  0  0  0  0  0  0  0  0  0  0
   -3.5930    1.3721  -19.6606 C   0  0  0  0  0  0  0  0  0  0  0  0
   -3.1395    1.6288  -20.9241 C   0  0  0  0  0  0  0  0  0  0  0  0
   -3.8223    1.1022  -22.0431 C   0  0  0  0  0  0  0  0  0  0  0  0
   -4.9528    0.3417  -21.8752 C   0  0  0  0  0  0  0  0  0  0  0  0
   -5.4647    0.0738  -20.5756 C   0  0  0  0  0  0  0  0  0  0  0  0
   -5.4609   -0.0676  -22.7431 H   0  0  0  0  0  0  0  0  0  0  0  0
   -3.4501    1.3077  -23.0418 H   0  0  0  0  0  0  0  0  0  0  0  0
   -2.2587    2.2463  -21.0757 H   0  0  0  0  0  0  0  0  0  0  0  0
   -3.0823    1.7720  -18.7885 H   0  0  0  0  0  0  0  0  0  0  0  0
   -4.7068    0.6721  -17.2935 H   0  0  0  0  0  0  0  0  0  0  0  0
   -7.8288   -1.5716  -18.7612 H   0  0  0  0  0  0  0  0  0  0  0  0
   -7.3387   -2.7120  -21.6211 C   0  0  0  0  0  0  0  0  0  0  0  0
   -8.5113   -2.9121  -22.5830 C   0  0  2  0  0  0  0  0  0  0  0  0
   -8.4907   -4.1270  -23.5193 C   0  0  0  0  0  0  0  0  0  0  0  0
   -7.2193   -4.5742  -24.0222 N   0  0  0  0  0  0  0  0  0  0  0  0
   -6.4328   -5.5335  -23.4324 C   0  0  0  0  0  0  0  0  0  0  0  0
   -5.2794   -5.9799  -24.0964 C   0  0  0  0  0  0  0  0  0  0  0  0
   -4.4329   -6.8885  -23.4700 C   0  0  0  0  0  0  0  0  0  0  0  0
   -4.7270   -7.3809  -22.1990 C   0  0  0  0  0  0  0  0  0  0  0  0
   -5.8894   -6.9578  -21.5610 C   0  0  0  0  0  0  0  0  0  0  0  0
   -6.7422   -6.0541  -22.1746 C   0  0  0  0  0  0  0  0  0  0  0  0
   -7.6511   -5.7229  -21.6839 H   0  0  0  0  0  0  0  0  0  0  0  0
   -6.1447   -7.3333  -20.5734 H   0  0  0  0  0  0  0  0  0  0  0  0
   -4.0693   -8.1014  -21.7180 H   0  0  0  0  0  0  0  0  0  0  0  0
   -3.5252   -7.2154  -23.9759 H   0  0  0  0  0  0  0  0  0  0  0  0
   -5.0706   -5.6035  -25.0992 H   0  0  0  0  0  0  0  0  0  0  0  0
   -6.7386   -4.0341  -24.7242 H   0  0  0  0  0  0  0  0  0  0  0  0
   -8.9555   -4.9815  -23.0212 H   0  0  0  0  0  0  0  0  0  0  0  0
   -9.1435   -3.8980  -24.3725 H   0  0  0  0  0  0  0  0  0  0  0  0
   -9.3918   -3.0560  -21.9443 H   0  0  0  0  0  0  0  0  0  0  0  0
   -7.4596   -3.2836  -20.6958 H   0  0  0  0  0  0  0  0  0  0  0  0
   -6.3586   -2.9799  -22.0390 H   0  0  0  0  0  0  0  0  0  0  0  0
  -10.2557   -1.3742  -23.5609 C   0  0  0  0  0  0  0  0  0  0  0  0
  -11.2071   -1.3595  -22.5240 C   0  0  0  0  0  0  0  0  0  0  0  0
  -12.5640   -1.3798  -22.8287 C   0  0  0  0  0  0  0  0  0  0  0  0
  -13.7778   -1.4541  -21.5860 Cl  0  0  0  0  0  0  0  0  0  0  0  0
  -13.0160   -1.4565  -24.1401 C   0  0  0  0  0  0  0  0  0  0  0  0
  -12.0825   -1.5199  -25.1495 C   0  0  0  0  0  0  0  0  0  0  0  0
  -10.7224   -1.4928  -24.8662 C   0  0  0  0  0  0  0  0  0  0  0  0
   -9.8186   -1.7729  -26.0072 C   0  0  0  0  0  0  0  0  0  0  0  0
  -10.2516   -2.2091  -27.0780 O   0  0  0  0  0  0  0  0  0  0  0  0
  -12.3691   -1.6591  -26.1792 H   0  0  0  0  0  0  0  0  0  0  0  0
  -14.0777   -1.5149  -24.3564 H   0  0  0  0  0  0  0  0  0  0  0  0
  -10.8879   -1.3853  -21.4896 H   0  0  0  0  0  0  0  0  0  0  0  0
   -6.9380   -1.6840  -24.4285 H   0  0  0  0  0  0  0  0  0  0  0  0
   -7.7659   -0.1112  -24.5234 H   0  0  0  0  0  0  0  0  0  0  0  0
   -8.1617   -1.6859  -27.8265 H   0  0  0  0  0  0  0  0  0  0  0  0
   -6.6969   -1.3436  -26.8775 H   0  0  0  0  0  0  0  0  0  0  0  0
   -9.1309   -3.8731  -27.5363 H   0  0  0  0  0  0  0  0  0  0  0  0
   -7.5143   -5.9832  -26.3458 H   0  0  0  0  0  0  0  0  0  0  0  0
   -8.9965   -6.1983  -27.3074 H   0  0  0  0  0  0  0  0  0  0  0  0
   -7.4266   -6.0514  -28.1299 H   0  0  0  0  0  0  0  0  0  0  0  0
  1  2  1  0
  2  3  1  0
  3  4  2  0
  3  5  1  0
  5  6  1  0
  6  7  1  0
  8  7  1  6
  8  9  1  0
  9 10  2  0
  9 11  1  0
 11 12  1  0
 12 13  2  0
 13 14  1  0
 14 15  2  0
 15 16  1  0
 16 17  2  0
 17 18  1  0
 18 19  2  0
 19 20  1  0
 20 21  2  0
 20 22  1  0
 19 23  1  0
 18 24  1  0
 17 25  1  0
 15 26  1  0
 13 27  1  0
 11 28  1  0
 28 29  1  0
 29 30  1  0
 30 31  1  0
 31 32  1  0
 32 33  2  0
 33 34  1  0
 34 35  2  0
 35 36  1  0
 36 37  2  0
 37 38  1  0
 36 39  1  0
 35 40  1  0
 34 41  1  0
 33 42  1  0
 31 43  1  0
 30 44  1  0
 30 45  1  0
 29 46  1  1
 28 47  1  0
 28 48  1  0
  8 49  1  0
 49 50  2  0
 50 51  1  0
 51 52  1  0
 51 53  2  0
 53 54  1  0
 54 55  2  0
 55 56  1  0
 56 57  2  0
 54 58  1  0
 53 59  1  0
 50 60  1  0
  7 61  1  0
  7 62  1  0
  5 63  1  0
  5 64  1  0
  2 65  1  0
  1 66  1  0
  1 67  1  0
  1 68  1  0
 56  6  1  0
 29  8  1  0
 37 32  1  0
 55 49  1  0
 21 12  1  0
 21 16  1  0
M  END
>  <cnnaffinities>  (23) 
[6.7615, 6.97798]

>  <score>  (23) 
6.7615

>  <index>  (23) 
23

>  <Smiles>  (23) 
C(N(C(=O)C(N1C([C@@]2(C(=O)N(c3c(nc(c4c(c(c(c(c34)[H])[H])[H])[H])[H])[H])C([C@@]2(C(N(c2c(c(c(c(c2[H])[H])[H])[H])[H])[H])([H])[H])[H])([H])[H])c2c(c(Cl)c(c(c2C1=O)[H])[H])[H])([H])[H])([H])[H])[H])([H])([H])[H]

>  <h>  (23) 
<NA>

>  <Training>  (23) 
True

>  <Success>  (23) 
True

>  <enamine_searched>  (23) 
False

>  <enamine_id>  (23) 
nan

$$$$

     RDKit          3D

 65 70  0  0  0  0  0  0  0  0999 V2000
   -6.1506   -7.9959  -25.2843 O   0  0  0  0  0  0  0  0  0  0  0  0
   -6.0266   -7.3412  -24.2600 C   0  0  0  0  0  0  0  0  0  0  0  0
   -7.1869   -6.5952  -23.5946 C   0  0  0  0  0  0  0  0  0  0  0  0
   -7.0871   -5.1021  -23.7860 N   0  0  1  0  0  4  0  0  0  0  0  0
   -7.2680   -4.7533  -25.2800 C   0  0  0  0  0  0  0  0  0  0  0  0
   -7.2093   -3.2685  -25.5145 C   0  0  0  0  0  0  0  0  0  0  0  0
   -6.8453   -2.7854  -26.7692 C   0  0  0  0  0  0  0  0  0  0  0  0
   -6.7777   -1.4252  -27.0357 C   0  0  0  0  0  0  0  0  0  0  0  0
   -7.0866   -0.5314  -26.0158 C   0  0  0  0  0  0  0  0  0  0  0  0
   -6.9930    1.1828  -26.3173 Cl  0  0  0  0  0  0  0  0  0  0  0  0
   -7.4679   -0.9866  -24.7634 C   0  0  0  0  0  0  0  0  0  0  0  0
   -7.5454   -2.3617  -24.5064 C   0  0  0  0  0  0  0  0  0  0  0  0
   -7.9446   -2.8168  -23.1145 C   0  0  2  0  0  0  0  0  0  0  0  0
   -9.1892   -2.0964  -22.5702 C   0  0  0  0  0  0  0  0  0  0  0  0
   -8.7229   -1.1451  -21.4610 C   0  0  0  0  0  0  0  0  0  0  0  0
   -7.3220   -1.4866  -21.2437 N   0  0  0  0  0  0  0  0  0  0  0  0
   -6.5524   -0.8835  -20.2073 C   0  0  0  0  0  0  0  0  0  0  0  0
   -6.8998   -1.0473  -18.8884 C   0  0  0  0  0  0  0  0  0  0  0  0
   -6.2308   -0.5035  -17.8431 N   0  0  0  0  0  0  0  0  0  0  0  0
   -5.1774    0.2266  -18.1021 C   0  0  0  0  0  0  0  0  0  0  0  0
   -4.7266    0.5198  -19.4152 C   0  0  0  0  0  0  0  0  0  0  0  0
   -3.6039    1.3598  -19.6427 C   0  0  0  0  0  0  0  0  0  0  0  0
   -3.2208    1.6682  -20.9167 C   0  0  0  0  0  0  0  0  0  0  0  0
   -3.9472    1.1557  -22.0150 C   0  0  0  0  0  0  0  0  0  0  0  0
   -5.0302    0.3358  -21.8244 C   0  0  0  0  0  0  0  0  0  0  0  0
   -5.4409   -0.0262  -20.5106 C   0  0  0  0  0  0  0  0  0  0  0  0
   -5.5840   -0.0416  -22.6828 H   0  0  0  0  0  0  0  0  0  0  0  0
   -3.6423    1.4132  -23.0247 H   0  0  0  0  0  0  0  0  0  0  0  0
   -2.3687    2.3210  -21.0920 H   0  0  0  0  0  0  0  0  0  0  0  0
   -3.0781    1.7632  -18.7798 H   0  0  0  0  0  0  0  0  0  0  0  0
   -4.6251    0.6210  -17.2471 H   0  0  0  0  0  0  0  0  0  0  0  0
   -7.7476   -1.6710  -18.6058 H   0  0  0  0  0  0  0  0  0  0  0  0
   -6.8390   -2.4350  -22.1220 C   0  0  0  0  0  0  0  0  0  0  0  0
   -5.7359   -2.9503  -22.1357 O   0  0  0  0  0  0  0  0  0  0  0  0
   -9.2972   -1.3423  -20.5622 H   0  0  0  0  0  0  0  0  0  0  0  0
   -8.8510   -0.0817  -21.7146 H   0  0  0  0  0  0  0  0  0  0  0  0
   -9.8640   -2.8407  -22.1367 H   0  0  0  0  0  0  0  0  0  0  0  0
   -9.7502   -1.5854  -23.3568 H   0  0  0  0  0  0  0  0  0  0  0  0
   -8.1493   -4.3383  -23.0178 C   0  0  0  0  0  0  0  0  0  0  0  0
   -8.1293   -4.6187  -21.9622 H   0  0  0  0  0  0  0  0  0  0  0  0
   -9.1297   -4.5953  -23.4304 H   0  0  0  0  0  0  0  0  0  0  0  0
   -7.7024   -0.2563  -23.9905 H   0  0  0  0  0  0  0  0  0  0  0  0
   -6.4869   -1.0510  -28.0122 H   0  0  0  0  0  0  0  0  0  0  0  0
   -6.5999   -3.4920  -27.5569 H   0  0  0  0  0  0  0  0  0  0  0  0
   -6.5069   -5.2725  -25.8614 H   0  0  0  0  0  0  0  0  0  0  0  0
   -8.2375   -5.1565  -25.6017 H   0  0  0  0  0  0  0  0  0  0  0  0
   -6.1631   -4.7271  -23.4612 H   0  0  0  0  0  0  0  0  0  0  0  0
   -7.2447   -6.8072  -22.5216 H   0  0  0  0  0  0  0  0  0  0  0  0
   -8.1089   -6.9648  -24.0506 H   0  0  0  0  0  0  0  0  0  0  0  0
   -4.8287   -7.1933  -23.6424 N   0  0  0  0  0  0  0  0  0  0  0  0
   -3.6695   -7.8622  -24.2104 C   0  0  0  0  0  0  0  0  0  0  0  0
   -2.4083   -7.5607  -23.4155 C   0  0  1  0  0  0  0  0  0  0  0  0
   -1.0910   -8.0322  -24.0950 C   0  0  0  0  0  0  0  0  0  0  0  0
   -0.6179   -6.5683  -24.2061 C   0  0  1  0  0  0  0  0  0  0  0  0
   -0.4984   -6.1252  -25.5168 F   0  0  0  0  0  0  0  0  0  0  0  0
   -1.9073   -6.0859  -23.5094 C   0  0  0  0  0  0  0  0  0  0  0  0
   -1.7646   -5.5738  -22.5496 H   0  0  0  0  0  0  0  0  0  0  0  0
   -2.5132   -5.4313  -24.1484 H   0  0  0  0  0  0  0  0  0  0  0  0
    0.3306   -6.3203  -23.7150 H   0  0  0  0  0  0  0  0  0  0  0  0
   -1.2221   -8.5220  -25.0672 H   0  0  0  0  0  0  0  0  0  0  0  0
   -0.4581   -8.6867  -23.4872 H   0  0  0  0  0  0  0  0  0  0  0  0
   -2.5382   -7.9299  -22.3849 H   0  0  0  0  0  0  0  0  0  0  0  0
   -3.5592   -7.5212  -25.2511 H   0  0  0  0  0  0  0  0  0  0  0  0
   -3.8640   -8.9439  -24.2616 H   0  0  0  0  0  0  0  0  0  0  0  0
   -4.7888   -6.7110  -22.7579 H   0  0  0  0  0  0  0  0  0  0  0  0
  1  2  2  0
  2  3  1  0
  3  4  1  0
  4  5  1  0
  5  6  1  0
  6  7  2  0
  7  8  1  0
  8  9  2  0
  9 10  1  0
  9 11  1  0
 11 12  2  0
 12 13  1  0
 13 14  1  1
 14 15  1  0
 15 16  1  0
 16 17  1  0
 17 18  2  0
 18 19  1  0
 19 20  2  0
 20 21  1  0
 21 22  2  0
 22 23  1  0
 23 24  2  0
 24 25  1  0
 25 26  2  0
 25 27  1  0
 24 28  1  0
 23 29  1  0
 22 30  1  0
 20 31  1  0
 18 32  1  0
 16 33  1  0
 33 34  2  0
 15 35  1  0
 15 36  1  0
 14 37  1  0
 14 38  1  0
 13 39  1  0
 39 40  1  0
 39 41  1  0
 11 42  1  0
  8 43  1  0
  7 44  1  0
  5 45  1  0
  5 46  1  0
  4 47  1  1
  3 48  1  0
  3 49  1  0
  2 50  1  0
 50 51  1  0
 51 52  1  0
 52 53  1  0
 53 54  1  0
 54 55  1  0
 54 56  1  0
 56 57  1  0
 56 58  1  0
 54 59  1  1
 53 60  1  0
 53 61  1  0
 52 62  1  1
 51 63  1  0
 51 64  1  0
 50 65  1  0
 39  4  1  0
 56 52  1  0
 12  6  1  0
 33 13  1  0
 26 17  1  0
 26 21  1  0
M  CHG  1   4   1
M  END
>  <cnnaffinities>  (24) 
[6.33095, 6.43353, 6.21195, 6.23471]

>  <score>  (24) 
6.33095

>  <index>  (24) 
24

>  <Smiles>  (24) 
O=C(C([N@+]1(C(c2c(c(c(Cl)c(c2[C@@]2(C(C(N(c3c(nc(c4c(c(c(c(c34)[H])[H])[H])[H])[H])[H])C2=O)([H])[H])([H])[H])C1([H])[H])[H])[H])[H])([H])[H])[H])([H])[H])N(C([C@]1(C([C@@](F)(C1([H])[H])[H])([H])[H])[H])([H])[H])[H]

>  <h>  (24) 
<NA>

>  <Training>  (24) 
True

>  <Success>  (24) 
True

>  <enamine_searched>  (24) 
False

>  <enamine_id>  (24) 
nan

$$$$

     RDKit          3D

 70 75  0  0  0  0  0  0  0  0999 V2000
   -5.8253   -7.7013  -25.5342 O   0  0  0  0  0  0  0  0  0  0  0  0
   -5.6702   -7.1057  -24.4862 C   0  0  0  0  0  0  0  0  0  0  0  0
   -6.8313   -6.3732  -23.8132 C   0  0  0  0  0  0  0  0  0  0  0  0
   -6.8012   -4.8866  -23.9347 N   0  0  1  0  0  4  0  0  0  0  0  0
   -6.7484   -4.5134  -25.3982 C   0  0  0  0  0  0  0  0  0  0  0  0
   -6.7662   -3.0216  -25.6134 C   0  0  0  0  0  0  0  0  0  0  0  0
   -6.2877   -2.4748  -26.8045 C   0  0  0  0  0  0  0  0  0  0  0  0
   -6.3153   -1.1053  -27.0269 C   0  0  0  0  0  0  0  0  0  0  0  0
   -6.8323   -0.2749  -26.0361 C   0  0  0  0  0  0  0  0  0  0  0  0
   -6.8414    1.4518  -26.2843 Cl  0  0  0  0  0  0  0  0  0  0  0  0
   -7.3188   -0.8012  -24.8472 C   0  0  0  0  0  0  0  0  0  0  0  0
   -7.3097   -2.1847  -24.6442 C   0  0  0  0  0  0  0  0  0  0  0  0
   -7.8180   -2.7334  -23.3319 C   0  0  2  0  0  0  0  0  0  0  0  0
   -6.7988   -2.4346  -22.2355 C   0  0  0  0  0  0  0  0  0  0  0  0
   -5.7120   -2.9915  -22.2086 O   0  0  0  0  0  0  0  0  0  0  0  0
   -7.2523   -1.5106  -21.3183 N   0  0  0  0  0  0  0  0  0  0  0  0
   -6.5142   -0.8944  -20.2798 C   0  0  0  0  0  0  0  0  0  0  0  0
   -6.9076   -1.0528  -18.9754 C   0  0  0  0  0  0  0  0  0  0  0  0
   -6.2679   -0.5204  -17.9070 N   0  0  0  0  0  0  0  0  0  0  0  0
   -5.2058    0.2104  -18.1398 C   0  0  0  0  0  0  0  0  0  0  0  0
   -4.7310    0.5149  -19.4430 C   0  0  0  0  0  0  0  0  0  0  0  0
   -3.6109    1.3624  -19.6518 C   0  0  0  0  0  0  0  0  0  0  0  0
   -3.2296    1.6971  -20.9210 C   0  0  0  0  0  0  0  0  0  0  0  0
   -3.9465    1.2077  -22.0356 C   0  0  0  0  0  0  0  0  0  0  0  0
   -5.0174    0.3673  -21.8639 C   0  0  0  0  0  0  0  0  0  0  0  0
   -5.4173   -0.0232  -20.5553 C   0  0  0  0  0  0  0  0  0  0  0  0
   -5.5708    0.0074  -22.7260 H   0  0  0  0  0  0  0  0  0  0  0  0
   -3.6480    1.5105  -23.0340 H   0  0  0  0  0  0  0  0  0  0  0  0
   -2.3847    2.3593  -21.0806 H   0  0  0  0  0  0  0  0  0  0  0  0
   -3.0781    1.7472  -18.7864 H   0  0  0  0  0  0  0  0  0  0  0  0
   -4.6754    0.6153  -17.2774 H   0  0  0  0  0  0  0  0  0  0  0  0
   -7.7878   -1.6532  -18.7481 H   0  0  0  0  0  0  0  0  0  0  0  0
   -8.2584   -1.4148  -21.2534 H   0  0  0  0  0  0  0  0  0  0  0  0
   -8.0295   -4.2449  -23.3368 C   0  0  0  0  0  0  0  0  0  0  0  0
   -8.9169   -4.5405  -23.9117 H   0  0  0  0  0  0  0  0  0  0  0  0
   -8.1460   -4.6015  -22.3124 H   0  0  0  0  0  0  0  0  0  0  0  0
   -8.7507   -2.2240  -23.0849 H   0  0  0  0  0  0  0  0  0  0  0  0
   -7.6954   -0.1313  -24.0758 H   0  0  0  0  0  0  0  0  0  0  0  0
   -5.9316   -0.6840  -27.9515 H   0  0  0  0  0  0  0  0  0  0  0  0
   -5.8833   -3.1268  -27.5754 H   0  0  0  0  0  0  0  0  0  0  0  0
   -7.6211   -4.9787  -25.8805 H   0  0  0  0  0  0  0  0  0  0  0  0
   -5.8555   -4.9599  -25.8367 H   0  0  0  0  0  0  0  0  0  0  0  0
   -5.9883   -4.4670  -23.4313 H   0  0  0  0  0  0  0  0  0  0  0  0
   -7.7393   -6.7306  -24.3076 H   0  0  0  0  0  0  0  0  0  0  0  0
   -6.8650   -6.6602  -22.7611 H   0  0  0  0  0  0  0  0  0  0  0  0
   -4.4729   -7.0523  -23.8168 N   0  0  0  0  0  0  0  0  0  0  0  0
   -3.2808   -7.6639  -24.2592 C   0  0  0  0  0  0  0  0  0  0  0  0
   -2.0502   -7.0781  -23.9532 C   0  0  0  0  0  0  0  0  0  0  0  0
   -0.8674   -7.6594  -24.3862 C   0  0  0  0  0  0  0  0  0  0  0  0
   -0.8998   -8.8276  -25.1419 C   0  0  0  0  0  0  0  0  0  0  0  0
    0.3083   -9.4639  -25.5363 N   0  0  0  0  0  0  0  0  0  0  0  0
    1.2672   -9.8288  -24.4927 C   0  0  0  0  0  0  0  0  0  0  0  0
    2.5964  -10.1976  -25.1253 C   0  0  0  0  0  0  0  0  0  0  0  0
    2.3857  -11.1672  -26.1289 O   0  0  0  0  0  0  0  0  0  0  0  0
    1.6869  -10.6245  -27.2178 C   0  0  0  0  0  0  0  0  0  0  0  0
    0.4004   -9.9116  -26.8336 C   0  0  0  0  0  0  0  0  0  0  0  0
   -0.4515   -9.6986  -27.6792 O   0  0  0  0  0  0  0  0  0  0  0  0
    2.3019   -9.9018  -27.7800 H   0  0  0  0  0  0  0  0  0  0  0  0
    1.4292  -11.4326  -27.9060 H   0  0  0  0  0  0  0  0  0  0  0  0
    3.0985   -9.3070  -25.5388 H   0  0  0  0  0  0  0  0  0  0  0  0
    3.2531  -10.6477  -24.3756 H   0  0  0  0  0  0  0  0  0  0  0  0
    1.4021   -8.9942  -23.7965 H   0  0  0  0  0  0  0  0  0  0  0  0
    0.8833  -10.6768  -23.9090 H   0  0  0  0  0  0  0  0  0  0  0  0
   -2.1307   -9.3918  -25.4676 C   0  0  0  0  0  0  0  0  0  0  0  0
   -3.3079   -8.8503  -24.9875 C   0  0  0  0  0  0  0  0  0  0  0  0
   -4.2431   -9.3473  -25.2004 H   0  0  0  0  0  0  0  0  0  0  0  0
   -2.1741  -10.2473  -26.1310 H   0  0  0  0  0  0  0  0  0  0  0  0
    0.0918   -7.1960  -24.1649 H   0  0  0  0  0  0  0  0  0  0  0  0
   -2.0065   -6.1441  -23.4033 H   0  0  0  0  0  0  0  0  0  0  0  0
   -4.3976   -6.4959  -22.9802 H   0  0  0  0  0  0  0  0  0  0  0  0
  1  2  2  0
  2  3  1  0
  3  4  1  0
  4  5  1  0
  5  6  1  0
  6  7  2  0
  7  8  1  0
  8  9  2  0
  9 10  1  0
  9 11  1  0
 11 12  2  0
 12 13  1  0
 13 14  1  0
 14 15  2  0
 14 16  1  0
 16 17  1  0
 17 18  2  0
 18 19  1  0
 19 20  2  0
 20 21  1  0
 21 22  2  0
 22 23  1  0
 23 24  2  0
 24 25  1  0
 25 26  2  0
 25 27  1  0
 24 28  1  0
 23 29  1  0
 22 30  1  0
 20 31  1  0
 18 32  1  0
 16 33  1  0
 13 34  1  0
 34 35  1  0
 34 36  1  0
 13 37  1  1
 11 38  1  0
  8 39  1  0
  7 40  1  0
  5 41  1  0
  5 42  1  0
  4 43  1  1
  3 44  1  0
  3 45  1  0
  2 46  1  0
 46 47  1  0
 47 48  2  0
 48 49  1  0
 49 50  2  0
 50 51  1  0
 51 52  1  0
 52 53  1  0
 53 54  1  0
 54 55  1  0
 55 56  1  0
 56 57  2  0
 55 58  1  0
 55 59  1  0
 53 60  1  0
 53 61  1  0
 52 62  1  0
 52 63  1  0
 50 64  1  0
 64 65  2  0
 65 66  1  0
 64 67  1  0
 49 68  1  0
 48 69  1  0
 46 70  1  0
 34  4  1  0
 65 47  1  0
 12  6  1  0
 26 17  1  0
 56 51  1  0
 26 21  1  0
M  CHG  1   4   1
M  END
>  <cnnaffinities>  (25) 
[6.15689]

>  <score>  (25) 
6.15689

>  <index>  (25) 
25

>  <Smiles>  (25) 
O=C(C([N@+]1(C(c2c(c(c(Cl)c(c2[C@](C(=O)N(c2c(nc(c3c(c(c(c(c23)[H])[H])[H])[H])[H])[H])[H])(C1([H])[H])[H])[H])[H])[H])([H])[H])[H])([H])[H])N(c1c(c(c(N2C(C(OC(C2=O)([H])[H])([H])[H])([H])[H])c(c1[H])[H])[H])[H])[H]

>  <h>  (25) 
<NA>

>  <Training>  (25) 
True

>  <Success>  (25) 
True

>  <enamine_searched>  (25) 
False

>  <enamine_id>  (25) 
nan

$$$$

     RDKit          3D

 55 60  0  0  0  0  0  0  0  0999 V2000
  -10.4948   -1.1565  -23.2680 C   0  0  0  0  0  0  0  0  0  0  0  0
   -9.0428   -1.4825  -22.9444 C   0  0  1  0  0  0  0  0  0  0  0  0
   -8.4312   -0.5137  -21.9170 C   0  0  0  0  0  0  0  0  0  0  0  0
   -7.4315   -1.3199  -21.2436 N   0  0  0  0  0  0  0  0  0  0  0  0
   -6.5991   -0.8160  -20.2144 C   0  0  0  0  0  0  0  0  0  0  0  0
   -6.9117   -1.0429  -18.8983 C   0  0  0  0  0  0  0  0  0  0  0  0
   -6.2451   -0.4966  -17.8520 N   0  0  0  0  0  0  0  0  0  0  0  0
   -5.2066    0.2543  -18.1112 C   0  0  0  0  0  0  0  0  0  0  0  0
   -4.7503    0.5422  -19.4274 C   0  0  0  0  0  0  0  0  0  0  0  0
   -3.6103    1.3511  -19.6593 C   0  0  0  0  0  0  0  0  0  0  0  0
   -3.2036    1.6155  -20.9365 C   0  0  0  0  0  0  0  0  0  0  0  0
   -3.9104    1.0783  -22.0338 C   0  0  0  0  0  0  0  0  0  0  0  0
   -5.0157    0.2865  -21.8362 C   0  0  0  0  0  0  0  0  0  0  0  0
   -5.4669    0.0037  -20.5198 C   0  0  0  0  0  0  0  0  0  0  0  0
   -5.5403   -0.1396  -22.6846 H   0  0  0  0  0  0  0  0  0  0  0  0
   -3.5758    1.2985  -23.0421 H   0  0  0  0  0  0  0  0  0  0  0  0
   -2.3427    2.2529  -21.1146 H   0  0  0  0  0  0  0  0  0  0  0  0
   -3.0808    1.7581  -18.8030 H   0  0  0  0  0  0  0  0  0  0  0  0
   -4.6576    0.6640  -17.2610 H   0  0  0  0  0  0  0  0  0  0  0  0
   -7.7575   -1.6746  -18.6402 H   0  0  0  0  0  0  0  0  0  0  0  0
   -7.5408   -2.6695  -21.4996 C   0  0  0  0  0  0  0  0  0  0  0  0
   -6.7325   -3.4980  -21.1377 O   0  0  0  0  0  0  0  0  0  0  0  0
   -8.7914   -2.9131  -22.3571 C   0  0  1  0  0  0  0  0  0  0  0  0
   -9.9652   -3.3882  -21.4742 C   0  0  0  0  0  0  0  0  0  0  0  0
  -11.0926   -3.8735  -22.2542 N   0  0  0  0  0  0  0  0  0  0  0  0
  -12.4501   -3.8175  -21.7246 C   0  0  0  0  0  0  0  0  0  0  0  0
  -13.3122   -2.6967  -22.2373 C   0  0  0  0  0  0  0  0  0  0  0  0
  -13.9921   -2.7350  -23.4629 C   0  0  0  0  0  0  0  0  0  0  0  0
  -14.7374   -1.6368  -23.5823 N   0  0  0  0  0  0  0  0  0  0  0  0
  -14.4648   -0.9812  -22.4738 N   0  0  0  0  0  0  0  0  0  0  0  0
  -13.6270   -1.5591  -21.6251 N   0  0  0  0  0  0  0  0  0  0  0  0
  -14.9477   -0.1247  -22.2259 H   0  0  0  0  0  0  0  0  0  0  0  0
  -13.9713   -3.5244  -24.1965 H   0  0  0  0  0  0  0  0  0  0  0  0
  -12.4473   -3.8551  -20.6329 H   0  0  0  0  0  0  0  0  0  0  0  0
  -12.9290   -4.7120  -22.1281 H   0  0  0  0  0  0  0  0  0  0  0  0
  -10.9459   -4.5711  -23.4200 C   0  0  0  0  0  0  0  0  0  0  0  0
  -11.9098   -4.9802  -24.0607 O   0  0  0  0  0  0  0  0  0  0  0  0
   -9.5491   -4.7782  -23.8798 C   0  0  0  0  0  0  0  0  0  0  0  0
   -9.2977   -5.7560  -24.8377 C   0  0  0  0  0  0  0  0  0  0  0  0
   -8.0412   -5.9018  -25.3915 C   0  0  0  0  0  0  0  0  0  0  0  0
   -7.0470   -5.0396  -24.9447 C   0  0  0  0  0  0  0  0  0  0  0  0
   -5.8317   -5.1261  -25.5047 F   0  0  0  0  0  0  0  0  0  0  0  0
   -7.2511   -4.0949  -23.9611 C   0  0  0  0  0  0  0  0  0  0  0  0
   -8.5232   -3.9623  -23.4016 C   0  0  0  0  0  0  0  0  0  0  0  0
   -6.4188   -3.4857  -23.6247 H   0  0  0  0  0  0  0  0  0  0  0  0
   -7.8155   -6.6484  -26.1486 H   0  0  0  0  0  0  0  0  0  0  0  0
  -10.1127   -6.3954  -25.1473 H   0  0  0  0  0  0  0  0  0  0  0  0
  -10.3062   -2.5310  -20.8897 H   0  0  0  0  0  0  0  0  0  0  0  0
   -9.6313   -4.1804  -20.8007 H   0  0  0  0  0  0  0  0  0  0  0  0
   -9.1925   -0.1453  -21.2073 H   0  0  0  0  0  0  0  0  0  0  0  0
   -7.9678    0.3516  -22.4065 H   0  0  0  0  0  0  0  0  0  0  0  0
   -8.4373   -1.4408  -23.8609 H   0  0  0  0  0  0  0  0  0  0  0  0
  -10.5726   -0.1975  -23.7876 H   0  0  0  0  0  0  0  0  0  0  0  0
  -10.9431   -1.9438  -23.8839 H   0  0  0  0  0  0  0  0  0  0  0  0
  -11.0795   -1.0995  -22.3438 H   0  0  0  0  0  0  0  0  0  0  0  0
  1  2  1  0
  2  3  1  0
  3  4  1  0
  4  5  1  0
  5  6  2  0
  6  7  1  0
  7  8  2  0
  8  9  1  0
  9 10  2  0
 10 11  1  0
 11 12  2  0
 12 13  1  0
 13 14  2  0
 13 15  1  0
 12 16  1  0
 11 17  1  0
 10 18  1  0
  8 19  1  0
  6 20  1  0
  4 21  1  0
 21 22  2  0
 21 23  1  0
 23 24  1  1
 24 25  1  0
 25 26  1  0
 26 27  1  0
 27 28  1  0
 28 29  2  0
 29 30  1  0
 30 31  1  0
 30 32  1  0
 28 33  1  0
 26 34  1  0
 26 35  1  0
 25 36  1  0
 36 37  2  0
 36 38  1  0
 38 39  2  0
 39 40  1  0
 40 41  2  0
 41 42  1  0
 41 43  1  0
 43 44  2  0
 43 45  1  0
 40 46  1  0
 39 47  1  0
 24 48  1  0
 24 49  1  0
  3 50  1  0
  3 51  1  0
  2 52  1  6
  1 53  1  0
  1 54  1  0
  1 55  1  0
 23  2  1  0
 31 27  2  0
 44 38  1  0
 14  5  1  0
 44 23  1  0
 14  9  1  0
M  END
>  <cnnaffinities>  (26) 
[6.82878, 6.75549]

>  <score>  (26) 
6.82878

>  <index>  (26) 
26

>  <Smiles>  (26) 
C([C@]1(C(N(c2c(nc(c3c(c(c(c(c23)[H])[H])[H])[H])[H])[H])C(=O)[C@]21C(N(C(c1c(nn(n1)[H])[H])([H])[H])C(=O)c1c(c(c(F)c(c21)[H])[H])[H])([H])[H])([H])[H])[H])([H])([H])[H]

>  <h>  (26) 
<NA>

>  <Training>  (26) 
True

>  <Success>  (26) 
True

>  <enamine_searched>  (26) 
False

>  <enamine_id>  (26) 
nan

$$$$

     RDKit          3D

 58 62  0  0  0  0  0  0  0  0999 V2000
   -8.4904   -0.9494  -29.4413 C   0  0  0  0  0  0  0  0  0  0  0  0
   -7.9810   -0.4535  -28.1345 N   0  0  0  0  0  4  0  0  0  0  0  0
   -6.9379   -1.3279  -27.5211 C   0  0  0  0  0  0  0  0  0  0  0  0
   -7.5942   -2.4446  -26.7030 C   0  0  0  0  0  0  0  0  0  0  0  0
   -8.4907   -1.9356  -25.6658 N   0  0  0  0  0  0  0  0  0  0  0  0
   -7.9231   -1.2983  -24.4888 C   0  0  0  0  0  0  0  0  0  0  0  0
   -8.7639   -1.5562  -23.2165 C   0  0  2  0  0  0  0  0  0  0  0  0
   -8.2294   -0.5773  -22.1548 C   0  0  0  0  0  0  0  0  0  0  0  0
   -8.4623    0.6092  -22.0622 O   0  0  0  0  0  0  0  0  0  0  0  0
   -7.3850   -1.2802  -21.3188 N   0  0  0  0  0  0  0  0  0  0  0  0
   -6.6230   -0.6842  -20.2873 C   0  0  0  0  0  0  0  0  0  0  0  0
   -6.9579   -0.9330  -18.9815 C   0  0  0  0  0  0  0  0  0  0  0  0
   -6.2966   -0.4316  -17.9129 N   0  0  0  0  0  0  0  0  0  0  0  0
   -5.2391    0.3071  -18.1509 C   0  0  0  0  0  0  0  0  0  0  0  0
   -4.7535    0.6069  -19.4548 C   0  0  0  0  0  0  0  0  0  0  0  0
   -3.5860    1.3899  -19.6572 C   0  0  0  0  0  0  0  0  0  0  0  0
   -3.1294    1.6413  -20.9234 C   0  0  0  0  0  0  0  0  0  0  0  0
   -3.8105    1.1135  -22.0445 C   0  0  0  0  0  0  0  0  0  0  0  0
   -4.9429    0.3564  -21.8717 C   0  0  0  0  0  0  0  0  0  0  0  0
   -5.4534    0.0936  -20.5697 C   0  0  0  0  0  0  0  0  0  0  0  0
   -5.4528   -0.0547  -22.7373 H   0  0  0  0  0  0  0  0  0  0  0  0
   -3.4391    1.3177  -23.0447 H   0  0  0  0  0  0  0  0  0  0  0  0
   -2.2509    2.2605  -21.0773 H   0  0  0  0  0  0  0  0  0  0  0  0
   -3.0787    1.7966  -18.7870 H   0  0  0  0  0  0  0  0  0  0  0  0
   -4.7024    0.7000  -17.2870 H   0  0  0  0  0  0  0  0  0  0  0  0
   -7.8204   -1.5631  -18.7618 H   0  0  0  0  0  0  0  0  0  0  0  0
   -7.2976   -2.6960  -21.6083 C   0  0  0  0  0  0  0  0  0  0  0  0
   -8.4921   -2.9432  -22.5351 C   0  0  2  0  0  0  0  0  0  0  0  0
   -8.3110   -4.1545  -23.4465 C   0  0  0  0  0  0  0  0  0  0  0  0
   -7.3952   -4.0735  -24.0482 H   0  0  0  0  0  0  0  0  0  0  0  0
   -8.2240   -5.0644  -22.8437 H   0  0  0  0  0  0  0  0  0  0  0  0
   -9.1624   -4.2649  -24.1258 H   0  0  0  0  0  0  0  0  0  0  0  0
   -9.3747   -3.1016  -21.8965 H   0  0  0  0  0  0  0  0  0  0  0  0
   -7.3718   -3.2663  -20.6801 H   0  0  0  0  0  0  0  0  0  0  0  0
   -6.3335   -2.9471  -22.0837 H   0  0  0  0  0  0  0  0  0  0  0  0
  -10.2364   -1.3479  -23.5233 C   0  0  0  0  0  0  0  0  0  0  0  0
  -11.1616   -1.1563  -22.4878 C   0  0  0  0  0  0  0  0  0  0  0  0
  -12.5117   -1.1419  -22.7892 C   0  0  0  0  0  0  0  0  0  0  0  0
  -13.4107   -0.9575  -21.8134 F   0  0  0  0  0  0  0  0  0  0  0  0
  -13.0039   -1.3497  -24.0709 C   0  0  0  0  0  0  0  0  0  0  0  0
  -12.0955   -1.5267  -25.0943 C   0  0  0  0  0  0  0  0  0  0  0  0
  -10.7241   -1.4917  -24.8273 C   0  0  0  0  0  0  0  0  0  0  0  0
   -9.8023   -1.6991  -25.9731 C   0  0  0  0  0  0  0  0  0  0  0  0
  -10.2149   -1.6596  -27.1332 O   0  0  0  0  0  0  0  0  0  0  0  0
  -12.4182   -1.7110  -26.1135 H   0  0  0  0  0  0  0  0  0  0  0  0
  -14.0749   -1.3914  -24.2226 H   0  0  0  0  0  0  0  0  0  0  0  0
  -10.8424   -1.0723  -21.4561 H   0  0  0  0  0  0  0  0  0  0  0  0
   -6.8949   -1.6570  -24.3384 H   0  0  0  0  0  0  0  0  0  0  0  0
   -7.8754   -0.2045  -24.6203 H   0  0  0  0  0  0  0  0  0  0  0  0
   -8.2064   -3.0844  -27.3467 H   0  0  0  0  0  0  0  0  0  0  0  0
   -6.8261   -3.0756  -26.2410 H   0  0  0  0  0  0  0  0  0  0  0  0
   -6.2895   -0.7157  -26.8899 H   0  0  0  0  0  0  0  0  0  0  0  0
   -6.3141   -1.7510  -28.3140 H   0  0  0  0  0  0  0  0  0  0  0  0
   -8.7983   -0.4336  -27.5056 H   0  0  0  0  0  0  0  0  0  0  0  0
   -7.6548    0.5272  -28.2225 H   0  0  0  0  0  0  0  0  0  0  0  0
   -8.9475   -0.1211  -29.9875 H   0  0  0  0  0  0  0  0  0  0  0  0
   -9.2481   -1.7118  -29.2595 H   0  0  0  0  0  0  0  0  0  0  0  0
   -7.6736   -1.3702  -30.0361 H   0  0  0  0  0  0  0  0  0  0  0  0
  1  2  1  0
  2  3  1  0
  3  4  1  0
  4  5  1  0
  5  6  1  0
  7  6  1  6
  7  8  1  0
  8  9  2  0
  8 10  1  0
 10 11  1  0
 11 12  2  0
 12 13  1  0
 13 14  2  0
 14 15  1  0
 15 16  2  0
 16 17  1  0
 17 18  2  0
 18 19  1  0
 19 20  2  0
 19 21  1  0
 18 22  1  0
 17 23  1  0
 16 24  1  0
 14 25  1  0
 12 26  1  0
 10 27  1  0
 27 28  1  0
 28 29  1  0
 29 30  1  0
 29 31  1  0
 29 32  1  0
 28 33  1  1
 27 34  1  0
 27 35  1  0
  7 36  1  0
 36 37  2  0
 37 38  1  0
 38 39  1  0
 38 40  2  0
 40 41  1  0
 41 42  2  0
 42 43  1  0
 43 44  2  0
 41 45  1  0
 40 46  1  0
 37 47  1  0
  6 48  1  0
  6 49  1  0
  4 50  1  0
  4 51  1  0
  3 52  1  0
  3 53  1  0
  2 54  1  0
  2 55  1  0
  1 56  1  0
  1 57  1  0
  1 58  1  0
 43  5  1  0
 28  7  1  0
 42 36  1  0
 20 11  1  0
 20 15  1  0
M  CHG  1   2   1
M  END
>  <cnnaffinities>  (27) 
[6.22906, 6.00871]

>  <score>  (27) 
6.22906

>  <index>  (27) 
27

>  <Smiles>  (27) 
C([N+](C(C(N1C([C@@]2(C(=O)N(c3c(nc(c4c(c(c(c(c34)[H])[H])[H])[H])[H])[H])C([C@@]2(C([H])([H])[H])[H])([H])[H])c2c(c(F)c(c(c2C1=O)[H])[H])[H])([H])[H])([H])[H])([H])[H])([H])[H])([H])([H])[H]

>  <h>  (27) 
<NA>

>  <Training>  (27) 
True

>  <Success>  (27) 
True

>  <enamine_searched>  (27) 
False

>  <enamine_id>  (27) 
nan

$$$$

     RDKit          3D

 64 68  0  0  0  0  0  0  0  0999 V2000
   -7.4854    3.1225  -21.8481 C   0  0  0  0  0  0  0  0  0  0  0  0
   -8.6247    2.5710  -22.5580 N   0  0  0  0  0  0  0  0  0  0  0  0
   -8.3812    1.7558  -23.6249 C   0  0  0  0  0  0  0  0  0  0  0  0
   -7.2513    1.4323  -23.9614 O   0  0  0  0  0  0  0  0  0  0  0  0
   -9.6022    1.2670  -24.3944 C   0  0  0  0  0  0  0  0  0  0  0  0
  -10.0634   -0.0039  -23.8834 N   0  0  0  0  0  0  0  0  0  0  0  0
   -9.1980   -1.1752  -23.9119 C   0  0  0  0  0  0  0  0  0  0  0  0
   -9.2956   -1.9423  -22.5653 C   0  0  2  0  0  0  0  0  0  0  0  0
   -8.7046   -1.0192  -21.4611 C   0  0  0  0  0  0  0  0  0  0  0  0
   -9.2340   -0.0507  -20.9567 O   0  0  0  0  0  0  0  0  0  0  0  0
   -7.4126   -1.4363  -21.1890 N   0  0  0  0  0  0  0  0  0  0  0  0
   -6.6236   -0.8233  -20.1855 C   0  0  0  0  0  0  0  0  0  0  0  0
   -6.9550   -1.0027  -18.8647 C   0  0  0  0  0  0  0  0  0  0  0  0
   -6.2612   -0.4799  -17.8305 N   0  0  0  0  0  0  0  0  0  0  0  0
   -5.2004    0.2341  -18.1097 C   0  0  0  0  0  0  0  0  0  0  0  0
   -4.7529    0.5148  -19.4285 C   0  0  0  0  0  0  0  0  0  0  0  0
   -3.6252    1.3427  -19.6678 C   0  0  0  0  0  0  0  0  0  0  0  0
   -3.2484    1.6458  -20.9466 C   0  0  0  0  0  0  0  0  0  0  0  0
   -3.9830    1.1363  -22.0394 C   0  0  0  0  0  0  0  0  0  0  0  0
   -5.0801    0.3277  -21.8343 C   0  0  0  0  0  0  0  0  0  0  0  0
   -5.4857   -0.0203  -20.5156 C   0  0  0  0  0  0  0  0  0  0  0  0
   -5.6730    0.0173  -22.6891 H   0  0  0  0  0  0  0  0  0  0  0  0
   -3.6888    1.3988  -23.0513 H   0  0  0  0  0  0  0  0  0  0  0  0
   -2.3970    2.2972  -21.1258 H   0  0  0  0  0  0  0  0  0  0  0  0
   -3.0906    1.7432  -18.8109 H   0  0  0  0  0  0  0  0  0  0  0  0
   -4.6405    0.6428  -17.2688 H   0  0  0  0  0  0  0  0  0  0  0  0
   -7.8193   -1.6104  -18.6083 H   0  0  0  0  0  0  0  0  0  0  0  0
   -6.9829   -2.5760  -21.9731 C   0  0  0  0  0  0  0  0  0  0  0  0
   -8.3216   -3.1490  -22.4794 C   0  0  2  0  0  0  0  0  0  0  0  0
   -8.1950   -3.9745  -23.7557 C   0  0  0  0  0  0  0  0  0  0  0  0
   -7.3679   -5.5202  -23.4411 S   0  0  0  0  0  0  0  0  0  0  0  0
   -8.1706   -6.2929  -22.4992 O   0  0  0  0  0  0  0  0  0  0  0  0
   -5.9692   -5.2707  -23.1296 O   0  0  0  0  0  0  0  0  0  0  0  0
   -7.3740   -6.1769  -24.9728 N   0  0  0  0  0  0  0  0  0  0  0  0
   -8.5994   -6.7702  -25.5008 C   0  0  0  0  0  0  0  0  0  0  0  0
   -9.1002   -7.4364  -24.7867 H   0  0  0  0  0  0  0  0  0  0  0  0
   -8.3190   -7.3361  -26.3914 H   0  0  0  0  0  0  0  0  0  0  0  0
   -9.2954   -5.9876  -25.8283 H   0  0  0  0  0  0  0  0  0  0  0  0
   -6.5335   -6.7336  -25.0819 H   0  0  0  0  0  0  0  0  0  0  0  0
   -9.1853   -4.2205  -24.1499 H   0  0  0  0  0  0  0  0  0  0  0  0
   -7.6217   -3.4582  -24.5334 H   0  0  0  0  0  0  0  0  0  0  0  0
   -8.6843   -3.8166  -21.6924 H   0  0  0  0  0  0  0  0  0  0  0  0
   -6.3284   -2.2726  -22.8063 H   0  0  0  0  0  0  0  0  0  0  0  0
   -6.4322   -3.3033  -21.3692 H   0  0  0  0  0  0  0  0  0  0  0  0
  -10.7750   -2.2507  -22.3503 C   0  0  0  0  0  0  0  0  0  0  0  0
  -11.2379   -3.3451  -21.6069 C   0  0  0  0  0  0  0  0  0  0  0  0
  -12.5738   -3.4089  -21.2348 C   0  0  0  0  0  0  0  0  0  0  0  0
  -13.0975   -4.4938  -19.9858 Cl  0  0  0  0  0  0  0  0  0  0  0  0
  -13.5311   -2.5310  -21.7303 C   0  0  0  0  0  0  0  0  0  0  0  0
  -13.1000   -1.4983  -22.5259 C   0  0  0  0  0  0  0  0  0  0  0  0
  -11.7438   -1.3352  -22.7874 C   0  0  0  0  0  0  0  0  0  0  0  0
  -11.3667   -0.0884  -23.5019 C   0  0  0  0  0  0  0  0  0  0  0  0
  -12.1855    0.8039  -23.7091 O   0  0  0  0  0  0  0  0  0  0  0  0
  -13.7884   -0.7669  -22.9291 H   0  0  0  0  0  0  0  0  0  0  0  0
  -14.5706   -2.6369  -21.4406 H   0  0  0  0  0  0  0  0  0  0  0  0
  -10.5672   -4.1175  -21.2511 H   0  0  0  0  0  0  0  0  0  0  0  0
   -8.1745   -0.8335  -24.0936 H   0  0  0  0  0  0  0  0  0  0  0  0
   -9.4991   -1.8383  -24.7358 H   0  0  0  0  0  0  0  0  0  0  0  0
  -10.4297    1.9644  -24.2558 H   0  0  0  0  0  0  0  0  0  0  0  0
   -9.3696    1.1845  -25.4674 H   0  0  0  0  0  0  0  0  0  0  0  0
   -9.4900    2.4781  -22.0371 H   0  0  0  0  0  0  0  0  0  0  0  0
   -6.8821    2.3302  -21.3960 H   0  0  0  0  0  0  0  0  0  0  0  0
   -7.8275    3.7893  -21.0606 H   0  0  0  0  0  0  0  0  0  0  0  0
   -6.8551    3.7059  -22.5232 H   0  0  0  0  0  0  0  0  0  0  0  0
  1  2  1  0
  2  3  1  0
  3  4  2  0
  3  5  1  0
  5  6  1  0
  6  7  1  0
  8  7  1  6
  8  9  1  0
  9 10  2  0
  9 11  1  0
 11 12  1  0
 12 13  2  0
 13 14  1  0
 14 15  2  0
 15 16  1  0
 16 17  2  0
 17 18  1  0
 18 19  2  0
 19 20  1  0
 20 21  2  0
 20 22  1  0
 19 23  1  0
 18 24  1  0
 17 25  1  0
 15 26  1  0
 13 27  1  0
 11 28  1  0
 28 29  1  0
 29 30  1  0
 30 31  1  0
 31 32  2  0
 31 33  2  0
 31 34  1  0
 34 35  1  0
 35 36  1  0
 35 37  1  0
 35 38  1  0
 34 39  1  0
 30 40  1  0
 30 41  1  0
 29 42  1  1
 28 43  1  0
 28 44  1  0
  8 45  1  0
 45 46  2  0
 46 47  1  0
 47 48  1  0
 47 49  2  0
 49 50  1  0
 50 51  2  0
 51 52  1  0
 52 53  2  0
 50 54  1  0
 49 55  1  0
 46 56  1  0
  7 57  1  0
  7 58  1  0
  5 59  1  0
  5 60  1  0
  2 61  1  0
  1 62  1  0
  1 63  1  0
  1 64  1  0
 52  6  1  0
 29  8  1  0
 51 45  1  0
 21 12  1  0
 21 16  1  0
M  END
>  <cnnaffinities>  (28) 
[6.57721, 6.58545]

>  <score>  (28) 
6.57721

>  <index>  (28) 
28

>  <Smiles>  (28) 
C(N(C(=O)C(N1C([C@@]2(C(=O)N(c3c(nc(c4c(c(c(c(c34)[H])[H])[H])[H])[H])[H])C([C@@]2(C(S(=O)(=O)N(C([H])([H])[H])[H])([H])[H])[H])([H])[H])c2c(c(Cl)c(c(c2C1=O)[H])[H])[H])([H])[H])([H])[H])[H])([H])([H])[H]

>  <h>  (28) 
<NA>

>  <Training>  (28) 
True

>  <Success>  (28) 
True

>  <enamine_searched>  (28) 
False

>  <enamine_id>  (28) 
nan

$$$$

     RDKit          3D

 55 60  0  0  0  0  0  0  0  0999 V2000
  -10.4948   -1.1565  -23.2680 C   0  0  0  0  0  0  0  0  0  0  0  0
   -9.0428   -1.4825  -22.9444 C   0  0  1  0  0  0  0  0  0  0  0  0
   -8.4312   -0.5137  -21.9170 C   0  0  0  0  0  0  0  0  0  0  0  0
   -7.4315   -1.3199  -21.2436 N   0  0  0  0  0  0  0  0  0  0  0  0
   -6.5991   -0.8160  -20.2143 C   0  0  0  0  0  0  0  0  0  0  0  0
   -6.9117   -1.0429  -18.8983 C   0  0  0  0  0  0  0  0  0  0  0  0
   -6.2452   -0.4967  -17.8520 N   0  0  0  0  0  0  0  0  0  0  0  0
   -5.2066    0.2543  -18.1112 C   0  0  0  0  0  0  0  0  0  0  0  0
   -4.7503    0.5422  -19.4275 C   0  0  0  0  0  0  0  0  0  0  0  0
   -3.6103    1.3511  -19.6593 C   0  0  0  0  0  0  0  0  0  0  0  0
   -3.2035    1.6155  -20.9365 C   0  0  0  0  0  0  0  0  0  0  0  0
   -3.9104    1.0783  -22.0338 C   0  0  0  0  0  0  0  0  0  0  0  0
   -5.0157    0.2865  -21.8362 C   0  0  0  0  0  0  0  0  0  0  0  0
   -5.4669    0.0037  -20.5197 C   0  0  0  0  0  0  0  0  0  0  0  0
   -5.5403   -0.1396  -22.6846 H   0  0  0  0  0  0  0  0  0  0  0  0
   -3.5758    1.2985  -23.0421 H   0  0  0  0  0  0  0  0  0  0  0  0
   -2.3427    2.2529  -21.1146 H   0  0  0  0  0  0  0  0  0  0  0  0
   -3.0808    1.7581  -18.8030 H   0  0  0  0  0  0  0  0  0  0  0  0
   -4.6576    0.6640  -17.2610 H   0  0  0  0  0  0  0  0  0  0  0  0
   -7.7575   -1.6746  -18.6402 H   0  0  0  0  0  0  0  0  0  0  0  0
   -7.5408   -2.6695  -21.4996 C   0  0  0  0  0  0  0  0  0  0  0  0
   -6.7325   -3.4980  -21.1377 O   0  0  0  0  0  0  0  0  0  0  0  0
   -8.7914   -2.9131  -22.3571 C   0  0  1  0  0  0  0  0  0  0  0  0
   -9.9652   -3.3882  -21.4742 C   0  0  0  0  0  0  0  0  0  0  0  0
  -11.0926   -3.8735  -22.2542 N   0  0  0  0  0  0  0  0  0  0  0  0
  -12.4501   -3.8175  -21.7246 C   0  0  0  0  0  0  0  0  0  0  0  0
  -13.3122   -2.6967  -22.2373 C   0  0  0  0  0  0  0  0  0  0  0  0
  -13.9921   -2.7350  -23.4629 C   0  0  0  0  0  0  0  0  0  0  0  0
  -14.7374   -1.6368  -23.5823 N   0  0  0  0  0  0  0  0  0  0  0  0
  -14.4648   -0.9812  -22.4738 N   0  0  0  0  0  0  0  0  0  0  0  0
  -13.6270   -1.5591  -21.6251 N   0  0  0  0  0  0  0  0  0  0  0  0
  -14.9477   -0.1247  -22.2259 H   0  0  0  0  0  0  0  0  0  0  0  0
  -13.9712   -3.5244  -24.1965 H   0  0  0  0  0  0  0  0  0  0  0  0
  -12.4473   -3.8551  -20.6329 H   0  0  0  0  0  0  0  0  0  0  0  0
  -12.9290   -4.7121  -22.1281 H   0  0  0  0  0  0  0  0  0  0  0  0
  -10.9459   -4.5711  -23.4200 C   0  0  0  0  0  0  0  0  0  0  0  0
  -11.9099   -4.9801  -24.0607 O   0  0  0  0  0  0  0  0  0  0  0  0
   -9.5491   -4.7782  -23.8798 C   0  0  0  0  0  0  0  0  0  0  0  0
   -9.2977   -5.7560  -24.8377 C   0  0  0  0  0  0  0  0  0  0  0  0
   -8.0412   -5.9018  -25.3914 C   0  0  0  0  0  0  0  0  0  0  0  0
   -7.0470   -5.0396  -24.9447 C   0  0  0  0  0  0  0  0  0  0  0  0
   -5.8317   -5.1261  -25.5047 F   0  0  0  0  0  0  0  0  0  0  0  0
   -7.2510   -4.0949  -23.9611 C   0  0  0  0  0  0  0  0  0  0  0  0
   -8.5232   -3.9623  -23.4016 C   0  0  0  0  0  0  0  0  0  0  0  0
   -6.4188   -3.4857  -23.6247 H   0  0  0  0  0  0  0  0  0  0  0  0
   -7.8155   -6.6484  -26.1486 H   0  0  0  0  0  0  0  0  0  0  0  0
  -10.1127   -6.3955  -25.1473 H   0  0  0  0  0  0  0  0  0  0  0  0
  -10.3063   -2.5310  -20.8897 H   0  0  0  0  0  0  0  0  0  0  0  0
   -9.6313   -4.1804  -20.8007 H   0  0  0  0  0  0  0  0  0  0  0  0
   -9.1925   -0.1453  -21.2073 H   0  0  0  0  0  0  0  0  0  0  0  0
   -7.9678    0.3516  -22.4065 H   0  0  0  0  0  0  0  0  0  0  0  0
   -8.4373   -1.4408  -23.8609 H   0  0  0  0  0  0  0  0  0  0  0  0
  -10.5726   -0.1976  -23.7876 H   0  0  0  0  0  0  0  0  0  0  0  0
  -10.9431   -1.9438  -23.8839 H   0  0  0  0  0  0  0  0  0  0  0  0
  -11.0795   -1.0995  -22.3438 H   0  0  0  0  0  0  0  0  0  0  0  0
  1  2  1  0
  2  3  1  0
  3  4  1  0
  4  5  1  0
  5  6  2  0
  6  7  1  0
  7  8  2  0
  8  9  1  0
  9 10  2  0
 10 11  1  0
 11 12  2  0
 12 13  1  0
 13 14  2  0
 13 15  1  0
 12 16  1  0
 11 17  1  0
 10 18  1  0
  8 19  1  0
  6 20  1  0
  4 21  1  0
 21 22  2  0
 21 23  1  0
 23 24  1  1
 24 25  1  0
 25 26  1  0
 26 27  1  0
 27 28  1  0
 28 29  2  0
 29 30  1  0
 30 31  1  0
 30 32  1  0
 28 33  1  0
 26 34  1  0
 26 35  1  0
 25 36  1  0
 36 37  2  0
 36 38  1  0
 38 39  2  0
 39 40  1  0
 40 41  2  0
 41 42  1  0
 41 43  1  0
 43 44  2  0
 43 45  1  0
 40 46  1  0
 39 47  1  0
 24 48  1  0
 24 49  1  0
  3 50  1  0
  3 51  1  0
  2 52  1  6
  1 53  1  0
  1 54  1  0
  1 55  1  0
 23  2  1  0
 31 27  2  0
 44 38  1  0
 14  5  1  0
 44 23  1  0
 14  9  1  0
M  END
>  <cnnaffinities>  (29) 
[6.8288, 6.75534]

>  <score>  (29) 
6.8288

>  <index>  (29) 
29

>  <Smiles>  (29) 
C([C@]1(C(N(c2c(nc(c3c(c(c(c(c23)[H])[H])[H])[H])[H])[H])C(=O)[C@]21C(N(C(c1c(nn(n1)[H])[H])([H])[H])C(=O)c1c(c(c(F)c(c21)[H])[H])[H])([H])[H])([H])[H])[H])([H])([H])[H]

>  <h>  (29) 
<NA>

>  <Training>  (29) 
True

>  <Success>  (29) 
True

>  <enamine_searched>  (29) 
False

>  <enamine_id>  (29) 
nan

$$$$

     RDKit          3D

 58 63  0  0  0  0  0  0  0  0999 V2000
   -8.3465   -4.3214  -23.5888 C   0  0  0  0  0  0  0  0  0  0  0  0
   -8.5488   -3.3698  -22.4158 C   0  0  1  0  0  0  0  0  0  0  0  0
   -7.2236   -2.6894  -22.0311 C   0  0  0  0  0  0  0  0  0  0  0  0
   -7.6605   -1.5344  -21.2672 N   0  0  0  0  0  0  0  0  0  0  0  0
   -6.8990   -0.8762  -20.2702 C   0  0  0  0  0  0  0  0  0  0  0  0
   -7.2877   -0.9315  -18.9526 C   0  0  0  0  0  0  0  0  0  0  0  0
   -6.5952   -0.3808  -17.9270 N   0  0  0  0  0  0  0  0  0  0  0  0
   -5.4890    0.2577  -18.2193 C   0  0  0  0  0  0  0  0  0  0  0  0
   -4.9900    0.4366  -19.5390 C   0  0  0  0  0  0  0  0  0  0  0  0
   -3.8164    1.1936  -19.8026 C   0  0  0  0  0  0  0  0  0  0  0  0
   -3.4202    1.4197  -21.0905 C   0  0  0  0  0  0  0  0  0  0  0  0
   -4.1561    0.8766  -22.1668 C   0  0  0  0  0  0  0  0  0  0  0  0
   -5.2599    0.0914  -21.9292 C   0  0  0  0  0  0  0  0  0  0  0  0
   -5.7153   -0.1420  -20.6071 C   0  0  0  0  0  0  0  0  0  0  0  0
   -5.8197   -0.3149  -22.7643 H   0  0  0  0  0  0  0  0  0  0  0  0
   -3.8987    1.1477  -23.1844 H   0  0  0  0  0  0  0  0  0  0  0  0
   -2.5499    2.0363  -21.2946 H   0  0  0  0  0  0  0  0  0  0  0  0
   -3.2722    1.6130  -18.9604 H   0  0  0  0  0  0  0  0  0  0  0  0
   -4.9353    0.6944  -17.3888 H   0  0  0  0  0  0  0  0  0  0  0  0
   -8.1978   -1.4596  -18.6778 H   0  0  0  0  0  0  0  0  0  0  0  0
   -8.9794   -1.1995  -21.5252 C   0  0  0  0  0  0  0  0  0  0  0  0
   -9.5625   -0.2686  -21.0167 O   0  0  0  0  0  0  0  0  0  0  0  0
   -9.5374   -2.1912  -22.5882 C   0  0  1  0  0  0  0  0  0  0  0  0
   -9.3906   -1.5150  -23.9737 C   0  0  0  0  0  0  0  0  0  0  0  0
  -10.2332   -0.3410  -24.0118 N   0  0  0  0  0  0  0  0  0  0  0  0
   -9.7619    0.8684  -24.6462 C   0  0  0  0  0  0  0  0  0  0  0  0
   -8.5279    1.5200  -24.0905 C   0  0  0  0  0  0  0  0  0  0  0  0
   -7.4073    1.7748  -24.8281 C   0  0  0  0  0  0  0  0  0  0  0  0
   -6.2605    2.4125  -24.2074 C   0  0  0  0  0  0  0  0  0  0  0  0
   -5.1719    2.6246  -24.7128 O   0  0  0  0  0  0  0  0  0  0  0  0
   -6.5249    2.7984  -22.8823 N   0  0  0  0  0  0  0  0  0  0  0  0
   -7.7269    2.6129  -22.2748 C   0  0  0  0  0  0  0  0  0  0  0  0
   -8.7288    2.0004  -22.8181 N   0  0  0  0  0  0  0  0  0  0  0  0
   -7.8342    3.0578  -21.2901 H   0  0  0  0  0  0  0  0  0  0  0  0
   -5.7309    3.1136  -22.3324 H   0  0  0  0  0  0  0  0  0  0  0  0
   -7.3220    1.5440  -25.8843 H   0  0  0  0  0  0  0  0  0  0  0  0
  -10.5147    1.5989  -24.3715 H   0  0  0  0  0  0  0  0  0  0  0  0
   -9.6883    0.7309  -25.7296 H   0  0  0  0  0  0  0  0  0  0  0  0
  -11.5758   -0.4364  -23.7562 C   0  0  0  0  0  0  0  0  0  0  0  0
  -12.3969    0.3864  -24.1352 O   0  0  0  0  0  0  0  0  0  0  0  0
  -11.9790   -1.6086  -22.9292 C   0  0  0  0  0  0  0  0  0  0  0  0
  -13.3401   -1.7090  -22.6363 C   0  0  0  0  0  0  0  0  0  0  0  0
  -13.7982   -2.6639  -21.7572 C   0  0  0  0  0  0  0  0  0  0  0  0
  -12.8515   -3.5174  -21.1988 C   0  0  0  0  0  0  0  0  0  0  0  0
  -13.2610   -4.3783  -20.2514 F   0  0  0  0  0  0  0  0  0  0  0  0
  -11.5025   -3.4661  -21.5144 C   0  0  0  0  0  0  0  0  0  0  0  0
  -11.0209   -2.4734  -22.3740 C   0  0  0  0  0  0  0  0  0  0  0  0
  -10.8371   -4.1490  -20.9981 H   0  0  0  0  0  0  0  0  0  0  0  0
  -14.8472   -2.7385  -21.4845 H   0  0  0  0  0  0  0  0  0  0  0  0
  -14.0106   -0.9775  -23.0793 H   0  0  0  0  0  0  0  0  0  0  0  0
   -9.6721   -2.2296  -24.7648 H   0  0  0  0  0  0  0  0  0  0  0  0
   -8.3611   -1.1924  -24.1577 H   0  0  0  0  0  0  0  0  0  0  0  0
   -6.5780   -3.3474  -21.4390 H   0  0  0  0  0  0  0  0  0  0  0  0
   -6.6692   -2.3846  -22.9383 H   0  0  0  0  0  0  0  0  0  0  0  0
   -8.8828   -3.9308  -21.5354 H   0  0  0  0  0  0  0  0  0  0  0  0
   -9.2541   -4.8825  -23.8325 H   0  0  0  0  0  0  0  0  0  0  0  0
   -8.0282   -3.7744  -24.4869 H   0  0  0  0  0  0  0  0  0  0  0  0
   -7.5498   -5.0364  -23.3461 H   0  0  0  0  0  0  0  0  0  0  0  0
  1  2  1  0
  2  3  1  0
  3  4  1  0
  4  5  1  0
  5  6  2  0
  6  7  1  0
  7  8  2  0
  8  9  1  0
  9 10  2  0
 10 11  1  0
 11 12  2  0
 12 13  1  0
 13 14  2  0
 13 15  1  0
 12 16  1  0
 11 17  1  0
 10 18  1  0
  8 19  1  0
  6 20  1  0
  4 21  1  0
 21 22  2  0
 21 23  1  0
 23 24  1  6
 24 25  1  0
 25 26  1  0
 26 27  1  0
 27 28  2  0
 28 29  1  0
 29 30  2  0
 29 31  1  0
 31 32  1  0
 32 33  2  0
 32 34  1  0
 31 35  1  0
 28 36  1  0
 26 37  1  0
 26 38  1  0
 25 39  1  0
 39 40  2  0
 39 41  1  0
 41 42  2  0
 42 43  1  0
 43 44  2  0
 44 45  1  0
 44 46  1  0
 46 47  2  0
 46 48  1  0
 43 49  1  0
 42 50  1  0
 24 51  1  0
 24 52  1  0
  3 53  1  0
  3 54  1  0
  2 55  1  1
  1 56  1  0
  1 57  1  0
  1 58  1  0
 23  2  1  0
 33 27  1  0
 47 41  1  0
 14  5  1  0
 47 23  1  0
 14  9  1  0
M  END
>  <cnnaffinities>  (30) 
[6.88091]

>  <score>  (30) 
6.88091

>  <index>  (30) 
30

>  <Smiles>  (30) 
C([C@]1(C(N(c2c(nc(c3c(c(c(c(c23)[H])[H])[H])[H])[H])[H])C(=O)[C@]21C(N(C(c1c(c(=O)n(c(n1)[H])[H])[H])([H])[H])C(=O)c1c(c(c(F)c(c21)[H])[H])[H])([H])[H])([H])[H])[H])([H])([H])[H]

>  <h>  (30) 
<NA>

>  <Training>  (30) 
True

>  <Success>  (30) 
True

>  <enamine_searched>  (30) 
False

>  <enamine_id>  (30) 
nan

$$$$

     RDKit          3D

 66 71  0  0  0  0  0  0  0  0999 V2000
   -7.8251   -6.0313  -26.6788 C   0  0  0  0  0  0  0  0  0  0  0  0
   -8.0215   -4.6167  -26.9517 N   0  0  0  0  0  0  0  0  0  0  0  0
   -7.0872   -3.7122  -26.5724 C   0  0  0  0  0  0  0  0  0  0  0  0
   -6.0498   -4.0125  -25.9916 O   0  0  0  0  0  0  0  0  0  0  0  0
   -7.4625   -2.2485  -26.8299 C   0  0  0  0  0  0  0  0  0  0  0  0
   -8.3672   -1.7736  -25.7861 N   0  0  0  0  0  0  0  0  0  0  0  0
   -7.8352   -1.3124  -24.5110 C   0  0  0  0  0  0  0  0  0  0  0  0
   -8.7413   -1.5756  -23.2647 C   0  0  2  0  0  0  0  0  0  0  0  0
   -8.2212   -0.6072  -22.1924 C   0  0  0  0  0  0  0  0  0  0  0  0
   -8.4224    0.5851  -22.1209 O   0  0  0  0  0  0  0  0  0  0  0  0
   -7.3838   -1.3104  -21.3424 N   0  0  0  0  0  0  0  0  0  0  0  0
   -6.6253   -0.7134  -20.3066 C   0  0  0  0  0  0  0  0  0  0  0  0
   -6.9598   -0.9599  -18.9989 C   0  0  0  0  0  0  0  0  0  0  0  0
   -6.3029   -0.4566  -17.9270 N   0  0  0  0  0  0  0  0  0  0  0  0
   -5.2459    0.2808  -18.1634 C   0  0  0  0  0  0  0  0  0  0  0  0
   -4.7561    0.5799  -19.4656 C   0  0  0  0  0  0  0  0  0  0  0  0
   -3.5913    1.3695  -19.6601 C   0  0  0  0  0  0  0  0  0  0  0  0
   -3.1354    1.6283  -20.9230 C   0  0  0  0  0  0  0  0  0  0  0  0
   -3.8109    1.1021  -22.0470 C   0  0  0  0  0  0  0  0  0  0  0  0
   -4.9398    0.3380  -21.8830 C   0  0  0  0  0  0  0  0  0  0  0  0
   -5.4531    0.0662  -20.5832 C   0  0  0  0  0  0  0  0  0  0  0  0
   -5.4460   -0.0695  -22.7531 H   0  0  0  0  0  0  0  0  0  0  0  0
   -3.4360    1.3126  -23.0446 H   0  0  0  0  0  0  0  0  0  0  0  0
   -2.2552    2.2471  -21.0700 H   0  0  0  0  0  0  0  0  0  0  0  0
   -3.0854    1.7685  -18.7843 H   0  0  0  0  0  0  0  0  0  0  0  0
   -4.7170    0.6757  -17.2968 H   0  0  0  0  0  0  0  0  0  0  0  0
   -7.8267   -1.5833  -18.7796 H   0  0  0  0  0  0  0  0  0  0  0  0
   -7.3179   -2.7343  -21.6035 C   0  0  0  0  0  0  0  0  0  0  0  0
   -8.5188   -2.9376  -22.5342 C   0  0  2  0  0  0  0  0  0  0  0  0
   -8.4539   -4.1315  -23.4820 C   0  0  0  0  0  0  0  0  0  0  0  0
   -8.3848   -5.4377  -22.8499 N   0  0  0  0  0  0  0  0  0  0  0  0
   -7.2002   -5.9506  -22.3996 C   0  0  0  0  0  0  0  0  0  0  0  0
   -5.9791   -5.6687  -23.0419 C   0  0  0  0  0  0  0  0  0  0  0  0
   -4.8508   -6.1664  -22.4175 C   0  0  0  0  0  0  0  0  0  0  0  0
   -4.8779   -6.8843  -21.2866 N   0  0  0  0  0  0  0  0  0  0  0  0
   -6.0911   -7.1373  -20.8199 C   0  0  0  0  0  0  0  0  0  0  0  0
   -7.2582   -6.7640  -21.3347 N   0  0  0  0  0  0  0  0  0  0  0  0
   -6.1419   -7.7019  -19.8883 H   0  0  0  0  0  0  0  0  0  0  0  0
   -3.8589   -5.9678  -22.8202 H   0  0  0  0  0  0  0  0  0  0  0  0
   -5.9324   -5.1029  -23.9772 H   0  0  0  0  0  0  0  0  0  0  0  0
   -9.1613   -5.6571  -22.2420 H   0  0  0  0  0  0  0  0  0  0  0  0
   -9.3600   -4.1214  -24.0939 H   0  0  0  0  0  0  0  0  0  0  0  0
   -7.5971   -4.0258  -24.1424 H   0  0  0  0  0  0  0  0  0  0  0  0
   -9.3966   -3.0815  -21.8826 H   0  0  0  0  0  0  0  0  0  0  0  0
   -7.4098   -3.2785  -20.6608 H   0  0  0  0  0  0  0  0  0  0  0  0
   -6.3520   -3.0193  -22.0579 H   0  0  0  0  0  0  0  0  0  0  0  0
  -10.2022   -1.4108  -23.6154 C   0  0  0  0  0  0  0  0  0  0  0  0
  -11.1762   -1.3058  -22.6085 C   0  0  0  0  0  0  0  0  0  0  0  0
  -12.5165   -1.3140  -22.9648 C   0  0  0  0  0  0  0  0  0  0  0  0
  -13.7546   -1.3606  -21.7486 Cl  0  0  0  0  0  0  0  0  0  0  0  0
  -12.9358   -1.3935  -24.2918 C   0  0  0  0  0  0  0  0  0  0  0  0
  -11.9762   -1.5044  -25.2724 C   0  0  0  0  0  0  0  0  0  0  0  0
  -10.6286   -1.5555  -24.9399 C   0  0  0  0  0  0  0  0  0  0  0  0
   -9.6916   -1.9349  -26.0331 C   0  0  0  0  0  0  0  0  0  0  0  0
  -10.0901   -2.4286  -27.0903 O   0  0  0  0  0  0  0  0  0  0  0  0
  -12.2191   -1.6193  -26.3221 H   0  0  0  0  0  0  0  0  0  0  0  0
  -14.0008   -1.4467  -24.4932 H   0  0  0  0  0  0  0  0  0  0  0  0
  -10.9005   -1.2644  -21.5553 H   0  0  0  0  0  0  0  0  0  0  0  0
   -7.6718   -0.2289  -24.5494 H   0  0  0  0  0  0  0  0  0  0  0  0
   -6.8579   -1.7967  -24.3699 H   0  0  0  0  0  0  0  0  0  0  0  0
   -6.5522   -1.6465  -26.8688 H   0  0  0  0  0  0  0  0  0  0  0  0
   -7.9945   -2.1701  -27.7797 H   0  0  0  0  0  0  0  0  0  0  0  0
   -8.9230   -4.2759  -27.2658 H   0  0  0  0  0  0  0  0  0  0  0  0
   -7.5709   -6.1964  -25.6219 H   0  0  0  0  0  0  0  0  0  0  0  0
   -8.7418   -6.5752  -26.9186 H   0  0  0  0  0  0  0  0  0  0  0  0
   -7.0072   -6.4326  -27.2848 H   0  0  0  0  0  0  0  0  0  0  0  0
  1  2  1  0
  2  3  1  0
  3  4  2  0
  3  5  1  0
  5  6  1  0
  6  7  1  0
  8  7  1  6
  8  9  1  0
  9 10  2  0
  9 11  1  0
 11 12  1  0
 12 13  2  0
 13 14  1  0
 14 15  2  0
 15 16  1  0
 16 17  2  0
 17 18  1  0
 18 19  2  0
 19 20  1  0
 20 21  2  0
 20 22  1  0
 19 23  1  0
 18 24  1  0
 17 25  1  0
 15 26  1  0
 13 27  1  0
 11 28  1  0
 28 29  1  0
 29 30  1  0
 30 31  1  0
 31 32  1  0
 32 33  2  0
 33 34  1  0
 34 35  2  0
 35 36  1  0
 36 37  2  0
 36 38  1  0
 34 39  1  0
 33 40  1  0
 31 41  1  0
 30 42  1  0
 30 43  1  0
 29 44  1  1
 28 45  1  0
 28 46  1  0
  8 47  1  0
 47 48  2  0
 48 49  1  0
 49 50  1  0
 49 51  2  0
 51 52  1  0
 52 53  2  0
 53 54  1  0
 54 55  2  0
 52 56  1  0
 51 57  1  0
 48 58  1  0
  7 59  1  0
  7 60  1  0
  5 61  1  0
  5 62  1  0
  2 63  1  0
  1 64  1  0
  1 65  1  0
  1 66  1  0
 54  6  1  0
 29  8  1  0
 37 32  1  0
 53 47  1  0
 21 12  1  0
 21 16  1  0
M  END
>  <cnnaffinities>  (31) 
[6.47576]

>  <score>  (31) 
6.47576

>  <index>  (31) 
31

>  <Smiles>  (31) 
C(N(C(=O)C(N1C([C@@]2(C(=O)N(c3c(nc(c4c(c(c(c(c34)[H])[H])[H])[H])[H])[H])C([C@@]2(C(N(c2c(c(nc(n2)[H])[H])[H])[H])([H])[H])[H])([H])[H])c2c(c(Cl)c(c(c2C1=O)[H])[H])[H])([H])[H])([H])[H])[H])([H])([H])[H]

>  <h>  (31) 
<NA>

>  <Training>  (31) 
True

>  <Success>  (31) 
True

>  <enamine_searched>  (31) 
False

>  <enamine_id>  (31) 
nan

$$$$

     RDKit          3D

 57 62  0  0  0  0  0  0  0  0999 V2000
  -10.0374   -2.7494  -22.3270 C   0  0  0  0  0  0  0  0  0  0  0  0
   -8.8907   -1.8881  -22.8699 C   0  0  1  0  0  0  0  0  0  0  0  0
   -8.5174   -0.8042  -21.8308 C   0  0  0  0  0  0  0  0  0  0  0  0
   -7.3706   -1.3833  -21.1517 N   0  0  0  0  0  0  0  0  0  0  0  0
   -6.6307   -0.7177  -20.1402 C   0  0  0  0  0  0  0  0  0  0  0  0
   -7.0024   -0.8180  -18.8272 C   0  0  0  0  0  0  0  0  0  0  0  0
   -6.3191   -0.2561  -17.7990 N   0  0  0  0  0  0  0  0  0  0  0  0
   -5.2274    0.4118  -18.0864 C   0  0  0  0  0  0  0  0  0  0  0  0
   -4.7394    0.6061  -19.4102 C   0  0  0  0  0  0  0  0  0  0  0  0
   -3.5815    1.3801  -19.6862 C   0  0  0  0  0  0  0  0  0  0  0  0
   -3.1792    1.5895  -20.9764 C   0  0  0  0  0  0  0  0  0  0  0  0
   -3.8980    1.0188  -22.0513 C   0  0  0  0  0  0  0  0  0  0  0  0
   -5.0036    0.2495  -21.8141 C   0  0  0  0  0  0  0  0  0  0  0  0
   -5.4594    0.0312  -20.4776 C   0  0  0  0  0  0  0  0  0  0  0  0
   -5.5358   -0.1997  -22.6518 H   0  0  0  0  0  0  0  0  0  0  0  0
   -3.5758    1.2058  -23.0733 H   0  0  0  0  0  0  0  0  0  0  0  0
   -2.3225    2.2218  -21.1866 H   0  0  0  0  0  0  0  0  0  0  0  0
   -3.0423    1.8239  -18.8531 H   0  0  0  0  0  0  0  0  0  0  0  0
   -4.6734    0.8409  -17.2493 H   0  0  0  0  0  0  0  0  0  0  0  0
   -7.8819   -1.4010  -18.5550 H   0  0  0  0  0  0  0  0  0  0  0  0
   -6.7339   -2.3632  -21.8854 C   0  0  0  0  0  0  0  0  0  0  0  0
   -5.7115   -2.9129  -21.5378 O   0  0  0  0  0  0  0  0  0  0  0  0
   -7.5507   -2.6555  -23.1554 C   0  0  1  0  0  0  0  0  0  0  0  0
   -7.7226   -4.1866  -23.2685 C   0  0  0  0  0  0  0  0  0  0  0  0
   -6.5016   -4.8561  -23.6848 N   0  0  0  0  0  0  0  0  0  0  0  0
   -6.2986   -6.1901  -23.1574 C   0  0  0  0  0  0  0  0  0  0  0  0
   -7.3986   -7.1193  -23.5569 C   0  0  0  0  0  0  0  0  0  0  0  0
   -8.2201   -7.6850  -22.7039 N   0  0  0  0  0  0  0  0  0  0  0  0
   -9.0721   -8.4208  -23.4421 N   0  0  0  0  0  0  0  0  0  0  0  0
   -8.7961   -8.3343  -24.6902 N   0  0  0  0  0  0  0  0  0  0  0  0
   -7.7385   -7.5164  -24.7959 N   0  0  0  0  0  0  0  0  0  0  0  0
   -7.1943   -7.1617  -26.0871 C   0  0  0  0  0  0  0  0  0  0  0  0
   -7.9509   -7.3872  -26.8363 H   0  0  0  0  0  0  0  0  0  0  0  0
   -6.2772   -7.7177  -26.2924 H   0  0  0  0  0  0  0  0  0  0  0  0
   -7.0037   -6.0896  -26.0968 H   0  0  0  0  0  0  0  0  0  0  0  0
   -6.3095   -6.1163  -22.0636 H   0  0  0  0  0  0  0  0  0  0  0  0
   -5.3213   -6.5462  -23.4947 H   0  0  0  0  0  0  0  0  0  0  0  0
   -5.7801   -4.4205  -24.7518 C   0  0  0  0  0  0  0  0  0  0  0  0
   -4.9505   -5.1140  -25.3242 O   0  0  0  0  0  0  0  0  0  0  0  0
   -6.0869   -3.0290  -25.2083 C   0  0  0  0  0  0  0  0  0  0  0  0
   -5.5610   -2.6363  -26.4383 C   0  0  0  0  0  0  0  0  0  0  0  0
   -5.7165   -1.3441  -26.8956 C   0  0  0  0  0  0  0  0  0  0  0  0
   -6.3984   -0.4572  -26.0709 C   0  0  0  0  0  0  0  0  0  0  0  0
   -6.5163    0.8173  -26.4837 F   0  0  0  0  0  0  0  0  0  0  0  0
   -6.9713   -0.8316  -24.8653 C   0  0  0  0  0  0  0  0  0  0  0  0
   -6.8565   -2.1594  -24.4254 C   0  0  0  0  0  0  0  0  0  0  0  0
   -7.5193   -0.0798  -24.3042 H   0  0  0  0  0  0  0  0  0  0  0  0
   -5.3107   -1.0079  -27.8454 H   0  0  0  0  0  0  0  0  0  0  0  0
   -5.0308   -3.3870  -27.0129 H   0  0  0  0  0  0  0  0  0  0  0  0
   -7.9966   -4.5952  -22.2964 H   0  0  0  0  0  0  0  0  0  0  0  0
   -8.5374   -4.4006  -23.9706 H   0  0  0  0  0  0  0  0  0  0  0  0
   -8.2695    0.1594  -22.3042 H   0  0  0  0  0  0  0  0  0  0  0  0
   -9.3243   -0.6097  -21.1163 H   0  0  0  0  0  0  0  0  0  0  0  0
   -9.2417   -1.4338  -23.8022 H   0  0  0  0  0  0  0  0  0  0  0  0
  -10.9175   -2.1284  -22.1244 H   0  0  0  0  0  0  0  0  0  0  0  0
  -10.3380   -3.5180  -23.0434 H   0  0  0  0  0  0  0  0  0  0  0  0
   -9.7561   -3.2448  -21.3921 H   0  0  0  0  0  0  0  0  0  0  0  0
  1  2  1  0
  2  3  1  0
  3  4  1  0
  4  5  1  0
  5  6  2  0
  6  7  1  0
  7  8  2  0
  8  9  1  0
  9 10  2  0
 10 11  1  0
 11 12  2  0
 12 13  1  0
 13 14  2  0
 13 15  1  0
 12 16  1  0
 11 17  1  0
 10 18  1  0
  8 19  1  0
  6 20  1  0
  4 21  1  0
 21 22  2  0
 21 23  1  0
 23 24  1  6
 24 25  1  0
 25 26  1  0
 26 27  1  0
 27 28  2  0
 28 29  1  0
 29 30  2  0
 30 31  1  0
 31 32  1  0
 32 33  1  0
 32 34  1  0
 32 35  1  0
 26 36  1  0
 26 37  1  0
 25 38  1  0
 38 39  2  0
 38 40  1  0
 40 41  2  0
 41 42  1  0
 42 43  2  0
 43 44  1  0
 43 45  1  0
 45 46  2  0
 45 47  1  0
 42 48  1  0
 41 49  1  0
 24 50  1  0
 24 51  1  0
  3 52  1  0
  3 53  1  0
  2 54  1  6
  1 55  1  0
  1 56  1  0
  1 57  1  0
 23  2  1  0
 31 27  1  0
 46 40  1  0
 14  5  1  0
 46 23  1  0
 14  9  1  0
M  END
>  <cnnaffinities>  (32) 
[6.32165, 6.73236, 6.17796, 6.26576]

>  <score>  (32) 
6.32165

>  <index>  (32) 
32

>  <Smiles>  (32) 
C([C@]1(C(N(c2c(nc(c3c(c(c(c(c23)[H])[H])[H])[H])[H])[H])C(=O)[C@]21C(N(C(c1nnnn1C([H])([H])[H])([H])[H])C(=O)c1c(c(c(F)c(c21)[H])[H])[H])([H])[H])([H])[H])[H])([H])([H])[H]

>  <h>  (32) 
<NA>

>  <Training>  (32) 
True

>  <Success>  (32) 
True

>  <enamine_searched>  (32) 
False

>  <enamine_id>  (32) 
nan

$$$$

     RDKit          3D

 66 70  0  0  0  0  0  0  0  0999 V2000
   -7.7271   -0.2497  -29.8105 C   0  0  0  0  0  0  0  0  0  0  0  0
   -7.9668   -1.2757  -28.8231 N   0  0  0  0  0  0  0  0  0  0  0  0
   -7.1532   -1.3528  -27.7339 C   0  0  0  0  0  0  0  0  0  0  0  0
   -6.1910   -0.6291  -27.5415 O   0  0  0  0  0  0  0  0  0  0  0  0
   -7.5406   -2.4461  -26.7353 C   0  0  0  0  0  0  0  0  0  0  0  0
   -8.4306   -1.9341  -25.7055 N   0  0  0  0  0  0  0  0  0  0  0  0
   -7.9043   -1.2466  -24.5358 C   0  0  0  0  0  0  0  0  0  0  0  0
   -8.7388   -1.5511  -23.2651 C   0  0  2  0  0  0  0  0  0  0  0  0
   -8.2444   -0.5798  -22.1800 C   0  0  0  0  0  0  0  0  0  0  0  0
   -8.4775    0.6058  -22.0958 O   0  0  0  0  0  0  0  0  0  0  0  0
   -7.4181   -1.2795  -21.3189 N   0  0  0  0  0  0  0  0  0  0  0  0
   -6.6418   -0.6841  -20.2899 C   0  0  0  0  0  0  0  0  0  0  0  0
   -6.9564   -0.9478  -18.9820 C   0  0  0  0  0  0  0  0  0  0  0  0
   -6.2857   -0.4572  -17.9138 N   0  0  0  0  0  0  0  0  0  0  0  0
   -5.2324    0.2837  -18.1520 C   0  0  0  0  0  0  0  0  0  0  0  0
   -4.7523    0.5906  -19.4553 C   0  0  0  0  0  0  0  0  0  0  0  0
   -3.5873    1.3781  -19.6563 C   0  0  0  0  0  0  0  0  0  0  0  0
   -3.1363    1.6344  -20.9209 C   0  0  0  0  0  0  0  0  0  0  0  0
   -3.8179    1.1042  -22.0389 C   0  0  0  0  0  0  0  0  0  0  0  0
   -4.9473    0.3429  -21.8693 C   0  0  0  0  0  0  0  0  0  0  0  0
   -5.4607    0.0826  -20.5689 C   0  0  0  0  0  0  0  0  0  0  0  0
   -5.4540   -0.0731  -22.7347 H   0  0  0  0  0  0  0  0  0  0  0  0
   -3.4480    1.3108  -23.0383 H   0  0  0  0  0  0  0  0  0  0  0  0
   -2.2577    2.2544  -21.0752 H   0  0  0  0  0  0  0  0  0  0  0  0
   -3.0746    1.7787  -18.7861 H   0  0  0  0  0  0  0  0  0  0  0  0
   -4.6994    0.6685  -17.2841 H   0  0  0  0  0  0  0  0  0  0  0  0
   -7.8132   -1.5825  -18.7580 H   0  0  0  0  0  0  0  0  0  0  0  0
   -7.3002   -2.6947  -21.6130 C   0  0  0  0  0  0  0  0  0  0  0  0
   -8.4379   -2.9407  -22.6098 C   0  0  2  0  0  0  0  0  0  0  0  0
   -8.1771   -4.0813  -23.5859 C   0  0  0  0  0  0  0  0  0  0  0  0
   -7.7700   -5.2365  -22.8825 O   0  0  0  0  0  0  0  0  0  0  0  0
   -7.4698   -6.3175  -23.7554 C   0  0  0  0  0  0  0  0  0  0  0  0
   -6.5466   -7.2536  -22.9953 C   0  0  0  0  0  0  0  0  0  0  0  0
   -5.5723   -6.7860  -22.8243 H   0  0  0  0  0  0  0  0  0  0  0  0
   -6.9945   -7.5104  -22.0292 H   0  0  0  0  0  0  0  0  0  0  0  0
   -6.3724   -8.1713  -23.5629 H   0  0  0  0  0  0  0  0  0  0  0  0
   -8.7421   -7.0119  -24.2366 C   0  0  0  0  0  0  0  0  0  0  0  0
   -9.0730   -7.7650  -23.5096 H   0  0  0  0  0  0  0  0  0  0  0  0
   -8.5639   -7.5078  -25.1945 H   0  0  0  0  0  0  0  0  0  0  0  0
   -9.5298   -6.2709  -24.3990 H   0  0  0  0  0  0  0  0  0  0  0  0
   -6.9261   -5.9232  -24.6318 H   0  0  0  0  0  0  0  0  0  0  0  0
   -9.0954   -4.2642  -24.1631 H   0  0  0  0  0  0  0  0  0  0  0  0
   -7.4027   -3.8090  -24.3146 H   0  0  0  0  0  0  0  0  0  0  0  0
   -9.3314   -3.2143  -22.0320 H   0  0  0  0  0  0  0  0  0  0  0  0
   -7.4322   -3.2761  -20.6991 H   0  0  0  0  0  0  0  0  0  0  0  0
   -6.3069   -2.9404  -22.0212 H   0  0  0  0  0  0  0  0  0  0  0  0
  -10.2101   -1.3940  -23.5983 C   0  0  0  0  0  0  0  0  0  0  0  0
  -11.1700   -1.3197  -22.5784 C   0  0  0  0  0  0  0  0  0  0  0  0
  -12.5175   -1.3117  -22.9072 C   0  0  0  0  0  0  0  0  0  0  0  0
  -13.7423   -1.3417  -21.6779 Cl  0  0  0  0  0  0  0  0  0  0  0  0
  -12.9574   -1.3948  -24.2264 C   0  0  0  0  0  0  0  0  0  0  0  0
  -12.0141   -1.4858  -25.2231 C   0  0  0  0  0  0  0  0  0  0  0  0
  -10.6615   -1.4959  -24.9189 C   0  0  0  0  0  0  0  0  0  0  0  0
   -9.7387   -1.7956  -26.0453 C   0  0  0  0  0  0  0  0  0  0  0  0
  -10.1455   -1.9685  -27.1955 O   0  0  0  0  0  0  0  0  0  0  0  0
  -12.2741   -1.6159  -26.2654 H   0  0  0  0  0  0  0  0  0  0  0  0
  -14.0230   -1.4469  -24.4246 H   0  0  0  0  0  0  0  0  0  0  0  0
  -10.8640   -1.3208  -21.5345 H   0  0  0  0  0  0  0  0  0  0  0  0
   -6.8581   -1.5461  -24.3843 H   0  0  0  0  0  0  0  0  0  0  0  0
   -7.9298   -0.1575  -24.6862 H   0  0  0  0  0  0  0  0  0  0  0  0
   -8.0638   -3.2602  -27.2478 H   0  0  0  0  0  0  0  0  0  0  0  0
   -6.6234   -2.8301  -26.2752 H   0  0  0  0  0  0  0  0  0  0  0  0
   -8.9195   -1.5993  -28.6844 H   0  0  0  0  0  0  0  0  0  0  0  0
   -6.6936   -0.3215  -30.1549 H   0  0  0  0  0  0  0  0  0  0  0  0
   -7.8816    0.7584  -29.4082 H   0  0  0  0  0  0  0  0  0  0  0  0
   -8.3959   -0.4146  -30.6583 H   0  0  0  0  0  0  0  0  0  0  0  0
  1  2  1  0
  2  3  1  0
  3  4  2  0
  3  5  1  0
  5  6  1  0
  6  7  1  0
  8  7  1  6
  8  9  1  0
  9 10  2  0
  9 11  1  0
 11 12  1  0
 12 13  2  0
 13 14  1  0
 14 15  2  0
 15 16  1  0
 16 17  2  0
 17 18  1  0
 18 19  2  0
 19 20  1  0
 20 21  2  0
 20 22  1  0
 19 23  1  0
 18 24  1  0
 17 25  1  0
 15 26  1  0
 13 27  1  0
 11 28  1  0
 28 29  1  0
 29 30  1  0
 30 31  1  0
 31 32  1  0
 32 33  1  0
 33 34  1  0
 33 35  1  0
 33 36  1  0
 32 37  1  0
 37 38  1  0
 37 39  1  0
 37 40  1  0
 32 41  1  0
 30 42  1  0
 30 43  1  0
 29 44  1  1
 28 45  1  0
 28 46  1  0
  8 47  1  0
 47 48  2  0
 48 49  1  0
 49 50  1  0
 49 51  2  0
 51 52  1  0
 52 53  2  0
 53 54  1  0
 54 55  2  0
 52 56  1  0
 51 57  1  0
 48 58  1  0
  7 59  1  0
  7 60  1  0
  5 61  1  0
  5 62  1  0
  2 63  1  0
  1 64  1  0
  1 65  1  0
  1 66  1  0
 54  6  1  0
 29  8  1  0
 53 47  1  0
 21 12  1  0
 21 16  1  0
M  END
>  <cnnaffinities>  (33) 
[6.4931, 6.53442, 6.54014, 6.61844, 6.61222]

>  <score>  (33) 
6.4931

>  <index>  (33) 
34

>  <Smiles>  (33) 
C(N(C(=O)C(N1C([C@@]2(C(=O)N(c3c(nc(c4c(c(c(c(c34)[H])[H])[H])[H])[H])[H])C([C@@]2(C(OC(C([H])([H])[H])(C([H])([H])[H])[H])([H])[H])[H])([H])[H])c2c(c(Cl)c(c(c2C1=O)[H])[H])[H])([H])[H])([H])[H])[H])([H])([H])[H]

>  <h>  (33) 
<NA>

>  <Training>  (33) 
True

>  <Success>  (33) 
True

>  <enamine_searched>  (33) 
False

>  <enamine_id>  (33) 
nan

$$$$

     RDKit          3D

 40 42  0  0  0  0  0  0  0  0999 V2000
   -9.0764   -1.8550  -22.7562 O   0  0  0  0  0  0  0  0  0  0  0  0
   -8.1600   -1.0872  -22.4767 C   0  0  0  0  0  0  0  0  0  0  0  0
   -6.7762   -1.5910  -22.0890 C   0  0  0  0  0  0  0  0  0  0  0  0
   -6.2463   -0.8947  -20.8485 C   0  0  0  0  0  0  0  0  0  0  0  0
   -6.9612   -0.9723  -19.6793 C   0  0  0  0  0  0  0  0  0  0  0  0
   -6.6364   -0.3647  -18.5114 N   0  0  0  0  0  0  0  0  0  0  0  0
   -5.5543    0.3779  -18.5071 C   0  0  0  0  0  0  0  0  0  0  0  0
   -4.7092    0.5590  -19.6343 C   0  0  0  0  0  0  0  0  0  0  0  0
   -3.5672    1.4039  -19.6015 C   0  0  0  0  0  0  0  0  0  0  0  0
   -2.8112    1.5993  -20.7259 C   0  0  0  0  0  0  0  0  0  0  0  0
   -3.1648    0.9696  -21.9384 C   0  0  0  0  0  0  0  0  0  0  0  0
   -4.2639    0.1436  -21.9916 C   0  0  0  0  0  0  0  0  0  0  0  0
   -5.0576   -0.1001  -20.8425 C   0  0  0  0  0  0  0  0  0  0  0  0
   -4.5593   -0.2800  -22.9470 H   0  0  0  0  0  0  0  0  0  0  0  0
   -2.5822    1.1586  -22.8364 H   0  0  0  0  0  0  0  0  0  0  0  0
   -1.9482    2.2599  -20.7022 H   0  0  0  0  0  0  0  0  0  0  0  0
   -3.3280    1.9229  -18.6750 H   0  0  0  0  0  0  0  0  0  0  0  0
   -5.3091    0.8857  -17.5743 H   0  0  0  0  0  0  0  0  0  0  0  0
   -7.8747   -1.5676  -19.6498 H   0  0  0  0  0  0  0  0  0  0  0  0
   -6.0961   -1.4943  -22.9386 H   0  0  0  0  0  0  0  0  0  0  0  0
   -6.9020   -2.6626  -21.9143 H   0  0  0  0  0  0  0  0  0  0  0  0
   -8.2513    0.2717  -22.4342 N   0  0  0  0  0  0  0  0  0  0  0  0
   -9.4398    1.0310  -21.9863 C   0  0  0  0  0  0  0  0  0  0  0  0
   -9.4622    0.8688  -21.8193 C   0  0  0  0  0  0  0  0  0  0  0  0
   -9.0955    2.8694  -23.6497 C   0  0  0  0  0  0  0  0  0  0  0  0
   -8.5436    5.5779  -23.0357 C   0  0  0  0  0  0  0  0  0  0  0  0
   -8.1610    5.3330  -21.7996 F   0  0  0  0  0  0  0  0  0  0  0  0
   -7.5577    6.0825  -23.7477 F   0  0  0  0  0  0  0  0  0  0  0  0
   -9.6023    6.3602  -23.0635 F   0  0  0  0  0  0  0  0  0  0  0  0
   -7.8438    2.4305  -23.6944 C   0  0  0  0  0  0  0  0  0  0  0  0
   -7.2928    1.1393  -23.1781 C   0  0  0  0  0  0  0  0  0  0  0  0
   -6.8865    0.5644  -24.0118 H   0  0  0  0  0  0  0  0  0  0  0  0
   -6.4616    1.4103  -22.5252 H   0  0  0  0  0  0  0  0  0  0  0  0
   -7.0682    3.0766  -24.1054 H   0  0  0  0  0  0  0  0  0  0  0  0
   -9.9126    2.1940  -23.5316 H   0  0  0  0  0  0  0  0  0  0  0  0
   -9.2698    3.9385  -23.7785 H   0  0  0  0  0  0  0  0  0  0  0  0
   -8.7370    1.8469  -21.3943 H   0  0  0  0  0  0  0  0  0  0  0  0
  -10.3684    1.7831  -21.7238 H   0  0  0  0  0  0  0  0  0  0  0  0
  -10.1733    0.5705  -22.8439 H   0  0  0  0  0  0  0  0  0  0  0  0
   -9.8858   -0.0804  -20.6556 H   0  0  0  0  0  0  0  0  0  0  0  0
  1  2  2  0
  2  3  1  0
  3  4  1  0
  4  5  2  0
  5  6  1  0
  6  7  2  0
  7  8  1  0
  8  9  2  0
  9 10  1  0
 10 11  2  0
 11 12  1  0
 12 13  2  0
 12 14  1  0
 11 15  1  0
 10 16  1  0
  9 17  1  0
  7 18  1  0
  5 19  1  0
  3 20  1  0
  3 21  1  0
  2 22  1  0
 22 23  1  0
 23 24  1  0
 24 25  1  0
 25 26  1  0
 26 27  1  0
 26 28  1  0
 26 29  1  0
 25 30  1  0
 30 31  1  0
 31 32  1  0
 31 33  1  0
 30 34  1  0
 30 35  1  0
 25 36  1  0
 24 37  1  0
 24 38  1  0
 23 39  1  0
 23 40  1  0
 13  4  1  0
 31 22  1  0
 13  8  1  0
M  END
>  <cnnaffinities>  (34) 
[4.8821]

>  <score>  (34) 
4.8821

>  <index>  (34) 
35

>  <Smiles>  (34) 
O=C(C(c1c(nc(c2c(c(c(c(c12)[H])[H])[H])[H])[H])[H])([H])[H])N1C(C(C(C(F)(F)F)(C(C1([H])[H])([H])[H])[H])([H])[H])([H])[H]

>  <h>  (34) 
<NA>

>  <Training>  (34) 
True

>  <Success>  (34) 
True

>  <enamine_searched>  (34) 
False

>  <enamine_id>  (34) 
nan

$$$$

     RDKit          3D

 47 50  0  0  0  0  0  0  0  0999 V2000
   -8.6895    0.6148  -21.3232 O   0  0  0  0  0  0  0  0  0  0  0  0
   -8.4194   -0.4165  -21.9176 C   0  0  0  0  0  0  0  0  0  0  0  0
   -7.4214   -1.4238  -21.2958 C   0  0  0  0  0  0  0  0  0  0  0  0
   -6.5821   -0.8211  -20.1980 C   0  0  0  0  0  0  0  0  0  0  0  0
   -6.8882   -1.0221  -18.8790 C   0  0  0  0  0  0  0  0  0  0  0  0
   -6.2108   -0.4983  -17.8248 N   0  0  0  0  0  0  0  0  0  0  0  0
   -5.1615    0.2351  -18.0831 C   0  0  0  0  0  0  0  0  0  0  0  0
   -4.7193    0.5355  -19.3969 C   0  0  0  0  0  0  0  0  0  0  0  0
   -3.5922    1.3593  -19.6301 C   0  0  0  0  0  0  0  0  0  0  0  0
   -3.2049    1.6514  -20.9039 C   0  0  0  0  0  0  0  0  0  0  0  0
   -3.9335    1.1226  -21.9973 C   0  0  0  0  0  0  0  0  0  0  0  0
   -5.0287    0.3205  -21.8049 C   0  0  0  0  0  0  0  0  0  0  0  0
   -5.4534    0.0044  -20.4892 C   0  0  0  0  0  0  0  0  0  0  0  0
   -5.5723   -0.0715  -22.6677 H   0  0  0  0  0  0  0  0  0  0  0  0
   -3.6201    1.3649  -23.0054 H   0  0  0  0  0  0  0  0  0  0  0  0
   -2.3522    2.2990  -21.0894 H   0  0  0  0  0  0  0  0  0  0  0  0
   -3.0642    1.7689  -18.7707 H   0  0  0  0  0  0  0  0  0  0  0  0
   -4.6078    0.6253  -17.2253 H   0  0  0  0  0  0  0  0  0  0  0  0
   -7.7271   -1.6530  -18.5868 H   0  0  0  0  0  0  0  0  0  0  0  0
   -6.7886   -1.8935  -22.0572 H   0  0  0  0  0  0  0  0  0  0  0  0
   -8.0313   -2.2291  -20.8643 H   0  0  0  0  0  0  0  0  0  0  0  0
   -9.0583   -0.7447  -23.0975 N   0  0  0  0  0  0  0  0  0  0  0  0
  -10.0999    0.2025  -23.5149 C   0  0  0  0  0  0  0  0  0  0  0  0
  -11.1021   -0.4410  -24.4655 C   0  0  0  0  0  0  0  0  0  0  0  0
  -10.3499   -1.0265  -25.6681 C   0  0  0  0  0  0  0  0  0  0  0  0
   -9.5172   -2.1799  -25.1199 C   0  0  0  0  0  0  0  0  0  0  0  0
   -8.5107   -1.7328  -24.0362 C   0  0  1  0  0  0  0  0  0  0  0  0
   -7.1781   -1.3036  -24.6554 C   0  0  0  0  0  0  0  0  0  0  0  0
   -6.1548   -2.2448  -24.7875 C   0  0  0  0  0  0  0  0  0  0  0  0
   -4.9324   -1.9040  -25.3585 C   0  0  0  0  0  0  0  0  0  0  0  0
   -4.7200   -0.6099  -25.8251 C   0  0  0  0  0  0  0  0  0  0  0  0
   -5.7469    0.3258  -25.7269 C   0  0  0  0  0  0  0  0  0  0  0  0
   -6.9663   -0.0188  -25.1512 C   0  0  0  0  0  0  0  0  0  0  0  0
   -7.7578    0.7248  -25.1020 H   0  0  0  0  0  0  0  0  0  0  0  0
   -5.6037    1.3372  -26.0944 H   0  0  0  0  0  0  0  0  0  0  0  0
   -3.7629   -0.3285  -26.2565 H   0  0  0  0  0  0  0  0  0  0  0  0
   -4.1425   -2.6458  -25.4262 H   0  0  0  0  0  0  0  0  0  0  0  0
   -6.3118   -3.2630  -24.4359 H   0  0  0  0  0  0  0  0  0  0  0  0
   -8.3018   -2.6249  -23.4362 H   0  0  0  0  0  0  0  0  0  0  0  0
   -8.9593   -2.7033  -25.9074 H   0  0  0  0  0  0  0  0  0  0  0  0
  -10.2134   -2.9047  -24.6861 H   0  0  0  0  0  0  0  0  0  0  0  0
   -9.6524   -0.3234  -26.1468 H   0  0  0  0  0  0  0  0  0  0  0  0
  -11.0369   -1.3706  -26.4484 H   0  0  0  0  0  0  0  0  0  0  0  0
  -11.9154    0.2567  -24.6935 H   0  0  0  0  0  0  0  0  0  0  0  0
  -11.5895   -1.2810  -23.9427 H   0  0  0  0  0  0  0  0  0  0  0  0
  -10.5945    0.5387  -22.6062 H   0  0  0  0  0  0  0  0  0  0  0  0
   -9.6432    1.1120  -23.9412 H   0  0  0  0  0  0  0  0  0  0  0  0
  1  2  2  0
  2  3  1  0
  3  4  1  0
  4  5  2  0
  5  6  1  0
  6  7  2  0
  7  8  1  0
  8  9  2  0
  9 10  1  0
 10 11  2  0
 11 12  1  0
 12 13  2  0
 12 14  1  0
 11 15  1  0
 10 16  1  0
  9 17  1  0
  7 18  1  0
  5 19  1  0
  3 20  1  0
  3 21  1  0
  2 22  1  0
 22 23  1  0
 23 24  1  0
 24 25  1  0
 25 26  1  0
 26 27  1  0
 27 28  1  0
 28 29  2  0
 29 30  1  0
 30 31  2  0
 31 32  1  0
 32 33  2  0
 33 34  1  0
 32 35  1  0
 31 36  1  0
 30 37  1  0
 29 38  1  0
 27 39  1  1
 26 40  1  0
 26 41  1  0
 25 42  1  0
 25 43  1  0
 24 44  1  0
 24 45  1  0
 23 46  1  0
 23 47  1  0
 13  4  1  0
 27 22  1  0
 33 28  1  0
 13  8  1  0
M  END
>  <cnnaffinities>  (35) 
[5.07556, 5.07618, 5.69222, 5.68892, 5.56949, 5.56828]

>  <score>  (35) 
5.07556

>  <index>  (35) 
36

>  <Smiles>  (35) 
O=C(C(c1c(nc(c2c(c(c(c(c12)[H])[H])[H])[H])[H])[H])([H])[H])N1C(C(C(C([C@]1(c1c(c(c(c(c1[H])[H])[H])[H])[H])[H])([H])[H])([H])[H])([H])[H])([H])[H]

>  <h>  (35) 
<NA>

>  <Training>  (35) 
True

>  <Success>  (35) 
True

>  <enamine_searched>  (35) 
False

>  <enamine_id>  (35) 
nan

$$$$

     RDKit          3D

 56 60  0  0  0  0  0  0  0  0999 V2000
  -14.4923   -1.5582  -23.7449 C   0  0  0  0  0  0  0  0  0  0  0  0
  -13.7558   -2.7116  -23.2764 N   0  0  0  0  0  0  0  0  0  0  0  0
  -13.3557   -2.7281  -21.9806 C   0  0  0  0  0  0  0  0  0  0  0  0
  -13.7165   -1.8929  -21.1667 O   0  0  0  0  0  0  0  0  0  0  0  0
  -12.4580   -3.9071  -21.6566 C   0  0  0  0  0  0  0  0  0  0  0  0
  -11.1355   -3.8496  -22.2544 N   0  0  0  0  0  0  0  0  0  0  0  0
  -10.0048   -3.3713  -21.4668 C   0  0  0  0  0  0  0  0  0  0  0  0
   -8.8107   -2.9160  -22.3407 C   0  0  2  0  0  0  0  0  0  0  0  0
   -7.5542   -2.6754  -21.4823 C   0  0  0  0  0  0  0  0  0  0  0  0
   -6.7422   -3.5042  -21.1296 O   0  0  0  0  0  0  0  0  0  0  0  0
   -7.4361   -1.3258  -21.2323 N   0  0  0  0  0  0  0  0  0  0  0  0
   -6.5996   -0.8197  -20.2086 C   0  0  0  0  0  0  0  0  0  0  0  0
   -6.9115   -1.0475  -18.8943 C   0  0  0  0  0  0  0  0  0  0  0  0
   -6.2458   -0.4993  -17.8487 N   0  0  0  0  0  0  0  0  0  0  0  0
   -5.2047    0.2486  -18.1093 C   0  0  0  0  0  0  0  0  0  0  0  0
   -4.7495    0.5360  -19.4263 C   0  0  0  0  0  0  0  0  0  0  0  0
   -3.6113    1.3474  -19.6593 C   0  0  0  0  0  0  0  0  0  0  0  0
   -3.2038    1.6130  -20.9360 C   0  0  0  0  0  0  0  0  0  0  0  0
   -3.9095    1.0745  -22.0339 C   0  0  0  0  0  0  0  0  0  0  0  0
   -5.0142    0.2820  -21.8359 C   0  0  0  0  0  0  0  0  0  0  0  0
   -5.4666   -0.0022  -20.5191 C   0  0  0  0  0  0  0  0  0  0  0  0
   -5.5397   -0.1420  -22.6859 H   0  0  0  0  0  0  0  0  0  0  0  0
   -3.5766    1.2995  -23.0426 H   0  0  0  0  0  0  0  0  0  0  0  0
   -2.3459    2.2544  -21.1126 H   0  0  0  0  0  0  0  0  0  0  0  0
   -3.0866    1.7561  -18.8008 H   0  0  0  0  0  0  0  0  0  0  0  0
   -4.6527    0.6598  -17.2602 H   0  0  0  0  0  0  0  0  0  0  0  0
   -7.7545   -1.6844  -18.6363 H   0  0  0  0  0  0  0  0  0  0  0  0
   -8.4264   -0.5163  -21.9118 C   0  0  0  0  0  0  0  0  0  0  0  0
   -9.0416   -1.4838  -22.9342 C   0  0  2  0  0  0  0  0  0  0  0  0
  -10.4878   -1.1460  -23.2706 C   0  0  0  0  0  0  0  0  0  0  0  0
  -10.9108   -1.9152  -23.9232 H   0  0  0  0  0  0  0  0  0  0  0  0
  -10.5591   -0.1760  -23.7695 H   0  0  0  0  0  0  0  0  0  0  0  0
  -11.0954   -1.1107  -22.3579 H   0  0  0  0  0  0  0  0  0  0  0  0
   -8.4317   -1.4480  -23.8484 H   0  0  0  0  0  0  0  0  0  0  0  0
   -9.1836   -0.1418  -21.2050 H   0  0  0  0  0  0  0  0  0  0  0  0
   -7.9616    0.3455  -22.4050 H   0  0  0  0  0  0  0  0  0  0  0  0
   -8.5492   -3.9687  -23.3872 C   0  0  0  0  0  0  0  0  0  0  0  0
   -7.2780   -4.1111  -23.9471 C   0  0  0  0  0  0  0  0  0  0  0  0
   -7.0446   -5.0485  -24.9357 C   0  0  0  0  0  0  0  0  0  0  0  0
   -8.0677   -5.8869  -25.3720 C   0  0  0  0  0  0  0  0  0  0  0  0
   -9.3331   -5.7481  -24.8320 C   0  0  0  0  0  0  0  0  0  0  0  0
   -9.5849   -4.7662  -23.8769 C   0  0  0  0  0  0  0  0  0  0  0  0
  -10.9824   -4.5390  -23.4169 C   0  0  0  0  0  0  0  0  0  0  0  0
  -11.9592   -4.9261  -24.0678 O   0  0  0  0  0  0  0  0  0  0  0  0
  -10.1474   -6.3915  -25.1399 H   0  0  0  0  0  0  0  0  0  0  0  0
   -7.8729   -6.6287  -26.1409 H   0  0  0  0  0  0  0  0  0  0  0  0
   -6.0645   -5.1039  -25.3910 H   0  0  0  0  0  0  0  0  0  0  0  0
   -6.4630   -3.4882  -23.5946 H   0  0  0  0  0  0  0  0  0  0  0  0
  -10.3431   -2.5117  -20.8781 H   0  0  0  0  0  0  0  0  0  0  0  0
   -9.6947   -4.1780  -20.7994 H   0  0  0  0  0  0  0  0  0  0  0  0
  -12.4235   -4.0533  -20.5790 H   0  0  0  0  0  0  0  0  0  0  0  0
  -12.9483   -4.7461  -22.1481 H   0  0  0  0  0  0  0  0  0  0  0  0
  -13.4773   -3.4708  -23.8931 H   0  0  0  0  0  0  0  0  0  0  0  0
  -13.8699   -0.6522  -23.7388 H   0  0  0  0  0  0  0  0  0  0  0  0
  -15.3441   -1.3713  -23.0849 H   0  0  0  0  0  0  0  0  0  0  0  0
  -14.8515   -1.7229  -24.7620 H   0  0  0  0  0  0  0  0  0  0  0  0
  1  2  1  0
  2  3  1  0
  3  4  2  0
  3  5  1  0
  5  6  1  0
  6  7  1  0
  8  7  1  1
  8  9  1  0
  9 10  2  0
  9 11  1  0
 11 12  1  0
 12 13  2  0
 13 14  1  0
 14 15  2  0
 15 16  1  0
 16 17  2  0
 17 18  1  0
 18 19  2  0
 19 20  1  0
 20 21  2  0
 20 22  1  0
 19 23  1  0
 18 24  1  0
 17 25  1  0
 15 26  1  0
 13 27  1  0
 11 28  1  0
 28 29  1  0
 29 30  1  0
 30 31  1  0
 30 32  1  0
 30 33  1  0
 29 34  1  6
 28 35  1  0
 28 36  1  0
  8 37  1  0
 37 38  2  0
 38 39  1  0
 39 40  2  0
 40 41  1  0
 41 42  2  0
 42 43  1  0
 43 44  2  0
 41 45  1  0
 40 46  1  0
 39 47  1  0
 38 48  1  0
  7 49  1  0
  7 50  1  0
  5 51  1  0
  5 52  1  0
  2 53  1  0
  1 54  1  0
  1 55  1  0
  1 56  1  0
 43  6  1  0
 29  8  1  0
 42 37  1  0
 21 12  1  0
 21 16  1  0
M  END
>  <cnnaffinities>  (36) 
[6.35422, 5.98316]

>  <score>  (36) 
6.35422

>  <index>  (36) 
37

>  <Smiles>  (36) 
C(N(C(=O)C(N1C([C@@]2(C(=O)N(c3c(nc(c4c(c(c(c(c34)[H])[H])[H])[H])[H])[H])C([C@@]2(C([H])([H])[H])[H])([H])[H])c2c(c(c(c(c2C1=O)[H])[H])[H])[H])([H])[H])([H])[H])[H])([H])([H])[H]

>  <h>  (36) 
<NA>

>  <Training>  (36) 
True

>  <Success>  (36) 
True

>  <enamine_searched>  (36) 
False

>  <enamine_id>  (36) 
nan

$$$$

     RDKit          3D

 46 48  0  0  0  0  0  0  0  0999 V2000
   -8.1582   -4.6949  -26.5425 C   0  0  0  0  0  0  0  0  0  0  0  0
   -8.6538   -4.9600  -25.1187 C   0  0  1  0  0  0  0  0  0  0  0  0
   -7.5895   -5.5251  -24.1814 C   0  0  0  0  0  0  0  0  0  0  0  0
   -6.6147   -4.5190  -23.5533 C   0  0  1  0  0  0  0  0  0  0  0  0
   -5.4119   -4.1595  -24.4399 C   0  0  0  0  0  0  0  0  0  0  0  0
   -4.6075   -3.7382  -23.8291 H   0  0  0  0  0  0  0  0  0  0  0  0
   -5.6633   -3.4319  -25.2146 H   0  0  0  0  0  0  0  0  0  0  0  0
   -5.0164   -5.0546  -24.9374 H   0  0  0  0  0  0  0  0  0  0  0  0
   -7.3251   -3.3386  -23.0136 N   0  0  0  0  0  0  0  0  0  0  0  0
   -6.7238   -2.7043  -21.9380 C   0  0  0  0  0  0  0  0  0  0  0  0
   -5.6765   -3.1176  -21.4665 O   0  0  0  0  0  0  0  0  0  0  0  0
   -7.4080   -1.4717  -21.2838 C   0  0  0  0  0  0  0  0  0  0  0  0
   -6.5768   -0.8352  -20.1917 C   0  0  0  0  0  0  0  0  0  0  0  0
   -6.8746   -1.0415  -18.8717 C   0  0  0  0  0  0  0  0  0  0  0  0
   -6.1983   -0.5149  -17.8169 N   0  0  0  0  0  0  0  0  0  0  0  0
   -5.1559    0.2309  -18.0744 C   0  0  0  0  0  0  0  0  0  0  0  0
   -4.7162    0.5307  -19.3876 C   0  0  0  0  0  0  0  0  0  0  0  0
   -3.5888    1.3564  -19.6261 C   0  0  0  0  0  0  0  0  0  0  0  0
   -3.1901    1.6341  -20.9044 C   0  0  0  0  0  0  0  0  0  0  0  0
   -3.9041    1.0915  -21.9951 C   0  0  0  0  0  0  0  0  0  0  0  0
   -4.9998    0.2898  -21.7887 C   0  0  0  0  0  0  0  0  0  0  0  0
   -5.4439   -0.0136  -20.4772 C   0  0  0  0  0  0  0  0  0  0  0  0
   -5.5349   -0.1227  -22.6381 H   0  0  0  0  0  0  0  0  0  0  0  0
   -3.5816    1.3181  -23.0060 H   0  0  0  0  0  0  0  0  0  0  0  0
   -2.3311    2.2743  -21.0880 H   0  0  0  0  0  0  0  0  0  0  0  0
   -3.0564    1.7728  -18.7738 H   0  0  0  0  0  0  0  0  0  0  0  0
   -4.6028    0.6283  -17.2188 H   0  0  0  0  0  0  0  0  0  0  0  0
   -7.7178   -1.6690  -18.5859 H   0  0  0  0  0  0  0  0  0  0  0  0
   -7.6720   -0.7137  -22.0331 H   0  0  0  0  0  0  0  0  0  0  0  0
   -8.3593   -1.8082  -20.8481 H   0  0  0  0  0  0  0  0  0  0  0  0
   -8.4101   -2.7195  -23.7938 C   0  0  1  0  0  0  0  0  0  0  0  0
   -7.9394   -1.6592  -24.8006 C   0  0  0  0  0  0  0  0  0  0  0  0
   -7.4435   -2.0879  -25.6755 H   0  0  0  0  0  0  0  0  0  0  0  0
   -8.7984   -1.0845  -25.1705 H   0  0  0  0  0  0  0  0  0  0  0  0
   -7.2437   -0.9496  -24.3427 H   0  0  0  0  0  0  0  0  0  0  0  0
   -9.3296   -3.7775  -24.4248 C   0  0  0  0  0  0  0  0  0  0  0  0
   -9.9792   -4.1698  -23.6353 H   0  0  0  0  0  0  0  0  0  0  0  0
   -9.9957   -3.2775  -25.1357 H   0  0  0  0  0  0  0  0  0  0  0  0
   -9.0328   -2.1949  -23.0633 H   0  0  0  0  0  0  0  0  0  0  0  0
   -6.1940   -5.0184  -22.6791 H   0  0  0  0  0  0  0  0  0  0  0  0
   -8.0923   -6.0555  -23.3654 H   0  0  0  0  0  0  0  0  0  0  0  0
   -7.0110   -6.2880  -24.7142 H   0  0  0  0  0  0  0  0  0  0  0  0
   -9.4274   -5.7358  -25.2237 H   0  0  0  0  0  0  0  0  0  0  0  0
   -7.9238   -5.6405  -27.0467 H   0  0  0  0  0  0  0  0  0  0  0  0
   -8.9305   -4.1942  -27.1378 H   0  0  0  0  0  0  0  0  0  0  0  0
   -7.2551   -4.0807  -26.5813 H   0  0  0  0  0  0  0  0  0  0  0  0
  1  2  1  0
  2  3  1  0
  3  4  1  0
  4  5  1  0
  5  6  1  0
  5  7  1  0
  5  8  1  0
  4  9  1  0
  9 10  1  0
 10 11  2  0
 10 12  1  0
 12 13  1  0
 13 14  2  0
 14 15  1  0
 15 16  2  0
 16 17  1  0
 17 18  2  0
 18 19  1  0
 19 20  2  0
 20 21  1  0
 21 22  2  0
 21 23  1  0
 20 24  1  0
 19 25  1  0
 18 26  1  0
 16 27  1  0
 14 28  1  0
 12 29  1  0
 12 30  1  0
  9 31  1  0
 31 32  1  0
 32 33  1  0
 32 34  1  0
 32 35  1  0
 31 36  1  0
 36 37  1  0
 36 38  1  0
 31 39  1  1
  4 40  1  1
  3 41  1  0
  3 42  1  0
  2 43  1  6
  1 44  1  0
  1 45  1  0
  1 46  1  0
 36  2  1  0
 22 13  1  0
 22 17  1  0
M  END
>  <cnnaffinities>  (37) 
[5.23914]

>  <score>  (37) 
5.23914

>  <index>  (37) 
38

>  <Smiles>  (37) 
C([C@]1(C([C@@](C([H])([H])[H])(N(C(=O)C(c2c(nc(c3c(c(c(c(c23)[H])[H])[H])[H])[H])[H])([H])[H])[C@@](C([H])([H])[H])(C1([H])[H])[H])[H])([H])[H])[H])([H])([H])[H]

>  <h>  (37) 
<NA>

>  <Training>  (37) 
True

>  <Success>  (37) 
True

>  <enamine_searched>  (37) 
False

>  <enamine_id>  (37) 
nan

$$$$

     RDKit          3D

 40 44  0  0  0  0  0  0  0  0999 V2000
   -7.2405    0.9281  -25.5989 C   0  0  0  0  0  0  0  0  0  0  0  0
   -6.5123   -0.3944  -25.4058 C   0  0  0  0  0  0  0  0  0  0  0  0
   -5.3001   -0.5078  -25.5326 O   0  0  0  0  0  0  0  0  0  0  0  0
   -7.2738   -1.4755  -25.0824 N   0  0  0  0  0  0  0  0  0  0  0  0
   -6.6401   -2.7667  -24.7373 C   0  0  0  0  0  0  0  0  0  0  0  0
   -7.8130   -3.4853  -24.0478 C   0  0  2  0  0  0  0  0  0  0  0  0
   -9.0053   -2.9600  -24.8646 C   0  0  0  0  0  0  0  0  0  0  0  0
   -8.6638   -1.4863  -24.5591 C   0  0  1  0  0  0  0  0  0  0  0  0
   -8.5696   -1.5540  -23.0896 C   0  0  0  0  0  0  0  0  0  0  0  0
   -8.1690   -0.6102  -22.0874 C   0  0  0  0  0  0  0  0  0  0  0  0
   -8.3487    0.5802  -21.9911 O   0  0  0  0  0  1  0  0  0  0  0  0
   -7.4019   -1.3875  -21.1871 N   0  0  0  0  0  0  0  0  0  0  0  0
   -6.5794   -0.8211  -20.1807 C   0  0  0  0  0  0  0  0  0  0  0  0
   -6.8972   -1.0390  -18.8678 C   0  0  0  0  0  0  0  0  0  0  0  0
   -6.2160   -0.5047  -17.8294 N   0  0  0  0  0  0  0  0  0  0  0  0
   -5.1716    0.2347  -18.0957 C   0  0  0  0  0  0  0  0  0  0  0  0
   -4.7212    0.5303  -19.4104 C   0  0  0  0  0  0  0  0  0  0  0  0
   -3.5845    1.3510  -19.6401 C   0  0  0  0  0  0  0  0  0  0  0  0
   -3.1756    1.6240  -20.9156 C   0  0  0  0  0  0  0  0  0  0  0  0
   -3.8790    1.0718  -22.0124 C   0  0  0  0  0  0  0  0  0  0  0  0
   -4.9743    0.2686  -21.8147 C   0  0  0  0  0  0  0  0  0  0  0  0
   -5.4410   -0.0102  -20.4988 C   0  0  0  0  0  0  0  0  0  0  0  0
   -5.4883   -0.1517  -22.6770 H   0  0  0  0  0  0  0  0  0  0  0  0
   -3.5604    1.2935  -23.0263 H   0  0  0  0  0  0  0  0  0  0  0  0
   -2.3210    2.2728  -21.0929 H   0  0  0  0  0  0  0  0  0  0  0  0
   -3.0707    1.7674  -18.7782 H   0  0  0  0  0  0  0  0  0  0  0  0
   -4.6250    0.6277  -17.2393 H   0  0  0  0  0  0  0  0  0  0  0  0
   -7.7372   -1.6749  -18.6040 H   0  0  0  0  0  0  0  0  0  0  0  0
   -7.2386   -2.6983  -21.6499 C   0  0  0  0  0  0  0  0  0  0  0  0
   -6.4854   -3.5296  -21.2056 O   0  0  0  0  0  0  0  0  0  0  0  0
   -8.0681   -2.7874  -22.7642 N   0  0  0  0  0  0  0  0  0  0  0  0
   -9.2820   -0.6913  -24.9849 H   0  0  0  0  0  0  0  0  0  0  0  0
   -9.9668   -3.2769  -24.4635 H   0  0  0  0  0  0  0  0  0  0  0  0
   -8.9259   -3.1969  -25.9295 H   0  0  0  0  0  0  0  0  0  0  0  0
   -7.7007   -4.5527  -23.9050 H   0  0  0  0  0  0  0  0  0  0  0  0
   -5.7905   -2.6275  -24.0593 H   0  0  0  0  0  0  0  0  0  0  0  0
   -6.2961   -3.2674  -25.6444 H   0  0  0  0  0  0  0  0  0  0  0  0
   -6.4885    1.6574  -25.9043 H   0  0  0  0  0  0  0  0  0  0  0  0
   -7.7262    1.2542  -24.6711 H   0  0  0  0  0  0  0  0  0  0  0  0
   -8.0217    0.8628  -26.3669 H   0  0  0  0  0  0  0  0  0  0  0  0
  1  2  1  0
  2  3  2  0
  2  4  1  0
  4  5  1  0
  5  6  1  0
  6  7  1  0
  7  8  1  0
  8  9  1  0
  9 10  2  0
 10 11  1  0
 10 12  1  0
 12 13  1  0
 13 14  2  0
 14 15  1  0
 15 16  2  0
 16 17  1  0
 17 18  2  0
 18 19  1  0
 19 20  2  0
 20 21  1  0
 21 22  2  0
 21 23  1  0
 20 24  1  0
 19 25  1  0
 18 26  1  0
 16 27  1  0
 14 28  1  0
 12 29  1  0
 29 30  2  0
 29 31  1  0
  8 32  1  1
  7 33  1  0
  7 34  1  0
  6 35  1  1
  5 36  1  0
  5 37  1  0
  1 38  1  0
  1 39  1  0
  1 40  1  0
  8  4  1  0
 31  9  1  0
 31  6  1  0
 22 13  1  0
 22 17  1  0
M  CHG  1  11  -1
M  END
>  <cnnaffinities>  (38) 
[5.34285]

>  <score>  (38) 
5.34285

>  <index>  (38) 
39

>  <Smiles>  (38) 
C(C(=O)N1C([C@@]2(C([C@]1(c1c([O-])n(c3c(nc(c4c(c(c(c(c34)[H])[H])[H])[H])[H])[H])c(=O)n21)[H])([H])[H])[H])([H])[H])([H])([H])[H]

>  <h>  (38) 
<NA>

>  <Training>  (38) 
True

>  <Success>  (38) 
True

>  <enamine_searched>  (38) 
False

>  <enamine_id>  (38) 
nan

$$$$

     RDKit          3D

 40 42  0  0  0  0  0  0  0  0999 V2000
   -6.4971    1.4268  -26.8582 C   0  0  0  0  0  0  0  0  0  0  0  0
   -7.5014    1.0192  -25.7825 C   0  0  0  0  0  0  0  0  0  0  0  0
   -7.3103   -0.4348  -25.3653 C   0  0  0  0  0  0  0  0  0  0  0  0
   -8.2785   -0.8311  -24.2613 C   0  0  0  0  0  0  0  0  0  0  0  0
   -8.1762    0.0878  -23.1321 N   0  0  0  0  0  0  0  0  0  0  0  0
   -8.3764   -0.3123  -21.8079 C   0  0  0  0  0  0  0  0  0  0  0  0
   -9.1754    0.2290  -21.0753 O   0  0  0  0  0  0  0  0  0  0  0  0
   -7.4442   -1.4128  -21.2751 C   0  0  0  0  0  0  0  0  0  0  0  0
   -6.5692   -0.8352  -20.1824 C   0  0  0  0  0  0  0  0  0  0  0  0
   -6.8790   -1.0333  -18.8637 C   0  0  0  0  0  0  0  0  0  0  0  0
   -6.2000   -0.5061  -17.8125 N   0  0  0  0  0  0  0  0  0  0  0  0
   -5.1534    0.2325  -18.0745 C   0  0  0  0  0  0  0  0  0  0  0  0
   -4.7166    0.5354  -19.3883 C   0  0  0  0  0  0  0  0  0  0  0  0
   -3.5957    1.3681  -19.6268 C   0  0  0  0  0  0  0  0  0  0  0  0
   -3.2092    1.6631  -20.9047 C   0  0  0  0  0  0  0  0  0  0  0  0
   -3.9312    1.1288  -21.9959 C   0  0  0  0  0  0  0  0  0  0  0  0
   -5.0182    0.3167  -21.7881 C   0  0  0  0  0  0  0  0  0  0  0  0
   -5.4479   -0.0022  -20.4757 C   0  0  0  0  0  0  0  0  0  0  0  0
   -5.5538   -0.0867  -22.6393 H   0  0  0  0  0  0  0  0  0  0  0  0
   -3.6173    1.3681  -23.0068 H   0  0  0  0  0  0  0  0  0  0  0  0
   -2.3583    2.3129  -21.0859 H   0  0  0  0  0  0  0  0  0  0  0  0
   -3.0629    1.7809  -18.7737 H   0  0  0  0  0  0  0  0  0  0  0  0
   -4.6016    0.6282  -17.2190 H   0  0  0  0  0  0  0  0  0  0  0  0
   -7.7256   -1.6576  -18.5811 H   0  0  0  0  0  0  0  0  0  0  0  0
   -8.0694   -2.2038  -20.8448 H   0  0  0  0  0  0  0  0  0  0  0  0
   -6.8340   -1.8495  -22.0749 H   0  0  0  0  0  0  0  0  0  0  0  0
   -8.3909    1.4919  -23.4641 C   0  0  0  0  0  0  0  0  0  0  0  0
   -7.4155    1.9214  -24.5562 C   0  0  0  0  0  0  0  0  0  0  0  0
   -7.6019    2.9620  -24.8415 H   0  0  0  0  0  0  0  0  0  0  0  0
   -6.3939    1.8969  -24.1548 H   0  0  0  0  0  0  0  0  0  0  0  0
   -9.4241    1.6918  -23.7876 H   0  0  0  0  0  0  0  0  0  0  0  0
   -8.2313    2.0726  -22.5557 H   0  0  0  0  0  0  0  0  0  0  0  0
   -8.0800   -1.8414  -23.9076 H   0  0  0  0  0  0  0  0  0  0  0  0
   -9.3014   -0.8425  -24.6785 H   0  0  0  0  0  0  0  0  0  0  0  0
   -7.4344   -1.0948  -26.2312 H   0  0  0  0  0  0  0  0  0  0  0  0
   -6.2850   -0.5782  -25.0067 H   0  0  0  0  0  0  0  0  0  0  0  0
   -8.5123    1.1201  -26.2015 H   0  0  0  0  0  0  0  0  0  0  0  0
   -5.4705    1.3392  -26.4822 H   0  0  0  0  0  0  0  0  0  0  0  0
   -6.5764    0.7869  -27.7446 H   0  0  0  0  0  0  0  0  0  0  0  0
   -6.6432    2.4658  -27.1750 H   0  0  0  0  0  0  0  0  0  0  0  0
  1  2  1  0
  2  3  1  0
  3  4  1  0
  4  5  1  0
  5  6  1  0
  6  7  2  0
  6  8  1  0
  8  9  1  0
  9 10  2  0
 10 11  1  0
 11 12  2  0
 12 13  1  0
 13 14  2  0
 14 15  1  0
 15 16  2  0
 16 17  1  0
 17 18  2  0
 17 19  1  0
 16 20  1  0
 15 21  1  0
 14 22  1  0
 12 23  1  0
 10 24  1  0
  8 25  1  0
  8 26  1  0
  5 27  1  0
 27 28  1  0
 28 29  1  0
 28 30  1  0
 27 31  1  0
 27 32  1  0
  4 33  1  0
  4 34  1  0
  3 35  1  0
  3 36  1  0
  2 37  1  0
  1 38  1  0
  1 39  1  0
  1 40  1  0
 28  2  1  0
 18  9  1  0
 18 13  1  0
M  END
>  <cnnaffinities>  (39) 
[4.67769, 4.67766, 4.24862, 4.24841, 5.0218]

>  <score>  (39) 
4.67769

>  <index>  (39) 
40

>  <Smiles>  (39) 
C(C1(C(C(N(C(=O)C(c2c(nc(c3c(c(c(c(c23)[H])[H])[H])[H])[H])[H])([H])[H])C(C1([H])[H])([H])[H])([H])[H])([H])[H])[H])([H])([H])[H]

>  <h>  (39) 
<NA>

>  <Training>  (39) 
True

>  <Success>  (39) 
True

>  <enamine_searched>  (39) 
False

>  <enamine_id>  (39) 
nan

$$$$

     RDKit          3D

 67 71  0  0  0  0  0  0  0  0999 V2000
   -7.5640    3.0449  -21.8329 C   0  0  0  0  0  0  0  0  0  0  0  0
   -8.7129    2.5155  -22.5483 N   0  0  0  0  0  0  0  0  0  0  0  0
   -8.4573    1.6974  -23.6054 C   0  0  0  0  0  0  0  0  0  0  0  0
   -7.3208    1.4077  -23.9473 O   0  0  0  0  0  0  0  0  0  0  0  0
   -9.6701    1.1818  -24.3587 C   0  0  0  0  0  0  0  0  0  0  0  0
  -10.1090   -0.0849  -23.8343 N   0  0  0  0  0  0  0  0  0  0  0  0
   -9.2311   -1.2405  -23.8687 C   0  0  0  0  0  0  0  0  0  0  0  0
   -9.2955   -1.9930  -22.5144 C   0  0  2  0  0  0  0  0  0  0  0  0
   -8.6991   -1.0498  -21.4352 C   0  0  0  0  0  0  0  0  0  0  0  0
   -9.2354   -0.0785  -20.9433 O   0  0  0  0  0  0  0  0  0  0  0  0
   -7.4000   -1.4488  -21.1774 N   0  0  0  0  0  0  0  0  0  0  0  0
   -6.6134   -0.8293  -20.1781 C   0  0  0  0  0  0  0  0  0  0  0  0
   -6.9458   -1.0078  -18.8582 C   0  0  0  0  0  0  0  0  0  0  0  0
   -6.2543   -0.4818  -17.8252 N   0  0  0  0  0  0  0  0  0  0  0  0
   -5.1941    0.2351  -18.1041 C   0  0  0  0  0  0  0  0  0  0  0  0
   -4.7484    0.5143  -19.4244 C   0  0  0  0  0  0  0  0  0  0  0  0
   -3.6230    1.3452  -19.6635 C   0  0  0  0  0  0  0  0  0  0  0  0
   -3.2477    1.6499  -20.9435 C   0  0  0  0  0  0  0  0  0  0  0  0
   -3.9801    1.1385  -22.0360 C   0  0  0  0  0  0  0  0  0  0  0  0
   -5.0737    0.3260  -21.8302 C   0  0  0  0  0  0  0  0  0  0  0  0
   -5.4792   -0.0227  -20.5107 C   0  0  0  0  0  0  0  0  0  0  0  0
   -5.6648    0.0154  -22.6856 H   0  0  0  0  0  0  0  0  0  0  0  0
   -3.6853    1.4014  -23.0481 H   0  0  0  0  0  0  0  0  0  0  0  0
   -2.3977    2.3019  -21.1213 H   0  0  0  0  0  0  0  0  0  0  0  0
   -3.0891    1.7471  -18.8072 H   0  0  0  0  0  0  0  0  0  0  0  0
   -4.6311    0.6425  -17.2640 H   0  0  0  0  0  0  0  0  0  0  0  0
   -7.8068   -1.6208  -18.6018 H   0  0  0  0  0  0  0  0  0  0  0  0
   -6.9665   -2.5855  -21.9647 C   0  0  0  0  0  0  0  0  0  0  0  0
   -8.3042   -3.1881  -22.4408 C   0  0  2  0  0  0  0  0  0  0  0  0
   -8.1992   -3.9858  -23.7371 C   0  0  0  0  0  0  0  0  0  0  0  0
   -7.2582   -5.4870  -23.5173 S   0  0  0  0  0  0  0  0  0  0  0  0
   -5.8575   -5.1300  -23.3474 O   0  0  0  0  0  0  0  0  0  0  0  0
   -7.9271   -6.3058  -22.5151 O   0  0  0  0  0  0  0  0  0  0  0  0
   -7.4273   -6.2324  -24.9924 N   0  0  0  0  0  0  0  0  0  0  0  0
   -8.6733   -6.9412  -25.2550 C   0  0  0  0  0  0  0  0  0  0  0  0
   -9.5150   -6.2888  -25.5426 H   0  0  0  0  0  0  0  0  0  0  0  0
   -8.4934   -7.6409  -26.0765 H   0  0  0  0  0  0  0  0  0  0  0  0
   -8.9418   -7.5096  -24.3624 H   0  0  0  0  0  0  0  0  0  0  0  0
   -6.7541   -5.6416  -26.1428 C   0  0  0  0  0  0  0  0  0  0  0  0
   -7.2917   -4.7905  -26.5943 H   0  0  0  0  0  0  0  0  0  0  0  0
   -6.6587   -6.4186  -26.9070 H   0  0  0  0  0  0  0  0  0  0  0  0
   -5.7518   -5.3240  -25.8461 H   0  0  0  0  0  0  0  0  0  0  0  0
   -9.1962   -4.2692  -24.0921 H   0  0  0  0  0  0  0  0  0  0  0  0
   -7.7028   -3.3980  -24.5179 H   0  0  0  0  0  0  0  0  0  0  0  0
   -8.6377   -3.8666  -21.6485 H   0  0  0  0  0  0  0  0  0  0  0  0
   -6.3429   -2.2760  -22.8183 H   0  0  0  0  0  0  0  0  0  0  0  0
   -6.3870   -3.2959  -21.3692 H   0  0  0  0  0  0  0  0  0  0  0  0
  -10.7689   -2.3201  -22.2862 C   0  0  0  0  0  0  0  0  0  0  0  0
  -11.2035   -3.4291  -21.5529 C   0  0  0  0  0  0  0  0  0  0  0  0
  -12.5298   -3.5090  -21.1616 C   0  0  0  0  0  0  0  0  0  0  0  0
  -12.8903   -4.4192  -20.2430 F   0  0  0  0  0  0  0  0  0  0  0  0
  -13.5140   -2.6434  -21.6125 C   0  0  0  0  0  0  0  0  0  0  0  0
  -13.1102   -1.6052  -22.4190 C   0  0  0  0  0  0  0  0  0  0  0  0
  -11.7625   -1.4294  -22.7221 C   0  0  0  0  0  0  0  0  0  0  0  0
  -11.4147   -0.1884  -23.4629 C   0  0  0  0  0  0  0  0  0  0  0  0
  -12.2454    0.6810  -23.6922 O   0  0  0  0  0  0  0  0  0  0  0  0
  -13.8120   -0.8803  -22.8105 H   0  0  0  0  0  0  0  0  0  0  0  0
  -14.5451   -2.7828  -21.3067 H   0  0  0  0  0  0  0  0  0  0  0  0
  -10.5268   -4.2041  -21.2175 H   0  0  0  0  0  0  0  0  0  0  0  0
   -9.5441   -1.9161  -24.6769 H   0  0  0  0  0  0  0  0  0  0  0  0
   -8.2131   -0.8957  -24.0738 H   0  0  0  0  0  0  0  0  0  0  0  0
   -9.4150    1.0883  -25.4191 H   0  0  0  0  0  0  0  0  0  0  0  0
  -10.5103    1.8641  -24.2302 H   0  0  0  0  0  0  0  0  0  0  0  0
   -9.5689    2.4117  -22.0055 H   0  0  0  0  0  0  0  0  0  0  0  0
   -7.8876    3.6990  -21.0243 H   0  0  0  0  0  0  0  0  0  0  0  0
   -6.9448    2.2296  -21.4354 H   0  0  0  0  0  0  0  0  0  0  0  0
   -6.9491    3.6448  -22.5129 H   0  0  0  0  0  0  0  0  0  0  0  0
  1  2  1  0
  2  3  1  0
  3  4  2  0
  3  5  1  0
  5  6  1  0
  6  7  1  0
  8  7  1  6
  8  9  1  0
  9 10  2  0
  9 11  1  0
 11 12  1  0
 12 13  2  0
 13 14  1  0
 14 15  2  0
 15 16  1  0
 16 17  2  0
 17 18  1  0
 18 19  2  0
 19 20  1  0
 20 21  2  0
 20 22  1  0
 19 23  1  0
 18 24  1  0
 17 25  1  0
 15 26  1  0
 13 27  1  0
 11 28  1  0
 28 29  1  0
 29 30  1  0
 30 31  1  0
 31 32  2  0
 31 33  2  0
 31 34  1  0
 34 35  1  0
 35 36  1  0
 35 37  1  0
 35 38  1  0
 34 39  1  0
 39 40  1  0
 39 41  1  0
 39 42  1  0
 30 43  1  0
 30 44  1  0
 29 45  1  1
 28 46  1  0
 28 47  1  0
  8 48  1  0
 48 49  2  0
 49 50  1  0
 50 51  1  0
 50 52  2  0
 52 53  1  0
 53 54  2  0
 54 55  1  0
 55 56  2  0
 53 57  1  0
 52 58  1  0
 49 59  1  0
  7 60  1  0
  7 61  1  0
  5 62  1  0
  5 63  1  0
  2 64  1  0
  1 65  1  0
  1 66  1  0
  1 67  1  0
 55  6  1  0
 29  8  1  0
 54 48  1  0
 21 12  1  0
 21 16  1  0
M  END
>  <cnnaffinities>  (40) 
[7.04462, 7.05858]

>  <score>  (40) 
7.04462

>  <index>  (40) 
41

>  <Smiles>  (40) 
C(N(C(=O)C(N1C([C@@]2(C(=O)N(c3c(nc(c4c(c(c(c(c34)[H])[H])[H])[H])[H])[H])C([C@@]2(C(S(=O)(=O)N(C([H])([H])[H])C([H])([H])[H])([H])[H])[H])([H])[H])c2c(c(F)c(c(c2C1=O)[H])[H])[H])([H])[H])([H])[H])[H])([H])([H])[H]

>  <h>  (40) 
<NA>

>  <Training>  (40) 
True

>  <Success>  (40) 
True

>  <enamine_searched>  (40) 
False

>  <enamine_id>  (40) 
nan

$$$$

     RDKit          3D

 67 72  0  0  0  0  0  0  0  0999 V2000
   -7.8008   -3.3937  -29.1323 C   0  0  0  0  0  0  0  0  0  0  0  0
   -8.4189   -2.5039  -28.1795 N   0  0  0  0  0  0  0  0  0  0  0  0
   -7.7322   -1.8732  -27.1947 C   0  0  0  0  0  0  0  0  0  0  0  0
   -6.6041   -2.1621  -26.8266 O   0  0  0  0  0  0  0  0  0  0  0  0
   -8.5610   -0.7353  -26.6162 C   0  0  0  0  0  0  0  0  0  0  0  0
   -9.2288   -1.1175  -25.3936 N   0  0  0  0  0  0  0  0  0  0  0  0
   -8.5916   -0.7198  -24.1564 C   0  0  0  0  0  0  0  0  0  0  0  0
   -9.0652   -1.5368  -22.9397 C   0  0  2  0  0  0  0  0  0  0  0  0
   -8.5650   -0.7657  -21.6992 C   0  0  0  0  0  0  0  0  0  0  0  0
   -9.0169    0.2607  -21.2320 O   0  0  0  0  0  0  0  0  0  0  0  0
   -7.4220   -1.3890  -21.2389 N   0  0  0  0  0  0  0  0  0  0  0  0
   -6.6236   -0.8022  -20.2218 C   0  0  0  0  0  0  0  0  0  0  0  0
   -6.9545   -1.0040  -18.9087 C   0  0  0  0  0  0  0  0  0  0  0  0
   -6.2649   -0.4985  -17.8572 N   0  0  0  0  0  0  0  0  0  0  0  0
   -5.2045    0.2233  -18.1168 C   0  0  0  0  0  0  0  0  0  0  0  0
   -4.7522    0.5224  -19.4322 C   0  0  0  0  0  0  0  0  0  0  0  0
   -3.6181    1.3439  -19.6563 C   0  0  0  0  0  0  0  0  0  0  0  0
   -3.2258    1.6447  -20.9311 C   0  0  0  0  0  0  0  0  0  0  0  0
   -3.9404    1.1302  -22.0348 C   0  0  0  0  0  0  0  0  0  0  0  0
   -5.0378    0.3263  -21.8426 C   0  0  0  0  0  0  0  0  0  0  0  0
   -5.4745   -0.0005  -20.5281 C   0  0  0  0  0  0  0  0  0  0  0  0
   -5.5895   -0.0456  -22.6997 H   0  0  0  0  0  0  0  0  0  0  0  0
   -3.6198    1.3816  -23.0415 H   0  0  0  0  0  0  0  0  0  0  0  0
   -2.3667    2.2865  -21.1008 H   0  0  0  0  0  0  0  0  0  0  0  0
   -3.0865    1.7366  -18.7946 H   0  0  0  0  0  0  0  0  0  0  0  0
   -4.6421    0.6129  -17.2671 H   0  0  0  0  0  0  0  0  0  0  0  0
   -7.8239   -1.6114  -18.6685 H   0  0  0  0  0  0  0  0  0  0  0  0
   -7.0657   -2.5948  -21.9653 C   0  0  0  0  0  0  0  0  0  0  0  0
   -8.3317   -2.9110  -22.7642 C   0  0  2  0  0  0  0  0  0  0  0  0
   -8.0221   -3.7174  -24.0232 C   0  0  0  0  0  0  0  0  0  0  0  0
   -9.2429   -4.2484  -24.5836 N   0  0  0  0  0  0  0  0  0  0  0  0
   -9.3355   -4.9059  -25.7768 C   0  0  0  0  0  0  0  0  0  0  0  0
  -10.8815   -5.0951  -26.5802 S   0  0  0  0  0  0  0  0  0  0  0  0
  -10.0790   -6.0210  -27.8022 C   0  0  0  0  0  0  0  0  0  0  0  0
   -8.8049   -6.1767  -27.6437 N   0  0  0  0  0  0  0  0  0  0  0  0
   -8.3617   -5.5580  -26.4977 C   0  0  0  0  0  0  0  0  0  0  0  0
   -6.9067   -5.6690  -26.1443 C   0  0  0  0  0  0  0  0  0  0  0  0
   -6.3984   -6.2692  -26.9028 H   0  0  0  0  0  0  0  0  0  0  0  0
   -6.7648   -6.1661  -25.1782 H   0  0  0  0  0  0  0  0  0  0  0  0
   -6.4285   -4.6833  -26.0967 H   0  0  0  0  0  0  0  0  0  0  0  0
  -10.6270   -6.3944  -28.6547 H   0  0  0  0  0  0  0  0  0  0  0  0
  -10.1174   -3.9765  -24.1490 H   0  0  0  0  0  0  0  0  0  0  0  0
   -7.3520   -4.5433  -23.7466 H   0  0  0  0  0  0  0  0  0  0  0  0
   -7.4989   -3.1050  -24.7713 H   0  0  0  0  0  0  0  0  0  0  0  0
   -8.9854   -3.5298  -22.1320 H   0  0  0  0  0  0  0  0  0  0  0  0
   -6.2053   -2.4323  -22.6363 H   0  0  0  0  0  0  0  0  0  0  0  0
   -6.7968   -3.4001  -21.2721 H   0  0  0  0  0  0  0  0  0  0  0  0
  -10.5696   -1.6842  -22.9987 C   0  0  0  0  0  0  0  0  0  0  0  0
  -11.2856   -1.9977  -21.8428 C   0  0  0  0  0  0  0  0  0  0  0  0
  -12.6467   -2.2481  -21.9043 C   0  0  0  0  0  0  0  0  0  0  0  0
  -13.4562   -2.8204  -20.4745 Cl  0  0  0  0  0  0  0  0  0  0  0  0
  -13.3608   -2.1075  -23.0914 C   0  0  0  0  0  0  0  0  0  0  0  0
  -12.6512   -1.7943  -24.2368 C   0  0  0  0  0  0  0  0  0  0  0  0
  -11.2707   -1.6368  -24.2057 C   0  0  0  0  0  0  0  0  0  0  0  0
  -10.5406   -1.4886  -25.4953 C   0  0  0  0  0  0  0  0  0  0  0  0
  -11.0775   -1.6831  -26.5823 O   0  0  0  0  0  0  0  0  0  0  0  0
  -13.1427   -1.6878  -25.1921 H   0  0  0  0  0  0  0  0  0  0  0  0
  -14.4357   -2.2540  -23.1173 H   0  0  0  0  0  0  0  0  0  0  0  0
  -10.7666   -2.0375  -20.8938 H   0  0  0  0  0  0  0  0  0  0  0  0
   -8.7849    0.3432  -23.9649 H   0  0  0  0  0  0  0  0  0  0  0  0
   -7.5049   -0.8268  -24.2913 H   0  0  0  0  0  0  0  0  0  0  0  0
   -7.9461    0.1552  -26.4607 H   0  0  0  0  0  0  0  0  0  0  0  0
   -9.3253   -0.5298  -27.3570 H   0  0  0  0  0  0  0  0  0  0  0  0
   -9.4065   -2.2955  -28.2645 H   0  0  0  0  0  0  0  0  0  0  0  0
   -7.0864   -4.0457  -28.6258 H   0  0  0  0  0  0  0  0  0  0  0  0
   -7.2753   -2.8604  -29.9368 H   0  0  0  0  0  0  0  0  0  0  0  0
   -8.5779   -4.0293  -29.5542 H   0  0  0  0  0  0  0  0  0  0  0  0
  1  2  1  0
  2  3  1  0
  3  4  2  0
  3  5  1  0
  5  6  1  0
  6  7  1  0
  8  7  1  6
  8  9  1  0
  9 10  2  0
  9 11  1  0
 11 12  1  0
 12 13  2  0
 13 14  1  0
 14 15  2  0
 15 16  1  0
 16 17  2  0
 17 18  1  0
 18 19  2  0
 19 20  1  0
 20 21  2  0
 20 22  1  0
 19 23  1  0
 18 24  1  0
 17 25  1  0
 15 26  1  0
 13 27  1  0
 11 28  1  0
 28 29  1  0
 29 30  1  0
 30 31  1  0
 31 32  1  0
 32 33  1  0
 33 34  1  0
 34 35  2  0
 35 36  1  0
 36 37  1  0
 37 38  1  0
 37 39  1  0
 37 40  1  0
 34 41  1  0
 31 42  1  0
 30 43  1  0
 30 44  1  0
 29 45  1  1
 28 46  1  0
 28 47  1  0
  8 48  1  0
 48 49  2  0
 49 50  1  0
 50 51  1  0
 50 52  2  0
 52 53  1  0
 53 54  2  0
 54 55  1  0
 55 56  2  0
 53 57  1  0
 52 58  1  0
 49 59  1  0
  7 60  1  0
  7 61  1  0
  5 62  1  0
  5 63  1  0
  2 64  1  0
  1 65  1  0
  1 66  1  0
  1 67  1  0
 55  6  1  0
 29  8  1  0
 36 32  2  0
 54 48  1  0
 21 12  1  0
 21 16  1  0
M  END
>  <cnnaffinities>  (41) 
[6.59216]

>  <score>  (41) 
6.59216

>  <index>  (41) 
43

>  <Smiles>  (41) 
C(N(C(=O)C(N1C([C@@]2(C(=O)N(c3c(nc(c4c(c(c(c(c34)[H])[H])[H])[H])[H])[H])C([C@@]2(C(N(c2sc(nc2C([H])([H])[H])[H])[H])([H])[H])[H])([H])[H])c2c(c(Cl)c(c(c2C1=O)[H])[H])[H])([H])[H])([H])[H])[H])([H])([H])[H]

>  <h>  (41) 
<NA>

>  <Training>  (41) 
True

>  <Success>  (41) 
True

>  <enamine_searched>  (41) 
False

>  <enamine_id>  (41) 
nan

$$$$

     RDKit          3D

 60 64  0  0  0  0  0  0  0  0999 V2000
   -8.1399    0.0101  -29.7688 C   0  0  0  0  0  0  0  0  0  0  0  0
   -8.1989   -1.1184  -28.8669 N   0  0  0  0  0  0  0  0  0  0  0  0
   -7.3812   -1.1140  -27.7700 C   0  0  0  0  0  0  0  0  0  0  0  0
   -6.5360   -0.2594  -27.5497 O   0  0  0  0  0  0  0  0  0  0  0  0
   -7.6097   -2.3019  -26.8235 C   0  0  0  0  0  0  0  0  0  0  0  0
   -8.4766   -1.9287  -25.7151 N   0  0  0  0  0  0  0  0  0  0  0  0
   -7.9132   -1.2895  -24.5304 C   0  0  0  0  0  0  0  0  0  0  0  0
   -8.7533   -1.5439  -23.2488 C   0  0  2  0  0  0  0  0  0  0  0  0
   -8.2115   -0.5746  -22.1815 C   0  0  0  0  0  0  0  0  0  0  0  0
   -8.4059    0.6167  -22.0965 O   0  0  0  0  0  0  0  0  0  0  0  0
   -7.4137   -1.2942  -21.3116 N   0  0  0  0  0  0  0  0  0  0  0  0
   -6.6321   -0.7147  -20.2850 C   0  0  0  0  0  0  0  0  0  0  0  0
   -6.9499   -0.9822  -18.9788 C   0  0  0  0  0  0  0  0  0  0  0  0
   -6.2822   -0.4847  -17.9125 N   0  0  0  0  0  0  0  0  0  0  0  0
   -5.2308    0.2617  -18.1459 C   0  0  0  0  0  0  0  0  0  0  0  0
   -4.7530    0.5664  -19.4515 C   0  0  0  0  0  0  0  0  0  0  0  0
   -3.5967    1.3639  -19.6553 C   0  0  0  0  0  0  0  0  0  0  0  0
   -3.1521    1.6267  -20.9213 C   0  0  0  0  0  0  0  0  0  0  0  0
   -3.8301    1.0950  -22.0410 C   0  0  0  0  0  0  0  0  0  0  0  0
   -4.9525    0.3241  -21.8699 C   0  0  0  0  0  0  0  0  0  0  0  0
   -5.4586    0.0585  -20.5661 C   0  0  0  0  0  0  0  0  0  0  0  0
   -5.4626   -0.0888  -22.7356 H   0  0  0  0  0  0  0  0  0  0  0  0
   -3.4669    1.3098  -23.0415 H   0  0  0  0  0  0  0  0  0  0  0  0
   -2.2794    2.2541  -21.0750 H   0  0  0  0  0  0  0  0  0  0  0  0
   -3.0872    1.7643  -18.7835 H   0  0  0  0  0  0  0  0  0  0  0  0
   -4.6939    0.6587  -17.2817 H   0  0  0  0  0  0  0  0  0  0  0  0
   -7.8063   -1.6176  -18.7482 H   0  0  0  0  0  0  0  0  0  0  0  0
   -7.3347   -2.7088  -21.6031 C   0  0  0  0  0  0  0  0  0  0  0  0
   -8.5118   -2.9216  -22.5464 C   0  0  2  0  0  0  0  0  0  0  0  0
   -8.3943   -4.1362  -23.4469 C   0  0  0  0  0  0  0  0  0  0  0  0
   -7.1384   -4.1375  -24.0916 O   0  0  0  0  0  0  0  0  0  0  0  0
   -6.9703   -5.2502  -24.9299 C   0  0  0  0  0  0  0  0  0  0  0  0
   -7.0209   -6.1952  -24.3659 H   0  0  0  0  0  0  0  0  0  0  0  0
   -5.9814   -5.1677  -25.3863 H   0  0  0  0  0  0  0  0  0  0  0  0
   -7.7263   -5.2789  -25.7311 H   0  0  0  0  0  0  0  0  0  0  0  0
   -8.5097   -5.0514  -22.8446 H   0  0  0  0  0  0  0  0  0  0  0  0
   -9.2098   -4.1124  -24.1852 H   0  0  0  0  0  0  0  0  0  0  0  0
   -9.4094   -3.0706  -21.9249 H   0  0  0  0  0  0  0  0  0  0  0  0
   -7.4467   -3.2738  -20.6811 H   0  0  0  0  0  0  0  0  0  0  0  0
   -6.3707   -2.9878  -22.0488 H   0  0  0  0  0  0  0  0  0  0  0  0
  -10.2310   -1.3748  -23.5614 C   0  0  0  0  0  0  0  0  0  0  0  0
  -11.1833   -1.2507  -22.5363 C   0  0  0  0  0  0  0  0  0  0  0  0
  -12.5354   -1.2565  -22.8639 C   0  0  0  0  0  0  0  0  0  0  0  0
  -13.7502   -1.3516  -21.6340 Cl  0  0  0  0  0  0  0  0  0  0  0  0
  -12.9913   -1.3047  -24.1794 C   0  0  0  0  0  0  0  0  0  0  0  0
  -12.0526   -1.4321  -25.1779 C   0  0  0  0  0  0  0  0  0  0  0  0
  -10.6961   -1.4843  -24.8763 C   0  0  0  0  0  0  0  0  0  0  0  0
   -9.7946   -1.8087  -26.0153 C   0  0  0  0  0  0  0  0  0  0  0  0
  -10.2233   -2.0159  -27.1539 O   0  0  0  0  0  0  0  0  0  0  0  0
  -12.3051   -1.5618  -26.2234 H   0  0  0  0  0  0  0  0  0  0  0  0
  -14.0626   -1.3053  -24.3646 H   0  0  0  0  0  0  0  0  0  0  0  0
  -10.8793   -1.1923  -21.4940 H   0  0  0  0  0  0  0  0  0  0  0  0
   -6.9006   -1.6687  -24.3816 H   0  0  0  0  0  0  0  0  0  0  0  0
   -7.8326   -0.2031  -24.6768 H   0  0  0  0  0  0  0  0  0  0  0  0
   -6.6504   -2.6475  -26.4241 H   0  0  0  0  0  0  0  0  0  0  0  0
   -8.1033   -3.1153  -27.3704 H   0  0  0  0  0  0  0  0  0  0  0  0
   -9.1180   -1.5204  -28.7014 H   0  0  0  0  0  0  0  0  0  0  0  0
   -8.4164    0.9508  -29.2754 H   0  0  0  0  0  0  0  0  0  0  0  0
   -8.8078   -0.1753  -30.6158 H   0  0  0  0  0  0  0  0  0  0  0  0
   -7.1201    0.1225  -30.1423 H   0  0  0  0  0  0  0  0  0  0  0  0
  1  2  1  0
  2  3  1  0
  3  4  2  0
  3  5  1  0
  5  6  1  0
  6  7  1  0
  8  7  1  6
  8  9  1  0
  9 10  2  0
  9 11  1  0
 11 12  1  0
 12 13  2  0
 13 14  1  0
 14 15  2  0
 15 16  1  0
 16 17  2  0
 17 18  1  0
 18 19  2  0
 19 20  1  0
 20 21  2  0
 20 22  1  0
 19 23  1  0
 18 24  1  0
 17 25  1  0
 15 26  1  0
 13 27  1  0
 11 28  1  0
 28 29  1  0
 29 30  1  0
 30 31  1  0
 31 32  1  0
 32 33  1  0
 32 34  1  0
 32 35  1  0
 30 36  1  0
 30 37  1  0
 29 38  1  1
 28 39  1  0
 28 40  1  0
  8 41  1  0
 41 42  2  0
 42 43  1  0
 43 44  1  0
 43 45  2  0
 45 46  1  0
 46 47  2  0
 47 48  1  0
 48 49  2  0
 46 50  1  0
 45 51  1  0
 42 52  1  0
  7 53  1  0
  7 54  1  0
  5 55  1  0
  5 56  1  0
  2 57  1  0
  1 58  1  0
  1 59  1  0
  1 60  1  0
 48  6  1  0
 29  8  1  0
 47 41  1  0
 21 12  1  0
 21 16  1  0
M  END
>  <cnnaffinities>  (42) 
[6.25373, 6.61442]

>  <score>  (42) 
6.25373

>  <index>  (42) 
44

>  <Smiles>  (42) 
C(N(C(=O)C(N1C([C@@]2(C(=O)N(c3c(nc(c4c(c(c(c(c34)[H])[H])[H])[H])[H])[H])C([C@@]2(C(OC([H])([H])[H])([H])[H])[H])([H])[H])c2c(c(Cl)c(c(c2C1=O)[H])[H])[H])([H])[H])([H])[H])[H])([H])([H])[H]

>  <h>  (42) 
<NA>

>  <Training>  (42) 
True

>  <Success>  (42) 
True

>  <enamine_searched>  (42) 
False

>  <enamine_id>  (42) 
nan

$$$$

     RDKit          3D

 66 71  0  0  0  0  0  0  0  0999 V2000
   -7.0351    0.4837  -29.2725 C   0  0  0  0  0  0  0  0  0  0  0  0
   -7.4961   -0.6617  -28.5234 N   0  0  0  0  0  0  0  0  0  0  0  0
   -6.7350   -1.1161  -27.4922 C   0  0  0  0  0  0  0  0  0  0  0  0
   -5.6571   -0.6300  -27.1805 O   0  0  0  0  0  0  0  0  0  0  0  0
   -7.3428   -2.3036  -26.7403 C   0  0  0  0  0  0  0  0  0  0  0  0
   -8.2629   -1.8714  -25.7004 N   0  0  0  0  0  0  0  0  0  0  0  0
   -7.7263   -1.3537  -24.4514 C   0  0  0  0  0  0  0  0  0  0  0  0
   -8.6759   -1.5453  -23.2386 C   0  0  2  0  0  0  0  0  0  0  0  0
   -8.1967   -0.5688  -22.1535 C   0  0  0  0  0  0  0  0  0  0  0  0
   -8.4108    0.6210  -22.0731 O   0  0  0  0  0  0  0  0  0  0  0  0
   -7.3956   -1.2741  -21.2730 N   0  0  0  0  0  0  0  0  0  0  0  0
   -6.6165   -0.6845  -20.2520 C   0  0  0  0  0  0  0  0  0  0  0  0
   -6.9290   -0.9438  -18.9427 C   0  0  0  0  0  0  0  0  0  0  0  0
   -6.2600   -0.4396  -17.8809 N   0  0  0  0  0  0  0  0  0  0  0  0
   -5.2105    0.3038  -18.1309 C   0  0  0  0  0  0  0  0  0  0  0  0
   -4.7329    0.5991  -19.4381 C   0  0  0  0  0  0  0  0  0  0  0  0
   -3.5705    1.3869  -19.6497 C   0  0  0  0  0  0  0  0  0  0  0  0
   -3.1289    1.6378  -20.9187 C   0  0  0  0  0  0  0  0  0  0  0  0
   -3.8125    1.1012  -22.0324 C   0  0  0  0  0  0  0  0  0  0  0  0
   -4.9374    0.3359  -21.8513 C   0  0  0  0  0  0  0  0  0  0  0  0
   -5.4418    0.0832  -20.5448 C   0  0  0  0  0  0  0  0  0  0  0  0
   -5.4481   -0.0841  -22.7123 H   0  0  0  0  0  0  0  0  0  0  0  0
   -3.4513    1.3067  -23.0353 H   0  0  0  0  0  0  0  0  0  0  0  0
   -2.2535    2.2588  -21.0794 H   0  0  0  0  0  0  0  0  0  0  0  0
   -3.0581    1.7937  -18.7822 H   0  0  0  0  0  0  0  0  0  0  0  0
   -4.6793    0.7024  -17.2690 H   0  0  0  0  0  0  0  0  0  0  0  0
   -7.7864   -1.5785  -18.7174 H   0  0  0  0  0  0  0  0  0  0  0  0
   -7.3059   -2.6890  -21.5583 C   0  0  0  0  0  0  0  0  0  0  0  0
   -8.4827   -2.9149  -22.5063 C   0  0  2  0  0  0  0  0  0  0  0  0
   -8.3218   -4.1684  -23.3617 C   0  0  0  0  0  0  0  0  0  0  0  0
   -9.4994   -4.5513  -24.2314 C   0  0  0  0  0  0  0  0  0  0  0  0
   -9.2610   -5.0432  -25.5162 C   0  0  0  0  0  0  0  0  0  0  0  0
  -10.2858   -5.5983  -26.2716 C   0  0  0  0  0  0  0  0  0  0  0  0
  -11.5781   -5.6263  -25.7674 C   0  0  0  0  0  0  0  0  0  0  0  0
  -11.8433   -5.0636  -24.5212 C   0  0  0  0  0  0  0  0  0  0  0  0
  -10.8111   -4.5235  -23.7658 C   0  0  0  0  0  0  0  0  0  0  0  0
  -11.0578   -4.0799  -22.8046 H   0  0  0  0  0  0  0  0  0  0  0  0
  -12.8501   -5.0246  -24.1113 H   0  0  0  0  0  0  0  0  0  0  0  0
  -12.3656   -6.0719  -26.3678 H   0  0  0  0  0  0  0  0  0  0  0  0
  -10.0785   -6.0325  -27.2482 H   0  0  0  0  0  0  0  0  0  0  0  0
   -8.2568   -4.9841  -25.9360 H   0  0  0  0  0  0  0  0  0  0  0  0
   -7.4434   -4.0597  -24.0056 H   0  0  0  0  0  0  0  0  0  0  0  0
   -8.1003   -5.0105  -22.6900 H   0  0  0  0  0  0  0  0  0  0  0  0
   -9.3752   -3.0411  -21.8790 H   0  0  0  0  0  0  0  0  0  0  0  0
   -7.3953   -3.2610  -20.6332 H   0  0  0  0  0  0  0  0  0  0  0  0
   -6.3403   -2.9502  -22.0255 H   0  0  0  0  0  0  0  0  0  0  0  0
  -10.1185   -1.3407  -23.6488 C   0  0  0  0  0  0  0  0  0  0  0  0
  -11.1192   -1.2571  -22.6718 C   0  0  0  0  0  0  0  0  0  0  0  0
  -12.4549   -1.2712  -23.0259 C   0  0  0  0  0  0  0  0  0  0  0  0
  -13.6780   -1.2332  -21.7870 Cl  0  0  0  0  0  0  0  0  0  0  0  0
  -12.8506   -1.3844  -24.3566 C   0  0  0  0  0  0  0  0  0  0  0  0
  -11.8759   -1.4489  -25.3281 C   0  0  0  0  0  0  0  0  0  0  0  0
  -10.5271   -1.4141  -24.9825 C   0  0  0  0  0  0  0  0  0  0  0  0
   -9.5433   -1.6069  -26.0844 C   0  0  0  0  0  0  0  0  0  0  0  0
   -9.8847   -1.5950  -27.2678 O   0  0  0  0  0  0  0  0  0  0  0  0
  -12.1213   -1.5564  -26.3807 H   0  0  0  0  0  0  0  0  0  0  0  0
  -13.9107   -1.4652  -24.5830 H   0  0  0  0  0  0  0  0  0  0  0  0
  -10.8675   -1.1998  -21.6171 H   0  0  0  0  0  0  0  0  0  0  0  0
   -7.5085   -0.2816  -24.5435 H   0  0  0  0  0  0  0  0  0  0  0  0
   -6.7735   -1.8567  -24.2470 H   0  0  0  0  0  0  0  0  0  0  0  0
   -6.5256   -2.8833  -26.2983 H   0  0  0  0  0  0  0  0  0  0  0  0
   -7.9140   -2.9389  -27.4290 H   0  0  0  0  0  0  0  0  0  0  0  0
   -8.4909   -0.8673  -28.4853 H   0  0  0  0  0  0  0  0  0  0  0  0
   -7.6957    0.6488  -30.1258 H   0  0  0  0  0  0  0  0  0  0  0  0
   -6.0248    0.2955  -29.6402 H   0  0  0  0  0  0  0  0  0  0  0  0
   -6.9992    1.3885  -28.6573 H   0  0  0  0  0  0  0  0  0  0  0  0
  1  2  1  0
  2  3  1  0
  3  4  2  0
  3  5  1  0
  5  6  1  0
  6  7  1  0
  8  7  1  6
  8  9  1  0
  9 10  2  0
  9 11  1  0
 11 12  1  0
 12 13  2  0
 13 14  1  0
 14 15  2  0
 15 16  1  0
 16 17  2  0
 17 18  1  0
 18 19  2  0
 19 20  1  0
 20 21  2  0
 20 22  1  0
 19 23  1  0
 18 24  1  0
 17 25  1  0
 15 26  1  0
 13 27  1  0
 11 28  1  0
 28 29  1  0
 29 30  1  0
 30 31  1  0
 31 32  2  0
 32 33  1  0
 33 34  2  0
 34 35  1  0
 35 36  2  0
 36 37  1  0
 35 38  1  0
 34 39  1  0
 33 40  1  0
 32 41  1  0
 30 42  1  0
 30 43  1  0
 29 44  1  1
 28 45  1  0
 28 46  1  0
  8 47  1  0
 47 48  2  0
 48 49  1  0
 49 50  1  0
 49 51  2  0
 51 52  1  0
 52 53  2  0
 53 54  1  0
 54 55  2  0
 52 56  1  0
 51 57  1  0
 48 58  1  0
  7 59  1  0
  7 60  1  0
  5 61  1  0
  5 62  1  0
  2 63  1  0
  1 64  1  0
  1 65  1  0
  1 66  1  0
 54  6  1  0
 29  8  1  0
 36 31  1  0
 53 47  1  0
 21 12  1  0
 21 16  1  0
M  END
>  <cnnaffinities>  (43) 
[6.48608]

>  <score>  (43) 
6.48608

>  <index>  (43) 
45

>  <Smiles>  (43) 
C(N(C(=O)C(N1C([C@@]2(C(=O)N(c3c(nc(c4c(c(c(c(c34)[H])[H])[H])[H])[H])[H])C([C@@]2(C(c2c(c(c(c(c2[H])[H])[H])[H])[H])([H])[H])[H])([H])[H])c2c(c(Cl)c(c(c2C1=O)[H])[H])[H])([H])[H])([H])[H])[H])([H])([H])[H]

>  <h>  (43) 
<NA>

>  <Training>  (43) 
True

>  <Success>  (43) 
True

>  <enamine_searched>  (43) 
False

>  <enamine_id>  (43) 
nan

$$$$

     RDKit          3D

 50 54  0  0  0  0  0  0  0  0999 V2000
  -10.4684   -1.1223  -23.3131 C   0  0  0  0  0  0  0  0  0  0  0  0
   -9.0253   -1.4532  -22.9656 C   0  0  1  0  0  0  0  0  0  0  0  0
   -8.4313   -0.4970  -21.9191 C   0  0  0  0  0  0  0  0  0  0  0  0
   -7.4303   -1.3086  -21.2511 N   0  0  0  0  0  0  0  0  0  0  0  0
   -6.5981   -0.8130  -20.2166 C   0  0  0  0  0  0  0  0  0  0  0  0
   -6.9123   -1.0397  -18.9012 C   0  0  0  0  0  0  0  0  0  0  0  0
   -6.2463   -0.4947  -17.8533 N   0  0  0  0  0  0  0  0  0  0  0  0
   -5.2105    0.2605  -18.1150 C   0  0  0  0  0  0  0  0  0  0  0  0
   -4.7537    0.5493  -19.4301 C   0  0  0  0  0  0  0  0  0  0  0  0
   -3.6120    1.3570  -19.6615 C   0  0  0  0  0  0  0  0  0  0  0  0
   -3.2056    1.6199  -20.9392 C   0  0  0  0  0  0  0  0  0  0  0  0
   -3.9120    1.0817  -22.0369 C   0  0  0  0  0  0  0  0  0  0  0  0
   -5.0164    0.2891  -21.8394 C   0  0  0  0  0  0  0  0  0  0  0  0
   -5.4668    0.0069  -20.5225 C   0  0  0  0  0  0  0  0  0  0  0  0
   -5.5420   -0.1383  -22.6878 H   0  0  0  0  0  0  0  0  0  0  0  0
   -3.5743    1.2959  -23.0457 H   0  0  0  0  0  0  0  0  0  0  0  0
   -2.3400    2.2490  -21.1189 H   0  0  0  0  0  0  0  0  0  0  0  0
   -3.0780    1.7615  -18.8064 H   0  0  0  0  0  0  0  0  0  0  0  0
   -4.6652    0.6749  -17.2662 H   0  0  0  0  0  0  0  0  0  0  0  0
   -7.7616   -1.6687  -18.6461 H   0  0  0  0  0  0  0  0  0  0  0  0
   -7.5507   -2.6590  -21.5053 C   0  0  0  0  0  0  0  0  0  0  0  0
   -6.7646   -3.5008  -21.1319 O   0  0  0  0  0  0  0  0  0  0  0  0
   -8.7952   -2.8867  -22.3716 C   0  0  1  0  0  0  0  0  0  0  0  0
   -9.9784   -3.3373  -21.4847 C   0  0  0  0  0  0  0  0  0  0  0  0
  -11.1273   -3.7270  -22.2980 N   0  0  0  0  0  0  0  0  0  0  0  0
  -12.4874   -3.5472  -21.8260 C   0  0  0  0  0  0  0  0  0  0  0  0
  -13.3460   -2.7170  -22.7035 C   0  0  0  0  0  0  0  0  0  0  0  0
  -14.1058   -2.0767  -23.2955 N   0  0  0  0  0  0  0  0  0  0  0  0
  -12.4972   -3.0738  -20.8431 H   0  0  0  0  0  0  0  0  0  0  0  0
  -12.9677   -4.5200  -21.7471 H   0  0  0  0  0  0  0  0  0  0  0  0
  -10.9821   -4.5397  -23.3983 C   0  0  0  0  0  0  0  0  0  0  0  0
  -11.9399   -5.0300  -23.9710 O   0  0  0  0  0  0  0  0  0  0  0  0
   -9.5820   -4.7681  -23.8627 C   0  0  0  0  0  0  0  0  0  0  0  0
   -9.3494   -5.7698  -24.8069 C   0  0  0  0  0  0  0  0  0  0  0  0
   -8.0906   -5.9425  -25.3529 C   0  0  0  0  0  0  0  0  0  0  0  0
   -7.0800   -5.0804  -24.9395 C   0  0  0  0  0  0  0  0  0  0  0  0
   -5.8573   -5.2104  -25.4807 F   0  0  0  0  0  0  0  0  0  0  0  0
   -7.2743   -4.1131  -23.9736 C   0  0  0  0  0  0  0  0  0  0  0  0
   -8.5432   -3.9508  -23.4115 C   0  0  0  0  0  0  0  0  0  0  0  0
   -6.4320   -3.5203  -23.6362 H   0  0  0  0  0  0  0  0  0  0  0  0
   -7.8752   -6.7194  -26.0818 H   0  0  0  0  0  0  0  0  0  0  0  0
  -10.1706   -6.4119  -25.1091 H   0  0  0  0  0  0  0  0  0  0  0  0
   -9.6717   -4.1796  -20.8498 H   0  0  0  0  0  0  0  0  0  0  0  0
  -10.2446   -2.4834  -20.8491 H   0  0  0  0  0  0  0  0  0  0  0  0
   -9.2001   -0.1582  -21.2023 H   0  0  0  0  0  0  0  0  0  0  0  0
   -7.9642    0.3803  -22.3839 H   0  0  0  0  0  0  0  0  0  0  0  0
   -8.4055   -1.4085  -23.8726 H   0  0  0  0  0  0  0  0  0  0  0  0
  -10.5533   -0.1460  -23.7951 H   0  0  0  0  0  0  0  0  0  0  0  0
  -11.0706   -1.1162  -22.3981 H   0  0  0  0  0  0  0  0  0  0  0  0
  -10.8783   -1.8924  -23.9709 H   0  0  0  0  0  0  0  0  0  0  0  0
  1  2  1  0
  2  3  1  0
  3  4  1  0
  4  5  1  0
  5  6  2  0
  6  7  1  0
  7  8  2  0
  8  9  1  0
  9 10  2  0
 10 11  1  0
 11 12  2  0
 12 13  1  0
 13 14  2  0
 13 15  1  0
 12 16  1  0
 11 17  1  0
 10 18  1  0
  8 19  1  0
  6 20  1  0
  4 21  1  0
 21 22  2  0
 21 23  1  0
 23 24  1  1
 24 25  1  0
 25 26  1  0
 26 27  1  0
 27 28  3  0
 26 29  1  0
 26 30  1  0
 25 31  1  0
 31 32  2  0
 31 33  1  0
 33 34  2  0
 34 35  1  0
 35 36  2  0
 36 37  1  0
 36 38  1  0
 38 39  2  0
 38 40  1  0
 35 41  1  0
 34 42  1  0
 24 43  1  0
 24 44  1  0
  3 45  1  0
  3 46  1  0
  2 47  1  6
  1 48  1  0
  1 49  1  0
  1 50  1  0
 23  2  1  0
 39 33  1  0
 14  5  1  0
 39 23  1  0
 14  9  1  0
M  END
>  <cnnaffinities>  (44) 
[6.49874]

>  <score>  (44) 
6.49874

>  <index>  (44) 
46

>  <Smiles>  (44) 
C([C@]1(C(N(c2c(nc(c3c(c(c(c(c23)[H])[H])[H])[H])[H])[H])C(=O)[C@]21C(N(C(C#N)([H])[H])C(=O)c1c(c(c(F)c(c21)[H])[H])[H])([H])[H])([H])[H])[H])([H])([H])[H]

>  <h>  (44) 
<NA>

>  <Training>  (44) 
True

>  <Success>  (44) 
True

>  <enamine_searched>  (44) 
False

>  <enamine_id>  (44) 
nan

$$$$

     RDKit          3D

 58 63  0  0  0  0  0  0  0  0999 V2000
   -5.6677   -3.1197  -21.4146 O   0  0  0  0  0  0  0  0  0  0  0  0
   -6.7446   -2.7573  -21.8509 C   0  0  0  0  0  0  0  0  0  0  0  0
   -7.4087   -1.4847  -21.2679 C   0  0  0  0  0  0  0  0  0  0  0  0
   -6.5790   -0.8320  -20.1864 C   0  0  0  0  0  0  0  0  0  0  0  0
   -6.8740   -1.0412  -18.8683 C   0  0  0  0  0  0  0  0  0  0  0  0
   -6.1961   -0.5164  -17.8130 N   0  0  0  0  0  0  0  0  0  0  0  0
   -5.1557    0.2298  -18.0723 C   0  0  0  0  0  0  0  0  0  0  0  0
   -4.7171    0.5316  -19.3861 C   0  0  0  0  0  0  0  0  0  0  0  0
   -3.5883    1.3573  -19.6255 C   0  0  0  0  0  0  0  0  0  0  0  0
   -3.1895    1.6329  -20.9023 C   0  0  0  0  0  0  0  0  0  0  0  0
   -3.9026    1.0892  -21.9949 C   0  0  0  0  0  0  0  0  0  0  0  0
   -4.9979    0.2887  -21.7879 C   0  0  0  0  0  0  0  0  0  0  0  0
   -5.4446   -0.0128  -20.4761 C   0  0  0  0  0  0  0  0  0  0  0  0
   -5.5294   -0.1252  -22.6411 H   0  0  0  0  0  0  0  0  0  0  0  0
   -3.5778    1.3147  -23.0062 H   0  0  0  0  0  0  0  0  0  0  0  0
   -2.3289    2.2714  -21.0867 H   0  0  0  0  0  0  0  0  0  0  0  0
   -3.0538    1.7734  -18.7730 H   0  0  0  0  0  0  0  0  0  0  0  0
   -4.6002    0.6293  -17.2183 H   0  0  0  0  0  0  0  0  0  0  0  0
   -7.7185   -1.6708  -18.5859 H   0  0  0  0  0  0  0  0  0  0  0  0
   -7.6192   -0.7649  -22.0688 H   0  0  0  0  0  0  0  0  0  0  0  0
   -8.3812   -1.7676  -20.8428 H   0  0  0  0  0  0  0  0  0  0  0  0
   -7.3993   -3.4602  -22.8605 N   0  0  0  0  0  0  0  0  0  0  0  0
   -8.6023   -2.9890  -23.5416 C   0  0  0  0  0  0  0  0  0  0  0  0
   -8.3476   -2.3840  -24.9106 C   0  0  0  0  0  0  0  0  0  0  0  0
   -9.2631   -2.5619  -25.9473 C   0  0  0  0  0  0  0  0  0  0  0  0
   -9.0357   -1.9930  -27.1967 C   0  0  0  0  0  0  0  0  0  0  0  0
   -7.8964   -1.2339  -27.4314 C   0  0  0  0  0  0  0  0  0  0  0  0
   -6.9972   -1.0549  -26.3898 C   0  0  0  0  0  0  0  0  0  0  0  0
   -5.5660   -0.0983  -26.6563 Cl  0  0  0  0  0  0  0  0  0  0  0  0
   -7.2068   -1.6179  -25.1395 C   0  0  0  0  0  0  0  0  0  0  0  0
   -6.4806   -1.4429  -24.3494 H   0  0  0  0  0  0  0  0  0  0  0  0
   -7.7119   -0.7842  -28.4019 H   0  0  0  0  0  0  0  0  0  0  0  0
   -9.7535   -2.1406  -27.9981 H   0  0  0  0  0  0  0  0  0  0  0  0
  -10.1618   -3.1537  -25.7821 H   0  0  0  0  0  0  0  0  0  0  0  0
   -9.2836   -3.8366  -23.6453 H   0  0  0  0  0  0  0  0  0  0  0  0
   -9.1187   -2.2704  -22.9016 H   0  0  0  0  0  0  0  0  0  0  0  0
   -6.7531   -4.6561  -23.3904 C   0  0  2  0  0  0  0  0  0  0  0  0
   -7.4395   -5.4806  -24.5062 C   0  0  0  0  0  0  0  0  0  0  0  0
   -6.4076   -6.5885  -24.6927 N   0  0  1  0  0  4  0  0  0  0  0  0
   -5.9236   -6.8168  -26.0705 C   0  0  0  0  0  0  0  0  0  0  0  0
   -5.1587   -8.0734  -26.3479 C   0  0  0  0  0  0  0  0  0  0  0  0
   -4.4593   -6.7492  -26.4094 C   0  0  0  0  0  0  0  0  0  0  0  0
   -4.1555   -6.3822  -27.3823 H   0  0  0  0  0  0  0  0  0  0  0  0
   -3.7385   -6.5534  -25.6257 H   0  0  0  0  0  0  0  0  0  0  0  0
   -5.3528   -8.5944  -27.2771 H   0  0  0  0  0  0  0  0  0  0  0  0
   -4.9653   -8.7073  -25.4887 H   0  0  0  0  0  0  0  0  0  0  0  0
   -6.6215   -6.5047  -26.8386 H   0  0  0  0  0  0  0  0  0  0  0  0
   -5.4029   -6.1359  -23.6504 C   0  0  2  0  0  0  0  0  0  0  0  0
   -6.3131   -5.8156  -22.4705 C   0  0  0  0  0  0  0  0  0  0  0  0
   -7.0737   -6.5667  -22.2282 H   0  0  0  0  0  0  0  0  0  0  0  0
   -5.7695   -5.4947  -21.5900 H   0  0  0  0  0  0  0  0  0  0  0  0
   -5.3056   -4.6397  -23.9516 C   0  0  0  0  0  0  0  0  0  0  0  0
   -5.2132   -4.3610  -25.0105 H   0  0  0  0  0  0  0  0  0  0  0  0
   -4.5932   -4.1216  -23.3230 H   0  0  0  0  0  0  0  0  0  0  0  0
   -4.5404   -6.7832  -23.5345 H   0  0  0  0  0  0  0  0  0  0  0  0
   -6.8206   -7.4955  -24.4120 H   0  0  0  0  0  0  0  0  0  0  0  0
   -7.5442   -4.9537  -25.4515 H   0  0  0  0  0  0  0  0  0  0  0  0
   -8.3923   -5.9247  -24.2118 H   0  0  0  0  0  0  0  0  0  0  0  0
  1  2  2  0
  2  3  1  0
  3  4  1  0
  4  5  2  0
  5  6  1  0
  6  7  2  0
  7  8  1  0
  8  9  2  0
  9 10  1  0
 10 11  2  0
 11 12  1  0
 12 13  2  0
 12 14  1  0
 11 15  1  0
 10 16  1  0
  9 17  1  0
  7 18  1  0
  5 19  1  0
  3 20  1  0
  3 21  1  0
  2 22  1  0
 22 23  1  0
 23 24  1  0
 24 25  2  0
 25 26  1  0
 26 27  2  0
 27 28  1  0
 28 29  1  0
 28 30  2  0
 30 31  1  0
 27 32  1  0
 26 33  1  0
 25 34  1  0
 23 35  1  0
 23 36  1  0
 37 22  1  1
 37 38  1  0
 38 39  1  0
 39 40  1  0
 40 41  1  0
 41 42  1  0
 42 43  1  0
 42 44  1  0
 41 45  1  0
 41 46  1  0
 40 47  1  0
 39 48  1  0
 48 49  1  0
 49 50  1  0
 49 51  1  0
 48 52  1  0
 52 53  1  0
 52 54  1  0
 48 55  1  1
 39 56  1  1
 38 57  1  0
 38 58  1  0
 13  4  1  0
 30 24  1  0
 49 37  1  0
 13  8  1  0
 52 37  1  0
 42 40  1  0
M  CHG  1  39   1
M  END
>  <cnnaffinities>  (45) 
[6.01757, 5.86593, 6.07813, 5.9595, 6.29067, 6.35482]

>  <score>  (45) 
6.01757

>  <index>  (45) 
47

>  <Smiles>  (45) 
O=C(C(c1c(nc(c2c(c(c(c(c12)[H])[H])[H])[H])[H])[H])([H])[H])N(C(c1c(c(c(c(Cl)c1[H])[H])[H])[H])([H])[H])[C@]12C([N@@+](C3(C(C3([H])[H])([H])[H])[H])([C@](C1([H])[H])(C2([H])[H])[H])[H])([H])[H]

>  <h>  (45) 
<NA>

>  <Training>  (45) 
True

>  <Success>  (45) 
True

>  <enamine_searched>  (45) 
False

>  <enamine_id>  (45) 
nan

$$$$

     RDKit          3D

 46 48  0  0  0  0  0  0  0  0999 V2000
  -13.1354   -3.5921  -22.1125 C   0  0  0  0  0  0  0  0  0  0  0  0
  -13.1571   -2.9114  -23.4842 C   0  0  0  0  0  0  0  0  0  0  0  0
  -14.5137   -2.2401  -23.7618 C   0  0  0  0  0  0  0  0  0  0  0  0
  -15.3151   -2.9730  -23.9114 H   0  0  0  0  0  0  0  0  0  0  0  0
  -14.4614   -1.6039  -24.6566 H   0  0  0  0  0  0  0  0  0  0  0  0
  -14.8068   -1.5928  -22.9268 H   0  0  0  0  0  0  0  0  0  0  0  0
  -12.0252   -1.8869  -23.7668 C   0  0  0  0  0  0  0  0  0  0  0  0
  -11.9302   -0.7447  -22.7444 C   0  0  0  0  0  0  0  0  0  0  0  0
  -10.6160    0.0249  -22.8883 C   0  0  0  0  0  0  0  0  0  0  0  0
   -9.5236   -0.8678  -22.4927 N   0  0  0  0  0  0  0  0  0  0  0  0
   -8.5512   -0.4166  -21.6544 C   0  0  0  0  0  0  0  0  0  0  0  0
   -8.5334    0.7320  -21.2294 O   0  0  0  0  0  0  0  0  0  0  0  0
   -7.4573   -1.4258  -21.2626 C   0  0  0  0  0  0  0  0  0  0  0  0
   -6.5801   -0.8427  -20.2052 C   0  0  0  0  0  0  0  0  0  0  0  0
   -6.9424   -0.9899  -18.8918 C   0  0  0  0  0  0  0  0  0  0  0  0
   -6.2919   -0.4367  -17.8398 N   0  0  0  0  0  0  0  0  0  0  0  0
   -5.2340    0.2852  -18.1132 C   0  0  0  0  0  0  0  0  0  0  0  0
   -4.7551    0.5404  -19.4272 C   0  0  0  0  0  0  0  0  0  0  0  0
   -3.6179    1.3459  -19.6738 C   0  0  0  0  0  0  0  0  0  0  0  0
   -3.2263    1.6242  -20.9567 C   0  0  0  0  0  0  0  0  0  0  0  0
   -3.9635    1.1143  -22.0480 C   0  0  0  0  0  0  0  0  0  0  0  0
   -5.0634    0.3237  -21.8361 C   0  0  0  0  0  0  0  0  0  0  0  0
   -5.4727   -0.0044  -20.5148 C   0  0  0  0  0  0  0  0  0  0  0  0
   -5.6391   -0.0407  -22.6817 H   0  0  0  0  0  0  0  0  0  0  0  0
   -3.6572    1.3629  -23.0605 H   0  0  0  0  0  0  0  0  0  0  0  0
   -2.3581    2.2475  -21.1393 H   0  0  0  0  0  0  0  0  0  0  0  0
   -3.0808    1.7515  -18.8236 H   0  0  0  0  0  0  0  0  0  0  0  0
   -4.7100    0.7270  -17.2663 H   0  0  0  0  0  0  0  0  0  0  0  0
   -7.8271   -1.5760  -18.6408 H   0  0  0  0  0  0  0  0  0  0  0  0
   -6.8918   -1.7286  -22.1562 H   0  0  0  0  0  0  0  0  0  0  0  0
   -7.9354   -2.3348  -20.8686 H   0  0  0  0  0  0  0  0  0  0  0  0
   -9.7327   -2.2927  -22.7188 C   0  0  0  0  0  0  0  0  0  0  0  0
  -10.6109   -2.4690  -23.9489 C   0  0  0  0  0  0  0  0  0  0  0  0
  -10.6339   -3.5135  -24.2637 H   0  0  0  0  0  0  0  0  0  0  0  0
  -10.1269   -1.9244  -24.7653 H   0  0  0  0  0  0  0  0  0  0  0  0
   -8.7674   -2.7804  -22.8762 H   0  0  0  0  0  0  0  0  0  0  0  0
  -10.2092   -2.7702  -21.8459 H   0  0  0  0  0  0  0  0  0  0  0  0
  -10.4709    0.3600  -23.9260 H   0  0  0  0  0  0  0  0  0  0  0  0
  -10.5507    0.9132  -22.2527 H   0  0  0  0  0  0  0  0  0  0  0  0
  -12.8102   -0.1073  -22.8178 H   0  0  0  0  0  0  0  0  0  0  0  0
  -11.9197   -1.1547  -21.7340 H   0  0  0  0  0  0  0  0  0  0  0  0
  -12.2971   -1.4359  -24.7358 H   0  0  0  0  0  0  0  0  0  0  0  0
  -13.0088   -3.7196  -24.2141 H   0  0  0  0  0  0  0  0  0  0  0  0
  -13.9241   -4.3541  -22.0539 H   0  0  0  0  0  0  0  0  0  0  0  0
  -13.3206   -2.8834  -21.3008 H   0  0  0  0  0  0  0  0  0  0  0  0
  -12.1801   -4.0920  -21.9103 H   0  0  0  0  0  0  0  0  0  0  0  0
  1  2  1  0
  2  3  1  0
  3  4  1  0
  3  5  1  0
  3  6  1  0
  2  7  1  0
  7  8  1  0
  8  9  1  0
  9 10  1  0
 10 11  1  0
 11 12  2  0
 11 13  1  0
 13 14  1  0
 14 15  2  0
 15 16  1  0
 16 17  2  0
 17 18  1  0
 18 19  2  0
 19 20  1  0
 20 21  2  0
 21 22  1  0
 22 23  2  0
 22 24  1  0
 21 25  1  0
 20 26  1  0
 19 27  1  0
 17 28  1  0
 15 29  1  0
 13 30  1  0
 13 31  1  0
 10 32  1  0
 32 33  1  0
 33 34  1  0
 33 35  1  0
 32 36  1  0
 32 37  1  0
  9 38  1  0
  9 39  1  0
  8 40  1  0
  8 41  1  0
  7 42  1  0
  2 43  1  0
  1 44  1  0
  1 45  1  0
  1 46  1  0
 33  7  1  0
 23 14  1  0
 23 18  1  0
M  END
>  <cnnaffinities>  (46) 
[5.09277, 5.08984, 5.08768, 5.19758]

>  <score>  (46) 
5.09277

>  <index>  (46) 
48

>  <Smiles>  (46) 
C(C(C([H])([H])[H])(C1(C(C(N(C(=O)C(c2c(nc(c3c(c(c(c(c23)[H])[H])[H])[H])[H])[H])([H])[H])C(C1([H])[H])([H])[H])([H])[H])([H])[H])[H])[H])([H])([H])[H]

>  <h>  (46) 
<NA>

>  <Training>  (46) 
True

>  <Success>  (46) 
True

>  <enamine_searched>  (46) 
False

>  <enamine_id>  (46) 
nan

$$$$

     RDKit          3D

 67 72  0  0  0  0  0  0  0  0999 V2000
   -7.7618   -6.0355  -26.7660 C   0  0  0  0  0  0  0  0  0  0  0  0
   -8.0716   -4.6337  -26.9893 N   0  0  0  0  0  0  0  0  0  0  0  0
   -7.1288   -3.6998  -26.7221 C   0  0  0  0  0  0  0  0  0  0  0  0
   -6.0042   -4.0029  -26.3481 O   0  0  0  0  0  0  0  0  0  0  0  0
   -7.5842   -2.2400  -26.8567 C   0  0  0  0  0  0  0  0  0  0  0  0
   -8.4412   -1.8447  -25.7445 N   0  0  0  0  0  0  0  0  0  0  0  0
   -7.8713   -1.2801  -24.5197 C   0  0  0  0  0  0  0  0  0  0  0  0
   -8.7284   -1.5331  -23.2361 C   0  0  2  0  0  0  0  0  0  0  0  0
   -8.1815   -0.5806  -22.1588 C   0  0  0  0  0  0  0  0  0  0  0  0
   -8.3273    0.6194  -22.0835 O   0  0  0  0  0  0  0  0  0  0  0  0
   -7.3820   -1.3175  -21.3057 N   0  0  0  0  0  0  0  0  0  0  0  0
   -6.6119   -0.7462  -20.2679 C   0  0  0  0  0  0  0  0  0  0  0  0
   -6.9322   -1.0033  -18.9594 C   0  0  0  0  0  0  0  0  0  0  0  0
   -6.2675   -0.4982  -17.8943 N   0  0  0  0  0  0  0  0  0  0  0  0
   -5.2185    0.2477  -18.1377 C   0  0  0  0  0  0  0  0  0  0  0  0
   -4.7457    0.5511  -19.4449 C   0  0  0  0  0  0  0  0  0  0  0  0
   -3.5966    1.3577  -19.6527 C   0  0  0  0  0  0  0  0  0  0  0  0
   -3.1604    1.6252  -20.9204 C   0  0  0  0  0  0  0  0  0  0  0  0
   -3.8420    1.0889  -22.0371 C   0  0  0  0  0  0  0  0  0  0  0  0
   -4.9541    0.3050  -21.8628 C   0  0  0  0  0  0  0  0  0  0  0  0
   -5.4487    0.0352  -20.5550 C   0  0  0  0  0  0  0  0  0  0  0  0
   -5.4706   -0.1080  -22.7259 H   0  0  0  0  0  0  0  0  0  0  0  0
   -3.4858    1.3070  -23.0390 H   0  0  0  0  0  0  0  0  0  0  0  0
   -2.2907    2.2573  -21.0776 H   0  0  0  0  0  0  0  0  0  0  0  0
   -3.0848    1.7587  -18.7822 H   0  0  0  0  0  0  0  0  0  0  0  0
   -4.6856    0.6485  -17.2760 H   0  0  0  0  0  0  0  0  0  0  0  0
   -7.7869   -1.6393  -18.7297 H   0  0  0  0  0  0  0  0  0  0  0  0
   -7.3403   -2.7343  -21.5813 C   0  0  0  0  0  0  0  0  0  0  0  0
   -8.5008   -2.9187  -22.5520 C   0  0  2  0  0  0  0  0  0  0  0  0
   -8.3277   -4.0896  -23.5100 C   0  0  0  0  0  0  0  0  0  0  0  0
   -8.2839   -5.3489  -22.8193 N   0  0  0  0  0  0  0  0  0  0  0  0
   -7.1442   -6.0480  -22.5384 C   0  0  0  0  0  0  0  0  0  0  0  0
   -6.9575   -7.0836  -21.6706 C   0  0  0  0  0  0  0  0  0  0  0  0
   -5.6996   -7.6378  -21.6336 N   0  0  0  0  0  0  0  0  0  0  0  0
   -4.9082   -7.0363  -22.4616 C   0  0  0  0  0  0  0  0  0  0  0  0
   -3.4712   -7.3727  -22.6781 C   0  0  0  0  0  0  0  0  0  0  0  0
   -3.2657   -7.6336  -23.7223 H   0  0  0  0  0  0  0  0  0  0  0  0
   -3.2120   -8.2239  -22.0504 H   0  0  0  0  0  0  0  0  0  0  0  0
   -2.8388   -6.5269  -22.3973 H   0  0  0  0  0  0  0  0  0  0  0  0
   -5.6449   -5.7163  -23.3515 S   0  0  0  0  0  0  0  0  0  0  0  0
   -7.7205   -7.4659  -21.0130 H   0  0  0  0  0  0  0  0  0  0  0  0
   -9.1557   -5.7133  -22.4768 H   0  0  0  0  0  0  0  0  0  0  0  0
   -7.4048   -3.9590  -24.0826 H   0  0  0  0  0  0  0  0  0  0  0  0
   -9.1846   -4.0945  -24.1902 H   0  0  0  0  0  0  0  0  0  0  0  0
   -9.3958   -3.1048  -21.9415 H   0  0  0  0  0  0  0  0  0  0  0  0
   -6.3787   -3.0564  -22.0082 H   0  0  0  0  0  0  0  0  0  0  0  0
   -7.4734   -3.2830  -20.6507 H   0  0  0  0  0  0  0  0  0  0  0  0
  -10.1987   -1.3447  -23.5472 C   0  0  0  0  0  0  0  0  0  0  0  0
  -11.1555   -1.2019  -22.5245 C   0  0  0  0  0  0  0  0  0  0  0  0
  -12.5087   -1.2193  -22.8334 C   0  0  0  0  0  0  0  0  0  0  0  0
  -13.7068   -1.3421  -21.5799 Cl  0  0  0  0  0  0  0  0  0  0  0  0
  -12.9549   -1.2489  -24.1540 C   0  0  0  0  0  0  0  0  0  0  0  0
  -12.0195   -1.4177  -25.1536 C   0  0  0  0  0  0  0  0  0  0  0  0
  -10.6674   -1.5161  -24.8518 C   0  0  0  0  0  0  0  0  0  0  0  0
   -9.7797   -1.9326  -25.9682 C   0  0  0  0  0  0  0  0  0  0  0  0
  -10.2403   -2.3787  -27.0194 O   0  0  0  0  0  0  0  0  0  0  0  0
  -12.2907   -1.5337  -26.1981 H   0  0  0  0  0  0  0  0  0  0  0  0
  -14.0166   -1.1839  -24.3671 H   0  0  0  0  0  0  0  0  0  0  0  0
  -10.8777   -1.0775  -21.4842 H   0  0  0  0  0  0  0  0  0  0  0  0
   -7.7444   -0.1955  -24.6336 H   0  0  0  0  0  0  0  0  0  0  0  0
   -6.8675   -1.7053  -24.3785 H   0  0  0  0  0  0  0  0  0  0  0  0
   -6.7028   -1.5998  -26.9032 H   0  0  0  0  0  0  0  0  0  0  0  0
   -8.1732   -2.1181  -27.7729 H   0  0  0  0  0  0  0  0  0  0  0  0
   -9.0077   -4.3358  -27.2263 H   0  0  0  0  0  0  0  0  0  0  0  0
   -6.9347   -6.3470  -27.4135 H   0  0  0  0  0  0  0  0  0  0  0  0
   -7.4578   -6.2031  -25.7226 H   0  0  0  0  0  0  0  0  0  0  0  0
   -8.6438   -6.6370  -26.9968 H   0  0  0  0  0  0  0  0  0  0  0  0
  1  2  1  0
  2  3  1  0
  3  4  2  0
  3  5  1  0
  5  6  1  0
  6  7  1  0
  8  7  1  6
  8  9  1  0
  9 10  2  0
  9 11  1  0
 11 12  1  0
 12 13  2  0
 13 14  1  0
 14 15  2  0
 15 16  1  0
 16 17  2  0
 17 18  1  0
 18 19  2  0
 19 20  1  0
 20 21  2  0
 20 22  1  0
 19 23  1  0
 18 24  1  0
 17 25  1  0
 15 26  1  0
 13 27  1  0
 11 28  1  0
 28 29  1  0
 29 30  1  0
 30 31  1  0
 31 32  1  0
 32 33  2  0
 33 34  1  0
 34 35  2  0
 35 36  1  0
 36 37  1  0
 36 38  1  0
 36 39  1  0
 35 40  1  0
 33 41  1  0
 31 42  1  0
 30 43  1  0
 30 44  1  0
 29 45  1  1
 28 46  1  0
 28 47  1  0
  8 48  1  0
 48 49  2  0
 49 50  1  0
 50 51  1  0
 50 52  2  0
 52 53  1  0
 53 54  2  0
 54 55  1  0
 55 56  2  0
 53 57  1  0
 52 58  1  0
 49 59  1  0
  7 60  1  0
  7 61  1  0
  5 62  1  0
  5 63  1  0
  2 64  1  0
  1 65  1  0
  1 66  1  0
  1 67  1  0
 55  6  1  0
 29  8  1  0
 40 32  1  0
 54 48  1  0
 21 12  1  0
 21 16  1  0
M  END
>  <cnnaffinities>  (47) 
[6.78693]

>  <score>  (47) 
6.78693

>  <index>  (47) 
49

>  <Smiles>  (47) 
C(N(C(=O)C(N1C([C@@]2(C(=O)N(c3c(nc(c4c(c(c(c(c34)[H])[H])[H])[H])[H])[H])C([C@@]2(C(N(c2c(nc(C([H])([H])[H])s2)[H])[H])([H])[H])[H])([H])[H])c2c(c(Cl)c(c(c2C1=O)[H])[H])[H])([H])[H])([H])[H])[H])([H])([H])[H]

>  <h>  (47) 
<NA>

>  <Training>  (47) 
True

>  <Success>  (47) 
True

>  <enamine_searched>  (47) 
False

>  <enamine_id>  (47) 
nan

$$$$

     RDKit          3D

 66 70  0  0  0  0  0  0  0  0999 V2000
   -7.5091    3.0698  -21.8561 C   0  0  0  0  0  0  0  0  0  0  0  0
   -8.6627    2.5395  -22.5576 N   0  0  0  0  0  0  0  0  0  0  0  0
   -8.4302    1.7119  -23.6161 C   0  0  0  0  0  0  0  0  0  0  0  0
   -7.2969    1.3856  -23.9586 O   0  0  0  0  0  0  0  0  0  0  0  0
   -9.6559    1.2181  -24.3662 C   0  0  0  0  0  0  0  0  0  0  0  0
  -10.1077   -0.0456  -23.8380 N   0  0  0  0  0  0  0  0  0  0  0  0
   -9.2414   -1.2110  -23.8709 C   0  0  0  0  0  0  0  0  0  0  0  0
   -9.3109   -1.9619  -22.5179 C   0  0  2  0  0  0  0  0  0  0  0  0
   -8.7088   -1.0186  -21.4385 C   0  0  0  0  0  0  0  0  0  0  0  0
   -9.2389   -0.0406  -20.9468 O   0  0  0  0  0  0  0  0  0  0  0  0
   -7.4150   -1.4282  -21.1771 N   0  0  0  0  0  0  0  0  0  0  0  0
   -6.6208   -0.8156  -20.1793 C   0  0  0  0  0  0  0  0  0  0  0  0
   -6.9488   -0.9983  -18.8580 C   0  0  0  0  0  0  0  0  0  0  0  0
   -6.2528   -0.4780  -17.8244 N   0  0  0  0  0  0  0  0  0  0  0  0
   -5.1926    0.2365  -18.1049 C   0  0  0  0  0  0  0  0  0  0  0  0
   -4.7468    0.5164  -19.4246 C   0  0  0  0  0  0  0  0  0  0  0  0
   -3.6205    1.3452  -19.6647 C   0  0  0  0  0  0  0  0  0  0  0  0
   -3.2457    1.6493  -20.9439 C   0  0  0  0  0  0  0  0  0  0  0  0
   -3.9790    1.1402  -22.0371 C   0  0  0  0  0  0  0  0  0  0  0  0
   -5.0754    0.3307  -21.8306 C   0  0  0  0  0  0  0  0  0  0  0  0
   -5.4810   -0.0170  -20.5117 C   0  0  0  0  0  0  0  0  0  0  0  0
   -5.6704    0.0271  -22.6857 H   0  0  0  0  0  0  0  0  0  0  0  0
   -3.6857    1.4043  -23.0489 H   0  0  0  0  0  0  0  0  0  0  0  0
   -2.3950    2.3011  -21.1228 H   0  0  0  0  0  0  0  0  0  0  0  0
   -3.0858    1.7461  -18.8079 H   0  0  0  0  0  0  0  0  0  0  0  0
   -4.6302    0.6446  -17.2650 H   0  0  0  0  0  0  0  0  0  0  0  0
   -7.8119   -1.6092  -18.6037 H   0  0  0  0  0  0  0  0  0  0  0  0
   -6.9918   -2.5642  -21.9731 C   0  0  0  0  0  0  0  0  0  0  0  0
   -8.3308   -3.1623  -22.4402 C   0  0  2  0  0  0  0  0  0  0  0  0
   -8.2055   -4.0029  -23.7101 C   0  0  0  0  0  0  0  0  0  0  0  0
   -7.4320   -5.1525  -23.4652 O   0  0  0  0  0  0  0  0  0  0  0  0
   -6.1563   -5.2208  -24.0883 C   0  0  0  0  0  0  0  0  0  0  0  0
   -6.2647   -5.7361  -25.5183 C   0  0  0  0  0  0  0  0  0  0  0  0
   -6.8724   -5.0754  -26.1451 H   0  0  0  0  0  0  0  0  0  0  0  0
   -5.2699   -5.8104  -25.9693 H   0  0  0  0  0  0  0  0  0  0  0  0
   -6.7245   -6.7290  -25.5268 H   0  0  0  0  0  0  0  0  0  0  0  0
   -5.3284   -6.1351  -23.2040 C   0  0  0  0  0  0  0  0  0  0  0  0
   -5.7842   -7.1303  -23.1901 H   0  0  0  0  0  0  0  0  0  0  0  0
   -5.3205   -5.7466  -22.1810 H   0  0  0  0  0  0  0  0  0  0  0  0
   -4.2957   -6.2217  -23.5585 H   0  0  0  0  0  0  0  0  0  0  0  0
   -5.7052   -4.2154  -24.1046 H   0  0  0  0  0  0  0  0  0  0  0  0
   -7.7649   -3.3909  -24.5152 H   0  0  0  0  0  0  0  0  0  0  0  0
   -9.2053   -4.3213  -24.0399 H   0  0  0  0  0  0  0  0  0  0  0  0
   -8.6594   -3.8251  -21.6347 H   0  0  0  0  0  0  0  0  0  0  0  0
   -6.3767   -2.2501  -22.8329 H   0  0  0  0  0  0  0  0  0  0  0  0
   -6.4003   -3.2656  -21.3743 H   0  0  0  0  0  0  0  0  0  0  0  0
  -10.7833   -2.2792  -22.2904 C   0  0  0  0  0  0  0  0  0  0  0  0
  -11.2305   -3.3974  -21.5766 C   0  0  0  0  0  0  0  0  0  0  0  0
  -12.5566   -3.4704  -21.1849 C   0  0  0  0  0  0  0  0  0  0  0  0
  -12.9301   -4.3967  -20.2877 F   0  0  0  0  0  0  0  0  0  0  0  0
  -13.5310   -2.5841  -21.6177 C   0  0  0  0  0  0  0  0  0  0  0  0
  -13.1163   -1.5419  -22.4135 C   0  0  0  0  0  0  0  0  0  0  0  0
  -11.7684   -1.3737  -22.7174 C   0  0  0  0  0  0  0  0  0  0  0  0
  -11.4136   -0.1383  -23.4638 C   0  0  0  0  0  0  0  0  0  0  0  0
  -12.2386    0.7368  -23.6953 O   0  0  0  0  0  0  0  0  0  0  0  0
  -13.8173   -0.8145  -22.8004 H   0  0  0  0  0  0  0  0  0  0  0  0
  -14.5629   -2.7175  -21.3108 H   0  0  0  0  0  0  0  0  0  0  0  0
  -10.5666   -4.1934  -21.2627 H   0  0  0  0  0  0  0  0  0  0  0  0
   -9.5643   -1.8865  -24.6750 H   0  0  0  0  0  0  0  0  0  0  0  0
   -8.2217   -0.8766  -24.0788 H   0  0  0  0  0  0  0  0  0  0  0  0
  -10.4848    1.9173  -24.2376 H   0  0  0  0  0  0  0  0  0  0  0  0
   -9.4190    1.1229  -25.4335 H   0  0  0  0  0  0  0  0  0  0  0  0
   -9.5152    2.4440  -22.0112 H   0  0  0  0  0  0  0  0  0  0  0  0
   -6.8914    2.2648  -21.4409 H   0  0  0  0  0  0  0  0  0  0  0  0
   -7.8384    3.7376  -21.0581 H   0  0  0  0  0  0  0  0  0  0  0  0
   -6.8931    3.6702  -22.5291 H   0  0  0  0  0  0  0  0  0  0  0  0
  1  2  1  0
  2  3  1  0
  3  4  2  0
  3  5  1  0
  5  6  1  0
  6  7  1  0
  8  7  1  6
  8  9  1  0
  9 10  2  0
  9 11  1  0
 11 12  1  0
 12 13  2  0
 13 14  1  0
 14 15  2  0
 15 16  1  0
 16 17  2  0
 17 18  1  0
 18 19  2  0
 19 20  1  0
 20 21  2  0
 20 22  1  0
 19 23  1  0
 18 24  1  0
 17 25  1  0
 15 26  1  0
 13 27  1  0
 11 28  1  0
 28 29  1  0
 29 30  1  0
 30 31  1  0
 31 32  1  0
 32 33  1  0
 33 34  1  0
 33 35  1  0
 33 36  1  0
 32 37  1  0
 37 38  1  0
 37 39  1  0
 37 40  1  0
 32 41  1  0
 30 42  1  0
 30 43  1  0
 29 44  1  1
 28 45  1  0
 28 46  1  0
  8 47  1  0
 47 48  2  0
 48 49  1  0
 49 50  1  0
 49 51  2  0
 51 52  1  0
 52 53  2  0
 53 54  1  0
 54 55  2  0
 52 56  1  0
 51 57  1  0
 48 58  1  0
  7 59  1  0
  7 60  1  0
  5 61  1  0
  5 62  1  0
  2 63  1  0
  1 64  1  0
  1 65  1  0
  1 66  1  0
 54  6  1  0
 29  8  1  0
 53 47  1  0
 21 12  1  0
 21 16  1  0
M  END
>  <cnnaffinities>  (48) 
[6.83082, 6.89847, 6.63557, 6.87896]

>  <score>  (48) 
6.83082

>  <index>  (48) 
50

>  <Smiles>  (48) 
C(N(C(=O)C(N1C([C@@]2(C(=O)N(c3c(nc(c4c(c(c(c(c34)[H])[H])[H])[H])[H])[H])C([C@@]2(C(OC(C([H])([H])[H])(C([H])([H])[H])[H])([H])[H])[H])([H])[H])c2c(c(F)c(c(c2C1=O)[H])[H])[H])([H])[H])([H])[H])[H])([H])([H])[H]

>  <h>  (48) 
<NA>

>  <Training>  (48) 
True

>  <Success>  (48) 
True

>  <enamine_searched>  (48) 
False

>  <enamine_id>  (48) 
nan

$$$$

     RDKit          3D

 50 52  0  0  0  0  0  0  0  0999 V2000
   -7.6744   -3.8228  -26.4575 C   0  0  0  0  0  0  0  0  0  0  0  0
   -6.8826   -3.4740  -25.4479 C   0  0  0  0  0  0  0  0  0  0  0  0
   -7.1294   -3.9084  -24.0220 C   0  0  0  0  0  0  0  0  0  0  0  0
   -7.5559   -2.7984  -23.1783 N   0  0  0  0  0  0  0  0  0  0  0  0
   -6.6771   -2.3437  -22.2110 C   0  0  0  0  0  0  0  0  0  0  0  0
   -5.5054   -2.6957  -22.1633 O   0  0  0  0  0  0  0  0  0  0  0  0
   -7.2493   -1.4574  -21.3261 N   0  0  0  0  0  0  0  0  0  0  0  0
   -6.5261   -0.8708  -20.2731 C   0  0  0  0  0  0  0  0  0  0  0  0
   -6.9135   -1.0523  -18.9726 C   0  0  0  0  0  0  0  0  0  0  0  0
   -6.2734   -0.5221  -17.9044 N   0  0  0  0  0  0  0  0  0  0  0  0
   -5.2108    0.2086  -18.1396 C   0  0  0  0  0  0  0  0  0  0  0  0
   -4.7213    0.4982  -19.4428 C   0  0  0  0  0  0  0  0  0  0  0  0
   -3.6017    1.3441  -19.6601 C   0  0  0  0  0  0  0  0  0  0  0  0
   -3.2133    1.6675  -20.9323 C   0  0  0  0  0  0  0  0  0  0  0  0
   -3.9216    1.1604  -22.0441 C   0  0  0  0  0  0  0  0  0  0  0  0
   -4.9911    0.3278  -21.8618 C   0  0  0  0  0  0  0  0  0  0  0  0
   -5.4065   -0.0404  -20.5511 C   0  0  0  0  0  0  0  0  0  0  0  0
   -5.5356   -0.0541  -22.7187 H   0  0  0  0  0  0  0  0  0  0  0  0
   -3.6130    1.4382  -23.0491 H   0  0  0  0  0  0  0  0  0  0  0  0
   -2.3796    2.3425  -21.0897 H   0  0  0  0  0  0  0  0  0  0  0  0
   -3.0795    1.7464  -18.7965 H   0  0  0  0  0  0  0  0  0  0  0  0
   -4.6908    0.6185  -17.2738 H   0  0  0  0  0  0  0  0  0  0  0  0
   -7.7880   -1.6632  -18.7543 H   0  0  0  0  0  0  0  0  0  0  0  0
   -8.2596   -1.4377  -21.2630 H   0  0  0  0  0  0  0  0  0  0  0  0
   -8.7366   -2.0877  -23.5577 C   0  0  0  0  0  0  0  0  0  0  0  0
   -8.6919   -0.7373  -23.9143 C   0  0  0  0  0  0  0  0  0  0  0  0
   -9.8462   -0.0780  -24.3165 C   0  0  0  0  0  0  0  0  0  0  0  0
  -11.0732   -0.7285  -24.3048 C   0  0  0  0  0  0  0  0  0  0  0  0
  -11.1085   -2.0614  -23.9142 C   0  0  0  0  0  0  0  0  0  0  0  0
  -12.6463   -2.8673  -23.8083 Cl  0  0  0  0  0  0  0  0  0  0  0  0
   -9.9496   -2.7679  -23.6136 C   0  0  0  0  0  0  0  0  0  0  0  0
   -9.9744   -3.8384  -23.4278 H   0  0  0  0  0  0  0  0  0  0  0  0
  -11.9791   -0.2240  -24.6264 H   0  0  0  0  0  0  0  0  0  0  0  0
   -9.7944    0.9567  -24.6400 H   0  0  0  0  0  0  0  0  0  0  0  0
   -7.7521   -0.1958  -23.8671 H   0  0  0  0  0  0  0  0  0  0  0  0
   -7.9177   -4.6694  -24.0078 H   0  0  0  0  0  0  0  0  0  0  0  0
   -6.2416   -4.3421  -23.5543 H   0  0  0  0  0  0  0  0  0  0  0  0
   -5.7973   -2.4950  -25.7994 C   0  0  0  0  0  0  0  0  0  0  0  0
   -5.8677   -1.8318  -26.8307 O   0  0  0  0  0  0  0  0  0  0  0  0
   -4.7389   -2.4092  -24.9648 N   0  0  0  0  0  0  0  0  0  0  0  0
   -3.8369   -1.2926  -25.1700 C   0  0  0  0  0  0  0  0  0  0  0  0
   -2.6946   -1.4245  -24.1871 C   0  0  0  0  0  0  0  0  0  0  0  0
   -2.0879   -0.5191  -24.1380 H   0  0  0  0  0  0  0  0  0  0  0  0
   -3.1316   -1.5846  -23.1872 H   0  0  0  0  0  0  0  0  0  0  0  0
   -2.0255   -2.2522  -24.4535 H   0  0  0  0  0  0  0  0  0  0  0  0
   -4.3653   -0.3379  -25.0040 H   0  0  0  0  0  0  0  0  0  0  0  0
   -3.5265   -1.2910  -26.2231 H   0  0  0  0  0  0  0  0  0  0  0  0
   -4.7870   -2.7926  -24.0240 H   0  0  0  0  0  0  0  0  0  0  0  0
   -7.4780   -3.3914  -27.4360 H   0  0  0  0  0  0  0  0  0  0  0  0
   -8.4987   -4.5181  -26.3173 H   0  0  0  0  0  0  0  0  0  0  0  0
  1  2  2  0
  2  3  1  0
  3  4  1  0
  4  5  1  0
  5  6  2  0
  5  7  1  0
  7  8  1  0
  8  9  2  0
  9 10  1  0
 10 11  2  0
 11 12  1  0
 12 13  2  0
 13 14  1  0
 14 15  2  0
 15 16  1  0
 16 17  2  0
 16 18  1  0
 15 19  1  0
 14 20  1  0
 13 21  1  0
 11 22  1  0
  9 23  1  0
  7 24  1  0
  4 25  1  0
 25 26  2  0
 26 27  1  0
 27 28  2  0
 28 29  1  0
 29 30  1  0
 29 31  2  0
 31 32  1  0
 28 33  1  0
 27 34  1  0
 26 35  1  0
  3 36  1  0
  3 37  1  0
  2 38  1  0
 38 39  2  0
 38 40  1  0
 40 41  1  0
 41 42  1  0
 42 43  1  0
 42 44  1  0
 42 45  1  0
 41 46  1  0
 41 47  1  0
 40 48  1  0
  1 49  1  0
  1 50  1  0
 17  8  1  0
 31 25  1  0
 17 12  1  0
M  END
>  <cnnaffinities>  (49) 
[5.98298, 6.0341, 6.04614]

>  <score>  (49) 
5.98298

>  <index>  (49) 
51

>  <Smiles>  (49) 
C(=C(C(N(C(=O)N(c1c(nc(c2c(c(c(c(c12)[H])[H])[H])[H])[H])[H])[H])c1c(c(c(c(Cl)c1[H])[H])[H])[H])([H])[H])C(=O)N(C(C([H])([H])[H])([H])[H])[H])([H])[H]

>  <h>  (49) 
<NA>

>  <Training>  (49) 
True

>  <Success>  (49) 
True

>  <enamine_searched>  (49) 
False

>  <enamine_id>  (49) 
nan

$$$$

     RDKit          3D

 57 60  0  0  0  0  0  0  0  0999 V2000
  -13.9546   -1.1882  -23.9999 C   0  0  0  0  0  0  0  0  0  0  0  0
  -12.9450   -2.2609  -23.5919 C   0  0  0  0  0  0  0  0  0  0  0  0
  -11.4752   -1.8805  -23.6275 C   0  0  0  0  0  0  0  0  0  0  0  0
  -10.8603   -1.6820  -22.5909 O   0  0  0  0  0  0  0  0  0  0  0  0
  -10.8679   -1.8364  -24.8636 N   0  0  0  0  0  0  0  0  0  0  0  0
   -9.4653   -1.6982  -25.0165 C   0  0  0  0  0  0  0  0  0  0  0  0
   -8.9063   -0.9695  -26.0720 C   0  0  0  0  0  0  0  0  0  0  0  0
   -7.5387   -0.7100  -26.0984 C   0  0  0  0  0  0  0  0  0  0  0  0
   -6.7050   -1.2738  -25.1399 C   0  0  0  0  0  0  0  0  0  0  0  0
   -7.2541   -2.0831  -24.1486 C   0  0  0  0  0  0  0  0  0  0  0  0
   -6.4020   -2.7216  -23.2014 N   0  0  0  0  0  0  0  0  0  0  0  0
   -5.4242   -3.6828  -23.7089 C   0  0  0  0  0  0  0  0  0  0  0  0
   -6.0474   -5.0173  -24.0676 C   0  0  0  0  0  0  0  0  0  0  0  0
   -6.6801   -5.1880  -25.2994 C   0  0  0  0  0  0  0  0  0  0  0  0
   -7.3136   -6.3861  -25.6079 C   0  0  0  0  0  0  0  0  0  0  0  0
   -7.3189   -7.4257  -24.6849 C   0  0  0  0  0  0  0  0  0  0  0  0
   -6.6667   -7.2778  -23.4656 C   0  0  0  0  0  0  0  0  0  0  0  0
   -6.0413   -6.0742  -23.1570 C   0  0  0  0  0  0  0  0  0  0  0  0
   -5.5514   -5.9495  -22.1940 H   0  0  0  0  0  0  0  0  0  0  0  0
   -6.6306   -8.1033  -22.7576 H   0  0  0  0  0  0  0  0  0  0  0  0
   -7.8565   -8.3386  -24.9220 H   0  0  0  0  0  0  0  0  0  0  0  0
   -7.7975   -6.5182  -26.5732 H   0  0  0  0  0  0  0  0  0  0  0  0
   -6.6824   -4.3726  -26.0212 H   0  0  0  0  0  0  0  0  0  0  0  0
   -4.6732   -3.7919  -22.9241 H   0  0  0  0  0  0  0  0  0  0  0  0
   -4.9489   -3.2472  -24.5957 H   0  0  0  0  0  0  0  0  0  0  0  0
   -6.6114   -2.6906  -21.8345 C   0  0  0  0  0  0  0  0  0  0  0  0
   -6.1444   -3.5386  -21.0896 O   0  0  0  0  0  0  0  0  0  0  0  0
   -7.3781   -1.4918  -21.2774 C   0  0  0  0  0  0  0  0  0  0  0  0
   -6.5837   -0.8143  -20.1895 C   0  0  0  0  0  0  0  0  0  0  0  0
   -6.8941   -1.0171  -18.8772 C   0  0  0  0  0  0  0  0  0  0  0  0
   -6.2239   -0.4842  -17.8212 N   0  0  0  0  0  0  0  0  0  0  0  0
   -5.1770    0.2498  -18.0898 C   0  0  0  0  0  0  0  0  0  0  0  0
   -4.7232    0.5378  -19.4026 C   0  0  0  0  0  0  0  0  0  0  0  0
   -3.5889    1.3545  -19.6375 C   0  0  0  0  0  0  0  0  0  0  0  0
   -3.1865    1.6342  -20.9116 C   0  0  0  0  0  0  0  0  0  0  0  0
   -3.9000    1.0999  -22.0092 C   0  0  0  0  0  0  0  0  0  0  0  0
   -4.9985    0.3026  -21.8098 C   0  0  0  0  0  0  0  0  0  0  0  0
   -5.4478   -0.0015  -20.4951 C   0  0  0  0  0  0  0  0  0  0  0  0
   -5.5339   -0.0919  -22.6734 H   0  0  0  0  0  0  0  0  0  0  0  0
   -3.5801    1.3384  -23.0212 H   0  0  0  0  0  0  0  0  0  0  0  0
   -2.3271    2.2766  -21.0905 H   0  0  0  0  0  0  0  0  0  0  0  0
   -3.0623    1.7641  -18.7772 H   0  0  0  0  0  0  0  0  0  0  0  0
   -4.6217    0.6582  -17.2409 H   0  0  0  0  0  0  0  0  0  0  0  0
   -7.7432   -1.6514  -18.6144 H   0  0  0  0  0  0  0  0  0  0  0  0
   -7.6205   -0.7906  -22.0803 H   0  0  0  0  0  0  0  0  0  0  0  0
   -8.3327   -1.8685  -20.8850 H   0  0  0  0  0  0  0  0  0  0  0  0
   -8.6223   -2.2997  -24.0876 C   0  0  0  0  0  0  0  0  0  0  0  0
   -9.0236   -2.9626  -23.3316 H   0  0  0  0  0  0  0  0  0  0  0  0
   -5.6315   -1.1110  -25.1402 H   0  0  0  0  0  0  0  0  0  0  0  0
   -7.1152   -0.0680  -26.8709 H   0  0  0  0  0  0  0  0  0  0  0  0
   -9.5332   -0.6302  -26.8842 H   0  0  0  0  0  0  0  0  0  0  0  0
  -11.4393   -1.8671  -25.6971 H   0  0  0  0  0  0  0  0  0  0  0  0
  -13.1006   -2.5306  -22.5467 H   0  0  0  0  0  0  0  0  0  0  0  0
  -13.1028   -3.1634  -24.1846 H   0  0  0  0  0  0  0  0  0  0  0  0
  -14.9385   -1.6535  -24.1155 H   0  0  0  0  0  0  0  0  0  0  0  0
  -14.0428   -0.4212  -23.2235 H   0  0  0  0  0  0  0  0  0  0  0  0
  -13.7037   -0.6972  -24.9411 H   0  0  0  0  0  0  0  0  0  0  0  0
  1  2  1  0
  2  3  1  0
  3  4  2  0
  3  5  1  0
  5  6  1  0
  6  7  2  0
  7  8  1  0
  8  9  2  0
  9 10  1  0
 10 11  1  0
 11 12  1  0
 12 13  1  0
 13 14  2  0
 14 15  1  0
 15 16  2  0
 16 17  1  0
 17 18  2  0
 18 19  1  0
 17 20  1  0
 16 21  1  0
 15 22  1  0
 14 23  1  0
 12 24  1  0
 12 25  1  0
 11 26  1  0
 26 27  2  0
 26 28  1  0
 28 29  1  0
 29 30  2  0
 30 31  1  0
 31 32  2  0
 32 33  1  0
 33 34  2  0
 34 35  1  0
 35 36  2  0
 36 37  1  0
 37 38  2  0
 37 39  1  0
 36 40  1  0
 35 41  1  0
 34 42  1  0
 32 43  1  0
 30 44  1  0
 28 45  1  0
 28 46  1  0
 10 47  2  0
 47 48  1  0
  9 49  1  0
  8 50  1  0
  7 51  1  0
  5 52  1  0
  2 53  1  0
  2 54  1  0
  1 55  1  0
  1 56  1  0
  1 57  1  0
 47  6  1  0
 18 13  1  0
 38 29  1  0
 38 33  1  0
M  END
>  <cnnaffinities>  (50) 
[6.34532, 6.02704, 6.02786, 6.32951, 6.01285, 6.01338, 5.91398, 5.91464]

>  <score>  (50) 
6.34532

>  <index>  (50) 
52

>  <Smiles>  (50) 
C(C(C(=O)N(c1c(c(c(c(N(C(c2c(c(c(c(c2[H])[H])[H])[H])[H])([H])[H])C(=O)C(c2c(nc(c3c(c(c(c(c23)[H])[H])[H])[H])[H])[H])([H])[H])c1[H])[H])[H])[H])[H])([H])[H])([H])([H])[H]

>  <h>  (50) 
<NA>

>  <Training>  (50) 
True

>  <Success>  (50) 
True

>  <enamine_searched>  (50) 
False

>  <enamine_id>  (50) 
nan

$$$$

     RDKit          3D

 59 63  0  0  0  0  0  0  0  0999 V2000
  -13.9618   -1.0106  -24.5549 C   0  0  0  0  0  0  0  0  0  0  0  0
  -14.8493   -2.0549  -23.9053 C   0  0  0  0  0  0  0  0  0  0  0  0
  -14.0570   -3.0944  -23.2895 N   0  0  0  0  0  0  0  0  0  0  0  0
  -13.3307   -2.7645  -22.1802 C   0  0  0  0  0  0  0  0  0  0  0  0
  -13.4092   -1.6781  -21.6267 O   0  0  0  0  0  0  0  0  0  0  0  0
  -12.4369   -3.8949  -21.7087 C   0  0  0  0  0  0  0  0  0  0  0  0
  -11.1087   -3.8543  -22.3049 N   0  0  0  0  0  0  0  0  0  0  0  0
   -9.9716   -3.3280  -21.5475 C   0  0  0  0  0  0  0  0  0  0  0  0
   -8.7930   -2.8584  -22.4282 C   0  0  2  0  0  0  0  0  0  0  0  0
   -7.5646   -2.6405  -21.5229 C   0  0  0  0  0  0  0  0  0  0  0  0
   -6.7932   -3.4762  -21.0981 O   0  0  0  0  0  0  0  0  0  0  0  0
   -7.4218   -1.2945  -21.2798 N   0  0  0  0  0  0  0  0  0  0  0  0
   -6.6025   -0.8121  -20.2323 C   0  0  0  0  0  0  0  0  0  0  0  0
   -6.9312   -1.0426  -18.9203 C   0  0  0  0  0  0  0  0  0  0  0  0
   -6.2676   -0.4944  -17.8736 N   0  0  0  0  0  0  0  0  0  0  0  0
   -5.2303    0.2604  -18.1318 C   0  0  0  0  0  0  0  0  0  0  0  0
   -4.7607    0.5486  -19.4427 C   0  0  0  0  0  0  0  0  0  0  0  0
   -3.6209    1.3602  -19.6722 C   0  0  0  0  0  0  0  0  0  0  0  0
   -3.2122    1.6215  -20.9503 C   0  0  0  0  0  0  0  0  0  0  0  0
   -3.9171    1.0812  -22.0507 C   0  0  0  0  0  0  0  0  0  0  0  0
   -5.0206    0.2865  -21.8536 C   0  0  0  0  0  0  0  0  0  0  0  0
   -5.4684    0.0047  -20.5357 C   0  0  0  0  0  0  0  0  0  0  0  0
   -5.5571   -0.1415  -22.6957 H   0  0  0  0  0  0  0  0  0  0  0  0
   -3.5797    1.2932  -23.0605 H   0  0  0  0  0  0  0  0  0  0  0  0
   -2.3394    2.2439  -21.1276 H   0  0  0  0  0  0  0  0  0  0  0  0
   -3.0929    1.7636  -18.8124 H   0  0  0  0  0  0  0  0  0  0  0  0
   -4.7023    0.6886  -17.2797 H   0  0  0  0  0  0  0  0  0  0  0  0
   -7.7762   -1.6764  -18.6550 H   0  0  0  0  0  0  0  0  0  0  0  0
   -8.4324   -0.4727  -21.9118 C   0  0  0  0  0  0  0  0  0  0  0  0
   -9.0226   -1.4044  -22.9864 C   0  0  2  0  0  0  0  0  0  0  0  0
  -10.4615   -1.0536  -23.3498 C   0  0  0  0  0  0  0  0  0  0  0  0
  -10.5442   -0.0823  -23.8465 H   0  0  0  0  0  0  0  0  0  0  0  0
  -11.1035   -1.0133  -22.4623 H   0  0  0  0  0  0  0  0  0  0  0  0
  -10.8780   -1.8049  -24.0286 H   0  0  0  0  0  0  0  0  0  0  0  0
   -8.3973   -1.3352  -23.8866 H   0  0  0  0  0  0  0  0  0  0  0  0
   -7.9872    0.4415  -22.3207 H   0  0  0  0  0  0  0  0  0  0  0  0
   -9.1966   -0.1508  -21.1850 H   0  0  0  0  0  0  0  0  0  0  0  0
   -8.5320   -3.9116  -23.4791 C   0  0  0  0  0  0  0  0  0  0  0  0
   -7.2582   -4.0734  -24.0355 C   0  0  0  0  0  0  0  0  0  0  0  0
   -7.0474   -5.0391  -25.0048 C   0  0  0  0  0  0  0  0  0  0  0  0
   -5.4487   -5.2316  -25.6789 Cl  0  0  0  0  0  0  0  0  0  0  0  0
   -8.0737   -5.8900  -25.4205 C   0  0  0  0  0  0  0  0  0  0  0  0
   -9.3423   -5.7081  -24.9029 C   0  0  0  0  0  0  0  0  0  0  0  0
   -9.5702   -4.7198  -23.9517 C   0  0  0  0  0  0  0  0  0  0  0  0
  -10.9630   -4.5358  -23.4740 C   0  0  0  0  0  0  0  0  0  0  0  0
  -11.9294   -4.9740  -24.1005 O   0  0  0  0  0  0  0  0  0  0  0  0
  -10.1850   -6.3125  -25.2280 H   0  0  0  0  0  0  0  0  0  0  0  0
   -7.8699   -6.6785  -26.1359 H   0  0  0  0  0  0  0  0  0  0  0  0
   -6.4202   -3.4897  -23.6705 H   0  0  0  0  0  0  0  0  0  0  0  0
   -9.6007   -4.0891  -20.8608 H   0  0  0  0  0  0  0  0  0  0  0  0
  -10.2841   -2.4666  -20.9502 H   0  0  0  0  0  0  0  0  0  0  0  0
  -12.9539   -4.7720  -22.0874 H   0  0  0  0  0  0  0  0  0  0  0  0
  -12.3658   -3.9338  -20.6206 H   0  0  0  0  0  0  0  0  0  0  0  0
  -13.6433   -3.7762  -23.9192 H   0  0  0  0  0  0  0  0  0  0  0  0
  -15.4501   -1.5954  -23.1201 H   0  0  0  0  0  0  0  0  0  0  0  0
  -15.5144   -2.5330  -24.6296 H   0  0  0  0  0  0  0  0  0  0  0  0
  -14.5304   -0.2569  -25.0936 H   0  0  0  0  0  0  0  0  0  0  0  0
  -13.2776   -1.4965  -25.2562 H   0  0  0  0  0  0  0  0  0  0  0  0
  -13.3636   -0.5052  -23.7943 H   0  0  0  0  0  0  0  0  0  0  0  0
  1  2  1  0
  2  3  1  0
  3  4  1  0
  4  5  2  0
  4  6  1  0
  6  7  1  0
  7  8  1  0
  9  8  1  1
  9 10  1  0
 10 11  2  0
 10 12  1  0
 12 13  1  0
 13 14  2  0
 14 15  1  0
 15 16  2  0
 16 17  1  0
 17 18  2  0
 18 19  1  0
 19 20  2  0
 20 21  1  0
 21 22  2  0
 21 23  1  0
 20 24  1  0
 19 25  1  0
 18 26  1  0
 16 27  1  0
 14 28  1  0
 12 29  1  0
 29 30  1  0
 30 31  1  0
 31 32  1  0
 31 33  1  0
 31 34  1  0
 30 35  1  6
 29 36  1  0
 29 37  1  0
  9 38  1  0
 38 39  2  0
 39 40  1  0
 40 41  1  0
 40 42  2  0
 42 43  1  0
 43 44  2  0
 44 45  1  0
 45 46  2  0
 43 47  1  0
 42 48  1  0
 39 49  1  0
  8 50  1  0
  8 51  1  0
  6 52  1  0
  6 53  1  0
  3 54  1  0
  2 55  1  0
  2 56  1  0
  1 57  1  0
  1 58  1  0
  1 59  1  0
 45  7  1  0
 30  9  1  0
 44 38  1  0
 22 13  1  0
 22 17  1  0
M  END
>  <cnnaffinities>  (51) 
[6.59167, 6.4273, 6.39843]

>  <score>  (51) 
6.59167

>  <index>  (51) 
53

>  <Smiles>  (51) 
C(C(N(C(=O)C(N1C([C@@]2(C(=O)N(c3c(nc(c4c(c(c(c(c34)[H])[H])[H])[H])[H])[H])C([C@@]2(C([H])([H])[H])[H])([H])[H])c2c(c(Cl)c(c(c2C1=O)[H])[H])[H])([H])[H])([H])[H])[H])([H])[H])([H])([H])[H]

>  <h>  (51) 
<NA>

>  <Training>  (51) 
True

>  <Success>  (51) 
True

>  <enamine_searched>  (51) 
False

>  <enamine_id>  (51) 
nan

$$$$

     RDKit          3D

 40 43  0  0  0  0  0  0  0  0999 V2000
  -10.3243   -2.3066  -23.0022 C   0  0  0  0  0  0  0  0  0  0  0  0
   -8.9845   -2.1726  -22.4708 N   0  0  0  0  0  0  0  0  0  0  0  0
   -7.7950   -2.6483  -22.9390 C   0  0  0  0  0  0  0  0  0  0  0  0
   -7.6699   -3.3486  -24.2489 C   0  0  0  0  0  0  0  0  0  0  0  0
   -7.6822   -2.3476  -25.3968 C   0  0  0  0  0  0  0  0  0  0  0  0
   -8.8069   -2.1637  -26.2006 C   0  0  0  0  0  0  0  0  0  0  0  0
   -8.7983   -1.2288  -27.2362 C   0  0  0  0  0  0  0  0  0  0  0  0
   -7.6643   -0.4539  -27.4645 C   0  0  0  0  0  0  0  0  0  0  0  0
   -6.5436   -0.6155  -26.6530 C   0  0  0  0  0  0  0  0  0  0  0  0
   -6.5598   -1.5529  -25.6234 C   0  0  0  0  0  0  0  0  0  0  0  0
   -5.6951   -1.6788  -24.9736 H   0  0  0  0  0  0  0  0  0  0  0  0
   -5.6541   -0.0130  -26.8245 H   0  0  0  0  0  0  0  0  0  0  0  0
   -7.6549    0.2782  -28.2694 H   0  0  0  0  0  0  0  0  0  0  0  0
   -9.6755   -1.1073  -27.8688 H   0  0  0  0  0  0  0  0  0  0  0  0
   -9.7023   -2.7560  -26.0133 H   0  0  0  0  0  0  0  0  0  0  0  0
   -6.7329   -3.9158  -24.2442 H   0  0  0  0  0  0  0  0  0  0  0  0
   -8.4914   -4.0633  -24.3786 H   0  0  0  0  0  0  0  0  0  0  0  0
   -6.7931   -2.2463  -22.2117 N   0  0  0  0  0  0  0  0  0  0  0  0
   -7.3453   -1.4562  -21.2375 N   0  0  0  0  0  0  0  0  0  0  0  0
   -6.5716   -0.8628  -20.2034 C   0  0  0  0  0  0  0  0  0  0  0  0
   -6.9035   -1.0579  -18.8845 C   0  0  0  0  0  0  0  0  0  0  0  0
   -6.2247   -0.5166  -17.8474 N   0  0  0  0  0  0  0  0  0  0  0  0
   -5.1776    0.2189  -18.1083 C   0  0  0  0  0  0  0  0  0  0  0  0
   -4.7310    0.5173  -19.4197 C   0  0  0  0  0  0  0  0  0  0  0  0
   -3.6048    1.3561  -19.6396 C   0  0  0  0  0  0  0  0  0  0  0  0
   -3.2208    1.6709  -20.9114 C   0  0  0  0  0  0  0  0  0  0  0  0
   -3.9575    1.1658  -22.0103 C   0  0  0  0  0  0  0  0  0  0  0  0
   -5.0444    0.3509  -21.8201 C   0  0  0  0  0  0  0  0  0  0  0  0
   -5.4528   -0.0238  -20.5104 C   0  0  0  0  0  0  0  0  0  0  0  0
   -5.6120   -0.0365  -22.6583 H   0  0  0  0  0  0  0  0  0  0  0  0
   -3.6495    1.4269  -23.0167 H   0  0  0  0  0  0  0  0  0  0  0  0
   -2.3657    2.3196  -21.0862 H   0  0  0  0  0  0  0  0  0  0  0  0
   -3.0787    1.7530  -18.7744 H   0  0  0  0  0  0  0  0  0  0  0  0
   -4.6280    0.6162  -17.2541 H   0  0  0  0  0  0  0  0  0  0  0  0
   -7.7545   -1.6719  -18.6079 H   0  0  0  0  0  0  0  0  0  0  0  0
   -8.6989   -1.2609  -21.4600 C   0  0  0  0  0  0  0  0  0  0  0  0
   -9.4377   -0.4330  -20.9765 O   0  0  0  0  0  0  0  0  0  0  0  0
  -10.4954   -1.5486  -23.7700 H   0  0  0  0  0  0  0  0  0  0  0  0
  -10.5084   -3.3103  -23.4007 H   0  0  0  0  0  0  0  0  0  0  0  0
  -10.9976   -2.1148  -22.1684 H   0  0  0  0  0  0  0  0  0  0  0  0
  1  2  1  0
  2  3  1  0
  3  4  1  0
  4  5  1  0
  5  6  2  0
  6  7  1  0
  7  8  2  0
  8  9  1  0
  9 10  2  0
 10 11  1  0
  9 12  1  0
  8 13  1  0
  7 14  1  0
  6 15  1  0
  4 16  1  0
  4 17  1  0
  3 18  2  0
 18 19  1  0
 19 20  1  0
 20 21  2  0
 21 22  1  0
 22 23  2  0
 23 24  1  0
 24 25  2  0
 25 26  1  0
 26 27  2  0
 27 28  1  0
 28 29  2  0
 28 30  1  0
 27 31  1  0
 26 32  1  0
 25 33  1  0
 23 34  1  0
 21 35  1  0
 19 36  1  0
 36 37  2  0
  1 38  1  0
  1 39  1  0
  1 40  1  0
 36  2  1  0
 10  5  1  0
 29 20  1  0
 29 24  1  0
M  END
>  <cnnaffinities>  (52) 
[5.03999, 5.0399, 5.45085, 5.45196]

>  <score>  (52) 
5.03999

>  <index>  (52) 
54

>  <Smiles>  (52) 
C(n1c(C(c2c(c(c(c(c2[H])[H])[H])[H])[H])([H])[H])nn(c2c(nc(c3c(c(c(c(c23)[H])[H])[H])[H])[H])[H])c1=O)([H])([H])[H]

>  <h>  (52) 
<NA>

>  <Training>  (52) 
True

>  <Success>  (52) 
True

>  <enamine_searched>  (52) 
False

>  <enamine_id>  (52) 
nan

$$$$

     RDKit          3D

 61 66  0  0  0  0  0  0  0  0999 V2000
   -7.0026   -5.4690  -25.0548 C   0  0  0  0  0  0  0  0  0  0  0  0
   -7.3325   -4.8064  -23.8601 O   0  0  0  0  0  0  0  0  0  0  0  0
   -7.9854   -3.5832  -24.0885 C   0  0  0  0  0  0  0  0  0  0  0  0
   -8.2833   -2.9338  -22.7390 C   0  0  1  0  0  0  0  0  0  0  0  0
   -7.0039   -2.5580  -21.9642 C   0  0  0  0  0  0  0  0  0  0  0  0
   -7.3855   -1.3694  -21.2238 N   0  0  0  0  0  0  0  0  0  0  0  0
   -6.6033   -0.7940  -20.1965 C   0  0  0  0  0  0  0  0  0  0  0  0
   -6.9325   -1.0098  -18.8835 C   0  0  0  0  0  0  0  0  0  0  0  0
   -6.2421   -0.4958  -17.8406 N   0  0  0  0  0  0  0  0  0  0  0  0
   -5.1915    0.2393  -18.1074 C   0  0  0  0  0  0  0  0  0  0  0  0
   -4.7455    0.5451  -19.4219 C   0  0  0  0  0  0  0  0  0  0  0  0
   -3.6175    1.3731  -19.6575 C   0  0  0  0  0  0  0  0  0  0  0  0
   -3.2311    1.6684  -20.9356 C   0  0  0  0  0  0  0  0  0  0  0  0
   -3.9365    1.1309  -22.0330 C   0  0  0  0  0  0  0  0  0  0  0  0
   -5.0170    0.3035  -21.8277 C   0  0  0  0  0  0  0  0  0  0  0  0
   -5.4612    0.0041  -20.5107 C   0  0  0  0  0  0  0  0  0  0  0  0
   -5.5768   -0.0687  -22.6798 H   0  0  0  0  0  0  0  0  0  0  0  0
   -3.6258    1.3937  -23.0413 H   0  0  0  0  0  0  0  0  0  0  0  0
   -2.3803    2.3198  -21.1104 H   0  0  0  0  0  0  0  0  0  0  0  0
   -3.0824    1.7669  -18.8005 H   0  0  0  0  0  0  0  0  0  0  0  0
   -4.6281    0.6326  -17.2611 H   0  0  0  0  0  0  0  0  0  0  0  0
   -7.7912   -1.6310  -18.6348 H   0  0  0  0  0  0  0  0  0  0  0  0
   -8.5979   -0.8315  -21.5832 C   0  0  0  0  0  0  0  0  0  0  0  0
   -9.1326    0.1124  -21.0342 O   0  0  0  0  0  0  0  0  0  0  0  0
   -9.1423   -1.6425  -22.7805 C   0  0  1  0  0  0  0  0  0  0  0  0
   -8.9111   -0.8571  -24.0955 C   0  0  0  0  0  0  0  0  0  0  0  0
   -9.7049    0.3542  -24.1624 N   0  0  0  0  0  0  0  0  0  0  0  0
   -9.0029    1.5518  -24.5950 C   0  0  0  0  0  0  0  0  0  0  0  0
   -8.2026    2.2166  -23.5228 C   0  0  0  0  0  0  0  0  0  0  0  0
   -6.8649    2.3582  -23.3630 C   0  0  0  0  0  0  0  0  0  0  0  0
   -6.6559    3.1184  -22.2364 N   0  0  0  0  0  4  0  0  0  0  0  0
   -7.8416    3.4642  -21.7284 C   0  0  0  0  0  0  0  0  0  0  0  0
   -8.7973    2.9268  -22.5012 N   0  0  0  0  0  0  0  0  0  0  0  0
   -9.7922    2.9308  -22.2877 H   0  0  0  0  0  0  0  0  0  0  0  0
   -7.9950    4.1259  -20.8883 H   0  0  0  0  0  0  0  0  0  0  0  0
   -5.7403    3.2109  -21.8065 H   0  0  0  0  0  0  0  0  0  0  0  0
   -6.0325    1.9912  -23.9383 H   0  0  0  0  0  0  0  0  0  0  0  0
   -9.7422    2.2551  -24.9729 H   0  0  0  0  0  0  0  0  0  0  0  0
   -8.3527    1.2661  -25.4289 H   0  0  0  0  0  0  0  0  0  0  0  0
  -10.9413    0.4459  -23.5980 C   0  0  0  0  0  0  0  0  0  0  0  0
  -11.5249    1.5205  -23.4470 O   0  0  0  0  0  0  0  0  0  0  0  0
  -11.5105   -0.8513  -23.1068 C   0  0  0  0  0  0  0  0  0  0  0  0
  -12.8909   -1.0464  -23.0589 C   0  0  0  0  0  0  0  0  0  0  0  0
  -13.4101   -2.0889  -22.3187 C   0  0  0  0  0  0  0  0  0  0  0  0
  -12.5230   -2.9267  -21.6422 C   0  0  0  0  0  0  0  0  0  0  0  0
  -13.1736   -4.0580  -20.4935 Cl  0  0  0  0  0  0  0  0  0  0  0  0
  -11.1519   -2.8344  -21.8012 C   0  0  0  0  0  0  0  0  0  0  0  0
  -10.6312   -1.8210  -22.6061 C   0  0  0  0  0  0  0  0  0  0  0  0
  -10.5049   -3.5374  -21.2836 H   0  0  0  0  0  0  0  0  0  0  0  0
  -14.4787   -2.2483  -22.1998 H   0  0  0  0  0  0  0  0  0  0  0  0
  -13.5523   -0.3690  -23.5840 H   0  0  0  0  0  0  0  0  0  0  0  0
   -9.1579   -1.4954  -24.9505 H   0  0  0  0  0  0  0  0  0  0  0  0
   -7.8568   -0.5691  -24.1601 H   0  0  0  0  0  0  0  0  0  0  0  0
   -6.1658   -2.3513  -22.6430 H   0  0  0  0  0  0  0  0  0  0  0  0
   -6.6894   -3.3554  -21.2855 H   0  0  0  0  0  0  0  0  0  0  0  0
   -8.8184   -3.6832  -22.1563 H   0  0  0  0  0  0  0  0  0  0  0  0
   -8.9171   -3.7504  -24.6588 H   0  0  0  0  0  0  0  0  0  0  0  0
   -7.3428   -2.9190  -24.6934 H   0  0  0  0  0  0  0  0  0  0  0  0
   -6.5368   -6.4213  -24.7890 H   0  0  0  0  0  0  0  0  0  0  0  0
   -7.8938   -5.6753  -25.6696 H   0  0  0  0  0  0  0  0  0  0  0  0
   -6.2906   -4.8881  -25.6636 H   0  0  0  0  0  0  0  0  0  0  0  0
  1  2  1  0
  2  3  1  0
  3  4  1  0
  4  5  1  0
  5  6  1  0
  6  7  1  0
  7  8  2  0
  8  9  1  0
  9 10  2  0
 10 11  1  0
 11 12  2  0
 12 13  1  0
 13 14  2  0
 14 15  1  0
 15 16  2  0
 15 17  1  0
 14 18  1  0
 13 19  1  0
 12 20  1  0
 10 21  1  0
  8 22  1  0
  6 23  1  0
 23 24  2  0
 23 25  1  0
 25 26  1  6
 26 27  1  0
 27 28  1  0
 28 29  1  0
 29 30  2  0
 30 31  1  0
 31 32  2  0
 32 33  1  0
 33 34  1  0
 32 35  1  0
 31 36  1  0
 30 37  1  0
 28 38  1  0
 28 39  1  0
 27 40  1  0
 40 41  2  0
 40 42  1  0
 42 43  2  0
 43 44  1  0
 44 45  2  0
 45 46  1  0
 45 47  1  0
 47 48  2  0
 47 49  1  0
 44 50  1  0
 43 51  1  0
 26 52  1  0
 26 53  1  0
  5 54  1  0
  5 55  1  0
  4 56  1  1
  3 57  1  0
  3 58  1  0
  1 59  1  0
  1 60  1  0
  1 61  1  0
 25  4  1  0
 33 29  1  0
 48 42  1  0
 16  7  1  0
 48 25  1  0
 16 11  1  0
M  CHG  1  31   1
M  END
>  <cnnaffinities>  (53) 
[6.6131]

>  <score>  (53) 
6.6131

>  <index>  (53) 
55

>  <Smiles>  (53) 
C(OC([C@]1(C(N(c2c(nc(c3c(c(c(c(c23)[H])[H])[H])[H])[H])[H])C(=O)[C@]21C(N(C(c1c([n+](c(n1[H])[H])[H])[H])([H])[H])C(=O)c1c(c(c(Cl)c(c21)[H])[H])[H])([H])[H])([H])[H])[H])([H])[H])([H])([H])[H]

>  <h>  (53) 
<NA>

>  <Training>  (53) 
True

>  <Success>  (53) 
True

>  <enamine_searched>  (53) 
False

>  <enamine_id>  (53) 
nan

$$$$

     RDKit          3D

 57 62  0  0  0  0  0  0  0  0999 V2000
   -8.2762   -4.1135  -23.5276 C   0  0  0  0  0  0  0  0  0  0  0  0
   -8.5215   -2.9593  -22.5562 C   0  0  1  0  0  0  0  0  0  0  0  0
   -7.3927   -2.7739  -21.5312 C   0  0  0  0  0  0  0  0  0  0  0  0
   -7.4002   -1.3577  -21.2305 N   0  0  0  0  0  0  0  0  0  0  0  0
   -6.6091   -0.7901  -20.1986 C   0  0  0  0  0  0  0  0  0  0  0  0
   -6.9030   -1.0379  -18.8823 C   0  0  0  0  0  0  0  0  0  0  0  0
   -6.2155   -0.5215  -17.8362 N   0  0  0  0  0  0  0  0  0  0  0  0
   -5.1733    0.2251  -18.0955 C   0  0  0  0  0  0  0  0  0  0  0  0
   -4.7284    0.5308  -19.4097 C   0  0  0  0  0  0  0  0  0  0  0  0
   -3.5893    1.3491  -19.6404 C   0  0  0  0  0  0  0  0  0  0  0  0
   -3.1783    1.6184  -20.9155 C   0  0  0  0  0  0  0  0  0  0  0  0
   -3.8786    1.0680  -22.0136 C   0  0  0  0  0  0  0  0  0  0  0  0
   -4.9783    0.2753  -21.8141 C   0  0  0  0  0  0  0  0  0  0  0  0
   -5.4533    0.0031  -20.5009 C   0  0  0  0  0  0  0  0  0  0  0  0
   -5.5090   -0.1411  -22.6639 H   0  0  0  0  0  0  0  0  0  0  0  0
   -3.5535    1.2888  -23.0246 H   0  0  0  0  0  0  0  0  0  0  0  0
   -2.3225    2.2644  -21.0926 H   0  0  0  0  0  0  0  0  0  0  0  0
   -3.0713    1.7653  -18.7798 H   0  0  0  0  0  0  0  0  0  0  0  0
   -4.6241    0.6218  -17.2416 H   0  0  0  0  0  0  0  0  0  0  0  0
   -7.7423   -1.6773  -18.6126 H   0  0  0  0  0  0  0  0  0  0  0  0
   -8.1272   -0.5993  -22.1163 C   0  0  0  0  0  0  0  0  0  0  0  0
   -8.2420    0.6078  -22.0477 O   0  0  0  0  0  0  0  0  0  0  0  0
   -8.7367   -1.5332  -23.1848 C   0  0  1  0  0  0  0  0  0  0  0  0
   -7.9738   -1.2796  -24.5036 C   0  0  0  0  0  0  0  0  0  0  0  0
   -8.6138   -1.8780  -25.6728 N   0  0  0  0  0  0  0  0  0  0  0  0
   -7.7789   -2.3051  -26.7928 C   0  0  0  0  0  0  0  0  0  0  0  0
   -7.6509   -3.8080  -26.9044 C   0  0  0  0  0  0  0  0  0  0  0  0
   -8.7436   -4.4712  -27.3025 N   0  0  0  0  0  0  0  0  0  0  0  0
   -8.6343   -5.7912  -27.3716 C   0  0  0  0  0  0  0  0  0  0  0  0
   -7.4551   -6.4618  -27.0684 C   0  0  0  0  0  0  0  0  0  0  0  0
   -6.3831   -5.6709  -26.6923 C   0  0  0  0  0  0  0  0  0  0  0  0
   -6.4662   -4.3383  -26.6022 N   0  0  0  0  0  0  0  0  0  0  0  0
   -5.4175   -6.1071  -26.4362 H   0  0  0  0  0  0  0  0  0  0  0  0
   -7.3886   -7.5472  -27.1134 H   0  0  0  0  0  0  0  0  0  0  0  0
   -9.5374   -6.3209  -27.6705 H   0  0  0  0  0  0  0  0  0  0  0  0
   -6.7747   -1.8911  -26.6572 H   0  0  0  0  0  0  0  0  0  0  0  0
   -8.2480   -1.9300  -27.7103 H   0  0  0  0  0  0  0  0  0  0  0  0
   -9.9628   -1.7992  -25.8796 C   0  0  0  0  0  0  0  0  0  0  0  0
  -10.4863   -2.0480  -26.9567 O   0  0  0  0  0  0  0  0  0  0  0  0
  -10.7722   -1.4123  -24.6910 C   0  0  0  0  0  0  0  0  0  0  0  0
  -12.1451   -1.2994  -24.8837 C   0  0  0  0  0  0  0  0  0  0  0  0
  -12.9499   -0.9297  -23.8301 C   0  0  0  0  0  0  0  0  0  0  0  0
  -12.3940   -0.8389  -22.5656 C   0  0  0  0  0  0  0  0  0  0  0  0
  -13.2729   -0.7097  -21.5679 F   0  0  0  0  0  0  0  0  0  0  0  0
  -11.0383   -0.9609  -22.3351 C   0  0  0  0  0  0  0  0  0  0  0  0
  -10.2039   -1.2350  -23.4261 C   0  0  0  0  0  0  0  0  0  0  0  0
  -10.6188   -0.8660  -21.3405 H   0  0  0  0  0  0  0  0  0  0  0  0
  -14.0135   -0.7620  -23.9058 H   0  0  0  0  0  0  0  0  0  0  0  0
  -12.5300   -1.5926  -25.8549 H   0  0  0  0  0  0  0  0  0  0  0  0
   -7.9011   -0.1853  -24.6072 H   0  0  0  0  0  0  0  0  0  0  0  0
   -6.9651   -1.7105  -24.4367 H   0  0  0  0  0  0  0  0  0  0  0  0
   -7.5741   -3.3220  -20.6123 H   0  0  0  0  0  0  0  0  0  0  0  0
   -6.4220   -3.0943  -21.9373 H   0  0  0  0  0  0  0  0  0  0  0  0
   -9.4466   -3.1657  -21.9987 H   0  0  0  0  0  0  0  0  0  0  0  0
   -7.3252   -3.9898  -24.0570 H   0  0  0  0  0  0  0  0  0  0  0  0
   -8.2332   -5.0673  -22.9922 H   0  0  0  0  0  0  0  0  0  0  0  0
   -9.0781   -4.1774  -24.2708 H   0  0  0  0  0  0  0  0  0  0  0  0
  1  2  1  0
  2  3  1  0
  3  4  1  0
  4  5  1  0
  5  6  2  0
  6  7  1  0
  7  8  2  0
  8  9  1  0
  9 10  2  0
 10 11  1  0
 11 12  2  0
 12 13  1  0
 13 14  2  0
 13 15  1  0
 12 16  1  0
 11 17  1  0
 10 18  1  0
  8 19  1  0
  6 20  1  0
  4 21  1  0
 21 22  2  0
 21 23  1  0
 23 24  1  6
 24 25  1  0
 25 26  1  0
 26 27  1  0
 27 28  2  0
 28 29  1  0
 29 30  2  0
 30 31  1  0
 31 32  2  0
 31 33  1  0
 30 34  1  0
 29 35  1  0
 26 36  1  0
 26 37  1  0
 25 38  1  0
 38 39  2  0
 38 40  1  0
 40 41  2  0
 41 42  1  0
 42 43  2  0
 43 44  1  0
 43 45  1  0
 45 46  2  0
 45 47  1  0
 42 48  1  0
 41 49  1  0
 24 50  1  0
 24 51  1  0
  3 52  1  0
  3 53  1  0
  2 54  1  1
  1 55  1  0
  1 56  1  0
  1 57  1  0
 23  2  1  0
 32 27  1  0
 46 40  1  0
 14  5  1  0
 46 23  1  0
 14  9  1  0
M  END
>  <cnnaffinities>  (54) 
[6.36569, 6.36977]

>  <score>  (54) 
6.36569

>  <index>  (54) 
56

>  <Smiles>  (54) 
C([C@]1(C(N(c2c(nc(c3c(c(c(c(c23)[H])[H])[H])[H])[H])[H])C(=O)[C@]21C(N(C(c1nc(c(c(n1)[H])[H])[H])([H])[H])C(=O)c1c(c(c(F)c(c21)[H])[H])[H])([H])[H])([H])[H])[H])([H])([H])[H]

>  <h>  (54) 
<NA>

>  <Training>  (54) 
True

>  <Success>  (54) 
True

>  <enamine_searched>  (54) 
False

>  <enamine_id>  (54) 
nan

$$$$

     RDKit          3D

 59 63  0  0  0  0  0  0  0  0999 V2000
  -14.5088   -1.2662  -23.5409 C   0  0  0  0  0  0  0  0  0  0  0  0
  -13.7778   -2.4533  -23.1434 N   0  0  0  0  0  0  0  0  0  0  0  0
  -13.4752   -2.6737  -21.8358 C   0  0  0  0  0  0  0  0  0  0  0  0
  -13.9300   -1.9896  -20.9302 O   0  0  0  0  0  0  0  0  0  0  0  0
  -12.5261   -3.8491  -21.5789 C   0  0  0  0  0  0  0  0  0  0  0  0
  -11.2059   -3.7591  -22.1987 N   0  0  0  0  0  0  0  0  0  0  0  0
  -10.0534   -3.2785  -21.4341 C   0  0  0  0  0  0  0  0  0  0  0  0
   -8.8412   -2.9175  -22.3350 C   0  0  2  0  0  0  0  0  0  0  0  0
   -7.5889   -2.6732  -21.4762 C   0  0  0  0  0  0  0  0  0  0  0  0
   -6.7966   -3.5068  -21.0882 O   0  0  0  0  0  0  0  0  0  0  0  0
   -7.4318   -1.3203  -21.2718 N   0  0  0  0  0  0  0  0  0  0  0  0
   -6.6117   -0.8105  -20.2298 C   0  0  0  0  0  0  0  0  0  0  0  0
   -6.9252   -1.0361  -18.9138 C   0  0  0  0  0  0  0  0  0  0  0  0
   -6.2563   -0.4965  -17.8641 N   0  0  0  0  0  0  0  0  0  0  0  0
   -5.2202    0.2582  -18.1234 C   0  0  0  0  0  0  0  0  0  0  0  0
   -4.7623    0.5479  -19.4361 C   0  0  0  0  0  0  0  0  0  0  0  0
   -3.6175    1.3535  -19.6605 C   0  0  0  0  0  0  0  0  0  0  0  0
   -3.2045    1.6213  -20.9346 C   0  0  0  0  0  0  0  0  0  0  0  0
   -3.9108    1.0880  -22.0371 C   0  0  0  0  0  0  0  0  0  0  0  0
   -5.0184    0.3010  -21.8429 C   0  0  0  0  0  0  0  0  0  0  0  0
   -5.4788    0.0121  -20.5321 C   0  0  0  0  0  0  0  0  0  0  0  0
   -5.5488   -0.1105  -22.6953 H   0  0  0  0  0  0  0  0  0  0  0  0
   -3.5691    1.3033  -23.0450 H   0  0  0  0  0  0  0  0  0  0  0  0
   -2.3353    2.2479  -21.1106 H   0  0  0  0  0  0  0  0  0  0  0  0
   -3.0850    1.7562  -18.8015 H   0  0  0  0  0  0  0  0  0  0  0  0
   -4.6775    0.6697  -17.2708 H   0  0  0  0  0  0  0  0  0  0  0  0
   -7.7677   -1.6730  -18.6555 H   0  0  0  0  0  0  0  0  0  0  0  0
   -8.4488   -0.5284  -21.9376 C   0  0  0  0  0  0  0  0  0  0  0  0
   -9.0350   -1.4812  -23.0111 C   0  0  0  0  0  0  0  0  0  0  0  0
  -10.4853   -1.0981  -23.3108 C   0  0  0  0  0  0  0  0  0  0  0  0
  -11.0913   -1.0831  -22.4009 H   0  0  0  0  0  0  0  0  0  0  0  0
  -10.9286   -1.8168  -24.0045 H   0  0  0  0  0  0  0  0  0  0  0  0
  -10.5311   -0.1031  -23.7641 H   0  0  0  0  0  0  0  0  0  0  0  0
   -8.2358   -1.4129  -24.3194 C   0  0  0  0  0  0  0  0  0  0  0  0
   -8.6346   -2.1417  -25.0336 H   0  0  0  0  0  0  0  0  0  0  0  0
   -8.3124   -0.4166  -24.7637 H   0  0  0  0  0  0  0  0  0  0  0  0
   -7.1777   -1.6571  -24.1676 H   0  0  0  0  0  0  0  0  0  0  0  0
   -8.0065    0.3716  -22.3778 H   0  0  0  0  0  0  0  0  0  0  0  0
   -9.2323   -0.2101  -21.2280 H   0  0  0  0  0  0  0  0  0  0  0  0
   -8.6042   -4.0889  -23.2660 C   0  0  0  0  0  0  0  0  0  0  0  0
   -7.3240   -4.4587  -23.7079 C   0  0  0  0  0  0  0  0  0  0  0  0
   -7.1733   -5.4713  -24.6407 C   0  0  0  0  0  0  0  0  0  0  0  0
   -5.5745   -5.8508  -25.2316 Cl  0  0  0  0  0  0  0  0  0  0  0  0
   -8.2636   -6.1812  -25.1406 C   0  0  0  0  0  0  0  0  0  0  0  0
   -9.5230   -5.8319  -24.6940 C   0  0  0  0  0  0  0  0  0  0  0  0
   -9.6919   -4.7976  -23.7786 C   0  0  0  0  0  0  0  0  0  0  0  0
  -11.0738   -4.4505  -23.3675 C   0  0  0  0  0  0  0  0  0  0  0  0
  -12.0597   -4.7899  -24.0248 O   0  0  0  0  0  0  0  0  0  0  0  0
  -10.4053   -6.3572  -25.0405 H   0  0  0  0  0  0  0  0  0  0  0  0
   -8.1197   -6.9809  -25.8603 H   0  0  0  0  0  0  0  0  0  0  0  0
   -6.4378   -3.9702  -23.3244 H   0  0  0  0  0  0  0  0  0  0  0  0
  -10.3411   -2.3784  -20.8833 H   0  0  0  0  0  0  0  0  0  0  0  0
   -9.7697   -4.0393  -20.7007 H   0  0  0  0  0  0  0  0  0  0  0  0
  -12.4577   -4.0400  -20.5036 H   0  0  0  0  0  0  0  0  0  0  0  0
  -13.0118   -4.6973  -22.0629 H   0  0  0  0  0  0  0  0  0  0  0  0
  -13.4516   -3.1117  -23.8369 H   0  0  0  0  0  0  0  0  0  0  0  0
  -13.8729   -0.3703  -23.5269 H   0  0  0  0  0  0  0  0  0  0  0  0
  -14.9034   -1.4187  -24.5500 H   0  0  0  0  0  0  0  0  0  0  0  0
  -15.3314   -1.0848  -22.8459 H   0  0  0  0  0  0  0  0  0  0  0  0
  1  2  1  0
  2  3  1  0
  3  4  2  0
  3  5  1  0
  5  6  1  0
  6  7  1  0
  8  7  1  1
  8  9  1  0
  9 10  2  0
  9 11  1  0
 11 12  1  0
 12 13  2  0
 13 14  1  0
 14 15  2  0
 15 16  1  0
 16 17  2  0
 17 18  1  0
 18 19  2  0
 19 20  1  0
 20 21  2  0
 20 22  1  0
 19 23  1  0
 18 24  1  0
 17 25  1  0
 15 26  1  0
 13 27  1  0
 11 28  1  0
 28 29  1  0
 29 30  1  0
 30 31  1  0
 30 32  1  0
 30 33  1  0
 29 34  1  0
 34 35  1  0
 34 36  1  0
 34 37  1  0
 28 38  1  0
 28 39  1  0
  8 40  1  0
 40 41  2  0
 41 42  1  0
 42 43  1  0
 42 44  2  0
 44 45  1  0
 45 46  2  0
 46 47  1  0
 47 48  2  0
 45 49  1  0
 44 50  1  0
 41 51  1  0
  7 52  1  0
  7 53  1  0
  5 54  1  0
  5 55  1  0
  2 56  1  0
  1 57  1  0
  1 58  1  0
  1 59  1  0
 47  6  1  0
 29  8  1  0
 46 40  1  0
 21 12  1  0
 21 16  1  0
M  END
>  <cnnaffinities>  (55) 
[6.58524]

>  <score>  (55) 
6.58524

>  <index>  (55) 
57

>  <Smiles>  (55) 
C(N(C(=O)C(N1C([C@@]2(C(=O)N(c3c(nc(c4c(c(c(c(c34)[H])[H])[H])[H])[H])[H])C(C2(C([H])([H])[H])C([H])([H])[H])([H])[H])c2c(c(Cl)c(c(c2C1=O)[H])[H])[H])([H])[H])([H])[H])[H])([H])([H])[H]

>  <h>  (55) 
<NA>

>  <Training>  (55) 
True

>  <Success>  (55) 
True

>  <enamine_searched>  (55) 
False

>  <enamine_id>  (55) 
nan

$$$$

     RDKit          3D

 42 45  0  0  0  0  0  0  0  0999 V2000
  -10.8303   -3.7642  -21.6901 C   0  0  0  0  0  0  0  0  0  0  0  0
   -9.8996   -3.2180  -22.6672 N   0  0  0  0  0  0  0  0  0  0  0  0
  -10.0152   -1.8588  -23.1790 C   0  0  0  0  0  0  0  0  0  0  0  0
   -8.6452   -1.1875  -23.4682 C   0  0  1  0  0  0  0  0  0  0  0  0
   -8.0894   -0.5448  -22.1790 C   0  0  0  0  0  0  0  0  0  0  0  0
   -8.2970    0.6237  -21.9016 O   0  0  0  0  0  0  0  0  0  0  0  0
   -7.3658   -1.3575  -21.3452 N   0  0  0  0  0  0  0  0  0  0  0  0
   -6.5981   -0.8107  -20.2870 C   0  0  0  0  0  0  0  0  0  0  0  0
   -6.9613   -1.0275  -18.9826 C   0  0  0  0  0  0  0  0  0  0  0  0
   -6.3166   -0.4902  -17.9170 N   0  0  0  0  0  0  0  0  0  0  0  0
   -5.2640    0.2487  -18.1530 C   0  0  0  0  0  0  0  0  0  0  0  0
   -4.7653    0.5328  -19.4519 C   0  0  0  0  0  0  0  0  0  0  0  0
   -3.6212    1.3489  -19.6512 C   0  0  0  0  0  0  0  0  0  0  0  0
   -3.1661    1.6040  -20.9155 C   0  0  0  0  0  0  0  0  0  0  0  0
   -3.8248    1.0403  -22.0335 C   0  0  0  0  0  0  0  0  0  0  0  0
   -4.9259    0.2366  -21.8679 C   0  0  0  0  0  0  0  0  0  0  0  0
   -5.4422   -0.0170  -20.5618 C   0  0  0  0  0  0  0  0  0  0  0  0
   -5.4133   -0.2182  -22.7275 H   0  0  0  0  0  0  0  0  0  0  0  0
   -3.4586    1.2550  -23.0329 H   0  0  0  0  0  0  0  0  0  0  0  0
   -2.3036    2.2484  -21.0680 H   0  0  0  0  0  0  0  0  0  0  0  0
   -3.1278    1.7620  -18.7767 H   0  0  0  0  0  0  0  0  0  0  0  0
   -4.7480    0.6701  -17.2885 H   0  0  0  0  0  0  0  0  0  0  0  0
   -7.8317   -1.6366  -18.7404 H   0  0  0  0  0  0  0  0  0  0  0  0
   -7.4398   -2.3620  -21.4197 H   0  0  0  0  0  0  0  0  0  0  0  0
   -7.7247   -2.1489  -24.1913 C   0  0  0  0  0  0  0  0  0  0  0  0
   -6.7487   -1.6958  -25.0934 C   0  0  0  0  0  0  0  0  0  0  0  0
   -5.9200   -2.6157  -25.7247 C   0  0  0  0  0  0  0  0  0  0  0  0
   -4.7133   -2.0536  -26.8506 Cl  0  0  0  0  0  0  0  0  0  0  0  0
   -6.0291   -3.9844  -25.4812 C   0  0  0  0  0  0  0  0  0  0  0  0
   -6.9982   -4.4326  -24.5993 C   0  0  0  0  0  0  0  0  0  0  0  0
   -7.8504   -3.5208  -23.9684 C   0  0  0  0  0  0  0  0  0  0  0  0
   -8.8901   -4.0606  -23.0308 C   0  0  0  0  0  0  0  0  0  0  0  0
   -8.8245   -5.2023  -22.5887 O   0  0  0  0  0  0  0  0  0  0  0  0
   -7.1137   -5.4956  -24.3991 H   0  0  0  0  0  0  0  0  0  0  0  0
   -5.3582   -4.6778  -25.9809 H   0  0  0  0  0  0  0  0  0  0  0  0
   -6.6360   -0.6367  -25.3224 H   0  0  0  0  0  0  0  0  0  0  0  0
   -8.8070   -0.3100  -24.1053 H   0  0  0  0  0  0  0  0  0  0  0  0
  -10.5416   -1.2411  -22.4389 H   0  0  0  0  0  0  0  0  0  0  0  0
  -10.5983   -1.8591  -24.1082 H   0  0  0  0  0  0  0  0  0  0  0  0
  -11.4041   -4.6001  -22.1096 H   0  0  0  0  0  0  0  0  0  0  0  0
  -10.2395   -4.1379  -20.8467 H   0  0  0  0  0  0  0  0  0  0  0  0
  -11.5120   -2.9811  -21.3474 H   0  0  0  0  0  0  0  0  0  0  0  0
  1  2  1  0
  2  3  1  0
  3  4  1  0
  4  5  1  0
  5  6  2  0
  5  7  1  0
  7  8  1  0
  8  9  2  0
  9 10  1  0
 10 11  2  0
 11 12  1  0
 12 13  2  0
 13 14  1  0
 14 15  2  0
 15 16  1  0
 16 17  2  0
 16 18  1  0
 15 19  1  0
 14 20  1  0
 13 21  1  0
 11 22  1  0
  9 23  1  0
  7 24  1  0
  4 25  1  0
 25 26  2  0
 26 27  1  0
 27 28  1  0
 27 29  2  0
 29 30  1  0
 30 31  2  0
 31 32  1  0
 32 33  2  0
 30 34  1  0
 29 35  1  0
 26 36  1  0
  4 37  1  6
  3 38  1  0
  3 39  1  0
  1 40  1  0
  1 41  1  0
  1 42  1  0
 32  2  1  0
 17  8  1  0
 31 25  1  0
 17 12  1  0
M  END
>  <cnnaffinities>  (56) 
[5.69685, 5.41123, 5.56682]

>  <score>  (56) 
5.69685

>  <index>  (56) 
58

>  <Smiles>  (56) 
C(N1C([C@@](C(=O)N(c2c(nc(c3c(c(c(c(c23)[H])[H])[H])[H])[H])[H])[H])(c2c(c(Cl)c(c(c2C1=O)[H])[H])[H])[H])([H])[H])([H])([H])[H]

>  <h>  (56) 
<NA>

>  <Training>  (56) 
True

>  <Success>  (56) 
True

>  <enamine_searched>  (56) 
False

>  <enamine_id>  (56) 
nan

$$$$

     RDKit          3D

 60 65  0  0  0  0  0  0  0  0999 V2000
   -7.5419   -5.2293  -27.6382 C   0  0  0  0  0  0  0  0  0  0  0  0
   -8.0591   -3.8891  -27.4184 N   0  0  0  0  0  0  0  0  0  0  0  0
   -7.1885   -2.8446  -27.4255 C   0  0  0  0  0  0  0  0  0  0  0  0
   -6.0295   -2.9605  -27.8036 O   0  0  0  0  0  0  0  0  0  0  0  0
   -7.7337   -1.4904  -26.9569 C   0  0  0  0  0  0  0  0  0  0  0  0
   -8.5423   -1.5366  -25.7413 N   0  0  0  0  0  0  0  0  0  0  0  0
   -7.9436   -1.0929  -24.4797 C   0  0  0  0  0  0  0  0  0  0  0  0
   -8.7451   -1.5065  -23.2075 C   0  0  2  0  0  0  0  0  0  0  0  0
   -8.2493   -0.6019  -22.0626 C   0  0  0  0  0  0  0  0  0  0  0  0
   -8.4580    0.5846  -21.9095 O   0  0  0  0  0  0  0  0  0  0  0  0
   -7.4410   -1.3479  -21.2270 N   0  0  0  0  0  0  0  0  0  0  0  0
   -6.6261   -0.7677  -20.2269 C   0  0  0  0  0  0  0  0  0  0  0  0
   -6.9278   -1.0147  -18.9148 C   0  0  0  0  0  0  0  0  0  0  0  0
   -6.2519   -0.5022  -17.8625 N   0  0  0  0  0  0  0  0  0  0  0  0
   -5.2075    0.2430  -18.1221 C   0  0  0  0  0  0  0  0  0  0  0  0
   -4.7536    0.5380  -19.4374 C   0  0  0  0  0  0  0  0  0  0  0  0
   -3.6096    1.3461  -19.6559 C   0  0  0  0  0  0  0  0  0  0  0  0
   -3.1877    1.6154  -20.9271 C   0  0  0  0  0  0  0  0  0  0  0  0
   -3.8785    1.0762  -22.0357 C   0  0  0  0  0  0  0  0  0  0  0  0
   -4.9866    0.2864  -21.8515 C   0  0  0  0  0  0  0  0  0  0  0  0
   -5.4665    0.0134  -20.5372 C   0  0  0  0  0  0  0  0  0  0  0  0
   -5.5027   -0.1293  -22.7140 H   0  0  0  0  0  0  0  0  0  0  0  0
   -3.5272    1.2972  -23.0382 H   0  0  0  0  0  0  0  0  0  0  0  0
   -2.3203    2.2469  -21.0914 H   0  0  0  0  0  0  0  0  0  0  0  0
   -3.0904    1.7482  -18.7911 H   0  0  0  0  0  0  0  0  0  0  0  0
   -4.6584    0.6478  -17.2716 H   0  0  0  0  0  0  0  0  0  0  0  0
   -7.7787   -1.6520  -18.6802 H   0  0  0  0  0  0  0  0  0  0  0  0
   -7.2224   -2.7093  -21.6578 C   0  0  0  0  0  0  0  0  0  0  0  0
   -8.3713   -2.9347  -22.6468 C   0  0  2  0  0  0  0  0  0  0  0  0
   -8.1238   -4.0646  -23.6677 C   0  0  0  0  0  0  0  0  0  0  0  0
   -6.6852   -4.4520  -23.9213 C   0  0  0  0  0  0  0  0  0  0  0  0
   -5.7342   -3.7160  -24.4857 N   0  0  0  0  0  0  0  0  0  0  0  0
   -4.6373   -4.4814  -24.4621 N   0  0  0  0  0  0  0  0  0  0  0  0
   -4.9258   -5.6245  -23.9069 N   0  0  0  0  0  2  0  0  0  0  0  0
   -6.2108   -5.6370  -23.5596 N   0  0  0  0  0  0  0  0  0  0  0  0
   -8.5924   -3.8127  -24.6174 H   0  0  0  0  0  0  0  0  0  0  0  0
   -8.6040   -4.9730  -23.3001 H   0  0  0  0  0  0  0  0  0  0  0  0
   -9.2510   -3.2230  -22.0514 H   0  0  0  0  0  0  0  0  0  0  0  0
   -7.2606   -3.3793  -20.7985 H   0  0  0  0  0  0  0  0  0  0  0  0
   -6.2344   -2.8388  -22.1213 H   0  0  0  0  0  0  0  0  0  0  0  0
  -10.2459   -1.3857  -23.4588 C   0  0  0  0  0  0  0  0  0  0  0  0
  -11.1727   -1.3748  -22.3996 C   0  0  0  0  0  0  0  0  0  0  0  0
  -12.5400   -1.4189  -22.6626 C   0  0  0  0  0  0  0  0  0  0  0  0
  -13.7162   -1.6562  -21.3997 Cl  0  0  0  0  0  0  0  0  0  0  0  0
  -13.0354   -1.3724  -23.9628 C   0  0  0  0  0  0  0  0  0  0  0  0
  -12.1342   -1.4260  -24.9959 C   0  0  0  0  0  0  0  0  0  0  0  0
  -10.7665   -1.4390  -24.7521 C   0  0  0  0  0  0  0  0  0  0  0  0
   -9.8906   -1.6225  -25.9366 C   0  0  0  0  0  0  0  0  0  0  0  0
  -10.3503   -1.9030  -27.0406 O   0  0  0  0  0  0  0  0  0  0  0  0
  -12.4333   -1.5323  -26.0282 H   0  0  0  0  0  0  0  0  0  0  0  0
  -14.1014   -1.3264  -24.1545 H   0  0  0  0  0  0  0  0  0  0  0  0
  -10.8356   -1.3260  -21.3712 H   0  0  0  0  0  0  0  0  0  0  0  0
   -7.8375    0.0010  -24.4925 H   0  0  0  0  0  0  0  0  0  0  0  0
   -6.9366   -1.5252  -24.4102 H   0  0  0  0  0  0  0  0  0  0  0  0
   -6.8860   -0.8099  -26.8356 H   0  0  0  0  0  0  0  0  0  0  0  0
   -8.3638   -1.0941  -27.7628 H   0  0  0  0  0  0  0  0  0  0  0  0
   -9.0535   -3.7222  -27.3544 H   0  0  0  0  0  0  0  0  0  0  0  0
   -6.9856   -5.2765  -28.5807 H   0  0  0  0  0  0  0  0  0  0  0  0
   -8.3745   -5.9364  -27.6743 H   0  0  0  0  0  0  0  0  0  0  0  0
   -6.8710   -5.5153  -26.8149 H   0  0  0  0  0  0  0  0  0  0  0  0
  1  2  1  0
  2  3  1  0
  3  4  2  0
  3  5  1  0
  5  6  1  0
  6  7  1  0
  8  7  1  6
  8  9  1  0
  9 10  2  0
  9 11  1  0
 11 12  1  0
 12 13  2  0
 13 14  1  0
 14 15  2  0
 15 16  1  0
 16 17  2  0
 17 18  1  0
 18 19  2  0
 19 20  1  0
 20 21  2  0
 20 22  1  0
 19 23  1  0
 18 24  1  0
 17 25  1  0
 15 26  1  0
 13 27  1  0
 11 28  1  0
 28 29  1  0
 29 30  1  0
 30 31  1  0
 31 32  1  0
 32 33  2  0
 33 34  1  0
 34 35  1  0
 30 36  1  0
 30 37  1  0
 29 38  1  1
 28 39  1  0
 28 40  1  0
  8 41  1  0
 41 42  2  0
 42 43  1  0
 43 44  1  0
 43 45  2  0
 45 46  1  0
 46 47  2  0
 47 48  1  0
 48 49  2  0
 46 50  1  0
 45 51  1  0
 42 52  1  0
  7 53  1  0
  7 54  1  0
  5 55  1  0
  5 56  1  0
  2 57  1  0
  1 58  1  0
  1 59  1  0
  1 60  1  0
 48  6  1  0
 29  8  1  0
 35 31  2  0
 47 41  1  0
 21 12  1  0
 21 16  1  0
M  CHG  1  34  -1
M  END
>  <cnnaffinities>  (57) 
[6.42334, 6.87524, 6.39046]

>  <score>  (57) 
6.42334

>  <index>  (57) 
59

>  <Smiles>  (57) 
C(N(C(=O)C(N1C([C@@]2(C(=O)N(c3c(nc(c4c(c(c(c(c34)[H])[H])[H])[H])[H])[H])C([C@@]2(C(c2nn[n-]n2)([H])[H])[H])([H])[H])c2c(c(Cl)c(c(c2C1=O)[H])[H])[H])([H])[H])([H])[H])[H])([H])([H])[H]

>  <h>  (57) 
<NA>

>  <Training>  (57) 
True

>  <Success>  (57) 
True

>  <enamine_searched>  (57) 
False

>  <enamine_id>  (57) 
nan

$$$$

     RDKit          3D

 62 67  0  0  0  0  0  0  0  0999 V2000
  -11.1510    3.0624  -22.6877 C   0  0  0  0  0  0  0  0  0  0  0  0
  -10.3841    1.8604  -22.1469 C   0  0  0  0  0  0  0  0  0  0  0  0
   -9.0003    1.8482  -22.6045 N   0  0  0  0  0  0  0  0  0  0  0  0
   -8.0882    2.5592  -21.9320 N   0  0  0  0  0  0  0  0  0  0  0  0
   -6.9597    2.4216  -22.6208 C   0  0  0  0  0  0  0  0  0  0  0  0
   -7.1511    1.6308  -23.7807 C   0  0  0  0  0  0  0  0  0  0  0  0
   -8.4852    1.2782  -23.7270 C   0  0  0  0  0  0  0  0  0  0  0  0
   -9.4152    0.6594  -24.7174 C   0  0  0  0  0  0  0  0  0  0  0  0
  -10.0370   -0.5883  -24.2968 N   0  0  0  0  0  0  0  0  0  0  0  0
   -9.2091   -1.7661  -24.1419 C   0  0  0  0  0  0  0  0  0  0  0  0
   -9.4014   -2.3799  -22.7317 C   0  0  2  0  0  0  0  0  0  0  0  0
   -8.8701   -1.4035  -21.6469 C   0  0  0  0  0  0  0  0  0  0  0  0
   -9.4970   -0.5338  -21.0812 O   0  0  0  0  0  0  0  0  0  0  0  0
   -7.5393   -1.6810  -21.4014 N   0  0  0  0  0  0  0  0  0  0  0  0
   -6.8402   -1.0167  -20.3646 C   0  0  0  0  0  0  0  0  0  0  0  0
   -7.3667   -0.9442  -19.0971 C   0  0  0  0  0  0  0  0  0  0  0  0
   -6.7885   -0.2914  -18.0619 N   0  0  0  0  0  0  0  0  0  0  0  0
   -5.6688    0.3498  -18.3017 C   0  0  0  0  0  0  0  0  0  0  0  0
   -5.0222    0.3761  -19.5700 C   0  0  0  0  0  0  0  0  0  0  0  0
   -3.8574    1.1532  -19.8152 C   0  0  0  0  0  0  0  0  0  0  0  0
   -3.2704    1.1449  -21.0501 C   0  0  0  0  0  0  0  0  0  0  0  0
   -3.8005    0.3535  -22.0928 C   0  0  0  0  0  0  0  0  0  0  0  0
   -4.9356   -0.3916  -21.8874 C   0  0  0  0  0  0  0  0  0  0  0  0
   -5.5891   -0.3733  -20.6267 C   0  0  0  0  0  0  0  0  0  0  0  0
   -5.3583   -0.9661  -22.7060 H   0  0  0  0  0  0  0  0  0  0  0  0
   -3.3323    0.3592  -23.0727 H   0  0  0  0  0  0  0  0  0  0  0  0
   -2.4015    1.7679  -21.2437 H   0  0  0  0  0  0  0  0  0  0  0  0
   -3.4707    1.7827  -19.0173 H   0  0  0  0  0  0  0  0  0  0  0  0
   -5.2158    0.8870  -17.4677 H   0  0  0  0  0  0  0  0  0  0  0  0
   -8.3136   -1.4290  -18.8730 H   0  0  0  0  0  0  0  0  0  0  0  0
   -7.1038   -2.8924  -22.0853 C   0  0  0  0  0  0  0  0  0  0  0  0
   -8.4328   -3.5648  -22.4774 C   0  0  2  0  0  0  0  0  0  0  0  0
   -8.2756   -4.6024  -23.5810 C   0  0  0  0  0  0  0  0  0  0  0  0
   -9.2296   -5.0721  -23.8428 H   0  0  0  0  0  0  0  0  0  0  0  0
   -7.5840   -5.3921  -23.2684 H   0  0  0  0  0  0  0  0  0  0  0  0
   -7.8643   -4.1565  -24.4940 H   0  0  0  0  0  0  0  0  0  0  0  0
   -8.7801   -4.0460  -21.5592 H   0  0  0  0  0  0  0  0  0  0  0  0
   -6.5122   -2.6687  -22.9861 H   0  0  0  0  0  0  0  0  0  0  0  0
   -6.5009   -3.5177  -21.4204 H   0  0  0  0  0  0  0  0  0  0  0  0
  -10.8900   -2.6245  -22.5367 C   0  0  0  0  0  0  0  0  0  0  0  0
  -11.3856   -3.5866  -21.6505 C   0  0  0  0  0  0  0  0  0  0  0  0
  -12.7212   -3.5695  -21.3079 C   0  0  0  0  0  0  0  0  0  0  0  0
  -13.1550   -4.3495  -20.3032 F   0  0  0  0  0  0  0  0  0  0  0  0
  -13.6526   -2.7525  -21.9325 C   0  0  0  0  0  0  0  0  0  0  0  0
  -13.1964   -1.8531  -22.8732 C   0  0  0  0  0  0  0  0  0  0  0  0
  -11.8254   -1.7691  -23.1411 C   0  0  0  0  0  0  0  0  0  0  0  0
  -11.3813   -0.6676  -24.0495 C   0  0  0  0  0  0  0  0  0  0  0  0
  -12.2035    0.1555  -24.4310 O   0  0  0  0  0  0  0  0  0  0  0  0
  -13.8734   -1.1926  -23.4076 H   0  0  0  0  0  0  0  0  0  0  0  0
  -14.6890   -2.8110  -21.6327 H   0  0  0  0  0  0  0  0  0  0  0  0
  -10.7538   -4.3104  -21.1487 H   0  0  0  0  0  0  0  0  0  0  0  0
   -9.4954   -2.5081  -24.9021 H   0  0  0  0  0  0  0  0  0  0  0  0
   -8.1643   -1.4828  -24.3129 H   0  0  0  0  0  0  0  0  0  0  0  0
   -8.9325    0.5654  -25.6988 H   0  0  0  0  0  0  0  0  0  0  0  0
  -10.2057    1.3832  -24.7967 H   0  0  0  0  0  0  0  0  0  0  0  0
   -6.4426    1.3428  -24.5500 H   0  0  0  0  0  0  0  0  0  0  0  0
   -6.0714    2.9348  -22.2779 H   0  0  0  0  0  0  0  0  0  0  0  0
  -10.8627    0.9241  -22.4189 H   0  0  0  0  0  0  0  0  0  0  0  0
  -10.3362    1.8515  -21.0616 H   0  0  0  0  0  0  0  0  0  0  0  0
  -11.4810    2.8958  -23.7169 H   0  0  0  0  0  0  0  0  0  0  0  0
  -10.5020    3.9399  -22.6811 H   0  0  0  0  0  0  0  0  0  0  0  0
  -12.0344    3.2936  -22.0858 H   0  0  0  0  0  0  0  0  0  0  0  0
  1  2  1  0
  2  3  1  0
  3  4  1  0
  4  5  2  0
  5  6  1  0
  6  7  2  0
  7  8  1  0
  8  9  1  0
  9 10  1  0
 11 10  1  6
 11 12  1  0
 12 13  2  0
 12 14  1  0
 14 15  1  0
 15 16  2  0
 16 17  1  0
 17 18  2  0
 18 19  1  0
 19 20  2  0
 20 21  1  0
 21 22  2  0
 22 23  1  0
 23 24  2  0
 23 25  1  0
 22 26  1  0
 21 27  1  0
 20 28  1  0
 18 29  1  0
 16 30  1  0
 14 31  1  0
 31 32  1  0
 32 33  1  0
 33 34  1  0
 33 35  1  0
 33 36  1  0
 32 37  1  1
 31 38  1  0
 31 39  1  0
 11 40  1  0
 40 41  2  0
 41 42  1  0
 42 43  1  0
 42 44  2  0
 44 45  1  0
 45 46  2  0
 46 47  1  0
 47 48  2  0
 45 49  1  0
 44 50  1  0
 41 51  1  0
 10 52  1  0
 10 53  1  0
  8 54  1  0
  8 55  1  0
  6 56  1  0
  5 57  1  0
  2 58  1  0
  2 59  1  0
  1 60  1  0
  1 61  1  0
  1 62  1  0
  7  3  1  0
 47  9  1  0
 32 11  1  0
 46 40  1  0
 24 15  1  0
 24 19  1  0
M  END
>  <cnnaffinities>  (58) 
[6.99077]

>  <score>  (58) 
6.99077

>  <index>  (58) 
60

>  <Smiles>  (58) 
C(C(n1nc(c(c1C(N1C([C@@]2(C(=O)N(c3c(nc(c4c(c(c(c(c34)[H])[H])[H])[H])[H])[H])C([C@@]2(C([H])([H])[H])[H])([H])[H])c2c(c(F)c(c(c2C1=O)[H])[H])[H])([H])[H])([H])[H])[H])[H])([H])[H])([H])([H])[H]

>  <h>  (58) 
<NA>

>  <Training>  (58) 
True

>  <Success>  (58) 
True

>  <enamine_searched>  (58) 
False

>  <enamine_id>  (58) 
nan

$$$$

     RDKit          3D

 44 47  0  0  0  0  0  0  0  0999 V2000
   -5.8663   -3.3067  -21.2818 O   0  0  0  0  0  0  0  0  0  0  0  0
   -6.6938   -2.6840  -21.9270 C   0  0  0  0  0  0  0  0  0  0  0  0
   -7.3969   -1.4611  -21.2870 C   0  0  0  0  0  0  0  0  0  0  0  0
   -6.5772   -0.8291  -20.1876 C   0  0  0  0  0  0  0  0  0  0  0  0
   -6.8728   -1.0424  -18.8650 C   0  0  0  0  0  0  0  0  0  0  0  0
   -6.1958   -0.5168  -17.8120 N   0  0  0  0  0  0  0  0  0  0  0  0
   -5.1533    0.2311  -18.0695 C   0  0  0  0  0  0  0  0  0  0  0  0
   -4.7164    0.5335  -19.3865 C   0  0  0  0  0  0  0  0  0  0  0  0
   -3.5884    1.3597  -19.6235 C   0  0  0  0  0  0  0  0  0  0  0  0
   -3.1916    1.6384  -20.9038 C   0  0  0  0  0  0  0  0  0  0  0  0
   -3.9070    1.0971  -21.9940 C   0  0  0  0  0  0  0  0  0  0  0  0
   -5.0037    0.2966  -21.7868 C   0  0  0  0  0  0  0  0  0  0  0  0
   -5.4448   -0.0065  -20.4722 C   0  0  0  0  0  0  0  0  0  0  0  0
   -5.5370   -0.1090  -22.6398 H   0  0  0  0  0  0  0  0  0  0  0  0
   -3.5872    1.3236  -23.0054 H   0  0  0  0  0  0  0  0  0  0  0  0
   -2.3333    2.2767  -21.0889 H   0  0  0  0  0  0  0  0  0  0  0  0
   -3.0524    1.7748  -18.7743 H   0  0  0  0  0  0  0  0  0  0  0  0
   -4.5996    0.6288  -17.2172 H   0  0  0  0  0  0  0  0  0  0  0  0
   -7.7185   -1.6697  -18.5870 H   0  0  0  0  0  0  0  0  0  0  0  0
   -8.3349   -1.8263  -20.8461 H   0  0  0  0  0  0  0  0  0  0  0  0
   -7.6872   -0.6998  -22.0209 H   0  0  0  0  0  0  0  0  0  0  0  0
   -7.0459   -3.0668  -23.1954 N   0  0  0  0  0  0  0  0  0  0  0  0
   -6.6676   -4.4022  -23.6640 C   0  0  0  0  0  0  0  0  0  0  0  0
   -7.8180   -5.0362  -24.4340 C   0  0  0  0  0  0  0  0  0  0  0  0
   -8.2728   -4.2032  -25.6414 C   0  0  0  0  0  0  0  0  0  0  0  0
   -8.0324   -4.8557  -27.0307 C   0  0  0  0  0  0  0  0  0  0  0  0
   -9.5456   -4.9269  -27.2912 C   0  0  0  0  0  0  0  0  0  0  0  0
   -9.8011   -4.2865  -25.9169 C   0  0  0  0  0  0  0  0  0  0  0  0
  -10.3055   -3.3191  -25.9467 H   0  0  0  0  0  0  0  0  0  0  0  0
  -10.3427   -4.9254  -25.2175 H   0  0  0  0  0  0  0  0  0  0  0  0
   -9.8852   -4.3319  -28.1399 H   0  0  0  0  0  0  0  0  0  0  0  0
   -9.9363   -5.9397  -27.3933 H   0  0  0  0  0  0  0  0  0  0  0  0
   -7.4845   -4.2216  -27.7287 H   0  0  0  0  0  0  0  0  0  0  0  0
   -7.5274   -5.8221  -26.9903 H   0  0  0  0  0  0  0  0  0  0  0  0
   -7.7283   -2.7763  -25.5536 C   0  0  0  0  0  0  0  0  0  0  0  0
   -7.7419   -2.1981  -24.1419 C   0  0  0  0  0  0  0  0  0  0  0  0
   -8.7762   -2.0286  -23.8226 H   0  0  0  0  0  0  0  0  0  0  0  0
   -7.2629   -1.2115  -24.1739 H   0  0  0  0  0  0  0  0  0  0  0  0
   -6.7108   -2.7372  -25.9628 H   0  0  0  0  0  0  0  0  0  0  0  0
   -8.3053   -2.1257  -26.2175 H   0  0  0  0  0  0  0  0  0  0  0  0
   -7.5454   -6.0470  -24.7534 H   0  0  0  0  0  0  0  0  0  0  0  0
   -8.6543   -5.1727  -23.7380 H   0  0  0  0  0  0  0  0  0  0  0  0
   -6.4074   -5.0123  -22.8007 H   0  0  0  0  0  0  0  0  0  0  0  0
   -5.7710   -4.3619  -24.2940 H   0  0  0  0  0  0  0  0  0  0  0  0
  1  2  2  0
  2  3  1  0
  3  4  1  0
  4  5  2  0
  5  6  1  0
  6  7  2  0
  7  8  1  0
  8  9  2  0
  9 10  1  0
 10 11  2  0
 11 12  1  0
 12 13  2  0
 12 14  1  0
 11 15  1  0
 10 16  1  0
  9 17  1  0
  7 18  1  0
  5 19  1  0
  3 20  1  0
  3 21  1  0
  2 22  1  0
 22 23  1  0
 23 24  1  0
 24 25  1  0
 25 26  1  0
 26 27  1  0
 27 28  1  0
 28 29  1  0
 28 30  1  0
 27 31  1  0
 27 32  1  0
 26 33  1  0
 26 34  1  0
 25 35  1  0
 35 36  1  0
 36 37  1  0
 36 38  1  0
 35 39  1  0
 35 40  1  0
 24 41  1  0
 24 42  1  0
 23 43  1  0
 23 44  1  0
 13  4  1  0
 36 22  1  0
 13  8  1  0
 28 25  1  0
M  END
>  <cnnaffinities>  (59) 
[5.27779, 5.27814, 5.27825, 5.27693, 4.95642, 4.95515, 4.95429, 4.57424]

>  <score>  (59) 
5.27779

>  <index>  (59) 
61

>  <Smiles>  (59) 
O=C(C(c1c(nc(c2c(c(c(c(c12)[H])[H])[H])[H])[H])[H])([H])[H])N1C(C(C2(C(C(C2([H])[H])([H])[H])([H])[H])C(C1([H])[H])([H])[H])([H])[H])([H])[H]

>  <h>  (59) 
<NA>

>  <Training>  (59) 
True

>  <Success>  (59) 
True

>  <enamine_searched>  (59) 
False

>  <enamine_id>  (59) 
nan

$$$$

     RDKit          3D

 44 47  0  0  0  0  0  0  0  0999 V2000
   -8.4633    0.7477  -21.4983 O   0  0  0  0  0  0  0  0  0  0  0  0
   -8.5272   -0.4404  -21.7796 C   0  0  0  0  0  0  0  0  0  0  0  0
   -7.4644   -1.4248  -21.2813 C   0  0  0  0  0  0  0  0  0  0  0  0
   -6.5975   -0.8237  -20.2072 C   0  0  0  0  0  0  0  0  0  0  0  0
   -6.9150   -1.0160  -18.8877 C   0  0  0  0  0  0  0  0  0  0  0  0
   -6.2439   -0.4881  -17.8314 N   0  0  0  0  0  0  0  0  0  0  0  0
   -5.1892    0.2409  -18.0946 C   0  0  0  0  0  0  0  0  0  0  0  0
   -4.7398    0.5318  -19.4084 C   0  0  0  0  0  0  0  0  0  0  0  0
   -3.6066    1.3497  -19.6393 C   0  0  0  0  0  0  0  0  0  0  0  0
   -3.2146    1.6459  -20.9164 C   0  0  0  0  0  0  0  0  0  0  0  0
   -3.9400    1.1289  -22.0154 C   0  0  0  0  0  0  0  0  0  0  0  0
   -5.0404    0.3305  -21.8145 C   0  0  0  0  0  0  0  0  0  0  0  0
   -5.4714    0.0032  -20.5012 C   0  0  0  0  0  0  0  0  0  0  0  0
   -5.6060   -0.0402  -22.6646 H   0  0  0  0  0  0  0  0  0  0  0  0
   -3.6248    1.3777  -23.0265 H   0  0  0  0  0  0  0  0  0  0  0  0
   -2.3605    2.2958  -21.0917 H   0  0  0  0  0  0  0  0  0  0  0  0
   -3.0775    1.7507  -18.7755 H   0  0  0  0  0  0  0  0  0  0  0  0
   -4.6258    0.6442  -17.2491 H   0  0  0  0  0  0  0  0  0  0  0  0
   -7.7592   -1.6513  -18.6141 H   0  0  0  0  0  0  0  0  0  0  0  0
   -7.9974   -2.2904  -20.8696 H   0  0  0  0  0  0  0  0  0  0  0  0
   -6.8770   -1.8025  -22.1304 H   0  0  0  0  0  0  0  0  0  0  0  0
   -9.5739   -0.9559  -22.4979 N   0  0  0  0  0  0  0  0  0  0  0  0
  -10.6266   -0.0098  -22.8569 C   0  0  0  0  0  0  0  0  0  0  0  0
  -11.9113   -0.7433  -23.2741 C   0  0  0  0  0  0  0  0  0  0  0  0
  -12.1007   -2.1063  -22.5834 C   0  0  0  0  0  0  0  0  0  0  0  0
  -13.3830   -2.7827  -23.0194 C   0  0  0  0  0  0  0  0  0  0  0  0
  -14.6800   -2.4345  -22.3701 C   0  0  0  0  0  0  0  0  0  0  0  0
  -14.0735   -3.7919  -22.1467 C   0  0  0  0  0  0  0  0  0  0  0  0
  -13.6192   -4.0131  -21.1834 H   0  0  0  0  0  0  0  0  0  0  0  0
  -14.5583   -4.6506  -22.5988 H   0  0  0  0  0  0  0  0  0  0  0  0
  -14.6890   -1.7239  -21.5479 H   0  0  0  0  0  0  0  0  0  0  0  0
  -15.5205   -2.3480  -23.0454 H   0  0  0  0  0  0  0  0  0  0  0  0
  -13.4524   -2.9665  -24.0903 H   0  0  0  0  0  0  0  0  0  0  0  0
  -10.8881   -3.0349  -22.7920 C   0  0  0  0  0  0  0  0  0  0  0  0
   -9.6298   -2.2472  -23.1812 C   0  0  0  0  0  0  0  0  0  0  0  0
   -9.6435   -2.0812  -24.2696 H   0  0  0  0  0  0  0  0  0  0  0  0
   -8.7235   -2.8177  -22.9674 H   0  0  0  0  0  0  0  0  0  0  0  0
  -10.7229   -3.6161  -21.8772 H   0  0  0  0  0  0  0  0  0  0  0  0
  -11.0894   -3.7654  -23.5854 H   0  0  0  0  0  0  0  0  0  0  0  0
  -12.1780   -1.9130  -21.5114 H   0  0  0  0  0  0  0  0  0  0  0  0
  -12.7814   -0.0958  -23.0932 H   0  0  0  0  0  0  0  0  0  0  0  0
  -11.8657   -0.9053  -24.3570 H   0  0  0  0  0  0  0  0  0  0  0  0
  -10.7791    0.6415  -21.9935 H   0  0  0  0  0  0  0  0  0  0  0  0
  -10.2632    0.6300  -23.6801 H   0  0  0  0  0  0  0  0  0  0  0  0
  1  2  2  0
  2  3  1  0
  3  4  1  0
  4  5  2  0
  5  6  1  0
  6  7  2  0
  7  8  1  0
  8  9  2  0
  9 10  1  0
 10 11  2  0
 11 12  1  0
 12 13  2  0
 12 14  1  0
 11 15  1  0
 10 16  1  0
  9 17  1  0
  7 18  1  0
  5 19  1  0
  3 20  1  0
  3 21  1  0
  2 22  1  0
 22 23  1  0
 23 24  1  0
 24 25  1  0
 25 26  1  0
 26 27  1  0
 27 28  1  0
 28 29  1  0
 28 30  1  0
 27 31  1  0
 27 32  1  0
 26 33  1  0
 25 34  1  0
 34 35  1  0
 35 36  1  0
 35 37  1  0
 34 38  1  0
 34 39  1  0
 25 40  1  0
 24 41  1  0
 24 42  1  0
 23 43  1  0
 23 44  1  0
 13  4  1  0
 35 22  1  0
 13  8  1  0
 28 26  1  0
M  END
>  <cnnaffinities>  (60) 
[5.17699, 5.01604, 5.38115, 5.31189, 4.94573]

>  <score>  (60) 
5.17699

>  <index>  (60) 
62

>  <Smiles>  (60) 
O=C(C(c1c(nc(c2c(c(c(c(c12)[H])[H])[H])[H])[H])[H])([H])[H])N1C(C(C(C2(C(C2([H])[H])([H])[H])[H])(C(C1([H])[H])([H])[H])[H])([H])[H])([H])[H]

>  <h>  (60) 
<NA>

>  <Training>  (60) 
True

>  <Success>  (60) 
True

>  <enamine_searched>  (60) 
False

>  <enamine_id>  (60) 
nan

$$$$

     RDKit          3D

 57 61  0  0  0  0  0  0  0  0999 V2000
   -8.1477   -5.6887  -27.6066 C   0  0  0  0  0  0  0  0  0  0  0  0
   -8.3739   -4.2647  -27.4440 N   0  0  0  0  0  0  0  0  0  0  0  0
   -7.3693   -3.4686  -27.0338 C   0  0  0  0  0  0  0  0  0  0  0  0
   -6.2640   -3.9097  -26.7108 O   0  0  0  0  0  0  0  0  0  0  0  0
   -7.7098   -1.9819  -26.8994 C   0  0  0  0  0  0  0  0  0  0  0  0
   -8.5752   -1.7368  -25.7503 N   0  0  0  0  0  0  0  0  0  0  0  0
   -8.0138   -1.2440  -24.4968 C   0  0  0  0  0  0  0  0  0  0  0  0
   -8.8512   -1.5716  -23.2201 C   0  0  2  0  0  0  0  0  0  0  0  0
   -8.3544   -0.5717  -22.1516 C   0  0  0  0  0  0  0  0  0  0  0  0
   -8.6149    0.6090  -22.0663 O   0  0  0  0  0  0  0  0  0  0  0  0
   -7.4733   -1.2407  -21.3162 N   0  0  0  0  0  0  0  0  0  0  0  0
   -6.6808   -0.6507  -20.3004 C   0  0  0  0  0  0  0  0  0  0  0  0
   -6.9853   -0.9289  -18.9918 C   0  0  0  0  0  0  0  0  0  0  0  0
   -6.3094   -0.4512  -17.9234 N   0  0  0  0  0  0  0  0  0  0  0  0
   -5.2538    0.2848  -18.1671 C   0  0  0  0  0  0  0  0  0  0  0  0
   -4.7743    0.5909  -19.4700 C   0  0  0  0  0  0  0  0  0  0  0  0
   -3.6034    1.3682  -19.6627 C   0  0  0  0  0  0  0  0  0  0  0  0
   -3.1469    1.6257  -20.9242 C   0  0  0  0  0  0  0  0  0  0  0  0
   -3.8244    1.1005  -22.0463 C   0  0  0  0  0  0  0  0  0  0  0  0
   -4.9608    0.3475  -21.8824 C   0  0  0  0  0  0  0  0  0  0  0  0
   -5.4865    0.0944  -20.5856 C   0  0  0  0  0  0  0  0  0  0  0  0
   -5.4604   -0.0635  -22.7535 H   0  0  0  0  0  0  0  0  0  0  0  0
   -3.4449    1.3042  -23.0427 H   0  0  0  0  0  0  0  0  0  0  0  0
   -2.2649    2.2406  -21.0705 H   0  0  0  0  0  0  0  0  0  0  0  0
   -3.0958    1.7620  -18.7865 H   0  0  0  0  0  0  0  0  0  0  0  0
   -4.7165    0.6647  -17.3023 H   0  0  0  0  0  0  0  0  0  0  0  0
   -7.8420   -1.5649  -18.7723 H   0  0  0  0  0  0  0  0  0  0  0  0
   -7.3546   -2.6588  -21.5770 C   0  0  0  0  0  0  0  0  0  0  0  0
   -8.5137   -2.9375  -22.5293 C   0  0  2  0  0  0  0  0  0  0  0  0
   -8.2620   -4.1136  -23.4631 C   0  0  0  0  0  0  0  0  0  0  0  0
   -6.9141   -4.0869  -23.8824 O   0  0  0  0  0  0  0  0  0  0  0  0
   -6.8186   -4.2487  -24.8316 H   0  0  0  0  0  0  0  0  0  0  0  0
   -8.4577   -5.0557  -22.9296 H   0  0  0  0  0  0  0  0  0  0  0  0
   -8.9605   -4.0487  -24.3078 H   0  0  0  0  0  0  0  0  0  0  0  0
   -9.3964   -3.1790  -21.9224 H   0  0  0  0  0  0  0  0  0  0  0  0
   -6.3916   -2.9018  -22.0429 H   0  0  0  0  0  0  0  0  0  0  0  0
   -7.4295   -3.2212  -20.6404 H   0  0  0  0  0  0  0  0  0  0  0  0
  -10.3356   -1.4890  -23.5198 C   0  0  0  0  0  0  0  0  0  0  0  0
  -11.2885   -1.4804  -22.4870 C   0  0  0  0  0  0  0  0  0  0  0  0
  -12.6423   -1.4810  -22.7910 C   0  0  0  0  0  0  0  0  0  0  0  0
  -13.8459   -1.5971  -21.5443 Cl  0  0  0  0  0  0  0  0  0  0  0  0
  -13.0995   -1.5229  -24.1059 C   0  0  0  0  0  0  0  0  0  0  0  0
  -12.1629   -1.5825  -25.1084 C   0  0  0  0  0  0  0  0  0  0  0  0
  -10.8083   -1.5911  -24.8272 C   0  0  0  0  0  0  0  0  0  0  0  0
   -9.9048   -1.8669  -25.9695 C   0  0  0  0  0  0  0  0  0  0  0  0
  -10.3434   -2.2636  -27.0538 O   0  0  0  0  0  0  0  0  0  0  0  0
  -12.4450   -1.6860  -26.1443 H   0  0  0  0  0  0  0  0  0  0  0  0
  -14.1572   -1.5833  -24.3205 H   0  0  0  0  0  0  0  0  0  0  0  0
  -10.9757   -1.5368  -21.4502 H   0  0  0  0  0  0  0  0  0  0  0  0
   -7.0144   -1.6845  -24.3862 H   0  0  0  0  0  0  0  0  0  0  0  0
   -7.9257   -0.1507  -24.5401 H   0  0  0  0  0  0  0  0  0  0  0  0
   -6.7878   -1.4033  -26.8216 H   0  0  0  0  0  0  0  0  0  0  0  0
   -8.2564   -1.6510  -27.7858 H   0  0  0  0  0  0  0  0  0  0  0  0
   -9.2972   -3.8592  -27.5677 H   0  0  0  0  0  0  0  0  0  0  0  0
   -7.7351   -6.1270  -26.6892 H   0  0  0  0  0  0  0  0  0  0  0  0
   -9.0940   -6.1785  -27.8412 H   0  0  0  0  0  0  0  0  0  0  0  0
   -7.4367   -5.8768  -28.4176 H   0  0  0  0  0  0  0  0  0  0  0  0
  1  2  1  0
  2  3  1  0
  3  4  2  0
  3  5  1  0
  5  6  1  0
  6  7  1  0
  8  7  1  6
  8  9  1  0
  9 10  2  0
  9 11  1  0
 11 12  1  0
 12 13  2  0
 13 14  1  0
 14 15  2  0
 15 16  1  0
 16 17  2  0
 17 18  1  0
 18 19  2  0
 19 20  1  0
 20 21  2  0
 20 22  1  0
 19 23  1  0
 18 24  1  0
 17 25  1  0
 15 26  1  0
 13 27  1  0
 11 28  1  0
 28 29  1  0
 29 30  1  0
 30 31  1  0
 31 32  1  0
 30 33  1  0
 30 34  1  0
 29 35  1  1
 28 36  1  0
 28 37  1  0
  8 38  1  0
 38 39  2  0
 39 40  1  0
 40 41  1  0
 40 42  2  0
 42 43  1  0
 43 44  2  0
 44 45  1  0
 45 46  2  0
 43 47  1  0
 42 48  1  0
 39 49  1  0
  7 50  1  0
  7 51  1  0
  5 52  1  0
  5 53  1  0
  2 54  1  0
  1 55  1  0
  1 56  1  0
  1 57  1  0
 45  6  1  0
 29  8  1  0
 44 38  1  0
 21 12  1  0
 21 16  1  0
M  END
>  <cnnaffinities>  (61) 
[5.96719]

>  <score>  (61) 
5.96719

>  <index>  (61) 
63

>  <Smiles>  (61) 
C(N(C(=O)C(N1C([C@@]2(C(=O)N(c3c(nc(c4c(c(c(c(c34)[H])[H])[H])[H])[H])[H])C([C@@]2(C(O[H])([H])[H])[H])([H])[H])c2c(c(Cl)c(c(c2C1=O)[H])[H])[H])([H])[H])([H])[H])[H])([H])([H])[H]

>  <h>  (61) 
<NA>

>  <Training>  (61) 
True

>  <Success>  (61) 
True

>  <enamine_searched>  (61) 
False

>  <enamine_id>  (61) 
nan

$$$$

     RDKit          3D

 55 60  0  0  0  0  0  0  0  0999 V2000
  -10.4809   -1.0902  -23.3086 C   0  0  0  0  0  0  0  0  0  0  0  0
   -9.0340   -1.4299  -22.9717 C   0  0  1  0  0  0  0  0  0  0  0  0
   -8.4367   -0.4821  -21.9160 C   0  0  0  0  0  0  0  0  0  0  0  0
   -7.4340   -1.2977  -21.2596 N   0  0  0  0  0  0  0  0  0  0  0  0
   -6.6024   -0.8100  -20.2228 C   0  0  0  0  0  0  0  0  0  0  0  0
   -6.9212   -1.0366  -18.9077 C   0  0  0  0  0  0  0  0  0  0  0  0
   -6.2542   -0.4925  -17.8615 N   0  0  0  0  0  0  0  0  0  0  0  0
   -5.2192    0.2625  -18.1242 C   0  0  0  0  0  0  0  0  0  0  0  0
   -4.7587    0.5504  -19.4377 C   0  0  0  0  0  0  0  0  0  0  0  0
   -3.6145    1.3566  -19.6654 C   0  0  0  0  0  0  0  0  0  0  0  0
   -3.2069    1.6194  -20.9423 C   0  0  0  0  0  0  0  0  0  0  0  0
   -3.9133    1.0816  -22.0413 C   0  0  0  0  0  0  0  0  0  0  0  0
   -5.0193    0.2892  -21.8460 C   0  0  0  0  0  0  0  0  0  0  0  0
   -5.4706    0.0087  -20.5293 C   0  0  0  0  0  0  0  0  0  0  0  0
   -5.5467   -0.1373  -22.6929 H   0  0  0  0  0  0  0  0  0  0  0  0
   -3.5743    1.2936  -23.0497 H   0  0  0  0  0  0  0  0  0  0  0  0
   -2.3376    2.2464  -21.1210 H   0  0  0  0  0  0  0  0  0  0  0  0
   -3.0825    1.7598  -18.8083 H   0  0  0  0  0  0  0  0  0  0  0  0
   -4.6801    0.6784  -17.2738 H   0  0  0  0  0  0  0  0  0  0  0  0
   -7.7674   -1.6675  -18.6477 H   0  0  0  0  0  0  0  0  0  0  0  0
   -7.5573   -2.6447  -21.5157 C   0  0  0  0  0  0  0  0  0  0  0  0
   -6.7652   -3.4807  -21.1440 O   0  0  0  0  0  0  0  0  0  0  0  0
   -8.7972   -2.8731  -22.3944 C   0  0  1  0  0  0  0  0  0  0  0  0
   -9.9874   -3.3300  -21.5159 C   0  0  0  0  0  0  0  0  0  0  0  0
  -11.1209   -3.7916  -22.3148 N   0  0  0  0  0  0  0  0  0  0  0  0
  -12.4886   -3.6712  -21.8312 C   0  0  0  0  0  0  0  0  0  0  0  0
  -13.3286   -2.6283  -22.5131 C   0  0  0  0  0  0  0  0  0  0  0  0
  -13.7335   -1.4548  -21.9460 N   0  0  0  0  0  0  0  0  0  0  0  0
  -14.5806   -0.9738  -22.8372 C   0  0  0  0  0  0  0  0  0  0  0  0
  -14.6526   -1.8026  -23.8879 N   0  0  0  0  0  0  0  0  0  0  0  0
  -13.8531   -2.8706  -23.6995 N   0  0  0  0  0  0  0  0  0  0  0  0
  -15.2652   -1.7717  -24.6832 H   0  0  0  0  0  0  0  0  0  0  0  0
  -15.1911   -0.0857  -22.7544 H   0  0  0  0  0  0  0  0  0  0  0  0
  -12.9746   -4.6154  -22.0856 H   0  0  0  0  0  0  0  0  0  0  0  0
  -12.4831   -3.5268  -20.7520 H   0  0  0  0  0  0  0  0  0  0  0  0
  -10.9472   -4.6056  -23.4004 C   0  0  0  0  0  0  0  0  0  0  0  0
  -11.8879   -5.1423  -23.9690 O   0  0  0  0  0  0  0  0  0  0  0  0
   -9.5486   -4.7749  -23.8819 C   0  0  0  0  0  0  0  0  0  0  0  0
   -9.3120   -5.7626  -24.8377 C   0  0  0  0  0  0  0  0  0  0  0  0
   -8.0532   -5.9184  -25.3849 C   0  0  0  0  0  0  0  0  0  0  0  0
   -7.0489   -5.0540  -24.9649 C   0  0  0  0  0  0  0  0  0  0  0  0
   -5.8220   -5.1876  -25.4951 F   0  0  0  0  0  0  0  0  0  0  0  0
   -7.2525   -4.0925  -23.9947 C   0  0  0  0  0  0  0  0  0  0  0  0
   -8.5249   -3.9380  -23.4321 C   0  0  0  0  0  0  0  0  0  0  0  0
   -6.4068   -3.5104  -23.6533 H   0  0  0  0  0  0  0  0  0  0  0  0
   -7.8415   -6.6887  -26.1182 H   0  0  0  0  0  0  0  0  0  0  0  0
  -10.1453   -6.3903  -25.1422 H   0  0  0  0  0  0  0  0  0  0  0  0
  -10.2941   -2.4591  -20.9279 H   0  0  0  0  0  0  0  0  0  0  0  0
   -9.6608   -4.1269  -20.8371 H   0  0  0  0  0  0  0  0  0  0  0  0
   -9.2031   -0.1334  -21.2016 H   0  0  0  0  0  0  0  0  0  0  0  0
   -7.9749    0.4029  -22.3656 H   0  0  0  0  0  0  0  0  0  0  0  0
   -8.4175   -1.3769  -23.8799 H   0  0  0  0  0  0  0  0  0  0  0  0
  -10.5626   -0.1288  -23.8231 H   0  0  0  0  0  0  0  0  0  0  0  0
  -11.0778   -1.0344  -22.3920 H   0  0  0  0  0  0  0  0  0  0  0  0
  -10.9235   -1.8696  -23.9343 H   0  0  0  0  0  0  0  0  0  0  0  0
  1  2  1  0
  2  3  1  0
  3  4  1  0
  4  5  1  0
  5  6  2  0
  6  7  1  0
  7  8  2  0
  8  9  1  0
  9 10  2  0
 10 11  1  0
 11 12  2  0
 12 13  1  0
 13 14  2  0
 13 15  1  0
 12 16  1  0
 11 17  1  0
 10 18  1  0
  8 19  1  0
  6 20  1  0
  4 21  1  0
 21 22  2  0
 21 23  1  0
 23 24  1  1
 24 25  1  0
 25 26  1  0
 26 27  1  0
 27 28  1  0
 28 29  2  0
 29 30  1  0
 30 31  1  0
 30 32  1  0
 29 33  1  0
 26 34  1  0
 26 35  1  0
 25 36  1  0
 36 37  2  0
 36 38  1  0
 38 39  2  0
 39 40  1  0
 40 41  2  0
 41 42  1  0
 41 43  1  0
 43 44  2  0
 43 45  1  0
 40 46  1  0
 39 47  1  0
 24 48  1  0
 24 49  1  0
  3 50  1  0
  3 51  1  0
  2 52  1  6
  1 53  1  0
  1 54  1  0
  1 55  1  0
 23  2  1  0
 31 27  2  0
 44 38  1  0
 14  5  1  0
 44 23  1  0
 14  9  1  0
M  END
>  <cnnaffinities>  (62) 
[6.6503, 6.71602]

>  <score>  (62) 
6.6503

>  <index>  (62) 
64

>  <Smiles>  (62) 
C([C@]1(C(N(c2c(nc(c3c(c(c(c(c23)[H])[H])[H])[H])[H])[H])C(=O)[C@]21C(N(C(c1nc(n(n1)[H])[H])([H])[H])C(=O)c1c(c(c(F)c(c21)[H])[H])[H])([H])[H])([H])[H])[H])([H])([H])[H]

>  <h>  (62) 
<NA>

>  <Training>  (62) 
True

>  <Success>  (62) 
True

>  <enamine_searched>  (62) 
False

>  <enamine_id>  (62) 
nan

$$$$

     RDKit          3D

 55 60  0  0  0  0  0  0  0  0999 V2000
  -10.4762   -1.0637  -23.3824 C   0  0  0  0  0  0  0  0  0  0  0  0
   -9.0245   -1.3904  -23.0236 C   0  0  1  0  0  0  0  0  0  0  0  0
   -8.4516   -0.4675  -21.9286 C   0  0  0  0  0  0  0  0  0  0  0  0
   -7.4274   -1.2816  -21.3012 N   0  0  0  0  0  0  0  0  0  0  0  0
   -6.6138   -0.7956  -20.2464 C   0  0  0  0  0  0  0  0  0  0  0  0
   -6.9411   -1.0278  -18.9343 C   0  0  0  0  0  0  0  0  0  0  0  0
   -6.2789   -0.4831  -17.8827 N   0  0  0  0  0  0  0  0  0  0  0  0
   -5.2393    0.2722  -18.1351 C   0  0  0  0  0  0  0  0  0  0  0  0
   -4.7658    0.5596  -19.4467 C   0  0  0  0  0  0  0  0  0  0  0  0
   -3.6225    1.3674  -19.6792 C   0  0  0  0  0  0  0  0  0  0  0  0
   -3.2080    1.6220  -20.9577 C   0  0  0  0  0  0  0  0  0  0  0  0
   -3.9127    1.0838  -22.0580 C   0  0  0  0  0  0  0  0  0  0  0  0
   -5.0222    0.2983  -21.8581 C   0  0  0  0  0  0  0  0  0  0  0  0
   -5.4761    0.0211  -20.5413 C   0  0  0  0  0  0  0  0  0  0  0  0
   -5.5563   -0.1293  -22.7003 H   0  0  0  0  0  0  0  0  0  0  0  0
   -3.5722    1.2966  -23.0673 H   0  0  0  0  0  0  0  0  0  0  0  0
   -2.3338    2.2431  -21.1333 H   0  0  0  0  0  0  0  0  0  0  0  0
   -3.0935    1.7708  -18.8199 H   0  0  0  0  0  0  0  0  0  0  0  0
   -4.7118    0.7018  -17.2818 H   0  0  0  0  0  0  0  0  0  0  0  0
   -7.7846   -1.6658  -18.6766 H   0  0  0  0  0  0  0  0  0  0  0  0
   -7.5615   -2.6289  -21.5482 C   0  0  0  0  0  0  0  0  0  0  0  0
   -6.8209   -3.4730  -21.0879 O   0  0  0  0  0  0  0  0  0  0  0  0
   -8.7659   -2.8473  -22.4833 C   0  0  1  0  0  0  0  0  0  0  0  0
   -9.9481   -3.3415  -21.6070 C   0  0  0  0  0  0  0  0  0  0  0  0
  -11.0890   -3.8092  -22.3934 N   0  0  0  0  0  0  0  0  0  0  0  0
  -12.4599   -3.7697  -21.8806 C   0  0  0  0  0  0  0  0  0  0  0  0
  -13.3331   -2.6739  -22.4200 C   0  0  0  0  0  0  0  0  0  0  0  0
  -14.0172   -2.6762  -23.5839 C   0  0  0  0  0  0  0  0  0  0  0  0
  -14.7693   -1.5407  -23.6613 O   0  0  0  0  0  0  0  0  0  0  0  0
  -14.4880   -0.8987  -22.5146 C   0  0  0  0  0  0  0  0  0  0  0  0
  -13.6465   -1.5002  -21.7405 N   0  0  0  0  0  0  0  0  0  0  0  0
  -15.0020    0.0328  -22.3405 H   0  0  0  0  0  0  0  0  0  0  0  0
  -14.1403   -3.3945  -24.3711 H   0  0  0  0  0  0  0  0  0  0  0  0
  -12.4676   -3.7267  -20.7913 H   0  0  0  0  0  0  0  0  0  0  0  0
  -12.9300   -4.6948  -22.2175 H   0  0  0  0  0  0  0  0  0  0  0  0
  -10.9148   -4.5589  -23.5268 C   0  0  0  0  0  0  0  0  0  0  0  0
  -11.8654   -5.0649  -24.1185 O   0  0  0  0  0  0  0  0  0  0  0  0
   -9.5122   -4.7147  -24.0133 C   0  0  0  0  0  0  0  0  0  0  0  0
   -9.2642   -5.7116  -24.9533 C   0  0  0  0  0  0  0  0  0  0  0  0
   -7.9940   -5.9180  -25.4524 C   0  0  0  0  0  0  0  0  0  0  0  0
   -6.9844   -5.0776  -25.0018 C   0  0  0  0  0  0  0  0  0  0  0  0
   -5.7494   -5.2493  -25.4965 F   0  0  0  0  0  0  0  0  0  0  0  0
   -7.1903   -4.0840  -24.0641 C   0  0  0  0  0  0  0  0  0  0  0  0
   -8.4784   -3.8961  -23.5407 C   0  0  0  0  0  0  0  0  0  0  0  0
   -6.3356   -3.5116  -23.7153 H   0  0  0  0  0  0  0  0  0  0  0  0
   -7.7714   -6.7164  -26.1533 H   0  0  0  0  0  0  0  0  0  0  0  0
  -10.0979   -6.3234  -25.2739 H   0  0  0  0  0  0  0  0  0  0  0  0
  -10.2623   -2.5129  -20.9631 H   0  0  0  0  0  0  0  0  0  0  0  0
   -9.5771   -4.1428  -20.9594 H   0  0  0  0  0  0  0  0  0  0  0  0
   -9.2239   -0.1800  -21.1963 H   0  0  0  0  0  0  0  0  0  0  0  0
   -8.0213    0.4620  -22.3198 H   0  0  0  0  0  0  0  0  0  0  0  0
   -8.3992   -1.2866  -23.9214 H   0  0  0  0  0  0  0  0  0  0  0  0
  -10.5608   -0.0954  -23.8844 H   0  0  0  0  0  0  0  0  0  0  0  0
  -10.8900   -1.8296  -24.0470 H   0  0  0  0  0  0  0  0  0  0  0  0
  -11.1144   -1.0227  -22.4914 H   0  0  0  0  0  0  0  0  0  0  0  0
  1  2  1  0
  2  3  1  0
  3  4  1  0
  4  5  1  0
  5  6  2  0
  6  7  1  0
  7  8  2  0
  8  9  1  0
  9 10  2  0
 10 11  1  0
 11 12  2  0
 12 13  1  0
 13 14  2  0
 13 15  1  0
 12 16  1  0
 11 17  1  0
 10 18  1  0
  8 19  1  0
  6 20  1  0
  4 21  1  0
 21 22  2  0
 21 23  1  0
 23 24  1  1
 24 25  1  0
 25 26  1  0
 26 27  1  0
 27 28  2  0
 28 29  1  0
 29 30  1  0
 30 31  2  0
 30 32  1  0
 28 33  1  0
 26 34  1  0
 26 35  1  0
 25 36  1  0
 36 37  2  0
 36 38  1  0
 38 39  2  0
 39 40  1  0
 40 41  2  0
 41 42  1  0
 41 43  1  0
 43 44  2  0
 43 45  1  0
 40 46  1  0
 39 47  1  0
 24 48  1  0
 24 49  1  0
  3 50  1  0
  3 51  1  0
  2 52  1  6
  1 53  1  0
  1 54  1  0
  1 55  1  0
 23  2  1  0
 31 27  1  0
 44 38  1  0
 14  5  1  0
 44 23  1  0
 14  9  1  0
M  END
>  <cnnaffinities>  (63) 
[6.65497]

>  <score>  (63) 
6.65497

>  <index>  (63) 
65

>  <Smiles>  (63) 
C([C@]1(C(N(c2c(nc(c3c(c(c(c(c23)[H])[H])[H])[H])[H])[H])C(=O)[C@]21C(N(C(c1c(oc(n1)[H])[H])([H])[H])C(=O)c1c(c(c(F)c(c21)[H])[H])[H])([H])[H])([H])[H])[H])([H])([H])[H]

>  <h>  (63) 
<NA>

>  <Training>  (63) 
True

>  <Success>  (63) 
True

>  <enamine_searched>  (63) 
False

>  <enamine_id>  (63) 
nan

$$$$

     RDKit          3D

 44 47  0  0  0  0  0  0  0  0999 V2000
   -7.8633   -0.6300  -24.9376 C   0  0  0  0  0  0  0  0  0  0  0  0
   -8.3869   -2.0405  -25.1093 C   0  0  0  0  0  0  0  0  0  0  0  0
   -8.3360   -2.8823  -23.8281 C   0  0  1  0  0  0  0  0  0  0  0  0
   -8.8926   -4.2593  -24.0821 C   0  0  0  0  0  0  0  0  0  0  0  0
  -10.2726   -4.5619  -24.3013 C   0  0  0  0  0  0  0  0  0  0  0  0
  -10.4689   -5.8765  -24.5909 C   0  0  0  0  0  0  0  0  0  0  0  0
   -8.9922   -6.7734  -24.5664 S   0  0  0  0  0  0  0  0  0  0  0  0
   -8.0863   -5.3524  -24.1795 C   0  0  0  0  0  0  0  0  0  0  0  0
   -6.6072   -5.3352  -23.9374 C   0  0  0  0  0  0  0  0  0  0  0  0
   -6.0947   -3.8947  -23.9597 C   0  0  0  0  0  0  0  0  0  0  0  0
   -6.9909   -2.9803  -23.2490 N   0  0  0  0  0  0  0  0  0  0  0  0
   -6.6857   -2.6722  -21.9325 C   0  0  0  0  0  0  0  0  0  0  0  0
   -5.8364   -3.2872  -21.3140 O   0  0  0  0  0  0  0  0  0  0  0  0
   -7.4053   -1.4686  -21.2779 C   0  0  0  0  0  0  0  0  0  0  0  0
   -6.5808   -0.8277  -20.1855 C   0  0  0  0  0  0  0  0  0  0  0  0
   -6.8739   -1.0415  -18.8643 C   0  0  0  0  0  0  0  0  0  0  0  0
   -6.1955   -0.5161  -17.8115 N   0  0  0  0  0  0  0  0  0  0  0  0
   -5.1538    0.2313  -18.0700 C   0  0  0  0  0  0  0  0  0  0  0  0
   -4.7171    0.5333  -19.3869 C   0  0  0  0  0  0  0  0  0  0  0  0
   -3.5886    1.3598  -19.6240 C   0  0  0  0  0  0  0  0  0  0  0  0
   -3.1915    1.6381  -20.9035 C   0  0  0  0  0  0  0  0  0  0  0  0
   -3.9068    1.0960  -21.9940 C   0  0  0  0  0  0  0  0  0  0  0  0
   -5.0032    0.2946  -21.7870 C   0  0  0  0  0  0  0  0  0  0  0  0
   -5.4465   -0.0074  -20.4730 C   0  0  0  0  0  0  0  0  0  0  0  0
   -5.5355   -0.1119  -22.6408 H   0  0  0  0  0  0  0  0  0  0  0  0
   -3.5862    1.3227  -23.0051 H   0  0  0  0  0  0  0  0  0  0  0  0
   -2.3332    2.2769  -21.0887 H   0  0  0  0  0  0  0  0  0  0  0  0
   -3.0531    1.7750  -18.7740 H   0  0  0  0  0  0  0  0  0  0  0  0
   -4.5999    0.6288  -17.2171 H   0  0  0  0  0  0  0  0  0  0  0  0
   -7.7182   -1.6700  -18.5851 H   0  0  0  0  0  0  0  0  0  0  0  0
   -7.6873   -0.7157  -22.0271 H   0  0  0  0  0  0  0  0  0  0  0  0
   -8.3426   -1.8359  -20.8402 H   0  0  0  0  0  0  0  0  0  0  0  0
   -6.0032   -3.5641  -24.9997 H   0  0  0  0  0  0  0  0  0  0  0  0
   -5.0996   -3.8275  -23.5187 H   0  0  0  0  0  0  0  0  0  0  0  0
   -6.3964   -5.7707  -22.9550 H   0  0  0  0  0  0  0  0  0  0  0  0
   -6.0684   -5.9543  -24.6664 H   0  0  0  0  0  0  0  0  0  0  0  0
  -11.4111   -6.3837  -24.7486 H   0  0  0  0  0  0  0  0  0  0  0  0
  -11.0793   -3.8328  -24.2515 H   0  0  0  0  0  0  0  0  0  0  0  0
   -8.9883   -2.4007  -23.0925 H   0  0  0  0  0  0  0  0  0  0  0  0
   -7.8395   -2.5691  -25.8926 H   0  0  0  0  0  0  0  0  0  0  0  0
   -9.4250   -2.0179  -25.4585 H   0  0  0  0  0  0  0  0  0  0  0  0
   -7.9254   -0.0742  -25.8751 H   0  0  0  0  0  0  0  0  0  0  0  0
   -6.8185   -0.6388  -24.6157 H   0  0  0  0  0  0  0  0  0  0  0  0
   -8.4458   -0.0841  -24.1897 H   0  0  0  0  0  0  0  0  0  0  0  0
  1  2  1  0
  2  3  1  0
  3  4  1  0
  4  5  1  0
  5  6  2  0
  6  7  1  0
  7  8  1  0
  8  9  1  0
  9 10  1  0
 10 11  1  0
 11 12  1  0
 12 13  2  0
 12 14  1  0
 14 15  1  0
 15 16  2  0
 16 17  1  0
 17 18  2  0
 18 19  1  0
 19 20  2  0
 20 21  1  0
 21 22  2  0
 22 23  1  0
 23 24  2  0
 23 25  1  0
 22 26  1  0
 21 27  1  0
 20 28  1  0
 18 29  1  0
 16 30  1  0
 14 31  1  0
 14 32  1  0
 10 33  1  0
 10 34  1  0
  9 35  1  0
  9 36  1  0
  6 37  1  0
  5 38  1  0
  3 39  1  1
  2 40  1  0
  2 41  1  0
  1 42  1  0
  1 43  1  0
  1 44  1  0
 11  3  1  0
 24 15  1  0
  8  4  2  0
 24 19  1  0
M  END
>  <cnnaffinities>  (64) 
[5.46078, 5.34393, 5.35842, 5.42829, 5.41139]

>  <score>  (64) 
5.46078

>  <index>  (64) 
66

>  <Smiles>  (64) 
C(C([C@]1(c2c(c(sc2C(C(N1C(=O)C(c1c(nc(c2c(c(c(c(c12)[H])[H])[H])[H])[H])[H])([H])[H])([H])[H])([H])[H])[H])[H])[H])([H])[H])([H])([H])[H]

>  <h>  (64) 
<NA>

>  <Training>  (64) 
True

>  <Success>  (64) 
True

>  <enamine_searched>  (64) 
False

>  <enamine_id>  (64) 
nan

$$$$

     RDKit          3D

 58 63  0  0  0  0  0  0  0  0999 V2000
   -8.2891   -7.2003  -27.4880 C   0  0  0  0  0  0  0  0  0  0  0  0
   -7.7527   -5.8369  -27.1920 C   0  0  0  0  0  0  0  0  0  0  0  0
   -8.4647   -4.6135  -27.3286 C   0  0  0  0  0  0  0  0  0  0  0  0
   -7.5788   -3.6750  -26.9268 C   0  0  0  0  0  0  0  0  0  0  0  0
   -7.7242   -2.1935  -26.7985 C   0  0  0  0  0  0  0  0  0  0  0  0
   -8.5752   -1.7992  -25.6855 N   0  0  0  0  0  0  0  0  0  0  0  0
   -7.9497   -1.2494  -24.4922 C   0  0  0  0  0  0  0  0  0  0  0  0
   -8.7297   -1.5288  -23.1867 C   0  0  2  0  0  0  0  0  0  0  0  0
   -8.1299   -0.5974  -22.1100 C   0  0  0  0  0  0  0  0  0  0  0  0
   -8.2445    0.6082  -22.0396 O   0  0  0  0  0  0  0  0  0  0  0  0
   -7.3989   -1.3576  -21.2286 N   0  0  0  0  0  0  0  0  0  0  0  0
   -6.6077   -0.7896  -20.1979 C   0  0  0  0  0  0  0  0  0  0  0  0
   -6.9032   -1.0372  -18.8819 C   0  0  0  0  0  0  0  0  0  0  0  0
   -6.2163   -0.5213  -17.8364 N   0  0  0  0  0  0  0  0  0  0  0  0
   -5.1740    0.2252  -18.0963 C   0  0  0  0  0  0  0  0  0  0  0  0
   -4.7284    0.5309  -19.4105 C   0  0  0  0  0  0  0  0  0  0  0  0
   -3.5892    1.3488  -19.6406 C   0  0  0  0  0  0  0  0  0  0  0  0
   -3.1778    1.6181  -20.9158 C   0  0  0  0  0  0  0  0  0  0  0  0
   -3.8779    1.0678  -22.0139 C   0  0  0  0  0  0  0  0  0  0  0  0
   -4.9782    0.2754  -21.8151 C   0  0  0  0  0  0  0  0  0  0  0  0
   -5.4529    0.0038  -20.5014 C   0  0  0  0  0  0  0  0  0  0  0  0
   -5.5090   -0.1404  -22.6655 H   0  0  0  0  0  0  0  0  0  0  0  0
   -3.5525    1.2891  -23.0250 H   0  0  0  0  0  0  0  0  0  0  0  0
   -2.3220    2.2647  -21.0921 H   0  0  0  0  0  0  0  0  0  0  0  0
   -3.0723    1.7649  -18.7797 H   0  0  0  0  0  0  0  0  0  0  0  0
   -4.6254    0.6215  -17.2425 H   0  0  0  0  0  0  0  0  0  0  0  0
   -7.7423   -1.6780  -18.6135 H   0  0  0  0  0  0  0  0  0  0  0  0
   -7.3845   -2.7723  -21.5346 C   0  0  0  0  0  0  0  0  0  0  0  0
   -8.5155   -2.9557  -22.5584 C   0  0  2  0  0  0  0  0  0  0  0  0
   -8.2572   -4.1055  -23.5294 C   0  0  0  0  0  0  0  0  0  0  0  0
   -7.2961   -3.9664  -24.0339 H   0  0  0  0  0  0  0  0  0  0  0  0
   -9.0386   -4.1684  -24.2955 H   0  0  0  0  0  0  0  0  0  0  0  0
   -8.2187   -5.0638  -22.9998 H   0  0  0  0  0  0  0  0  0  0  0  0
   -9.4410   -3.1668  -22.0022 H   0  0  0  0  0  0  0  0  0  0  0  0
   -7.5597   -3.3263  -20.6179 H   0  0  0  0  0  0  0  0  0  0  0  0
   -6.4130   -3.0870  -21.9467 H   0  0  0  0  0  0  0  0  0  0  0  0
  -10.1940   -1.2401  -23.4392 C   0  0  0  0  0  0  0  0  0  0  0  0
  -11.0358   -0.9726  -22.3528 C   0  0  0  0  0  0  0  0  0  0  0  0
  -12.3902   -0.8534  -22.5901 C   0  0  0  0  0  0  0  0  0  0  0  0
  -13.2670   -0.7181  -21.5901 F   0  0  0  0  0  0  0  0  0  0  0  0
  -12.9392   -0.9502  -23.8577 C   0  0  0  0  0  0  0  0  0  0  0  0
  -12.1248   -1.3141  -24.9080 C   0  0  0  0  0  0  0  0  0  0  0  0
  -10.7518   -1.4174  -24.7089 C   0  0  0  0  0  0  0  0  0  0  0  0
   -9.9238   -1.7934  -25.8895 C   0  0  0  0  0  0  0  0  0  0  0  0
  -10.4374   -2.0976  -26.9623 O   0  0  0  0  0  0  0  0  0  0  0  0
  -12.4997   -1.6030  -25.8856 H   0  0  0  0  0  0  0  0  0  0  0  0
  -14.0042   -0.7887  -23.9396 H   0  0  0  0  0  0  0  0  0  0  0  0
  -10.6228   -0.8786  -21.3551 H   0  0  0  0  0  0  0  0  0  0  0  0
   -6.9508   -1.7000  -24.4242 H   0  0  0  0  0  0  0  0  0  0  0  0
   -7.8608   -0.1535  -24.5628 H   0  0  0  0  0  0  0  0  0  0  0  0
   -8.2043   -1.8210  -27.7069 H   0  0  0  0  0  0  0  0  0  0  0  0
   -6.7485   -1.7254  -26.6730 H   0  0  0  0  0  0  0  0  0  0  0  0
   -6.4214   -4.2582  -26.5864 O   0  0  0  0  0  0  0  0  0  0  0  0
   -6.5314   -5.6376  -26.7561 N   0  0  0  0  0  0  0  0  0  0  0  0
   -9.4849   -4.4633  -27.6480 H   0  0  0  0  0  0  0  0  0  0  0  0
   -9.3567   -7.2404  -27.2524 H   0  0  0  0  0  0  0  0  0  0  0  0
   -7.7647   -7.9422  -26.8896 H   0  0  0  0  0  0  0  0  0  0  0  0
   -8.1752   -7.4317  -28.5523 H   0  0  0  0  0  0  0  0  0  0  0  0
  1  2  1  0
  2  3  1  0
  3  4  2  0
  4  5  1  0
  5  6  1  0
  6  7  1  0
  8  7  1  6
  8  9  1  0
  9 10  2  0
  9 11  1  0
 11 12  1  0
 12 13  2  0
 13 14  1  0
 14 15  2  0
 15 16  1  0
 16 17  2  0
 17 18  1  0
 18 19  2  0
 19 20  1  0
 20 21  2  0
 20 22  1  0
 19 23  1  0
 18 24  1  0
 17 25  1  0
 15 26  1  0
 13 27  1  0
 11 28  1  0
 28 29  1  0
 29 30  1  0
 30 31  1  0
 30 32  1  0
 30 33  1  0
 29 34  1  1
 28 35  1  0
 28 36  1  0
  8 37  1  0
 37 38  2  0
 38 39  1  0
 39 40  1  0
 39 41  2  0
 41 42  1  0
 42 43  2  0
 43 44  1  0
 44 45  2  0
 42 46  1  0
 41 47  1  0
 38 48  1  0
  7 49  1  0
  7 50  1  0
  5 51  1  0
  5 52  1  0
  4 53  1  0
 53 54  1  0
  3 55  1  0
  1 56  1  0
  1 57  1  0
  1 58  1  0
 54  2  2  0
 44  6  1  0
 29  8  1  0
 43 37  1  0
 21 12  1  0
 21 16  1  0
M  END
>  <cnnaffinities>  (65) 
[6.40574, 6.33824]

>  <score>  (65) 
6.40574

>  <index>  (65) 
67

>  <Smiles>  (65) 
C(c1c(c(C(N2C([C@@]3(C(=O)N(c4c(nc(c5c(c(c(c(c45)[H])[H])[H])[H])[H])[H])C([C@@]3(C([H])([H])[H])[H])([H])[H])c3c(c(F)c(c(c3C2=O)[H])[H])[H])([H])[H])([H])[H])on1)[H])([H])([H])[H]

>  <h>  (65) 
<NA>

>  <Training>  (65) 
True

>  <Success>  (65) 
True

>  <enamine_searched>  (65) 
False

>  <enamine_id>  (65) 
nan

$$$$

     RDKit          3D

 65 70  0  0  0  0  0  0  0  0999 V2000
   -9.2439    0.0728  -20.7624 O   0  0  0  0  0  0  0  0  0  0  0  0
   -8.4711   -0.2970  -21.6266 C   0  0  0  0  0  0  0  0  0  0  0  0
   -7.4550   -1.3829  -21.2824 C   0  0  0  0  0  0  0  0  0  0  0  0
   -6.5586   -0.8406  -20.1937 C   0  0  0  0  0  0  0  0  0  0  0  0
   -6.8982   -1.0153  -18.8791 C   0  0  0  0  0  0  0  0  0  0  0  0
   -6.2334   -0.4778  -17.8265 N   0  0  0  0  0  0  0  0  0  0  0  0
   -5.1813    0.2496  -18.0950 C   0  0  0  0  0  0  0  0  0  0  0  0
   -4.7208    0.5362  -19.4070 C   0  0  0  0  0  0  0  0  0  0  0  0
   -3.6001    1.3729  -19.6426 C   0  0  0  0  0  0  0  0  0  0  0  0
   -3.2094    1.6681  -20.9194 C   0  0  0  0  0  0  0  0  0  0  0  0
   -3.9219    1.1362  -22.0164 C   0  0  0  0  0  0  0  0  0  0  0  0
   -5.0087    0.3175  -21.8124 C   0  0  0  0  0  0  0  0  0  0  0  0
   -5.4393   -0.0131  -20.4985 C   0  0  0  0  0  0  0  0  0  0  0  0
   -5.5567   -0.0452  -22.6769 H   0  0  0  0  0  0  0  0  0  0  0  0
   -3.6126    1.3827  -23.0289 H   0  0  0  0  0  0  0  0  0  0  0  0
   -2.3605    2.3233  -21.0944 H   0  0  0  0  0  0  0  0  0  0  0  0
   -3.0791    1.7853  -18.7823 H   0  0  0  0  0  0  0  0  0  0  0  0
   -4.6279    0.6581  -17.2464 H   0  0  0  0  0  0  0  0  0  0  0  0
   -7.7704   -1.6201  -18.6281 H   0  0  0  0  0  0  0  0  0  0  0  0
   -6.8799   -1.7004  -22.1509 H   0  0  0  0  0  0  0  0  0  0  0  0
   -8.0295   -2.2375  -20.9078 H   0  0  0  0  0  0  0  0  0  0  0  0
   -8.4006    0.3090  -22.8699 N   0  0  0  0  0  0  0  0  0  0  0  0
   -8.1964   -0.4578  -24.0996 C   0  0  0  0  0  0  0  0  0  0  0  0
   -9.3707   -1.3794  -24.3449 C   0  0  0  0  0  0  0  0  0  0  0  0
  -10.5137   -0.9369  -25.0030 C   0  0  0  0  0  0  0  0  0  0  0  0
  -11.6654   -1.7094  -25.0169 C   0  0  0  0  0  0  0  0  0  0  0  0
  -11.7094   -2.9341  -24.3682 C   0  0  0  0  0  0  0  0  0  0  0  0
  -10.5216   -3.4240  -23.8474 C   0  0  0  0  0  0  0  0  0  0  0  0
  -10.4405   -5.0620  -23.3110 Cl  0  0  0  0  0  0  0  0  0  0  0  0
   -9.3589   -2.6646  -23.8074 C   0  0  0  0  0  0  0  0  0  0  0  0
   -8.4569   -3.0976  -23.3754 H   0  0  0  0  0  0  0  0  0  0  0  0
  -12.6398   -3.4970  -24.2938 H   0  0  0  0  0  0  0  0  0  0  0  0
  -12.5400   -1.3749  -25.5580 H   0  0  0  0  0  0  0  0  0  0  0  0
  -10.4884    0.0264  -25.5077 H   0  0  0  0  0  0  0  0  0  0  0  0
   -8.0617    0.2351  -24.9294 H   0  0  0  0  0  0  0  0  0  0  0  0
   -7.2609   -1.0246  -24.0399 H   0  0  0  0  0  0  0  0  0  0  0  0
   -8.8004    1.7117  -22.8887 C   0  0  2  0  0  0  0  0  0  0  0  0
  -10.2882    2.0443  -22.6152 C   0  0  0  0  0  0  0  0  0  0  0  0
  -10.4147    3.5108  -23.1155 C   0  0  0  0  0  0  0  0  0  0  0  0
   -8.9960    3.8410  -23.5833 C   0  0  2  0  0  0  0  0  0  0  0  0
   -8.5282    2.5112  -24.1661 C   0  0  0  0  0  0  0  0  0  0  0  0
   -9.1586    2.1920  -24.9989 H   0  0  0  0  0  0  0  0  0  0  0  0
   -7.4756    2.4968  -24.4638 H   0  0  0  0  0  0  0  0  0  0  0  0
   -8.1382    3.9585  -22.3090 N   0  0  2  0  0  4  0  0  0  0  0  0
   -6.8259    4.6516  -22.4760 C   0  0  0  0  0  0  0  0  0  0  0  0
   -6.9740    6.1501  -22.6835 C   0  0  0  0  0  0  0  0  0  0  0  0
   -5.6493    6.9332  -22.6796 C   0  0  0  0  0  0  0  0  0  0  0  0
   -5.8172    7.3401  -24.0464 O   0  0  0  0  0  0  0  0  0  0  0  0
   -7.0710    6.6534  -24.1350 C   0  0  0  0  0  0  0  0  0  0  0  0
   -7.0322    5.8656  -24.8992 H   0  0  0  0  0  0  0  0  0  0  0  0
   -7.8953    7.3435  -24.3545 H   0  0  0  0  0  0  0  0  0  0  0  0
   -5.5812    7.7949  -22.0049 H   0  0  0  0  0  0  0  0  0  0  0  0
   -4.7540    6.3108  -22.5551 H   0  0  0  0  0  0  0  0  0  0  0  0
   -7.7478    6.5260  -22.0075 H   0  0  0  0  0  0  0  0  0  0  0  0
   -6.2123    4.4691  -21.5866 H   0  0  0  0  0  0  0  0  0  0  0  0
   -6.2738    4.2043  -23.3177 H   0  0  0  0  0  0  0  0  0  0  0  0
   -7.9991    2.5268  -21.8540 C   0  0  0  0  0  0  0  0  0  0  0  0
   -6.9454    2.2412  -21.8301 H   0  0  0  0  0  0  0  0  0  0  0  0
   -8.4128    2.4105  -20.8553 H   0  0  0  0  0  0  0  0  0  0  0  0
   -8.6653    4.4657  -21.5706 H   0  0  0  0  0  0  0  0  0  0  0  0
   -8.8877    4.7388  -24.1839 H   0  0  0  0  0  0  0  0  0  0  0  0
  -10.7292    4.2212  -22.3409 H   0  0  0  0  0  0  0  0  0  0  0  0
  -11.1266    3.5853  -23.9408 H   0  0  0  0  0  0  0  0  0  0  0  0
  -10.9209    1.3545  -23.1806 H   0  0  0  0  0  0  0  0  0  0  0  0
  -10.5325    1.9297  -21.5611 H   0  0  0  0  0  0  0  0  0  0  0  0
  1  2  2  0
  2  3  1  0
  3  4  1  0
  4  5  2  0
  5  6  1  0
  6  7  2  0
  7  8  1  0
  8  9  2  0
  9 10  1  0
 10 11  2  0
 11 12  1  0
 12 13  2  0
 12 14  1  0
 11 15  1  0
 10 16  1  0
  9 17  1  0
  7 18  1  0
  5 19  1  0
  3 20  1  0
  3 21  1  0
  2 22  1  0
 22 23  1  0
 23 24  1  0
 24 25  2  0
 25 26  1  0
 26 27  2  0
 27 28  1  0
 28 29  1  0
 28 30  2  0
 30 31  1  0
 27 32  1  0
 26 33  1  0
 25 34  1  0
 23 35  1  0
 23 36  1  0
 37 22  1  6
 37 38  1  0
 38 39  1  0
 39 40  1  0
 40 41  1  0
 41 42  1  0
 41 43  1  0
 40 44  1  0
 44 45  1  0
 45 46  1  0
 46 47  1  0
 47 48  1  0
 48 49  1  0
 49 50  1  0
 49 51  1  0
 47 52  1  0
 47 53  1  0
 46 54  1  0
 45 55  1  0
 45 56  1  0
 44 57  1  0
 57 58  1  0
 57 59  1  0
 44 60  1  1
 40 61  1  6
 39 62  1  0
 39 63  1  0
 38 64  1  0
 38 65  1  0
 13  4  1  0
 30 24  1  0
 41 37  1  0
 49 46  1  0
 13  8  1  0
 57 37  1  0
M  CHG  1  44   1
M  END
>  <cnnaffinities>  (66) 
[6.23972, 6.3577]

>  <score>  (66) 
6.23972

>  <index>  (66) 
68

>  <Smiles>  (66) 
O=C(C(c1c(nc(c2c(c(c(c(c12)[H])[H])[H])[H])[H])[H])([H])[H])N(C(c1c(c(c(c(Cl)c1[H])[H])[H])[H])([H])[H])[C@]12C(C([C@](C1([H])[H])([N@+](C(C1(C(OC1([H])[H])([H])[H])[H])([H])[H])(C2([H])[H])[H])[H])([H])[H])([H])[H]

>  <h>  (66) 
<NA>

>  <Training>  (66) 
True

>  <Success>  (66) 
True

>  <enamine_searched>  (66) 
False

>  <enamine_id>  (66) 
nan

$$$$

     RDKit          3D

 63 67  0  0  0  0  0  0  0  0999 V2000
   -3.5375    3.0427  -26.2685 C   0  0  0  0  0  0  0  0  0  0  0  0
   -4.3591    2.0228  -26.0302 C   0  0  0  0  0  0  0  0  0  0  0  0
   -4.8581    1.1324  -27.1232 C   0  0  0  0  0  0  0  0  0  0  0  0
   -4.6717    1.3782  -28.2991 O   0  0  0  0  0  0  0  0  0  0  0  0
   -5.6440    0.0333  -26.7242 N   0  0  0  0  0  0  0  0  0  0  0  0
   -6.9583   -0.0451  -27.3644 C   0  0  0  0  0  0  0  0  0  0  0  0
   -7.6476   -1.3692  -27.0827 C   0  0  0  0  0  0  0  0  0  0  0  0
   -7.6303   -1.6626  -25.5860 C   0  0  0  0  0  0  0  0  0  0  0  0
   -6.2134   -1.6494  -25.0543 C   0  0  0  0  0  0  0  0  0  0  0  0
   -5.2523   -0.8407  -25.6945 C   0  0  0  0  0  0  0  0  0  0  0  0
   -3.8973   -0.9459  -25.3409 C   0  0  0  0  0  0  0  0  0  0  0  0
   -3.5091   -1.7939  -24.3188 C   0  0  0  0  0  0  0  0  0  0  0  0
   -4.4624   -2.5194  -23.6078 C   0  0  0  0  0  0  0  0  0  0  0  0
   -5.7948   -2.3993  -23.9572 C   0  0  0  0  0  0  0  0  0  0  0  0
   -6.8350   -3.1869  -23.0630 N   0  0  1  0  0  4  0  0  0  0  0  0
   -6.7003   -4.7090  -23.2752 C   0  0  0  0  0  0  0  0  0  0  0  0
   -7.0284   -5.0859  -24.6951 C   0  0  0  0  0  0  0  0  0  0  0  0
   -8.3413   -5.3832  -25.0648 C   0  0  0  0  0  0  0  0  0  0  0  0
   -8.6627   -5.6940  -26.3822 C   0  0  0  0  0  0  0  0  0  0  0  0
   -7.6758   -5.7238  -27.3625 C   0  0  0  0  0  0  0  0  0  0  0  0
   -6.3680   -5.4332  -26.9903 C   0  0  0  0  0  0  0  0  0  0  0  0
   -5.1221   -5.4509  -28.2109 Cl  0  0  0  0  0  0  0  0  0  0  0  0
   -6.0337   -5.1246  -25.6774 C   0  0  0  0  0  0  0  0  0  0  0  0
   -5.0053   -4.8818  -25.4195 H   0  0  0  0  0  0  0  0  0  0  0  0
   -7.9093   -5.9685  -28.3962 H   0  0  0  0  0  0  0  0  0  0  0  0
   -9.6910   -5.9252  -26.6470 H   0  0  0  0  0  0  0  0  0  0  0  0
   -9.1199   -5.3508  -24.3067 H   0  0  0  0  0  0  0  0  0  0  0  0
   -7.3499   -5.2262  -22.5649 H   0  0  0  0  0  0  0  0  0  0  0  0
   -5.6715   -4.9774  -23.0374 H   0  0  0  0  0  0  0  0  0  0  0  0
   -6.7238   -2.8332  -21.6511 C   0  0  0  0  0  0  0  0  0  0  0  0
   -6.0987   -3.5474  -20.9040 O   0  0  0  0  0  0  0  0  0  0  0  0
   -7.3824   -1.5100  -21.2355 C   0  0  0  0  0  0  0  0  0  0  0  0
   -6.5828   -0.8035  -20.1726 C   0  0  0  0  0  0  0  0  0  0  0  0
   -6.8792   -1.0184  -18.8529 C   0  0  0  0  0  0  0  0  0  0  0  0
   -6.1997   -0.4962  -17.8038 N   0  0  0  0  0  0  0  0  0  0  0  0
   -5.1541    0.2400  -18.0734 C   0  0  0  0  0  0  0  0  0  0  0  0
   -4.7149    0.5386  -19.3901 C   0  0  0  0  0  0  0  0  0  0  0  0
   -3.5803    1.3525  -19.6253 C   0  0  0  0  0  0  0  0  0  0  0  0
   -3.1864    1.6349  -20.9037 C   0  0  0  0  0  0  0  0  0  0  0  0
   -3.9173    1.1123  -21.9965 C   0  0  0  0  0  0  0  0  0  0  0  0
   -5.0255    0.3254  -21.7948 C   0  0  0  0  0  0  0  0  0  0  0  0
   -5.4530    0.0139  -20.4768 C   0  0  0  0  0  0  0  0  0  0  0  0
   -5.5774   -0.0738  -22.6428 H   0  0  0  0  0  0  0  0  0  0  0  0
   -3.6017    1.3487  -23.0098 H   0  0  0  0  0  0  0  0  0  0  0  0
   -2.3258    2.2729  -21.0782 H   0  0  0  0  0  0  0  0  0  0  0  0
   -3.0545    1.7604  -18.7666 H   0  0  0  0  0  0  0  0  0  0  0  0
   -4.6010    0.6336  -17.2215 H   0  0  0  0  0  0  0  0  0  0  0  0
   -7.7148   -1.6624  -18.5806 H   0  0  0  0  0  0  0  0  0  0  0  0
   -8.3778   -1.7481  -20.8290 H   0  0  0  0  0  0  0  0  0  0  0  0
   -7.5496   -0.8735  -22.1111 H   0  0  0  0  0  0  0  0  0  0  0  0
   -7.7373   -2.8539  -23.4488 H   0  0  0  0  0  0  0  0  0  0  0  0
   -4.2068   -3.1368  -22.7550 H   0  0  0  0  0  0  0  0  0  0  0  0
   -2.4584   -1.8508  -24.0563 H   0  0  0  0  0  0  0  0  0  0  0  0
   -3.1393   -0.3840  -25.8807 H   0  0  0  0  0  0  0  0  0  0  0  0
   -8.1123   -2.6266  -25.3943 H   0  0  0  0  0  0  0  0  0  0  0  0
   -8.2227   -0.9116  -25.0447 H   0  0  0  0  0  0  0  0  0  0  0  0
   -7.1529   -2.1827  -27.6285 H   0  0  0  0  0  0  0  0  0  0  0  0
   -8.6777   -1.3140  -27.4554 H   0  0  0  0  0  0  0  0  0  0  0  0
   -6.8097    0.1162  -28.4377 H   0  0  0  0  0  0  0  0  0  0  0  0
   -7.5919    0.7803  -26.9987 H   0  0  0  0  0  0  0  0  0  0  0  0
   -4.7577    1.8309  -25.0336 H   0  0  0  0  0  0  0  0  0  0  0  0
   -3.2204    3.7189  -25.4776 H   0  0  0  0  0  0  0  0  0  0  0  0
   -3.1655    3.2543  -27.2682 H   0  0  0  0  0  0  0  0  0  0  0  0
  1  2  2  0
  2  3  1  0
  3  4  2  0
  3  5  1  0
  5  6  1  0
  6  7  1  0
  7  8  1  0
  8  9  1  0
  9 10  2  0
 10 11  1  0
 11 12  2  0
 12 13  1  0
 13 14  2  0
 14 15  1  0
 15 16  1  0
 16 17  1  0
 17 18  2  0
 18 19  1  0
 19 20  2  0
 20 21  1  0
 21 22  1  0
 21 23  2  0
 23 24  1  0
 20 25  1  0
 19 26  1  0
 18 27  1  0
 16 28  1  0
 16 29  1  0
 15 30  1  0
 30 31  2  0
 30 32  1  0
 32 33  1  0
 33 34  2  0
 34 35  1  0
 35 36  2  0
 36 37  1  0
 37 38  2  0
 38 39  1  0
 39 40  2  0
 40 41  1  0
 41 42  2  0
 41 43  1  0
 40 44  1  0
 39 45  1  0
 38 46  1  0
 36 47  1  0
 34 48  1  0
 32 49  1  0
 32 50  1  0
 15 51  1  6
 13 52  1  0
 12 53  1  0
 11 54  1  0
  8 55  1  0
  8 56  1  0
  7 57  1  0
  7 58  1  0
  6 59  1  0
  6 60  1  0
  2 61  1  0
  1 62  1  0
  1 63  1  0
 10  5  1  0
 23 17  1  0
 42 33  1  0
 14  9  1  0
 42 37  1  0
M  CHG  1  15   1
M  END
>  <cnnaffinities>  (67) 
[6.38293]

>  <score>  (67) 
6.38293

>  <index>  (67) 
69

>  <Smiles>  (67) 
C(=C(C(=O)N1C(C(C(c2c1c(c(c(c2[N@@+](C(c1c(c(c(c(Cl)c1[H])[H])[H])[H])([H])[H])(C(=O)C(c1c(nc(c2c(c(c(c(c12)[H])[H])[H])[H])[H])[H])([H])[H])[H])[H])[H])[H])([H])[H])([H])[H])([H])[H])[H])([H])[H]

>  <h>  (67) 
<NA>

>  <Training>  (67) 
True

>  <Success>  (67) 
True

>  <enamine_searched>  (67) 
False

>  <enamine_id>  (67) 
nan

$$$$

     RDKit          3D

 52 54  0  0  0  0  0  0  0  0999 V2000
  -10.6407   -4.9589  -27.0061 C   0  0  0  0  0  0  0  0  0  0  0  0
  -10.0528   -6.2903  -26.5487 C   0  0  0  0  0  0  0  0  0  0  0  0
  -11.0945   -7.3690  -26.8242 C   0  0  0  0  0  0  0  0  0  0  0  0
  -11.9532   -7.1856  -26.1709 H   0  0  0  0  0  0  0  0  0  0  0  0
  -10.7232   -8.3835  -26.6461 H   0  0  0  0  0  0  0  0  0  0  0  0
  -11.4533   -7.3252  -27.8576 H   0  0  0  0  0  0  0  0  0  0  0  0
   -9.6690   -6.3099  -25.0640 C   0  0  0  0  0  0  0  0  0  0  0  0
   -8.5284   -5.3911  -24.5754 C   0  0  0  0  0  0  0  0  0  0  0  0
   -7.3754   -5.4617  -25.5960 C   0  0  0  0  0  0  0  0  0  0  0  0
   -7.0621   -6.5019  -25.7559 H   0  0  0  0  0  0  0  0  0  0  0  0
   -6.4855   -4.9049  -25.2905 H   0  0  0  0  0  0  0  0  0  0  0  0
   -7.6805   -5.0598  -26.5683 H   0  0  0  0  0  0  0  0  0  0  0  0
   -9.0200   -3.9278  -24.3639 C   0  0  0  0  0  0  0  0  0  0  0  0
   -8.8653   -3.4456  -22.9155 C   0  0  0  0  0  0  0  0  0  0  0  0
   -7.5186   -3.7083  -22.4095 N   0  0  0  0  0  0  0  0  0  0  0  0
   -6.7375   -2.8340  -21.7134 C   0  0  0  0  0  0  0  0  0  0  0  0
   -5.5829   -3.1004  -21.4200 O   0  0  0  0  0  0  0  0  0  0  0  0
   -7.3932   -1.5164  -21.2878 C   0  0  0  0  0  0  0  0  0  0  0  0
   -6.5965   -0.8263  -20.2321 C   0  0  0  0  0  0  0  0  0  0  0  0
   -6.9423   -1.0026  -18.9201 C   0  0  0  0  0  0  0  0  0  0  0  0
   -6.2836   -0.4686  -17.8630 N   0  0  0  0  0  0  0  0  0  0  0  0
   -5.2245    0.2512  -18.1284 C   0  0  0  0  0  0  0  0  0  0  0  0
   -4.7403    0.5066  -19.4371 C   0  0  0  0  0  0  0  0  0  0  0  0
   -3.6060    1.3248  -19.6681 C   0  0  0  0  0  0  0  0  0  0  0  0
   -3.2005    1.6012  -20.9444 C   0  0  0  0  0  0  0  0  0  0  0  0
   -3.8984    1.0497  -22.0447 C   0  0  0  0  0  0  0  0  0  0  0  0
   -4.9852    0.2305  -21.8477 C   0  0  0  0  0  0  0  0  0  0  0  0
   -5.4469   -0.0458  -20.5324 C   0  0  0  0  0  0  0  0  0  0  0  0
   -5.4932   -0.2092  -22.7014 H   0  0  0  0  0  0  0  0  0  0  0  0
   -3.5760    1.2919  -23.0530 H   0  0  0  0  0  0  0  0  0  0  0  0
   -2.3526    2.2581  -21.1197 H   0  0  0  0  0  0  0  0  0  0  0  0
   -3.0878    1.7471  -18.8097 H   0  0  0  0  0  0  0  0  0  0  0  0
   -4.7028    0.6809  -17.2717 H   0  0  0  0  0  0  0  0  0  0  0  0
   -7.8096   -1.6079  -18.6648 H   0  0  0  0  0  0  0  0  0  0  0  0
   -7.5296   -0.8745  -22.1670 H   0  0  0  0  0  0  0  0  0  0  0  0
   -8.3927   -1.7377  -20.8915 H   0  0  0  0  0  0  0  0  0  0  0  0
   -6.9766   -5.0518  -22.5878 C   0  0  0  0  0  0  0  0  0  0  0  0
   -8.0431   -5.9384  -23.2078 C   0  0  0  0  0  0  0  0  0  0  0  0
   -8.8858   -6.0124  -22.5055 H   0  0  0  0  0  0  0  0  0  0  0  0
   -7.6452   -6.9519  -23.3160 H   0  0  0  0  0  0  0  0  0  0  0  0
   -6.0691   -5.0161  -23.2096 H   0  0  0  0  0  0  0  0  0  0  0  0
   -6.6429   -5.4366  -21.6161 H   0  0  0  0  0  0  0  0  0  0  0  0
   -9.0632   -2.3724  -22.8745 H   0  0  0  0  0  0  0  0  0  0  0  0
   -9.6173   -3.9390  -22.2795 H   0  0  0  0  0  0  0  0  0  0  0  0
  -10.0831   -3.8377  -24.6156 H   0  0  0  0  0  0  0  0  0  0  0  0
   -8.4801   -3.2360  -25.0252 H   0  0  0  0  0  0  0  0  0  0  0  0
  -10.5675   -6.0739  -24.4767 H   0  0  0  0  0  0  0  0  0  0  0  0
   -9.4018   -7.3439  -24.8115 H   0  0  0  0  0  0  0  0  0  0  0  0
   -9.1604   -6.5239  -27.1423 H   0  0  0  0  0  0  0  0  0  0  0  0
   -9.9333   -4.1278  -26.9829 H   0  0  0  0  0  0  0  0  0  0  0  0
  -11.4988   -4.6743  -26.3851 H   0  0  0  0  0  0  0  0  0  0  0  0
  -11.0126   -5.0559  -28.0298 H   0  0  0  0  0  0  0  0  0  0  0  0
  1  2  1  0
  2  3  1  0
  3  4  1  0
  3  5  1  0
  3  6  1  0
  2  7  1  0
  7  8  1  0
  8  9  1  0
  9 10  1  0
  9 11  1  0
  9 12  1  0
  8 13  1  0
 13 14  1  0
 14 15  1  0
 15 16  1  0
 16 17  2  0
 16 18  1  0
 18 19  1  0
 19 20  2  0
 20 21  1  0
 21 22  2  0
 22 23  1  0
 23 24  2  0
 24 25  1  0
 25 26  2  0
 26 27  1  0
 27 28  2  0
 27 29  1  0
 26 30  1  0
 25 31  1  0
 24 32  1  0
 22 33  1  0
 20 34  1  0
 18 35  1  0
 18 36  1  0
 15 37  1  0
 37 38  1  0
 38 39  1  0
 38 40  1  0
 37 41  1  0
 37 42  1  0
 14 43  1  0
 14 44  1  0
 13 45  1  0
 13 46  1  0
  7 47  1  0
  7 48  1  0
  2 49  1  0
  1 50  1  0
  1 51  1  0
  1 52  1  0
 38  8  1  0
 28 19  1  0
 28 23  1  0
M  END
>  <cnnaffinities>  (68) 
[5.12884]

>  <score>  (68) 
5.12884

>  <index>  (68) 
70

>  <Smiles>  (68) 
C(C(C([H])([H])[H])(C(C1(C([H])([H])[H])C(C(N(C(=O)C(c2c(nc(c3c(c(c(c(c23)[H])[H])[H])[H])[H])[H])([H])[H])C(C1([H])[H])([H])[H])([H])[H])([H])[H])([H])[H])[H])([H])([H])[H]

>  <h>  (68) 
<NA>

>  <Training>  (68) 
True

>  <Success>  (68) 
True

>  <enamine_searched>  (68) 
False

>  <enamine_id>  (68) 
nan

$$$$

     RDKit          3D

 50 54  0  0  0  0  0  0  0  0999 V2000
  -10.4682   -1.1215  -23.3137 C   0  0  0  0  0  0  0  0  0  0  0  0
   -9.0252   -1.4524  -22.9660 C   0  0  1  0  0  0  0  0  0  0  0  0
   -8.4314   -0.4966  -21.9190 C   0  0  0  0  0  0  0  0  0  0  0  0
   -7.4303   -1.3084  -21.2513 N   0  0  0  0  0  0  0  0  0  0  0  0
   -6.5982   -0.8130  -20.2168 C   0  0  0  0  0  0  0  0  0  0  0  0
   -6.9124   -1.0397  -18.9015 C   0  0  0  0  0  0  0  0  0  0  0  0
   -6.2465   -0.4946  -17.8536 N   0  0  0  0  0  0  0  0  0  0  0  0
   -5.2107    0.2607  -18.1152 C   0  0  0  0  0  0  0  0  0  0  0  0
   -4.7538    0.5494  -19.4303 C   0  0  0  0  0  0  0  0  0  0  0  0
   -3.6120    1.3571  -19.6617 C   0  0  0  0  0  0  0  0  0  0  0  0
   -3.2056    1.6200  -20.9393 C   0  0  0  0  0  0  0  0  0  0  0  0
   -3.9120    1.0818  -22.0369 C   0  0  0  0  0  0  0  0  0  0  0  0
   -5.0164    0.2892  -21.8396 C   0  0  0  0  0  0  0  0  0  0  0  0
   -5.4669    0.0069  -20.5226 C   0  0  0  0  0  0  0  0  0  0  0  0
   -5.5421   -0.1383  -22.6880 H   0  0  0  0  0  0  0  0  0  0  0  0
   -3.5742    1.2958  -23.0459 H   0  0  0  0  0  0  0  0  0  0  0  0
   -2.3400    2.2489  -21.1190 H   0  0  0  0  0  0  0  0  0  0  0  0
   -3.0780    1.7615  -18.8065 H   0  0  0  0  0  0  0  0  0  0  0  0
   -4.6655    0.6752  -17.2663 H   0  0  0  0  0  0  0  0  0  0  0  0
   -7.7617   -1.6686  -18.6463 H   0  0  0  0  0  0  0  0  0  0  0  0
   -7.5507   -2.6588  -21.5056 C   0  0  0  0  0  0  0  0  0  0  0  0
   -6.7650   -3.5007  -21.1324 O   0  0  0  0  0  0  0  0  0  0  0  0
   -8.7951   -2.8861  -22.3722 C   0  0  1  0  0  0  0  0  0  0  0  0
   -9.9784   -3.3364  -21.4854 C   0  0  0  0  0  0  0  0  0  0  0  0
  -11.1272   -3.7257  -22.2991 N   0  0  0  0  0  0  0  0  0  0  0  0
  -12.4875   -3.5462  -21.8271 C   0  0  0  0  0  0  0  0  0  0  0  0
  -13.3464   -2.7155  -22.7048 C   0  0  0  0  0  0  0  0  0  0  0  0
  -14.1054   -2.0751  -23.2962 N   0  0  0  0  0  0  0  0  0  0  0  0
  -12.4976   -3.0728  -20.8442 H   0  0  0  0  0  0  0  0  0  0  0  0
  -12.9674   -4.5192  -21.7485 H   0  0  0  0  0  0  0  0  0  0  0  0
  -10.9825   -4.5390  -23.3992 C   0  0  0  0  0  0  0  0  0  0  0  0
  -11.9398   -5.0295  -23.9711 O   0  0  0  0  0  0  0  0  0  0  0  0
   -9.5821   -4.7675  -23.8633 C   0  0  0  0  0  0  0  0  0  0  0  0
   -9.3497   -5.7694  -24.8072 C   0  0  0  0  0  0  0  0  0  0  0  0
   -8.0910   -5.9425  -25.3530 C   0  0  0  0  0  0  0  0  0  0  0  0
   -7.0802   -5.0806  -24.9399 C   0  0  0  0  0  0  0  0  0  0  0  0
   -5.8574   -5.2112  -25.4806 F   0  0  0  0  0  0  0  0  0  0  0  0
   -7.2743   -4.1130  -23.9741 C   0  0  0  0  0  0  0  0  0  0  0  0
   -8.5432   -3.9501  -23.4122 C   0  0  0  0  0  0  0  0  0  0  0  0
   -6.4318   -3.5207  -23.6365 H   0  0  0  0  0  0  0  0  0  0  0  0
   -7.8756   -6.7199  -26.0815 H   0  0  0  0  0  0  0  0  0  0  0  0
  -10.1712   -6.4114  -25.1094 H   0  0  0  0  0  0  0  0  0  0  0  0
   -9.6720   -4.1790  -20.8508 H   0  0  0  0  0  0  0  0  0  0  0  0
  -10.2442   -2.4828  -20.8495 H   0  0  0  0  0  0  0  0  0  0  0  0
   -9.2004   -0.1582  -21.2023 H   0  0  0  0  0  0  0  0  0  0  0  0
   -7.9643    0.3811  -22.3834 H   0  0  0  0  0  0  0  0  0  0  0  0
   -8.4051   -1.4076  -23.8729 H   0  0  0  0  0  0  0  0  0  0  0  0
  -10.5534   -0.1453  -23.7956 H   0  0  0  0  0  0  0  0  0  0  0  0
  -11.0704   -1.1157  -22.3989 H   0  0  0  0  0  0  0  0  0  0  0  0
  -10.8779   -1.8917  -23.9716 H   0  0  0  0  0  0  0  0  0  0  0  0
  1  2  1  0
  2  3  1  0
  3  4  1  0
  4  5  1  0
  5  6  2  0
  6  7  1  0
  7  8  2  0
  8  9  1  0
  9 10  2  0
 10 11  1  0
 11 12  2  0
 12 13  1  0
 13 14  2  0
 13 15  1  0
 12 16  1  0
 11 17  1  0
 10 18  1  0
  8 19  1  0
  6 20  1  0
  4 21  1  0
 21 22  2  0
 21 23  1  0
 23 24  1  1
 24 25  1  0
 25 26  1  0
 26 27  1  0
 27 28  3  0
 26 29  1  0
 26 30  1  0
 25 31  1  0
 31 32  2  0
 31 33  1  0
 33 34  2  0
 34 35  1  0
 35 36  2  0
 36 37  1  0
 36 38  1  0
 38 39  2  0
 38 40  1  0
 35 41  1  0
 34 42  1  0
 24 43  1  0
 24 44  1  0
  3 45  1  0
  3 46  1  0
  2 47  1  6
  1 48  1  0
  1 49  1  0
  1 50  1  0
 23  2  1  0
 39 33  1  0
 14  5  1  0
 39 23  1  0
 14  9  1  0
M  END
>  <cnnaffinities>  (69) 
[6.49911]

>  <score>  (69) 
6.49911

>  <index>  (69) 
71

>  <Smiles>  (69) 
C([C@]1(C(N(c2c(nc(c3c(c(c(c(c23)[H])[H])[H])[H])[H])[H])C(=O)[C@]21C(N(C(C#N)([H])[H])C(=O)c1c(c(c(F)c(c21)[H])[H])[H])([H])[H])([H])[H])[H])([H])([H])[H]

>  <h>  (69) 
<NA>

>  <Training>  (69) 
True

>  <Success>  (69) 
True

>  <enamine_searched>  (69) 
False

>  <enamine_id>  (69) 
nan

$$$$

     RDKit          3D

 41 44  0  0  0  0  0  0  0  0999 V2000
   -8.6915    0.6940  -21.2843 O   0  0  0  0  0  0  0  0  0  0  0  0
   -8.6452   -0.4481  -21.7212 C   0  0  0  0  0  0  0  0  0  0  0  0
   -7.5100   -1.4011  -21.3160 C   0  0  0  0  0  0  0  0  0  0  0  0
   -6.6344   -0.8114  -20.2456 C   0  0  0  0  0  0  0  0  0  0  0  0
   -6.9676   -0.9831  -18.9306 C   0  0  0  0  0  0  0  0  0  0  0  0
   -6.3044   -0.4600  -17.8685 N   0  0  0  0  0  0  0  0  0  0  0  0
   -5.2459    0.2658  -18.1318 C   0  0  0  0  0  0  0  0  0  0  0  0
   -4.7770    0.5395  -19.4427 C   0  0  0  0  0  0  0  0  0  0  0  0
   -3.6292    1.3387  -19.6689 C   0  0  0  0  0  0  0  0  0  0  0  0
   -3.2290    1.6261  -20.9442 C   0  0  0  0  0  0  0  0  0  0  0  0
   -3.9615    1.1254  -22.0417 C   0  0  0  0  0  0  0  0  0  0  0  0
   -5.0720    0.3425  -21.8492 C   0  0  0  0  0  0  0  0  0  0  0  0
   -5.5042    0.0115  -20.5383 C   0  0  0  0  0  0  0  0  0  0  0  0
   -5.6330   -0.0197  -22.7057 H   0  0  0  0  0  0  0  0  0  0  0  0
   -3.6357    1.3672  -23.0489 H   0  0  0  0  0  0  0  0  0  0  0  0
   -2.3628    2.2581  -21.1154 H   0  0  0  0  0  0  0  0  0  0  0  0
   -3.0872    1.7261  -18.8101 H   0  0  0  0  0  0  0  0  0  0  0  0
   -4.7096    0.6794  -17.2781 H   0  0  0  0  0  0  0  0  0  0  0  0
   -7.8389   -1.5865  -18.6777 H   0  0  0  0  0  0  0  0  0  0  0  0
   -7.9592   -2.3369  -20.9458 H   0  0  0  0  0  0  0  0  0  0  0  0
   -6.9177   -1.6640  -22.2012 H   0  0  0  0  0  0  0  0  0  0  0  0
   -9.6108   -0.9532  -22.5611 N   0  0  0  0  0  0  0  0  0  0  0  0
   -9.5607   -2.2628  -23.2245 C   0  0  0  0  0  0  0  0  0  0  0  0
  -10.2954   -3.3618  -22.4414 C   0  0  0  0  0  0  0  0  0  0  0  0
  -11.5266   -2.7927  -21.7096 C   0  0  0  0  0  0  0  0  0  0  0  0
  -12.4209   -1.8698  -22.5165 C   0  0  0  0  0  0  0  0  0  0  0  0
  -14.1366   -2.1204  -22.6487 S   0  0  0  0  0  0  0  0  0  0  0  0
  -14.3445   -0.6408  -23.5044 C   0  0  0  0  0  0  0  0  0  0  0  0
  -13.1679    0.0161  -23.6660 C   0  0  0  0  0  0  0  0  0  0  0  0
  -12.0530   -0.6705  -23.0677 C   0  0  0  0  0  0  0  0  0  0  0  0
  -10.6795   -0.0364  -22.9485 C   0  0  0  0  0  0  0  0  0  0  0  0
  -10.4037    0.4630  -23.8920 H   0  0  0  0  0  0  0  0  0  0  0  0
  -10.7203    0.7603  -22.1933 H   0  0  0  0  0  0  0  0  0  0  0  0
  -13.1215    0.9651  -24.1915 H   0  0  0  0  0  0  0  0  0  0  0  0
  -15.3327   -0.2767  -23.7592 H   0  0  0  0  0  0  0  0  0  0  0  0
  -12.1194   -3.5782  -21.2291 H   0  0  0  0  0  0  0  0  0  0  0  0
  -11.1121   -2.1606  -20.9134 H   0  0  0  0  0  0  0  0  0  0  0  0
   -9.6375   -3.8179  -21.6913 H   0  0  0  0  0  0  0  0  0  0  0  0
  -10.5614   -4.1743  -23.1313 H   0  0  0  0  0  0  0  0  0  0  0  0
  -10.0954   -2.1548  -24.1751 H   0  0  0  0  0  0  0  0  0  0  0  0
   -8.5240   -2.5630  -23.4441 H   0  0  0  0  0  0  0  0  0  0  0  0
  1  2  2  0
  2  3  1  0
  3  4  1  0
  4  5  2  0
  5  6  1  0
  6  7  2  0
  7  8  1  0
  8  9  2  0
  9 10  1  0
 10 11  2  0
 11 12  1  0
 12 13  2  0
 12 14  1  0
 11 15  1  0
 10 16  1  0
  9 17  1  0
  7 18  1  0
  5 19  1  0
  3 20  1  0
  3 21  1  0
  2 22  1  0
 22 23  1  0
 23 24  1  0
 24 25  1  0
 25 26  1  0
 26 27  1  0
 27 28  1  0
 28 29  2  0
 29 30  1  0
 30 31  1  0
 31 32  1  0
 31 33  1  0
 29 34  1  0
 28 35  1  0
 25 36  1  0
 25 37  1  0
 24 38  1  0
 24 39  1  0
 23 40  1  0
 23 41  1  0
 13  4  1  0
 31 22  1  0
 13  8  1  0
 30 26  2  0
M  END
>  <cnnaffinities>  (70) 
[5.50344, 5.09158, 5.70707, 5.30633]

>  <score>  (70) 
5.50344

>  <index>  (70) 
72

>  <Smiles>  (70) 
O=C(C(c1c(nc(c2c(c(c(c(c12)[H])[H])[H])[H])[H])[H])([H])[H])N1C(C(C(c2sc(c(c2C1([H])[H])[H])[H])([H])[H])([H])[H])([H])[H]

>  <h>  (70) 
<NA>

>  <Training>  (70) 
True

>  <Success>  (70) 
True

>  <enamine_searched>  (70) 
False

>  <enamine_id>  (70) 
nan

$$$$

     RDKit          3D

 50 53  0  0  0  0  0  0  0  0999 V2000
   -5.5994   -3.0274  -21.5802 O   0  0  0  0  0  0  0  0  0  0  0  0
   -6.7577   -2.7542  -21.8607 C   0  0  0  0  0  0  0  0  0  0  0  0
   -7.4152   -1.4808  -21.2713 C   0  0  0  0  0  0  0  0  0  0  0  0
   -6.5800   -0.8318  -20.1907 C   0  0  0  0  0  0  0  0  0  0  0  0
   -6.8753   -1.0393  -18.8718 C   0  0  0  0  0  0  0  0  0  0  0  0
   -6.1966   -0.5145  -17.8181 N   0  0  0  0  0  0  0  0  0  0  0  0
   -5.1559    0.2311  -18.0753 C   0  0  0  0  0  0  0  0  0  0  0  0
   -4.7159    0.5308  -19.3879 C   0  0  0  0  0  0  0  0  0  0  0  0
   -3.5882    1.3559  -19.6256 C   0  0  0  0  0  0  0  0  0  0  0  0
   -3.1873    1.6324  -20.9015 C   0  0  0  0  0  0  0  0  0  0  0  0
   -3.9014    1.0873  -21.9936 C   0  0  0  0  0  0  0  0  0  0  0  0
   -4.9984    0.2878  -21.7877 C   0  0  0  0  0  0  0  0  0  0  0  0
   -5.4447   -0.0136  -20.4788 C   0  0  0  0  0  0  0  0  0  0  0  0
   -5.5266   -0.1322  -22.6373 H   0  0  0  0  0  0  0  0  0  0  0  0
   -3.5765    1.3110  -23.0040 H   0  0  0  0  0  0  0  0  0  0  0  0
   -2.3280    2.2717  -21.0864 H   0  0  0  0  0  0  0  0  0  0  0  0
   -3.0560    1.7734  -18.7718 H   0  0  0  0  0  0  0  0  0  0  0  0
   -4.6027    0.6276  -17.2183 H   0  0  0  0  0  0  0  0  0  0  0  0
   -7.7165   -1.6667  -18.5836 H   0  0  0  0  0  0  0  0  0  0  0  0
   -7.6152   -0.7499  -22.0668 H   0  0  0  0  0  0  0  0  0  0  0  0
   -8.3954   -1.7475  -20.8492 H   0  0  0  0  0  0  0  0  0  0  0  0
   -7.5205   -3.5829  -22.6609 N   0  0  0  0  0  0  0  0  0  0  0  0
   -8.6628   -3.1245  -23.4506 C   0  0  0  0  0  0  0  0  0  0  0  0
   -9.7327   -4.1994  -23.5639 C   0  0  0  0  0  0  0  0  0  0  0  0
   -9.1565   -5.4960  -24.1060 C   0  0  0  0  0  0  0  0  0  0  0  0
   -7.9836   -5.9344  -23.2420 C   0  0  0  0  0  0  0  0  0  0  0  0
   -6.9118   -4.8514  -23.1003 C   0  0  1  0  0  0  0  0  0  0  0  0
   -6.0433   -4.6965  -24.3693 C   0  0  0  0  0  0  0  0  0  0  0  0
   -5.2085   -5.9199  -24.6884 C   0  0  0  0  0  0  0  0  0  0  0  0
   -4.0474   -6.1892  -23.9582 C   0  0  0  0  0  0  0  0  0  0  0  0
   -3.2847   -7.3203  -24.2205 C   0  0  0  0  0  0  0  0  0  0  0  0
   -3.6703   -8.2114  -25.2178 C   0  0  0  0  0  0  0  0  0  0  0  0
   -4.8275   -7.9605  -25.9499 C   0  0  0  0  0  0  0  0  0  0  0  0
   -5.5853   -6.8245  -25.6835 C   0  0  0  0  0  0  0  0  0  0  0  0
   -6.4944   -6.6407  -26.2528 H   0  0  0  0  0  0  0  0  0  0  0  0
   -5.1416   -8.6464  -26.7313 H   0  0  0  0  0  0  0  0  0  0  0  0
   -3.0714   -9.0922  -25.4249 H   0  0  0  0  0  0  0  0  0  0  0  0
   -2.3833   -7.5095  -23.6432 H   0  0  0  0  0  0  0  0  0  0  0  0
   -3.7429   -5.5004  -23.1733 H   0  0  0  0  0  0  0  0  0  0  0  0
   -6.6854   -4.4574  -25.2239 H   0  0  0  0  0  0  0  0  0  0  0  0
   -5.3823   -3.8380  -24.2150 H   0  0  0  0  0  0  0  0  0  0  0  0
   -6.2395   -5.1514  -22.2975 H   0  0  0  0  0  0  0  0  0  0  0  0
   -8.3472   -6.1915  -22.2441 H   0  0  0  0  0  0  0  0  0  0  0  0
   -7.5384   -6.8523  -23.6375 H   0  0  0  0  0  0  0  0  0  0  0  0
   -9.9239   -6.2712  -24.1410 H   0  0  0  0  0  0  0  0  0  0  0  0
   -8.8345   -5.3714  -25.1466 H   0  0  0  0  0  0  0  0  0  0  0  0
  -10.1656   -4.3766  -22.5768 H   0  0  0  0  0  0  0  0  0  0  0  0
  -10.5507   -3.8484  -24.1991 H   0  0  0  0  0  0  0  0  0  0  0  0
   -9.0837   -2.2316  -22.9917 H   0  0  0  0  0  0  0  0  0  0  0  0
   -8.3547   -2.8303  -24.4652 H   0  0  0  0  0  0  0  0  0  0  0  0
  1  2  2  0
  2  3  1  0
  3  4  1  0
  4  5  2  0
  5  6  1  0
  6  7  2  0
  7  8  1  0
  8  9  2  0
  9 10  1  0
 10 11  2  0
 11 12  1  0
 12 13  2  0
 12 14  1  0
 11 15  1  0
 10 16  1  0
  9 17  1  0
  7 18  1  0
  5 19  1  0
  3 20  1  0
  3 21  1  0
  2 22  1  0
 22 23  1  0
 23 24  1  0
 24 25  1  0
 25 26  1  0
 26 27  1  0
 27 28  1  0
 28 29  1  0
 29 30  2  0
 30 31  1  0
 31 32  2  0
 32 33  1  0
 33 34  2  0
 34 35  1  0
 33 36  1  0
 32 37  1  0
 31 38  1  0
 30 39  1  0
 28 40  1  0
 28 41  1  0
 27 42  1  1
 26 43  1  0
 26 44  1  0
 25 45  1  0
 25 46  1  0
 24 47  1  0
 24 48  1  0
 23 49  1  0
 23 50  1  0
 13  4  1  0
 27 22  1  0
 34 29  1  0
 13  8  1  0
M  END
>  <cnnaffinities>  (71) 
[5.67317]

>  <score>  (71) 
5.67317

>  <index>  (71) 
73

>  <Smiles>  (71) 
O=C(C(c1c(nc(c2c(c(c(c(c12)[H])[H])[H])[H])[H])[H])([H])[H])N1C(C(C(C([C@]1(C(c1c(c(c(c(c1[H])[H])[H])[H])[H])([H])[H])[H])([H])[H])([H])[H])([H])[H])([H])[H]

>  <h>  (71) 
<NA>

>  <Training>  (71) 
True

>  <Success>  (71) 
True

>  <enamine_searched>  (71) 
False

>  <enamine_id>  (71) 
nan

$$$$

     RDKit          3D

 43 47  0  0  0  0  0  0  0  0999 V2000
   -9.4274   -0.4502  -20.9910 O   0  0  0  0  0  0  0  0  0  0  0  0
   -8.7455   -1.3627  -21.3822 C   0  0  0  0  0  0  0  0  0  0  0  0
   -9.1379   -2.4530  -22.1125 N   0  0  0  0  0  0  0  0  0  0  0  0
   -8.0409   -3.1479  -22.7395 C   0  0  1  0  0  0  0  0  0  0  0  0
   -8.1055   -4.6902  -22.7153 C   0  0  0  0  0  0  0  0  0  0  0  0
   -8.2246   -4.7217  -24.2732 C   0  0  2  0  0  0  0  0  0  0  0  0
   -7.1755   -5.5201  -24.9820 C   0  0  0  0  0  0  0  0  0  0  0  0
   -5.8189   -5.2752  -24.7372 C   0  0  0  0  0  0  0  0  0  0  0  0
   -4.8266   -6.0074  -25.3789 C   0  0  0  0  0  0  0  0  0  0  0  0
   -5.1759   -7.0046  -26.2874 C   0  0  0  0  0  0  0  0  0  0  0  0
   -6.5151   -7.2566  -26.5502 C   0  0  0  0  0  0  0  0  0  0  0  0
   -7.4965   -6.5270  -25.8919 C   0  0  0  0  0  0  0  0  0  0  0  0
   -9.1647   -6.9155  -26.2475 Cl  0  0  0  0  0  0  0  0  0  0  0  0
   -6.8152   -8.0003  -27.2778 H   0  0  0  0  0  0  0  0  0  0  0  0
   -4.4101   -7.5842  -26.7957 H   0  0  0  0  0  0  0  0  0  0  0  0
   -3.7821   -5.7931  -25.1727 H   0  0  0  0  0  0  0  0  0  0  0  0
   -5.5484   -4.4933  -24.0253 H   0  0  0  0  0  0  0  0  0  0  0  0
   -8.0356   -3.1698  -24.2974 C   0  0  0  0  0  0  0  0  0  0  0  0
   -8.8566   -2.6029  -24.7514 H   0  0  0  0  0  0  0  0  0  0  0  0
   -7.0981   -2.8278  -24.7556 H   0  0  0  0  0  0  0  0  0  0  0  0
   -9.2249   -5.0190  -24.6025 H   0  0  0  0  0  0  0  0  0  0  0  0
   -8.9693   -5.0686  -22.1621 H   0  0  0  0  0  0  0  0  0  0  0  0
   -7.1937   -5.1508  -22.3157 H   0  0  0  0  0  0  0  0  0  0  0  0
   -6.8399   -2.5170  -22.0535 C   0  0  0  0  0  0  0  0  0  0  0  0
   -5.6789   -2.8077  -22.2297 O   0  0  0  0  0  0  0  0  0  0  0  0
   -7.3403   -1.5150  -21.2108 N   0  0  0  0  0  0  0  0  0  0  0  0
   -6.5830   -0.8557  -20.1945 C   0  0  0  0  0  0  0  0  0  0  0  0
   -6.9133   -1.0468  -18.8756 C   0  0  0  0  0  0  0  0  0  0  0  0
   -6.2270   -0.5135  -17.8395 N   0  0  0  0  0  0  0  0  0  0  0  0
   -5.1799    0.2201  -18.1072 C   0  0  0  0  0  0  0  0  0  0  0  0
   -4.7406    0.5248  -19.4202 C   0  0  0  0  0  0  0  0  0  0  0  0
   -3.6096    1.3549  -19.6438 C   0  0  0  0  0  0  0  0  0  0  0  0
   -3.2216    1.6600  -20.9171 C   0  0  0  0  0  0  0  0  0  0  0  0
   -3.9543    1.1459  -22.0115 C   0  0  0  0  0  0  0  0  0  0  0  0
   -5.0479    0.3379  -21.8195 C   0  0  0  0  0  0  0  0  0  0  0  0
   -5.4662   -0.0116  -20.5063 C   0  0  0  0  0  0  0  0  0  0  0  0
   -5.5988   -0.0496  -22.6705 H   0  0  0  0  0  0  0  0  0  0  0  0
   -3.6469    1.3986  -23.0196 H   0  0  0  0  0  0  0  0  0  0  0  0
   -2.3665    2.3087  -21.0942 H   0  0  0  0  0  0  0  0  0  0  0  0
   -3.0808    1.7541  -18.7832 H   0  0  0  0  0  0  0  0  0  0  0  0
   -4.6268    0.6131  -17.2561 H   0  0  0  0  0  0  0  0  0  0  0  0
   -7.7532   -1.6785  -18.5994 H   0  0  0  0  0  0  0  0  0  0  0  0
  -10.1014   -2.6044  -22.3679 H   0  0  0  0  0  0  0  0  0  0  0  0
  1  2  2  0
  2  3  1  0
  4  3  1  6
  4  5  1  0
  5  6  1  0
  6  7  1  0
  7  8  2  0
  8  9  1  0
  9 10  2  0
 10 11  1  0
 11 12  2  0
 12 13  1  0
 11 14  1  0
 10 15  1  0
  9 16  1  0
  8 17  1  0
  6 18  1  0
 18 19  1  0
 18 20  1  0
  6 21  1  1
  5 22  1  0
  5 23  1  0
  4 24  1  0
 24 25  2  0
 24 26  1  0
 26 27  1  0
 27 28  2  0
 28 29  1  0
 29 30  2  0
 30 31  1  0
 31 32  2  0
 32 33  1  0
 33 34  2  0
 34 35  1  0
 35 36  2  0
 35 37  1  0
 34 38  1  0
 33 39  1  0
 32 40  1  0
 30 41  1  0
 28 42  1  0
  3 43  1  0
 26  2  1  0
 36 27  1  0
 18  4  1  0
 36 31  1  0
 12  7  1  0
M  END
>  <cnnaffinities>  (72) 
[5.77583]

>  <score>  (72) 
5.77583

>  <index>  (72) 
74

>  <Smiles>  (72) 
O=C1N([C@]2(C([C@](c3c(c(c(c(c3Cl)[H])[H])[H])[H])(C2([H])[H])[H])([H])[H])C(=O)N1c1c(nc(c2c(c(c(c(c12)[H])[H])[H])[H])[H])[H])[H]

>  <h>  (72) 
<NA>

>  <Training>  (72) 
True

>  <Success>  (72) 
True

>  <enamine_searched>  (72) 
False

>  <enamine_id>  (72) 
nan

$$$$

     RDKit          3D

 66 71  0  0  0  0  0  0  0  0999 V2000
   -7.4774    3.2629  -21.7471 C   0  0  0  0  0  0  0  0  0  0  0  0
   -8.5410    2.7946  -22.6184 N   0  0  0  0  0  0  0  0  0  0  0  0
   -8.1833    2.0097  -23.6702 C   0  0  0  0  0  0  0  0  0  0  0  0
   -7.0218    1.7227  -23.9219 O   0  0  0  0  0  0  0  0  0  0  0  0
   -9.3319    1.5172  -24.5376 C   0  0  0  0  0  0  0  0  0  0  0  0
   -9.9062    0.3152  -23.9754 N   0  0  0  0  0  0  0  0  0  0  0  0
   -9.1240   -0.9058  -23.9998 C   0  0  0  0  0  0  0  0  0  0  0  0
   -9.2882   -1.6962  -22.6738 C   0  0  2  0  0  0  0  0  0  0  0  0
   -8.6649   -0.8566  -21.5283 C   0  0  0  0  0  0  0  0  0  0  0  0
   -9.1490    0.1284  -21.0081 O   0  0  0  0  0  0  0  0  0  0  0  0
   -7.4333   -1.3924  -21.2148 N   0  0  0  0  0  0  0  0  0  0  0  0
   -6.6191   -0.8163  -20.2035 C   0  0  0  0  0  0  0  0  0  0  0  0
   -6.9409   -1.0162  -18.8840 C   0  0  0  0  0  0  0  0  0  0  0  0
   -6.2467   -0.5031  -17.8434 N   0  0  0  0  0  0  0  0  0  0  0  0
   -5.1920    0.2249  -18.1091 C   0  0  0  0  0  0  0  0  0  0  0  0
   -4.7458    0.5198  -19.4254 C   0  0  0  0  0  0  0  0  0  0  0  0
   -3.6193    1.3526  -19.6578 C   0  0  0  0  0  0  0  0  0  0  0  0
   -3.2348    1.6560  -20.9336 C   0  0  0  0  0  0  0  0  0  0  0  0
   -3.9549    1.1379  -22.0307 C   0  0  0  0  0  0  0  0  0  0  0  0
   -5.0512    0.3284  -21.8322 C   0  0  0  0  0  0  0  0  0  0  0  0
   -5.4765   -0.0103  -20.5188 C   0  0  0  0  0  0  0  0  0  0  0  0
   -5.6199   -0.0091  -22.6923 H   0  0  0  0  0  0  0  0  0  0  0  0
   -3.6467    1.3909  -23.0408 H   0  0  0  0  0  0  0  0  0  0  0  0
   -2.3821    2.3048  -21.1086 H   0  0  0  0  0  0  0  0  0  0  0  0
   -3.0881    1.7523  -18.7979 H   0  0  0  0  0  0  0  0  0  0  0  0
   -4.6256    0.6245  -17.2650 H   0  0  0  0  0  0  0  0  0  0  0  0
   -7.8023   -1.6278  -18.6273 H   0  0  0  0  0  0  0  0  0  0  0  0
   -7.0997   -2.5802  -21.9845 C   0  0  0  0  0  0  0  0  0  0  0  0
   -8.4349   -2.9886  -22.6296 C   0  0  2  0  0  0  0  0  0  0  0  0
   -8.2422   -3.7561  -23.9387 C   0  0  0  0  0  0  0  0  0  0  0  0
   -9.4898   -4.2265  -24.4859 N   0  0  0  0  0  0  0  0  0  0  0  0
   -9.5879   -4.8855  -25.6804 C   0  0  0  0  0  0  0  0  0  0  0  0
   -8.4578   -5.2095  -26.4767 C   0  0  0  0  0  0  0  0  0  0  0  0
   -8.5704   -5.8384  -27.6365 N   0  0  0  0  0  0  0  0  0  0  0  0
   -9.8063   -6.1689  -28.0263 C   0  0  0  0  0  0  0  0  0  0  0  0
  -10.9108   -5.8592  -27.2461 C   0  0  0  0  0  0  0  0  0  0  0  0
  -10.8164   -5.2215  -26.0802 N   0  0  0  0  0  0  0  0  0  0  0  0
  -11.9180   -6.1264  -27.5629 H   0  0  0  0  0  0  0  0  0  0  0  0
   -9.9130   -6.6884  -28.9748 H   0  0  0  0  0  0  0  0  0  0  0  0
   -7.4486   -4.9505  -26.1625 H   0  0  0  0  0  0  0  0  0  0  0  0
  -10.3713   -4.0256  -24.0294 H   0  0  0  0  0  0  0  0  0  0  0  0
   -7.5884   -4.6164  -23.7493 H   0  0  0  0  0  0  0  0  0  0  0  0
   -7.7223   -3.1235  -24.6757 H   0  0  0  0  0  0  0  0  0  0  0  0
   -8.9329   -3.6671  -21.9323 H   0  0  0  0  0  0  0  0  0  0  0  0
   -6.3332   -2.3635  -22.7437 H   0  0  0  0  0  0  0  0  0  0  0  0
   -6.7149   -3.3691  -21.3327 H   0  0  0  0  0  0  0  0  0  0  0  0
  -10.7771   -1.9030  -22.4446 C   0  0  0  0  0  0  0  0  0  0  0  0
  -11.2902   -2.9721  -21.6997 C   0  0  0  0  0  0  0  0  0  0  0  0
  -12.6432   -3.0357  -21.4197 C   0  0  0  0  0  0  0  0  0  0  0  0
  -13.2471   -4.2270  -20.3185 Cl  0  0  0  0  0  0  0  0  0  0  0  0
  -13.5421   -2.0918  -21.8982 C   0  0  0  0  0  0  0  0  0  0  0  0
  -13.0521   -1.0430  -22.6456 C   0  0  0  0  0  0  0  0  0  0  0  0
  -11.6809   -0.9180  -22.8705 C   0  0  0  0  0  0  0  0  0  0  0  0
  -11.1766    0.3518  -23.4846 C   0  0  0  0  0  0  0  0  0  0  0  0
  -11.8638    1.3670  -23.5187 O   0  0  0  0  0  0  0  0  0  0  0  0
  -13.7230   -0.2798  -23.0212 H   0  0  0  0  0  0  0  0  0  0  0  0
  -14.5808   -2.1580  -21.5968 H   0  0  0  0  0  0  0  0  0  0  0  0
  -10.6621   -3.7261  -21.2408 H   0  0  0  0  0  0  0  0  0  0  0  0
   -8.0777   -0.6247  -24.1595 H   0  0  0  0  0  0  0  0  0  0  0  0
   -9.4572   -1.5256  -24.8415 H   0  0  0  0  0  0  0  0  0  0  0  0
  -10.1126    2.2763  -24.5392 H   0  0  0  0  0  0  0  0  0  0  0  0
   -8.9381    1.3386  -25.5496 H   0  0  0  0  0  0  0  0  0  0  0  0
   -9.4817    2.7546  -22.2403 H   0  0  0  0  0  0  0  0  0  0  0  0
   -7.9019    3.7559  -20.8706 H   0  0  0  0  0  0  0  0  0  0  0  0
   -6.8451    2.4142  -21.4494 H   0  0  0  0  0  0  0  0  0  0  0  0
   -6.8523    3.9875  -22.2763 H   0  0  0  0  0  0  0  0  0  0  0  0
  1  2  1  0
  2  3  1  0
  3  4  2  0
  3  5  1  0
  5  6  1  0
  6  7  1  0
  8  7  1  6
  8  9  1  0
  9 10  2  0
  9 11  1  0
 11 12  1  0
 12 13  2  0
 13 14  1  0
 14 15  2  0
 15 16  1  0
 16 17  2  0
 17 18  1  0
 18 19  2  0
 19 20  1  0
 20 21  2  0
 20 22  1  0
 19 23  1  0
 18 24  1  0
 17 25  1  0
 15 26  1  0
 13 27  1  0
 11 28  1  0
 28 29  1  0
 29 30  1  0
 30 31  1  0
 31 32  1  0
 32 33  2  0
 33 34  1  0
 34 35  2  0
 35 36  1  0
 36 37  2  0
 36 38  1  0
 35 39  1  0
 33 40  1  0
 31 41  1  0
 30 42  1  0
 30 43  1  0
 29 44  1  1
 28 45  1  0
 28 46  1  0
  8 47  1  0
 47 48  2  0
 48 49  1  0
 49 50  1  0
 49 51  2  0
 51 52  1  0
 52 53  2  0
 53 54  1  0
 54 55  2  0
 52 56  1  0
 51 57  1  0
 48 58  1  0
  7 59  1  0
  7 60  1  0
  5 61  1  0
  5 62  1  0
  2 63  1  0
  1 64  1  0
  1 65  1  0
  1 66  1  0
 54  6  1  0
 29  8  1  0
 37 32  1  0
 53 47  1  0
 21 12  1  0
 21 16  1  0
M  END
>  <cnnaffinities>  (73) 
[6.56803, 6.40941]

>  <score>  (73) 
6.56803

>  <index>  (73) 
75

>  <Smiles>  (73) 
C(N(C(=O)C(N1C([C@@]2(C(=O)N(c3c(nc(c4c(c(c(c(c34)[H])[H])[H])[H])[H])[H])C([C@@]2(C(N(c2c(nc(c(n2)[H])[H])[H])[H])([H])[H])[H])([H])[H])c2c(c(Cl)c(c(c2C1=O)[H])[H])[H])([H])[H])([H])[H])[H])([H])([H])[H]

>  <h>  (73) 
<NA>

>  <Training>  (73) 
True

>  <Success>  (73) 
True

>  <enamine_searched>  (73) 
False

>  <enamine_id>  (73) 
nan

$$$$

     RDKit          3D

 66 71  0  0  0  0  0  0  0  0999 V2000
   -8.1117   -3.8217  -23.9128 C   0  0  0  0  0  0  0  0  0  0  0  0
   -8.3373   -3.0301  -22.6237 C   0  0  1  0  0  0  0  0  0  0  0  0
   -7.0212   -2.5978  -21.9385 C   0  0  0  0  0  0  0  0  0  0  0  0
   -7.4005   -1.4080  -21.1975 N   0  0  0  0  0  0  0  0  0  0  0  0
   -6.6081   -0.8094  -20.1815 C   0  0  0  0  0  0  0  0  0  0  0  0
   -6.9153   -1.0272  -18.8622 C   0  0  0  0  0  0  0  0  0  0  0  0
   -6.2166   -0.5120  -17.8248 N   0  0  0  0  0  0  0  0  0  0  0  0
   -5.1697    0.2258  -18.0916 C   0  0  0  0  0  0  0  0  0  0  0  0
   -4.7301    0.5324  -19.4090 C   0  0  0  0  0  0  0  0  0  0  0  0
   -3.6024    1.3633  -19.6446 C   0  0  0  0  0  0  0  0  0  0  0  0
   -3.2145    1.6554  -20.9238 C   0  0  0  0  0  0  0  0  0  0  0  0
   -3.9356    1.1255  -22.0164 C   0  0  0  0  0  0  0  0  0  0  0  0
   -5.0314    0.3162  -21.8125 C   0  0  0  0  0  0  0  0  0  0  0  0
   -5.4652   -0.0011  -20.4956 C   0  0  0  0  0  0  0  0  0  0  0  0
   -5.5778   -0.0757  -22.6648 H   0  0  0  0  0  0  0  0  0  0  0  0
   -3.6322    1.3705  -23.0305 H   0  0  0  0  0  0  0  0  0  0  0  0
   -2.3664    2.3098  -21.1054 H   0  0  0  0  0  0  0  0  0  0  0  0
   -3.0769    1.7756  -18.7878 H   0  0  0  0  0  0  0  0  0  0  0  0
   -4.6154    0.6202  -17.2400 H   0  0  0  0  0  0  0  0  0  0  0  0
   -7.7565   -1.6617  -18.5948 H   0  0  0  0  0  0  0  0  0  0  0  0
   -8.6358   -0.9078  -21.5389 C   0  0  0  0  0  0  0  0  0  0  0  0
   -9.1650    0.0400  -20.9917 O   0  0  0  0  0  0  0  0  0  0  0  0
   -9.1822   -1.7301  -22.7395 C   0  0  1  0  0  0  0  0  0  0  0  0
   -8.8866   -0.9662  -24.0644 C   0  0  0  0  0  0  0  0  0  0  0  0
   -9.6103    0.2915  -24.1534 N   0  0  0  0  0  0  0  0  0  0  0  0
   -8.8753    1.5049  -24.4877 C   0  0  0  0  0  0  0  0  0  0  0  0
   -8.2731    2.1685  -23.2458 C   0  0  0  0  0  0  0  0  0  0  0  0
   -7.5973    3.4745  -23.5230 N   0  0  0  0  0  4  0  0  0  0  0  0
   -6.3401    3.3525  -24.3705 C   0  0  0  0  0  0  0  0  0  0  0  0
   -5.6262    4.6973  -24.4885 C   0  0  0  0  0  0  0  0  0  0  0  0
   -5.3541    5.2809  -23.2336 O   0  0  0  0  0  0  0  0  0  0  0  0
   -6.5742    5.5222  -22.5633 C   0  0  0  0  0  0  0  0  0  0  0  0
   -7.2738    4.2068  -22.2353 C   0  0  0  0  0  0  0  0  0  0  0  0
   -8.2088    4.3721  -21.6921 H   0  0  0  0  0  0  0  0  0  0  0  0
   -6.6341    3.5488  -21.6355 H   0  0  0  0  0  0  0  0  0  0  0  0
   -7.2433    6.1075  -23.2128 H   0  0  0  0  0  0  0  0  0  0  0  0
   -6.3456    6.1399  -21.6944 H   0  0  0  0  0  0  0  0  0  0  0  0
   -4.6672    4.5827  -25.0014 H   0  0  0  0  0  0  0  0  0  0  0  0
   -6.2529    5.3918  -25.0708 H   0  0  0  0  0  0  0  0  0  0  0  0
   -5.6726    2.6230  -23.8986 H   0  0  0  0  0  0  0  0  0  0  0  0
   -6.6108    2.9940  -25.3682 H   0  0  0  0  0  0  0  0  0  0  0  0
   -8.2860    4.0683  -24.0307 H   0  0  0  0  0  0  0  0  0  0  0  0
   -9.0657    2.3396  -22.5109 H   0  0  0  0  0  0  0  0  0  0  0  0
   -7.5405    1.4896  -22.7914 H   0  0  0  0  0  0  0  0  0  0  0  0
   -9.5526    2.1897  -25.0027 H   0  0  0  0  0  0  0  0  0  0  0  0
   -8.0877    1.2142  -25.1895 H   0  0  0  0  0  0  0  0  0  0  0  0
  -10.8706    0.4118  -23.6503 C   0  0  0  0  0  0  0  0  0  0  0  0
  -11.4475    1.4909  -23.5535 O   0  0  0  0  0  0  0  0  0  0  0  0
  -11.4938   -0.8648  -23.1572 C   0  0  0  0  0  0  0  0  0  0  0  0
  -12.8825   -0.9366  -23.0861 C   0  0  0  0  0  0  0  0  0  0  0  0
  -13.4915   -1.9671  -22.3994 C   0  0  0  0  0  0  0  0  0  0  0  0
  -12.6872   -2.9172  -21.7717 C   0  0  0  0  0  0  0  0  0  0  0  0
  -13.4824   -4.1002  -20.7737 Cl  0  0  0  0  0  0  0  0  0  0  0  0
  -11.3063   -2.9058  -21.8957 C   0  0  0  0  0  0  0  0  0  0  0  0
  -10.6881   -1.8877  -22.6387 C   0  0  0  0  0  0  0  0  0  0  0  0
  -10.7305   -3.6481  -21.3526 H   0  0  0  0  0  0  0  0  0  0  0  0
  -14.5690   -2.0070  -22.2772 H   0  0  0  0  0  0  0  0  0  0  0  0
  -13.4552   -0.1314  -23.5293 H   0  0  0  0  0  0  0  0  0  0  0  0
   -7.8224   -0.7258  -24.1241 H   0  0  0  0  0  0  0  0  0  0  0  0
   -9.1425   -1.6215  -24.9101 H   0  0  0  0  0  0  0  0  0  0  0  0
   -6.2355   -2.3804  -22.6796 H   0  0  0  0  0  0  0  0  0  0  0  0
   -6.6250   -3.3642  -21.2605 H   0  0  0  0  0  0  0  0  0  0  0  0
   -8.8721   -3.6627  -21.9106 H   0  0  0  0  0  0  0  0  0  0  0  0
   -7.6032   -4.7714  -23.7102 H   0  0  0  0  0  0  0  0  0  0  0  0
   -7.4854   -3.2594  -24.6165 H   0  0  0  0  0  0  0  0  0  0  0  0
   -9.0567   -4.0473  -24.4191 H   0  0  0  0  0  0  0  0  0  0  0  0
  1  2  1  0
  2  3  1  0
  3  4  1  0
  4  5  1  0
  5  6  2  0
  6  7  1  0
  7  8  2  0
  8  9  1  0
  9 10  2  0
 10 11  1  0
 11 12  2  0
 12 13  1  0
 13 14  2  0
 13 15  1  0
 12 16  1  0
 11 17  1  0
 10 18  1  0
  8 19  1  0
  6 20  1  0
  4 21  1  0
 21 22  2  0
 21 23  1  0
 23 24  1  6
 24 25  1  0
 25 26  1  0
 26 27  1  0
 27 28  1  0
 28 29  1  0
 29 30  1  0
 30 31  1  0
 31 32  1  0
 32 33  1  0
 33 34  1  0
 33 35  1  0
 32 36  1  0
 32 37  1  0
 30 38  1  0
 30 39  1  0
 29 40  1  0
 29 41  1  0
 28 42  1  0
 27 43  1  0
 27 44  1  0
 26 45  1  0
 26 46  1  0
 25 47  1  0
 47 48  2  0
 47 49  1  0
 49 50  2  0
 50 51  1  0
 51 52  2  0
 52 53  1  0
 52 54  1  0
 54 55  2  0
 54 56  1  0
 51 57  1  0
 50 58  1  0
 24 59  1  0
 24 60  1  0
  3 61  1  0
  3 62  1  0
  2 63  1  1
  1 64  1  0
  1 65  1  0
  1 66  1  0
 23  2  1  0
 33 28  1  0
 55 49  1  0
 14  5  1  0
 55 23  1  0
 14  9  1  0
M  CHG  1  28   1
M  END
>  <cnnaffinities>  (74) 
[6.2967]

>  <score>  (74) 
6.2967

>  <index>  (74) 
76

>  <Smiles>  (74) 
C([C@]1(C(N(c2c(nc(c3c(c(c(c(c23)[H])[H])[H])[H])[H])[H])C(=O)[C@]21C(N(C(C([N+]1(C(C(OC(C1([H])[H])([H])[H])([H])[H])([H])[H])[H])([H])[H])([H])[H])C(=O)c1c(c(c(Cl)c(c21)[H])[H])[H])([H])[H])([H])[H])[H])([H])([H])[H]

>  <h>  (74) 
<NA>

>  <Training>  (74) 
True

>  <Success>  (74) 
True

>  <enamine_searched>  (74) 
False

>  <enamine_id>  (74) 
nan

$$$$

     RDKit          3D

 55 60  0  0  0  0  0  0  0  0999 V2000
  -10.4763   -1.0640  -23.3822 C   0  0  0  0  0  0  0  0  0  0  0  0
   -9.0245   -1.3907  -23.0234 C   0  0  1  0  0  0  0  0  0  0  0  0
   -8.4515   -0.4676  -21.9286 C   0  0  0  0  0  0  0  0  0  0  0  0
   -7.4274   -1.2817  -21.3010 N   0  0  0  0  0  0  0  0  0  0  0  0
   -6.6137   -0.7957  -20.2463 C   0  0  0  0  0  0  0  0  0  0  0  0
   -6.9410   -1.0278  -18.9343 C   0  0  0  0  0  0  0  0  0  0  0  0
   -6.2788   -0.4831  -17.8826 N   0  0  0  0  0  0  0  0  0  0  0  0
   -5.2392    0.2722  -18.1351 C   0  0  0  0  0  0  0  0  0  0  0  0
   -4.7658    0.5596  -19.4467 C   0  0  0  0  0  0  0  0  0  0  0  0
   -3.6224    1.3674  -19.6791 C   0  0  0  0  0  0  0  0  0  0  0  0
   -3.2080    1.6220  -20.9577 C   0  0  0  0  0  0  0  0  0  0  0  0
   -3.9127    1.0838  -22.0579 C   0  0  0  0  0  0  0  0  0  0  0  0
   -5.0222    0.2983  -21.8580 C   0  0  0  0  0  0  0  0  0  0  0  0
   -5.4760    0.0210  -20.5413 C   0  0  0  0  0  0  0  0  0  0  0  0
   -5.5563   -0.1293  -22.7003 H   0  0  0  0  0  0  0  0  0  0  0  0
   -3.5723    1.2966  -23.0673 H   0  0  0  0  0  0  0  0  0  0  0  0
   -2.3338    2.2432  -21.1333 H   0  0  0  0  0  0  0  0  0  0  0  0
   -3.0935    1.7708  -18.8198 H   0  0  0  0  0  0  0  0  0  0  0  0
   -4.7117    0.7017  -17.2817 H   0  0  0  0  0  0  0  0  0  0  0  0
   -7.7846   -1.6658  -18.6765 H   0  0  0  0  0  0  0  0  0  0  0  0
   -7.5614   -2.6290  -21.5481 C   0  0  0  0  0  0  0  0  0  0  0  0
   -6.8207   -3.4731  -21.0879 O   0  0  0  0  0  0  0  0  0  0  0  0
   -8.7659   -2.8475  -22.4830 C   0  0  1  0  0  0  0  0  0  0  0  0
   -9.9481   -3.3417  -21.6067 C   0  0  0  0  0  0  0  0  0  0  0  0
  -11.0889   -3.8094  -22.3931 N   0  0  0  0  0  0  0  0  0  0  0  0
  -12.4598   -3.7698  -21.8803 C   0  0  0  0  0  0  0  0  0  0  0  0
  -13.3330   -2.6740  -22.4197 C   0  0  0  0  0  0  0  0  0  0  0  0
  -14.0170   -2.6765  -23.5836 C   0  0  0  0  0  0  0  0  0  0  0  0
  -14.7692   -1.5411  -23.6612 O   0  0  0  0  0  0  0  0  0  0  0  0
  -14.4880   -0.8990  -22.5145 C   0  0  0  0  0  0  0  0  0  0  0  0
  -13.6464   -1.5002  -21.7403 N   0  0  0  0  0  0  0  0  0  0  0  0
  -15.0020    0.0326  -22.3406 H   0  0  0  0  0  0  0  0  0  0  0  0
  -14.1399   -3.3949  -24.3708 H   0  0  0  0  0  0  0  0  0  0  0  0
  -12.4676   -3.7272  -20.7910 H   0  0  0  0  0  0  0  0  0  0  0  0
  -12.9300   -4.6948  -22.2175 H   0  0  0  0  0  0  0  0  0  0  0  0
  -10.9148   -4.5590  -23.5266 C   0  0  0  0  0  0  0  0  0  0  0  0
  -11.8654   -5.0647  -24.1186 O   0  0  0  0  0  0  0  0  0  0  0  0
   -9.5122   -4.7149  -24.0130 C   0  0  0  0  0  0  0  0  0  0  0  0
   -9.2641   -5.7118  -24.9531 C   0  0  0  0  0  0  0  0  0  0  0  0
   -7.9940   -5.9180  -25.4523 C   0  0  0  0  0  0  0  0  0  0  0  0
   -6.9843   -5.0775  -25.0018 C   0  0  0  0  0  0  0  0  0  0  0  0
   -5.7493   -5.2490  -25.4965 F   0  0  0  0  0  0  0  0  0  0  0  0
   -7.1904   -4.0840  -24.0640 C   0  0  0  0  0  0  0  0  0  0  0  0
   -8.4784   -3.8963  -23.5405 C   0  0  0  0  0  0  0  0  0  0  0  0
   -6.3356   -3.5116  -23.7151 H   0  0  0  0  0  0  0  0  0  0  0  0
   -7.7713   -6.7163  -26.1533 H   0  0  0  0  0  0  0  0  0  0  0  0
  -10.0978   -6.3235  -25.2737 H   0  0  0  0  0  0  0  0  0  0  0  0
  -10.2622   -2.5129  -20.9629 H   0  0  0  0  0  0  0  0  0  0  0  0
   -9.5772   -4.1430  -20.9591 H   0  0  0  0  0  0  0  0  0  0  0  0
   -9.2238   -0.1799  -21.1963 H   0  0  0  0  0  0  0  0  0  0  0  0
   -8.0212    0.4618  -22.3200 H   0  0  0  0  0  0  0  0  0  0  0  0
   -8.3992   -1.2870  -23.9213 H   0  0  0  0  0  0  0  0  0  0  0  0
  -10.5609   -0.0956  -23.8842 H   0  0  0  0  0  0  0  0  0  0  0  0
  -10.8900   -1.8299  -24.0467 H   0  0  0  0  0  0  0  0  0  0  0  0
  -11.1144   -1.0230  -22.4911 H   0  0  0  0  0  0  0  0  0  0  0  0
  1  2  1  0
  2  3  1  0
  3  4  1  0
  4  5  1  0
  5  6  2  0
  6  7  1  0
  7  8  2  0
  8  9  1  0
  9 10  2  0
 10 11  1  0
 11 12  2  0
 12 13  1  0
 13 14  2  0
 13 15  1  0
 12 16  1  0
 11 17  1  0
 10 18  1  0
  8 19  1  0
  6 20  1  0
  4 21  1  0
 21 22  2  0
 21 23  1  0
 23 24  1  1
 24 25  1  0
 25 26  1  0
 26 27  1  0
 27 28  2  0
 28 29  1  0
 29 30  1  0
 30 31  2  0
 30 32  1  0
 28 33  1  0
 26 34  1  0
 26 35  1  0
 25 36  1  0
 36 37  2  0
 36 38  1  0
 38 39  2  0
 39 40  1  0
 40 41  2  0
 41 42  1  0
 41 43  1  0
 43 44  2  0
 43 45  1  0
 40 46  1  0
 39 47  1  0
 24 48  1  0
 24 49  1  0
  3 50  1  0
  3 51  1  0
  2 52  1  6
  1 53  1  0
  1 54  1  0
  1 55  1  0
 23  2  1  0
 31 27  1  0
 44 38  1  0
 14  5  1  0
 44 23  1  0
 14  9  1  0
M  END
>  <cnnaffinities>  (75) 
[6.65491]

>  <score>  (75) 
6.65491

>  <index>  (75) 
77

>  <Smiles>  (75) 
C([C@]1(C(N(c2c(nc(c3c(c(c(c(c23)[H])[H])[H])[H])[H])[H])C(=O)[C@]21C(N(C(c1c(oc(n1)[H])[H])([H])[H])C(=O)c1c(c(c(F)c(c21)[H])[H])[H])([H])[H])([H])[H])[H])([H])([H])[H]

>  <h>  (75) 
<NA>

>  <Training>  (75) 
True

>  <Success>  (75) 
True

>  <enamine_searched>  (75) 
False

>  <enamine_id>  (75) 
nan

$$$$

     RDKit          3D

 56 60  0  0  0  0  0  0  0  0999 V2000
  -14.5138   -1.5508  -23.8433 C   0  0  0  0  0  0  0  0  0  0  0  0
  -13.7375   -2.6797  -23.3915 N   0  0  0  0  0  0  0  0  0  0  0  0
  -13.3433   -2.7428  -22.0981 C   0  0  0  0  0  0  0  0  0  0  0  0
  -13.7073   -1.9284  -21.2652 O   0  0  0  0  0  0  0  0  0  0  0  0
  -12.4369   -3.9200  -21.7583 C   0  0  0  0  0  0  0  0  0  0  0  0
  -11.1056   -3.8371  -22.3343 N   0  0  0  0  0  0  0  0  0  0  0  0
   -9.9752   -3.3577  -21.5384 C   0  0  0  0  0  0  0  0  0  0  0  0
   -8.7922   -2.8739  -22.4088 C   0  0  2  0  0  0  0  0  0  0  0  0
   -7.5562   -2.6538  -21.5261 C   0  0  0  0  0  0  0  0  0  0  0  0
   -6.7619   -3.4940  -21.1584 O   0  0  0  0  0  0  0  0  0  0  0  0
   -7.4298   -1.3098  -21.2623 N   0  0  0  0  0  0  0  0  0  0  0  0
   -6.5987   -0.8237  -20.2261 C   0  0  0  0  0  0  0  0  0  0  0  0
   -6.9219   -1.0454  -18.9114 C   0  0  0  0  0  0  0  0  0  0  0  0
   -6.2609   -0.4939  -17.8650 N   0  0  0  0  0  0  0  0  0  0  0  0
   -5.2267    0.2614  -18.1292 C   0  0  0  0  0  0  0  0  0  0  0  0
   -4.7622    0.5441  -19.4424 C   0  0  0  0  0  0  0  0  0  0  0  0
   -3.6199    1.3524  -19.6686 C   0  0  0  0  0  0  0  0  0  0  0  0
   -3.2105    1.6171  -20.9445 C   0  0  0  0  0  0  0  0  0  0  0  0
   -3.9150    1.0796  -22.0452 C   0  0  0  0  0  0  0  0  0  0  0  0
   -5.0189    0.2836  -21.8514 C   0  0  0  0  0  0  0  0  0  0  0  0
   -5.4701   -0.0012  -20.5350 C   0  0  0  0  0  0  0  0  0  0  0  0
   -5.5462   -0.1403  -22.7002 H   0  0  0  0  0  0  0  0  0  0  0  0
   -3.5765    1.2960  -23.0533 H   0  0  0  0  0  0  0  0  0  0  0  0
   -2.3429    2.2470  -21.1209 H   0  0  0  0  0  0  0  0  0  0  0  0
   -3.0924    1.7570  -18.8090 H   0  0  0  0  0  0  0  0  0  0  0  0
   -4.6904    0.6817  -17.2793 H   0  0  0  0  0  0  0  0  0  0  0  0
   -7.7667   -1.6788  -18.6525 H   0  0  0  0  0  0  0  0  0  0  0  0
   -8.4335   -0.4887  -21.9095 C   0  0  0  0  0  0  0  0  0  0  0  0
   -9.0201   -1.4267  -22.9765 C   0  0  2  0  0  0  0  0  0  0  0  0
  -10.4608   -1.0987  -23.3388 C   0  0  0  0  0  0  0  0  0  0  0  0
  -11.0874   -1.1037  -22.4409 H   0  0  0  0  0  0  0  0  0  0  0  0
  -10.5541   -0.1185  -23.8127 H   0  0  0  0  0  0  0  0  0  0  0  0
  -10.8518   -1.8570  -24.0216 H   0  0  0  0  0  0  0  0  0  0  0  0
   -8.3893   -1.3658  -23.8750 H   0  0  0  0  0  0  0  0  0  0  0  0
   -7.9712    0.4043  -22.3431 H   0  0  0  0  0  0  0  0  0  0  0  0
   -9.2036   -0.1540  -21.1938 H   0  0  0  0  0  0  0  0  0  0  0  0
   -8.5205   -3.9141  -23.4626 C   0  0  0  0  0  0  0  0  0  0  0  0
   -7.2407   -4.0724  -24.0001 C   0  0  0  0  0  0  0  0  0  0  0  0
   -7.0179   -5.0285  -24.9735 C   0  0  0  0  0  0  0  0  0  0  0  0
   -5.4286   -5.1670  -25.6739 Cl  0  0  0  0  0  0  0  0  0  0  0  0
   -8.0292   -5.8902  -25.4000 C   0  0  0  0  0  0  0  0  0  0  0  0
   -9.3025   -5.7169  -24.8920 C   0  0  0  0  0  0  0  0  0  0  0  0
   -9.5494   -4.7144  -23.9588 C   0  0  0  0  0  0  0  0  0  0  0  0
  -10.9439   -4.4886  -23.5175 C   0  0  0  0  0  0  0  0  0  0  0  0
  -11.9087   -4.8674  -24.1878 O   0  0  0  0  0  0  0  0  0  0  0  0
  -10.1273   -6.3518  -25.2020 H   0  0  0  0  0  0  0  0  0  0  0  0
   -7.8197   -6.6662  -26.1280 H   0  0  0  0  0  0  0  0  0  0  0  0
   -6.4073   -3.4824  -23.6409 H   0  0  0  0  0  0  0  0  0  0  0  0
   -9.6430   -4.1582  -20.8690 H   0  0  0  0  0  0  0  0  0  0  0  0
  -10.2843   -2.4989  -20.9354 H   0  0  0  0  0  0  0  0  0  0  0  0
  -12.9171   -4.7716  -22.2398 H   0  0  0  0  0  0  0  0  0  0  0  0
  -12.3820   -4.0841  -20.6796 H   0  0  0  0  0  0  0  0  0  0  0  0
  -13.3991   -3.3762  -24.0415 H   0  0  0  0  0  0  0  0  0  0  0  0
  -13.9066   -0.6380  -23.8490 H   0  0  0  0  0  0  0  0  0  0  0  0
  -14.8727   -1.7638  -24.8503 H   0  0  0  0  0  0  0  0  0  0  0  0
  -15.3596   -1.3929  -23.1700 H   0  0  0  0  0  0  0  0  0  0  0  0
  1  2  1  0
  2  3  1  0
  3  4  2  0
  3  5  1  0
  5  6  1  0
  6  7  1  0
  8  7  1  1
  8  9  1  0
  9 10  2  0
  9 11  1  0
 11 12  1  0
 12 13  2  0
 13 14  1  0
 14 15  2  0
 15 16  1  0
 16 17  2  0
 17 18  1  0
 18 19  2  0
 19 20  1  0
 20 21  2  0
 20 22  1  0
 19 23  1  0
 18 24  1  0
 17 25  1  0
 15 26  1  0
 13 27  1  0
 11 28  1  0
 28 29  1  0
 29 30  1  0
 30 31  1  0
 30 32  1  0
 30 33  1  0
 29 34  1  6
 28 35  1  0
 28 36  1  0
  8 37  1  0
 37 38  2  0
 38 39  1  0
 39 40  1  0
 39 41  2  0
 41 42  1  0
 42 43  2  0
 43 44  1  0
 44 45  2  0
 42 46  1  0
 41 47  1  0
 38 48  1  0
  7 49  1  0
  7 50  1  0
  5 51  1  0
  5 52  1  0
  2 53  1  0
  1 54  1  0
  1 55  1  0
  1 56  1  0
 44  6  1  0
 29  8  1  0
 43 37  1  0
 21 12  1  0
 21 16  1  0
M  END
>  <cnnaffinities>  (76) 
[6.49827]

>  <score>  (76) 
6.49827

>  <index>  (76) 
78

>  <Smiles>  (76) 
C(N(C(=O)C(N1C([C@@]2(C(=O)N(c3c(nc(c4c(c(c(c(c34)[H])[H])[H])[H])[H])[H])C([C@@]2(C([H])([H])[H])[H])([H])[H])c2c(c(Cl)c(c(c2C1=O)[H])[H])[H])([H])[H])([H])[H])[H])([H])([H])[H]

>  <h>  (76) 
<NA>

>  <Training>  (76) 
True

>  <Success>  (76) 
True

>  <enamine_searched>  (76) 
False

>  <enamine_id>  (76) 
nan

$$$$

     RDKit          3D

 45 49  0  0  0  0  0  0  0  0999 V2000
  -10.5237   -2.6040  -22.5089 C   0  0  0  0  0  0  0  0  0  0  0  0
   -9.1253   -2.3861  -22.2001 N   0  0  0  0  0  0  0  0  0  0  0  0
   -8.6932   -1.3219  -21.4594 C   0  0  0  0  0  0  0  0  0  0  0  0
   -9.3474   -0.3906  -21.0464 O   0  0  0  0  0  0  0  0  0  0  0  0
   -7.3118   -1.5147  -21.2770 N   0  0  0  0  0  0  0  0  0  0  0  0
   -6.5888   -0.8630  -20.2462 C   0  0  0  0  0  0  0  0  0  0  0  0
   -6.9538   -1.0397  -18.9342 C   0  0  0  0  0  0  0  0  0  0  0  0
   -6.2878   -0.5072  -17.8829 N   0  0  0  0  0  0  0  0  0  0  0  0
   -5.2295    0.2157  -18.1410 C   0  0  0  0  0  0  0  0  0  0  0  0
   -4.7731    0.5048  -19.4527 C   0  0  0  0  0  0  0  0  0  0  0  0
   -3.6428    1.3299  -19.6620 C   0  0  0  0  0  0  0  0  0  0  0  0
   -3.2471    1.6425  -20.9303 C   0  0  0  0  0  0  0  0  0  0  0  0
   -3.9590    1.1429  -22.0430 C   0  0  0  0  0  0  0  0  0  0  0  0
   -5.0505    0.3294  -21.8655 C   0  0  0  0  0  0  0  0  0  0  0  0
   -5.4767   -0.0240  -20.5535 C   0  0  0  0  0  0  0  0  0  0  0  0
   -5.5921   -0.0451  -22.7289 H   0  0  0  0  0  0  0  0  0  0  0  0
   -3.6426    1.4167  -23.0456 H   0  0  0  0  0  0  0  0  0  0  0  0
   -2.3925    2.2912  -21.0886 H   0  0  0  0  0  0  0  0  0  0  0  0
   -3.1274    1.7154  -18.7876 H   0  0  0  0  0  0  0  0  0  0  0  0
   -4.6761    0.6245  -17.2943 H   0  0  0  0  0  0  0  0  0  0  0  0
   -7.8114   -1.6564  -18.6763 H   0  0  0  0  0  0  0  0  0  0  0  0
   -6.8272   -2.5709  -22.0532 C   0  0  0  0  0  0  0  0  0  0  0  0
   -5.6729   -2.9093  -22.1696 O   0  0  0  0  0  0  0  0  0  0  0  0
   -8.0407   -3.1773  -22.7359 C   0  0  0  0  0  0  0  0  0  0  0  0
   -7.9320   -3.2881  -24.2767 C   0  0  0  0  0  0  0  0  0  0  0  0
   -7.9107   -4.7738  -24.1724 N   0  0  0  0  0  0  0  0  0  0  0  0
   -9.0228   -5.5722  -25.1510 S   0  0  0  0  0  0  0  0  0  0  0  0
  -10.3246   -5.5781  -24.4871 O   0  0  0  0  0  0  0  0  0  0  0  0
   -8.8706   -5.0123  -26.4804 O   0  0  0  0  0  0  0  0  0  0  0  0
   -8.4118   -7.2359  -25.1315 C   0  0  0  0  0  0  0  0  0  0  0  0
   -8.6988   -8.0218  -23.8930 C   0  0  0  0  0  0  0  0  0  0  0  0
   -9.5067   -8.2709  -25.1326 C   0  0  0  0  0  0  0  0  0  0  0  0
  -10.4934   -7.8172  -25.1744 H   0  0  0  0  0  0  0  0  0  0  0  0
   -9.3923   -9.1974  -25.6968 H   0  0  0  0  0  0  0  0  0  0  0  0
   -7.9638   -8.7503  -23.5951 H   0  0  0  0  0  0  0  0  0  0  0  0
   -9.1733   -7.5427  -23.0445 H   0  0  0  0  0  0  0  0  0  0  0  0
   -7.4833   -7.3893  -25.6789 H   0  0  0  0  0  0  0  0  0  0  0  0
   -8.1035   -4.7268  -22.7012 C   0  0  0  0  0  0  0  0  0  0  0  0
   -7.2514   -5.1843  -22.1918 H   0  0  0  0  0  0  0  0  0  0  0  0
   -9.0459   -5.1442  -22.3313 H   0  0  0  0  0  0  0  0  0  0  0  0
   -8.8001   -2.8963  -24.8200 H   0  0  0  0  0  0  0  0  0  0  0  0
   -7.0047   -2.9086  -24.7077 H   0  0  0  0  0  0  0  0  0  0  0  0
  -10.9882   -1.6532  -22.7832 H   0  0  0  0  0  0  0  0  0  0  0  0
  -11.0533   -3.0221  -21.6450 H   0  0  0  0  0  0  0  0  0  0  0  0
  -10.5996   -3.3044  -23.3453 H   0  0  0  0  0  0  0  0  0  0  0  0
  1  2  1  0
  2  3  1  0
  3  4  2  0
  3  5  1  0
  5  6  1  0
  6  7  2  0
  7  8  1  0
  8  9  2  0
  9 10  1  0
 10 11  2  0
 11 12  1  0
 12 13  2  0
 13 14  1  0
 14 15  2  0
 14 16  1  0
 13 17  1  0
 12 18  1  0
 11 19  1  0
  9 20  1  0
  7 21  1  0
  5 22  1  0
 22 23  2  0
 22 24  1  0
 24 25  1  0
 25 26  1  0
 26 27  1  0
 27 28  2  0
 27 29  2  0
 27 30  1  0
 30 31  1  0
 31 32  1  0
 32 33  1  0
 32 34  1  0
 31 35  1  0
 31 36  1  0
 30 37  1  0
 26 38  1  0
 38 39  1  0
 38 40  1  0
 25 41  1  0
 25 42  1  0
  1 43  1  0
  1 44  1  0
  1 45  1  0
 24  2  1  0
 32 30  1  0
 15  6  1  0
 38 24  1  0
 15 10  1  0
M  END
>  <cnnaffinities>  (77) 
[5.46792, 5.16758, 5.16139, 5.23955, 5.24921, 5.24555, 5.56962, 5.48267, 5.48753, 5.44197, 5.4539, 5.45057, 5.48482, 5.45853, 5.33911]

>  <score>  (77) 
5.46792

>  <index>  (77) 
79

>  <Smiles>  (77) 
C(N1C(=O)N(c2c(nc(c3c(c(c(c(c23)[H])[H])[H])[H])[H])[H])C(=O)C21C(N(S(=O)(=O)C1(C(C1([H])[H])([H])[H])[H])C2([H])[H])([H])[H])([H])([H])[H]

>  <h>  (77) 
<NA>

>  <Training>  (77) 
True

>  <Success>  (77) 
True

>  <enamine_searched>  (77) 
False

>  <enamine_id>  (77) 
nan

$$$$

     RDKit          3D

 60 65  0  0  0  0  0  0  0  0999 V2000
   -7.1189    0.8461  -26.6805 C   0  0  0  0  0  0  0  0  0  0  0  0
   -8.3052    0.1197  -26.2834 N   0  0  0  0  0  0  0  0  0  0  0  0
   -8.2116   -1.2278  -26.1292 C   0  0  0  0  0  0  0  0  0  0  0  0
   -7.1324   -1.8035  -26.1876 O   0  0  0  0  0  0  0  0  0  0  0  0
   -9.5265   -1.9460  -25.8816 C   0  0  0  0  0  0  0  0  0  0  0  0
   -9.9945   -1.9996  -24.5104 N   0  0  0  0  0  0  0  0  0  0  0  0
   -9.3834   -1.2633  -23.4049 C   0  0  0  0  0  0  0  0  0  0  0  0
   -9.1631   -2.1263  -22.2311 C   0  0  2  0  0  0  0  0  0  0  0  0
   -8.5659   -1.2949  -20.9940 C   0  0  0  0  0  0  0  0  0  0  0  0
   -8.9800   -0.1029  -20.8027 O   0  0  0  0  0  0  0  0  0  0  0  0
   -7.1181   -1.3921  -21.2736 N   0  0  0  0  0  0  0  0  0  0  0  0
   -6.3811   -0.8330  -20.2243 C   0  0  0  0  0  0  0  0  0  0  0  0
   -6.7829   -0.9440  -18.9043 C   0  0  0  0  0  0  0  0  0  0  0  0
   -6.1503   -0.3885  -17.8524 N   0  0  0  0  0  0  0  0  0  0  0  0
   -5.0798    0.3256  -18.0973 C   0  0  0  0  0  0  0  0  0  0  0  0
   -4.5891    0.5766  -19.4121 C   0  0  0  0  0  0  0  0  0  0  0  0
   -3.4775    1.4172  -19.6686 C   0  0  0  0  0  0  0  0  0  0  0  0
   -3.1047    1.7042  -20.9527 C   0  0  0  0  0  0  0  0  0  0  0  0
   -3.8215    1.1777  -22.0483 C   0  0  0  0  0  0  0  0  0  0  0  0
   -4.8875    0.3391  -21.8341 C   0  0  0  0  0  0  0  0  0  0  0  0
   -5.2678    0.0045  -20.5109 C   0  0  0  0  0  0  0  0  0  0  0  0
   -5.4695   -0.0500  -22.6682 H   0  0  0  0  0  0  0  0  0  0  0  0
   -3.5358    1.4487  -23.0585 H   0  0  0  0  0  0  0  0  0  0  0  0
   -2.2619    2.3616  -21.1380 H   0  0  0  0  0  0  0  0  0  0  0  0
   -2.9445    1.8385  -18.8238 H   0  0  0  0  0  0  0  0  0  0  0  0
   -4.5780    0.7591  -17.2333 H   0  0  0  0  0  0  0  0  0  0  0  0
   -7.6866   -1.4896  -18.6416 H   0  0  0  0  0  0  0  0  0  0  0  0
   -6.7717   -2.6305  -21.9602 C   0  0  0  0  0  0  0  0  0  0  0  0
   -8.1690   -3.2673  -22.3528 C   0  0  2  0  0  0  0  0  0  0  0  0
   -8.0341   -3.9797  -23.7060 C   0  0  0  0  0  0  0  0  0  0  0  0
   -9.0115   -4.3333  -24.0443 H   0  0  0  0  0  0  0  0  0  0  0  0
   -7.3587   -4.8388  -23.6276 H   0  0  0  0  0  0  0  0  0  0  0  0
   -7.6161   -3.3000  -24.4572 H   0  0  0  0  0  0  0  0  0  0  0  0
   -8.4020   -4.0123  -21.5734 H   0  0  0  0  0  0  0  0  0  0  0  0
   -6.1590   -2.4054  -22.8507 H   0  0  0  0  0  0  0  0  0  0  0  0
   -6.1577   -3.3046  -21.3361 H   0  0  0  0  0  0  0  0  0  0  0  0
  -10.6059   -2.4513  -21.7744 C   0  0  0  0  0  0  0  0  0  0  0  0
  -10.5362   -2.7106  -21.7739 C   0  0  0  0  0  0  0  0  0  0  0  0
  -12.9479   -3.3085  -21.0773 C   0  0  0  0  0  0  0  0  0  0  0  0
  -13.8269   -4.2306  -23.5487 Cl  0  0  0  0  0  0  0  0  0  0  0  0
  -13.0906   -3.3715  -20.9843 C   0  0  0  0  0  0  0  0  0  0  0  0
  -12.9818   -3.0255  -22.5043 C   0  0  0  0  0  0  0  0  0  0  0  0
  -11.5678   -2.6847  -22.9036 C   0  0  0  0  0  0  0  0  0  0  0  0
  -10.9305   -2.9479  -24.1188 C   0  0  0  0  0  0  0  0  0  0  0  0
  -11.1950   -3.9074  -24.8371 O   0  0  0  0  0  0  0  0  0  0  0  0
  -13.4934   -2.0928  -22.7324 H   0  0  0  0  0  0  0  0  0  0  0  0
  -13.5701   -4.4112  -21.0776 H   0  0  0  0  0  0  0  0  0  0  0  0
   -8.5997   -1.9490  -20.0475 H   0  0  0  0  0  0  0  0  0  0  0  0
   -8.4056   -0.9086  -23.7059 H   0  0  0  0  0  0  0  0  0  0  0  0
   -9.9244   -0.3772  -23.0458 H   0  0  0  0  0  0  0  0  0  0  0  0
   -9.7350   -3.0291  -26.9163 C   0  0  0  0  0  0  0  0  0  0  0  0
  -10.5610   -1.7793  -26.9579 C   0  0  0  0  0  0  0  0  0  0  0  0
  -11.5972   -1.8273  -26.6444 H   0  0  0  0  0  0  0  0  0  0  0  0
  -10.3473   -1.0958  -27.7736 H   0  0  0  0  0  0  0  0  0  0  0  0
  -10.2098   -3.9580  -26.6361 H   0  0  0  0  0  0  0  0  0  0  0  0
   -8.9426   -3.1003  -27.6556 H   0  0  0  0  0  0  0  0  0  0  0  0
   -9.2167    0.4734  -26.5346 H   0  0  0  0  0  0  0  0  0  0  0  0
   -6.8028    0.5865  -27.6991 H   0  0  0  0  0  0  0  0  0  0  0  0
   -7.3085    1.9185  -26.6156 H   0  0  0  0  0  0  0  0  0  0  0  0
   -6.3042    0.5816  -26.0010 H   0  0  0  0  0  0  0  0  0  0  0  0
  1  2  1  0
  2  3  1  0
  3  4  2  0
  3  5  1  0
  5  6  1  0
  6  7  1  0
  8  7  1  6
  8  9  1  0
  9 10  2  0
  9 11  1  0
 11 12  1  0
 12 13  2  0
 13 14  1  0
 14 15  2  0
 15 16  1  0
 16 17  2  0
 17 18  1  0
 18 19  2  0
 19 20  1  0
 20 21  2  0
 20 22  1  0
 19 23  1  0
 18 24  1  0
 17 25  1  0
 15 26  1  0
 13 27  1  0
 11 28  1  0
 28 29  1  0
 29 30  1  0
 30 31  1  0
 30 32  1  0
 30 33  1  0
 29 34  1  1
 28 35  1  0
 28 36  1  0
  8 37  1  0
 37 38  2  0
 38 39  1  0
 39 40  1  0
 39 41  2  0
 41 42  1  0
 42 43  2  0
 43 44  1  0
 44 45  2  0
 42 46  1  0
 41 47  1  0
 38 48  1  0
  7 49  1  0
  7 50  1  0
  5 51  1  0
 51 52  1  0
 52 53  1  0
 52 54  1  0
 51 55  1  0
 51 56  1  0
  2 57  1  0
  1 58  1  0
  1 59  1  0
  1 60  1  0
 52  5  1  0
 44  6  1  0
 29  8  1  0
 43 37  1  0
 21 12  1  0
 21 16  1  0
M  END
>  <cnnaffinities>  (78) 
[6.27989]

>  <score>  (78) 
6.27989

>  <index>  (78) 
80

>  <Smiles>  (78) 
C(N(C(=O)C1(N2C([C@@]3(C(=O)N(c4c(nc(c5c(c(c(c(c45)[H])[H])[H])[H])[H])[H])C([C@@]3(C([H])([H])[H])[H])([H])[H])c3c(c(Cl)c(c(c3C2=O)[H])[H])[H])([H])[H])C(C1([H])[H])([H])[H])[H])([H])([H])[H]

>  <h>  (78) 
<NA>

>  <Training>  (78) 
True

>  <Success>  (78) 
True

>  <enamine_searched>  (78) 
False

>  <enamine_id>  (78) 
nan

$$$$

     RDKit          3D

 36 38  0  0  0  0  0  0  0  0999 V2000
   -8.5081    0.7107  -21.4639 O   0  0  0  0  0  0  0  0  0  0  0  0
   -8.3856   -0.4019  -21.9343 C   0  0  0  0  0  0  0  0  0  0  0  0
   -7.4391   -1.4336  -21.2786 C   0  0  0  0  0  0  0  0  0  0  0  0
   -6.5809   -0.8288  -20.1909 C   0  0  0  0  0  0  0  0  0  0  0  0
   -6.8812   -1.0329  -18.8701 C   0  0  0  0  0  0  0  0  0  0  0  0
   -6.2020   -0.5097  -17.8165 N   0  0  0  0  0  0  0  0  0  0  0  0
   -5.1547    0.2305  -18.0737 C   0  0  0  0  0  0  0  0  0  0  0  0
   -4.7198    0.5353  -19.3882 C   0  0  0  0  0  0  0  0  0  0  0  0
   -3.5943    1.3645  -19.6245 C   0  0  0  0  0  0  0  0  0  0  0  0
   -3.2075    1.6584  -20.9038 C   0  0  0  0  0  0  0  0  0  0  0  0
   -3.9332    1.1300  -21.9945 C   0  0  0  0  0  0  0  0  0  0  0  0
   -5.0270    0.3234  -21.7891 C   0  0  0  0  0  0  0  0  0  0  0  0
   -5.4541    0.0017  -20.4764 C   0  0  0  0  0  0  0  0  0  0  0  0
   -5.5771   -0.0671  -22.6378 H   0  0  0  0  0  0  0  0  0  0  0  0
   -3.6233    1.3723  -23.0051 H   0  0  0  0  0  0  0  0  0  0  0  0
   -2.3533    2.3038  -21.0877 H   0  0  0  0  0  0  0  0  0  0  0  0
   -3.0572    1.7752  -18.7730 H   0  0  0  0  0  0  0  0  0  0  0  0
   -4.6017    0.6269  -17.2190 H   0  0  0  0  0  0  0  0  0  0  0  0
   -7.7258   -1.6570  -18.5843 H   0  0  0  0  0  0  0  0  0  0  0  0
   -6.8031   -1.9003  -22.0424 H   0  0  0  0  0  0  0  0  0  0  0  0
   -8.0407   -2.2449  -20.8452 H   0  0  0  0  0  0  0  0  0  0  0  0
   -9.0589   -0.7722  -23.0902 N   0  0  0  0  0  0  0  0  0  0  0  0
  -10.0026    0.1929  -23.6438 C   0  0  0  0  0  0  0  0  0  0  0  0
  -11.3759    0.2113  -23.0262 C   0  0  0  0  0  0  0  0  0  0  0  0
  -12.0184   -0.7923  -22.4183 C   0  0  0  0  0  0  0  0  0  0  0  0
  -11.5688   -2.1756  -22.1559 C   0  0  0  0  0  0  0  0  0  0  0  0
  -10.4458   -2.7811  -22.5510 C   0  0  0  0  0  0  0  0  0  0  0  0
   -9.3673   -2.1605  -23.4040 C   0  0  0  0  0  0  0  0  0  0  0  0
   -8.4500   -2.7534  -23.3597 H   0  0  0  0  0  0  0  0  0  0  0  0
   -9.6837   -2.1745  -24.4534 H   0  0  0  0  0  0  0  0  0  0  0  0
  -10.2835   -3.8162  -22.2473 H   0  0  0  0  0  0  0  0  0  0  0  0
  -12.2764   -2.7638  -21.5742 H   0  0  0  0  0  0  0  0  0  0  0  0
  -13.0202   -0.5921  -22.0412 H   0  0  0  0  0  0  0  0  0  0  0  0
  -11.8737    1.1796  -23.1075 H   0  0  0  0  0  0  0  0  0  0  0  0
  -10.1108   -0.0419  -24.7093 H   0  0  0  0  0  0  0  0  0  0  0  0
   -9.5576    1.1902  -23.5953 H   0  0  0  0  0  0  0  0  0  0  0  0
  1  2  2  0
  2  3  1  0
  3  4  1  0
  4  5  2  0
  5  6  1  0
  6  7  2  0
  7  8  1  0
  8  9  2  0
  9 10  1  0
 10 11  2  0
 11 12  1  0
 12 13  2  0
 12 14  1  0
 11 15  1  0
 10 16  1  0
  9 17  1  0
  7 18  1  0
  5 19  1  0
  3 20  1  0
  3 21  1  0
  2 22  1  0
 22 23  1  0
 23 24  1  0
 24 25  2  0
 25 26  1  0
 26 27  2  0
 27 28  1  0
 28 29  1  0
 28 30  1  0
 27 31  1  0
 26 32  1  0
 25 33  1  0
 24 34  1  0
 23 35  1  0
 23 36  1  0
 13  4  1  0
 28 22  1  0
 13  8  1  0
M  END
>  <cnnaffinities>  (79) 
[4.67382, 4.67383, 5.09438, 5.09946]

>  <score>  (79) 
4.67382

>  <index>  (79) 
81

>  <Smiles>  (79) 
O=C(C(c1c(nc(c2c(c(c(c(c12)[H])[H])[H])[H])[H])[H])([H])[H])N1C(C(=C(C(=C(C1([H])[H])[H])[H])[H])[H])([H])[H]

>  <h>  (79) 
<NA>

>  <Training>  (79) 
True

>  <Success>  (79) 
True

>  <enamine_searched>  (79) 
False

>  <enamine_id>  (79) 
nan

$$$$

     RDKit          3D

 54 57  0  0  0  0  0  0  0  0999 V2000
   -9.4603    1.4559  -24.5735 C   0  0  0  0  0  0  0  0  0  0  0  0
   -8.9047    0.1661  -24.4488 O   0  0  0  0  0  0  0  0  0  0  0  0
   -7.6187   -0.0613  -24.8486 C   0  0  0  0  0  0  0  0  0  0  0  0
   -6.7882    0.9273  -25.3876 C   0  0  0  0  0  0  0  0  0  0  0  0
   -5.4818    0.6107  -25.7607 C   0  0  0  0  0  0  0  0  0  0  0  0
   -4.9933   -0.6806  -25.6104 C   0  0  0  0  0  0  0  0  0  0  0  0
   -5.8269   -1.6460  -25.0606 C   0  0  0  0  0  0  0  0  0  0  0  0
   -7.1227   -1.3647  -24.6504 C   0  0  0  0  0  0  0  0  0  0  0  0
   -7.9878   -2.4730  -24.0494 C   0  0  1  0  0  0  0  0  0  0  0  0
   -8.5379   -3.3737  -25.1589 C   0  0  0  0  0  0  0  0  0  0  0  0
   -9.2382   -4.6034  -24.5948 C   0  0  1  0  0  0  0  0  0  0  0  0
   -9.8866   -5.4462  -25.6944 C   0  0  0  0  0  0  0  0  0  0  0  0
  -10.6241   -4.8695  -26.2654 H   0  0  0  0  0  0  0  0  0  0  0  0
   -9.1356   -5.8096  -26.4059 H   0  0  0  0  0  0  0  0  0  0  0  0
  -10.3985   -6.3227  -25.2797 H   0  0  0  0  0  0  0  0  0  0  0  0
   -8.2688   -5.4305  -23.7352 C   0  0  0  0  0  0  0  0  0  0  0  0
   -6.9952   -4.6712  -23.3575 C   0  0  0  0  0  0  0  0  0  0  0  0
   -7.2858   -3.2714  -23.0394 N   0  0  0  0  0  0  0  0  0  0  0  0
   -6.7361   -2.7286  -21.8879 C   0  0  0  0  0  0  0  0  0  0  0  0
   -5.7964   -3.2553  -21.3189 O   0  0  0  0  0  0  0  0  0  0  0  0
   -7.3996   -1.4635  -21.2869 C   0  0  0  0  0  0  0  0  0  0  0  0
   -6.5753   -0.8309  -20.1902 C   0  0  0  0  0  0  0  0  0  0  0  0
   -6.8732   -1.0411  -18.8702 C   0  0  0  0  0  0  0  0  0  0  0  0
   -6.1964   -0.5139  -17.8153 N   0  0  0  0  0  0  0  0  0  0  0  0
   -5.1548    0.2318  -18.0756 C   0  0  0  0  0  0  0  0  0  0  0  0
   -4.7143    0.5330  -19.3892 C   0  0  0  0  0  0  0  0  0  0  0  0
   -3.5890    1.3584  -19.6269 C   0  0  0  0  0  0  0  0  0  0  0  0
   -3.1931    1.6374  -20.9034 C   0  0  0  0  0  0  0  0  0  0  0  0
   -3.9115    1.0924  -21.9937 C   0  0  0  0  0  0  0  0  0  0  0  0
   -5.0054    0.2879  -21.7984 C   0  0  0  0  0  0  0  0  0  0  0  0
   -5.4431   -0.0112  -20.4829 C   0  0  0  0  0  0  0  0  0  0  0  0
   -5.5328   -0.1191  -22.6628 H   0  0  0  0  0  0  0  0  0  0  0  0
   -3.5909    1.3214  -23.0046 H   0  0  0  0  0  0  0  0  0  0  0  0
   -2.3345    2.2790  -21.0901 H   0  0  0  0  0  0  0  0  0  0  0  0
   -3.0557    1.7750  -18.7734 H   0  0  0  0  0  0  0  0  0  0  0  0
   -4.6017    0.6292  -17.2185 H   0  0  0  0  0  0  0  0  0  0  0  0
   -7.7180   -1.6691  -18.5857 H   0  0  0  0  0  0  0  0  0  0  0  0
   -7.6499   -0.7192  -22.0535 H   0  0  0  0  0  0  0  0  0  0  0  0
   -8.3625   -1.7789  -20.8575 H   0  0  0  0  0  0  0  0  0  0  0  0
   -6.2584   -4.7543  -24.1698 H   0  0  0  0  0  0  0  0  0  0  0  0
   -6.5263   -5.1219  -22.4837 H   0  0  0  0  0  0  0  0  0  0  0  0
   -7.9807   -6.3456  -24.2627 H   0  0  0  0  0  0  0  0  0  0  0  0
   -8.7839   -5.7581  -22.8288 H   0  0  0  0  0  0  0  0  0  0  0  0
  -10.0439   -4.2464  -23.9427 H   0  0  0  0  0  0  0  0  0  0  0  0
   -9.2426   -2.7848  -25.7515 H   0  0  0  0  0  0  0  0  0  0  0  0
   -7.7481   -3.6689  -25.8613 H   0  0  0  0  0  0  0  0  0  0  0  0
   -8.8453   -2.0019  -23.5634 H   0  0  0  0  0  0  0  0  0  0  0  0
   -5.4416   -2.6541  -24.9565 H   0  0  0  0  0  0  0  0  0  0  0  0
   -3.9794   -0.9382  -25.9103 H   0  0  0  0  0  0  0  0  0  0  0  0
   -4.8372    1.3780  -26.1764 H   0  0  0  0  0  0  0  0  0  0  0  0
   -7.1416    1.9464  -25.5208 H   0  0  0  0  0  0  0  0  0  0  0  0
   -9.5006    1.8093  -25.6120 H   0  0  0  0  0  0  0  0  0  0  0  0
   -8.9507    2.2172  -23.9733 H   0  0  0  0  0  0  0  0  0  0  0  0
  -10.4693    1.3621  -24.1806 H   0  0  0  0  0  0  0  0  0  0  0  0
  1  2  1  0
  2  3  1  0
  3  4  2  0
  4  5  1  0
  5  6  2  0
  6  7  1  0
  7  8  2  0
  8  9  1  0
  9 10  1  0
 10 11  1  0
 11 12  1  0
 12 13  1  0
 12 14  1  0
 12 15  1  0
 11 16  1  0
 16 17  1  0
 17 18  1  0
 18 19  1  0
 19 20  2  0
 19 21  1  0
 21 22  1  0
 22 23  2  0
 23 24  1  0
 24 25  2  0
 25 26  1  0
 26 27  2  0
 27 28  1  0
 28 29  2  0
 29 30  1  0
 30 31  2  0
 30 32  1  0
 29 33  1  0
 28 34  1  0
 27 35  1  0
 25 36  1  0
 23 37  1  0
 21 38  1  0
 21 39  1  0
 17 40  1  0
 17 41  1  0
 16 42  1  0
 16 43  1  0
 11 44  1  1
 10 45  1  0
 10 46  1  0
  9 47  1  1
  7 48  1  0
  6 49  1  0
  5 50  1  0
  4 51  1  0
  1 52  1  0
  1 53  1  0
  1 54  1  0
  8  3  1  0
 18  9  1  0
 31 22  1  0
 31 26  1  0
M  END
>  <cnnaffinities>  (80) 
[5.85663, 5.65969]

>  <score>  (80) 
5.85663

>  <index>  (80) 
82

>  <Smiles>  (80) 
C(Oc1c(c(c(c(c1[C@]1(C([C@@](C([H])([H])[H])(C(C(N1C(=O)C(c1c(nc(c2c(c(c(c(c12)[H])[H])[H])[H])[H])[H])([H])[H])([H])[H])([H])[H])[H])([H])[H])[H])[H])[H])[H])[H])([H])([H])[H]

>  <h>  (80) 
<NA>

>  <Training>  (80) 
True

>  <Success>  (80) 
True

>  <enamine_searched>  (80) 
False

>  <enamine_id>  (80) 
nan

$$$$

     RDKit          3D

 46 50  0  0  0  0  0  0  0  0999 V2000
   -5.9385   -4.3766  -26.9191 N   0  0  0  0  0  0  0  0  0  0  0  0
   -5.6738   -2.7485  -26.6720 S   0  0  0  0  0  0  0  0  0  0  0  0
   -4.7316   -2.6412  -25.5713 O   0  0  0  0  0  0  0  0  0  0  0  0
   -5.4019   -2.1875  -27.9815 O   0  0  0  0  0  0  0  0  0  0  0  0
   -7.2322   -2.1028  -26.1217 C   0  0  0  0  0  0  0  0  0  0  0  0
   -8.1637   -1.6955  -27.0792 C   0  0  0  0  0  0  0  0  0  0  0  0
   -9.4126   -1.2853  -26.6560 C   0  0  0  0  0  0  0  0  0  0  0  0
   -9.6869   -1.1693  -25.2956 C   0  0  0  0  0  0  0  0  0  0  0  0
   -8.7503   -1.5747  -24.3310 C   0  0  0  0  0  0  0  0  0  0  0  0
   -7.5177   -2.0715  -24.7639 C   0  0  0  0  0  0  0  0  0  0  0  0
   -6.7868   -2.4504  -24.0475 H   0  0  0  0  0  0  0  0  0  0  0  0
   -9.0889   -1.5626  -22.8465 C   0  0  1  0  0  0  0  0  0  0  0  0
  -10.5927   -1.2943  -22.6938 C   0  0  0  0  0  0  0  0  0  0  0  0
  -11.0290   -0.1998  -23.6539 C   0  0  0  0  0  0  0  0  0  0  0  0
  -10.9234   -0.6924  -24.9824 O   0  0  0  0  0  0  0  0  0  0  0  0
  -12.0746    0.0819  -23.5096 H   0  0  0  0  0  0  0  0  0  0  0  0
  -10.4031    0.6969  -23.5548 H   0  0  0  0  0  0  0  0  0  0  0  0
  -10.8337   -1.0388  -21.6633 H   0  0  0  0  0  0  0  0  0  0  0  0
  -11.1163   -2.2161  -22.9631 H   0  0  0  0  0  0  0  0  0  0  0  0
   -8.6702   -2.8081  -22.1865 N   0  0  0  0  0  0  0  0  0  0  0  0
   -7.4718   -2.6331  -21.5221 C   0  0  0  0  0  0  0  0  0  0  0  0
   -6.6531   -3.4700  -21.2227 O   0  0  0  0  0  0  0  0  0  0  0  0
   -7.3487   -1.2632  -21.2852 N   0  0  0  0  0  0  0  0  0  0  0  0
   -6.5678   -0.7225  -20.2337 C   0  0  0  0  0  0  0  0  0  0  0  0
   -6.9109   -0.9517  -18.9269 C   0  0  0  0  0  0  0  0  0  0  0  0
   -6.2399   -0.4409  -17.8701 N   0  0  0  0  0  0  0  0  0  0  0  0
   -5.1858    0.2922  -18.1183 C   0  0  0  0  0  0  0  0  0  0  0  0
   -4.7223    0.6036  -19.4236 C   0  0  0  0  0  0  0  0  0  0  0  0
   -3.5661    1.3941  -19.6427 C   0  0  0  0  0  0  0  0  0  0  0  0
   -3.1426    1.6425  -20.9173 C   0  0  0  0  0  0  0  0  0  0  0  0
   -3.8411    1.1088  -22.0223 C   0  0  0  0  0  0  0  0  0  0  0  0
   -4.9642    0.3471  -21.8335 C   0  0  0  0  0  0  0  0  0  0  0  0
   -5.4302    0.0811  -20.5220 C   0  0  0  0  0  0  0  0  0  0  0  0
   -5.5101   -0.0596  -22.6784 H   0  0  0  0  0  0  0  0  0  0  0  0
   -3.4788    1.2859  -23.0279 H   0  0  0  0  0  0  0  0  0  0  0  0
   -2.2567    2.2449  -21.0902 H   0  0  0  0  0  0  0  0  0  0  0  0
   -3.0296    1.7798  -18.7812 H   0  0  0  0  0  0  0  0  0  0  0  0
   -4.6331    0.6560  -17.2552 H   0  0  0  0  0  0  0  0  0  0  0  0
   -7.7769   -1.5590  -18.6821 H   0  0  0  0  0  0  0  0  0  0  0  0
   -8.2609   -0.5405  -22.0517 C   0  0  0  0  0  0  0  0  0  0  0  0
   -8.3701    0.6649  -22.0462 O   0  0  0  0  0  0  0  0  0  0  0  0
   -8.7179   -3.6692  -22.7178 H   0  0  0  0  0  0  0  0  0  0  0  0
  -10.2143   -1.0733  -27.3526 H   0  0  0  0  0  0  0  0  0  0  0  0
   -7.9066   -1.7069  -28.1364 H   0  0  0  0  0  0  0  0  0  0  0  0
   -6.1772   -4.8675  -26.0638 H   0  0  0  0  0  0  0  0  0  0  0  0
   -6.6130   -4.5459  -27.6600 H   0  0  0  0  0  0  0  0  0  0  0  0
  1  2  1  0
  2  3  2  0
  2  4  2  0
  2  5  1  0
  5  6  2  0
  6  7  1  0
  7  8  2  0
  8  9  1  0
  9 10  2  0
 10 11  1  0
  9 12  1  0
 12 13  1  0
 13 14  1  0
 14 15  1  0
 14 16  1  0
 14 17  1  0
 13 18  1  0
 13 19  1  0
 12 20  1  1
 20 21  1  0
 21 22  2  0
 21 23  1  0
 23 24  1  0
 24 25  2  0
 25 26  1  0
 26 27  2  0
 27 28  1  0
 28 29  2  0
 29 30  1  0
 30 31  2  0
 31 32  1  0
 32 33  2  0
 32 34  1  0
 31 35  1  0
 30 36  1  0
 29 37  1  0
 27 38  1  0
 25 39  1  0
 23 40  1  0
 40 41  2  0
 20 42  1  0
  7 43  1  0
  6 44  1  0
  1 45  1  0
  1 46  1  0
 10  5  1  0
 40 12  1  0
 15  8  1  0
 33 24  1  0
 33 28  1  0
M  END
>  <cnnaffinities>  (81) 
[5.72501, 5.79417, 5.68052]

>  <score>  (81) 
5.72501

>  <index>  (81) 
83

>  <Smiles>  (81) 
N(S(=O)(=O)c1c(c(c2c(c1[H])[C@@]1(C(C(O2)([H])[H])([H])[H])N(C(=O)N(c2c(nc(c3c(c(c(c(c23)[H])[H])[H])[H])[H])[H])C1=O)[H])[H])[H])([H])[H]

>  <h>  (81) 
<NA>

>  <Training>  (81) 
True

>  <Success>  (81) 
True

>  <enamine_searched>  (81) 
False

>  <enamine_id>  (81) 
nan

$$$$

     RDKit          3D

 63 68  0  0  0  0  0  0  0  0999 V2000
   -8.2867   -4.1375  -23.5049 C   0  0  0  0  0  0  0  0  0  0  0  0
   -8.4925   -2.9579  -22.5639 C   0  0  1  0  0  0  0  0  0  0  0  0
   -7.3074   -2.7134  -21.6232 C   0  0  0  0  0  0  0  0  0  0  0  0
   -7.4056   -1.3056  -21.3139 N   0  0  0  0  0  0  0  0  0  0  0  0
   -6.6348   -0.7113  -20.2837 C   0  0  0  0  0  0  0  0  0  0  0  0
   -6.9591   -0.9584  -18.9740 C   0  0  0  0  0  0  0  0  0  0  0  0
   -6.2943   -0.4548  -17.9077 N   0  0  0  0  0  0  0  0  0  0  0  0
   -5.2370    0.2810  -18.1463 C   0  0  0  0  0  0  0  0  0  0  0  0
   -4.7590    0.5795  -19.4529 C   0  0  0  0  0  0  0  0  0  0  0  0
   -3.5978    1.3713  -19.6552 C   0  0  0  0  0  0  0  0  0  0  0  0
   -3.1485    1.6296  -20.9204 C   0  0  0  0  0  0  0  0  0  0  0  0
   -3.8336    1.1039  -22.0382 C   0  0  0  0  0  0  0  0  0  0  0  0
   -4.9620    0.3408  -21.8681 C   0  0  0  0  0  0  0  0  0  0  0  0
   -5.4655    0.0683  -20.5655 C   0  0  0  0  0  0  0  0  0  0  0  0
   -5.4789   -0.0581  -22.7356 H   0  0  0  0  0  0  0  0  0  0  0  0
   -3.4684    1.3129  -23.0391 H   0  0  0  0  0  0  0  0  0  0  0  0
   -2.2684    2.2483  -21.0743 H   0  0  0  0  0  0  0  0  0  0  0  0
   -3.0857    1.7713  -18.7844 H   0  0  0  0  0  0  0  0  0  0  0  0
   -4.6940    0.6700  -17.2837 H   0  0  0  0  0  0  0  0  0  0  0  0
   -7.8168   -1.5897  -18.7423 H   0  0  0  0  0  0  0  0  0  0  0  0
   -8.2281   -0.5961  -22.1617 C   0  0  0  0  0  0  0  0  0  0  0  0
   -8.4266    0.5962  -22.0761 O   0  0  0  0  0  0  0  0  0  0  0  0
   -8.7769   -1.5657  -23.2314 C   0  0  1  0  0  0  0  0  0  0  0  0
   -7.9740   -1.2715  -24.5259 C   0  0  0  0  0  0  0  0  0  0  0  0
   -8.5779   -1.7862  -25.7507 N   0  0  0  0  0  0  0  0  0  0  0  0
   -7.7333   -2.1465  -26.8799 C   0  0  0  0  0  0  0  0  0  0  0  0
   -7.6682   -3.6707  -27.0577 C   0  0  0  0  0  0  0  0  0  0  0  0
   -6.8539   -4.3510  -26.4589 O   0  0  0  0  0  0  0  0  0  0  0  0
   -8.5892   -4.1713  -27.9244 N   0  0  0  0  0  0  0  0  0  0  0  0
   -8.6028   -5.5768  -28.3079 C   0  0  0  0  0  0  0  0  0  0  0  0
   -7.4865   -5.9601  -29.1761 C   0  0  0  0  0  0  0  0  0  0  0  0
   -6.3936   -5.1470  -29.2674 F   0  0  0  0  0  0  0  0  0  0  0  0
   -7.4922   -6.8761  -30.1554 C   0  0  0  0  0  0  0  0  0  0  0  0
   -7.6354   -7.0564  -30.1239 C   0  0  0  0  0  0  0  0  0  0  0  0
   -6.3705   -7.5532  -30.3244 H   0  0  0  0  0  0  0  0  0  0  0  0
   -8.5986   -8.1856  -29.3858 H   0  0  0  0  0  0  0  0  0  0  0  0
   -6.4087   -6.6596  -30.7544 H   0  0  0  0  0  0  0  0  0  0  0  0
   -8.1436   -6.8988  -31.2893 H   0  0  0  0  0  0  0  0  0  0  0  0
   -8.5943   -6.1960  -27.3915 H   0  0  0  0  0  0  0  0  0  0  0  0
   -9.6104   -5.7684  -28.7518 H   0  0  0  0  0  0  0  0  0  0  0  0
   -9.3737   -3.5856  -28.1775 H   0  0  0  0  0  0  0  0  0  0  0  0
   -8.1312   -1.6719  -27.7814 H   0  0  0  0  0  0  0  0  0  0  0  0
   -6.7234   -1.7778  -26.6957 H   0  0  0  0  0  0  0  0  0  0  0  0
   -9.9180   -1.8153  -25.9703 C   0  0  0  0  0  0  0  0  0  0  0  0
  -10.3924   -2.1038  -27.0707 O   0  0  0  0  0  0  0  0  0  0  0  0
  -10.7785   -1.5292  -24.7949 C   0  0  0  0  0  0  0  0  0  0  0  0
  -12.1488   -1.5047  -25.0248 C   0  0  0  0  0  0  0  0  0  0  0  0
  -13.0291   -1.2587  -23.9948 C   0  0  0  0  0  0  0  0  0  0  0  0
  -12.4994   -1.0873  -22.7233 C   0  0  0  0  0  0  0  0  0  0  0  0
  -13.3682   -0.8923  -21.7224 F   0  0  0  0  0  0  0  0  0  0  0  0
  -11.1423   -1.1422  -22.4575 C   0  0  0  0  0  0  0  0  0  0  0  0
  -10.2499   -1.3647  -23.5116 C   0  0  0  0  0  0  0  0  0  0  0  0
  -10.7795   -1.0336  -21.4415 H   0  0  0  0  0  0  0  0  0  0  0  0
  -14.1028   -1.2125  -24.1349 H   0  0  0  0  0  0  0  0  0  0  0  0
  -12.4758   -1.7062  -26.0363 H   0  0  0  0  0  0  0  0  0  0  0  0
   -6.9772   -1.7201  -24.4456 H   0  0  0  0  0  0  0  0  0  0  0  0
   -7.8583   -0.1799  -24.5877 H   0  0  0  0  0  0  0  0  0  0  0  0
   -6.3464   -2.9598  -22.1019 H   0  0  0  0  0  0  0  0  0  0  0  0
   -7.3622   -3.2888  -20.6995 H   0  0  0  0  0  0  0  0  0  0  0  0
   -9.3735   -3.1607  -21.9365 H   0  0  0  0  0  0  0  0  0  0  0  0
   -9.1270   -4.2390  -24.1974 H   0  0  0  0  0  0  0  0  0  0  0  0
   -7.3798   -4.0232  -24.1075 H   0  0  0  0  0  0  0  0  0  0  0  0
   -8.2002   -5.0720  -22.9396 H   0  0  0  0  0  0  0  0  0  0  0  0
  1  2  1  0
  2  3  1  0
  3  4  1  0
  4  5  1  0
  5  6  2  0
  6  7  1  0
  7  8  2  0
  8  9  1  0
  9 10  2  0
 10 11  1  0
 11 12  2  0
 12 13  1  0
 13 14  2  0
 13 15  1  0
 12 16  1  0
 11 17  1  0
 10 18  1  0
  8 19  1  0
  6 20  1  0
  4 21  1  0
 21 22  2  0
 21 23  1  0
 23 24  1  6
 24 25  1  0
 25 26  1  0
 26 27  1  0
 27 28  2  0
 27 29  1  0
 29 30  1  0
 30 31  1  0
 31 32  1  0
 31 33  1  0
 33 34  1  0
 34 35  1  0
 34 36  1  0
 33 37  1  0
 33 38  1  0
 30 39  1  0
 30 40  1  0
 29 41  1  0
 26 42  1  0
 26 43  1  0
 25 44  1  0
 44 45  2  0
 44 46  1  0
 46 47  2  0
 47 48  1  0
 48 49  2  0
 49 50  1  0
 49 51  1  0
 51 52  2  0
 51 53  1  0
 48 54  1  0
 47 55  1  0
 24 56  1  0
 24 57  1  0
  3 58  1  0
  3 59  1  0
  2 60  1  1
  1 61  1  0
  1 62  1  0
  1 63  1  0
 23  2  1  0
 34 31  1  0
 52 46  1  0
 14  5  1  0
 52 23  1  0
 14  9  1  0
M  END
>  <cnnaffinities>  (82) 
[6.32664]

>  <score>  (82) 
6.32664

>  <index>  (82) 
84

>  <Smiles>  (82) 
C([C@]1(C(N(c2c(nc(c3c(c(c(c(c23)[H])[H])[H])[H])[H])[H])C(=O)[C@]21C(N(C(C(=O)N(C(C1(F)C(C1([H])[H])([H])[H])([H])[H])[H])([H])[H])C(=O)c1c(c(c(F)c(c21)[H])[H])[H])([H])[H])([H])[H])[H])([H])([H])[H]

>  <h>  (82) 
<NA>

>  <Training>  (82) 
True

>  <Success>  (82) 
True

>  <enamine_searched>  (82) 
False

>  <enamine_id>  (82) 
nan

$$$$

     RDKit          3D

 57 62  0  0  0  0  0  0  0  0999 V2000
   -9.2113   -8.4731  -23.7488 C   0  0  0  0  0  0  0  0  0  0  0  0
   -8.4833   -7.3452  -23.2373 N   0  0  0  0  0  0  0  0  0  0  0  0
   -7.2318   -7.2106  -23.7629 C   0  0  0  0  0  0  0  0  0  0  0  0
   -6.8501   -7.8742  -24.7037 O   0  0  0  0  0  0  0  0  0  0  0  0
   -6.3979   -6.0985  -23.1841 C   0  0  0  0  0  0  0  0  0  0  0  0
   -6.8128   -4.8527  -23.7768 N   0  0  0  0  0  0  0  0  0  0  0  0
   -8.0343   -4.2435  -23.2829 C   0  0  0  0  0  0  0  0  0  0  0  0
   -7.8634   -2.7225  -23.1589 C   0  0  2  0  0  0  0  0  0  0  0  0
   -6.8192   -2.4157  -22.0598 C   0  0  0  0  0  0  0  0  0  0  0  0
   -5.7139   -2.9045  -21.9414 O   0  0  0  0  0  0  0  0  0  0  0  0
   -7.3370   -1.4572  -21.2207 N   0  0  0  0  0  0  0  0  0  0  0  0
   -6.5658   -0.8530  -20.1980 C   0  0  0  0  0  0  0  0  0  0  0  0
   -6.9061   -1.0356  -18.8830 C   0  0  0  0  0  0  0  0  0  0  0  0
   -6.2317   -0.5011  -17.8380 N   0  0  0  0  0  0  0  0  0  0  0  0
   -5.1782    0.2296  -18.0995 C   0  0  0  0  0  0  0  0  0  0  0  0
   -4.7278    0.5231  -19.4153 C   0  0  0  0  0  0  0  0  0  0  0  0
   -3.6020    1.3569  -19.6442 C   0  0  0  0  0  0  0  0  0  0  0  0
   -3.2187    1.6653  -20.9184 C   0  0  0  0  0  0  0  0  0  0  0  0
   -3.9464    1.1560  -22.0202 C   0  0  0  0  0  0  0  0  0  0  0  0
   -5.0359    0.3449  -21.8277 C   0  0  0  0  0  0  0  0  0  0  0  0
   -5.4477   -0.0111  -20.5107 C   0  0  0  0  0  0  0  0  0  0  0  0
   -5.5954   -0.0274  -22.6878 H   0  0  0  0  0  0  0  0  0  0  0  0
   -3.6390    1.4143  -23.0291 H   0  0  0  0  0  0  0  0  0  0  0  0
   -2.3647    2.3138  -21.0958 H   0  0  0  0  0  0  0  0  0  0  0  0
   -3.0723    1.7595  -18.7831 H   0  0  0  0  0  0  0  0  0  0  0  0
   -4.6241    0.6280  -17.2469 H   0  0  0  0  0  0  0  0  0  0  0  0
   -7.7509   -1.6724  -18.6207 H   0  0  0  0  0  0  0  0  0  0  0  0
   -8.7143   -1.1163  -21.4952 C   0  0  0  0  0  0  0  0  0  0  0  0
   -9.1227   -1.9996  -22.6621 C   0  0  0  0  0  0  0  0  0  0  0  0
  -10.4860   -2.6444  -22.5966 C   0  0  0  0  0  0  0  0  0  0  0  0
  -10.2184   -1.5597  -23.5971 C   0  0  0  0  0  0  0  0  0  0  0  0
  -10.1240   -1.8443  -24.6396 H   0  0  0  0  0  0  0  0  0  0  0  0
  -10.6555   -0.5738  -23.4585 H   0  0  0  0  0  0  0  0  0  0  0  0
  -10.5969   -3.6665  -22.9429 H   0  0  0  0  0  0  0  0  0  0  0  0
  -11.1055   -2.4253  -21.7315 H   0  0  0  0  0  0  0  0  0  0  0  0
   -9.3373   -1.3395  -20.6365 H   0  0  0  0  0  0  0  0  0  0  0  0
   -8.8114   -0.0538  -21.7381 H   0  0  0  0  0  0  0  0  0  0  0  0
   -7.3178   -2.2191  -24.4907 C   0  0  0  0  0  0  0  0  0  0  0  0
   -7.4434   -0.8675  -24.8260 C   0  0  0  0  0  0  0  0  0  0  0  0
   -6.9103   -0.3971  -26.0122 C   0  0  0  0  0  0  0  0  0  0  0  0
   -7.0862    1.2869  -26.4211 Cl  0  0  0  0  0  0  0  0  0  0  0  0
   -6.2250   -1.2402  -26.8865 C   0  0  0  0  0  0  0  0  0  0  0  0
   -6.0540   -2.5667  -26.5406 C   0  0  0  0  0  0  0  0  0  0  0  0
   -6.5750   -3.0487  -25.3419 C   0  0  0  0  0  0  0  0  0  0  0  0
   -6.2371   -4.4519  -24.9491 C   0  0  0  0  0  0  0  0  0  0  0  0
   -5.4606   -5.1451  -25.5925 O   0  0  0  0  0  0  0  0  0  0  0  0
   -5.4967   -3.2603  -27.1657 H   0  0  0  0  0  0  0  0  0  0  0  0
   -5.8158   -0.8416  -27.8069 H   0  0  0  0  0  0  0  0  0  0  0  0
   -7.9684   -0.1811  -24.1690 H   0  0  0  0  0  0  0  0  0  0  0  0
   -8.2509   -4.6513  -22.2943 H   0  0  0  0  0  0  0  0  0  0  0  0
   -8.8802   -4.4622  -23.9532 H   0  0  0  0  0  0  0  0  0  0  0  0
   -5.3582   -6.2925  -23.4378 H   0  0  0  0  0  0  0  0  0  0  0  0
   -6.5197   -6.0322  -22.0983 H   0  0  0  0  0  0  0  0  0  0  0  0
   -8.6348   -7.0428  -22.2939 H   0  0  0  0  0  0  0  0  0  0  0  0
   -9.9731   -8.8650  -23.0685 H   0  0  0  0  0  0  0  0  0  0  0  0
   -9.6496   -8.2292  -24.7189 H   0  0  0  0  0  0  0  0  0  0  0  0
   -8.4706   -9.2095  -23.9396 H   0  0  0  0  0  0  0  0  0  0  0  0
  1  2  1  0
  2  3  1  0
  3  4  2  0
  3  5  1  0
  5  6  1  0
  6  7  1  0
  8  7  1  6
  8  9  1  0
  9 10  2  0
  9 11  1  0
 11 12  1  0
 12 13  2  0
 13 14  1  0
 14 15  2  0
 15 16  1  0
 16 17  2  0
 17 18  1  0
 18 19  2  0
 19 20  1  0
 20 21  2  0
 20 22  1  0
 19 23  1  0
 18 24  1  0
 17 25  1  0
 15 26  1  0
 13 27  1  0
 11 28  1  0
 28 29  1  0
 29 30  1  0
 30 31  1  0
 31 32  1  0
 31 33  1  0
 30 34  1  0
 30 35  1  0
 28 36  1  0
 28 37  1  0
  8 38  1  0
 38 39  2  0
 39 40  1  0
 40 41  1  0
 40 42  2  0
 42 43  1  0
 43 44  2  0
 44 45  1  0
 45 46  2  0
 43 47  1  0
 42 48  1  0
 39 49  1  0
  7 50  1  0
  7 51  1  0
  5 52  1  0
  5 53  1  0
  2 54  1  0
  1 55  1  0
  1 56  1  0
  1 57  1  0
 45  6  1  0
 29  8  1  0
 44 38  1  0
 21 12  1  0
 31 29  1  0
 21 16  1  0
M  END
>  <cnnaffinities>  (83) 
[6.13153]

>  <score>  (83) 
6.13153

>  <index>  (83) 
85

>  <Smiles>  (83) 
C(N(C(=O)C(N1C([C@@]2(C(=O)N(c3c(nc(c4c(c(c(c(c34)[H])[H])[H])[H])[H])[H])C(C32C(C3([H])[H])([H])[H])([H])[H])c2c(c(Cl)c(c(c2C1=O)[H])[H])[H])([H])[H])([H])[H])[H])([H])([H])[H]

>  <h>  (83) 
<NA>

>  <Training>  (83) 
True

>  <Success>  (83) 
True

>  <enamine_searched>  (83) 
False

>  <enamine_id>  (83) 
nan

$$$$

     RDKit          3D

 43 45  0  0  0  0  0  0  0  0999 V2000
   -8.5462   -5.5631  -25.7828 C   0  0  0  0  0  0  0  0  0  0  0  0
   -9.0619   -5.4481  -24.3461 C   0  0  1  0  0  0  0  0  0  0  0  0
   -8.0259   -5.8765  -23.3099 C   0  0  0  0  0  0  0  0  0  0  0  0
   -6.9370   -4.8322  -23.0941 C   0  0  0  0  0  0  0  0  0  0  0  0
   -7.5152   -3.5422  -22.7117 N   0  0  0  0  0  0  0  0  0  0  0  0
   -6.7562   -2.7468  -21.8651 C   0  0  0  0  0  0  0  0  0  0  0  0
   -5.6199   -3.0557  -21.5533 O   0  0  0  0  0  0  0  0  0  0  0  0
   -7.4132   -1.4758  -21.2726 C   0  0  0  0  0  0  0  0  0  0  0  0
   -6.5783   -0.8311  -20.1907 C   0  0  0  0  0  0  0  0  0  0  0  0
   -6.8757   -1.0393  -18.8716 C   0  0  0  0  0  0  0  0  0  0  0  0
   -6.1982   -0.5147  -17.8179 N   0  0  0  0  0  0  0  0  0  0  0  0
   -5.1557    0.2313  -18.0758 C   0  0  0  0  0  0  0  0  0  0  0  0
   -4.7160    0.5308  -19.3884 C   0  0  0  0  0  0  0  0  0  0  0  0
   -3.5884    1.3562  -19.6253 C   0  0  0  0  0  0  0  0  0  0  0  0
   -3.1881    1.6331  -20.9035 C   0  0  0  0  0  0  0  0  0  0  0  0
   -3.9010    1.0891  -21.9943 C   0  0  0  0  0  0  0  0  0  0  0  0
   -4.9972    0.2880  -21.7882 C   0  0  0  0  0  0  0  0  0  0  0  0
   -5.4432   -0.0131  -20.4779 C   0  0  0  0  0  0  0  0  0  0  0  0
   -5.5276   -0.1296  -22.6365 H   0  0  0  0  0  0  0  0  0  0  0  0
   -3.5780    1.3136  -23.0055 H   0  0  0  0  0  0  0  0  0  0  0  0
   -2.3296    2.2735  -21.0866 H   0  0  0  0  0  0  0  0  0  0  0  0
   -3.0576    1.7731  -18.7724 H   0  0  0  0  0  0  0  0  0  0  0  0
   -4.6038    0.6279  -17.2198 H   0  0  0  0  0  0  0  0  0  0  0  0
   -7.7176   -1.6675  -18.5853 H   0  0  0  0  0  0  0  0  0  0  0  0
   -7.6218   -0.7479  -22.0691 H   0  0  0  0  0  0  0  0  0  0  0  0
   -8.3923   -1.7511  -20.8545 H   0  0  0  0  0  0  0  0  0  0  0  0
   -8.5399   -2.9963  -23.6133 C   0  0  1  0  0  0  0  0  0  0  0  0
   -7.9410   -2.2906  -24.8404 C   0  0  0  0  0  0  0  0  0  0  0  0
   -8.7280   -1.9760  -25.5352 H   0  0  0  0  0  0  0  0  0  0  0  0
   -7.2484   -2.9312  -25.3935 H   0  0  0  0  0  0  0  0  0  0  0  0
   -7.3904   -1.3888  -24.5497 H   0  0  0  0  0  0  0  0  0  0  0  0
   -9.5907   -4.0638  -23.9669 C   0  0  0  0  0  0  0  0  0  0  0  0
  -10.2127   -3.6823  -24.7838 H   0  0  0  0  0  0  0  0  0  0  0  0
  -10.2623   -4.1723  -23.1086 H   0  0  0  0  0  0  0  0  0  0  0  0
   -9.0798   -2.2363  -23.0438 H   0  0  0  0  0  0  0  0  0  0  0  0
   -6.2996   -4.7546  -23.9883 H   0  0  0  0  0  0  0  0  0  0  0  0
   -6.2737   -5.1450  -22.2902 H   0  0  0  0  0  0  0  0  0  0  0  0
   -7.5746   -6.8275  -23.6122 H   0  0  0  0  0  0  0  0  0  0  0  0
   -8.5174   -6.0593  -22.3508 H   0  0  0  0  0  0  0  0  0  0  0  0
   -9.9136   -6.1375  -24.2799 H   0  0  0  0  0  0  0  0  0  0  0  0
   -7.5996   -5.0392  -25.9398 H   0  0  0  0  0  0  0  0  0  0  0  0
   -8.3802   -6.6140  -26.0494 H   0  0  0  0  0  0  0  0  0  0  0  0
   -9.2678   -5.1522  -26.4965 H   0  0  0  0  0  0  0  0  0  0  0  0
  1  2  1  0
  2  3  1  0
  3  4  1  0
  4  5  1  0
  5  6  1  0
  6  7  2  0
  6  8  1  0
  8  9  1  0
  9 10  2  0
 10 11  1  0
 11 12  2  0
 12 13  1  0
 13 14  2  0
 14 15  1  0
 15 16  2  0
 16 17  1  0
 17 18  2  0
 17 19  1  0
 16 20  1  0
 15 21  1  0
 14 22  1  0
 12 23  1  0
 10 24  1  0
  8 25  1  0
  8 26  1  0
  5 27  1  0
 27 28  1  0
 28 29  1  0
 28 30  1  0
 28 31  1  0
 27 32  1  0
 32 33  1  0
 32 34  1  0
 27 35  1  1
  4 36  1  0
  4 37  1  0
  3 38  1  0
  3 39  1  0
  2 40  1  6
  1 41  1  0
  1 42  1  0
  1 43  1  0
 32  2  1  0
 18  9  1  0
 18 13  1  0
M  END
>  <cnnaffinities>  (84) 
[5.05396, 4.74172]

>  <score>  (84) 
5.05396

>  <index>  (84) 
86

>  <Smiles>  (84) 
C([C@]1(C(C(N(C(=O)C(c2c(nc(c3c(c(c(c(c23)[H])[H])[H])[H])[H])[H])([H])[H])[C@@](C([H])([H])[H])(C1([H])[H])[H])([H])[H])([H])[H])[H])([H])([H])[H]

>  <h>  (84) 
<NA>

>  <Training>  (84) 
True

>  <Success>  (84) 
True

>  <enamine_searched>  (84) 
False

>  <enamine_id>  (84) 
nan

$$$$

     RDKit          3D

 59 64  0  0  0  0  0  0  0  0999 V2000
   -8.1706   -4.0975  -23.5559 C   0  0  0  0  0  0  0  0  0  0  0  0
   -8.4264   -2.9519  -22.5894 C   0  0  1  0  0  0  0  0  0  0  0  0
   -7.2971   -2.7434  -21.5758 C   0  0  0  0  0  0  0  0  0  0  0  0
   -7.3880   -1.3371  -21.2634 N   0  0  0  0  0  0  0  0  0  0  0  0
   -6.6056   -0.7629  -20.2440 C   0  0  0  0  0  0  0  0  0  0  0  0
   -6.9229   -1.0141  -18.9343 C   0  0  0  0  0  0  0  0  0  0  0  0
   -6.2611   -0.4979  -17.8766 N   0  0  0  0  0  0  0  0  0  0  0  0
   -5.2144    0.2483  -18.1304 C   0  0  0  0  0  0  0  0  0  0  0  0
   -4.7524    0.5444  -19.4438 C   0  0  0  0  0  0  0  0  0  0  0  0
   -3.6053    1.3497  -19.6531 C   0  0  0  0  0  0  0  0  0  0  0  0
   -3.1728    1.6208  -20.9222 C   0  0  0  0  0  0  0  0  0  0  0  0
   -3.8539    1.0867  -22.0380 C   0  0  0  0  0  0  0  0  0  0  0  0
   -4.9649    0.3004  -21.8616 C   0  0  0  0  0  0  0  0  0  0  0  0
   -5.4541    0.0251  -20.5495 C   0  0  0  0  0  0  0  0  0  0  0  0
   -5.4733   -0.1003  -22.7340 H   0  0  0  0  0  0  0  0  0  0  0  0
   -3.4961    1.3075  -23.0383 H   0  0  0  0  0  0  0  0  0  0  0  0
   -2.3064    2.2538  -21.0772 H   0  0  0  0  0  0  0  0  0  0  0  0
   -3.0953    1.7490  -18.7835 H   0  0  0  0  0  0  0  0  0  0  0  0
   -4.6633    0.6470  -17.2793 H   0  0  0  0  0  0  0  0  0  0  0  0
   -7.7762   -1.6523  -18.7074 H   0  0  0  0  0  0  0  0  0  0  0  0
   -8.1411   -0.5939  -22.1364 C   0  0  0  0  0  0  0  0  0  0  0  0
   -8.2981    0.6077  -22.0486 O   0  0  0  0  0  0  0  0  0  0  0  0
   -8.6760   -1.5342  -23.2312 C   0  0  1  0  0  0  0  0  0  0  0  0
   -7.8630   -1.1946  -24.5091 C   0  0  0  0  0  0  0  0  0  0  0  0
   -8.4229   -1.7496  -25.7331 N   0  0  0  0  0  0  0  0  0  0  0  0
   -7.5024   -2.2855  -26.7335 C   0  0  0  0  0  0  0  0  0  0  0  0
   -6.5396   -1.2629  -27.2652 C   0  0  0  0  0  0  0  0  0  0  0  0
   -5.2501   -0.8983  -26.9128 C   0  0  0  0  0  0  0  0  0  0  0  0
   -4.9723    0.2342  -27.7113 C   0  0  0  0  0  0  0  0  0  0  0  0
   -5.9924    0.5269  -28.5075 N   0  0  0  0  0  0  0  0  0  0  0  0
   -6.9260   -0.3965  -28.2396 N   0  0  0  0  0  0  0  0  0  0  0  0
   -8.2395   -0.2846  -28.8481 C   0  0  0  0  0  0  0  0  0  0  0  0
   -8.5057   -1.2045  -29.3827 H   0  0  0  0  0  0  0  0  0  0  0  0
   -8.1861    0.5646  -29.5309 H   0  0  0  0  0  0  0  0  0  0  0  0
   -8.9825   -0.1048  -28.0752 H   0  0  0  0  0  0  0  0  0  0  0  0
   -4.1232    0.9101  -27.6948 H   0  0  0  0  0  0  0  0  0  0  0  0
   -4.6048   -1.3472  -26.1628 H   0  0  0  0  0  0  0  0  0  0  0  0
   -6.9724   -3.1432  -26.3031 H   0  0  0  0  0  0  0  0  0  0  0  0
   -8.1334   -2.6704  -27.5350 H   0  0  0  0  0  0  0  0  0  0  0  0
   -9.7634   -1.7937  -25.9815 C   0  0  0  0  0  0  0  0  0  0  0  0
  -10.2349   -2.0898  -27.0747 O   0  0  0  0  0  0  0  0  0  0  0  0
  -10.6464   -1.4917  -24.8188 C   0  0  0  0  0  0  0  0  0  0  0  0
  -12.0156   -1.4360  -25.0581 C   0  0  0  0  0  0  0  0  0  0  0  0
  -12.9033   -1.1590  -24.0413 C   0  0  0  0  0  0  0  0  0  0  0  0
  -12.3919   -1.0163  -22.7600 C   0  0  0  0  0  0  0  0  0  0  0  0
  -13.2725   -0.8231  -21.7711 F   0  0  0  0  0  0  0  0  0  0  0  0
  -11.0387   -1.0838  -22.4810 C   0  0  0  0  0  0  0  0  0  0  0  0
  -10.1427   -1.3216  -23.5283 C   0  0  0  0  0  0  0  0  0  0  0  0
  -10.6682   -0.9400  -21.4715 H   0  0  0  0  0  0  0  0  0  0  0  0
  -13.9650   -1.0280  -24.2222 H   0  0  0  0  0  0  0  0  0  0  0  0
  -12.3504   -1.6242  -26.0667 H   0  0  0  0  0  0  0  0  0  0  0  0
   -6.8369   -1.5573  -24.4042 H   0  0  0  0  0  0  0  0  0  0  0  0
   -7.7984   -0.0978  -24.5706 H   0  0  0  0  0  0  0  0  0  0  0  0
   -7.4201   -3.3044  -20.6517 H   0  0  0  0  0  0  0  0  0  0  0  0
   -6.3109   -3.0086  -21.9879 H   0  0  0  0  0  0  0  0  0  0  0  0
   -9.3382   -3.1741  -22.0147 H   0  0  0  0  0  0  0  0  0  0  0  0
   -8.9795   -4.1778  -24.2872 H   0  0  0  0  0  0  0  0  0  0  0  0
   -8.0924   -5.0440  -23.0126 H   0  0  0  0  0  0  0  0  0  0  0  0
   -7.2307   -3.9407  -24.0954 H   0  0  0  0  0  0  0  0  0  0  0  0
  1  2  1  0
  2  3  1  0
  3  4  1  0
  4  5  1  0
  5  6  2  0
  6  7  1  0
  7  8  2  0
  8  9  1  0
  9 10  2  0
 10 11  1  0
 11 12  2  0
 12 13  1  0
 13 14  2  0
 13 15  1  0
 12 16  1  0
 11 17  1  0
 10 18  1  0
  8 19  1  0
  6 20  1  0
  4 21  1  0
 21 22  2  0
 21 23  1  0
 23 24  1  6
 24 25  1  0
 25 26  1  0
 26 27  1  0
 27 28  2  0
 28 29  1  0
 29 30  2  0
 30 31  1  0
 31 32  1  0
 32 33  1  0
 32 34  1  0
 32 35  1  0
 29 36  1  0
 28 37  1  0
 26 38  1  0
 26 39  1  0
 25 40  1  0
 40 41  2  0
 40 42  1  0
 42 43  2  0
 43 44  1  0
 44 45  2  0
 45 46  1  0
 45 47  1  0
 47 48  2  0
 47 49  1  0
 44 50  1  0
 43 51  1  0
 24 52  1  0
 24 53  1  0
  3 54  1  0
  3 55  1  0
  2 56  1  1
  1 57  1  0
  1 58  1  0
  1 59  1  0
 23  2  1  0
 31 27  1  0
 48 42  1  0
 14  5  1  0
 48 23  1  0
 14  9  1  0
M  END
>  <cnnaffinities>  (85) 
[6.29978, 6.30427, 6.21307]

>  <score>  (85) 
6.29978

>  <index>  (85) 
87

>  <Smiles>  (85) 
C([C@]1(C(N(c2c(nc(c3c(c(c(c(c23)[H])[H])[H])[H])[H])[H])C(=O)[C@]21C(N(C(c1c(c(nn1C([H])([H])[H])[H])[H])([H])[H])C(=O)c1c(c(c(F)c(c21)[H])[H])[H])([H])[H])([H])[H])[H])([H])([H])[H]

>  <h>  (85) 
<NA>

>  <Training>  (85) 
True

>  <Success>  (85) 
True

>  <enamine_searched>  (85) 
False

>  <enamine_id>  (85) 
nan

$$$$

     RDKit          3D

 40 42  0  0  0  0  0  0  0  0999 V2000
   -8.4690    0.7567  -21.5555 O   0  0  0  0  0  0  0  0  0  0  0  0
   -8.5718   -0.4397  -21.7665 C   0  0  0  0  0  0  0  0  0  0  0  0
   -7.4897   -1.4135  -21.2833 C   0  0  0  0  0  0  0  0  0  0  0  0
   -6.6123   -0.8165  -20.2108 C   0  0  0  0  0  0  0  0  0  0  0  0
   -6.9210   -1.0114  -18.8902 C   0  0  0  0  0  0  0  0  0  0  0  0
   -6.2508   -0.4821  -17.8337 N   0  0  0  0  0  0  0  0  0  0  0  0
   -5.1938    0.2454  -18.0978 C   0  0  0  0  0  0  0  0  0  0  0  0
   -4.7467    0.5299  -19.4132 C   0  0  0  0  0  0  0  0  0  0  0  0
   -3.6098    1.3462  -19.6424 C   0  0  0  0  0  0  0  0  0  0  0  0
   -3.2170    1.6424  -20.9197 C   0  0  0  0  0  0  0  0  0  0  0  0
   -3.9412    1.1272  -22.0181 C   0  0  0  0  0  0  0  0  0  0  0  0
   -5.0460    0.3311  -21.8176 C   0  0  0  0  0  0  0  0  0  0  0  0
   -5.4792    0.0047  -20.5049 C   0  0  0  0  0  0  0  0  0  0  0  0
   -5.6127   -0.0329  -22.6685 H   0  0  0  0  0  0  0  0  0  0  0  0
   -3.6265    1.3760  -23.0289 H   0  0  0  0  0  0  0  0  0  0  0  0
   -2.3628    2.2925  -21.0935 H   0  0  0  0  0  0  0  0  0  0  0  0
   -3.0826    1.7456  -18.7792 H   0  0  0  0  0  0  0  0  0  0  0  0
   -4.6300    0.6526  -17.2554 H   0  0  0  0  0  0  0  0  0  0  0  0
   -7.7647   -1.6467  -18.6114 H   0  0  0  0  0  0  0  0  0  0  0  0
   -6.9050   -1.7584  -22.1471 H   0  0  0  0  0  0  0  0  0  0  0  0
   -7.9944   -2.2985  -20.8769 H   0  0  0  0  0  0  0  0  0  0  0  0
   -9.6618   -0.9719  -22.4047 N   0  0  0  0  0  0  0  0  0  0  0  0
  -10.7693   -0.0722  -22.7058 C   0  0  0  0  0  0  0  0  0  0  0  0
  -12.0754   -0.8368  -22.6535 C   0  0  0  0  0  0  0  0  0  0  0  0
  -12.1623   -1.8751  -23.7767 C   0  0  0  0  0  0  0  0  0  0  0  0
  -13.1583   -2.9384  -23.3572 C   0  0  0  0  0  0  0  0  0  0  0  0
  -12.7078   -3.5434  -22.2138 F   0  0  0  0  0  0  0  0  0  0  0  0
  -14.3654   -2.3695  -23.0645 F   0  0  0  0  0  0  0  0  0  0  0  0
  -13.3326   -3.7334  -24.0886 H   0  0  0  0  0  0  0  0  0  0  0  0
  -10.7628   -2.4635  -24.0385 C   0  0  0  0  0  0  0  0  0  0  0  0
   -9.8390   -2.3647  -22.8180 C   0  0  0  0  0  0  0  0  0  0  0  0
   -8.8648   -2.7865  -23.0782 H   0  0  0  0  0  0  0  0  0  0  0  0
  -10.2490   -2.9583  -21.9946 H   0  0  0  0  0  0  0  0  0  0  0  0
  -10.8381   -3.5055  -24.3692 H   0  0  0  0  0  0  0  0  0  0  0  0
  -10.2908   -1.9094  -24.8561 H   0  0  0  0  0  0  0  0  0  0  0  0
  -12.5580   -1.4248  -24.6960 H   0  0  0  0  0  0  0  0  0  0  0  0
  -12.0826   -1.3883  -21.7176 H   0  0  0  0  0  0  0  0  0  0  0  0
  -12.9571   -0.1945  -22.6569 H   0  0  0  0  0  0  0  0  0  0  0  0
  -10.7342    0.7368  -21.9787 H   0  0  0  0  0  0  0  0  0  0  0  0
  -10.6244    0.3649  -23.6994 H   0  0  0  0  0  0  0  0  0  0  0  0
  1  2  2  0
  2  3  1  0
  3  4  1  0
  4  5  2  0
  5  6  1  0
  6  7  2  0
  7  8  1  0
  8  9  2  0
  9 10  1  0
 10 11  2  0
 11 12  1  0
 12 13  2  0
 12 14  1  0
 11 15  1  0
 10 16  1  0
  9 17  1  0
  7 18  1  0
  5 19  1  0
  3 20  1  0
  3 21  1  0
  2 22  1  0
 22 23  1  0
 23 24  1  0
 24 25  1  0
 25 26  1  0
 26 27  1  0
 26 28  1  0
 26 29  1  0
 25 30  1  0
 30 31  1  0
 31 32  1  0
 31 33  1  0
 30 34  1  0
 30 35  1  0
 25 36  1  0
 24 37  1  0
 24 38  1  0
 23 39  1  0
 23 40  1  0
 13  4  1  0
 31 22  1  0
 13  8  1  0
M  END
>  <cnnaffinities>  (86) 
[5.27269, 4.93477, 4.93768, 4.92068, 4.80336, 4.80342, 5.03107, 5.03092]

>  <score>  (86) 
5.27269

>  <index>  (86) 
88

>  <Smiles>  (86) 
O=C(C(c1c(nc(c2c(c(c(c(c12)[H])[H])[H])[H])[H])[H])([H])[H])N1C(C(C(C(F)(F)[H])(C(C1([H])[H])([H])[H])[H])([H])[H])([H])[H]

>  <h>  (86) 
<NA>

>  <Training>  (86) 
True

>  <Success>  (86) 
True

>  <enamine_searched>  (86) 
False

>  <enamine_id>  (86) 
nan

$$$$

     RDKit          3D

 43 45  0  0  0  0  0  0  0  0999 V2000
   -9.7539   -4.1866  -25.8455 C   0  0  0  0  0  0  0  0  0  0  0  0
   -8.2273   -4.2037  -25.7060 C   0  0  0  0  0  0  0  0  0  0  0  0
   -7.6342   -4.8421  -26.9675 C   0  0  0  0  0  0  0  0  0  0  0  0
   -8.0335   -5.8503  -27.1258 H   0  0  0  0  0  0  0  0  0  0  0  0
   -7.8641   -4.2554  -27.8637 H   0  0  0  0  0  0  0  0  0  0  0  0
   -6.5444   -4.9312  -26.9022 H   0  0  0  0  0  0  0  0  0  0  0  0
   -7.6877   -2.7683  -25.5707 C   0  0  0  0  0  0  0  0  0  0  0  0
   -7.7331   -2.2027  -24.1510 C   0  0  0  0  0  0  0  0  0  0  0  0
   -7.0466   -3.0690  -23.1997 N   0  0  0  0  0  0  0  0  0  0  0  0
   -6.6941   -2.6858  -21.9291 C   0  0  0  0  0  0  0  0  0  0  0  0
   -5.8695   -3.3152  -21.2820 O   0  0  0  0  0  0  0  0  0  0  0  0
   -7.3945   -1.4622  -21.2895 C   0  0  0  0  0  0  0  0  0  0  0  0
   -6.5750   -0.8294  -20.1883 C   0  0  0  0  0  0  0  0  0  0  0  0
   -6.8729   -1.0419  -18.8691 C   0  0  0  0  0  0  0  0  0  0  0  0
   -6.1957   -0.5146  -17.8136 N   0  0  0  0  0  0  0  0  0  0  0  0
   -5.1553    0.2308  -18.0721 C   0  0  0  0  0  0  0  0  0  0  0  0
   -4.7153    0.5340  -19.3849 C   0  0  0  0  0  0  0  0  0  0  0  0
   -3.5888    1.3587  -19.6259 C   0  0  0  0  0  0  0  0  0  0  0  0
   -3.1913    1.6378  -20.9021 C   0  0  0  0  0  0  0  0  0  0  0  0
   -3.9080    1.0958  -21.9946 C   0  0  0  0  0  0  0  0  0  0  0  0
   -5.0023    0.2971  -21.7864 C   0  0  0  0  0  0  0  0  0  0  0  0
   -5.4450   -0.0071  -20.4756 C   0  0  0  0  0  0  0  0  0  0  0  0
   -5.5377   -0.1096  -22.6403 H   0  0  0  0  0  0  0  0  0  0  0  0
   -3.5875    1.3235  -23.0055 H   0  0  0  0  0  0  0  0  0  0  0  0
   -2.3330    2.2773  -21.0887 H   0  0  0  0  0  0  0  0  0  0  0  0
   -3.0539    1.7743  -18.7735 H   0  0  0  0  0  0  0  0  0  0  0  0
   -4.6006    0.6287  -17.2170 H   0  0  0  0  0  0  0  0  0  0  0  0
   -7.7179   -1.6694  -18.5866 H   0  0  0  0  0  0  0  0  0  0  0  0
   -8.3327   -1.8269  -20.8471 H   0  0  0  0  0  0  0  0  0  0  0  0
   -7.6871   -0.7026  -22.0244 H   0  0  0  0  0  0  0  0  0  0  0  0
   -6.6852   -4.4078  -23.6631 C   0  0  0  0  0  0  0  0  0  0  0  0
   -7.8331   -5.0230  -24.4569 C   0  0  0  0  0  0  0  0  0  0  0  0
   -7.5788   -6.0461  -24.7499 H   0  0  0  0  0  0  0  0  0  0  0  0
   -8.6881   -5.1207  -23.7801 H   0  0  0  0  0  0  0  0  0  0  0  0
   -6.4509   -5.0168  -22.7929 H   0  0  0  0  0  0  0  0  0  0  0  0
   -5.7714   -4.3815  -24.2692 H   0  0  0  0  0  0  0  0  0  0  0  0
   -8.7720   -2.0376  -23.8461 H   0  0  0  0  0  0  0  0  0  0  0  0
   -7.2555   -1.2165  -24.1664 H   0  0  0  0  0  0  0  0  0  0  0  0
   -8.2546   -2.1093  -26.2343 H   0  0  0  0  0  0  0  0  0  0  0  0
   -6.6581   -2.7143  -25.9419 H   0  0  0  0  0  0  0  0  0  0  0  0
  -10.2343   -3.6983  -24.9919 H   0  0  0  0  0  0  0  0  0  0  0  0
  -10.1577   -5.2026  -25.9153 H   0  0  0  0  0  0  0  0  0  0  0  0
  -10.0657   -3.6495  -26.7478 H   0  0  0  0  0  0  0  0  0  0  0  0
  1  2  1  0
  2  3  1  0
  3  4  1  0
  3  5  1  0
  3  6  1  0
  2  7  1  0
  7  8  1  0
  8  9  1  0
  9 10  1  0
 10 11  2  0
 10 12  1  0
 12 13  1  0
 13 14  2  0
 14 15  1  0
 15 16  2  0
 16 17  1  0
 17 18  2  0
 18 19  1  0
 19 20  2  0
 20 21  1  0
 21 22  2  0
 21 23  1  0
 20 24  1  0
 19 25  1  0
 18 26  1  0
 16 27  1  0
 14 28  1  0
 12 29  1  0
 12 30  1  0
  9 31  1  0
 31 32  1  0
 32 33  1  0
 32 34  1  0
 31 35  1  0
 31 36  1  0
  8 37  1  0
  8 38  1  0
  7 39  1  0
  7 40  1  0
  1 41  1  0
  1 42  1  0
  1 43  1  0
 32  2  1  0
 22 13  1  0
 22 17  1  0
M  END
>  <cnnaffinities>  (87) 
[5.13408, 4.82224, 5.10109, 5.10108, 5.10109, 4.53557, 4.53917, 4.80591, 4.8059, 4.80581]

>  <score>  (87) 
5.13408

>  <index>  (87) 
89

>  <Smiles>  (87) 
C(C1(C([H])([H])[H])C(C(N(C(=O)C(c2c(nc(c3c(c(c(c(c23)[H])[H])[H])[H])[H])[H])([H])[H])C(C1([H])[H])([H])[H])([H])[H])([H])[H])([H])([H])[H]

>  <h>  (87) 
<NA>

>  <Training>  (87) 
True

>  <Success>  (87) 
True

>  <enamine_searched>  (87) 
False

>  <enamine_id>  (87) 
nan

$$$$

     RDKit          3D

 64 68  0  0  0  0  0  0  0  0999 V2000
   -7.7942   -4.2060  -27.6677 C   0  0  0  0  0  0  0  0  0  0  0  0
   -8.5733   -3.2029  -26.9648 N   0  0  0  0  0  0  0  0  0  0  0  0
   -9.8588   -3.4838  -26.6087 C   0  0  0  0  0  0  0  0  0  0  0  0
  -10.3890   -4.5342  -26.9260 O   0  0  0  0  0  0  0  0  0  0  0  0
  -10.5606   -2.4111  -25.7604 C   0  0  0  0  0  0  0  0  0  0  0  0
  -10.3767   -2.6190  -24.3239 N   0  0  0  0  0  0  0  0  0  0  0  0
   -9.5272   -1.6812  -23.5769 C   0  0  0  0  0  0  0  0  0  0  0  0
   -8.9062   -2.2462  -22.2781 C   0  0  2  0  0  0  0  0  0  0  0  0
   -8.2995   -1.1189  -21.4375 C   0  0  0  0  0  0  0  0  0  0  0  0
   -8.9267   -0.1954  -20.9478 O   0  0  0  0  0  0  0  0  0  0  0  0
   -6.9658   -1.3655  -21.2427 N   0  0  0  0  0  0  0  0  0  0  0  0
   -6.2979   -0.7117  -20.1830 C   0  0  0  0  0  0  0  0  0  0  0  0
   -6.7241   -0.8497  -18.8858 C   0  0  0  0  0  0  0  0  0  0  0  0
   -6.0845   -0.3081  -17.8212 N   0  0  0  0  0  0  0  0  0  0  0  0
   -5.0100    0.4062  -18.0551 C   0  0  0  0  0  0  0  0  0  0  0  0
   -4.4994    0.6753  -19.3572 C   0  0  0  0  0  0  0  0  0  0  0  0
   -3.3653    1.4983  -19.5863 C   0  0  0  0  0  0  0  0  0  0  0  0
   -2.9772    1.7970  -20.8637 C   0  0  0  0  0  0  0  0  0  0  0  0
   -3.6966    1.2936  -21.9710 C   0  0  0  0  0  0  0  0  0  0  0  0
   -4.7813    0.4767  -21.7749 C   0  0  0  0  0  0  0  0  0  0  0  0
   -5.1856    0.1308  -20.4616 C   0  0  0  0  0  0  0  0  0  0  0  0
   -5.3612    0.1106  -22.6169 H   0  0  0  0  0  0  0  0  0  0  0  0
   -3.4012    1.5640  -22.9800 H   0  0  0  0  0  0  0  0  0  0  0  0
   -2.1239    2.4449  -21.0381 H   0  0  0  0  0  0  0  0  0  0  0  0
   -2.8356    1.9023  -18.7280 H   0  0  0  0  0  0  0  0  0  0  0  0
   -4.5002    0.8287  -17.1888 H   0  0  0  0  0  0  0  0  0  0  0  0
   -7.6187   -1.4273  -18.6570 H   0  0  0  0  0  0  0  0  0  0  0  0
   -6.4675   -2.4637  -22.0575 C   0  0  0  0  0  0  0  0  0  0  0  0
   -7.7411   -3.2719  -22.4220 C   0  0  2  0  0  0  0  0  0  0  0  0
   -7.6352   -3.9813  -23.7851 C   0  0  0  0  0  0  0  0  0  0  0  0
   -6.4650   -5.3371  -23.8534 S   0  0  0  0  0  0  0  0  0  0  0  0
   -6.5909   -5.9616  -25.1607 O   0  0  0  0  0  0  0  0  0  0  0  0
   -5.1829   -4.8727  -23.3501 O   0  0  0  0  0  0  0  0  0  0  0  0
   -7.0511   -6.4243  -22.7553 N   0  0  0  0  0  0  0  0  0  0  0  0
   -8.3547   -7.0096  -23.0385 C   0  0  0  0  0  0  0  0  0  0  0  0
   -8.2997   -7.5810  -23.9644 H   0  0  0  0  0  0  0  0  0  0  0  0
   -9.1574   -6.2666  -23.1366 H   0  0  0  0  0  0  0  0  0  0  0  0
   -8.6011   -7.6762  -22.2169 H   0  0  0  0  0  0  0  0  0  0  0  0
   -6.8848   -6.1004  -21.8094 H   0  0  0  0  0  0  0  0  0  0  0  0
   -7.3182   -3.3056  -24.5864 H   0  0  0  0  0  0  0  0  0  0  0  0
   -8.5904   -4.4118  -24.0972 H   0  0  0  0  0  0  0  0  0  0  0  0
   -7.8903   -4.0344  -21.6461 H   0  0  0  0  0  0  0  0  0  0  0  0
   -5.9991   -2.0864  -22.9749 H   0  0  0  0  0  0  0  0  0  0  0  0
   -5.7185   -3.0494  -21.5218 H   0  0  0  0  0  0  0  0  0  0  0  0
  -10.0849   -2.6799  -21.4125 C   0  0  0  0  0  0  0  0  0  0  0  0
  -10.4463   -3.9645  -21.3702 C   0  0  0  0  0  0  0  0  0  0  0  0
  -13.2706   -4.2513  -20.5639 C   0  0  0  0  0  0  0  0  0  0  0  0
  -13.1207   -4.9886  -19.4603 F   0  0  0  0  0  0  0  0  0  0  0  0
  -13.2948   -4.1801  -20.6148 C   0  0  0  0  0  0  0  0  0  0  0  0
  -12.7689   -3.7034  -21.7666 C   0  0  0  0  0  0  0  0  0  0  0  0
  -11.3366   -3.5250  -22.2388 C   0  0  0  0  0  0  0  0  0  0  0  0
  -11.3176   -3.4410  -23.7228 C   0  0  0  0  0  0  0  0  0  0  0  0
  -12.1368   -4.0589  -24.3744 O   0  0  0  0  0  0  0  0  0  0  0  0
  -13.5640   -3.3624  -22.3262 H   0  0  0  0  0  0  0  0  0  0  0  0
  -14.5542   -4.4388  -20.7401 H   0  0  0  0  0  0  0  0  0  0  0  0
  -10.4356   -1.8529  -20.7624 H   0  0  0  0  0  0  0  0  0  0  0  0
  -10.1060   -0.7972  -23.2848 H   0  0  0  0  0  0  0  0  0  0  0  0
   -8.7297   -1.3419  -24.2394 H   0  0  0  0  0  0  0  0  0  0  0  0
  -11.6297   -2.4763  -25.9812 H   0  0  0  0  0  0  0  0  0  0  0  0
  -10.1995   -1.4112  -26.0310 H   0  0  0  0  0  0  0  0  0  0  0  0
   -8.2082   -2.2714  -26.8503 H   0  0  0  0  0  0  0  0  0  0  0  0
   -6.7760   -3.8369  -27.8012 H   0  0  0  0  0  0  0  0  0  0  0  0
   -8.2283   -4.4408  -28.6456 H   0  0  0  0  0  0  0  0  0  0  0  0
   -7.7676   -5.1217  -27.0693 H   0  0  0  0  0  0  0  0  0  0  0  0
  1  2  1  0
  2  3  1  0
  3  4  2  0
  3  5  1  0
  5  6  1  0
  6  7  1  0
  8  7  1  6
  8  9  1  0
  9 10  2  0
  9 11  1  0
 11 12  1  0
 12 13  2  0
 13 14  1  0
 14 15  2  0
 15 16  1  0
 16 17  2  0
 17 18  1  0
 18 19  2  0
 19 20  1  0
 20 21  2  0
 20 22  1  0
 19 23  1  0
 18 24  1  0
 17 25  1  0
 15 26  1  0
 13 27  1  0
 11 28  1  0
 28 29  1  0
 29 30  1  0
 30 31  1  0
 31 32  2  0
 31 33  2  0
 31 34  1  0
 34 35  1  0
 35 36  1  0
 35 37  1  0
 35 38  1  0
 34 39  1  0
 30 40  1  0
 30 41  1  0
 29 42  1  1
 28 43  1  0
 28 44  1  0
  8 45  1  0
 45 46  2  0
 46 47  1  0
 47 48  1  0
 47 49  2  0
 49 50  1  0
 50 51  2  0
 51 52  1  0
 52 53  2  0
 50 54  1  0
 49 55  1  0
 46 56  1  0
  7 57  1  0
  7 58  1  0
  5 59  1  0
  5 60  1  0
  2 61  1  0
  1 62  1  0
  1 63  1  0
  1 64  1  0
 52  6  1  0
 29  8  1  0
 51 45  1  0
 21 12  1  0
 21 16  1  0
M  END
>  <cnnaffinities>  (88) 
[6.57841]

>  <score>  (88) 
6.57841

>  <index>  (88) 
90

>  <Smiles>  (88) 
C(N(C(=O)C(N1C([C@@]2(C(=O)N(c3c(nc(c4c(c(c(c(c34)[H])[H])[H])[H])[H])[H])C([C@@]2(C(S(=O)(=O)N(C([H])([H])[H])[H])([H])[H])[H])([H])[H])c2c(c(F)c(c(c2C1=O)[H])[H])[H])([H])[H])([H])[H])[H])([H])([H])[H]

>  <h>  (88) 
<NA>

>  <Training>  (88) 
True

>  <Success>  (88) 
True

>  <enamine_searched>  (88) 
False

>  <enamine_id>  (88) 
nan

$$$$

     RDKit          3D

 66 71  0  0  0  0  0  0  0  0999 V2000
   -7.4775    3.2629  -21.7471 C   0  0  0  0  0  0  0  0  0  0  0  0
   -8.5410    2.7946  -22.6184 N   0  0  0  0  0  0  0  0  0  0  0  0
   -8.1833    2.0097  -23.6702 C   0  0  0  0  0  0  0  0  0  0  0  0
   -7.0218    1.7227  -23.9218 O   0  0  0  0  0  0  0  0  0  0  0  0
   -9.3319    1.5172  -24.5376 C   0  0  0  0  0  0  0  0  0  0  0  0
   -9.9062    0.3152  -23.9754 N   0  0  0  0  0  0  0  0  0  0  0  0
   -9.1240   -0.9058  -23.9998 C   0  0  0  0  0  0  0  0  0  0  0  0
   -9.2882   -1.6962  -22.6738 C   0  0  2  0  0  0  0  0  0  0  0  0
   -8.6649   -0.8566  -21.5283 C   0  0  0  0  0  0  0  0  0  0  0  0
   -9.1490    0.1284  -21.0082 O   0  0  0  0  0  0  0  0  0  0  0  0
   -7.4333   -1.3924  -21.2148 N   0  0  0  0  0  0  0  0  0  0  0  0
   -6.6191   -0.8163  -20.2035 C   0  0  0  0  0  0  0  0  0  0  0  0
   -6.9409   -1.0162  -18.8840 C   0  0  0  0  0  0  0  0  0  0  0  0
   -6.2466   -0.5031  -17.8434 N   0  0  0  0  0  0  0  0  0  0  0  0
   -5.1920    0.2249  -18.1091 C   0  0  0  0  0  0  0  0  0  0  0  0
   -4.7458    0.5198  -19.4254 C   0  0  0  0  0  0  0  0  0  0  0  0
   -3.6193    1.3526  -19.6578 C   0  0  0  0  0  0  0  0  0  0  0  0
   -3.2348    1.6560  -20.9336 C   0  0  0  0  0  0  0  0  0  0  0  0
   -3.9549    1.1379  -22.0307 C   0  0  0  0  0  0  0  0  0  0  0  0
   -5.0512    0.3284  -21.8321 C   0  0  0  0  0  0  0  0  0  0  0  0
   -5.4765   -0.0103  -20.5188 C   0  0  0  0  0  0  0  0  0  0  0  0
   -5.6199   -0.0091  -22.6923 H   0  0  0  0  0  0  0  0  0  0  0  0
   -3.6467    1.3909  -23.0408 H   0  0  0  0  0  0  0  0  0  0  0  0
   -2.3821    2.3048  -21.1086 H   0  0  0  0  0  0  0  0  0  0  0  0
   -3.0881    1.7523  -18.7979 H   0  0  0  0  0  0  0  0  0  0  0  0
   -4.6256    0.6245  -17.2649 H   0  0  0  0  0  0  0  0  0  0  0  0
   -7.8023   -1.6278  -18.6273 H   0  0  0  0  0  0  0  0  0  0  0  0
   -7.0997   -2.5802  -21.9844 C   0  0  0  0  0  0  0  0  0  0  0  0
   -8.4349   -2.9886  -22.6296 C   0  0  2  0  0  0  0  0  0  0  0  0
   -8.2422   -3.7561  -23.9387 C   0  0  0  0  0  0  0  0  0  0  0  0
   -9.4898   -4.2265  -24.4860 N   0  0  0  0  0  0  0  0  0  0  0  0
   -9.5879   -4.8856  -25.6804 C   0  0  0  0  0  0  0  0  0  0  0  0
   -8.4578   -5.2095  -26.4767 C   0  0  0  0  0  0  0  0  0  0  0  0
   -8.5704   -5.8384  -27.6365 N   0  0  0  0  0  0  0  0  0  0  0  0
   -9.8063   -6.1689  -28.0263 C   0  0  0  0  0  0  0  0  0  0  0  0
  -10.9108   -5.8592  -27.2461 C   0  0  0  0  0  0  0  0  0  0  0  0
  -10.8164   -5.2216  -26.0803 N   0  0  0  0  0  0  0  0  0  0  0  0
  -11.9180   -6.1264  -27.5629 H   0  0  0  0  0  0  0  0  0  0  0  0
   -9.9130   -6.6884  -28.9749 H   0  0  0  0  0  0  0  0  0  0  0  0
   -7.4486   -4.9505  -26.1625 H   0  0  0  0  0  0  0  0  0  0  0  0
  -10.3713   -4.0256  -24.0294 H   0  0  0  0  0  0  0  0  0  0  0  0
   -7.5884   -4.6164  -23.7493 H   0  0  0  0  0  0  0  0  0  0  0  0
   -7.7223   -3.1236  -24.6757 H   0  0  0  0  0  0  0  0  0  0  0  0
   -8.9329   -3.6671  -21.9323 H   0  0  0  0  0  0  0  0  0  0  0  0
   -6.3332   -2.3635  -22.7437 H   0  0  0  0  0  0  0  0  0  0  0  0
   -6.7149   -3.3691  -21.3327 H   0  0  0  0  0  0  0  0  0  0  0  0
  -10.7771   -1.9030  -22.4446 C   0  0  0  0  0  0  0  0  0  0  0  0
  -11.2902   -2.9720  -21.6997 C   0  0  0  0  0  0  0  0  0  0  0  0
  -12.6432   -3.0357  -21.4197 C   0  0  0  0  0  0  0  0  0  0  0  0
  -13.2470   -4.2270  -20.3185 Cl  0  0  0  0  0  0  0  0  0  0  0  0
  -13.5421   -2.0918  -21.8982 C   0  0  0  0  0  0  0  0  0  0  0  0
  -13.0521   -1.0430  -22.6456 C   0  0  0  0  0  0  0  0  0  0  0  0
  -11.6809   -0.9180  -22.8705 C   0  0  0  0  0  0  0  0  0  0  0  0
  -11.1766    0.3518  -23.4846 C   0  0  0  0  0  0  0  0  0  0  0  0
  -11.8638    1.3670  -23.5188 O   0  0  0  0  0  0  0  0  0  0  0  0
  -13.7230   -0.2798  -23.0213 H   0  0  0  0  0  0  0  0  0  0  0  0
  -14.5808   -2.1580  -21.5968 H   0  0  0  0  0  0  0  0  0  0  0  0
  -10.6621   -3.7260  -21.2407 H   0  0  0  0  0  0  0  0  0  0  0  0
   -8.0777   -0.6247  -24.1595 H   0  0  0  0  0  0  0  0  0  0  0  0
   -9.4572   -1.5256  -24.8415 H   0  0  0  0  0  0  0  0  0  0  0  0
  -10.1126    2.2762  -24.5392 H   0  0  0  0  0  0  0  0  0  0  0  0
   -8.9381    1.3385  -25.5496 H   0  0  0  0  0  0  0  0  0  0  0  0
   -9.4818    2.7546  -22.2403 H   0  0  0  0  0  0  0  0  0  0  0  0
   -7.9020    3.7558  -20.8706 H   0  0  0  0  0  0  0  0  0  0  0  0
   -6.8452    2.4141  -21.4494 H   0  0  0  0  0  0  0  0  0  0  0  0
   -6.8523    3.9875  -22.2762 H   0  0  0  0  0  0  0  0  0  0  0  0
  1  2  1  0
  2  3  1  0
  3  4  2  0
  3  5  1  0
  5  6  1  0
  6  7  1  0
  8  7  1  6
  8  9  1  0
  9 10  2  0
  9 11  1  0
 11 12  1  0
 12 13  2  0
 13 14  1  0
 14 15  2  0
 15 16  1  0
 16 17  2  0
 17 18  1  0
 18 19  2  0
 19 20  1  0
 20 21  2  0
 20 22  1  0
 19 23  1  0
 18 24  1  0
 17 25  1  0
 15 26  1  0
 13 27  1  0
 11 28  1  0
 28 29  1  0
 29 30  1  0
 30 31  1  0
 31 32  1  0
 32 33  2  0
 33 34  1  0
 34 35  2  0
 35 36  1  0
 36 37  2  0
 36 38  1  0
 35 39  1  0
 33 40  1  0
 31 41  1  0
 30 42  1  0
 30 43  1  0
 29 44  1  1
 28 45  1  0
 28 46  1  0
  8 47  1  0
 47 48  2  0
 48 49  1  0
 49 50  1  0
 49 51  2  0
 51 52  1  0
 52 53  2  0
 53 54  1  0
 54 55  2  0
 52 56  1  0
 51 57  1  0
 48 58  1  0
  7 59  1  0
  7 60  1  0
  5 61  1  0
  5 62  1  0
  2 63  1  0
  1 64  1  0
  1 65  1  0
  1 66  1  0
 54  6  1  0
 29  8  1  0
 37 32  1  0
 53 47  1  0
 21 12  1  0
 21 16  1  0
M  END
>  <cnnaffinities>  (89) 
[6.56798, 6.40921]

>  <score>  (89) 
6.56798

>  <index>  (89) 
91

>  <Smiles>  (89) 
C(N(C(=O)C(N1C([C@@]2(C(=O)N(c3c(nc(c4c(c(c(c(c34)[H])[H])[H])[H])[H])[H])C([C@@]2(C(N(c2c(nc(c(n2)[H])[H])[H])[H])([H])[H])[H])([H])[H])c2c(c(Cl)c(c(c2C1=O)[H])[H])[H])([H])[H])([H])[H])[H])([H])([H])[H]

>  <h>  (89) 
<NA>

>  <Training>  (89) 
True

>  <Success>  (89) 
True

>  <enamine_searched>  (89) 
False

>  <enamine_id>  (89) 
nan

$$$$

     RDKit          3D

 60 65  0  0  0  0  0  0  0  0999 V2000
   -8.0091   -6.3802  -23.6475 C   0  0  0  0  0  0  0  0  0  0  0  0
   -8.2355   -5.2630  -22.8278 O   0  0  0  0  0  0  0  0  0  0  0  0
   -8.2701   -4.0647  -23.5658 C   0  0  0  0  0  0  0  0  0  0  0  0
   -8.4788   -2.9294  -22.5815 C   0  0  1  0  0  0  0  0  0  0  0  0
   -7.3206   -2.7350  -21.6019 C   0  0  0  0  0  0  0  0  0  0  0  0
   -7.4021   -1.3267  -21.2836 N   0  0  0  0  0  0  0  0  0  0  0  0
   -6.6195   -0.7447  -20.2618 C   0  0  0  0  0  0  0  0  0  0  0  0
   -6.9380   -0.9980  -18.9541 C   0  0  0  0  0  0  0  0  0  0  0  0
   -6.2697   -0.4922  -17.8930 N   0  0  0  0  0  0  0  0  0  0  0  0
   -5.2214    0.2533  -18.1395 C   0  0  0  0  0  0  0  0  0  0  0  0
   -4.7522    0.5531  -19.4487 C   0  0  0  0  0  0  0  0  0  0  0  0
   -3.6016    1.3577  -19.6556 C   0  0  0  0  0  0  0  0  0  0  0  0
   -3.1616    1.6235  -20.9221 C   0  0  0  0  0  0  0  0  0  0  0  0
   -3.8454    1.0889  -22.0390 C   0  0  0  0  0  0  0  0  0  0  0  0
   -4.9627    0.3093  -21.8670 C   0  0  0  0  0  0  0  0  0  0  0  0
   -5.4581    0.0370  -20.5583 C   0  0  0  0  0  0  0  0  0  0  0  0
   -5.4772   -0.0987  -22.7344 H   0  0  0  0  0  0  0  0  0  0  0  0
   -3.4849    1.3065  -23.0399 H   0  0  0  0  0  0  0  0  0  0  0  0
   -2.2891    2.2534  -21.0787 H   0  0  0  0  0  0  0  0  0  0  0  0
   -3.0901    1.7574  -18.7841 H   0  0  0  0  0  0  0  0  0  0  0  0
   -4.6850    0.6594  -17.2808 H   0  0  0  0  0  0  0  0  0  0  0  0
   -7.7922   -1.6341  -18.7228 H   0  0  0  0  0  0  0  0  0  0  0  0
   -8.2186   -0.5901  -22.1172 C   0  0  0  0  0  0  0  0  0  0  0  0
   -8.3998    0.6014  -22.0173 O   0  0  0  0  0  0  0  0  0  0  0  0
   -8.7455   -1.5295  -23.2133 C   0  0  1  0  0  0  0  0  0  0  0  0
   -7.8825   -1.2157  -24.4784 C   0  0  0  0  0  0  0  0  0  0  0  0
   -8.4266   -1.7612  -25.7212 N   0  0  0  0  0  0  0  0  0  0  0  0
   -7.5772   -2.1886  -26.8385 C   0  0  0  0  0  0  0  0  0  0  0  0
   -7.4047   -3.6839  -26.9473 C   0  0  0  0  0  0  0  0  0  0  0  0
   -6.2329   -4.4411  -26.7345 C   0  0  0  0  0  0  0  0  0  0  0  0
   -6.4181   -5.7372  -26.9777 N   0  0  0  0  0  0  0  0  0  0  0  0
   -7.7051   -5.8117  -27.3336 N   0  0  0  0  0  0  0  0  0  0  0  0
   -8.3466   -4.6184  -27.3331 C   0  0  0  0  0  0  0  0  0  0  0  0
   -9.3891   -4.5271  -27.6177 H   0  0  0  0  0  0  0  0  0  0  0  0
   -8.0870   -6.7112  -27.5654 H   0  0  0  0  0  0  0  0  0  0  0  0
   -5.2568   -4.1007  -26.4065 H   0  0  0  0  0  0  0  0  0  0  0  0
   -6.6016   -1.7060  -26.7470 H   0  0  0  0  0  0  0  0  0  0  0  0
   -8.0675   -1.8198  -27.7484 H   0  0  0  0  0  0  0  0  0  0  0  0
   -9.7680   -1.8142  -25.9725 C   0  0  0  0  0  0  0  0  0  0  0  0
  -10.2197   -2.1388  -27.0662 O   0  0  0  0  0  0  0  0  0  0  0  0
  -10.6780   -1.4921  -24.8385 C   0  0  0  0  0  0  0  0  0  0  0  0
  -12.0311   -1.4149  -25.1529 C   0  0  0  0  0  0  0  0  0  0  0  0
  -12.9711   -1.2903  -24.1524 C   0  0  0  0  0  0  0  0  0  0  0  0
  -12.5312   -1.2721  -22.8324 C   0  0  0  0  0  0  0  0  0  0  0  0
  -13.7624   -1.3960  -21.6029 Cl  0  0  0  0  0  0  0  0  0  0  0  0
  -11.1837   -1.2515  -22.5051 C   0  0  0  0  0  0  0  0  0  0  0  0
  -10.2197   -1.3605  -23.5246 C   0  0  0  0  0  0  0  0  0  0  0  0
  -10.9158   -1.1579  -21.4594 H   0  0  0  0  0  0  0  0  0  0  0  0
  -14.0351   -1.2681  -24.3458 H   0  0  0  0  0  0  0  0  0  0  0  0
  -12.2907   -1.5205  -26.2025 H   0  0  0  0  0  0  0  0  0  0  0  0
   -6.8660   -1.6052  -24.3246 H   0  0  0  0  0  0  0  0  0  0  0  0
   -7.7855   -0.1232  -24.5484 H   0  0  0  0  0  0  0  0  0  0  0  0
   -7.4398   -3.3212  -20.6944 H   0  0  0  0  0  0  0  0  0  0  0  0
   -6.3471   -3.0020  -22.0365 H   0  0  0  0  0  0  0  0  0  0  0  0
   -9.3658   -3.1784  -21.9868 H   0  0  0  0  0  0  0  0  0  0  0  0
   -7.3299   -3.9213  -24.1239 H   0  0  0  0  0  0  0  0  0  0  0  0
   -9.0963   -4.0774  -24.2964 H   0  0  0  0  0  0  0  0  0  0  0  0
   -7.9974   -7.2678  -23.0080 H   0  0  0  0  0  0  0  0  0  0  0  0
   -7.0459   -6.3025  -24.1726 H   0  0  0  0  0  0  0  0  0  0  0  0
   -8.8101   -6.4988  -24.3938 H   0  0  0  0  0  0  0  0  0  0  0  0
  1  2  1  0
  2  3  1  0
  3  4  1  0
  4  5  1  0
  5  6  1  0
  6  7  1  0
  7  8  2  0
  8  9  1  0
  9 10  2  0
 10 11  1  0
 11 12  2  0
 12 13  1  0
 13 14  2  0
 14 15  1  0
 15 16  2  0
 15 17  1  0
 14 18  1  0
 13 19  1  0
 12 20  1  0
 10 21  1  0
  8 22  1  0
  6 23  1  0
 23 24  2  0
 23 25  1  0
 25 26  1  6
 26 27  1  0
 27 28  1  0
 28 29  1  0
 29 30  1  0
 30 31  2  0
 31 32  1  0
 32 33  1  0
 33 34  1  0
 32 35  1  0
 30 36  1  0
 28 37  1  0
 28 38  1  0
 27 39  1  0
 39 40  2  0
 39 41  1  0
 41 42  2  0
 42 43  1  0
 43 44  2  0
 44 45  1  0
 44 46  1  0
 46 47  2  0
 46 48  1  0
 43 49  1  0
 42 50  1  0
 26 51  1  0
 26 52  1  0
  5 53  1  0
  5 54  1  0
  4 55  1  1
  3 56  1  0
  3 57  1  0
  1 58  1  0
  1 59  1  0
  1 60  1  0
 25  4  1  0
 33 29  2  0
 47 41  1  0
 16  7  1  0
 47 25  1  0
 16 11  1  0
M  END
>  <cnnaffinities>  (90) 
[6.43947]

>  <score>  (90) 
6.43947

>  <index>  (90) 
92

>  <Smiles>  (90) 
C(OC([C@]1(C(N(c2c(nc(c3c(c(c(c(c23)[H])[H])[H])[H])[H])[H])C(=O)[C@]21C(N(C(c1c(nn(c1[H])[H])[H])([H])[H])C(=O)c1c(c(c(Cl)c(c21)[H])[H])[H])([H])[H])([H])[H])[H])([H])[H])([H])([H])[H]

>  <h>  (90) 
<NA>

>  <Training>  (90) 
True

>  <Success>  (90) 
True

>  <enamine_searched>  (90) 
False

>  <enamine_id>  (90) 
nan

$$$$

     RDKit          3D

 62 67  0  0  0  0  0  0  0  0999 V2000
  -11.3122    4.3969  -25.1794 C   0  0  0  0  0  0  0  0  0  0  0  0
   -9.8310    4.1686  -25.5049 C   0  0  0  0  0  0  0  0  0  0  0  0
   -9.0598    3.5802  -24.4127 N   0  0  0  0  0  0  0  0  0  0  0  0
   -8.4940    4.4167  -23.5245 N   0  0  0  0  0  0  0  0  0  0  0  0
   -7.9007    3.6398  -22.6284 C   0  0  0  0  0  0  0  0  0  0  0  0
   -8.0894    2.2781  -22.9411 C   0  0  0  0  0  0  0  0  0  0  0  0
   -8.8418    2.2710  -24.0911 C   0  0  0  0  0  0  0  0  0  0  0  0
   -9.2275    1.0617  -24.8873 C   0  0  0  0  0  0  0  0  0  0  0  0
   -9.8279   -0.0074  -24.0957 N   0  0  0  0  0  0  0  0  0  0  0  0
   -9.0394   -1.2188  -23.9703 C   0  0  0  0  0  0  0  0  0  0  0  0
   -9.2251   -1.9264  -22.6084 C   0  0  2  0  0  0  0  0  0  0  0  0
   -8.6637   -1.0336  -21.4653 C   0  0  0  0  0  0  0  0  0  0  0  0
   -9.2281   -0.1126  -20.9099 O   0  0  0  0  0  0  0  0  0  0  0  0
   -7.3753   -1.4350  -21.1964 N   0  0  0  0  0  0  0  0  0  0  0  0
   -6.6000   -0.8228  -20.1772 C   0  0  0  0  0  0  0  0  0  0  0  0
   -6.9139   -1.0321  -18.8581 C   0  0  0  0  0  0  0  0  0  0  0  0
   -6.2171   -0.5098  -17.8232 N   0  0  0  0  0  0  0  0  0  0  0  0
   -5.1689    0.2245  -18.0913 C   0  0  0  0  0  0  0  0  0  0  0  0
   -4.7286    0.5268  -19.4087 C   0  0  0  0  0  0  0  0  0  0  0  0
   -3.6022    1.3601  -19.6456 C   0  0  0  0  0  0  0  0  0  0  0  0
   -3.2239    1.6613  -20.9246 C   0  0  0  0  0  0  0  0  0  0  0  0
   -3.9538    1.1383  -22.0163 C   0  0  0  0  0  0  0  0  0  0  0  0
   -5.0464    0.3274  -21.8094 C   0  0  0  0  0  0  0  0  0  0  0  0
   -5.4631   -0.0052  -20.4926 C   0  0  0  0  0  0  0  0  0  0  0  0
   -5.6022   -0.0601  -22.6575 H   0  0  0  0  0  0  0  0  0  0  0  0
   -3.6557    1.3914  -23.0285 H   0  0  0  0  0  0  0  0  0  0  0  0
   -2.3758    2.3169  -21.1060 H   0  0  0  0  0  0  0  0  0  0  0  0
   -3.0734    1.7695  -18.7892 H   0  0  0  0  0  0  0  0  0  0  0  0
   -4.6152    0.6209  -17.2401 H   0  0  0  0  0  0  0  0  0  0  0  0
   -7.7546   -1.6652  -18.5843 H   0  0  0  0  0  0  0  0  0  0  0  0
   -6.9628   -2.6161  -21.9347 C   0  0  0  0  0  0  0  0  0  0  0  0
   -8.2897   -3.1675  -22.5038 C   0  0  2  0  0  0  0  0  0  0  0  0
   -8.0945   -3.9888  -23.7806 C   0  0  0  0  0  0  0  0  0  0  0  0
   -7.5572   -3.4113  -24.5434 H   0  0  0  0  0  0  0  0  0  0  0  0
   -7.5055   -4.8908  -23.5827 H   0  0  0  0  0  0  0  0  0  0  0  0
   -9.0494   -4.3000  -24.2186 H   0  0  0  0  0  0  0  0  0  0  0  0
   -8.7266   -3.8057  -21.7297 H   0  0  0  0  0  0  0  0  0  0  0  0
   -6.4585   -3.3250  -21.2689 H   0  0  0  0  0  0  0  0  0  0  0  0
   -6.2561   -2.3643  -22.7406 H   0  0  0  0  0  0  0  0  0  0  0  0
  -10.7130   -2.1604  -22.4293 C   0  0  0  0  0  0  0  0  0  0  0  0
  -11.2319   -3.2369  -21.6984 C   0  0  0  0  0  0  0  0  0  0  0  0
  -12.5890   -3.2835  -21.4464 C   0  0  0  0  0  0  0  0  0  0  0  0
  -13.0869   -4.2319  -20.6390 F   0  0  0  0  0  0  0  0  0  0  0  0
  -13.4827   -2.3466  -21.9429 C   0  0  0  0  0  0  0  0  0  0  0  0
  -12.9763   -1.2806  -22.6561 C   0  0  0  0  0  0  0  0  0  0  0  0
  -11.6020   -1.1793  -22.8930 C   0  0  0  0  0  0  0  0  0  0  0  0
  -11.1056    0.0507  -23.6092 C   0  0  0  0  0  0  0  0  0  0  0  0
  -11.8409    1.0223  -23.7188 O   0  0  0  0  0  0  0  0  0  0  0  0
  -13.6250   -0.4916  -23.0192 H   0  0  0  0  0  0  0  0  0  0  0  0
  -14.5367   -2.4775  -21.7223 H   0  0  0  0  0  0  0  0  0  0  0  0
  -10.5984   -3.9988  -21.2593 H   0  0  0  0  0  0  0  0  0  0  0  0
   -9.2993   -1.9246  -24.7733 H   0  0  0  0  0  0  0  0  0  0  0  0
   -7.9884   -0.9317  -24.0716 H   0  0  0  0  0  0  0  0  0  0  0  0
   -9.8283    1.3414  -25.7430 H   0  0  0  0  0  0  0  0  0  0  0  0
   -8.3262    0.6154  -25.3162 H   0  0  0  0  0  0  0  0  0  0  0  0
   -7.7566    1.3872  -22.4261 H   0  0  0  0  0  0  0  0  0  0  0  0
   -7.3618    4.1054  -21.8072 H   0  0  0  0  0  0  0  0  0  0  0  0
   -9.3400    5.1255  -25.7069 H   0  0  0  0  0  0  0  0  0  0  0  0
   -9.6859    3.5452  -26.3949 H   0  0  0  0  0  0  0  0  0  0  0  0
  -11.8329    3.4899  -24.8632 H   0  0  0  0  0  0  0  0  0  0  0  0
  -11.4213    5.1271  -24.3721 H   0  0  0  0  0  0  0  0  0  0  0  0
  -11.8122    4.7951  -26.0684 H   0  0  0  0  0  0  0  0  0  0  0  0
  1  2  1  0
  2  3  1  0
  3  4  1  0
  4  5  2  0
  5  6  1  0
  6  7  2  0
  7  8  1  0
  8  9  1  0
  9 10  1  0
 11 10  1  6
 11 12  1  0
 12 13  2  0
 12 14  1  0
 14 15  1  0
 15 16  2  0
 16 17  1  0
 17 18  2  0
 18 19  1  0
 19 20  2  0
 20 21  1  0
 21 22  2  0
 22 23  1  0
 23 24  2  0
 23 25  1  0
 22 26  1  0
 21 27  1  0
 20 28  1  0
 18 29  1  0
 16 30  1  0
 14 31  1  0
 31 32  1  0
 32 33  1  0
 33 34  1  0
 33 35  1  0
 33 36  1  0
 32 37  1  1
 31 38  1  0
 31 39  1  0
 11 40  1  0
 40 41  2  0
 41 42  1  0
 42 43  1  0
 42 44  2  0
 44 45  1  0
 45 46  2  0
 46 47  1  0
 47 48  2  0
 45 49  1  0
 44 50  1  0
 41 51  1  0
 10 52  1  0
 10 53  1  0
  8 54  1  0
  8 55  1  0
  6 56  1  0
  5 57  1  0
  2 58  1  0
  2 59  1  0
  1 60  1  0
  1 61  1  0
  1 62  1  0
  7  3  1  0
 47  9  1  0
 32 11  1  0
 46 40  1  0
 24 15  1  0
 24 19  1  0
M  END
>  <cnnaffinities>  (91) 
[6.92716, 6.38427, 6.54882, 6.42632, 6.41855, 6.33363]

>  <score>  (91) 
6.92716

>  <index>  (91) 
93

>  <Smiles>  (91) 
C(C(n1nc(c(c1C(N1C([C@@]2(C(=O)N(c3c(nc(c4c(c(c(c(c34)[H])[H])[H])[H])[H])[H])C([C@@]2(C([H])([H])[H])[H])([H])[H])c2c(c(F)c(c(c2C1=O)[H])[H])[H])([H])[H])([H])[H])[H])[H])([H])[H])([H])([H])[H]

>  <h>  (91) 
<NA>

>  <Training>  (91) 
True

>  <Success>  (91) 
True

>  <enamine_searched>  (91) 
False

>  <enamine_id>  (91) 
nan

$$$$

     RDKit          3D

 66 71  0  0  0  0  0  0  0  0999 V2000
   -7.8251   -6.0313  -26.6787 C   0  0  0  0  0  0  0  0  0  0  0  0
   -8.0212   -4.6167  -26.9517 N   0  0  0  0  0  0  0  0  0  0  0  0
   -7.0871   -3.7121  -26.5724 C   0  0  0  0  0  0  0  0  0  0  0  0
   -6.0495   -4.0123  -25.9913 O   0  0  0  0  0  0  0  0  0  0  0  0
   -7.4621   -2.2484  -26.8297 C   0  0  0  0  0  0  0  0  0  0  0  0
   -8.3671   -1.7734  -25.7862 N   0  0  0  0  0  0  0  0  0  0  0  0
   -7.8352   -1.3124  -24.5110 C   0  0  0  0  0  0  0  0  0  0  0  0
   -8.7414   -1.5756  -23.2648 C   0  0  2  0  0  0  0  0  0  0  0  0
   -8.2216   -0.6073  -22.1923 C   0  0  0  0  0  0  0  0  0  0  0  0
   -8.4230    0.5850  -22.1208 O   0  0  0  0  0  0  0  0  0  0  0  0
   -7.3838   -1.3104  -21.3426 N   0  0  0  0  0  0  0  0  0  0  0  0
   -6.6254   -0.7133  -20.3067 C   0  0  0  0  0  0  0  0  0  0  0  0
   -6.9598   -0.9598  -18.9989 C   0  0  0  0  0  0  0  0  0  0  0  0
   -6.3030   -0.4564  -17.9270 N   0  0  0  0  0  0  0  0  0  0  0  0
   -5.2460    0.2810  -18.1635 C   0  0  0  0  0  0  0  0  0  0  0  0
   -4.7562    0.5800  -19.4656 C   0  0  0  0  0  0  0  0  0  0  0  0
   -3.5913    1.3695  -19.6601 C   0  0  0  0  0  0  0  0  0  0  0  0
   -3.1353    1.6284  -20.9230 C   0  0  0  0  0  0  0  0  0  0  0  0
   -3.8108    1.1022  -22.0470 C   0  0  0  0  0  0  0  0  0  0  0  0
   -4.9398    0.3382  -21.8830 C   0  0  0  0  0  0  0  0  0  0  0  0
   -5.4531    0.0663  -20.5832 C   0  0  0  0  0  0  0  0  0  0  0  0
   -5.4460   -0.0694  -22.7531 H   0  0  0  0  0  0  0  0  0  0  0  0
   -3.4359    1.3126  -23.0446 H   0  0  0  0  0  0  0  0  0  0  0  0
   -2.2551    2.2471  -21.0700 H   0  0  0  0  0  0  0  0  0  0  0  0
   -3.0853    1.7686  -18.7843 H   0  0  0  0  0  0  0  0  0  0  0  0
   -4.7171    0.6758  -17.2968 H   0  0  0  0  0  0  0  0  0  0  0  0
   -7.8268   -1.5830  -18.7797 H   0  0  0  0  0  0  0  0  0  0  0  0
   -7.3177   -2.7343  -21.6038 C   0  0  0  0  0  0  0  0  0  0  0  0
   -8.5189   -2.9377  -22.5343 C   0  0  2  0  0  0  0  0  0  0  0  0
   -8.4540   -4.1315  -23.4822 C   0  0  0  0  0  0  0  0  0  0  0  0
   -8.3848   -5.4377  -22.8499 N   0  0  0  0  0  0  0  0  0  0  0  0
   -7.2000   -5.9505  -22.3998 C   0  0  0  0  0  0  0  0  0  0  0  0
   -5.9790   -5.6686  -23.0422 C   0  0  0  0  0  0  0  0  0  0  0  0
   -4.8506   -6.1661  -22.4179 C   0  0  0  0  0  0  0  0  0  0  0  0
   -4.8774   -6.8838  -21.2868 N   0  0  0  0  0  0  0  0  0  0  0  0
   -6.0905   -7.1369  -20.8201 C   0  0  0  0  0  0  0  0  0  0  0  0
   -7.2577   -6.7637  -21.3347 N   0  0  0  0  0  0  0  0  0  0  0  0
   -6.1413   -7.7018  -19.8886 H   0  0  0  0  0  0  0  0  0  0  0  0
   -3.8587   -5.9673  -22.8206 H   0  0  0  0  0  0  0  0  0  0  0  0
   -5.9326   -5.1029  -23.9775 H   0  0  0  0  0  0  0  0  0  0  0  0
   -9.1611   -5.6571  -22.2418 H   0  0  0  0  0  0  0  0  0  0  0  0
   -9.3603   -4.1216  -24.0939 H   0  0  0  0  0  0  0  0  0  0  0  0
   -7.5974   -4.0259  -24.1428 H   0  0  0  0  0  0  0  0  0  0  0  0
   -9.3966   -3.0817  -21.8827 H   0  0  0  0  0  0  0  0  0  0  0  0
   -7.4094   -3.2786  -20.6611 H   0  0  0  0  0  0  0  0  0  0  0  0
   -6.3518   -3.0190  -22.0583 H   0  0  0  0  0  0  0  0  0  0  0  0
  -10.2023   -1.4109  -23.6156 C   0  0  0  0  0  0  0  0  0  0  0  0
  -11.1763   -1.3062  -22.6088 C   0  0  0  0  0  0  0  0  0  0  0  0
  -12.5165   -1.3143  -22.9648 C   0  0  0  0  0  0  0  0  0  0  0  0
  -13.7549   -1.3602  -21.7488 Cl  0  0  0  0  0  0  0  0  0  0  0  0
  -12.9357   -1.3941  -24.2920 C   0  0  0  0  0  0  0  0  0  0  0  0
  -11.9763   -1.5049  -25.2726 C   0  0  0  0  0  0  0  0  0  0  0  0
  -10.6286   -1.5556  -24.9402 C   0  0  0  0  0  0  0  0  0  0  0  0
   -9.6915   -1.9349  -26.0333 C   0  0  0  0  0  0  0  0  0  0  0  0
  -10.0898   -2.4287  -27.0904 O   0  0  0  0  0  0  0  0  0  0  0  0
  -12.2195   -1.6202  -26.3222 H   0  0  0  0  0  0  0  0  0  0  0  0
  -14.0008   -1.4476  -24.4935 H   0  0  0  0  0  0  0  0  0  0  0  0
  -10.9002   -1.2653  -21.5556 H   0  0  0  0  0  0  0  0  0  0  0  0
   -7.6719   -0.2289  -24.5494 H   0  0  0  0  0  0  0  0  0  0  0  0
   -6.8580   -1.7969  -24.3700 H   0  0  0  0  0  0  0  0  0  0  0  0
   -6.5517   -1.6465  -26.8683 H   0  0  0  0  0  0  0  0  0  0  0  0
   -7.9938   -2.1698  -27.7796 H   0  0  0  0  0  0  0  0  0  0  0  0
   -8.9226   -4.2759  -27.2661 H   0  0  0  0  0  0  0  0  0  0  0  0
   -7.5712   -6.1964  -25.6217 H   0  0  0  0  0  0  0  0  0  0  0  0
   -8.7419   -6.5750  -26.9186 H   0  0  0  0  0  0  0  0  0  0  0  0
   -7.0073   -6.4328  -27.2847 H   0  0  0  0  0  0  0  0  0  0  0  0
  1  2  1  0
  2  3  1  0
  3  4  2  0
  3  5  1  0
  5  6  1  0
  6  7  1  0
  8  7  1  6
  8  9  1  0
  9 10  2  0
  9 11  1  0
 11 12  1  0
 12 13  2  0
 13 14  1  0
 14 15  2  0
 15 16  1  0
 16 17  2  0
 17 18  1  0
 18 19  2  0
 19 20  1  0
 20 21  2  0
 20 22  1  0
 19 23  1  0
 18 24  1  0
 17 25  1  0
 15 26  1  0
 13 27  1  0
 11 28  1  0
 28 29  1  0
 29 30  1  0
 30 31  1  0
 31 32  1  0
 32 33  2  0
 33 34  1  0
 34 35  2  0
 35 36  1  0
 36 37  2  0
 36 38  1  0
 34 39  1  0
 33 40  1  0
 31 41  1  0
 30 42  1  0
 30 43  1  0
 29 44  1  1
 28 45  1  0
 28 46  1  0
  8 47  1  0
 47 48  2  0
 48 49  1  0
 49 50  1  0
 49 51  2  0
 51 52  1  0
 52 53  2  0
 53 54  1  0
 54 55  2  0
 52 56  1  0
 51 57  1  0
 48 58  1  0
  7 59  1  0
  7 60  1  0
  5 61  1  0
  5 62  1  0
  2 63  1  0
  1 64  1  0
  1 65  1  0
  1 66  1  0
 54  6  1  0
 29  8  1  0
 37 32  1  0
 53 47  1  0
 21 12  1  0
 21 16  1  0
M  END
>  <cnnaffinities>  (92) 
[6.47508]

>  <score>  (92) 
6.47508

>  <index>  (92) 
95

>  <Smiles>  (92) 
C(N(C(=O)C(N1C([C@@]2(C(=O)N(c3c(nc(c4c(c(c(c(c34)[H])[H])[H])[H])[H])[H])C([C@@]2(C(N(c2c(c(nc(n2)[H])[H])[H])[H])([H])[H])[H])([H])[H])c2c(c(Cl)c(c(c2C1=O)[H])[H])[H])([H])[H])([H])[H])[H])([H])([H])[H]

>  <h>  (92) 
<NA>

>  <Training>  (92) 
True

>  <Success>  (92) 
True

>  <enamine_searched>  (92) 
False

>  <enamine_id>  (92) 
nan

$$$$

     RDKit          3D

 66 70  0  0  0  0  0  0  0  0999 V2000
   -7.7270   -0.2496  -29.8105 C   0  0  0  0  0  0  0  0  0  0  0  0
   -7.9668   -1.2756  -28.8232 N   0  0  0  0  0  0  0  0  0  0  0  0
   -7.1532   -1.3529  -27.7339 C   0  0  0  0  0  0  0  0  0  0  0  0
   -6.1911   -0.6292  -27.5414 O   0  0  0  0  0  0  0  0  0  0  0  0
   -7.5407   -2.4462  -26.7353 C   0  0  0  0  0  0  0  0  0  0  0  0
   -8.4307   -1.9342  -25.7055 N   0  0  0  0  0  0  0  0  0  0  0  0
   -7.9044   -1.2467  -24.5358 C   0  0  0  0  0  0  0  0  0  0  0  0
   -8.7388   -1.5512  -23.2650 C   0  0  2  0  0  0  0  0  0  0  0  0
   -8.2442   -0.5799  -22.1800 C   0  0  0  0  0  0  0  0  0  0  0  0
   -8.4773    0.6057  -22.0957 O   0  0  0  0  0  0  0  0  0  0  0  0
   -7.4181   -1.2796  -21.3188 N   0  0  0  0  0  0  0  0  0  0  0  0
   -6.6418   -0.6842  -20.2898 C   0  0  0  0  0  0  0  0  0  0  0  0
   -6.9564   -0.9479  -18.9819 C   0  0  0  0  0  0  0  0  0  0  0  0
   -6.2857   -0.4572  -17.9137 N   0  0  0  0  0  0  0  0  0  0  0  0
   -5.2323    0.2837  -18.1520 C   0  0  0  0  0  0  0  0  0  0  0  0
   -4.7522    0.5905  -19.4553 C   0  0  0  0  0  0  0  0  0  0  0  0
   -3.5873    1.3781  -19.6563 C   0  0  0  0  0  0  0  0  0  0  0  0
   -3.1363    1.6344  -20.9209 C   0  0  0  0  0  0  0  0  0  0  0  0
   -3.8179    1.1042  -22.0389 C   0  0  0  0  0  0  0  0  0  0  0  0
   -4.9474    0.3428  -21.8692 C   0  0  0  0  0  0  0  0  0  0  0  0
   -5.4607    0.0826  -20.5688 C   0  0  0  0  0  0  0  0  0  0  0  0
   -5.4541   -0.0732  -22.7346 H   0  0  0  0  0  0  0  0  0  0  0  0
   -3.4481    1.3108  -23.0383 H   0  0  0  0  0  0  0  0  0  0  0  0
   -2.2577    2.2545  -21.0752 H   0  0  0  0  0  0  0  0  0  0  0  0
   -3.0746    1.7787  -18.7861 H   0  0  0  0  0  0  0  0  0  0  0  0
   -4.6993    0.6684  -17.2840 H   0  0  0  0  0  0  0  0  0  0  0  0
   -7.8132   -1.5826  -18.7578 H   0  0  0  0  0  0  0  0  0  0  0  0
   -7.3003   -2.6947  -21.6129 C   0  0  0  0  0  0  0  0  0  0  0  0
   -8.4380   -2.9408  -22.6098 C   0  0  2  0  0  0  0  0  0  0  0  0
   -8.1772   -4.0814  -23.5858 C   0  0  0  0  0  0  0  0  0  0  0  0
   -7.7705   -5.2366  -22.8824 O   0  0  0  0  0  0  0  0  0  0  0  0
   -7.4703   -6.3176  -23.7555 C   0  0  0  0  0  0  0  0  0  0  0  0
   -6.5472   -7.2537  -22.9954 C   0  0  0  0  0  0  0  0  0  0  0  0
   -5.5728   -6.7863  -22.8244 H   0  0  0  0  0  0  0  0  0  0  0  0
   -6.9952   -7.5105  -22.0293 H   0  0  0  0  0  0  0  0  0  0  0  0
   -6.3730   -8.1714  -23.5631 H   0  0  0  0  0  0  0  0  0  0  0  0
   -8.7427   -7.0119  -24.2363 C   0  0  0  0  0  0  0  0  0  0  0  0
   -9.0732   -7.7648  -23.5089 H   0  0  0  0  0  0  0  0  0  0  0  0
   -8.5647   -7.5082  -25.1940 H   0  0  0  0  0  0  0  0  0  0  0  0
   -9.5302   -6.2709  -24.3989 H   0  0  0  0  0  0  0  0  0  0  0  0
   -6.9267   -5.9232  -24.6319 H   0  0  0  0  0  0  0  0  0  0  0  0
   -9.0954   -4.2641  -24.1632 H   0  0  0  0  0  0  0  0  0  0  0  0
   -7.4027   -3.8092  -24.3145 H   0  0  0  0  0  0  0  0  0  0  0  0
   -9.3315   -3.2143  -22.0319 H   0  0  0  0  0  0  0  0  0  0  0  0
   -7.4323   -3.2762  -20.6990 H   0  0  0  0  0  0  0  0  0  0  0  0
   -6.3070   -2.9405  -22.0212 H   0  0  0  0  0  0  0  0  0  0  0  0
  -10.2101   -1.3939  -23.5982 C   0  0  0  0  0  0  0  0  0  0  0  0
  -11.1698   -1.3193  -22.5781 C   0  0  0  0  0  0  0  0  0  0  0  0
  -12.5173   -1.3111  -22.9070 C   0  0  0  0  0  0  0  0  0  0  0  0
  -13.7422   -1.3411  -21.6778 Cl  0  0  0  0  0  0  0  0  0  0  0  0
  -12.9574   -1.3943  -24.2260 C   0  0  0  0  0  0  0  0  0  0  0  0
  -12.0141   -1.4856  -25.2228 C   0  0  0  0  0  0  0  0  0  0  0  0
  -10.6616   -1.4957  -24.9187 C   0  0  0  0  0  0  0  0  0  0  0  0
   -9.7389   -1.7956  -26.0452 C   0  0  0  0  0  0  0  0  0  0  0  0
  -10.1456   -1.9687  -27.1955 O   0  0  0  0  0  0  0  0  0  0  0  0
  -12.2743   -1.6159  -26.2650 H   0  0  0  0  0  0  0  0  0  0  0  0
  -14.0230   -1.4462  -24.4241 H   0  0  0  0  0  0  0  0  0  0  0  0
  -10.8636   -1.3205  -21.5343 H   0  0  0  0  0  0  0  0  0  0  0  0
   -6.8582   -1.5462  -24.3843 H   0  0  0  0  0  0  0  0  0  0  0  0
   -7.9298   -0.1576  -24.6861 H   0  0  0  0  0  0  0  0  0  0  0  0
   -8.0641   -3.2602  -27.2477 H   0  0  0  0  0  0  0  0  0  0  0  0
   -6.6235   -2.8301  -26.2752 H   0  0  0  0  0  0  0  0  0  0  0  0
   -8.9194   -1.5996  -28.6848 H   0  0  0  0  0  0  0  0  0  0  0  0
   -6.6936   -0.3215  -30.1550 H   0  0  0  0  0  0  0  0  0  0  0  0
   -7.8815    0.7584  -29.4083 H   0  0  0  0  0  0  0  0  0  0  0  0
   -8.3959   -0.4145  -30.6583 H   0  0  0  0  0  0  0  0  0  0  0  0
  1  2  1  0
  2  3  1  0
  3  4  2  0
  3  5  1  0
  5  6  1  0
  6  7  1  0
  8  7  1  6
  8  9  1  0
  9 10  2  0
  9 11  1  0
 11 12  1  0
 12 13  2  0
 13 14  1  0
 14 15  2  0
 15 16  1  0
 16 17  2  0
 17 18  1  0
 18 19  2  0
 19 20  1  0
 20 21  2  0
 20 22  1  0
 19 23  1  0
 18 24  1  0
 17 25  1  0
 15 26  1  0
 13 27  1  0
 11 28  1  0
 28 29  1  0
 29 30  1  0
 30 31  1  0
 31 32  1  0
 32 33  1  0
 33 34  1  0
 33 35  1  0
 33 36  1  0
 32 37  1  0
 37 38  1  0
 37 39  1  0
 37 40  1  0
 32 41  1  0
 30 42  1  0
 30 43  1  0
 29 44  1  1
 28 45  1  0
 28 46  1  0
  8 47  1  0
 47 48  2  0
 48 49  1  0
 49 50  1  0
 49 51  2  0
 51 52  1  0
 52 53  2  0
 53 54  1  0
 54 55  2  0
 52 56  1  0
 51 57  1  0
 48 58  1  0
  7 59  1  0
  7 60  1  0
  5 61  1  0
  5 62  1  0
  2 63  1  0
  1 64  1  0
  1 65  1  0
  1 66  1  0
 54  6  1  0
 29  8  1  0
 53 47  1  0
 21 12  1  0
 21 16  1  0
M  END
>  <cnnaffinities>  (93) 
[6.49255, 6.53434, 6.54, 6.61843, 6.6122]

>  <score>  (93) 
6.49255

>  <index>  (93) 
96

>  <Smiles>  (93) 
C(N(C(=O)C(N1C([C@@]2(C(=O)N(c3c(nc(c4c(c(c(c(c34)[H])[H])[H])[H])[H])[H])C([C@@]2(C(OC(C([H])([H])[H])(C([H])([H])[H])[H])([H])[H])[H])([H])[H])c2c(c(Cl)c(c(c2C1=O)[H])[H])[H])([H])[H])([H])[H])[H])([H])([H])[H]

>  <h>  (93) 
<NA>

>  <Training>  (93) 
True

>  <Success>  (93) 
True

>  <enamine_searched>  (93) 
False

>  <enamine_id>  (93) 
nan

$$$$

     RDKit          3D

 40 43  0  0  0  0  0  0  0  0999 V2000
  -12.7005   -3.6958  -21.0849 C   0  0  0  0  0  0  0  0  0  0  0  0
  -11.5583   -2.8476  -21.6867 C   0  0  2  0  0  0  0  0  0  0  0  0
  -12.0287   -2.2879  -23.0206 C   0  0  0  0  0  0  0  0  0  0  0  0
  -11.1188   -1.3406  -23.5305 O   0  0  0  0  0  0  0  0  0  0  0  0
   -9.8440   -1.8902  -23.7479 C   0  0  0  0  0  0  0  0  0  0  0  0
   -9.1777   -2.4237  -22.4726 C   0  0  1  0  0  0  0  0  0  0  0  0
  -10.1461   -3.4367  -21.8064 C   0  0  0  0  0  0  0  0  0  0  0  0
  -10.1510   -4.3411  -22.4268 H   0  0  0  0  0  0  0  0  0  0  0  0
   -9.7379   -3.7185  -20.8278 H   0  0  0  0  0  0  0  0  0  0  0  0
   -7.8995   -3.0234  -22.8020 N   0  0  0  0  0  0  0  0  0  0  0  0
   -6.8539   -2.5852  -22.0372 C   0  0  0  0  0  0  0  0  0  0  0  0
   -5.7140   -2.9849  -22.0190 O   0  0  0  0  0  0  0  0  0  0  0  0
   -7.3678   -1.5327  -21.2557 N   0  0  0  0  0  0  0  0  0  0  0  0
   -6.6153   -0.8688  -20.2434 C   0  0  0  0  0  0  0  0  0  0  0  0
   -6.9682   -1.0259  -18.9265 C   0  0  0  0  0  0  0  0  0  0  0  0
   -6.2985   -0.4890  -17.8787 N   0  0  0  0  0  0  0  0  0  0  0  0
   -5.2363    0.2246  -18.1487 C   0  0  0  0  0  0  0  0  0  0  0  0
   -4.7703    0.4885  -19.4629 C   0  0  0  0  0  0  0  0  0  0  0  0
   -3.6379    1.3158  -19.6686 C   0  0  0  0  0  0  0  0  0  0  0  0
   -3.2434    1.6318  -20.9390 C   0  0  0  0  0  0  0  0  0  0  0  0
   -3.9621    1.1277  -22.0462 C   0  0  0  0  0  0  0  0  0  0  0  0
   -5.0517    0.3083  -21.8713 C   0  0  0  0  0  0  0  0  0  0  0  0
   -5.4823   -0.0478  -20.5599 C   0  0  0  0  0  0  0  0  0  0  0  0
   -5.5967   -0.0557  -22.7374 H   0  0  0  0  0  0  0  0  0  0  0  0
   -3.6543    1.4114  -23.0488 H   0  0  0  0  0  0  0  0  0  0  0  0
   -2.3965    2.2920  -21.0990 H   0  0  0  0  0  0  0  0  0  0  0  0
   -3.1265    1.7120  -18.7950 H   0  0  0  0  0  0  0  0  0  0  0  0
   -4.6929    0.6517  -17.3062 H   0  0  0  0  0  0  0  0  0  0  0  0
   -7.8324   -1.6307  -18.6685 H   0  0  0  0  0  0  0  0  0  0  0  0
   -8.7186   -1.3052  -21.5247 C   0  0  0  0  0  0  0  0  0  0  0  0
   -9.3691   -0.3870  -21.0841 O   0  0  0  0  0  0  0  0  0  0  0  0
   -7.8399   -3.9022  -23.2929 H   0  0  0  0  0  0  0  0  0  0  0  0
   -9.2231   -1.1115  -24.1917 H   0  0  0  0  0  0  0  0  0  0  0  0
   -9.8956   -2.7383  -24.4479 H   0  0  0  0  0  0  0  0  0  0  0  0
  -12.9732   -1.7494  -22.8561 H   0  0  0  0  0  0  0  0  0  0  0  0
  -12.1858   -3.1298  -23.7283 H   0  0  0  0  0  0  0  0  0  0  0  0
  -11.3985   -1.9861  -21.0557 H   0  0  0  0  0  0  0  0  0  0  0  0
  -12.3977   -4.3440  -20.2522 H   0  0  0  0  0  0  0  0  0  0  0  0
  -13.1762   -4.3387  -21.8370 H   0  0  0  0  0  0  0  0  0  0  0  0
  -13.4732   -3.0118  -20.6969 H   0  0  0  0  0  0  0  0  0  0  0  0
  1  2  1  0
  2  3  1  0
  3  4  1  0
  4  5  1  0
  5  6  1  0
  6  7  1  0
  7  8  1  0
  7  9  1  0
  6 10  1  6
 10 11  1  0
 11 12  2  0
 11 13  1  0
 13 14  1  0
 14 15  2  0
 15 16  1  0
 16 17  2  0
 17 18  1  0
 18 19  2  0
 19 20  1  0
 20 21  2  0
 21 22  1  0
 22 23  2  0
 22 24  1  0
 21 25  1  0
 20 26  1  0
 19 27  1  0
 17 28  1  0
 15 29  1  0
 13 30  1  0
 30 31  2  0
 10 32  1  0
  5 33  1  0
  5 34  1  0
  3 35  1  0
  3 36  1  0
  2 37  1  1
  1 38  1  0
  1 39  1  0
  1 40  1  0
  7  2  1  0
 23 14  1  0
 30  6  1  0
 23 18  1  0
M  END
>  <cnnaffinities>  (94) 
[5.54297]

>  <score>  (94) 
5.54297

>  <index>  (94) 
97

>  <Smiles>  (94) 
C([C@@]1(C(OC([C@@]2(C1([H])[H])N(C(=O)N(c1c(nc(c3c(c(c(c(c13)[H])[H])[H])[H])[H])[H])C2=O)[H])([H])[H])([H])[H])[H])([H])([H])[H]

>  <h>  (94) 
<NA>

>  <Training>  (94) 
True

>  <Success>  (94) 
True

>  <enamine_searched>  (94) 
False

>  <enamine_id>  (94) 
nan

$$$$
