
     RDKit          3D

 66 71  0  0  0  0  0  0  0  0999 V2000
   -5.8465   -0.1960  -29.5016 C   0  0  0  0  0  0  0  0  0  0  0  0
   -5.7856    0.2017  -28.1131 N   0  0  0  0  0  0  0  0  0  0  0  0
   -5.2004   -0.6037  -27.1861 C   0  0  0  0  0  0  0  0  0  0  0  0
   -4.5328   -1.5883  -27.4617 O   0  0  0  0  0  0  0  0  0  0  0  0
   -5.4026   -0.1412  -25.7320 C   0  0  0  0  0  0  0  0  0  0  0  0
   -6.6153   -0.6674  -25.1231 N   0  0  0  0  0  0  0  0  0  0  0  0
   -6.5662   -1.9185  -24.3772 C   0  0  0  0  0  0  0  0  0  0  0  0
   -7.6242   -1.9545  -23.2306 C   0  0  2  0  0  0  0  0  0  0  0  0
   -7.2106   -1.0324  -22.0723 C   0  0  0  0  0  0  0  0  0  0  0  0
   -7.5141    0.1293  -21.9201 O   0  0  0  0  0  0  0  0  0  0  0  0
   -6.4446   -1.7707  -21.1883 N   0  0  0  0  0  0  0  0  0  0  0  0
   -5.8789   -1.1538  -20.0519 C   0  0  0  0  0  0  0  0  0  0  0  0
   -6.2962   -1.4852  -18.7870 C   0  0  0  0  0  0  0  0  0  0  0  0
   -5.8658   -0.8765  -17.6560 N   0  0  0  0  0  0  0  0  0  0  0  0
   -4.9745    0.0794  -17.7784 C   0  0  0  0  0  0  0  0  0  0  0  0
   -4.4222    0.4922  -19.0228 C   0  0  0  0  0  0  0  0  0  0  0  0
   -3.4309    1.5078  -19.1082 C   0  0  0  0  0  0  0  0  0  0  0  0
   -2.9274    1.8816  -20.3241 C   0  0  0  0  0  0  0  0  0  0  0  0
   -3.3718    1.2484  -21.5071 C   0  0  0  0  0  0  0  0  0  0  0  0
   -4.3137    0.2547  -21.4460 C   0  0  0  0  0  0  0  0  0  0  0  0
   -4.8755   -0.1409  -20.1987 C   0  0  0  0  0  0  0  0  0  0  0  0
   -4.6514   -0.2386  -22.3527 H   0  0  0  0  0  0  0  0  0  0  0  0
   -2.9722    1.5581  -22.4681 H   0  0  0  0  0  0  0  0  0  0  0  0
   -2.1820    2.6683  -20.3953 H   0  0  0  0  0  0  0  0  0  0  0  0
   -3.0934    1.9848  -18.1924 H   0  0  0  0  0  0  0  0  0  0  0  0
   -4.6500    0.5781  -16.8643 H   0  0  0  0  0  0  0  0  0  0  0  0
   -7.0513   -2.2597  -18.6475 H   0  0  0  0  0  0  0  0  0  0  0  0
   -6.4236   -3.1913  -21.5151 C   0  0  0  0  0  0  0  0  0  0  0  0
   -7.6120   -3.3038  -22.4827 C   0  0  2  0  0  0  0  0  0  0  0  0
   -7.6798   -4.5493  -23.3712 C   0  0  0  0  0  0  0  0  0  0  0  0
   -7.6753   -5.8020  -22.6420 N   0  0  0  0  0  0  0  0  0  0  0  0
   -6.5087   -6.3691  -22.2071 C   0  0  0  0  0  0  0  0  0  0  0  0
   -5.2825   -6.2252  -22.8871 C   0  0  0  0  0  0  0  0  0  0  0  0
   -4.2412   -7.0151  -22.4456 C   0  0  0  0  0  0  0  0  0  0  0  0
   -4.3318   -7.7948  -21.3650 N   0  0  0  0  0  0  0  0  0  0  0  0
   -5.4883   -7.7465  -20.7256 C   0  0  0  0  0  0  0  0  0  0  0  0
   -6.5913   -7.1047  -21.0893 N   0  0  0  0  0  0  0  0  0  0  0  0
   -5.5433   -8.3058  -19.7889 H   0  0  0  0  0  0  0  0  0  0  0  0
   -3.2775   -7.0254  -22.9590 H   0  0  0  0  0  0  0  0  0  0  0  0
   -5.1412   -5.5345  -23.7113 H   0  0  0  0  0  0  0  0  0  0  0  0
   -8.4456   -5.9638  -22.0057 H   0  0  0  0  0  0  0  0  0  0  0  0
   -6.8441   -4.5869  -24.0715 H   0  0  0  0  0  0  0  0  0  0  0  0
   -8.5868   -4.4826  -23.9826 H   0  0  0  0  0  0  0  0  0  0  0  0
   -8.5158   -3.3049  -21.8631 H   0  0  0  0  0  0  0  0  0  0  0  0
   -6.5382   -3.8148  -20.6253 H   0  0  0  0  0  0  0  0  0  0  0  0
   -5.4761   -3.4746  -21.9999 H   0  0  0  0  0  0  0  0  0  0  0  0
   -8.9622   -1.5405  -23.7730 C   0  0  0  0  0  0  0  0  0  0  0  0
  -10.1605   -1.8069  -23.0931 C   0  0  0  0  0  0  0  0  0  0  0  0
  -11.3705   -1.4865  -23.6832 C   0  0  0  0  0  0  0  0  0  0  0  0
  -12.8298   -1.9723  -22.8591 Cl  0  0  0  0  0  0  0  0  0  0  0  0
  -11.4203   -0.8003  -24.9006 C   0  0  0  0  0  0  0  0  0  0  0  0
  -10.2389   -0.4742  -25.5152 C   0  0  0  0  0  0  0  0  0  0  0  0
   -9.0201   -0.7821  -24.9402 C   0  0  0  0  0  0  0  0  0  0  0  0
   -7.8063   -0.1852  -25.5592 C   0  0  0  0  0  0  0  0  0  0  0  0
   -7.8967    0.6961  -26.4229 O   0  0  0  0  0  0  0  0  0  0  0  0
  -10.2359    0.0508  -26.4540 H   0  0  0  0  0  0  0  0  0  0  0  0
  -12.3281   -0.4418  -25.3633 H   0  0  0  0  0  0  0  0  0  0  0  0
  -10.1801   -2.2184  -22.0888 H   0  0  0  0  0  0  0  0  0  0  0  0
   -6.7446   -2.7566  -25.0684 H   0  0  0  0  0  0  0  0  0  0  0  0
   -5.5565   -2.0334  -23.9656 H   0  0  0  0  0  0  0  0  0  0  0  0
   -4.5451   -0.4927  -25.1533 H   0  0  0  0  0  0  0  0  0  0  0  0
   -5.4475    0.9510  -25.6689 H   0  0  0  0  0  0  0  0  0  0  0  0
   -6.5434    0.7788  -27.7662 H   0  0  0  0  0  0  0  0  0  0  0  0
   -4.8489   -0.4577  -29.8615 H   0  0  0  0  0  0  0  0  0  0  0  0
   -6.2124    0.6560  -30.0805 H   0  0  0  0  0  0  0  0  0  0  0  0
   -6.5089   -1.0570  -29.6645 H   0  0  0  0  0  0  0  0  0  0  0  0
  1  2  1  0
  2  3  1  0
  3  4  2  0
  3  5  1  0
  5  6  1  0
  6  7  1  0
  8  7  1  6
  8  9  1  0
  9 10  2  0
  9 11  1  0
 11 12  1  0
 12 13  2  0
 13 14  1  0
 14 15  2  0
 15 16  1  0
 16 17  2  0
 17 18  1  0
 18 19  2  0
 19 20  1  0
 20 21  2  0
 20 22  1  0
 19 23  1  0
 18 24  1  0
 17 25  1  0
 15 26  1  0
 13 27  1  0
 11 28  1  0
 28 29  1  0
 29 30  1  0
 30 31  1  0
 31 32  1  0
 32 33  2  0
 33 34  1  0
 34 35  2  0
 35 36  1  0
 36 37  2  0
 36 38  1  0
 34 39  1  0
 33 40  1  0
 31 41  1  0
 30 42  1  0
 30 43  1  0
 29 44  1  1
 28 45  1  0
 28 46  1  0
  8 47  1  0
 47 48  2  0
 48 49  1  0
 49 50  1  0
 49 51  2  0
 51 52  1  0
 52 53  2  0
 53 54  1  0
 54 55  2  0
 52 56  1  0
 51 57  1  0
 48 58  1  0
  7 59  1  0
  7 60  1  0
  5 61  1  0
  5 62  1  0
  2 63  1  0
  1 64  1  0
  1 65  1  0
  1 66  1  0
 54  6  1  0
 29  8  1  0
 37 32  1  0
 53 47  1  0
 21 12  1  0
 21 16  1  0
M  END
>  <cnnaffinities>  (1) 
[6.33912]

>  <score>  (1) 
6.33912

>  <index>  (1) 
0

>  <Smiles>  (1) 
C(N(C(=O)C(N1C([C@@]2(C(=O)N(c3c(nc(c4c(c(c(c(c34)[H])[H])[H])[H])[H])[H])C([C@@]2(C(N(c2c(c(nc(n2)[H])[H])[H])[H])([H])[H])[H])([H])[H])c2c(c(Cl)c(c(c2C1=O)[H])[H])[H])([H])[H])([H])[H])[H])([H])([H])[H]

>  <h>  (1) 
<NA>

>  <Training>  (1) 
True

>  <Success>  (1) 
True

>  <enamine_searched>  (1) 
False

>  <enamine_id>  (1) 
nan

$$$$

     RDKit          3D

 68 73  0  0  0  0  0  0  0  0999 V2000
   -6.9486    3.0040  -22.0466 C   0  0  0  0  0  0  0  0  0  0  0  0
   -7.6612    2.3207  -23.1093 N   0  0  0  0  0  0  0  0  0  0  0  0
   -6.9716    1.6906  -24.0904 C   0  0  0  0  0  0  0  0  0  0  0  0
   -5.7659    1.8213  -24.2542 O   0  0  0  0  0  0  0  0  0  0  0  0
   -7.7940    0.7426  -24.9605 C   0  0  0  0  0  0  0  0  0  0  0  0
   -8.4571   -0.2803  -24.1737 N   0  0  0  0  0  0  0  0  0  0  0  0
   -7.7031   -1.4497  -23.7694 C   0  0  0  0  0  0  0  0  0  0  0  0
   -8.2642   -2.1636  -22.4862 C   0  0  2  0  0  0  0  0  0  0  0  0
   -7.9035   -1.3216  -21.2425 C   0  0  0  0  0  0  0  0  0  0  0  0
   -8.5964   -0.4888  -20.6990 O   0  0  0  0  0  0  0  0  0  0  0  0
   -6.6271   -1.6765  -20.8565 N   0  0  0  0  0  0  0  0  0  0  0  0
   -5.9485   -0.9651  -19.8289 C   0  0  0  0  0  0  0  0  0  0  0  0
   -6.2457   -1.2190  -18.5141 C   0  0  0  0  0  0  0  0  0  0  0  0
   -5.6508   -0.6087  -17.4610 N   0  0  0  0  0  0  0  0  0  0  0  0
   -4.7378    0.2978  -17.7162 C   0  0  0  0  0  0  0  0  0  0  0  0
   -4.3168    0.6617  -19.0283 C   0  0  0  0  0  0  0  0  0  0  0  0
   -3.3173    1.6455  -19.2733 C   0  0  0  0  0  0  0  0  0  0  0  0
   -2.9435    1.9554  -20.5529 C   0  0  0  0  0  0  0  0  0  0  0  0
   -3.5762    1.3296  -21.6482 C   0  0  0  0  0  0  0  0  0  0  0  0
   -4.5645    0.3965  -21.4376 C   0  0  0  0  0  0  0  0  0  0  0  0
   -4.9468    0.0184  -20.1243 C   0  0  0  0  0  0  0  0  0  0  0  0
   -5.0899   -0.0276  -22.2859 H   0  0  0  0  0  0  0  0  0  0  0  0
   -3.3005    1.5926  -22.6633 H   0  0  0  0  0  0  0  0  0  0  0  0
   -2.1665    2.6938  -20.7349 H   0  0  0  0  0  0  0  0  0  0  0  0
   -2.8655    2.1494  -18.4228 H   0  0  0  0  0  0  0  0  0  0  0  0
   -4.2795    0.7917  -16.8596 H   0  0  0  0  0  0  0  0  0  0  0  0
   -7.0088   -1.9535  -18.2646 H   0  0  0  0  0  0  0  0  0  0  0  0
   -6.1547   -2.9089  -21.4809 C   0  0  0  0  0  0  0  0  0  0  0  0
   -7.4177   -3.4426  -22.2088 C   0  0  2  0  0  0  0  0  0  0  0  0
   -7.1449   -4.2557  -23.4715 C   0  0  0  0  0  0  0  0  0  0  0  0
   -6.7606   -5.6443  -23.2703 N   0  0  0  0  0  0  0  0  0  0  0  0
   -6.2154   -6.2232  -24.4287 C   0  0  0  0  0  0  0  0  0  0  0  0
   -6.4373   -5.8753  -25.7872 C   0  0  0  0  0  0  0  0  0  0  0  0
   -5.7484   -6.6533  -26.6129 N   0  0  0  0  0  0  0  0  0  0  0  0
   -5.0877   -7.4963  -25.8176 N   0  0  0  0  0  0  0  0  0  0  0  0
   -4.1228   -8.3903  -26.4086 C   0  0  0  0  0  0  0  0  0  0  0  0
   -3.2941   -7.8230  -26.8431 H   0  0  0  0  0  0  0  0  0  0  0  0
   -3.7235   -9.0533  -25.6415 H   0  0  0  0  0  0  0  0  0  0  0  0
   -4.5985   -8.9824  -27.1917 H   0  0  0  0  0  0  0  0  0  0  0  0
   -5.3359   -7.2867  -24.4978 C   0  0  0  0  0  0  0  0  0  0  0  0
   -4.9224   -7.9324  -23.7295 H   0  0  0  0  0  0  0  0  0  0  0  0
   -7.0584   -5.0843  -26.1943 H   0  0  0  0  0  0  0  0  0  0  0  0
   -6.1582   -5.8200  -22.4735 H   0  0  0  0  0  0  0  0  0  0  0  0
   -6.3731   -3.7533  -24.0817 H   0  0  0  0  0  0  0  0  0  0  0  0
   -8.0644   -4.2752  -24.0713 H   0  0  0  0  0  0  0  0  0  0  0  0
   -7.9820   -4.0678  -21.5099 H   0  0  0  0  0  0  0  0  0  0  0  0
   -5.3352   -2.6978  -22.1873 H   0  0  0  0  0  0  0  0  0  0  0  0
   -5.7604   -3.5958  -20.7232 H   0  0  0  0  0  0  0  0  0  0  0  0
   -9.7762   -2.2853  -22.5913 C   0  0  0  0  0  0  0  0  0  0  0  0
  -10.5679   -3.0711  -21.7334 C   0  0  0  0  0  0  0  0  0  0  0  0
  -11.9572   -2.9310  -21.7576 C   0  0  0  0  0  0  0  0  0  0  0  0
  -13.0154   -3.4648  -20.4803 Cl  0  0  0  0  0  0  0  0  0  0  0  0
  -12.5986   -2.2026  -22.7539 C   0  0  0  0  0  0  0  0  0  0  0  0
  -11.8199   -1.4435  -23.5899 C   0  0  0  0  0  0  0  0  0  0  0  0
  -10.4519   -1.3706  -23.4017 C   0  0  0  0  0  0  0  0  0  0  0  0
   -9.7852   -0.1585  -23.9544 C   0  0  0  0  0  0  0  0  0  0  0  0
  -10.3759    0.8987  -24.1613 O   0  0  0  0  0  0  0  0  0  0  0  0
  -12.2180   -0.6779  -24.2483 H   0  0  0  0  0  0  0  0  0  0  0  0
  -13.6837   -2.1485  -22.7671 H   0  0  0  0  0  0  0  0  0  0  0  0
  -10.1065   -3.7594  -21.0372 H   0  0  0  0  0  0  0  0  0  0  0  0
   -7.6741   -2.1272  -24.6289 H   0  0  0  0  0  0  0  0  0  0  0  0
   -6.6782   -1.1156  -23.5780 H   0  0  0  0  0  0  0  0  0  0  0  0
   -7.1204    0.2893  -25.6877 H   0  0  0  0  0  0  0  0  0  0  0  0
   -8.5781    1.2926  -25.4878 H   0  0  0  0  0  0  0  0  0  0  0  0
   -8.6465    2.1068  -22.9789 H   0  0  0  0  0  0  0  0  0  0  0  0
   -6.5694    2.2932  -21.2944 H   0  0  0  0  0  0  0  0  0  0  0  0
   -7.6024    3.7412  -21.5723 H   0  0  0  0  0  0  0  0  0  0  0  0
   -6.0862    3.5155  -22.4795 H   0  0  0  0  0  0  0  0  0  0  0  0
  1  2  1  0
  2  3  1  0
  3  4  2  0
  3  5  1  0
  5  6  1  0
  6  7  1  0
  8  7  1  6
  8  9  1  0
  9 10  2  0
  9 11  1  0
 11 12  1  0
 12 13  2  0
 13 14  1  0
 14 15  2  0
 15 16  1  0
 16 17  2  0
 17 18  1  0
 18 19  2  0
 19 20  1  0
 20 21  2  0
 20 22  1  0
 19 23  1  0
 18 24  1  0
 17 25  1  0
 15 26  1  0
 13 27  1  0
 11 28  1  0
 28 29  1  0
 29 30  1  0
 30 31  1  0
 31 32  1  0
 32 33  1  0
 33 34  2  0
 34 35  1  0
 35 36  1  0
 36 37  1  0
 36 38  1  0
 36 39  1  0
 35 40  1  0
 40 41  1  0
 33 42  1  0
 31 43  1  0
 30 44  1  0
 30 45  1  0
 29 46  1  1
 28 47  1  0
 28 48  1  0
  8 49  1  0
 49 50  2  0
 50 51  1  0
 51 52  1  0
 51 53  2  0
 53 54  1  0
 54 55  2  0
 55 56  1  0
 56 57  2  0
 54 58  1  0
 53 59  1  0
 50 60  1  0
  7 61  1  0
  7 62  1  0
  5 63  1  0
  5 64  1  0
  2 65  1  0
  1 66  1  0
  1 67  1  0
  1 68  1  0
 56  6  1  0
 29  8  1  0
 40 32  2  0
 55 49  1  0
 21 12  1  0
 21 16  1  0
M  END
>  <cnnaffinities>  (2) 
[7.11271, 6.92623]

>  <score>  (2) 
7.11271

>  <index>  (2) 
1

>  <Smiles>  (2) 
C(N(C(=O)C(N1C([C@@]2(C(=O)N(c3c(nc(c4c(c(c(c(c34)[H])[H])[H])[H])[H])[H])C([C@@]2(C(N(c2c(nn(C([H])([H])[H])c2[H])[H])[H])([H])[H])[H])([H])[H])c2c(c(Cl)c(c(c2C1=O)[H])[H])[H])([H])[H])([H])[H])[H])([H])([H])[H]

>  <h>  (2) 
<NA>

>  <Training>  (2) 
True

>  <Success>  (2) 
True

>  <enamine_searched>  (2) 
False

>  <enamine_id>  (2) 
nan

$$$$

     RDKit          3D

 60 65  0  0  0  0  0  0  0  0999 V2000
   -5.5275   -1.2601  -31.1684 C   0  0  0  0  0  0  0  0  0  0  0  0
   -5.1394   -1.0023  -29.7410 C   0  0  0  0  0  0  0  0  0  0  0  0
   -5.0320    0.2914  -29.2237 C   0  0  0  0  0  0  0  0  0  0  0  0
   -4.9680    0.5295  -27.9196 N   0  0  0  0  0  0  0  0  0  0  0  0
   -4.9529   -0.5322  -27.1099 C   0  0  0  0  0  0  0  0  0  0  0  0
   -5.1319   -0.2726  -25.6319 C   0  0  0  0  0  0  0  0  0  0  0  0
   -6.3318   -0.8923  -25.0760 N   0  0  0  0  0  0  0  0  0  0  0  0
   -6.2477   -2.0777  -24.2251 C   0  0  0  0  0  0  0  0  0  0  0  0
   -7.4204   -2.1880  -23.1947 C   0  0  2  0  0  0  0  0  0  0  0  0
   -7.2324   -1.1714  -22.0459 C   0  0  0  0  0  0  0  0  0  0  0  0
   -7.6556   -0.0396  -21.9873 O   0  0  0  0  0  0  0  0  0  0  0  0
   -6.4978   -1.7973  -21.0619 N   0  0  0  0  0  0  0  0  0  0  0  0
   -6.0076   -1.0562  -19.9671 C   0  0  0  0  0  0  0  0  0  0  0  0
   -6.4530   -1.2874  -18.6901 C   0  0  0  0  0  0  0  0  0  0  0  0
   -5.9934   -0.6380  -17.5915 N   0  0  0  0  0  0  0  0  0  0  0  0
   -5.0455    0.2549  -17.7566 C   0  0  0  0  0  0  0  0  0  0  0  0
   -4.4855    0.5832  -19.0267 C   0  0  0  0  0  0  0  0  0  0  0  0
   -3.4158    1.5111  -19.1726 C   0  0  0  0  0  0  0  0  0  0  0  0
   -2.9471    1.8380  -20.4172 C   0  0  0  0  0  0  0  0  0  0  0  0
   -3.5447    1.2873  -21.5758 C   0  0  0  0  0  0  0  0  0  0  0  0
   -4.5660    0.3819  -21.4570 C   0  0  0  0  0  0  0  0  0  0  0  0
   -5.0256   -0.0358  -20.1736 C   0  0  0  0  0  0  0  0  0  0  0  0
   -5.0562   -0.0020  -22.3458 H   0  0  0  0  0  0  0  0  0  0  0  0
   -3.1974    1.5919  -22.5617 H   0  0  0  0  0  0  0  0  0  0  0  0
   -2.1216    2.5359  -20.5283 H   0  0  0  0  0  0  0  0  0  0  0  0
   -2.9829    1.9550  -18.2788 H   0  0  0  0  0  0  0  0  0  0  0  0
   -4.6835    0.7686  -16.8622 H   0  0  0  0  0  0  0  0  0  0  0  0
   -7.2465   -2.0161  -18.5234 H   0  0  0  0  0  0  0  0  0  0  0  0
   -6.2540   -3.2094  -21.3357 C   0  0  0  0  0  0  0  0  0  0  0  0
   -7.3529   -3.5131  -22.3679 C   0  0  2  0  0  0  0  0  0  0  0  0
   -7.2012   -4.8081  -23.1604 C   0  0  0  0  0  0  0  0  0  0  0  0
   -8.0148   -4.9176  -23.8873 H   0  0  0  0  0  0  0  0  0  0  0  0
   -6.2475   -4.8344  -23.7013 H   0  0  0  0  0  0  0  0  0  0  0  0
   -7.2323   -5.6919  -22.5143 H   0  0  0  0  0  0  0  0  0  0  0  0
   -8.2716   -3.5593  -21.7673 H   0  0  0  0  0  0  0  0  0  0  0  0
   -5.2452   -3.3836  -21.7426 H   0  0  0  0  0  0  0  0  0  0  0  0
   -6.3290   -3.7949  -20.4178 H   0  0  0  0  0  0  0  0  0  0  0  0
   -8.7176   -1.8713  -23.8821 C   0  0  0  0  0  0  0  0  0  0  0  0
   -9.9352   -2.3034  -23.3496 C   0  0  0  0  0  0  0  0  0  0  0  0
  -11.1157   -1.7932  -23.8515 C   0  0  0  0  0  0  0  0  0  0  0  0
  -12.2541   -2.1831  -23.2516 F   0  0  0  0  0  0  0  0  0  0  0  0
  -11.1630   -0.8749  -24.9007 C   0  0  0  0  0  0  0  0  0  0  0  0
   -9.9565   -0.4720  -25.4405 C   0  0  0  0  0  0  0  0  0  0  0  0
   -8.7516   -0.9566  -24.9372 C   0  0  0  0  0  0  0  0  0  0  0  0
   -7.5102   -0.3770  -25.5234 C   0  0  0  0  0  0  0  0  0  0  0  0
   -7.5614    0.5196  -26.3568 O   0  0  0  0  0  0  0  0  0  0  0  0
   -9.8972    0.2507  -26.2443 H   0  0  0  0  0  0  0  0  0  0  0  0
  -12.1049   -0.4873  -25.2809 H   0  0  0  0  0  0  0  0  0  0  0  0
   -9.9870   -3.0235  -22.5412 H   0  0  0  0  0  0  0  0  0  0  0  0
   -6.2427   -2.9761  -24.8569 H   0  0  0  0  0  0  0  0  0  0  0  0
   -5.2882   -2.0513  -23.6950 H   0  0  0  0  0  0  0  0  0  0  0  0
   -5.2338    0.8079  -25.5013 H   0  0  0  0  0  0  0  0  0  0  0  0
   -4.2683   -0.6159  -25.0573 H   0  0  0  0  0  0  0  0  0  0  0  0
   -4.8035   -1.8145  -27.6464 C   0  0  0  0  0  0  0  0  0  0  0  0
   -4.9313   -2.0599  -28.9489 N   0  0  0  0  0  0  0  0  0  0  0  0
   -4.5983   -2.6780  -27.0151 H   0  0  0  0  0  0  0  0  0  0  0  0
   -5.0181    1.1551  -29.8868 H   0  0  0  0  0  0  0  0  0  0  0  0
   -6.5805   -1.5705  -31.2018 H   0  0  0  0  0  0  0  0  0  0  0  0
   -4.9281   -2.0733  -31.5875 H   0  0  0  0  0  0  0  0  0  0  0  0
   -5.4156   -0.3601  -31.7824 H   0  0  0  0  0  0  0  0  0  0  0  0
  1  2  1  0
  2  3  2  0
  3  4  1  0
  4  5  2  0
  5  6  1  0
  6  7  1  0
  7  8  1  0
  9  8  1  6
  9 10  1  0
 10 11  2  0
 10 12  1  0
 12 13  1  0
 13 14  2  0
 14 15  1  0
 15 16  2  0
 16 17  1  0
 17 18  2  0
 18 19  1  0
 19 20  2  0
 20 21  1  0
 21 22  2  0
 21 23  1  0
 20 24  1  0
 19 25  1  0
 18 26  1  0
 16 27  1  0
 14 28  1  0
 12 29  1  0
 29 30  1  0
 30 31  1  0
 31 32  1  0
 31 33  1  0
 31 34  1  0
 30 35  1  1
 29 36  1  0
 29 37  1  0
  9 38  1  0
 38 39  2  0
 39 40  1  0
 40 41  1  0
 40 42  2  0
 42 43  1  0
 43 44  2  0
 44 45  1  0
 45 46  2  0
 43 47  1  0
 42 48  1  0
 39 49  1  0
  8 50  1  0
  8 51  1  0
  6 52  1  0
  6 53  1  0
  5 54  1  0
 54 55  2  0
 54 56  1  0
  3 57  1  0
  1 58  1  0
  1 59  1  0
  1 60  1  0
 55  2  1  0
 45  7  1  0
 30  9  1  0
 44 38  1  0
 22 13  1  0
 22 17  1  0
M  END
>  <cnnaffinities>  (3) 
[6.17434, 5.92307]

>  <score>  (3) 
6.17434

>  <index>  (3) 
2

>  <Smiles>  (3) 
C(c1c(nc(C(N2C([C@@]3(C(=O)N(c4c(nc(c5c(c(c(c(c45)[H])[H])[H])[H])[H])[H])C([C@@]3(C([H])([H])[H])[H])([H])[H])c3c(c(F)c(c(c3C2=O)[H])[H])[H])([H])[H])([H])[H])c(n1)[H])[H])([H])([H])[H]

>  <h>  (3) 
<NA>

>  <Training>  (3) 
True

>  <Success>  (3) 
True

>  <enamine_searched>  (3) 
False

>  <enamine_id>  (3) 
nan

$$$$

     RDKit          3D

 66 70  0  0  0  0  0  0  0  0999 V2000
   -8.3612   -5.6754  -27.9214 C   0  0  0  0  0  0  0  0  0  0  0  0
   -8.6470   -4.2728  -27.7129 N   0  0  0  0  0  0  0  0  0  0  0  0
   -7.7913   -3.5073  -26.9777 C   0  0  0  0  0  0  0  0  0  0  0  0
   -6.7009   -3.9050  -26.5947 O   0  0  0  0  0  0  0  0  0  0  0  0
   -8.2755   -2.0787  -26.6764 C   0  0  0  0  0  0  0  0  0  0  0  0
   -8.7915   -1.9347  -25.3163 N   0  0  0  0  0  0  0  0  0  0  0  0
   -7.9533   -1.3601  -24.2697 C   0  0  0  0  0  0  0  0  0  0  0  0
   -8.5005   -1.7854  -22.8707 C   0  0  2  0  0  0  0  0  0  0  0  0
   -7.9255   -0.8500  -21.7737 C   0  0  0  0  0  0  0  0  0  0  0  0
   -8.2130    0.3019  -21.5435 O   0  0  0  0  0  0  0  0  0  0  0  0
   -6.9700   -1.5561  -21.0646 N   0  0  0  0  0  0  0  0  0  0  0  0
   -6.2328   -0.9335  -20.0236 C   0  0  0  0  0  0  0  0  0  0  0  0
   -6.5707   -1.1808  -18.7191 C   0  0  0  0  0  0  0  0  0  0  0  0
   -5.9720   -0.5951  -17.6522 N   0  0  0  0  0  0  0  0  0  0  0  0
   -5.0090    0.2624  -17.8979 C   0  0  0  0  0  0  0  0  0  0  0  0
   -4.5309    0.5757  -19.2031 C   0  0  0  0  0  0  0  0  0  0  0  0
   -3.4542    1.4795  -19.4084 C   0  0  0  0  0  0  0  0  0  0  0  0
   -3.0040    1.7365  -20.6752 C   0  0  0  0  0  0  0  0  0  0  0  0
   -3.5941    1.0949  -21.7898 C   0  0  0  0  0  0  0  0  0  0  0  0
   -4.6379    0.2182  -21.6165 C   0  0  0  0  0  0  0  0  0  0  0  0
   -5.1444   -0.0506  -20.3114 C   0  0  0  0  0  0  0  0  0  0  0  0
   -5.0799   -0.2788  -22.4767 H   0  0  0  0  0  0  0  0  0  0  0  0
   -3.2213    1.3003  -22.7895 H   0  0  0  0  0  0  0  0  0  0  0  0
   -2.1906    2.4388  -20.8339 H   0  0  0  0  0  0  0  0  0  0  0  0
   -3.0098    1.9546  -18.5364 H   0  0  0  0  0  0  0  0  0  0  0  0
   -4.5459    0.7561  -17.0424 H   0  0  0  0  0  0  0  0  0  0  0  0
   -7.3725   -1.8835  -18.4873 H   0  0  0  0  0  0  0  0  0  0  0  0
   -6.6668   -2.8607  -21.6077 C   0  0  0  0  0  0  0  0  0  0  0  0
   -7.9295   -3.1872  -22.4171 C   0  0  2  0  0  0  0  0  0  0  0  0
   -7.6955   -4.2519  -23.4850 C   0  0  0  0  0  0  0  0  0  0  0  0
   -7.6326   -5.4953  -22.8173 O   0  0  0  0  0  0  0  0  0  0  0  0
   -7.4601   -6.6177  -23.6636 C   0  0  0  0  0  0  0  0  0  0  0  0
   -6.8020   -7.6863  -22.8009 C   0  0  0  0  0  0  0  0  0  0  0  0
   -5.9392   -7.2630  -22.2794 H   0  0  0  0  0  0  0  0  0  0  0  0
   -6.4477   -8.5299  -23.3949 H   0  0  0  0  0  0  0  0  0  0  0  0
   -7.5080   -8.0579  -22.0513 H   0  0  0  0  0  0  0  0  0  0  0  0
   -8.7941   -7.0776  -24.2588 C   0  0  0  0  0  0  0  0  0  0  0  0
   -8.6276   -7.8311  -25.0375 H   0  0  0  0  0  0  0  0  0  0  0  0
   -9.3441   -6.2365  -24.7015 H   0  0  0  0  0  0  0  0  0  0  0  0
   -9.4306   -7.5186  -23.4848 H   0  0  0  0  0  0  0  0  0  0  0  0
   -6.7792   -6.3473  -24.4892 H   0  0  0  0  0  0  0  0  0  0  0  0
   -8.5159   -4.2502  -24.2143 H   0  0  0  0  0  0  0  0  0  0  0  0
   -6.7663   -4.0575  -24.0479 H   0  0  0  0  0  0  0  0  0  0  0  0
   -8.6376   -3.6341  -21.7150 H   0  0  0  0  0  0  0  0  0  0  0  0
   -5.7753   -2.8287  -22.2593 H   0  0  0  0  0  0  0  0  0  0  0  0
   -6.4814   -3.5855  -20.8078 H   0  0  0  0  0  0  0  0  0  0  0  0
  -10.0024   -1.7733  -22.8315 C   0  0  0  0  0  0  0  0  0  0  0  0
  -10.6879   -2.3135  -21.7831 C   0  0  0  0  0  0  0  0  0  0  0  0
  -12.1365   -2.5296  -21.9019 C   0  0  0  0  0  0  0  0  0  0  0  0
  -13.0789   -3.1859  -20.5851 Cl  0  0  0  0  0  0  0  0  0  0  0  0
  -12.6679   -2.1003  -23.0423 C   0  0  0  0  0  0  0  0  0  0  0  0
  -11.5108   -1.2459  -24.0562 C   0  0  0  0  0  0  0  0  0  0  0  0
  -11.5145   -1.0251  -24.0854 C   0  0  0  0  0  0  0  0  0  0  0  0
  -10.1697   -2.2918  -25.1229 C   0  0  0  0  0  0  0  0  0  0  0  0
  -10.5435   -3.2961  -25.7116 O   0  0  0  0  0  0  0  0  0  0  0  0
  -11.7977   -0.6665  -25.1749 H   0  0  0  0  0  0  0  0  0  0  0  0
  -13.7352   -2.1722  -23.3268 H   0  0  0  0  0  0  0  0  0  0  0  0
  -10.1792   -2.5613  -20.8540 H   0  0  0  0  0  0  0  0  0  0  0  0
   -6.9172   -1.7223  -24.4044 H   0  0  0  0  0  0  0  0  0  0  0  0
   -7.9108   -0.2620  -24.3235 H   0  0  0  0  0  0  0  0  0  0  0  0
   -9.0479   -1.7739  -27.3954 H   0  0  0  0  0  0  0  0  0  0  0  0
   -7.4114   -1.4123  -26.7980 H   0  0  0  0  0  0  0  0  0  0  0  0
   -9.6227   -4.0108  -27.6939 H   0  0  0  0  0  0  0  0  0  0  0  0
   -8.5294   -6.2602  -27.0072 H   0  0  0  0  0  0  0  0  0  0  0  0
   -9.0047   -6.0647  -28.7153 H   0  0  0  0  0  0  0  0  0  0  0  0
   -7.3139   -5.7892  -28.2116 H   0  0  0  0  0  0  0  0  0  0  0  0
  1  2  1  0
  2  3  1  0
  3  4  2  0
  3  5  1  0
  5  6  1  0
  6  7  1  0
  8  7  1  6
  8  9  1  0
  9 10  2  0
  9 11  1  0
 11 12  1  0
 12 13  2  0
 13 14  1  0
 14 15  2  0
 15 16  1  0
 16 17  2  0
 17 18  1  0
 18 19  2  0
 19 20  1  0
 20 21  2  0
 20 22  1  0
 19 23  1  0
 18 24  1  0
 17 25  1  0
 15 26  1  0
 13 27  1  0
 11 28  1  0
 28 29  1  0
 29 30  1  0
 30 31  1  0
 31 32  1  0
 32 33  1  0
 33 34  1  0
 33 35  1  0
 33 36  1  0
 32 37  1  0
 37 38  1  0
 37 39  1  0
 37 40  1  0
 32 41  1  0
 30 42  1  0
 30 43  1  0
 29 44  1  1
 28 45  1  0
 28 46  1  0
  8 47  1  0
 47 48  2  0
 48 49  1  0
 49 50  1  0
 49 51  2  0
 51 52  1  0
 52 53  2  0
 53 54  1  0
 54 55  2  0
 52 56  1  0
 51 57  1  0
 48 58  1  0
  7 59  1  0
  7 60  1  0
  5 61  1  0
  5 62  1  0
  2 63  1  0
  1 64  1  0
  1 65  1  0
  1 66  1  0
 54  6  1  0
 29  8  1  0
 53 47  1  0
 21 12  1  0
 21 16  1  0
M  END
>  <cnnaffinities>  (4) 
[7.03477]

>  <score>  (4) 
7.03477

>  <index>  (4) 
3

>  <Smiles>  (4) 
C(N(C(=O)C(N1C([C@@]2(C(=O)N(c3c(nc(c4c(c(c(c(c34)[H])[H])[H])[H])[H])[H])C([C@@]2(C(OC(C([H])([H])[H])(C([H])([H])[H])[H])([H])[H])[H])([H])[H])c2c(c(Cl)c(c(c2C1=O)[H])[H])[H])([H])[H])([H])[H])[H])([H])([H])[H]

>  <h>  (4) 
<NA>

>  <Training>  (4) 
True

>  <Success>  (4) 
True

>  <enamine_searched>  (4) 
False

>  <enamine_id>  (4) 
nan

$$$$

     RDKit          3D

 59 64  0  0  0  0  0  0  0  0999 V2000
  -10.2012   -2.9665  -22.0723 C   0  0  0  0  0  0  0  0  0  0  0  0
   -9.1441   -2.0108  -22.6420 C   0  0  1  0  0  0  0  0  0  0  0  0
   -8.6755   -1.0166  -21.5615 C   0  0  0  0  0  0  0  0  0  0  0  0
   -7.3501   -1.4681  -21.2055 N   0  0  0  0  0  0  0  0  0  0  0  0
   -6.5756   -0.8603  -20.1983 C   0  0  0  0  0  0  0  0  0  0  0  0
   -6.9191   -1.0636  -18.8877 C   0  0  0  0  0  0  0  0  0  0  0  0
   -6.2388   -0.5645  -17.8322 N   0  0  0  0  0  0  0  0  0  0  0  0
   -5.1989    0.1901  -18.1010 C   0  0  0  0  0  0  0  0  0  0  0  0
   -4.7526    0.4994  -19.4185 C   0  0  0  0  0  0  0  0  0  0  0  0
   -3.6307    1.3408  -19.6356 C   0  0  0  0  0  0  0  0  0  0  0  0
   -3.2366    1.6502  -20.9072 C   0  0  0  0  0  0  0  0  0  0  0  0
   -3.9472    1.1422  -22.0178 C   0  0  0  0  0  0  0  0  0  0  0  0
   -5.0370    0.3241  -21.8404 C   0  0  0  0  0  0  0  0  0  0  0  0
   -5.4575   -0.0286  -20.5194 C   0  0  0  0  0  0  0  0  0  0  0  0
   -5.5781   -0.0458  -22.7120 H   0  0  0  0  0  0  0  0  0  0  0  0
   -3.6265    1.4119  -23.0204 H   0  0  0  0  0  0  0  0  0  0  0  0
   -2.3841    2.3029  -21.0714 H   0  0  0  0  0  0  0  0  0  0  0  0
   -3.1121    1.7395  -18.7691 H   0  0  0  0  0  0  0  0  0  0  0  0
   -4.6509    0.6021  -17.2549 H   0  0  0  0  0  0  0  0  0  0  0  0
   -7.7819   -1.6895  -18.6635 H   0  0  0  0  0  0  0  0  0  0  0  0
   -6.8292   -2.4358  -22.0245 C   0  0  0  0  0  0  0  0  0  0  0  0
   -5.7559   -2.9793  -21.8460 O   0  0  0  0  0  0  0  0  0  0  0  0
   -7.8357   -2.6797  -23.1678 C   0  0  1  0  0  0  0  0  0  0  0  0
   -7.9739   -4.1901  -23.3997 C   0  0  0  0  0  0  0  0  0  0  0  0
   -6.7629   -4.7335  -23.9885 N   0  0  0  0  0  0  0  0  0  0  0  0
   -6.2184   -5.9347  -23.3822 C   0  0  0  0  0  0  0  0  0  0  0  0
   -7.2685   -7.0061  -23.4117 C   0  0  0  0  0  0  0  0  0  0  0  0
   -7.9431   -7.5031  -22.3970 N   0  0  0  0  0  0  0  0  0  0  0  0
   -8.9095   -8.2927  -22.9818 C   0  0  0  0  0  0  0  0  0  0  0  0
   -8.8323   -8.2325  -24.3341 C   0  0  0  0  0  0  0  0  0  0  0  0
   -7.7646   -7.4256  -24.6131 N   0  0  0  0  0  0  0  0  0  0  0  0
   -7.2456   -7.2207  -25.9484 C   0  0  0  0  0  0  0  0  0  0  0  0
   -7.7527   -7.9162  -26.6196 H   0  0  0  0  0  0  0  0  0  0  0  0
   -7.4450   -6.2105  -26.3083 H   0  0  0  0  0  0  0  0  0  0  0  0
   -6.1745   -7.4213  -25.9610 H   0  0  0  0  0  0  0  0  0  0  0  0
   -9.4486   -8.6456  -25.1187 H   0  0  0  0  0  0  0  0  0  0  0  0
   -9.6411   -8.8374  -22.4051 H   0  0  0  0  0  0  0  0  0  0  0  0
   -5.3240   -6.2102  -23.9462 H   0  0  0  0  0  0  0  0  0  0  0  0
   -5.9238   -5.6832  -22.3598 H   0  0  0  0  0  0  0  0  0  0  0  0
   -6.1709   -4.1793  -25.0805 C   0  0  0  0  0  0  0  0  0  0  0  0
   -5.3507   -4.7647  -25.7740 O   0  0  0  0  0  0  0  0  0  0  0  0
   -6.5840   -2.7751  -25.3800 C   0  0  0  0  0  0  0  0  0  0  0  0
   -6.1335   -2.2104  -26.5731 C   0  0  0  0  0  0  0  0  0  0  0  0
   -6.3790   -0.8831  -26.8582 C   0  0  0  0  0  0  0  0  0  0  0  0
   -7.0819   -0.1396  -25.9165 C   0  0  0  0  0  0  0  0  0  0  0  0
   -7.3172    1.1582  -26.1779 F   0  0  0  0  0  0  0  0  0  0  0  0
   -7.5567   -0.6811  -24.7354 C   0  0  0  0  0  0  0  0  0  0  0  0
   -7.3317   -2.0368  -24.4582 C   0  0  0  0  0  0  0  0  0  0  0  0
   -8.1145   -0.0362  -24.0634 H   0  0  0  0  0  0  0  0  0  0  0  0
   -6.0240   -0.4164  -27.7716 H   0  0  0  0  0  0  0  0  0  0  0  0
   -5.5772   -2.8463  -27.2528 H   0  0  0  0  0  0  0  0  0  0  0  0
   -8.8514   -4.3807  -24.0342 H   0  0  0  0  0  0  0  0  0  0  0  0
   -8.1346   -4.6958  -22.4487 H   0  0  0  0  0  0  0  0  0  0  0  0
   -9.3281   -1.0430  -20.6911 H   0  0  0  0  0  0  0  0  0  0  0  0
   -8.6608    0.0211  -21.9220 H   0  0  0  0  0  0  0  0  0  0  0  0
   -9.6231   -1.4830  -23.4741 H   0  0  0  0  0  0  0  0  0  0  0  0
   -9.8041   -3.5615  -21.2411 H   0  0  0  0  0  0  0  0  0  0  0  0
  -10.5749   -3.6514  -22.8400 H   0  0  0  0  0  0  0  0  0  0  0  0
  -11.0551   -2.3898  -21.7003 H   0  0  0  0  0  0  0  0  0  0  0  0
  1  2  1  0
  2  3  1  0
  3  4  1  0
  4  5  1  0
  5  6  2  0
  6  7  1  0
  7  8  2  0
  8  9  1  0
  9 10  2  0
 10 11  1  0
 11 12  2  0
 12 13  1  0
 13 14  2  0
 13 15  1  0
 12 16  1  0
 11 17  1  0
 10 18  1  0
  8 19  1  0
  6 20  1  0
  4 21  1  0
 21 22  2  0
 21 23  1  0
 23 24  1  6
 24 25  1  0
 25 26  1  0
 26 27  1  0
 27 28  2  0
 28 29  1  0
 29 30  2  0
 30 31  1  0
 31 32  1  0
 32 33  1  0
 32 34  1  0
 32 35  1  0
 30 36  1  0
 29 37  1  0
 26 38  1  0
 26 39  1  0
 25 40  1  0
 40 41  2  0
 40 42  1  0
 42 43  2  0
 43 44  1  0
 44 45  2  0
 45 46  1  0
 45 47  1  0
 47 48  2  0
 47 49  1  0
 44 50  1  0
 43 51  1  0
 24 52  1  0
 24 53  1  0
  3 54  1  0
  3 55  1  0
  2 56  1  6
  1 57  1  0
  1 58  1  0
  1 59  1  0
 23  2  1  0
 31 27  1  0
 48 42  1  0
 14  5  1  0
 48 23  1  0
 14  9  1  0
M  END
>  <cnnaffinities>  (5) 
[6.12761]

>  <score>  (5) 
6.12761

>  <index>  (5) 
4

>  <Smiles>  (5) 
C([C@]1(C(N(c2c(nc(c3c(c(c(c(c23)[H])[H])[H])[H])[H])[H])C(=O)[C@]21C(N(C(c1nc(c(n1C([H])([H])[H])[H])[H])([H])[H])C(=O)c1c(c(c(F)c(c21)[H])[H])[H])([H])[H])([H])[H])[H])([H])([H])[H]

>  <h>  (5) 
<NA>

>  <Training>  (5) 
True

>  <Success>  (5) 
True

>  <enamine_searched>  (5) 
False

>  <enamine_id>  (5) 
nan

$$$$

     RDKit          3D

 58 61  0  0  0  0  0  0  0  0999 V2000
   -5.7613   -3.3081  -23.5165 C   0  0  0  0  0  0  0  0  0  0  0  0
   -6.1433   -3.2580  -22.2444 C   0  0  0  0  0  0  0  0  0  0  0  0
   -7.3989   -2.9154  -21.5240 C   0  0  0  0  0  0  0  0  0  0  0  0
   -7.4157   -1.4813  -21.2306 N   0  0  0  0  0  0  0  0  0  0  0  0
   -8.2859   -0.5302  -21.7852 C   0  0  0  0  0  0  0  0  0  0  0  0
   -8.5705    0.4687  -21.1522 O   0  0  0  0  0  0  0  0  0  0  0  0
   -8.7321   -0.7531  -23.2258 C   0  0  2  0  0  0  0  0  0  0  0  0
   -8.4387    0.4839  -24.0662 C   0  0  0  0  0  0  0  0  0  0  0  0
   -8.7711    0.1732  -25.4588 N   0  0  0  0  0  0  0  0  0  0  0  0
   -7.8950    0.7708  -26.4633 C   0  0  0  0  0  0  0  0  0  0  0  0
   -6.7491   -0.1082  -27.0235 C   0  0  0  0  0  0  0  0  0  0  0  0
   -6.5914   -0.2687  -28.2230 O   0  0  0  0  0  0  0  0  0  0  0  0
   -5.9128   -0.6837  -26.1158 N   0  0  0  0  0  0  0  0  0  0  0  0
   -4.9013   -1.6120  -26.5782 C   0  0  0  0  0  0  0  0  0  0  0  0
   -4.4145   -1.2233  -27.4727 H   0  0  0  0  0  0  0  0  0  0  0  0
   -4.1559   -1.7536  -25.7944 H   0  0  0  0  0  0  0  0  0  0  0  0
   -5.3366   -2.5816  -26.8451 H   0  0  0  0  0  0  0  0  0  0  0  0
   -5.9568   -0.4599  -25.1343 H   0  0  0  0  0  0  0  0  0  0  0  0
   -8.4632    1.1026  -27.3370 H   0  0  0  0  0  0  0  0  0  0  0  0
   -7.4435    1.6694  -26.0111 H   0  0  0  0  0  0  0  0  0  0  0  0
   -9.8453   -0.6158  -25.9454 C   0  0  0  0  0  0  0  0  0  0  0  0
   -9.7182   -1.0725  -27.0772 O   0  0  0  0  0  0  0  0  0  0  0  0
  -10.8814   -0.5024  -24.8001 C   0  0  0  0  0  0  0  0  0  0  0  0
  -11.2200   -0.7582  -24.8862 C   0  0  0  0  0  0  0  0  0  0  0  0
  -11.1691   -2.9072  -23.1171 C   0  0  0  0  0  0  0  0  0  0  0  0
  -12.3303   -2.5088  -22.5088 C   0  0  0  0  0  0  0  0  0  0  0  0
  -13.0106   -3.2425  -21.0887 Cl  0  0  0  0  0  0  0  0  0  0  0  0
  -10.7423   -1.8641  -22.3478 C   0  0  0  0  0  0  0  0  0  0  0  0
  -10.2126   -1.0519  -23.4198 C   0  0  0  0  0  0  0  0  0  0  0  0
  -10.3397   -1.8073  -21.3228 H   0  0  0  0  0  0  0  0  0  0  0  0
  -13.0572   -1.9212  -23.0785 H   0  0  0  0  0  0  0  0  0  0  0  0
  -11.5556   -1.7591  -25.1323 H   0  0  0  0  0  0  0  0  0  0  0  0
   -9.0111    1.3429  -23.6833 H   0  0  0  0  0  0  0  0  0  0  0  0
   -7.3796    0.7648  -24.0106 H   0  0  0  0  0  0  0  0  0  0  0  0
   -8.1762   -1.6056  -23.6271 H   0  0  0  0  0  0  0  0  0  0  0  0
   -6.5766   -1.0202  -20.1802 C   0  0  0  0  0  0  0  0  0  0  0  0
   -6.9064   -1.2443  -18.8684 C   0  0  0  0  0  0  0  0  0  0  0  0
   -6.2343   -0.7266  -17.8130 N   0  0  0  0  0  0  0  0  0  0  0  0
   -5.2087    0.0518  -18.0625 C   0  0  0  0  0  0  0  0  0  0  0  0
   -4.7488    0.3530  -19.3738 C   0  0  0  0  0  0  0  0  0  0  0  0
   -3.6458    1.2201  -19.6034 C   0  0  0  0  0  0  0  0  0  0  0  0
   -3.2383    1.5038  -20.8779 C   0  0  0  0  0  0  0  0  0  0  0  0
   -3.8983    0.9177  -21.9831 C   0  0  0  0  0  0  0  0  0  0  0  0
   -4.9602    0.0676  -21.7839 C   0  0  0  0  0  0  0  0  0  0  0  0
   -5.4327   -0.2136  -20.4724 C   0  0  0  0  0  0  0  0  0  0  0  0
   -5.4655   -0.3947  -22.6290 H   0  0  0  0  0  0  0  0  0  0  0  0
   -3.5702    1.1524  -22.9918 H   0  0  0  0  0  0  0  0  0  0  0  0
   -2.4129    2.1907  -21.0499 H   0  0  0  0  0  0  0  0  0  0  0  0
   -3.1534    1.6670  -18.7428 H   0  0  0  0  0  0  0  0  0  0  0  0
   -4.6864    0.4787  -17.2062 H   0  0  0  0  0  0  0  0  0  0  0  0
   -7.7524   -1.8861  -18.6175 H   0  0  0  0  0  0  0  0  0  0  0  0
   -7.2559   -3.4077  -20.5586 H   0  0  0  0  0  0  0  0  0  0  0  0
   -8.3184   -3.2445  -22.0129 H   0  0  0  0  0  0  0  0  0  0  0  0
   -5.0746   -3.5301  -21.2082 C   0  0  0  0  0  0  0  0  0  0  0  0
   -3.9439   -3.7160  -21.6908 O   0  0  0  0  0  0  0  0  0  0  0  0
   -5.4454   -3.6427  -20.0207 O   0  0  0  0  0  1  0  0  0  0  0  0
   -6.4289   -3.1528  -24.3646 H   0  0  0  0  0  0  0  0  0  0  0  0
   -4.7102   -3.5157  -23.7053 H   0  0  0  0  0  0  0  0  0  0  0  0
  1  2  2  0
  2  3  1  0
  3  4  1  0
  4  5  1  0
  5  6  2  0
  5  7  1  0
  7  8  1  0
  8  9  1  0
  9 10  1  0
 10 11  1  0
 11 12  2  0
 11 13  1  0
 13 14  1  0
 14 15  1  0
 14 16  1  0
 14 17  1  0
 13 18  1  0
 10 19  1  0
 10 20  1  0
  9 21  1  0
 21 22  2  0
 21 23  1  0
 23 24  2  0
 24 25  1  0
 25 26  2  0
 26 27  1  0
 26 28  1  0
 28 29  2  0
 28 30  1  0
 25 31  1  0
 24 32  1  0
  8 33  1  0
  8 34  1  0
  7 35  1  6
  4 36  1  0
 36 37  2  0
 37 38  1  0
 38 39  2  0
 39 40  1  0
 40 41  2  0
 41 42  1  0
 42 43  2  0
 43 44  1  0
 44 45  2  0
 44 46  1  0
 43 47  1  0
 42 48  1  0
 41 49  1  0
 39 50  1  0
 37 51  1  0
  3 52  1  0
  3 53  1  0
  2 54  1  0
 54 55  2  0
 54 56  1  0
  1 57  1  0
  1 58  1  0
 29  7  1  0
 45 36  1  0
 29 23  1  0
 45 40  1  0
M  CHG  1  56  -1
M  END
>  <cnnaffinities>  (6) 
[6.15716]

>  <score>  (6) 
6.15716

>  <index>  (6) 
5

>  <Smiles>  (6) 
C(=C(C(N(C(=O)[C@@]1(C(N(C(C(=O)N(C([H])([H])[H])[H])([H])[H])C(=O)c2c(c(c(Cl)c(c12)[H])[H])[H])([H])[H])[H])c1c(nc(c2c(c(c(c(c12)[H])[H])[H])[H])[H])[H])([H])[H])C(=O)[O-])([H])[H]

>  <h>  (6) 
<NA>

>  <Training>  (6) 
True

>  <Success>  (6) 
True

>  <enamine_searched>  (6) 
False

>  <enamine_id>  (6) 
nan

$$$$

     RDKit          3D

 43 45  0  0  0  0  0  0  0  0999 V2000
   -9.3218   -8.1157  -24.9632 C   0  0  0  0  0  0  0  0  0  0  0  0
   -9.3203   -6.6037  -25.1476 C   0  0  0  0  0  0  0  0  0  0  0  0
   -9.0020   -5.8143  -23.8750 C   0  0  0  0  0  0  0  0  0  0  0  0
   -7.5657   -5.9950  -23.3997 C   0  0  0  0  0  0  0  0  0  0  0  0
   -7.2680   -5.1708  -22.1556 C   0  0  0  0  0  0  0  0  0  0  0  0
   -7.6208   -3.7605  -22.3154 N   0  0  0  0  0  0  0  0  0  0  0  0
   -6.7906   -2.7984  -21.7751 C   0  0  0  0  0  0  0  0  0  0  0  0
   -5.5882   -2.9794  -21.6751 O   0  0  0  0  0  0  0  0  0  0  0  0
   -7.4227   -1.4825  -21.2562 C   0  0  0  0  0  0  0  0  0  0  0  0
   -6.5826   -0.8236  -20.1823 C   0  0  0  0  0  0  0  0  0  0  0  0
   -6.8736   -1.0422  -18.8637 C   0  0  0  0  0  0  0  0  0  0  0  0
   -6.1826   -0.5496  -17.8013 N   0  0  0  0  0  0  0  0  0  0  0  0
   -5.1582    0.2217  -18.0659 C   0  0  0  0  0  0  0  0  0  0  0  0
   -4.7211    0.5331  -19.3797 C   0  0  0  0  0  0  0  0  0  0  0  0
   -3.5922    1.3593  -19.6205 C   0  0  0  0  0  0  0  0  0  0  0  0
   -3.1886    1.6338  -20.8969 C   0  0  0  0  0  0  0  0  0  0  0  0
   -3.8994    1.0886  -21.9917 C   0  0  0  0  0  0  0  0  0  0  0  0
   -4.9957    0.2893  -21.7851 C   0  0  0  0  0  0  0  0  0  0  0  0
   -5.4448   -0.0100  -20.4747 C   0  0  0  0  0  0  0  0  0  0  0  0
   -5.5182   -0.1382  -22.6361 H   0  0  0  0  0  0  0  0  0  0  0  0
   -3.5698    1.3084  -23.0030 H   0  0  0  0  0  0  0  0  0  0  0  0
   -2.3270    2.2708  -21.0849 H   0  0  0  0  0  0  0  0  0  0  0  0
   -3.0561    1.7750  -18.7677 H   0  0  0  0  0  0  0  0  0  0  0  0
   -4.6038    0.6278  -17.2151 H   0  0  0  0  0  0  0  0  0  0  0  0
   -7.7192   -1.6687  -18.5856 H   0  0  0  0  0  0  0  0  0  0  0  0
   -7.5649   -0.7909  -22.0970 H   0  0  0  0  0  0  0  0  0  0  0  0
   -8.4247   -1.6870  -20.8481 H   0  0  0  0  0  0  0  0  0  0  0  0
   -8.9693   -3.5134  -22.8034 C   0  0  0  0  0  0  0  0  0  0  0  0
   -9.2710   -4.3264  -24.0592 C   0  0  0  0  0  0  0  0  0  0  0  0
   -8.6687   -3.9545  -24.8945 H   0  0  0  0  0  0  0  0  0  0  0  0
  -10.3153   -4.1698  -24.3493 H   0  0  0  0  0  0  0  0  0  0  0  0
   -9.7184   -3.7565  -22.0349 H   0  0  0  0  0  0  0  0  0  0  0  0
   -9.0769   -2.4525  -23.0304 H   0  0  0  0  0  0  0  0  0  0  0  0
   -7.8223   -5.6084  -21.3132 H   0  0  0  0  0  0  0  0  0  0  0  0
   -6.2117   -5.2285  -21.8981 H   0  0  0  0  0  0  0  0  0  0  0  0
   -6.8801   -5.7025  -24.2000 H   0  0  0  0  0  0  0  0  0  0  0  0
   -7.3553   -7.0497  -23.1939 H   0  0  0  0  0  0  0  0  0  0  0  0
   -9.6720   -6.1766  -23.0856 H   0  0  0  0  0  0  0  0  0  0  0  0
  -10.3004   -6.2944  -25.5261 H   0  0  0  0  0  0  0  0  0  0  0  0
   -8.5989   -6.3306  -25.9260 H   0  0  0  0  0  0  0  0  0  0  0  0
   -9.9731   -8.4139  -24.1355 H   0  0  0  0  0  0  0  0  0  0  0  0
   -8.3207   -8.4825  -24.7363 H   0  0  0  0  0  0  0  0  0  0  0  0
   -9.6693   -8.6345  -25.8629 H   0  0  0  0  0  0  0  0  0  0  0  0
  1  2  1  0
  2  3  1  0
  3  4  1  0
  4  5  1  0
  5  6  1  0
  6  7  1  0
  7  8  2  0
  7  9  1  0
  9 10  1  0
 10 11  2  0
 11 12  1  0
 12 13  2  0
 13 14  1  0
 14 15  2  0
 15 16  1  0
 16 17  2  0
 17 18  1  0
 18 19  2  0
 18 20  1  0
 17 21  1  0
 16 22  1  0
 15 23  1  0
 13 24  1  0
 11 25  1  0
  9 26  1  0
  9 27  1  0
  6 28  1  0
 28 29  1  0
 29 30  1  0
 29 31  1  0
 28 32  1  0
 28 33  1  0
  5 34  1  0
  5 35  1  0
  4 36  1  0
  4 37  1  0
  3 38  1  0
  2 39  1  0
  2 40  1  0
  1 41  1  0
  1 42  1  0
  1 43  1  0
 29  3  1  0
 19 10  1  0
 19 14  1  0
M  END
>  <cnnaffinities>  (7) 
[5.09972, 5.09911]

>  <score>  (7) 
5.09972

>  <index>  (7) 
6

>  <Smiles>  (7) 
C(C(C1(C(C(N(C(=O)C(c2c(nc(c3c(c(c(c(c23)[H])[H])[H])[H])[H])[H])([H])[H])C(C1([H])[H])([H])[H])([H])[H])([H])[H])[H])([H])[H])([H])([H])[H]

>  <h>  (7) 
<NA>

>  <Training>  (7) 
True

>  <Success>  (7) 
True

>  <enamine_searched>  (7) 
False

>  <enamine_id>  (7) 
nan

$$$$

     RDKit          3D

 44 47  0  0  0  0  0  0  0  0999 V2000
   -9.6222   -6.3983  -25.6812 C   0  0  0  0  0  0  0  0  0  0  0  0
  -10.9504   -6.2334  -24.9587 C   0  0  0  0  0  0  0  0  0  0  0  0
  -11.2132   -4.6064  -24.2563 S   0  0  0  0  0  0  0  0  0  0  0  0
  -12.5007   -4.6098  -23.5880 O   0  0  0  0  0  0  0  0  0  0  0  0
  -10.9479   -3.6313  -25.3054 O   0  0  0  0  0  0  0  0  0  0  0  0
  -10.0025   -4.5225  -23.0794 N   0  0  0  0  0  0  0  0  0  0  0  0
  -10.1338   -3.6119  -21.8977 C   0  0  0  0  0  0  0  0  0  0  0  0
   -8.8763   -2.8362  -22.3651 C   0  0  0  0  0  0  0  0  0  0  0  0
   -8.7184   -3.8990  -23.4641 C   0  0  0  0  0  0  0  0  0  0  0  0
   -8.6453   -3.5203  -24.4840 H   0  0  0  0  0  0  0  0  0  0  0  0
   -7.9035   -4.5827  -23.2258 H   0  0  0  0  0  0  0  0  0  0  0  0
   -7.6791   -2.7426  -21.4355 C   0  0  0  0  0  0  0  0  0  0  0  0
   -6.9946   -3.6381  -20.9974 O   0  0  0  0  0  0  0  0  0  0  0  0
   -7.4548   -1.3895  -21.2297 N   0  0  0  0  0  0  0  0  0  0  0  0
   -6.6212   -0.8558  -20.2136 C   0  0  0  0  0  0  0  0  0  0  0  0
   -6.9293   -1.0971  -18.9005 C   0  0  0  0  0  0  0  0  0  0  0  0
   -6.2480   -0.5907  -17.8471 N   0  0  0  0  0  0  0  0  0  0  0  0
   -5.2282    0.1873  -18.1120 C   0  0  0  0  0  0  0  0  0  0  0  0
   -4.7946    0.5105  -19.4252 C   0  0  0  0  0  0  0  0  0  0  0  0
   -3.6582    1.3332  -19.6355 C   0  0  0  0  0  0  0  0  0  0  0  0
   -3.2255    1.5908  -20.9059 C   0  0  0  0  0  0  0  0  0  0  0  0
   -3.9119    1.0439  -22.0145 C   0  0  0  0  0  0  0  0  0  0  0  0
   -5.0259    0.2598  -21.8366 C   0  0  0  0  0  0  0  0  0  0  0  0
   -5.4993   -0.0268  -20.5246 C   0  0  0  0  0  0  0  0  0  0  0  0
   -5.5511   -0.1433  -22.6980 H   0  0  0  0  0  0  0  0  0  0  0  0
   -3.5438    1.2393  -23.0185 H   0  0  0  0  0  0  0  0  0  0  0  0
   -2.3457    2.2063  -21.0730 H   0  0  0  0  0  0  0  0  0  0  0  0
   -3.1424    1.7313  -18.7651 H   0  0  0  0  0  0  0  0  0  0  0  0
   -4.6725    0.5858  -17.2637 H   0  0  0  0  0  0  0  0  0  0  0  0
   -7.7784   -1.7260  -18.6506 H   0  0  0  0  0  0  0  0  0  0  0  0
   -8.3054   -0.5955  -22.0102 C   0  0  0  0  0  0  0  0  0  0  0  0
   -8.3073    0.6116  -22.0275 O   0  0  0  0  0  0  0  0  0  0  0  0
   -9.0977   -1.4522  -22.7224 N   0  0  0  0  0  0  0  0  0  0  0  0
   -9.9737   -0.9742  -23.7766 C   0  0  0  0  0  0  0  0  0  0  0  0
  -10.2661    0.0475  -23.5364 H   0  0  0  0  0  0  0  0  0  0  0  0
   -9.4711   -0.9616  -24.7507 H   0  0  0  0  0  0  0  0  0  0  0  0
  -10.8575   -1.6121  -23.8543 H   0  0  0  0  0  0  0  0  0  0  0  0
  -11.0439   -3.0099  -21.8421 H   0  0  0  0  0  0  0  0  0  0  0  0
   -9.9785   -4.1588  -20.9695 H   0  0  0  0  0  0  0  0  0  0  0  0
  -11.7951   -6.3870  -25.6412 H   0  0  0  0  0  0  0  0  0  0  0  0
  -11.0485   -6.9320  -24.1360 H   0  0  0  0  0  0  0  0  0  0  0  0
   -8.7683   -6.3261  -24.9993 H   0  0  0  0  0  0  0  0  0  0  0  0
   -9.5241   -5.6373  -26.4575 H   0  0  0  0  0  0  0  0  0  0  0  0
   -9.5703   -7.3881  -26.1473 H   0  0  0  0  0  0  0  0  0  0  0  0
  1  2  1  0
  2  3  1  0
  3  4  2  0
  3  5  2  0
  3  6  1  0
  6  7  1  0
  7  8  1  0
  8  9  1  0
  9 10  1  0
  9 11  1  0
  8 12  1  0
 12 13  2  0
 12 14  1  0
 14 15  1  0
 15 16  2  0
 16 17  1  0
 17 18  2  0
 18 19  1  0
 19 20  2  0
 20 21  1  0
 21 22  2  0
 22 23  1  0
 23 24  2  0
 23 25  1  0
 22 26  1  0
 21 27  1  0
 20 28  1  0
 18 29  1  0
 16 30  1  0
 14 31  1  0
 31 32  2  0
 31 33  1  0
 33 34  1  0
 34 35  1  0
 34 36  1  0
 34 37  1  0
  7 38  1  0
  7 39  1  0
  2 40  1  0
  2 41  1  0
  1 42  1  0
  1 43  1  0
  1 44  1  0
  9  6  1  0
 24 15  1  0
 33  8  1  0
 24 19  1  0
M  END
>  <cnnaffinities>  (8) 
[5.67033, 5.60514]

>  <score>  (8) 
5.67033

>  <index>  (8) 
7

>  <Smiles>  (8) 
C(C(S(=O)(=O)N1C(C2(C1([H])[H])C(=O)N(c1c(nc(c3c(c(c(c(c13)[H])[H])[H])[H])[H])[H])C(=O)N2C([H])([H])[H])([H])[H])([H])[H])([H])([H])[H]

>  <h>  (8) 
<NA>

>  <Training>  (8) 
True

>  <Success>  (8) 
True

>  <enamine_searched>  (8) 
False

>  <enamine_id>  (8) 
nan

$$$$

     RDKit          3D

 60 64  0  0  0  0  0  0  0  0999 V2000
   -5.1890   -3.9269  -19.1763 C   0  0  0  0  0  0  0  0  0  0  0  0
   -6.2092   -4.5873  -19.9471 N   0  0  0  0  0  0  0  0  0  0  0  0
   -6.1065   -5.8542  -20.3933 C   0  0  0  0  0  0  0  0  0  0  0  0
   -5.1551   -6.5686  -20.1160 O   0  0  0  0  0  0  0  0  0  0  0  0
   -7.3256   -6.3415  -21.2113 C   0  0  0  0  0  0  0  0  0  0  0  0
   -7.6489   -5.4675  -22.3264 N   0  0  0  0  0  0  0  0  0  0  0  0
   -8.5535   -4.3145  -22.2967 C   0  0  0  0  0  0  0  0  0  0  0  0
   -7.9025   -3.0485  -22.9390 C   0  0  2  0  0  0  0  0  0  0  0  0
   -6.7872   -2.4486  -22.0490 C   0  0  0  0  0  0  0  0  0  0  0  0
   -5.6155   -2.7751  -22.0164 O   0  0  0  0  0  0  0  0  0  0  0  0
   -7.3236   -1.4552  -21.2617 N   0  0  0  0  0  0  0  0  0  0  0  0
   -6.5871   -0.8380  -20.2246 C   0  0  0  0  0  0  0  0  0  0  0  0
   -6.9714   -1.0090  -18.9177 C   0  0  0  0  0  0  0  0  0  0  0  0
   -6.2802   -0.5398  -17.8529 N   0  0  0  0  0  0  0  0  0  0  0  0
   -5.2126    0.1858  -18.0961 C   0  0  0  0  0  0  0  0  0  0  0  0
   -4.7399    0.4868  -19.4029 C   0  0  0  0  0  0  0  0  0  0  0  0
   -3.6103    1.3213  -19.6150 C   0  0  0  0  0  0  0  0  0  0  0  0
   -3.1973    1.6241  -20.8823 C   0  0  0  0  0  0  0  0  0  0  0  0
   -3.8903    1.1056  -21.9989 C   0  0  0  0  0  0  0  0  0  0  0  0
   -4.9831    0.2973  -21.8212 C   0  0  0  0  0  0  0  0  0  0  0  0
   -5.4381   -0.0361  -20.5139 C   0  0  0  0  0  0  0  0  0  0  0  0
   -5.5081   -0.0974  -22.6851 H   0  0  0  0  0  0  0  0  0  0  0  0
   -3.5590    1.3546  -23.0031 H   0  0  0  0  0  0  0  0  0  0  0  0
   -2.3455    2.2788  -21.0436 H   0  0  0  0  0  0  0  0  0  0  0  0
   -3.1037    1.7326  -18.7449 H   0  0  0  0  0  0  0  0  0  0  0  0
   -4.6643    0.5695  -17.2359 H   0  0  0  0  0  0  0  0  0  0  0  0
   -7.8380   -1.6202  -18.6664 H   0  0  0  0  0  0  0  0  0  0  0  0
   -8.6988   -1.1250  -21.5926 C   0  0  0  0  0  0  0  0  0  0  0  0
   -8.8616   -1.8095  -22.9576 C   0  0  2  0  0  0  0  0  0  0  0  0
  -10.3116   -2.0054  -23.3577 C   0  0  0  0  0  0  0  0  0  0  0  0
  -11.0297   -2.5690  -22.2823 O   0  0  0  0  0  0  0  0  0  0  0  0
  -12.3663   -2.8534  -22.6047 C   0  0  0  0  0  0  0  0  0  0  0  0
  -12.4354   -3.5886  -23.4215 H   0  0  0  0  0  0  0  0  0  0  0  0
  -12.8340   -3.2700  -21.7088 H   0  0  0  0  0  0  0  0  0  0  0  0
  -12.9151   -1.9471  -22.9036 H   0  0  0  0  0  0  0  0  0  0  0  0
  -10.7519   -1.0303  -23.6294 H   0  0  0  0  0  0  0  0  0  0  0  0
  -10.3754   -2.6568  -24.2446 H   0  0  0  0  0  0  0  0  0  0  0  0
   -8.4269   -1.1240  -23.6894 H   0  0  0  0  0  0  0  0  0  0  0  0
   -9.4188   -1.5061  -20.8612 H   0  0  0  0  0  0  0  0  0  0  0  0
   -8.8327   -0.0383  -21.6639 H   0  0  0  0  0  0  0  0  0  0  0  0
   -7.3137   -3.4618  -24.2813 C   0  0  0  0  0  0  0  0  0  0  0  0
   -6.9600   -2.5139  -25.2541 C   0  0  0  0  0  0  0  0  0  0  0  0
   -6.3301   -2.9053  -26.4255 C   0  0  0  0  0  0  0  0  0  0  0  0
   -5.8896   -1.6903  -27.5962 Cl  0  0  0  0  0  0  0  0  0  0  0  0
   -6.0223   -4.2401  -26.6862 C   0  0  0  0  0  0  0  0  0  0  0  0
   -6.3442   -5.1764  -25.7288 C   0  0  0  0  0  0  0  0  0  0  0  0
   -6.9621   -4.7946  -24.5419 C   0  0  0  0  0  0  0  0  0  0  0  0
   -7.0916   -5.8631  -23.5135 C   0  0  0  0  0  0  0  0  0  0  0  0
   -6.6558   -6.9919  -23.6882 O   0  0  0  0  0  0  0  0  0  0  0  0
   -6.1035   -6.2263  -25.8556 H   0  0  0  0  0  0  0  0  0  0  0  0
   -5.5251   -4.5275  -27.6063 H   0  0  0  0  0  0  0  0  0  0  0  0
   -7.1480   -1.4569  -25.1101 H   0  0  0  0  0  0  0  0  0  0  0  0
   -8.8985   -4.1070  -21.2811 H   0  0  0  0  0  0  0  0  0  0  0  0
   -9.4466   -4.5494  -22.8924 H   0  0  0  0  0  0  0  0  0  0  0  0
   -7.0523   -7.3128  -21.6243 H   0  0  0  0  0  0  0  0  0  0  0  0
   -8.2203   -6.5064  -20.6077 H   0  0  0  0  0  0  0  0  0  0  0  0
   -6.9869   -4.0391  -20.2789 H   0  0  0  0  0  0  0  0  0  0  0  0
   -4.2976   -3.7759  -19.7867 H   0  0  0  0  0  0  0  0  0  0  0  0
   -5.5534   -2.9609  -18.8277 H   0  0  0  0  0  0  0  0  0  0  0  0
   -4.9607   -4.4887  -18.2762 H   0  0  0  0  0  0  0  0  0  0  0  0
  1  2  1  0
  2  3  1  0
  3  4  2  0
  3  5  1  0
  5  6  1  0
  6  7  1  0
  8  7  1  1
  8  9  1  0
  9 10  2  0
  9 11  1  0
 11 12  1  0
 12 13  2  0
 13 14  1  0
 14 15  2  0
 15 16  1  0
 16 17  2  0
 17 18  1  0
 18 19  2  0
 19 20  1  0
 20 21  2  0
 20 22  1  0
 19 23  1  0
 18 24  1  0
 17 25  1  0
 15 26  1  0
 13 27  1  0
 11 28  1  0
 28 29  1  0
 29 30  1  0
 30 31  1  0
 31 32  1  0
 32 33  1  0
 32 34  1  0
 32 35  1  0
 30 36  1  0
 30 37  1  0
 29 38  1  6
 28 39  1  0
 28 40  1  0
  8 41  1  0
 41 42  2  0
 42 43  1  0
 43 44  1  0
 43 45  2  0
 45 46  1  0
 46 47  2  0
 47 48  1  0
 48 49  2  0
 46 50  1  0
 45 51  1  0
 42 52  1  0
  7 53  1  0
  7 54  1  0
  5 55  1  0
  5 56  1  0
  2 57  1  0
  1 58  1  0
  1 59  1  0
  1 60  1  0
 48  6  1  0
 29  8  1  0
 47 41  1  0
 21 12  1  0
 21 16  1  0
M  END
>  <cnnaffinities>  (9) 
[6.47844]

>  <score>  (9) 
6.47844

>  <index>  (9) 
8

>  <Smiles>  (9) 
C(N(C(=O)C(N1C([C@@]2(C(=O)N(c3c(nc(c4c(c(c(c(c34)[H])[H])[H])[H])[H])[H])C([C@@]2(C(OC([H])([H])[H])([H])[H])[H])([H])[H])c2c(c(Cl)c(c(c2C1=O)[H])[H])[H])([H])[H])([H])[H])[H])([H])([H])[H]

>  <h>  (9) 
<NA>

>  <Training>  (9) 
True

>  <Success>  (9) 
True

>  <enamine_searched>  (9) 
False

>  <enamine_id>  (9) 
nan

$$$$

     RDKit          3D

 41 43  0  0  0  0  0  0  0  0999 V2000
  -10.1658   -5.9868  -24.5255 C   0  0  0  0  0  0  0  0  0  0  0  0
   -9.1456   -4.8573  -24.4059 C   0  0  1  0  0  0  0  0  0  0  0  0
   -9.8256   -3.5716  -23.9801 C   0  0  0  0  0  0  0  0  0  0  0  0
   -9.2215   -2.3903  -23.8921 C   0  0  0  0  0  0  0  0  0  0  0  0
   -7.7440   -2.2178  -24.1393 C   0  0  0  0  0  0  0  0  0  0  0  0
   -6.8961   -3.0075  -23.2540 N   0  0  0  0  0  0  0  0  0  0  0  0
   -6.6757   -2.6773  -21.9266 C   0  0  0  0  0  0  0  0  0  0  0  0
   -5.9367   -3.3551  -21.2360 O   0  0  0  0  0  0  0  0  0  0  0  0
   -7.3913   -1.4592  -21.2866 C   0  0  0  0  0  0  0  0  0  0  0  0
   -6.5735   -0.8285  -20.1820 C   0  0  0  0  0  0  0  0  0  0  0  0
   -6.8713   -1.0476  -18.8628 C   0  0  0  0  0  0  0  0  0  0  0  0
   -6.1844   -0.5484  -17.7988 N   0  0  0  0  0  0  0  0  0  0  0  0
   -5.1577    0.2213  -18.0635 C   0  0  0  0  0  0  0  0  0  0  0  0
   -4.7210    0.5349  -19.3785 C   0  0  0  0  0  0  0  0  0  0  0  0
   -3.5932    1.3602  -19.6213 C   0  0  0  0  0  0  0  0  0  0  0  0
   -3.1942    1.6372  -20.9004 C   0  0  0  0  0  0  0  0  0  0  0  0
   -3.9085    1.0957  -21.9931 C   0  0  0  0  0  0  0  0  0  0  0  0
   -5.0031    0.2958  -21.7857 C   0  0  0  0  0  0  0  0  0  0  0  0
   -5.4444   -0.0064  -20.4715 C   0  0  0  0  0  0  0  0  0  0  0  0
   -5.5362   -0.1115  -22.6405 H   0  0  0  0  0  0  0  0  0  0  0  0
   -3.5860    1.3207  -23.0055 H   0  0  0  0  0  0  0  0  0  0  0  0
   -2.3337    2.2751  -21.0897 H   0  0  0  0  0  0  0  0  0  0  0  0
   -3.0552    1.7743  -18.7713 H   0  0  0  0  0  0  0  0  0  0  0  0
   -4.6033    0.6286  -17.2147 H   0  0  0  0  0  0  0  0  0  0  0  0
   -7.7223   -1.6714  -18.5892 H   0  0  0  0  0  0  0  0  0  0  0  0
   -8.3289   -1.8334  -20.8489 H   0  0  0  0  0  0  0  0  0  0  0  0
   -7.6826   -0.7020  -22.0225 H   0  0  0  0  0  0  0  0  0  0  0  0
   -6.7213   -4.4138  -23.6295 C   0  0  0  0  0  0  0  0  0  0  0  0
   -7.9844   -5.2684  -23.4769 C   0  0  0  0  0  0  0  0  0  0  0  0
   -8.3196   -5.2204  -22.4362 H   0  0  0  0  0  0  0  0  0  0  0  0
   -7.7266   -6.3219  -23.6675 H   0  0  0  0  0  0  0  0  0  0  0  0
   -6.4110   -4.4408  -24.6791 H   0  0  0  0  0  0  0  0  0  0  0  0
   -5.9036   -4.8217  -23.0327 H   0  0  0  0  0  0  0  0  0  0  0  0
   -7.4483   -1.1678  -24.0913 H   0  0  0  0  0  0  0  0  0  0  0  0
   -7.5075   -2.5381  -25.1597 H   0  0  0  0  0  0  0  0  0  0  0  0
   -9.7909   -1.5053  -23.6026 H   0  0  0  0  0  0  0  0  0  0  0  0
  -10.8809   -3.6358  -23.7136 H   0  0  0  0  0  0  0  0  0  0  0  0
   -8.7156   -4.6988  -25.4047 H   0  0  0  0  0  0  0  0  0  0  0  0
  -10.5957   -6.2032  -23.5440 H   0  0  0  0  0  0  0  0  0  0  0  0
   -9.7114   -6.9099  -24.9062 H   0  0  0  0  0  0  0  0  0  0  0  0
  -10.9880   -5.7133  -25.1974 H   0  0  0  0  0  0  0  0  0  0  0  0
  1  2  1  0
  2  3  1  0
  3  4  2  0
  4  5  1  0
  5  6  1  0
  6  7  1  0
  7  8  2  0
  7  9  1  0
  9 10  1  0
 10 11  2  0
 11 12  1  0
 12 13  2  0
 13 14  1  0
 14 15  2  0
 15 16  1  0
 16 17  2  0
 17 18  1  0
 18 19  2  0
 18 20  1  0
 17 21  1  0
 16 22  1  0
 15 23  1  0
 13 24  1  0
 11 25  1  0
  9 26  1  0
  9 27  1  0
  6 28  1  0
 28 29  1  0
 29 30  1  0
 29 31  1  0
 28 32  1  0
 28 33  1  0
  5 34  1  0
  5 35  1  0
  4 36  1  0
  3 37  1  0
  2 38  1  6
  1 39  1  0
  1 40  1  0
  1 41  1  0
 29  2  1  0
 19 10  1  0
 19 14  1  0
M  END
>  <cnnaffinities>  (10) 
[5.34778, 5.01137, 5.31168, 5.22326, 5.04309, 5.13985, 5.20371]

>  <score>  (10) 
5.34778

>  <index>  (10) 
9

>  <Smiles>  (10) 
C([C@]1(C(=C(C(N(C(=O)C(c2c(nc(c3c(c(c(c(c23)[H])[H])[H])[H])[H])[H])([H])[H])C(C1([H])[H])([H])[H])([H])[H])[H])[H])[H])([H])([H])[H]

>  <h>  (10) 
<NA>

>  <Training>  (10) 
True

>  <Success>  (10) 
True

>  <enamine_searched>  (10) 
False

>  <enamine_id>  (10) 
nan

$$$$

     RDKit          3D

 57 62  0  0  0  0  0  0  0  0999 V2000
  -10.2198   -2.9631  -22.0700 C   0  0  0  0  0  0  0  0  0  0  0  0
   -9.1541   -2.0080  -22.6289 C   0  0  1  0  0  0  0  0  0  0  0  0
   -8.6919   -1.0194  -21.5413 C   0  0  0  0  0  0  0  0  0  0  0  0
   -7.3578   -1.4449  -21.1966 N   0  0  0  0  0  0  0  0  0  0  0  0
   -6.5784   -0.8452  -20.1895 C   0  0  0  0  0  0  0  0  0  0  0  0
   -6.9159   -1.0570  -18.8795 C   0  0  0  0  0  0  0  0  0  0  0  0
   -6.2294   -0.5627  -17.8253 N   0  0  0  0  0  0  0  0  0  0  0  0
   -5.1923    0.1952  -18.0960 C   0  0  0  0  0  0  0  0  0  0  0  0
   -4.7490    0.5078  -19.4142 C   0  0  0  0  0  0  0  0  0  0  0  0
   -3.6274    1.3476  -19.6363 C   0  0  0  0  0  0  0  0  0  0  0  0
   -3.2336    1.6568  -20.9082 C   0  0  0  0  0  0  0  0  0  0  0  0
   -3.9460    1.1471  -22.0187 C   0  0  0  0  0  0  0  0  0  0  0  0
   -5.0364    0.3325  -21.8363 C   0  0  0  0  0  0  0  0  0  0  0  0
   -5.4575   -0.0190  -20.5148 C   0  0  0  0  0  0  0  0  0  0  0  0
   -5.5794   -0.0377  -22.7076 H   0  0  0  0  0  0  0  0  0  0  0  0
   -3.6256    1.4119  -23.0231 H   0  0  0  0  0  0  0  0  0  0  0  0
   -2.3781    2.3046  -21.0760 H   0  0  0  0  0  0  0  0  0  0  0  0
   -3.1066    1.7457  -18.7702 H   0  0  0  0  0  0  0  0  0  0  0  0
   -4.6441    0.6105  -17.2506 H   0  0  0  0  0  0  0  0  0  0  0  0
   -7.7742   -1.6886  -18.6513 H   0  0  0  0  0  0  0  0  0  0  0  0
   -6.8303   -2.4037  -22.0206 C   0  0  0  0  0  0  0  0  0  0  0  0
   -5.7543   -2.9364  -21.8481 O   0  0  0  0  0  0  0  0  0  0  0  0
   -7.8441   -2.6690  -23.1490 C   0  0  1  0  0  0  0  0  0  0  0  0
   -7.9599   -4.1772  -23.3429 C   0  0  0  0  0  0  0  0  0  0  0  0
   -6.7241   -4.6901  -23.8848 N   0  0  0  0  0  0  0  0  0  0  0  0
   -6.2999   -5.9976  -23.4412 C   0  0  0  0  0  0  0  0  0  0  0  0
   -7.1600   -7.0610  -24.0723 C   0  0  0  0  0  0  0  0  0  0  0  0
   -7.0904   -7.5758  -25.3175 C   0  0  0  0  0  0  0  0  0  0  0  0
   -8.2513   -8.2767  -25.5561 N   0  0  0  0  0  4  0  0  0  0  0  0
   -9.0188   -8.2029  -24.4617 C   0  0  0  0  0  0  0  0  0  0  0  0
   -8.3704   -7.4836  -23.5347 N   0  0  0  0  0  0  0  0  0  0  0  0
   -8.6751   -7.2624  -22.5904 H   0  0  0  0  0  0  0  0  0  0  0  0
   -9.9791   -8.6657  -24.3237 H   0  0  0  0  0  0  0  0  0  0  0  0
   -8.3880   -8.8676  -26.3778 H   0  0  0  0  0  0  0  0  0  0  0  0
   -6.3033   -7.5150  -26.0500 H   0  0  0  0  0  0  0  0  0  0  0  0
   -5.2507   -6.0985  -23.7339 H   0  0  0  0  0  0  0  0  0  0  0  0
   -6.3569   -5.9863  -22.3413 H   0  0  0  0  0  0  0  0  0  0  0  0
   -6.2383   -4.2236  -25.0698 C   0  0  0  0  0  0  0  0  0  0  0  0
   -5.5109   -4.8885  -25.8020 O   0  0  0  0  0  0  0  0  0  0  0  0
   -6.6188   -2.8214  -25.3738 C   0  0  0  0  0  0  0  0  0  0  0  0
   -6.1739   -2.2839  -26.5784 C   0  0  0  0  0  0  0  0  0  0  0  0
   -6.3964   -0.9533  -26.8701 C   0  0  0  0  0  0  0  0  0  0  0  0
   -7.0758   -0.1880  -25.9261 C   0  0  0  0  0  0  0  0  0  0  0  0
   -7.2792    1.1153  -26.1868 F   0  0  0  0  0  0  0  0  0  0  0  0
   -7.5540   -0.7063  -24.7370 C   0  0  0  0  0  0  0  0  0  0  0  0
   -7.3472   -2.0608  -24.4536 C   0  0  0  0  0  0  0  0  0  0  0  0
   -8.0886   -0.0523  -24.0532 H   0  0  0  0  0  0  0  0  0  0  0  0
   -6.0363   -0.4869  -27.7814 H   0  0  0  0  0  0  0  0  0  0  0  0
   -5.6358   -2.9461  -27.2487 H   0  0  0  0  0  0  0  0  0  0  0  0
   -8.1494   -4.6577  -22.3816 H   0  0  0  0  0  0  0  0  0  0  0  0
   -8.7942   -4.3900  -24.0235 H   0  0  0  0  0  0  0  0  0  0  0  0
   -8.6945    0.0233  -21.8820 H   0  0  0  0  0  0  0  0  0  0  0  0
   -9.3396   -1.0746  -20.6723 H   0  0  0  0  0  0  0  0  0  0  0  0
   -9.6331   -1.4768  -23.4570 H   0  0  0  0  0  0  0  0  0  0  0  0
  -11.0785   -2.3928  -21.6972 H   0  0  0  0  0  0  0  0  0  0  0  0
  -10.5918   -3.6461  -22.8392 H   0  0  0  0  0  0  0  0  0  0  0  0
   -9.8325   -3.5612  -21.2383 H   0  0  0  0  0  0  0  0  0  0  0  0
  1  2  1  0
  2  3  1  0
  3  4  1  0
  4  5  1  0
  5  6  2  0
  6  7  1  0
  7  8  2  0
  8  9  1  0
  9 10  2  0
 10 11  1  0
 11 12  2  0
 12 13  1  0
 13 14  2  0
 13 15  1  0
 12 16  1  0
 11 17  1  0
 10 18  1  0
  8 19  1  0
  6 20  1  0
  4 21  1  0
 21 22  2  0
 21 23  1  0
 23 24  1  6
 24 25  1  0
 25 26  1  0
 26 27  1  0
 27 28  2  0
 28 29  1  0
 29 30  2  0
 30 31  1  0
 31 32  1  0
 30 33  1  0
 29 34  1  0
 28 35  1  0
 26 36  1  0
 26 37  1  0
 25 38  1  0
 38 39  2  0
 38 40  1  0
 40 41  2  0
 41 42  1  0
 42 43  2  0
 43 44  1  0
 43 45  1  0
 45 46  2  0
 45 47  1  0
 42 48  1  0
 41 49  1  0
 24 50  1  0
 24 51  1  0
  3 52  1  0
  3 53  1  0
  2 54  1  6
  1 55  1  0
  1 56  1  0
  1 57  1  0
 23  2  1  0
 31 27  1  0
 46 40  1  0
 14  5  1  0
 46 23  1  0
 14  9  1  0
M  CHG  1  29   1
M  END
>  <cnnaffinities>  (11) 
[6.15985]

>  <score>  (11) 
6.15985

>  <index>  (11) 
10

>  <Smiles>  (11) 
C([C@]1(C(N(c2c(nc(c3c(c(c(c(c23)[H])[H])[H])[H])[H])[H])C(=O)[C@]21C(N(C(c1c([n+](c(n1[H])[H])[H])[H])([H])[H])C(=O)c1c(c(c(F)c(c21)[H])[H])[H])([H])[H])([H])[H])[H])([H])([H])[H]

>  <h>  (11) 
<NA>

>  <Training>  (11) 
True

>  <Success>  (11) 
True

>  <enamine_searched>  (11) 
False

>  <enamine_id>  (11) 
nan

$$$$

     RDKit          3D

 48 52  0  0  0  0  0  0  0  0999 V2000
  -10.0603   -0.8820  -23.6842 C   0  0  0  0  0  0  0  0  0  0  0  0
   -9.1004   -1.4022  -22.7237 N   0  0  0  0  0  0  0  0  0  0  0  0
   -8.3005   -0.5560  -22.0054 C   0  0  0  0  0  0  0  0  0  0  0  0
   -8.3084    0.6539  -22.0130 O   0  0  0  0  0  0  0  0  0  0  0  0
   -7.4514   -1.3632  -21.2383 N   0  0  0  0  0  0  0  0  0  0  0  0
   -6.6262   -0.8373  -20.2165 C   0  0  0  0  0  0  0  0  0  0  0  0
   -6.9397   -1.0969  -18.9084 C   0  0  0  0  0  0  0  0  0  0  0  0
   -6.2572   -0.5983  -17.8516 N   0  0  0  0  0  0  0  0  0  0  0  0
   -5.2356    0.1817  -18.1101 C   0  0  0  0  0  0  0  0  0  0  0  0
   -4.7938    0.5162  -19.4213 C   0  0  0  0  0  0  0  0  0  0  0  0
   -3.6562    1.3385  -19.6350 C   0  0  0  0  0  0  0  0  0  0  0  0
   -3.2207    1.5885  -20.9057 C   0  0  0  0  0  0  0  0  0  0  0  0
   -3.9075    1.0424  -22.0139 C   0  0  0  0  0  0  0  0  0  0  0  0
   -5.0266    0.2654  -21.8362 C   0  0  0  0  0  0  0  0  0  0  0  0
   -5.4983   -0.0154  -20.5235 C   0  0  0  0  0  0  0  0  0  0  0  0
   -5.5619   -0.1373  -22.6922 H   0  0  0  0  0  0  0  0  0  0  0  0
   -3.5411    1.2316  -23.0170 H   0  0  0  0  0  0  0  0  0  0  0  0
   -2.3376    2.1992  -21.0721 H   0  0  0  0  0  0  0  0  0  0  0  0
   -3.1446    1.7379  -18.7630 H   0  0  0  0  0  0  0  0  0  0  0  0
   -4.6851    0.5794  -17.2569 H   0  0  0  0  0  0  0  0  0  0  0  0
   -7.7873   -1.7329  -18.6628 H   0  0  0  0  0  0  0  0  0  0  0  0
   -7.7141   -2.7159  -21.4189 C   0  0  0  0  0  0  0  0  0  0  0  0
   -7.0497   -3.6186  -20.9675 O   0  0  0  0  0  0  0  0  0  0  0  0
   -8.9046   -2.7879  -22.3626 C   0  0  0  0  0  0  0  0  0  0  0  0
   -8.7545   -3.8541  -23.4591 C   0  0  0  0  0  0  0  0  0  0  0  0
  -10.0738   -4.4291  -23.1245 N   0  0  0  0  0  0  0  0  0  0  0  0
  -11.2945   -4.3960  -24.2974 S   0  0  0  0  0  0  0  0  0  0  0  0
  -12.5009   -4.8949  -23.6641 O   0  0  0  0  0  0  0  0  0  0  0  0
  -11.2976   -3.0940  -24.9444 O   0  0  0  0  0  0  0  0  0  0  0  0
  -10.6956   -5.5589  -25.5188 C   0  0  0  0  0  0  0  0  0  0  0  0
  -10.5718   -6.9014  -25.1901 C   0  0  0  0  0  0  0  0  0  0  0  0
  -10.0123   -7.7901  -26.1040 C   0  0  0  0  0  0  0  0  0  0  0  0
   -9.6075   -7.3402  -27.3552 C   0  0  0  0  0  0  0  0  0  0  0  0
   -9.7728   -6.0016  -27.7022 C   0  0  0  0  0  0  0  0  0  0  0  0
  -10.3298   -5.1151  -26.7847 C   0  0  0  0  0  0  0  0  0  0  0  0
  -10.4818   -4.0743  -27.0390 H   0  0  0  0  0  0  0  0  0  0  0  0
   -9.4419   -5.6588  -28.6826 H   0  0  0  0  0  0  0  0  0  0  0  0
   -9.1904   -8.0387  -28.0729 H   0  0  0  0  0  0  0  0  0  0  0  0
   -9.8879   -8.8370  -25.8426 H   0  0  0  0  0  0  0  0  0  0  0  0
  -10.9345   -7.2440  -24.2389 H   0  0  0  0  0  0  0  0  0  0  0  0
  -10.1649   -3.5632  -21.9024 C   0  0  0  0  0  0  0  0  0  0  0  0
   -9.9815   -4.1595  -21.0073 H   0  0  0  0  0  0  0  0  0  0  0  0
  -11.0729   -2.9674  -21.7834 H   0  0  0  0  0  0  0  0  0  0  0  0
   -8.5834   -3.4976  -24.4759 H   0  0  0  0  0  0  0  0  0  0  0  0
   -7.9729   -4.5557  -23.1596 H   0  0  0  0  0  0  0  0  0  0  0  0
   -9.9784    0.2057  -23.6585 H   0  0  0  0  0  0  0  0  0  0  0  0
  -11.0832   -1.1707  -23.4314 H   0  0  0  0  0  0  0  0  0  0  0  0
   -9.8584   -1.2435  -24.6951 H   0  0  0  0  0  0  0  0  0  0  0  0
  1  2  1  0
  2  3  1  0
  3  4  2  0
  3  5  1  0
  5  6  1  0
  6  7  2  0
  7  8  1  0
  8  9  2  0
  9 10  1  0
 10 11  2  0
 11 12  1  0
 12 13  2  0
 13 14  1  0
 14 15  2  0
 14 16  1  0
 13 17  1  0
 12 18  1  0
 11 19  1  0
  9 20  1  0
  7 21  1  0
  5 22  1  0
 22 23  2  0
 22 24  1  0
 24 25  1  0
 25 26  1  0
 26 27  1  0
 27 28  2  0
 27 29  2  0
 27 30  1  0
 30 31  2  0
 31 32  1  0
 32 33  2  0
 33 34  1  0
 34 35  2  0
 35 36  1  0
 34 37  1  0
 33 38  1  0
 32 39  1  0
 31 40  1  0
 26 41  1  0
 41 42  1  0
 41 43  1  0
 25 44  1  0
 25 45  1  0
  1 46  1  0
  1 47  1  0
  1 48  1  0
 24  2  1  0
 35 30  1  0
 15  6  1  0
 41 24  1  0
 15 10  1  0
M  END
>  <cnnaffinities>  (12) 
[5.95882, 5.95799, 5.95261, 5.95009]

>  <score>  (12) 
5.95882

>  <index>  (12) 
11

>  <Smiles>  (12) 
C(N1C(=O)N(c2c(nc(c3c(c(c(c(c23)[H])[H])[H])[H])[H])[H])C(=O)C21C(N(S(=O)(=O)c1c(c(c(c(c1[H])[H])[H])[H])[H])C2([H])[H])([H])[H])([H])([H])[H]

>  <h>  (12) 
<NA>

>  <Training>  (12) 
True

>  <Success>  (12) 
True

>  <enamine_searched>  (12) 
False

>  <enamine_id>  (12) 
nan

$$$$

     RDKit          3D

 76 82  0  0  0  0  0  0  0  0999 V2000
  -12.0732   -0.1693  -24.7992 O   0  0  0  0  0  0  0  0  0  0  0  0
  -11.2353   -0.7789  -24.1481 C   0  0  0  0  0  0  0  0  0  0  0  0
  -11.6071   -1.8784  -23.1831 C   0  0  0  0  0  0  0  0  0  0  0  0
  -12.9460   -2.0406  -22.7986 C   0  0  0  0  0  0  0  0  0  0  0  0
  -13.3040   -2.8446  -21.7328 C   0  0  0  0  0  0  0  0  0  0  0  0
  -12.3032   -3.5724  -21.0986 C   0  0  0  0  0  0  0  0  0  0  0  0
  -12.6782   -4.4620  -19.5880 Cl  0  0  0  0  0  0  0  0  0  0  0  0
  -10.9876   -3.5067  -21.5324 C   0  0  0  0  0  0  0  0  0  0  0  0
  -10.5941   -2.5639  -22.4979 C   0  0  0  0  0  0  0  0  0  0  0  0
   -9.1247   -2.1889  -22.6449 C   0  0  1  0  0  0  0  0  0  0  0  0
   -8.8962   -1.3815  -23.9523 C   0  0  0  0  0  0  0  0  0  0  0  0
   -9.9188   -0.3904  -24.1197 N   0  0  0  0  0  0  0  0  0  0  0  0
   -9.6365    0.9743  -24.5087 C   0  0  0  0  0  0  0  0  0  0  0  0
   -8.9513    1.9198  -23.5196 C   0  0  0  0  0  0  0  0  0  0  0  0
   -9.8080    3.1032  -23.2360 N   0  0  0  0  0  4  0  0  0  0  0  0
  -10.1953    3.9930  -24.3861 C   0  0  0  0  0  0  0  0  0  0  0  0
  -10.6157    5.3322  -23.7505 C   0  0  0  0  0  0  0  0  0  0  0  0
  -10.8939    5.1695  -22.3647 O   0  0  0  0  0  0  0  0  0  0  0  0
  -11.7774    4.0929  -22.1334 C   0  0  0  0  0  0  0  0  0  0  0  0
  -11.0724    2.7767  -22.4971 C   0  0  0  0  0  0  0  0  0  0  0  0
  -10.7913    2.1998  -21.6187 H   0  0  0  0  0  0  0  0  0  0  0  0
  -11.7233    2.1712  -23.1266 H   0  0  0  0  0  0  0  0  0  0  0  0
  -12.0324    4.1016  -21.0721 H   0  0  0  0  0  0  0  0  0  0  0  0
  -12.7016    4.2156  -22.7152 H   0  0  0  0  0  0  0  0  0  0  0  0
   -9.7963    6.0545  -23.7913 H   0  0  0  0  0  0  0  0  0  0  0  0
  -11.4901    5.7612  -24.2592 H   0  0  0  0  0  0  0  0  0  0  0  0
   -9.3648    4.1131  -25.0838 H   0  0  0  0  0  0  0  0  0  0  0  0
  -11.0232    3.5351  -24.9387 H   0  0  0  0  0  0  0  0  0  0  0  0
   -9.2939    3.7156  -22.5857 H   0  0  0  0  0  0  0  0  0  0  0  0
   -8.7258    1.4210  -22.5760 H   0  0  0  0  0  0  0  0  0  0  0  0
   -8.0084    2.2839  -23.9347 H   0  0  0  0  0  0  0  0  0  0  0  0
   -9.1696    1.0259  -25.4980 H   0  0  0  0  0  0  0  0  0  0  0  0
  -10.6344    1.3576  -24.5771 H   0  0  0  0  0  0  0  0  0  0  0  0
   -7.9233   -0.8802  -23.9501 H   0  0  0  0  0  0  0  0  0  0  0  0
   -8.9168   -2.0836  -24.7943 H   0  0  0  0  0  0  0  0  0  0  0  0
   -8.6067   -1.2980  -21.4999 C   0  0  0  0  0  0  0  0  0  0  0  0
   -9.1919   -0.4026  -20.9188 O   0  0  0  0  0  0  0  0  0  0  0  0
   -7.2866   -1.6051  -21.2771 N   0  0  0  0  0  0  0  0  0  0  0  0
   -6.5776   -0.9605  -20.2432 C   0  0  0  0  0  0  0  0  0  0  0  0
   -6.9715   -1.1380  -18.9422 C   0  0  0  0  0  0  0  0  0  0  0  0
   -6.3097   -0.6321  -17.8753 N   0  0  0  0  0  0  0  0  0  0  0  0
   -5.2632    0.1233  -18.1124 C   0  0  0  0  0  0  0  0  0  0  0  0
   -4.7837    0.4344  -19.4187 C   0  0  0  0  0  0  0  0  0  0  0  0
   -3.6758    1.2935  -19.6404 C   0  0  0  0  0  0  0  0  0  0  0  0
   -3.2821    1.5978  -20.9149 C   0  0  0  0  0  0  0  0  0  0  0  0
   -3.9671    1.0651  -22.0278 C   0  0  0  0  0  0  0  0  0  0  0  0
   -5.0376    0.2259  -21.8402 C   0  0  0  0  0  0  0  0  0  0  0  0
   -5.4621   -0.1143  -20.5284 C   0  0  0  0  0  0  0  0  0  0  0  0
   -5.5829   -0.1620  -22.6951 H   0  0  0  0  0  0  0  0  0  0  0  0
   -3.6502    1.3240  -23.0338 H   0  0  0  0  0  0  0  0  0  0  0  0
   -2.4364    2.2562  -21.0845 H   0  0  0  0  0  0  0  0  0  0  0  0
   -3.1611    1.7088  -18.7790 H   0  0  0  0  0  0  0  0  0  0  0  0
   -4.7453    0.5408  -17.2476 H   0  0  0  0  0  0  0  0  0  0  0  0
   -7.8529   -1.7377  -18.7200 H   0  0  0  0  0  0  0  0  0  0  0  0
   -6.8130   -2.7290  -22.0679 C   0  0  0  0  0  0  0  0  0  0  0  0
   -8.1251   -3.3732  -22.5414 C   0  0  2  0  0  0  0  0  0  0  0  0
   -7.9926   -4.1946  -23.8152 C   0  0  0  0  0  0  0  0  0  0  0  0
   -7.1509   -5.3596  -23.6686 N   0  0  0  0  0  0  0  0  0  0  0  0
   -6.8331   -6.0934  -24.7626 C   0  0  0  0  0  0  0  0  0  0  0  0
   -5.9724   -7.1158  -24.5918 N   0  0  0  0  0  0  0  0  0  0  0  0
   -5.7088   -7.8272  -25.6789 C   0  0  0  0  0  0  0  0  0  0  0  0
   -6.2622   -7.5599  -26.9280 C   0  0  0  0  0  0  0  0  0  0  0  0
   -7.1272   -6.4777  -26.9808 C   0  0  0  0  0  0  0  0  0  0  0  0
   -7.4105   -5.7276  -25.9212 N   0  0  0  0  0  0  0  0  0  0  0  0
   -7.6134   -6.1907  -27.9137 H   0  0  0  0  0  0  0  0  0  0  0  0
   -6.0454   -8.1690  -27.7961 H   0  0  0  0  0  0  0  0  0  0  0  0
   -5.0174   -8.6586  -25.5426 H   0  0  0  0  0  0  0  0  0  0  0  0
   -6.7007   -5.6056  -22.8028 H   0  0  0  0  0  0  0  0  0  0  0  0
   -7.5603   -3.5878  -24.6219 H   0  0  0  0  0  0  0  0  0  0  0  0
   -8.9855   -4.5140  -24.1552 H   0  0  0  0  0  0  0  0  0  0  0  0
   -8.4641   -4.0303  -21.7346 H   0  0  0  0  0  0  0  0  0  0  0  0
   -6.1960   -3.3877  -21.4504 H   0  0  0  0  0  0  0  0  0  0  0  0
   -6.2085   -2.4040  -22.9301 H   0  0  0  0  0  0  0  0  0  0  0  0
  -10.2529   -4.1023  -21.0030 H   0  0  0  0  0  0  0  0  0  0  0  0
  -14.3316   -2.8855  -21.3895 H   0  0  0  0  0  0  0  0  0  0  0  0
  -13.7103   -1.4236  -23.2569 H   0  0  0  0  0  0  0  0  0  0  0  0
  1  2  2  0
  2  3  1  0
  3  4  2  0
  4  5  1  0
  5  6  2  0
  6  7  1  0
  6  8  1  0
  8  9  2  0
  9 10  1  0
 10 11  1  6
 11 12  1  0
 12 13  1  0
 13 14  1  0
 14 15  1  0
 15 16  1  0
 16 17  1  0
 17 18  1  0
 18 19  1  0
 19 20  1  0
 20 21  1  0
 20 22  1  0
 19 23  1  0
 19 24  1  0
 17 25  1  0
 17 26  1  0
 16 27  1  0
 16 28  1  0
 15 29  1  0
 14 30  1  0
 14 31  1  0
 13 32  1  0
 13 33  1  0
 11 34  1  0
 11 35  1  0
 10 36  1  0
 36 37  2  0
 36 38  1  0
 38 39  1  0
 39 40  2  0
 40 41  1  0
 41 42  2  0
 42 43  1  0
 43 44  2  0
 44 45  1  0
 45 46  2  0
 46 47  1  0
 47 48  2  0
 47 49  1  0
 46 50  1  0
 45 51  1  0
 44 52  1  0
 42 53  1  0
 40 54  1  0
 38 55  1  0
 55 56  1  0
 56 57  1  0
 57 58  1  0
 58 59  1  0
 59 60  2  0
 60 61  1  0
 61 62  2  0
 62 63  1  0
 63 64  2  0
 63 65  1  0
 62 66  1  0
 61 67  1  0
 58 68  1  0
 57 69  1  0
 57 70  1  0
 56 71  1  1
 55 72  1  0
 55 73  1  0
  8 74  1  0
  5 75  1  0
  4 76  1  0
 12  2  1  0
 20 15  1  0
 48 39  1  0
 64 59  1  0
  9  3  1  0
 56 10  1  0
 48 43  1  0
M  CHG  1  15   1
M  END
>  <cnnaffinities>  (13) 
[6.73077]

>  <score>  (13) 
6.73077

>  <index>  (13) 
12

>  <Smiles>  (13) 
O=C1c2c(c(c(Cl)c(c2[C@@]2(C(N1C(C([N+]1(C(C(OC(C1([H])[H])([H])[H])([H])[H])([H])[H])[H])([H])[H])([H])[H])([H])[H])C(=O)N(c1c(nc(c3c(c(c(c(c13)[H])[H])[H])[H])[H])[H])C([C@@]2(C(N(c1nc(c(c(n1)[H])[H])[H])[H])([H])[H])[H])([H])[H])[H])[H])[H]

>  <h>  (13) 
<NA>

>  <Training>  (13) 
True

>  <Success>  (13) 
True

>  <enamine_searched>  (13) 
False

>  <enamine_id>  (13) 
nan

$$$$

     RDKit          3D

 69 74  0  0  0  0  0  0  0  0999 V2000
   -7.0446    3.1640  -22.0726 C   0  0  0  0  0  0  0  0  0  0  0  0
   -7.6049    2.5813  -23.2749 N   0  0  0  0  0  0  0  0  0  0  0  0
   -6.7805    1.8832  -24.0925 C   0  0  0  0  0  0  0  0  0  0  0  0
   -5.5645    1.9492  -24.0220 O   0  0  0  0  0  0  0  0  0  0  0  0
   -7.4811    0.9892  -25.1224 C   0  0  0  0  0  0  0  0  0  0  0  0
   -8.2046   -0.0800  -24.4511 N   0  0  0  0  0  0  0  0  0  0  0  0
   -7.5304   -1.3071  -24.0714 C   0  0  0  0  0  0  0  0  0  0  0  0
   -8.0847   -1.9709  -22.7555 C   0  0  2  0  0  0  0  0  0  0  0  0
   -7.6651   -1.1452  -21.5319 C   0  0  0  0  0  0  0  0  0  0  0  0
   -8.1813   -0.1292  -21.1115 O   0  0  0  0  0  0  0  0  0  0  0  0
   -6.5673   -1.7510  -20.9677 N   0  0  0  0  0  0  0  0  0  0  0  0
   -5.8954   -1.0636  -19.9366 C   0  0  0  0  0  0  0  0  0  0  0  0
   -6.2307   -1.3244  -18.6366 C   0  0  0  0  0  0  0  0  0  0  0  0
   -5.6961   -0.6917  -17.5679 N   0  0  0  0  0  0  0  0  0  0  0  0
   -4.8080    0.2432  -17.8146 C   0  0  0  0  0  0  0  0  0  0  0  0
   -4.3750    0.6151  -19.1202 C   0  0  0  0  0  0  0  0  0  0  0  0
   -3.3753    1.6007  -19.3335 C   0  0  0  0  0  0  0  0  0  0  0  0
   -2.9873    1.9383  -20.6024 C   0  0  0  0  0  0  0  0  0  0  0  0
   -3.5979    1.3258  -21.7212 C   0  0  0  0  0  0  0  0  0  0  0  0
   -4.5696    0.3711  -21.5418 C   0  0  0  0  0  0  0  0  0  0  0  0
   -4.9554   -0.0355  -20.2320 C   0  0  0  0  0  0  0  0  0  0  0  0
   -5.0598   -0.0649  -22.4083 H   0  0  0  0  0  0  0  0  0  0  0  0
   -3.3182    1.6224  -22.7279 H   0  0  0  0  0  0  0  0  0  0  0  0
   -2.2105    2.6839  -20.7596 H   0  0  0  0  0  0  0  0  0  0  0  0
   -2.9382    2.0819  -18.4629 H   0  0  0  0  0  0  0  0  0  0  0  0
   -4.3908    0.7707  -16.9572 H   0  0  0  0  0  0  0  0  0  0  0  0
   -6.9870   -2.0790  -18.4351 H   0  0  0  0  0  0  0  0  0  0  0  0
   -6.0828   -2.8979  -21.7176 C   0  0  0  0  0  0  0  0  0  0  0  0
   -7.3363   -3.3139  -22.5024 C   0  0  2  0  0  0  0  0  0  0  0  0
   -7.0241   -4.0640  -23.7925 C   0  0  0  0  0  0  0  0  0  0  0  0
   -6.5355   -5.4128  -23.6390 N   0  0  0  0  0  0  0  0  0  0  0  0
   -6.3600   -6.1352  -24.7928 C   0  0  0  0  0  0  0  0  0  0  0  0
   -5.9557   -7.4792  -24.7413 C   0  0  0  0  0  0  0  0  0  0  0  0
   -5.7945   -8.1024  -25.9540 C   0  0  0  0  0  0  0  0  0  0  0  0
   -6.0037   -7.5090  -27.1373 N   0  0  0  0  0  0  0  0  0  0  0  0
   -6.4045   -6.2423  -27.0761 C   0  0  0  0  0  0  0  0  0  0  0  0
   -6.7119   -5.5711  -28.3881 C   0  0  0  0  0  0  0  0  0  0  0  0
   -6.8880   -6.3294  -29.1546 H   0  0  0  0  0  0  0  0  0  0  0  0
   -5.8732   -4.9481  -28.7151 H   0  0  0  0  0  0  0  0  0  0  0  0
   -7.5932   -4.9312  -28.2956 H   0  0  0  0  0  0  0  0  0  0  0  0
   -6.5538   -5.5115  -25.9591 N   0  0  0  0  0  0  0  0  0  0  0  0
   -5.4923   -9.1433  -25.9941 H   0  0  0  0  0  0  0  0  0  0  0  0
   -5.7710   -7.9799  -23.7944 H   0  0  0  0  0  0  0  0  0  0  0  0
   -6.8160   -5.9402  -22.8254 H   0  0  0  0  0  0  0  0  0  0  0  0
   -6.2352   -3.5291  -24.3335 H   0  0  0  0  0  0  0  0  0  0  0  0
   -7.9052   -4.0720  -24.4497 H   0  0  0  0  0  0  0  0  0  0  0  0
   -7.9522   -3.9332  -21.8376 H   0  0  0  0  0  0  0  0  0  0  0  0
   -5.2703   -2.6109  -22.4068 H   0  0  0  0  0  0  0  0  0  0  0  0
   -5.7131   -3.6924  -21.0645 H   0  0  0  0  0  0  0  0  0  0  0  0
   -9.5956   -2.0154  -22.8319 C   0  0  0  0  0  0  0  0  0  0  0  0
  -10.4178   -2.7660  -21.9756 C   0  0  0  0  0  0  0  0  0  0  0  0
  -11.7994   -2.6903  -22.1288 C   0  0  0  0  0  0  0  0  0  0  0  0
  -12.8920   -3.3376  -20.9397 Cl  0  0  0  0  0  0  0  0  0  0  0  0
  -12.3799   -1.9827  -23.1761 C   0  0  0  0  0  0  0  0  0  0  0  0
  -11.5719   -1.1911  -23.9681 C   0  0  0  0  0  0  0  0  0  0  0  0
  -10.2227   -1.0995  -23.6824 C   0  0  0  0  0  0  0  0  0  0  0  0
   -9.5007    0.1262  -24.1299 C   0  0  0  0  0  0  0  0  0  0  0  0
  -10.0189    1.2428  -24.1743 O   0  0  0  0  0  0  0  0  0  0  0  0
  -11.9798   -0.5038  -24.7055 H   0  0  0  0  0  0  0  0  0  0  0  0
  -13.4640   -1.9471  -23.2563 H   0  0  0  0  0  0  0  0  0  0  0  0
  -10.0144   -3.3280  -21.1418 H   0  0  0  0  0  0  0  0  0  0  0  0
   -7.6378   -2.0263  -24.8894 H   0  0  0  0  0  0  0  0  0  0  0  0
   -6.4661   -1.0749  -23.9544 H   0  0  0  0  0  0  0  0  0  0  0  0
   -8.2076    1.5684  -25.7062 H   0  0  0  0  0  0  0  0  0  0  0  0
   -6.7214    0.5859  -25.8019 H   0  0  0  0  0  0  0  0  0  0  0  0
   -8.6048    2.4553  -23.3771 H   0  0  0  0  0  0  0  0  0  0  0  0
   -6.1933    3.7890  -22.3498 H   0  0  0  0  0  0  0  0  0  0  0  0
   -7.7970    3.7782  -21.5734 H   0  0  0  0  0  0  0  0  0  0  0  0
   -6.6875    2.3769  -21.3907 H   0  0  0  0  0  0  0  0  0  0  0  0
  1  2  1  0
  2  3  1  0
  3  4  2  0
  3  5  1  0
  5  6  1  0
  6  7  1  0
  8  7  1  6
  8  9  1  0
  9 10  2  0
  9 11  1  0
 11 12  1  0
 12 13  2  0
 13 14  1  0
 14 15  2  0
 15 16  1  0
 16 17  2  0
 17 18  1  0
 18 19  2  0
 19 20  1  0
 20 21  2  0
 20 22  1  0
 19 23  1  0
 18 24  1  0
 17 25  1  0
 15 26  1  0
 13 27  1  0
 11 28  1  0
 28 29  1  0
 29 30  1  0
 30 31  1  0
 31 32  1  0
 32 33  2  0
 33 34  1  0
 34 35  2  0
 35 36  1  0
 36 37  1  0
 37 38  1  0
 37 39  1  0
 37 40  1  0
 36 41  2  0
 34 42  1  0
 33 43  1  0
 31 44  1  0
 30 45  1  0
 30 46  1  0
 29 47  1  1
 28 48  1  0
 28 49  1  0
  8 50  1  0
 50 51  2  0
 51 52  1  0
 52 53  1  0
 52 54  2  0
 54 55  1  0
 55 56  2  0
 56 57  1  0
 57 58  2  0
 55 59  1  0
 54 60  1  0
 51 61  1  0
  7 62  1  0
  7 63  1  0
  5 64  1  0
  5 65  1  0
  2 66  1  0
  1 67  1  0
  1 68  1  0
  1 69  1  0
 57  6  1  0
 29  8  1  0
 41 32  1  0
 56 50  1  0
 21 12  1  0
 21 16  1  0
M  END
>  <cnnaffinities>  (14) 
[6.8266, 6.22838]

>  <score>  (14) 
6.8266

>  <index>  (14) 
13

>  <Smiles>  (14) 
C(N(C(=O)C(N1C([C@@]2(C(=O)N(c3c(nc(c4c(c(c(c(c34)[H])[H])[H])[H])[H])[H])C([C@@]2(C(N(c2c(c(nc(C([H])([H])[H])n2)[H])[H])[H])([H])[H])[H])([H])[H])c2c(c(Cl)c(c(c2C1=O)[H])[H])[H])([H])[H])([H])[H])[H])([H])([H])[H]

>  <h>  (14) 
<NA>

>  <Training>  (14) 
True

>  <Success>  (14) 
True

>  <enamine_searched>  (14) 
False

>  <enamine_id>  (14) 
nan

$$$$

     RDKit          3D

 73 78  0  0  0  0  0  0  0  0999 V2000
   -7.3427   -4.8852  -22.9475 C   0  0  0  0  0  0  0  0  0  0  0  0
   -7.5006   -3.5711  -22.1924 C   0  0  1  0  0  0  0  0  0  0  0  0
   -6.3712   -3.2212  -21.2127 C   0  0  0  0  0  0  0  0  0  0  0  0
   -6.5305   -1.7845  -21.0370 N   0  0  0  0  0  0  0  0  0  0  0  0
   -6.0026   -1.0601  -19.9439 C   0  0  0  0  0  0  0  0  0  0  0  0
   -6.3866   -1.3571  -18.6610 C   0  0  0  0  0  0  0  0  0  0  0  0
   -5.9128   -0.7438  -17.5509 N   0  0  0  0  0  0  0  0  0  0  0  0
   -5.0051    0.1884  -17.7131 C   0  0  0  0  0  0  0  0  0  0  0  0
   -4.4809    0.5700  -18.9788 C   0  0  0  0  0  0  0  0  0  0  0  0
   -3.4448    1.5392  -19.1028 C   0  0  0  0  0  0  0  0  0  0  0  0
   -2.9936    1.9129  -20.3398 C   0  0  0  0  0  0  0  0  0  0  0  0
   -3.5564    1.3427  -21.5064 C   0  0  0  0  0  0  0  0  0  0  0  0
   -4.5348    0.3861  -21.4091 C   0  0  0  0  0  0  0  0  0  0  0  0
   -5.0192   -0.0355  -20.1373 C   0  0  0  0  0  0  0  0  0  0  0  0
   -4.9665   -0.0428  -22.3094 H   0  0  0  0  0  0  0  0  0  0  0  0
   -3.2091    1.6699  -22.4850 H   0  0  0  0  0  0  0  0  0  0  0  0
   -2.2089    2.6593  -20.4337 H   0  0  0  0  0  0  0  0  0  0  0  0
   -3.0237    1.9722  -18.1968 H   0  0  0  0  0  0  0  0  0  0  0  0
   -4.6395    0.6869  -16.8160 H   0  0  0  0  0  0  0  0  0  0  0  0
   -7.1360   -2.1282  -18.4905 H   0  0  0  0  0  0  0  0  0  0  0  0
   -7.3619   -1.2133  -21.9829 C   0  0  0  0  0  0  0  0  0  0  0  0
   -7.7925   -0.0851  -21.9547 O   0  0  0  0  0  0  0  0  0  0  0  0
   -7.6174   -2.2886  -23.0697 C   0  0  1  0  0  0  0  0  0  0  0  0
   -6.5003   -2.1994  -24.1660 C   0  0  0  0  0  0  0  0  0  0  0  0
   -6.6290   -1.0654  -25.0787 N   0  0  0  0  0  0  0  0  0  0  0  0
   -5.5281   -0.1075  -25.2639 C   0  0  0  0  0  0  0  0  0  0  0  0
   -5.1363    0.1328  -26.7356 C   0  0  0  0  0  0  0  0  0  0  0  0
   -3.9848    1.0906  -26.9100 N   0  0  0  0  0  4  0  0  0  0  0  0
   -2.6400    0.4811  -26.5424 C   0  0  0  0  0  0  0  0  0  0  0  0
   -1.5949    1.5649  -26.3018 C   0  0  0  0  0  0  0  0  0  0  0  0
   -1.8278    2.6776  -27.2349 N   0  0  0  0  0  0  0  0  0  0  0  0
   -0.4650    3.5435  -27.6878 S   0  0  0  0  0  0  0  0  0  0  0  0
   -0.4297    4.8220  -26.9954 O   0  0  0  0  0  0  0  0  0  0  0  0
    0.6621    2.6312  -27.5997 O   0  0  0  0  0  0  0  0  0  0  0  0
   -0.7348    3.8469  -29.4232 C   0  0  0  0  0  0  0  0  0  0  0  0
   -1.0624    2.9155  -29.8898 H   0  0  0  0  0  0  0  0  0  0  0  0
    0.2272    4.1488  -29.8462 H   0  0  0  0  0  0  0  0  0  0  0  0
   -1.4674    4.6424  -29.5679 H   0  0  0  0  0  0  0  0  0  0  0  0
   -3.0792    3.4218  -26.9940 C   0  0  0  0  0  0  0  0  0  0  0  0
   -4.1308    2.4953  -26.3520 C   0  0  0  0  0  0  0  0  0  0  0  0
   -4.0004    2.4779  -25.2657 H   0  0  0  0  0  0  0  0  0  0  0  0
   -5.1416    2.8571  -26.5576 H   0  0  0  0  0  0  0  0  0  0  0  0
   -2.8983    4.2903  -26.3514 H   0  0  0  0  0  0  0  0  0  0  0  0
   -3.4460    3.7946  -27.9576 H   0  0  0  0  0  0  0  0  0  0  0  0
   -1.6241    1.9073  -25.2570 H   0  0  0  0  0  0  0  0  0  0  0  0
   -0.5971    1.1734  -26.4891 H   0  0  0  0  0  0  0  0  0  0  0  0
   -2.3328   -0.1579  -27.3727 H   0  0  0  0  0  0  0  0  0  0  0  0
   -2.7450   -0.1328  -25.6465 H   0  0  0  0  0  0  0  0  0  0  0  0
   -3.9223    1.2564  -27.9315 H   0  0  0  0  0  0  0  0  0  0  0  0
   -5.9977    0.5028  -27.2924 H   0  0  0  0  0  0  0  0  0  0  0  0
   -4.8519   -0.8253  -27.1857 H   0  0  0  0  0  0  0  0  0  0  0  0
   -4.6651   -0.5075  -24.7131 H   0  0  0  0  0  0  0  0  0  0  0  0
   -5.8161    0.8521  -24.8102 H   0  0  0  0  0  0  0  0  0  0  0  0
   -7.8541   -0.7396  -25.5865 C   0  0  0  0  0  0  0  0  0  0  0  0
   -8.0016   -0.0262  -26.5722 O   0  0  0  0  0  0  0  0  0  0  0  0
   -9.0510   -1.2120  -24.8226 C   0  0  0  0  0  0  0  0  0  0  0  0
  -10.2550   -0.6285  -25.1953 C   0  0  0  0  0  0  0  0  0  0  0  0
  -11.3966   -0.9185  -24.4938 C   0  0  0  0  0  0  0  0  0  0  0  0
  -11.3462   -1.8779  -23.4819 C   0  0  0  0  0  0  0  0  0  0  0  0
  -12.8226   -2.2648  -22.6431 Cl  0  0  0  0  0  0  0  0  0  0  0  0
  -10.1510   -2.4427  -23.0793 C   0  0  0  0  0  0  0  0  0  0  0  0
   -8.9590   -2.0495  -23.7063 C   0  0  0  0  0  0  0  0  0  0  0  0
  -10.1756   -3.1349  -22.2453 H   0  0  0  0  0  0  0  0  0  0  0  0
  -12.3016   -0.3619  -24.6937 H   0  0  0  0  0  0  0  0  0  0  0  0
  -10.2335    0.0780  -26.0171 H   0  0  0  0  0  0  0  0  0  0  0  0
   -5.5235   -2.1473  -23.6718 H   0  0  0  0  0  0  0  0  0  0  0  0
   -6.5359   -3.1161  -24.7640 H   0  0  0  0  0  0  0  0  0  0  0  0
   -6.4442   -3.7292  -20.2476 H   0  0  0  0  0  0  0  0  0  0  0  0
   -5.3879   -3.4674  -21.6380 H   0  0  0  0  0  0  0  0  0  0  0  0
   -8.4094   -3.6210  -21.5808 H   0  0  0  0  0  0  0  0  0  0  0  0
   -8.1774   -5.0498  -23.6388 H   0  0  0  0  0  0  0  0  0  0  0  0
   -6.4157   -4.8917  -23.5293 H   0  0  0  0  0  0  0  0  0  0  0  0
   -7.3072   -5.7468  -22.2746 H   0  0  0  0  0  0  0  0  0  0  0  0
  1  2  1  0
  2  3  1  0
  3  4  1  0
  4  5  1  0
  5  6  2  0
  6  7  1  0
  7  8  2  0
  8  9  1  0
  9 10  2  0
 10 11  1  0
 11 12  2  0
 12 13  1  0
 13 14  2  0
 13 15  1  0
 12 16  1  0
 11 17  1  0
 10 18  1  0
  8 19  1  0
  6 20  1  0
  4 21  1  0
 21 22  2  0
 21 23  1  0
 23 24  1  6
 24 25  1  0
 25 26  1  0
 26 27  1  0
 27 28  1  0
 28 29  1  0
 29 30  1  0
 30 31  1  0
 31 32  1  0
 32 33  2  0
 32 34  2  0
 32 35  1  0
 35 36  1  0
 35 37  1  0
 35 38  1  0
 31 39  1  0
 39 40  1  0
 40 41  1  0
 40 42  1  0
 39 43  1  0
 39 44  1  0
 30 45  1  0
 30 46  1  0
 29 47  1  0
 29 48  1  0
 28 49  1  0
 27 50  1  0
 27 51  1  0
 26 52  1  0
 26 53  1  0
 25 54  1  0
 54 55  2  0
 54 56  1  0
 56 57  2  0
 57 58  1  0
 58 59  2  0
 59 60  1  0
 59 61  1  0
 61 62  2  0
 61 63  1  0
 58 64  1  0
 57 65  1  0
 24 66  1  0
 24 67  1  0
  3 68  1  0
  3 69  1  0
  2 70  1  1
  1 71  1  0
  1 72  1  0
  1 73  1  0
 23  2  1  0
 40 28  1  0
 62 56  1  0
 14  5  1  0
 62 23  1  0
 14  9  1  0
M  CHG  1  28   1
M  END
>  <cnnaffinities>  (15) 
[6.03928]

>  <score>  (15) 
6.03928

>  <index>  (15) 
14

>  <Smiles>  (15) 
C([C@]1(C(N(c2c(nc(c3c(c(c(c(c23)[H])[H])[H])[H])[H])[H])C(=O)[C@]21C(N(C(C([N+]1(C(C(N(S(=O)(=O)C([H])([H])[H])C(C1([H])[H])([H])[H])([H])[H])([H])[H])[H])([H])[H])([H])[H])C(=O)c1c(c(c(Cl)c(c21)[H])[H])[H])([H])[H])([H])[H])[H])([H])([H])[H]

>  <h>  (15) 
<NA>

>  <Training>  (15) 
True

>  <Success>  (15) 
True

>  <enamine_searched>  (15) 
False

>  <enamine_id>  (15) 
nan

$$$$

     RDKit          3D

 63 68  0  0  0  0  0  0  0  0999 V2000
   -9.5099   -8.0140  -24.6802 C   0  0  0  0  0  0  0  0  0  0  0  0
   -8.5351   -7.3723  -23.8124 N   0  0  0  0  0  0  0  0  0  0  0  0
   -7.2987   -7.0950  -24.3420 C   0  0  0  0  0  0  0  0  0  0  0  0
   -6.9011   -7.6427  -25.3512 O   0  0  0  0  0  0  0  0  0  0  0  0
   -6.4201   -6.0671  -23.6163 C   0  0  0  0  0  0  0  0  0  0  0  0
   -6.7346   -4.7058  -23.9922 N   0  0  0  0  0  0  0  0  0  0  0  0
   -7.9485   -4.1243  -23.4546 C   0  0  0  0  0  0  0  0  0  0  0  0
   -7.8077   -2.6256  -23.1764 C   0  0  2  0  0  0  0  0  0  0  0  0
   -6.8301   -2.4124  -22.0100 C   0  0  0  0  0  0  0  0  0  0  0  0
   -5.7654   -2.9668  -21.8170 O   0  0  0  0  0  0  0  0  0  0  0  0
   -7.3608   -1.4491  -21.1889 N   0  0  0  0  0  0  0  0  0  0  0  0
   -6.5829   -0.8446  -20.1840 C   0  0  0  0  0  0  0  0  0  0  0  0
   -6.9157   -1.0540  -18.8721 C   0  0  0  0  0  0  0  0  0  0  0  0
   -6.2306   -0.5555  -17.8203 N   0  0  0  0  0  0  0  0  0  0  0  0
   -5.1919    0.1993  -18.0941 C   0  0  0  0  0  0  0  0  0  0  0  0
   -4.7528    0.5089  -19.4142 C   0  0  0  0  0  0  0  0  0  0  0  0
   -3.6278    1.3452  -19.6328 C   0  0  0  0  0  0  0  0  0  0  0  0
   -3.2335    1.6495  -20.9062 C   0  0  0  0  0  0  0  0  0  0  0  0
   -3.9494    1.1432  -22.0137 C   0  0  0  0  0  0  0  0  0  0  0  0
   -5.0453    0.3342  -21.8348 C   0  0  0  0  0  0  0  0  0  0  0  0
   -5.4648   -0.0157  -20.5113 C   0  0  0  0  0  0  0  0  0  0  0  0
   -5.5880   -0.0314  -22.7080 H   0  0  0  0  0  0  0  0  0  0  0  0
   -3.6242    1.4051  -23.0169 H   0  0  0  0  0  0  0  0  0  0  0  0
   -2.3802    2.2999  -21.0719 H   0  0  0  0  0  0  0  0  0  0  0  0
   -3.1074    1.7421  -18.7669 H   0  0  0  0  0  0  0  0  0  0  0  0
   -4.6394    0.6080  -17.2497 H   0  0  0  0  0  0  0  0  0  0  0  0
   -7.7747   -1.6811  -18.6405 H   0  0  0  0  0  0  0  0  0  0  0  0
   -8.6743   -0.9788  -21.5645 C   0  0  0  0  0  0  0  0  0  0  0  0
   -9.1215   -1.9442  -22.6735 C   0  0  2  0  0  0  0  0  0  0  0  0
  -10.2239   -2.8719  -22.1160 C   0  0  0  0  0  0  0  0  0  0  0  0
  -10.9078   -3.6517  -23.1350 N   0  0  0  0  0  0  0  0  0  0  0  0
  -11.6120   -3.1885  -24.1930 C   0  0  0  0  0  0  0  0  0  0  0  0
  -12.0644   -4.2947  -24.8791 C   0  0  0  0  0  0  0  0  0  0  0  0
  -11.5673   -5.3785  -24.1474 C   0  0  0  0  0  0  0  0  0  0  0  0
  -10.8666   -4.9929  -23.0913 N   0  0  0  0  0  0  0  0  0  0  0  0
  -11.6941   -6.4302  -24.3582 H   0  0  0  0  0  0  0  0  0  0  0  0
  -12.6882   -4.3401  -25.7584 H   0  0  0  0  0  0  0  0  0  0  0  0
  -11.7216   -2.1247  -24.3764 H   0  0  0  0  0  0  0  0  0  0  0  0
  -10.9657   -2.2550  -21.5907 H   0  0  0  0  0  0  0  0  0  0  0  0
   -9.8074   -3.5788  -21.3941 H   0  0  0  0  0  0  0  0  0  0  0  0
   -9.5784   -1.4022  -23.5087 H   0  0  0  0  0  0  0  0  0  0  0  0
   -9.3478   -1.0194  -20.7115 H   0  0  0  0  0  0  0  0  0  0  0  0
   -8.6507    0.0694  -21.8934 H   0  0  0  0  0  0  0  0  0  0  0  0
   -7.2694   -1.9840  -24.4497 C   0  0  0  0  0  0  0  0  0  0  0  0
   -7.4912   -0.6317  -24.7295 C   0  0  0  0  0  0  0  0  0  0  0  0
   -6.9685   -0.0669  -25.8798 C   0  0  0  0  0  0  0  0  0  0  0  0
   -7.2550    1.6158  -26.2011 Cl  0  0  0  0  0  0  0  0  0  0  0  0
   -6.2230   -0.8096  -26.7918 C   0  0  0  0  0  0  0  0  0  0  0  0
   -5.9864   -2.1381  -26.5075 C   0  0  0  0  0  0  0  0  0  0  0  0
   -6.4811   -2.7166  -25.3421 C   0  0  0  0  0  0  0  0  0  0  0  0
   -6.1031   -4.1383  -25.0629 C   0  0  0  0  0  0  0  0  0  0  0  0
   -5.2719   -4.7322  -25.7383 O   0  0  0  0  0  0  0  0  0  0  0  0
   -5.4030   -2.7710  -27.1640 H   0  0  0  0  0  0  0  0  0  0  0  0
   -5.8289   -0.3506  -27.6913 H   0  0  0  0  0  0  0  0  0  0  0  0
   -8.0760   -0.0024  -24.0666 H   0  0  0  0  0  0  0  0  0  0  0  0
   -8.7962   -4.2606  -24.1339 H   0  0  0  0  0  0  0  0  0  0  0  0
   -8.1601   -4.6327  -22.5165 H   0  0  0  0  0  0  0  0  0  0  0  0
   -5.3839   -6.2410  -23.9103 H   0  0  0  0  0  0  0  0  0  0  0  0
   -6.5081   -6.1443  -22.5260 H   0  0  0  0  0  0  0  0  0  0  0  0
   -8.9463   -6.7371  -23.1425 H   0  0  0  0  0  0  0  0  0  0  0  0
   -9.0323   -8.8181  -25.2348 H   0  0  0  0  0  0  0  0  0  0  0  0
   -9.9345   -7.3232  -25.4245 H   0  0  0  0  0  0  0  0  0  0  0  0
  -10.3120   -8.4319  -24.0681 H   0  0  0  0  0  0  0  0  0  0  0  0
  1  2  1  0
  2  3  1  0
  3  4  2  0
  3  5  1  0
  5  6  1  0
  6  7  1  0
  8  7  1  6
  8  9  1  0
  9 10  2  0
  9 11  1  0
 11 12  1  0
 12 13  2  0
 13 14  1  0
 14 15  2  0
 15 16  1  0
 16 17  2  0
 17 18  1  0
 18 19  2  0
 19 20  1  0
 20 21  2  0
 20 22  1  0
 19 23  1  0
 18 24  1  0
 17 25  1  0
 15 26  1  0
 13 27  1  0
 11 28  1  0
 28 29  1  0
 29 30  1  0
 30 31  1  0
 31 32  1  0
 32 33  2  0
 33 34  1  0
 34 35  2  0
 34 36  1  0
 33 37  1  0
 32 38  1  0
 30 39  1  0
 30 40  1  0
 29 41  1  6
 28 42  1  0
 28 43  1  0
  8 44  1  0
 44 45  2  0
 45 46  1  0
 46 47  1  0
 46 48  2  0
 48 49  1  0
 49 50  2  0
 50 51  1  0
 51 52  2  0
 49 53  1  0
 48 54  1  0
 45 55  1  0
  7 56  1  0
  7 57  1  0
  5 58  1  0
  5 59  1  0
  2 60  1  0
  1 61  1  0
  1 62  1  0
  1 63  1  0
 51  6  1  0
 29  8  1  0
 35 31  1  0
 50 44  1  0
 21 12  1  0
 21 16  1  0
M  END
>  <cnnaffinities>  (16) 
[6.65822]

>  <score>  (16) 
6.65822

>  <index>  (16) 
15

>  <Smiles>  (16) 
C(N(C(=O)C(N1C([C@@]2(C(=O)N(c3c(nc(c4c(c(c(c(c34)[H])[H])[H])[H])[H])[H])C([C@@]2(C(n2c(c(c(n2)[H])[H])[H])([H])[H])[H])([H])[H])c2c(c(Cl)c(c(c2C1=O)[H])[H])[H])([H])[H])([H])[H])[H])([H])([H])[H]

>  <h>  (16) 
<NA>

>  <Training>  (16) 
True

>  <Success>  (16) 
True

>  <enamine_searched>  (16) 
False

>  <enamine_id>  (16) 
nan

$$$$

     RDKit          3D

 61 66  0  0  0  0  0  0  0  0999 V2000
   -6.8491    2.8340  -22.1200 C   0  0  0  0  0  0  0  0  0  0  0  0
   -7.2606    2.0977  -23.2937 N   0  0  0  0  0  0  0  0  0  0  0  0
   -6.3703    1.5360  -24.1385 C   0  0  0  0  0  0  0  0  0  0  0  0
   -5.1750    1.8037  -24.1648 O   0  0  0  0  0  0  0  0  0  0  0  0
   -6.9827    0.5160  -25.1077 C   0  0  0  0  0  0  0  0  0  0  0  0
   -7.8453   -0.4668  -24.4731 N   0  0  0  0  0  0  0  0  0  0  0  0
   -7.3005   -1.7219  -24.0018 C   0  0  0  0  0  0  0  0  0  0  0  0
   -7.9242   -2.2124  -22.6567 C   0  0  2  0  0  0  0  0  0  0  0  0
   -7.5123   -1.2990  -21.4838 C   0  0  0  0  0  0  0  0  0  0  0  0
   -8.0517   -0.2828  -21.0889 O   0  0  0  0  0  0  0  0  0  0  0  0
   -6.3775   -1.8363  -20.9198 N   0  0  0  0  0  0  0  0  0  0  0  0
   -5.7258   -1.1491  -19.8635 C   0  0  0  0  0  0  0  0  0  0  0  0
   -5.9935   -1.4898  -18.5618 C   0  0  0  0  0  0  0  0  0  0  0  0
   -5.4567   -0.8821  -17.4768 N   0  0  0  0  0  0  0  0  0  0  0  0
   -4.6359    0.1175  -17.6954 C   0  0  0  0  0  0  0  0  0  0  0  0
   -4.2729    0.5854  -18.9897 C   0  0  0  0  0  0  0  0  0  0  0  0
   -3.3769    1.6748  -19.1687 C   0  0  0  0  0  0  0  0  0  0  0  0
   -2.9916    2.0555  -20.4264 C   0  0  0  0  0  0  0  0  0  0  0  0
   -3.4942    1.3787  -21.5628 C   0  0  0  0  0  0  0  0  0  0  0  0
   -4.4000    0.3532  -21.4134 C   0  0  0  0  0  0  0  0  0  0  0  0
   -4.8111   -0.0775  -20.1204 C   0  0  0  0  0  0  0  0  0  0  0  0
   -4.8215   -0.1291  -22.2925 H   0  0  0  0  0  0  0  0  0  0  0  0
   -3.1937    1.6833  -22.5614 H   0  0  0  0  0  0  0  0  0  0  0  0
   -2.2900    2.8769  -20.5556 H   0  0  0  0  0  0  0  0  0  0  0  0
   -3.0108    2.1873  -18.2818 H   0  0  0  0  0  0  0  0  0  0  0  0
   -4.2087    0.6108  -16.8235 H   0  0  0  0  0  0  0  0  0  0  0  0
   -6.6935   -2.2972  -18.3559 H   0  0  0  0  0  0  0  0  0  0  0  0
   -6.0170   -3.1465  -21.4429 C   0  0  0  0  0  0  0  0  0  0  0  0
   -7.2608   -3.5631  -22.2519 C   0  0  2  0  0  0  0  0  0  0  0  0
   -6.9526   -4.4503  -23.4674 C   0  0  0  0  0  0  0  0  0  0  0  0
   -6.5985   -5.8088  -23.1213 N   0  0  0  0  0  0  0  0  0  0  0  0
   -7.4969   -6.7746  -23.0699 N   0  0  0  0  0  0  0  0  0  0  0  0
   -6.7432   -7.8198  -22.7749 C   0  0  0  0  0  0  0  0  0  0  0  0
   -5.4364   -7.4915  -22.6513 N   0  0  0  0  0  0  0  0  0  0  0  0
   -5.3682   -6.2078  -22.8808 N   0  0  0  0  0  0  0  0  0  0  0  0
   -7.1454   -8.8194  -22.6649 H   0  0  0  0  0  0  0  0  0  0  0  0
   -7.8444   -4.5383  -24.0943 H   0  0  0  0  0  0  0  0  0  0  0  0
   -6.1357   -4.0393  -24.0680 H   0  0  0  0  0  0  0  0  0  0  0  0
   -7.9290   -4.1412  -21.6038 H   0  0  0  0  0  0  0  0  0  0  0  0
   -5.7873   -3.8476  -20.6342 H   0  0  0  0  0  0  0  0  0  0  0  0
   -5.1494   -3.0871  -22.1173 H   0  0  0  0  0  0  0  0  0  0  0  0
   -9.4245   -2.2095  -22.8264 C   0  0  0  0  0  0  0  0  0  0  0  0
  -10.2683   -2.9684  -22.0063 C   0  0  0  0  0  0  0  0  0  0  0  0
  -11.6392   -2.8183  -22.1326 C   0  0  0  0  0  0  0  0  0  0  0  0
  -12.7432   -3.4224  -20.9430 Cl  0  0  0  0  0  0  0  0  0  0  0  0
  -12.1997   -2.0680  -23.1589 C   0  0  0  0  0  0  0  0  0  0  0  0
  -11.3673   -1.2992  -23.9503 C   0  0  0  0  0  0  0  0  0  0  0  0
   -9.9966   -1.2873  -23.7185 C   0  0  0  0  0  0  0  0  0  0  0  0
   -9.1686   -0.2013  -24.3389 C   0  0  0  0  0  0  0  0  0  0  0  0
   -9.6327    0.9020  -24.6395 O   0  0  0  0  0  0  0  0  0  0  0  0
  -11.7719   -0.6294  -24.6990 H   0  0  0  0  0  0  0  0  0  0  0  0
  -13.2833   -2.0422  -23.2214 H   0  0  0  0  0  0  0  0  0  0  0  0
   -9.8403   -3.6426  -21.2716 H   0  0  0  0  0  0  0  0  0  0  0  0
   -6.2171   -1.5999  -23.8896 H   0  0  0  0  0  0  0  0  0  0  0  0
   -7.5100   -2.5000  -24.7435 H   0  0  0  0  0  0  0  0  0  0  0  0
   -6.1681    0.0048  -25.6219 H   0  0  0  0  0  0  0  0  0  0  0  0
   -7.5949    1.0525  -25.8380 H   0  0  0  0  0  0  0  0  0  0  0  0
   -8.2454    1.9154  -23.4370 H   0  0  0  0  0  0  0  0  0  0  0  0
   -6.0080    3.4857  -22.3626 H   0  0  0  0  0  0  0  0  0  0  0  0
   -7.6813    3.4524  -21.7787 H   0  0  0  0  0  0  0  0  0  0  0  0
   -6.5442    2.1530  -21.3140 H   0  0  0  0  0  0  0  0  0  0  0  0
  1  2  1  0
  2  3  1  0
  3  4  2  0
  3  5  1  0
  5  6  1  0
  6  7  1  0
  8  7  1  6
  8  9  1  0
  9 10  2  0
  9 11  1  0
 11 12  1  0
 12 13  2  0
 13 14  1  0
 14 15  2  0
 15 16  1  0
 16 17  2  0
 17 18  1  0
 18 19  2  0
 19 20  1  0
 20 21  2  0
 20 22  1  0
 19 23  1  0
 18 24  1  0
 17 25  1  0
 15 26  1  0
 13 27  1  0
 11 28  1  0
 28 29  1  0
 29 30  1  0
 30 31  1  0
 31 32  1  0
 32 33  2  0
 33 34  1  0
 34 35  2  0
 33 36  1  0
 30 37  1  0
 30 38  1  0
 29 39  1  1
 28 40  1  0
 28 41  1  0
  8 42  1  0
 42 43  2  0
 43 44  1  0
 44 45  1  0
 44 46  2  0
 46 47  1  0
 47 48  2  0
 48 49  1  0
 49 50  2  0
 47 51  1  0
 46 52  1  0
 43 53  1  0
  7 54  1  0
  7 55  1  0
  5 56  1  0
  5 57  1  0
  2 58  1  0
  1 59  1  0
  1 60  1  0
  1 61  1  0
 49  6  1  0
 29  8  1  0
 35 31  1  0
 48 42  1  0
 21 12  1  0
 21 16  1  0
M  END
>  <cnnaffinities>  (17) 
[6.84065]

>  <score>  (17) 
6.84065

>  <index>  (17) 
16

>  <Smiles>  (17) 
C(N(C(=O)C(N1C([C@@]2(C(=O)N(c3c(nc(c4c(c(c(c(c34)[H])[H])[H])[H])[H])[H])C([C@@]2(C(n2nc(nn2)[H])([H])[H])[H])([H])[H])c2c(c(Cl)c(c(c2C1=O)[H])[H])[H])([H])[H])([H])[H])[H])([H])([H])[H]

>  <h>  (17) 
<NA>

>  <Training>  (17) 
True

>  <Success>  (17) 
True

>  <enamine_searched>  (17) 
False

>  <enamine_id>  (17) 
nan

$$$$

     RDKit          3D

 38 41  0  0  0  0  0  0  0  0999 V2000
   -9.3481   -4.9449  -25.6906 C   0  0  0  0  0  0  0  0  0  0  0  0
   -9.3465   -4.1963  -24.3581 C   0  0  2  0  0  0  0  0  0  0  0  0
  -10.3485   -3.0428  -24.3821 C   0  0  0  0  0  0  0  0  0  0  0  0
  -10.4198   -2.3549  -23.0171 C   0  0  0  0  0  0  0  0  0  0  0  0
   -9.0741   -2.1282  -22.4759 C   0  0  0  0  0  0  0  0  0  0  0  0
   -8.6944   -1.2295  -21.4393 C   0  0  0  0  0  0  0  0  0  0  0  0
   -9.3453   -0.3884  -20.8768 O   0  0  0  0  0  1  0  0  0  0  0  0
   -7.3233   -1.4863  -21.2086 N   0  0  0  0  0  0  0  0  0  0  0  0
   -6.5674   -0.8473  -20.1874 C   0  0  0  0  0  0  0  0  0  0  0  0
   -6.8883   -1.0549  -18.8701 C   0  0  0  0  0  0  0  0  0  0  0  0
   -6.1895   -0.5553  -17.8199 N   0  0  0  0  0  0  0  0  0  0  0  0
   -5.1592    0.2116  -18.0768 C   0  0  0  0  0  0  0  0  0  0  0  0
   -4.7269    0.5342  -19.3911 C   0  0  0  0  0  0  0  0  0  0  0  0
   -3.5998    1.3679  -19.6269 C   0  0  0  0  0  0  0  0  0  0  0  0
   -3.2212    1.6692  -20.9065 C   0  0  0  0  0  0  0  0  0  0  0  0
   -3.9527    1.1574  -22.0011 C   0  0  0  0  0  0  0  0  0  0  0  0
   -5.0467    0.3544  -21.7985 C   0  0  0  0  0  0  0  0  0  0  0  0
   -5.4544    0.0046  -20.4850 C   0  0  0  0  0  0  0  0  0  0  0  0
   -5.6070   -0.0299  -22.6437 H   0  0  0  0  0  0  0  0  0  0  0  0
   -3.6514    1.4064  -23.0145 H   0  0  0  0  0  0  0  0  0  0  0  0
   -2.3665    2.3151  -21.0952 H   0  0  0  0  0  0  0  0  0  0  0  0
   -3.0597    1.7720  -18.7742 H   0  0  0  0  0  0  0  0  0  0  0  0
   -4.6125    0.6186  -17.2220 H   0  0  0  0  0  0  0  0  0  0  0  0
   -7.7406   -1.6725  -18.5983 H   0  0  0  0  0  0  0  0  0  0  0  0
   -6.8498   -2.4310  -22.1281 C   0  0  0  0  0  0  0  0  0  0  0  0
   -5.7157   -2.8300  -22.2460 O   0  0  0  0  0  0  0  0  0  0  0  0
   -7.9667   -2.7927  -22.8735 N   0  0  0  0  0  0  0  0  0  0  0  0
   -7.9439   -3.6866  -24.0139 C   0  0  0  0  0  0  0  0  0  0  0  0
   -7.2759   -4.5023  -23.7593 H   0  0  0  0  0  0  0  0  0  0  0  0
   -7.5084   -3.1780  -24.8774 H   0  0  0  0  0  0  0  0  0  0  0  0
  -10.9609   -1.4045  -23.0786 H   0  0  0  0  0  0  0  0  0  0  0  0
  -11.0040   -2.9648  -22.3104 H   0  0  0  0  0  0  0  0  0  0  0  0
  -10.0335   -2.3168  -25.1406 H   0  0  0  0  0  0  0  0  0  0  0  0
  -11.3416   -3.4066  -24.6774 H   0  0  0  0  0  0  0  0  0  0  0  0
   -9.6526   -4.9009  -23.5739 H   0  0  0  0  0  0  0  0  0  0  0  0
  -10.3421   -5.3468  -25.9213 H   0  0  0  0  0  0  0  0  0  0  0  0
   -8.6476   -5.7874  -25.6927 H   0  0  0  0  0  0  0  0  0  0  0  0
   -9.0723   -4.2814  -26.5199 H   0  0  0  0  0  0  0  0  0  0  0  0
  1  2  1  0
  2  3  1  0
  3  4  1  0
  4  5  1  0
  5  6  2  0
  6  7  1  0
  6  8  1  0
  8  9  1  0
  9 10  2  0
 10 11  1  0
 11 12  2  0
 12 13  1  0
 13 14  2  0
 14 15  1  0
 15 16  2  0
 16 17  1  0
 17 18  2  0
 17 19  1  0
 16 20  1  0
 15 21  1  0
 14 22  1  0
 12 23  1  0
 10 24  1  0
  8 25  1  0
 25 26  2  0
 25 27  1  0
 27 28  1  0
 28 29  1  0
 28 30  1  0
  4 31  1  0
  4 32  1  0
  3 33  1  0
  3 34  1  0
  2 35  1  1
  1 36  1  0
  1 37  1  0
  1 38  1  0
 28  2  1  0
 27  5  1  0
 18  9  1  0
 18 13  1  0
M  CHG  1   7  -1
M  END
>  <cnnaffinities>  (18) 
[5.59525, 5.60244, 5.27455, 5.02982, 5.08749, 5.60241, 5.57656]

>  <score>  (18) 
5.59525

>  <index>  (18) 
17

>  <Smiles>  (18) 
C([C@@]1(C(C(c2c([O-])n(c3c(nc(c4c(c(c(c(c34)[H])[H])[H])[H])[H])[H])c(=O)n2C1([H])[H])([H])[H])([H])[H])[H])([H])([H])[H]

>  <h>  (18) 
<NA>

>  <Training>  (18) 
True

>  <Success>  (18) 
True

>  <enamine_searched>  (18) 
False

>  <enamine_id>  (18) 
nan

$$$$

     RDKit          3D

 56 61  0  0  0  0  0  0  0  0999 V2000
  -10.2527   -2.9012  -22.1001 C   0  0  0  0  0  0  0  0  0  0  0  0
   -9.1474   -1.9863  -22.6446 C   0  0  1  0  0  0  0  0  0  0  0  0
   -8.6814   -0.9929  -21.5609 C   0  0  0  0  0  0  0  0  0  0  0  0
   -7.3625   -1.4446  -21.1921 N   0  0  0  0  0  0  0  0  0  0  0  0
   -6.5817   -0.8428  -20.1863 C   0  0  0  0  0  0  0  0  0  0  0  0
   -6.9173   -1.0563  -18.8764 C   0  0  0  0  0  0  0  0  0  0  0  0
   -6.2294   -0.5633  -17.8219 N   0  0  0  0  0  0  0  0  0  0  0  0
   -5.1920    0.1936  -18.0946 C   0  0  0  0  0  0  0  0  0  0  0  0
   -4.7484    0.5045  -19.4133 C   0  0  0  0  0  0  0  0  0  0  0  0
   -3.6265    1.3434  -19.6365 C   0  0  0  0  0  0  0  0  0  0  0  0
   -3.2320    1.6504  -20.9083 C   0  0  0  0  0  0  0  0  0  0  0  0
   -3.9425    1.1384  -22.0191 C   0  0  0  0  0  0  0  0  0  0  0  0
   -5.0337    0.3247  -21.8368 C   0  0  0  0  0  0  0  0  0  0  0  0
   -5.4575   -0.0221  -20.5143 C   0  0  0  0  0  0  0  0  0  0  0  0
   -5.5759   -0.0452  -22.7095 H   0  0  0  0  0  0  0  0  0  0  0  0
   -3.6202    1.4029  -23.0232 H   0  0  0  0  0  0  0  0  0  0  0  0
   -2.3761    2.2978  -21.0762 H   0  0  0  0  0  0  0  0  0  0  0  0
   -3.1060    1.7431  -18.7707 H   0  0  0  0  0  0  0  0  0  0  0  0
   -4.6418    0.6114  -17.2513 H   0  0  0  0  0  0  0  0  0  0  0  0
   -7.7761   -1.6892  -18.6515 H   0  0  0  0  0  0  0  0  0  0  0  0
   -6.8404   -2.4234  -21.9961 C   0  0  0  0  0  0  0  0  0  0  0  0
   -5.7713   -2.9642  -21.8101 O   0  0  0  0  0  0  0  0  0  0  0  0
   -7.8460   -2.6963  -23.1290 C   0  0  1  0  0  0  0  0  0  0  0  0
   -7.9994   -4.2103  -23.2927 C   0  0  0  0  0  0  0  0  0  0  0  0
   -6.7738   -4.7789  -23.8155 N   0  0  0  0  0  0  0  0  0  0  0  0
   -6.3961   -6.0951  -23.3493 C   0  0  0  0  0  0  0  0  0  0  0  0
   -7.3334   -7.1217  -23.9174 C   0  0  0  0  0  0  0  0  0  0  0  0
   -7.4063   -7.5545  -25.2641 C   0  0  0  0  0  0  0  0  0  0  0  0
   -8.5796   -8.2653  -25.3299 C   0  0  0  0  0  0  0  0  0  0  0  0
   -9.1009   -8.2552  -24.0781 N   0  0  0  0  0  0  0  0  0  0  0  0
   -8.3481   -7.5763  -23.1983 N   0  0  0  0  0  0  0  0  0  0  0  0
   -9.9005   -8.7511  -23.7139 H   0  0  0  0  0  0  0  0  0  0  0  0
   -9.0259   -8.7821  -26.1744 H   0  0  0  0  0  0  0  0  0  0  0  0
   -6.6704   -7.4048  -26.0474 H   0  0  0  0  0  0  0  0  0  0  0  0
   -5.3499   -6.2456  -23.6329 H   0  0  0  0  0  0  0  0  0  0  0  0
   -6.4752   -6.0874  -22.2592 H   0  0  0  0  0  0  0  0  0  0  0  0
   -6.2542   -4.3427  -25.0004 C   0  0  0  0  0  0  0  0  0  0  0  0
   -5.5352   -5.0351  -25.7090 O   0  0  0  0  0  0  0  0  0  0  0  0
   -6.5915   -2.9314  -25.3324 C   0  0  0  0  0  0  0  0  0  0  0  0
   -6.1179   -2.4318  -26.5424 C   0  0  0  0  0  0  0  0  0  0  0  0
   -6.3033   -1.1033  -26.8665 C   0  0  0  0  0  0  0  0  0  0  0  0
   -6.9733   -0.2965  -25.9505 C   0  0  0  0  0  0  0  0  0  0  0  0
   -7.1366    1.0060  -26.2442 F   0  0  0  0  0  0  0  0  0  0  0  0
   -7.4778   -0.7769  -24.7558 C   0  0  0  0  0  0  0  0  0  0  0  0
   -7.3118   -2.1305  -24.4398 C   0  0  0  0  0  0  0  0  0  0  0  0
   -8.0030   -0.0932  -24.0933 H   0  0  0  0  0  0  0  0  0  0  0  0
   -5.9198   -0.6715  -27.7847 H   0  0  0  0  0  0  0  0  0  0  0  0
   -5.5910   -3.1248  -27.1911 H   0  0  0  0  0  0  0  0  0  0  0  0
   -8.2265   -4.6689  -22.3270 H   0  0  0  0  0  0  0  0  0  0  0  0
   -8.8292   -4.4126  -23.9819 H   0  0  0  0  0  0  0  0  0  0  0  0
   -8.6508    0.0433  -21.9208 H   0  0  0  0  0  0  0  0  0  0  0  0
   -9.3429   -1.0118  -20.6982 H   0  0  0  0  0  0  0  0  0  0  0  0
   -9.5918   -1.4525  -23.4904 H   0  0  0  0  0  0  0  0  0  0  0  0
   -9.8987   -3.5006  -21.2549 H   0  0  0  0  0  0  0  0  0  0  0  0
  -10.6293   -3.5780  -22.8726 H   0  0  0  0  0  0  0  0  0  0  0  0
  -11.1005   -2.3005  -21.7518 H   0  0  0  0  0  0  0  0  0  0  0  0
  1  2  1  0
  2  3  1  0
  3  4  1  0
  4  5  1  0
  5  6  2  0
  6  7  1  0
  7  8  2  0
  8  9  1  0
  9 10  2  0
 10 11  1  0
 11 12  2  0
 12 13  1  0
 13 14  2  0
 13 15  1  0
 12 16  1  0
 11 17  1  0
 10 18  1  0
  8 19  1  0
  6 20  1  0
  4 21  1  0
 21 22  2  0
 21 23  1  0
 23 24  1  6
 24 25  1  0
 25 26  1  0
 26 27  1  0
 27 28  1  0
 28 29  2  0
 29 30  1  0
 30 31  1  0
 30 32  1  0
 29 33  1  0
 28 34  1  0
 26 35  1  0
 26 36  1  0
 25 37  1  0
 37 38  2  0
 37 39  1  0
 39 40  2  0
 40 41  1  0
 41 42  2  0
 42 43  1  0
 42 44  1  0
 44 45  2  0
 44 46  1  0
 41 47  1  0
 40 48  1  0
 24 49  1  0
 24 50  1  0
  3 51  1  0
  3 52  1  0
  2 53  1  6
  1 54  1  0
  1 55  1  0
  1 56  1  0
 23  2  1  0
 31 27  2  0
 45 39  1  0
 14  5  1  0
 45 23  1  0
 14  9  1  0
M  END
>  <cnnaffinities>  (19) 
[6.34246]

>  <score>  (19) 
6.34246

>  <index>  (19) 
18

>  <Smiles>  (19) 
C([C@]1(C(N(c2c(nc(c3c(c(c(c(c23)[H])[H])[H])[H])[H])[H])C(=O)[C@]21C(N(C(c1c(c(n(n1)[H])[H])[H])([H])[H])C(=O)c1c(c(c(F)c(c21)[H])[H])[H])([H])[H])([H])[H])[H])([H])([H])[H]

>  <h>  (19) 
<NA>

>  <Training>  (19) 
True

>  <Success>  (19) 
True

>  <enamine_searched>  (19) 
False

>  <enamine_id>  (19) 
nan

$$$$

     RDKit          3D

 42 45  0  0  0  0  0  0  0  0999 V2000
   -8.4632    0.5860  -21.5813 O   0  0  0  0  0  0  0  0  0  0  0  0
   -8.2323   -0.5450  -21.9547 C   0  0  0  0  0  0  0  0  0  0  0  0
   -8.7648   -1.1089  -23.2791 C   0  0  1  0  0  0  0  0  0  0  0  0
   -7.7645   -0.8687  -24.4022 C   0  0  0  0  0  0  0  0  0  0  0  0
   -6.9981   -1.8789  -24.9771 C   0  0  0  0  0  0  0  0  0  0  0  0
   -6.0607   -1.5945  -25.9602 C   0  0  0  0  0  0  0  0  0  0  0  0
   -5.8766   -0.2914  -26.4019 C   0  0  0  0  0  0  0  0  0  0  0  0
   -4.6883    0.0229  -27.6200 Cl  0  0  0  0  0  0  0  0  0  0  0  0
   -6.6531    0.7289  -25.8513 C   0  0  0  0  0  0  0  0  0  0  0  0
   -6.4553    2.3707  -26.3660 Cl  0  0  0  0  0  0  0  0  0  0  0  0
   -7.5888    0.4349  -24.8666 C   0  0  0  0  0  0  0  0  0  0  0  0
   -8.1738    1.2504  -24.4540 H   0  0  0  0  0  0  0  0  0  0  0  0
   -5.4627   -2.3894  -26.3875 H   0  0  0  0  0  0  0  0  0  0  0  0
   -7.1166   -2.9106  -24.6672 H   0  0  0  0  0  0  0  0  0  0  0  0
   -9.2394   -2.5525  -23.1307 C   0  0  0  0  0  0  0  0  0  0  0  0
   -8.4130   -3.4284  -22.1841 C   0  0  2  0  0  0  0  0  0  0  0  0
   -9.2735   -3.8623  -21.1515 O   0  0  0  0  0  0  0  0  0  0  0  0
   -9.4302   -3.0992  -20.5750 H   0  0  0  0  0  0  0  0  0  0  0  0
   -7.1440   -2.7424  -21.6733 C   0  0  0  0  0  0  0  0  0  0  0  0
   -7.4287   -1.3911  -21.2117 N   0  0  0  0  0  0  0  0  0  0  0  0
   -6.6095   -0.8087  -20.1861 C   0  0  0  0  0  0  0  0  0  0  0  0
   -6.8891   -1.0486  -18.8672 C   0  0  0  0  0  0  0  0  0  0  0  0
   -6.1878   -0.5546  -17.8147 N   0  0  0  0  0  0  0  0  0  0  0  0
   -5.1610    0.2186  -18.0727 C   0  0  0  0  0  0  0  0  0  0  0  0
   -4.7277    0.5323  -19.3923 C   0  0  0  0  0  0  0  0  0  0  0  0
   -3.5958    1.3601  -19.6321 C   0  0  0  0  0  0  0  0  0  0  0  0
   -3.1995    1.6332  -20.9137 C   0  0  0  0  0  0  0  0  0  0  0  0
   -3.9104    1.0868  -22.0078 C   0  0  0  0  0  0  0  0  0  0  0  0
   -5.0070    0.2852  -21.7997 C   0  0  0  0  0  0  0  0  0  0  0  0
   -5.4595   -0.0008  -20.4837 C   0  0  0  0  0  0  0  0  0  0  0  0
   -5.5431   -0.1405  -22.6438 H   0  0  0  0  0  0  0  0  0  0  0  0
   -3.5883    1.3065  -23.0203 H   0  0  0  0  0  0  0  0  0  0  0  0
   -2.3411    2.2714  -21.1054 H   0  0  0  0  0  0  0  0  0  0  0  0
   -3.0562    1.7775  -18.7844 H   0  0  0  0  0  0  0  0  0  0  0  0
   -4.6091    0.6238  -17.2205 H   0  0  0  0  0  0  0  0  0  0  0  0
   -7.7345   -1.6747  -18.5966 H   0  0  0  0  0  0  0  0  0  0  0  0
   -6.3526   -2.7564  -22.4399 H   0  0  0  0  0  0  0  0  0  0  0  0
   -6.7565   -3.2973  -20.8170 H   0  0  0  0  0  0  0  0  0  0  0  0
   -8.1099   -4.3498  -22.6836 H   0  0  0  0  0  0  0  0  0  0  0  0
  -10.2487   -2.5533  -22.6999 H   0  0  0  0  0  0  0  0  0  0  0  0
   -9.3414   -3.0387  -24.1054 H   0  0  0  0  0  0  0  0  0  0  0  0
   -9.6407   -0.4965  -23.4977 H   0  0  0  0  0  0  0  0  0  0  0  0
  1  2  2  0
  2  3  1  0
  3  4  1  0
  4  5  2  0
  5  6  1  0
  6  7  2  0
  7  8  1  0
  7  9  1  0
  9 10  1  0
  9 11  2  0
 11 12  1  0
  6 13  1  0
  5 14  1  0
  3 15  1  0
 15 16  1  0
 16 17  1  0
 17 18  1  0
 16 19  1  0
 19 20  1  0
 20 21  1  0
 21 22  2  0
 22 23  1  0
 23 24  2  0
 24 25  1  0
 25 26  2  0
 26 27  1  0
 27 28  2  0
 28 29  1  0
 29 30  2  0
 29 31  1  0
 28 32  1  0
 27 33  1  0
 26 34  1  0
 24 35  1  0
 22 36  1  0
 19 37  1  0
 19 38  1  0
 16 39  1  6
 15 40  1  0
 15 41  1  0
  3 42  1  6
 20  2  1  0
 30 21  1  0
 11  4  1  0
 30 25  1  0
M  END
>  <cnnaffinities>  (20) 
[5.35704]

>  <score>  (20) 
5.35704

>  <index>  (20) 
19

>  <Smiles>  (20) 
O=C1[C@@](c2c(c(c(Cl)c(Cl)c2[H])[H])[H])(C([C@](O[H])(C(N1c1c(nc(c2c(c(c(c(c12)[H])[H])[H])[H])[H])[H])([H])[H])[H])([H])[H])[H]

>  <h>  (20) 
<NA>

>  <Training>  (20) 
True

>  <Success>  (20) 
True

>  <enamine_searched>  (20) 
False

>  <enamine_id>  (20) 
nan

$$$$

     RDKit          3D

 66 71  0  0  0  0  0  0  0  0999 V2000
   -5.7340   -0.2617  -29.5053 C   0  0  0  0  0  0  0  0  0  0  0  0
   -5.5470    0.0206  -28.1016 N   0  0  0  0  0  0  0  0  0  0  0  0
   -5.0069   -0.9312  -27.2980 C   0  0  0  0  0  0  0  0  0  0  0  0
   -4.5144   -1.9685  -27.7139 O   0  0  0  0  0  0  0  0  0  0  0  0
   -5.0286   -0.5773  -25.8026 C   0  0  0  0  0  0  0  0  0  0  0  0
   -6.2599   -0.9355  -25.1032 N   0  0  0  0  0  0  0  0  0  0  0  0
   -6.1653   -2.0248  -24.1377 C   0  0  0  0  0  0  0  0  0  0  0  0
   -7.3347   -2.0915  -23.1105 C   0  0  2  0  0  0  0  0  0  0  0  0
   -7.0414   -1.1049  -21.9502 C   0  0  0  0  0  0  0  0  0  0  0  0
   -7.4049    0.0407  -21.8335 O   0  0  0  0  0  0  0  0  0  0  0  0
   -6.2764   -1.7823  -21.0231 N   0  0  0  0  0  0  0  0  0  0  0  0
   -5.7424   -1.1184  -19.9071 C   0  0  0  0  0  0  0  0  0  0  0  0
   -6.1697   -1.4433  -18.6443 C   0  0  0  0  0  0  0  0  0  0  0  0
   -5.7726   -0.8028  -17.5204 N   0  0  0  0  0  0  0  0  0  0  0  0
   -4.9097    0.1765  -17.6554 C   0  0  0  0  0  0  0  0  0  0  0  0
   -4.3457    0.5672  -18.9023 C   0  0  0  0  0  0  0  0  0  0  0  0
   -3.3745    1.5940  -18.9882 C   0  0  0  0  0  0  0  0  0  0  0  0
   -2.8100    1.9263  -20.1867 C   0  0  0  0  0  0  0  0  0  0  0  0
   -3.2064    1.2568  -21.3649 C   0  0  0  0  0  0  0  0  0  0  0  0
   -4.1663    0.2802  -21.3169 C   0  0  0  0  0  0  0  0  0  0  0  0
   -4.7596   -0.0937  -20.0754 C   0  0  0  0  0  0  0  0  0  0  0  0
   -4.4890   -0.1968  -22.2376 H   0  0  0  0  0  0  0  0  0  0  0  0
   -2.7634    1.5245  -22.3181 H   0  0  0  0  0  0  0  0  0  0  0  0
   -2.0621    2.7104  -20.2449 H   0  0  0  0  0  0  0  0  0  0  0  0
   -3.1119    2.1128  -18.0746 H   0  0  0  0  0  0  0  0  0  0  0  0
   -4.6026    0.7143  -16.7552 H   0  0  0  0  0  0  0  0  0  0  0  0
   -6.9016   -2.2408  -18.4980 H   0  0  0  0  0  0  0  0  0  0  0  0
   -6.1908   -3.2083  -21.2782 C   0  0  0  0  0  0  0  0  0  0  0  0
   -7.3229   -3.4047  -22.2842 C   0  0  2  0  0  0  0  0  0  0  0  0
   -7.4381   -4.7758  -22.9659 C   0  0  0  0  0  0  0  0  0  0  0  0
   -6.2415   -5.3485  -23.6905 C   0  0  0  0  0  0  0  0  0  0  0  0
   -6.2132   -5.3890  -25.0855 C   0  0  0  0  0  0  0  0  0  0  0  0
   -5.1730   -6.0138  -25.7666 C   0  0  0  0  0  0  0  0  0  0  0  0
   -4.1182   -6.5776  -25.0571 C   0  0  0  0  0  0  0  0  0  0  0  0
   -4.1110   -6.5108  -23.6677 C   0  0  0  0  0  0  0  0  0  0  0  0
   -5.1665   -5.9062  -22.9933 C   0  0  0  0  0  0  0  0  0  0  0  0
   -5.1619   -5.8724  -21.9058 H   0  0  0  0  0  0  0  0  0  0  0  0
   -3.2797   -6.9272  -23.1066 H   0  0  0  0  0  0  0  0  0  0  0  0
   -3.3039   -7.0605  -25.5880 H   0  0  0  0  0  0  0  0  0  0  0  0
   -5.1846   -6.0468  -26.8517 H   0  0  0  0  0  0  0  0  0  0  0  0
   -7.0111   -4.8986  -25.6439 H   0  0  0  0  0  0  0  0  0  0  0  0
   -7.7221   -5.4815  -22.1727 H   0  0  0  0  0  0  0  0  0  0  0  0
   -8.2847   -4.7354  -23.6633 H   0  0  0  0  0  0  0  0  0  0  0  0
   -8.2258   -3.3218  -21.6763 H   0  0  0  0  0  0  0  0  0  0  0  0
   -6.3559   -3.7794  -20.3608 H   0  0  0  0  0  0  0  0  0  0  0  0
   -5.2105   -3.4739  -21.6923 H   0  0  0  0  0  0  0  0  0  0  0  0
   -8.6487   -1.7378  -23.7552 C   0  0  0  0  0  0  0  0  0  0  0  0
   -9.8738   -2.1050  -23.1797 C   0  0  0  0  0  0  0  0  0  0  0  0
  -11.0652   -1.6554  -23.7240 C   0  0  0  0  0  0  0  0  0  0  0  0
  -12.5575   -2.1163  -22.9501 Cl  0  0  0  0  0  0  0  0  0  0  0  0
  -11.0798   -0.8392  -24.8542 C   0  0  0  0  0  0  0  0  0  0  0  0
   -9.8798   -0.4761  -25.4190 C   0  0  0  0  0  0  0  0  0  0  0  0
   -8.6718   -0.8848  -24.8606 C   0  0  0  0  0  0  0  0  0  0  0  0
   -7.4176   -0.3186  -25.4417 C   0  0  0  0  0  0  0  0  0  0  0  0
   -7.4422    0.6477  -26.2130 O   0  0  0  0  0  0  0  0  0  0  0  0
   -9.8486    0.1503  -26.2994 H   0  0  0  0  0  0  0  0  0  0  0  0
  -12.0048   -0.4882  -25.2950 H   0  0  0  0  0  0  0  0  0  0  0  0
   -9.9208   -2.7095  -22.2825 H   0  0  0  0  0  0  0  0  0  0  0  0
   -6.0711   -2.9638  -24.6879 H   0  0  0  0  0  0  0  0  0  0  0  0
   -5.2273   -1.8920  -23.5862 H   0  0  0  0  0  0  0  0  0  0  0  0
   -4.2163   -1.1386  -25.3368 H   0  0  0  0  0  0  0  0  0  0  0  0
   -4.8397    0.4952  -25.6818 H   0  0  0  0  0  0  0  0  0  0  0  0
   -6.1976    0.6571  -27.6526 H   0  0  0  0  0  0  0  0  0  0  0  0
   -4.7932   -0.6063  -29.9406 H   0  0  0  0  0  0  0  0  0  0  0  0
   -6.0444    0.6568  -30.0091 H   0  0  0  0  0  0  0  0  0  0  0  0
   -6.4905   -1.0385  -29.6661 H   0  0  0  0  0  0  0  0  0  0  0  0
  1  2  1  0
  2  3  1  0
  3  4  2  0
  3  5  1  0
  5  6  1  0
  6  7  1  0
  8  7  1  6
  8  9  1  0
  9 10  2  0
  9 11  1  0
 11 12  1  0
 12 13  2  0
 13 14  1  0
 14 15  2  0
 15 16  1  0
 16 17  2  0
 17 18  1  0
 18 19  2  0
 19 20  1  0
 20 21  2  0
 20 22  1  0
 19 23  1  0
 18 24  1  0
 17 25  1  0
 15 26  1  0
 13 27  1  0
 11 28  1  0
 28 29  1  0
 29 30  1  0
 30 31  1  0
 31 32  2  0
 32 33  1  0
 33 34  2  0
 34 35  1  0
 35 36  2  0
 36 37  1  0
 35 38  1  0
 34 39  1  0
 33 40  1  0
 32 41  1  0
 30 42  1  0
 30 43  1  0
 29 44  1  1
 28 45  1  0
 28 46  1  0
  8 47  1  0
 47 48  2  0
 48 49  1  0
 49 50  1  0
 49 51  2  0
 51 52  1  0
 52 53  2  0
 53 54  1  0
 54 55  2  0
 52 56  1  0
 51 57  1  0
 48 58  1  0
  7 59  1  0
  7 60  1  0
  5 61  1  0
  5 62  1  0
  2 63  1  0
  1 64  1  0
  1 65  1  0
  1 66  1  0
 54  6  1  0
 29  8  1  0
 36 31  1  0
 53 47  1  0
 21 12  1  0
 21 16  1  0
M  END
>  <cnnaffinities>  (21) 
[6.71127]

>  <score>  (21) 
6.71127

>  <index>  (21) 
20

>  <Smiles>  (21) 
C(N(C(=O)C(N1C([C@@]2(C(=O)N(c3c(nc(c4c(c(c(c(c34)[H])[H])[H])[H])[H])[H])C([C@@]2(C(c2c(c(c(c(c2[H])[H])[H])[H])[H])([H])[H])[H])([H])[H])c2c(c(Cl)c(c(c2C1=O)[H])[H])[H])([H])[H])([H])[H])[H])([H])([H])[H]

>  <h>  (21) 
<NA>

>  <Training>  (21) 
True

>  <Success>  (21) 
True

>  <enamine_searched>  (21) 
False

>  <enamine_id>  (21) 
nan

$$$$

     RDKit          3D

 63 68  0  0  0  0  0  0  0  0999 V2000
  -10.2137   -2.9788  -22.0706 C   0  0  0  0  0  0  0  0  0  0  0  0
   -9.1369   -2.0391  -22.6359 C   0  0  1  0  0  0  0  0  0  0  0  0
   -8.6778   -1.0450  -21.5516 C   0  0  0  0  0  0  0  0  0  0  0  0
   -7.3435   -1.4690  -21.2080 N   0  0  0  0  0  0  0  0  0  0  0  0
   -6.5722   -0.8583  -20.1964 C   0  0  0  0  0  0  0  0  0  0  0  0
   -6.9137   -1.0619  -18.8847 C   0  0  0  0  0  0  0  0  0  0  0  0
   -6.2285   -0.5631  -17.8299 N   0  0  0  0  0  0  0  0  0  0  0  0
   -5.1906    0.1944  -18.0967 C   0  0  0  0  0  0  0  0  0  0  0  0
   -4.7470    0.5073  -19.4140 C   0  0  0  0  0  0  0  0  0  0  0  0
   -3.6252    1.3476  -19.6369 C   0  0  0  0  0  0  0  0  0  0  0  0
   -3.2319    1.6584  -20.9088 C   0  0  0  0  0  0  0  0  0  0  0  0
   -3.9458    1.1486  -22.0190 C   0  0  0  0  0  0  0  0  0  0  0  0
   -5.0363    0.3346  -21.8351 C   0  0  0  0  0  0  0  0  0  0  0  0
   -5.4540   -0.0231  -20.5153 C   0  0  0  0  0  0  0  0  0  0  0  0
   -5.5827   -0.0345  -22.7050 H   0  0  0  0  0  0  0  0  0  0  0  0
   -3.6269    1.4103  -23.0252 H   0  0  0  0  0  0  0  0  0  0  0  0
   -2.3729    2.3028  -21.0795 H   0  0  0  0  0  0  0  0  0  0  0  0
   -3.1018    1.7454  -18.7719 H   0  0  0  0  0  0  0  0  0  0  0  0
   -4.6427    0.6094  -17.2502 H   0  0  0  0  0  0  0  0  0  0  0  0
   -7.7736   -1.6898  -18.6474 H   0  0  0  0  0  0  0  0  0  0  0  0
   -6.8129   -2.4267  -22.0362 C   0  0  0  0  0  0  0  0  0  0  0  0
   -5.7186   -2.9217  -21.8917 O   0  0  0  0  0  0  0  0  0  0  0  0
   -7.8316   -2.7157  -23.1518 C   0  0  1  0  0  0  0  0  0  0  0  0
   -7.9924   -4.2286  -23.3659 C   0  0  0  0  0  0  0  0  0  0  0  0
   -6.8226   -4.8206  -23.9875 N   0  0  0  0  0  0  0  0  0  0  0  0
   -6.4414   -6.1577  -23.5774 C   0  0  0  0  0  0  0  0  0  0  0  0
   -7.4319   -7.1837  -24.1292 C   0  0  0  0  0  0  0  0  0  0  0  0
   -8.3528   -7.6119  -23.4541 O   0  0  0  0  0  0  0  0  0  0  0  0
   -7.2307   -7.4997  -25.4432 N   0  0  0  0  0  0  0  0  0  0  0  0
   -8.3833   -7.8540  -26.2625 C   0  0  0  0  0  0  0  0  0  0  0  0
   -9.4027   -6.7494  -26.3845 C   0  0  0  0  0  0  0  0  0  0  0  0
   -9.0145   -5.5616  -27.2043 C   0  0  0  0  0  0  0  0  0  0  0  0
  -10.0738   -6.5111  -27.6968 C   0  0  0  0  0  0  0  0  0  0  0  0
  -11.1084   -6.1810  -27.7068 H   0  0  0  0  0  0  0  0  0  0  0  0
   -9.8159   -7.1919  -28.5015 H   0  0  0  0  0  0  0  0  0  0  0  0
   -8.0436   -5.6230  -27.6871 H   0  0  0  0  0  0  0  0  0  0  0  0
   -9.2938   -4.5701  -26.8608 H   0  0  0  0  0  0  0  0  0  0  0  0
  -10.0080   -6.5810  -25.5022 H   0  0  0  0  0  0  0  0  0  0  0  0
   -8.0118   -8.0937  -27.2634 H   0  0  0  0  0  0  0  0  0  0  0  0
   -8.8496   -8.7432  -25.8440 H   0  0  0  0  0  0  0  0  0  0  0  0
   -6.4705   -7.0154  -25.9056 H   0  0  0  0  0  0  0  0  0  0  0  0
   -5.4360   -6.3286  -23.9659 H   0  0  0  0  0  0  0  0  0  0  0  0
   -6.4599   -6.2131  -22.4839 H   0  0  0  0  0  0  0  0  0  0  0  0
   -6.2718   -4.2969  -25.1168 C   0  0  0  0  0  0  0  0  0  0  0  0
   -5.5389   -4.9494  -25.8605 O   0  0  0  0  0  0  0  0  0  0  0  0
   -6.5998   -2.8625  -25.3743 C   0  0  0  0  0  0  0  0  0  0  0  0
   -6.1249   -2.3087  -26.5602 C   0  0  0  0  0  0  0  0  0  0  0  0
   -6.3643   -0.9792  -26.8521 C   0  0  0  0  0  0  0  0  0  0  0  0
   -7.0695   -0.2205  -25.9240 C   0  0  0  0  0  0  0  0  0  0  0  0
   -7.2938    1.0798  -26.1924 F   0  0  0  0  0  0  0  0  0  0  0  0
   -7.5497   -0.7463  -24.7397 C   0  0  0  0  0  0  0  0  0  0  0  0
   -7.3354   -2.1023  -24.4560 C   0  0  0  0  0  0  0  0  0  0  0  0
   -8.1008   -0.0896  -24.0710 H   0  0  0  0  0  0  0  0  0  0  0  0
   -6.0083   -0.5048  -27.7594 H   0  0  0  0  0  0  0  0  0  0  0  0
   -5.5665   -2.9631  -27.2232 H   0  0  0  0  0  0  0  0  0  0  0  0
   -8.1402   -4.7376  -22.4129 H   0  0  0  0  0  0  0  0  0  0  0  0
   -8.8771   -4.3920  -23.9966 H   0  0  0  0  0  0  0  0  0  0  0  0
   -8.6798   -0.0025  -21.8947 H   0  0  0  0  0  0  0  0  0  0  0  0
   -9.3313   -1.0944  -20.6838 H   0  0  0  0  0  0  0  0  0  0  0  0
   -9.6080   -1.5107  -23.4702 H   0  0  0  0  0  0  0  0  0  0  0  0
  -10.6029   -3.6614  -22.8332 H   0  0  0  0  0  0  0  0  0  0  0  0
   -9.8302   -3.5740  -21.2335 H   0  0  0  0  0  0  0  0  0  0  0  0
  -11.0645   -2.3935  -21.7002 H   0  0  0  0  0  0  0  0  0  0  0  0
  1  2  1  0
  2  3  1  0
  3  4  1  0
  4  5  1  0
  5  6  2  0
  6  7  1  0
  7  8  2  0
  8  9  1  0
  9 10  2  0
 10 11  1  0
 11 12  2  0
 12 13  1  0
 13 14  2  0
 13 15  1  0
 12 16  1  0
 11 17  1  0
 10 18  1  0
  8 19  1  0
  6 20  1  0
  4 21  1  0
 21 22  2  0
 21 23  1  0
 23 24  1  6
 24 25  1  0
 25 26  1  0
 26 27  1  0
 27 28  2  0
 27 29  1  0
 29 30  1  0
 30 31  1  0
 31 32  1  0
 32 33  1  0
 33 34  1  0
 33 35  1  0
 32 36  1  0
 32 37  1  0
 31 38  1  0
 30 39  1  0
 30 40  1  0
 29 41  1  0
 26 42  1  0
 26 43  1  0
 25 44  1  0
 44 45  2  0
 44 46  1  0
 46 47  2  0
 47 48  1  0
 48 49  2  0
 49 50  1  0
 49 51  1  0
 51 52  2  0
 51 53  1  0
 48 54  1  0
 47 55  1  0
 24 56  1  0
 24 57  1  0
  3 58  1  0
  3 59  1  0
  2 60  1  6
  1 61  1  0
  1 62  1  0
  1 63  1  0
 23  2  1  0
 33 31  1  0
 52 46  1  0
 14  5  1  0
 52 23  1  0
 14  9  1  0
M  END
>  <cnnaffinities>  (22) 
[6.52988, 6.87939, 6.83631]

>  <score>  (22) 
6.52988

>  <index>  (22) 
21

>  <Smiles>  (22) 
C([C@]1(C(N(c2c(nc(c3c(c(c(c(c23)[H])[H])[H])[H])[H])[H])C(=O)[C@]21C(N(C(C(=O)N(C(C1(C(C1([H])[H])([H])[H])[H])([H])[H])[H])([H])[H])C(=O)c1c(c(c(F)c(c21)[H])[H])[H])([H])[H])([H])[H])[H])([H])([H])[H]

>  <h>  (22) 
<NA>

>  <Training>  (22) 
True

>  <Success>  (22) 
True

>  <enamine_searched>  (22) 
False

>  <enamine_id>  (22) 
nan

$$$$

     RDKit          3D

 68 73  0  0  0  0  0  0  0  0999 V2000
   -5.8891   -0.0441  -29.4055 C   0  0  0  0  0  0  0  0  0  0  0  0
   -5.8876    0.2912  -27.9984 N   0  0  0  0  0  0  0  0  0  0  0  0
   -5.2560   -0.5186  -27.1067 C   0  0  0  0  0  0  0  0  0  0  0  0
   -4.5375   -1.4430  -27.4344 O   0  0  0  0  0  0  0  0  0  0  0  0
   -5.4723   -0.1214  -25.6313 C   0  0  0  0  0  0  0  0  0  0  0  0
   -6.6773   -0.6876  -25.0382 N   0  0  0  0  0  0  0  0  0  0  0  0
   -6.6066   -1.9118  -24.2361 C   0  0  0  0  0  0  0  0  0  0  0  0
   -7.7217   -1.9848  -23.1409 C   0  0  2  0  0  0  0  0  0  0  0  0
   -7.3441   -1.0081  -22.0034 C   0  0  0  0  0  0  0  0  0  0  0  0
   -7.6353    0.1616  -21.8824 O   0  0  0  0  0  0  0  0  0  0  0  0
   -6.5619   -1.7186  -21.1113 N   0  0  0  0  0  0  0  0  0  0  0  0
   -5.9850   -1.0509  -20.0076 C   0  0  0  0  0  0  0  0  0  0  0  0
   -6.4213   -1.2910  -18.7287 C   0  0  0  0  0  0  0  0  0  0  0  0
   -5.9516   -0.6563  -17.6279 N   0  0  0  0  0  0  0  0  0  0  0  0
   -5.0072    0.2381  -17.7958 C   0  0  0  0  0  0  0  0  0  0  0  0
   -4.4451    0.5688  -19.0584 C   0  0  0  0  0  0  0  0  0  0  0  0
   -3.4020    1.5268  -19.1819 C   0  0  0  0  0  0  0  0  0  0  0  0
   -2.9048    1.8460  -20.4158 C   0  0  0  0  0  0  0  0  0  0  0  0
   -3.4208    1.2187  -21.5759 C   0  0  0  0  0  0  0  0  0  0  0  0
   -4.4167    0.2826  -21.4761 C   0  0  0  0  0  0  0  0  0  0  0  0
   -4.9544   -0.0758  -20.2074 C   0  0  0  0  0  0  0  0  0  0  0  0
   -4.8192   -0.1897  -22.3683 H   0  0  0  0  0  0  0  0  0  0  0  0
   -3.0391    1.4900  -22.5562 H   0  0  0  0  0  0  0  0  0  0  0  0
   -2.1219    2.5926  -20.5164 H   0  0  0  0  0  0  0  0  0  0  0  0
   -3.0306    2.0106  -18.2800 H   0  0  0  0  0  0  0  0  0  0  0  0
   -4.6527    0.7605  -16.9060 H   0  0  0  0  0  0  0  0  0  0  0  0
   -7.2215   -2.0080  -18.5450 H   0  0  0  0  0  0  0  0  0  0  0  0
   -6.4694   -3.1490  -21.4222 C   0  0  0  0  0  0  0  0  0  0  0  0
   -7.7026   -3.3185  -22.3275 C   0  0  2  0  0  0  0  0  0  0  0  0
   -7.9248   -4.6169  -23.1377 C   0  0  0  0  0  0  0  0  0  0  0  0
   -6.8365   -5.1658  -23.9082 N   0  0  0  0  0  0  0  0  0  0  0  0
   -5.7415   -5.8438  -23.4204 C   0  0  0  0  0  0  0  0  0  0  0  0
   -4.5885   -5.9124  -24.2221 C   0  0  0  0  0  0  0  0  0  0  0  0
   -3.4353   -6.5145  -23.7455 C   0  0  0  0  0  0  0  0  0  0  0  0
   -3.4179   -7.1087  -22.4880 C   0  0  0  0  0  0  0  0  0  0  0  0
   -4.5800   -7.1007  -21.7198 C   0  0  0  0  0  0  0  0  0  0  0  0
   -5.7327   -6.4681  -22.1666 C   0  0  0  0  0  0  0  0  0  0  0  0
   -6.6327   -6.4908  -21.5553 H   0  0  0  0  0  0  0  0  0  0  0  0
   -4.5961   -7.6021  -20.7534 H   0  0  0  0  0  0  0  0  0  0  0  0
   -2.5154   -7.5877  -22.1174 H   0  0  0  0  0  0  0  0  0  0  0  0
   -2.5442   -6.5333  -24.3700 H   0  0  0  0  0  0  0  0  0  0  0  0
   -4.6051   -5.4881  -25.2249 H   0  0  0  0  0  0  0  0  0  0  0  0
   -6.8099   -4.9674  -24.8936 H   0  0  0  0  0  0  0  0  0  0  0  0
   -8.3165   -5.3971  -22.4714 H   0  0  0  0  0  0  0  0  0  0  0  0
   -8.7203   -4.4086  -23.8648 H   0  0  0  0  0  0  0  0  0  0  0  0
   -8.5681   -3.2611  -21.6506 H   0  0  0  0  0  0  0  0  0  0  0  0
   -5.5363   -3.3865  -21.9594 H   0  0  0  0  0  0  0  0  0  0  0  0
   -6.4857   -3.7311  -20.4951 H   0  0  0  0  0  0  0  0  0  0  0  0
   -9.0432   -1.6302  -23.7644 C   0  0  0  0  0  0  0  0  0  0  0  0
  -10.2708   -2.0063  -23.2040 C   0  0  0  0  0  0  0  0  0  0  0  0
  -11.4625   -1.5617  -23.7513 C   0  0  0  0  0  0  0  0  0  0  0  0
  -12.9435   -1.9824  -22.9193 Cl  0  0  0  0  0  0  0  0  0  0  0  0
  -11.4856   -0.7588  -24.8993 C   0  0  0  0  0  0  0  0  0  0  0  0
  -10.2828   -0.4547  -25.4871 C   0  0  0  0  0  0  0  0  0  0  0  0
   -9.0849   -0.8056  -24.8855 C   0  0  0  0  0  0  0  0  0  0  0  0
   -7.8654   -0.1934  -25.4606 C   0  0  0  0  0  0  0  0  0  0  0  0
   -7.9596    0.7266  -26.2821 O   0  0  0  0  0  0  0  0  0  0  0  0
  -10.2292    0.1014  -26.4081 H   0  0  0  0  0  0  0  0  0  0  0  0
  -12.3788   -0.3242  -25.3348 H   0  0  0  0  0  0  0  0  0  0  0  0
  -10.3148   -2.6490  -22.3345 H   0  0  0  0  0  0  0  0  0  0  0  0
   -5.6348   -1.9544  -23.7386 H   0  0  0  0  0  0  0  0  0  0  0  0
   -6.6725   -2.7824  -24.8958 H   0  0  0  0  0  0  0  0  0  0  0  0
   -4.6044   -0.4617  -25.0612 H   0  0  0  0  0  0  0  0  0  0  0  0
   -5.5426    0.9687  -25.5540 H   0  0  0  0  0  0  0  0  0  0  0  0
   -6.7022    0.7646  -27.6242 H   0  0  0  0  0  0  0  0  0  0  0  0
   -4.8615   -0.1890  -29.7528 H   0  0  0  0  0  0  0  0  0  0  0  0
   -6.4551   -0.9649  -29.6049 H   0  0  0  0  0  0  0  0  0  0  0  0
   -6.3343    0.7935  -29.9534 H   0  0  0  0  0  0  0  0  0  0  0  0
  1  2  1  0
  2  3  1  0
  3  4  2  0
  3  5  1  0
  5  6  1  0
  6  7  1  0
  8  7  1  6
  8  9  1  0
  9 10  2  0
  9 11  1  0
 11 12  1  0
 12 13  2  0
 13 14  1  0
 14 15  2  0
 15 16  1  0
 16 17  2  0
 17 18  1  0
 18 19  2  0
 19 20  1  0
 20 21  2  0
 20 22  1  0
 19 23  1  0
 18 24  1  0
 17 25  1  0
 15 26  1  0
 13 27  1  0
 11 28  1  0
 28 29  1  0
 29 30  1  0
 30 31  1  0
 31 32  1  0
 32 33  2  0
 33 34  1  0
 34 35  2  0
 35 36  1  0
 36 37  2  0
 37 38  1  0
 36 39  1  0
 35 40  1  0
 34 41  1  0
 33 42  1  0
 31 43  1  0
 30 44  1  0
 30 45  1  0
 29 46  1  1
 28 47  1  0
 28 48  1  0
  8 49  1  0
 49 50  2  0
 50 51  1  0
 51 52  1  0
 51 53  2  0
 53 54  1  0
 54 55  2  0
 55 56  1  0
 56 57  2  0
 54 58  1  0
 53 59  1  0
 50 60  1  0
  7 61  1  0
  7 62  1  0
  5 63  1  0
  5 64  1  0
  2 65  1  0
  1 66  1  0
  1 67  1  0
  1 68  1  0
 56  6  1  0
 29  8  1  0
 37 32  1  0
 55 49  1  0
 21 12  1  0
 21 16  1  0
M  END
>  <cnnaffinities>  (23) 
[6.63437]

>  <score>  (23) 
6.63437

>  <index>  (23) 
23

>  <Smiles>  (23) 
C(N(C(=O)C(N1C([C@@]2(C(=O)N(c3c(nc(c4c(c(c(c(c34)[H])[H])[H])[H])[H])[H])C([C@@]2(C(N(c2c(c(c(c(c2[H])[H])[H])[H])[H])[H])([H])[H])[H])([H])[H])c2c(c(Cl)c(c(c2C1=O)[H])[H])[H])([H])[H])([H])[H])[H])([H])([H])[H]

>  <h>  (23) 
<NA>

>  <Training>  (23) 
True

>  <Success>  (23) 
True

>  <enamine_searched>  (23) 
False

>  <enamine_id>  (23) 
nan

$$$$

     RDKit          3D

 65 70  0  0  0  0  0  0  0  0999 V2000
   -4.9608   -7.3246  -23.7356 O   0  0  0  0  0  0  0  0  0  0  0  0
   -6.0494   -7.3130  -24.2900 C   0  0  0  0  0  0  0  0  0  0  0  0
   -7.2463   -6.6138  -23.6555 C   0  0  0  0  0  0  0  0  0  0  0  0
   -7.1138   -5.1239  -23.8237 N   0  0  1  0  0  4  0  0  0  0  0  0
   -7.2940   -4.7339  -25.3108 C   0  0  0  0  0  0  0  0  0  0  0  0
   -7.2328   -3.2493  -25.5221 C   0  0  0  0  0  0  0  0  0  0  0  0
   -6.8728   -2.7583  -26.7744 C   0  0  0  0  0  0  0  0  0  0  0  0
   -6.8097   -1.3988  -27.0375 C   0  0  0  0  0  0  0  0  0  0  0  0
   -7.1165   -0.5138  -26.0100 C   0  0  0  0  0  0  0  0  0  0  0  0
   -7.0309    1.2005  -26.3057 Cl  0  0  0  0  0  0  0  0  0  0  0  0
   -7.4879   -0.9746  -24.7566 C   0  0  0  0  0  0  0  0  0  0  0  0
   -7.5591   -2.3509  -24.5057 C   0  0  0  0  0  0  0  0  0  0  0  0
   -7.9431   -2.8213  -23.1154 C   0  0  2  0  0  0  0  0  0  0  0  0
   -9.1910   -2.1105  -22.5611 C   0  0  0  0  0  0  0  0  0  0  0  0
   -8.7275   -1.1555  -21.4529 C   0  0  0  0  0  0  0  0  0  0  0  0
   -7.3235   -1.4867  -21.2433 N   0  0  0  0  0  0  0  0  0  0  0  0
   -6.5552   -0.8860  -20.2035 C   0  0  0  0  0  0  0  0  0  0  0  0
   -6.8943   -1.0664  -18.8843 C   0  0  0  0  0  0  0  0  0  0  0  0
   -6.2111   -0.5509  -17.8309 N   0  0  0  0  0  0  0  0  0  0  0  0
   -5.1751    0.2076  -18.0908 C   0  0  0  0  0  0  0  0  0  0  0  0
   -4.7339    0.5208  -19.4054 C   0  0  0  0  0  0  0  0  0  0  0  0
   -3.6118    1.3625  -19.6353 C   0  0  0  0  0  0  0  0  0  0  0  0
   -3.2239    1.6664  -20.9088 C   0  0  0  0  0  0  0  0  0  0  0  0
   -3.9482    1.1525  -22.0098 C   0  0  0  0  0  0  0  0  0  0  0  0
   -5.0340    0.3373  -21.8172 C   0  0  0  0  0  0  0  0  0  0  0  0
   -5.4467   -0.0233  -20.5037 C   0  0  0  0  0  0  0  0  0  0  0  0
   -5.5851   -0.0410  -22.6772 H   0  0  0  0  0  0  0  0  0  0  0  0
   -3.6361    1.4035  -23.0182 H   0  0  0  0  0  0  0  0  0  0  0  0
   -2.3687    2.3122  -21.0885 H   0  0  0  0  0  0  0  0  0  0  0  0
   -3.0813    1.7629  -18.7732 H   0  0  0  0  0  0  0  0  0  0  0  0
   -4.6307    0.6129  -17.2359 H   0  0  0  0  0  0  0  0  0  0  0  0
   -7.7505   -1.6795  -18.6055 H   0  0  0  0  0  0  0  0  0  0  0  0
   -6.8376   -2.4354  -22.1222 C   0  0  0  0  0  0  0  0  0  0  0  0
   -5.7339   -2.9450  -22.1315 O   0  0  0  0  0  0  0  0  0  0  0  0
   -8.8709   -0.0917  -21.7011 H   0  0  0  0  0  0  0  0  0  0  0  0
   -9.2948   -1.3641  -20.5521 H   0  0  0  0  0  0  0  0  0  0  0  0
   -9.7631   -1.6005  -23.3406 H   0  0  0  0  0  0  0  0  0  0  0  0
   -9.8586   -2.8590  -22.1245 H   0  0  0  0  0  0  0  0  0  0  0  0
   -8.1444   -4.3464  -23.0313 C   0  0  0  0  0  0  0  0  0  0  0  0
   -9.1356   -4.5936  -23.4221 H   0  0  0  0  0  0  0  0  0  0  0  0
   -8.1039   -4.6368  -21.9797 H   0  0  0  0  0  0  0  0  0  0  0  0
   -7.7212   -0.2484  -23.9788 H   0  0  0  0  0  0  0  0  0  0  0  0
   -6.5240   -1.0185  -28.0139 H   0  0  0  0  0  0  0  0  0  0  0  0
   -6.6302   -3.4589  -27.5682 H   0  0  0  0  0  0  0  0  0  0  0  0
   -8.2574   -5.1380  -25.6419 H   0  0  0  0  0  0  0  0  0  0  0  0
   -6.5232   -5.2206  -25.9026 H   0  0  0  0  0  0  0  0  0  0  0  0
   -6.1673   -4.8087  -23.4985 H   0  0  0  0  0  0  0  0  0  0  0  0
   -7.2404   -6.8646  -22.5955 H   0  0  0  0  0  0  0  0  0  0  0  0
   -8.1994   -6.9491  -24.0901 H   0  0  0  0  0  0  0  0  0  0  0  0
   -6.2563   -7.8701  -25.5131 N   0  0  0  0  0  0  0  0  0  0  0  0
   -5.1384   -8.4430  -26.2443 C   0  0  0  0  0  0  0  0  0  0  0  0
   -4.1969   -7.3779  -26.7931 C   0  0  1  0  0  0  0  0  0  0  0  0
   -3.1051   -7.8985  -27.7720 C   0  0  0  0  0  0  0  0  0  0  0  0
   -3.7227   -7.0560  -28.9097 C   0  0  1  0  0  0  0  0  0  0  0  0
   -4.2338   -7.8216  -29.9502 F   0  0  0  0  0  0  0  0  0  0  0  0
   -4.8000   -6.5196  -27.9446 C   0  0  0  0  0  0  0  0  0  0  0  0
   -5.8156   -6.8050  -28.2522 H   0  0  0  0  0  0  0  0  0  0  0  0
   -4.8082   -5.4355  -27.7735 H   0  0  0  0  0  0  0  0  0  0  0  0
   -3.0734   -6.3087  -29.3787 H   0  0  0  0  0  0  0  0  0  0  0  0
   -2.0778   -7.6393  -27.4940 H   0  0  0  0  0  0  0  0  0  0  0  0
   -3.1187   -8.9778  -27.9711 H   0  0  0  0  0  0  0  0  0  0  0  0
   -3.8034   -6.8058  -25.9417 H   0  0  0  0  0  0  0  0  0  0  0  0
   -5.5442   -9.0177  -27.0848 H   0  0  0  0  0  0  0  0  0  0  0  0
   -4.5779   -9.1074  -25.5718 H   0  0  0  0  0  0  0  0  0  0  0  0
   -7.1922   -7.9104  -25.8924 H   0  0  0  0  0  0  0  0  0  0  0  0
  1  2  2  0
  2  3  1  0
  3  4  1  0
  4  5  1  0
  5  6  1  0
  6  7  2  0
  7  8  1  0
  8  9  2  0
  9 10  1  0
  9 11  1  0
 11 12  2  0
 12 13  1  0
 13 14  1  1
 14 15  1  0
 15 16  1  0
 16 17  1  0
 17 18  2  0
 18 19  1  0
 19 20  2  0
 20 21  1  0
 21 22  2  0
 22 23  1  0
 23 24  2  0
 24 25  1  0
 25 26  2  0
 25 27  1  0
 24 28  1  0
 23 29  1  0
 22 30  1  0
 20 31  1  0
 18 32  1  0
 16 33  1  0
 33 34  2  0
 15 35  1  0
 15 36  1  0
 14 37  1  0
 14 38  1  0
 13 39  1  0
 39 40  1  0
 39 41  1  0
 11 42  1  0
  8 43  1  0
  7 44  1  0
  5 45  1  0
  5 46  1  0
  4 47  1  1
  3 48  1  0
  3 49  1  0
  2 50  1  0
 50 51  1  0
 51 52  1  0
 52 53  1  0
 53 54  1  0
 54 55  1  0
 54 56  1  0
 56 57  1  0
 56 58  1  0
 54 59  1  6
 53 60  1  0
 53 61  1  0
 52 62  1  1
 51 63  1  0
 51 64  1  0
 50 65  1  0
 39  4  1  0
 56 52  1  0
 12  6  1  0
 33 13  1  0
 26 17  1  0
 26 21  1  0
M  CHG  1   4   1
M  END
>  <cnnaffinities>  (24) 
[6.31559, 6.4423, 6.56094, 6.62632]

>  <score>  (24) 
6.31559

>  <index>  (24) 
24

>  <Smiles>  (24) 
O=C(C([N@+]1(C(c2c(c(c(Cl)c(c2[C@@]2(C(C(N(c3c(nc(c4c(c(c(c(c34)[H])[H])[H])[H])[H])[H])C2=O)([H])[H])([H])[H])C1([H])[H])[H])[H])[H])([H])[H])[H])([H])[H])N(C([C@]1(C([C@@](F)(C1([H])[H])[H])([H])[H])[H])([H])[H])[H]

>  <h>  (24) 
<NA>

>  <Training>  (24) 
True

>  <Success>  (24) 
True

>  <enamine_searched>  (24) 
False

>  <enamine_id>  (24) 
nan

$$$$

     RDKit          3D

 70 75  0  0  0  0  0  0  0  0999 V2000
   -5.7800   -7.7697  -25.5514 O   0  0  0  0  0  0  0  0  0  0  0  0
   -5.6684   -7.1693  -24.4974 C   0  0  0  0  0  0  0  0  0  0  0  0
   -6.8490   -6.4188  -23.8692 C   0  0  0  0  0  0  0  0  0  0  0  0
   -6.7825   -4.9119  -23.9716 N   0  0  1  0  0  4  0  0  0  0  0  0
   -6.7620   -4.5234  -25.4497 C   0  0  0  0  0  0  0  0  0  0  0  0
   -6.7692   -3.0268  -25.6397 C   0  0  0  0  0  0  0  0  0  0  0  0
   -6.2815   -2.4792  -26.8284 C   0  0  0  0  0  0  0  0  0  0  0  0
   -6.2997   -1.1085  -27.0489 C   0  0  0  0  0  0  0  0  0  0  0  0
   -6.8128   -0.2770  -26.0604 C   0  0  0  0  0  0  0  0  0  0  0  0
   -6.8494    1.4475  -26.3172 Cl  0  0  0  0  0  0  0  0  0  0  0  0
   -7.3031   -0.8051  -24.8749 C   0  0  0  0  0  0  0  0  0  0  0  0
   -7.2950   -2.1849  -24.6595 C   0  0  0  0  0  0  0  0  0  0  0  0
   -7.8085   -2.7016  -23.3260 C   0  0  2  0  0  0  0  0  0  0  0  0
   -6.8342   -2.3356  -22.2121 C   0  0  0  0  0  0  0  0  0  0  0  0
   -5.7232   -2.8441  -22.1962 O   0  0  0  0  0  0  0  0  0  0  0  0
   -7.3085   -1.4361  -21.2750 N   0  0  0  0  0  0  0  0  0  0  0  0
   -6.5558   -0.8584  -20.2199 C   0  0  0  0  0  0  0  0  0  0  0  0
   -6.8960   -1.0662  -18.9020 C   0  0  0  0  0  0  0  0  0  0  0  0
   -6.2106   -0.5709  -17.8419 N   0  0  0  0  0  0  0  0  0  0  0  0
   -5.1766    0.1955  -18.0879 C   0  0  0  0  0  0  0  0  0  0  0  0
   -4.7362    0.5237  -19.4011 C   0  0  0  0  0  0  0  0  0  0  0  0
   -3.6170    1.3716  -19.6246 C   0  0  0  0  0  0  0  0  0  0  0  0
   -3.2411    1.6938  -20.9005 C   0  0  0  0  0  0  0  0  0  0  0  0
   -3.9714    1.1991  -22.0071 C   0  0  0  0  0  0  0  0  0  0  0  0
   -5.0553    0.3788  -21.8162 C   0  0  0  0  0  0  0  0  0  0  0  0
   -5.4498    0.0012  -20.5012 C   0  0  0  0  0  0  0  0  0  0  0  0
   -5.6195    0.0120  -22.6678 H   0  0  0  0  0  0  0  0  0  0  0  0
   -3.6694    1.4659  -23.0161 H   0  0  0  0  0  0  0  0  0  0  0  0
   -2.3868    2.3420  -21.0757 H   0  0  0  0  0  0  0  0  0  0  0  0
   -3.0830    1.7579  -18.7591 H   0  0  0  0  0  0  0  0  0  0  0  0
   -4.6327    0.5952  -17.2303 H   0  0  0  0  0  0  0  0  0  0  0  0
   -7.7565   -1.6802  -18.6367 H   0  0  0  0  0  0  0  0  0  0  0  0
   -8.3128   -1.3717  -21.1785 H   0  0  0  0  0  0  0  0  0  0  0  0
   -7.9875   -4.2231  -23.3151 C   0  0  0  0  0  0  0  0  0  0  0  0
   -8.8872   -4.4964  -23.8747 H   0  0  0  0  0  0  0  0  0  0  0  0
   -8.0840   -4.5753  -22.2856 H   0  0  0  0  0  0  0  0  0  0  0  0
   -8.7631   -2.2192  -23.1042 H   0  0  0  0  0  0  0  0  0  0  0  0
   -7.6924   -0.1390  -24.1100 H   0  0  0  0  0  0  0  0  0  0  0  0
   -5.9220   -0.6793  -27.9718 H   0  0  0  0  0  0  0  0  0  0  0  0
   -5.8789   -3.1361  -27.5978 H   0  0  0  0  0  0  0  0  0  0  0  0
   -7.6459   -4.9741  -25.9251 H   0  0  0  0  0  0  0  0  0  0  0  0
   -5.8929   -4.9757  -25.9316 H   0  0  0  0  0  0  0  0  0  0  0  0
   -5.9452   -4.4986  -23.4942 H   0  0  0  0  0  0  0  0  0  0  0  0
   -7.7283   -6.7803  -24.4083 H   0  0  0  0  0  0  0  0  0  0  0  0
   -6.9719   -6.6972  -22.8216 H   0  0  0  0  0  0  0  0  0  0  0  0
   -4.5031   -7.1157  -23.7860 N   0  0  0  0  0  0  0  0  0  0  0  0
   -3.2943   -7.7502  -24.1745 C   0  0  0  0  0  0  0  0  0  0  0  0
   -2.0716   -7.1086  -23.9619 C   0  0  0  0  0  0  0  0  0  0  0  0
   -0.8863   -7.7078  -24.3861 C   0  0  0  0  0  0  0  0  0  0  0  0
   -0.9062   -8.9503  -25.0256 C   0  0  0  0  0  0  0  0  0  0  0  0
    0.3184   -9.5454  -25.4770 N   0  0  0  0  0  0  0  0  0  0  0  0
    1.3327   -9.8741  -24.4763 C   0  0  0  0  0  0  0  0  0  0  0  0
    2.6518  -10.2402  -25.1414 C   0  0  0  0  0  0  0  0  0  0  0  0
    2.4233  -11.1927  -26.1509 O   0  0  0  0  0  0  0  0  0  0  0  0
    1.7023  -10.6235  -27.2102 C   0  0  0  0  0  0  0  0  0  0  0  0
    0.4027   -9.9435  -26.7877 C   0  0  0  0  0  0  0  0  0  0  0  0
   -0.4732   -9.7303  -27.6075 O   0  0  0  0  0  0  0  0  0  0  0  0
    2.3108   -9.8653  -27.7322 H   0  0  0  0  0  0  0  0  0  0  0  0
    1.4526  -11.4267  -27.9065 H   0  0  0  0  0  0  0  0  0  0  0  0
    3.1447   -9.3545  -25.5696 H   0  0  0  0  0  0  0  0  0  0  0  0
    3.3345  -10.6984  -24.4180 H   0  0  0  0  0  0  0  0  0  0  0  0
    1.4729   -9.0108  -23.8182 H   0  0  0  0  0  0  0  0  0  0  0  0
    0.9791  -10.7222  -23.8757 H   0  0  0  0  0  0  0  0  0  0  0  0
   -2.1295   -9.6066  -25.1962 C   0  0  0  0  0  0  0  0  0  0  0  0
   -3.3125   -9.0089  -24.7750 C   0  0  0  0  0  0  0  0  0  0  0  0
   -4.2643   -9.5025  -24.9309 H   0  0  0  0  0  0  0  0  0  0  0  0
   -2.1630  -10.5788  -25.6880 H   0  0  0  0  0  0  0  0  0  0  0  0
    0.0611   -7.1907  -24.2334 H   0  0  0  0  0  0  0  0  0  0  0  0
   -2.0408   -6.1406  -23.4677 H   0  0  0  0  0  0  0  0  0  0  0  0
   -4.4975   -6.5256  -22.9715 H   0  0  0  0  0  0  0  0  0  0  0  0
  1  2  2  0
  2  3  1  0
  3  4  1  0
  4  5  1  0
  5  6  1  0
  6  7  2  0
  7  8  1  0
  8  9  2  0
  9 10  1  0
  9 11  1  0
 11 12  2  0
 12 13  1  0
 13 14  1  0
 14 15  2  0
 14 16  1  0
 16 17  1  0
 17 18  2  0
 18 19  1  0
 19 20  2  0
 20 21  1  0
 21 22  2  0
 22 23  1  0
 23 24  2  0
 24 25  1  0
 25 26  2  0
 25 27  1  0
 24 28  1  0
 23 29  1  0
 22 30  1  0
 20 31  1  0
 18 32  1  0
 16 33  1  0
 13 34  1  0
 34 35  1  0
 34 36  1  0
 13 37  1  1
 11 38  1  0
  8 39  1  0
  7 40  1  0
  5 41  1  0
  5 42  1  0
  4 43  1  1
  3 44  1  0
  3 45  1  0
  2 46  1  0
 46 47  1  0
 47 48  2  0
 48 49  1  0
 49 50  2  0
 50 51  1  0
 51 52  1  0
 52 53  1  0
 53 54  1  0
 54 55  1  0
 55 56  1  0
 56 57  2  0
 55 58  1  0
 55 59  1  0
 53 60  1  0
 53 61  1  0
 52 62  1  0
 52 63  1  0
 50 64  1  0
 64 65  2  0
 65 66  1  0
 64 67  1  0
 49 68  1  0
 48 69  1  0
 46 70  1  0
 34  4  1  0
 65 47  1  0
 12  6  1  0
 26 17  1  0
 56 51  1  0
 26 21  1  0
M  CHG  1   4   1
M  END
>  <cnnaffinities>  (25) 
[6.19749]

>  <score>  (25) 
6.19749

>  <index>  (25) 
25

>  <Smiles>  (25) 
O=C(C([N@+]1(C(c2c(c(c(Cl)c(c2[C@](C(=O)N(c2c(nc(c3c(c(c(c(c23)[H])[H])[H])[H])[H])[H])[H])(C1([H])[H])[H])[H])[H])[H])([H])[H])[H])([H])[H])N(c1c(c(c(N2C(C(OC(C2=O)([H])[H])([H])[H])([H])[H])c(c1[H])[H])[H])[H])[H]

>  <h>  (25) 
<NA>

>  <Training>  (25) 
True

>  <Success>  (25) 
True

>  <enamine_searched>  (25) 
False

>  <enamine_id>  (25) 
nan

$$$$

     RDKit          3D

 55 60  0  0  0  0  0  0  0  0999 V2000
  -10.2302   -2.9733  -22.0746 C   0  0  0  0  0  0  0  0  0  0  0  0
   -9.1609   -2.0177  -22.6291 C   0  0  1  0  0  0  0  0  0  0  0  0
   -8.6912   -1.0409  -21.5335 C   0  0  0  0  0  0  0  0  0  0  0  0
   -7.3456   -1.4538  -21.2069 N   0  0  0  0  0  0  0  0  0  0  0  0
   -6.5709   -0.8540  -20.1911 C   0  0  0  0  0  0  0  0  0  0  0  0
   -6.9080   -1.0623  -18.8793 C   0  0  0  0  0  0  0  0  0  0  0  0
   -6.2222   -0.5617  -17.8259 N   0  0  0  0  0  0  0  0  0  0  0  0
   -5.1864    0.1980  -18.0944 C   0  0  0  0  0  0  0  0  0  0  0  0
   -4.7426    0.5114  -19.4119 C   0  0  0  0  0  0  0  0  0  0  0  0
   -3.6214    1.3530  -19.6369 C   0  0  0  0  0  0  0  0  0  0  0  0
   -3.2311    1.6623  -20.9100 C   0  0  0  0  0  0  0  0  0  0  0  0
   -3.9484    1.1523  -22.0178 C   0  0  0  0  0  0  0  0  0  0  0  0
   -5.0375    0.3375  -21.8313 C   0  0  0  0  0  0  0  0  0  0  0  0
   -5.4530   -0.0188  -20.5109 C   0  0  0  0  0  0  0  0  0  0  0  0
   -5.5863   -0.0345  -22.6981 H   0  0  0  0  0  0  0  0  0  0  0  0
   -3.6302    1.4114  -23.0244 H   0  0  0  0  0  0  0  0  0  0  0  0
   -2.3722    2.3057  -21.0818 H   0  0  0  0  0  0  0  0  0  0  0  0
   -3.0958    1.7492  -18.7720 H   0  0  0  0  0  0  0  0  0  0  0  0
   -4.6387    0.6090  -17.2462 H   0  0  0  0  0  0  0  0  0  0  0  0
   -7.7679   -1.6881  -18.6388 H   0  0  0  0  0  0  0  0  0  0  0  0
   -6.8225   -2.4066  -22.0424 C   0  0  0  0  0  0  0  0  0  0  0  0
   -5.7326   -2.9224  -21.9006 O   0  0  0  0  0  0  0  0  0  0  0  0
   -7.8536   -2.6756  -23.1578 C   0  0  1  0  0  0  0  0  0  0  0  0
   -7.9550   -4.1831  -23.3660 C   0  0  0  0  0  0  0  0  0  0  0  0
   -6.7063   -4.6670  -23.9078 N   0  0  0  0  0  0  0  0  0  0  0  0
   -6.2893   -5.9648  -23.4473 C   0  0  0  0  0  0  0  0  0  0  0  0
   -7.1738   -7.0280  -24.0212 C   0  0  0  0  0  0  0  0  0  0  0  0
   -8.3853   -7.5780  -23.5866 C   0  0  0  0  0  0  0  0  0  0  0  0
   -8.9073   -8.3069  -24.5631 N   0  0  0  0  0  0  0  0  0  0  0  0
   -8.0169   -8.1875  -25.5273 N   0  0  0  0  0  0  0  0  0  0  0  0
   -6.9427   -7.4712  -25.2510 N   0  0  0  0  0  0  0  0  0  0  0  0
   -8.0387   -8.8159  -26.3157 H   0  0  0  0  0  0  0  0  0  0  0  0
   -8.8876   -7.4772  -22.6399 H   0  0  0  0  0  0  0  0  0  0  0  0
   -5.2658   -6.1005  -23.7851 H   0  0  0  0  0  0  0  0  0  0  0  0
   -6.3007   -5.9354  -22.3551 H   0  0  0  0  0  0  0  0  0  0  0  0
   -6.2196   -4.2023  -25.0964 C   0  0  0  0  0  0  0  0  0  0  0  0
   -5.4748   -4.8485  -25.8191 O   0  0  0  0  0  0  0  0  0  0  0  0
   -6.6363   -2.8113  -25.3994 C   0  0  0  0  0  0  0  0  0  0  0  0
   -6.1790   -2.2693  -26.5958 C   0  0  0  0  0  0  0  0  0  0  0  0
   -6.4004   -0.9342  -26.8622 C   0  0  0  0  0  0  0  0  0  0  0  0
   -7.0805   -0.1745  -25.9137 C   0  0  0  0  0  0  0  0  0  0  0  0
   -7.2767    1.1333  -26.1615 F   0  0  0  0  0  0  0  0  0  0  0  0
   -7.5634   -0.7048  -24.7331 C   0  0  0  0  0  0  0  0  0  0  0  0
   -7.3673   -2.0638  -24.4689 C   0  0  0  0  0  0  0  0  0  0  0  0
   -8.0842   -0.0500  -24.0404 H   0  0  0  0  0  0  0  0  0  0  0  0
   -6.0343   -0.4576  -27.7609 H   0  0  0  0  0  0  0  0  0  0  0  0
   -5.6264   -2.9339  -27.2572 H   0  0  0  0  0  0  0  0  0  0  0  0
   -8.1261   -4.6937  -22.4135 H   0  0  0  0  0  0  0  0  0  0  0  0
   -8.7870   -4.4124  -24.0488 H   0  0  0  0  0  0  0  0  0  0  0  0
   -9.3362   -1.1184  -20.6633 H   0  0  0  0  0  0  0  0  0  0  0  0
   -8.7012    0.0057  -21.8622 H   0  0  0  0  0  0  0  0  0  0  0  0
   -9.6329   -1.4791  -23.4584 H   0  0  0  0  0  0  0  0  0  0  0  0
   -9.8435   -3.5771  -21.2454 H   0  0  0  0  0  0  0  0  0  0  0  0
  -11.0815   -2.3956  -21.6968 H   0  0  0  0  0  0  0  0  0  0  0  0
  -10.6115   -3.6485  -22.8468 H   0  0  0  0  0  0  0  0  0  0  0  0
  1  2  1  0
  2  3  1  0
  3  4  1  0
  4  5  1  0
  5  6  2  0
  6  7  1  0
  7  8  2  0
  8  9  1  0
  9 10  2  0
 10 11  1  0
 11 12  2  0
 12 13  1  0
 13 14  2  0
 13 15  1  0
 12 16  1  0
 11 17  1  0
 10 18  1  0
  8 19  1  0
  6 20  1  0
  4 21  1  0
 21 22  2  0
 21 23  1  0
 23 24  1  6
 24 25  1  0
 25 26  1  0
 26 27  1  0
 27 28  1  0
 28 29  2  0
 29 30  1  0
 30 31  1  0
 30 32  1  0
 28 33  1  0
 26 34  1  0
 26 35  1  0
 25 36  1  0
 36 37  2  0
 36 38  1  0
 38 39  2  0
 39 40  1  0
 40 41  2  0
 41 42  1  0
 41 43  1  0
 43 44  2  0
 43 45  1  0
 40 46  1  0
 39 47  1  0
 24 48  1  0
 24 49  1  0
  3 50  1  0
  3 51  1  0
  2 52  1  6
  1 53  1  0
  1 54  1  0
  1 55  1  0
 23  2  1  0
 31 27  2  0
 44 38  1  0
 14  5  1  0
 44 23  1  0
 14  9  1  0
M  END
>  <cnnaffinities>  (26) 
[6.38385, 6.45712]

>  <score>  (26) 
6.38385

>  <index>  (26) 
26

>  <Smiles>  (26) 
C([C@]1(C(N(c2c(nc(c3c(c(c(c(c23)[H])[H])[H])[H])[H])[H])C(=O)[C@]21C(N(C(c1c(nn(n1)[H])[H])([H])[H])C(=O)c1c(c(c(F)c(c21)[H])[H])[H])([H])[H])([H])[H])[H])([H])([H])[H]

>  <h>  (26) 
<NA>

>  <Training>  (26) 
True

>  <Success>  (26) 
True

>  <enamine_searched>  (26) 
False

>  <enamine_id>  (26) 
nan

$$$$

     RDKit          3D

 58 62  0  0  0  0  0  0  0  0999 V2000
   -3.7575   -5.3548  -22.7118 C   0  0  0  0  0  0  0  0  0  0  0  0
   -4.4942   -6.5314  -22.1684 N   0  0  0  0  0  4  0  0  0  0  0  0
   -5.6204   -6.2262  -21.2130 C   0  0  0  0  0  0  0  0  0  0  0  0
   -6.9963   -6.4860  -21.8430 C   0  0  0  0  0  0  0  0  0  0  0  0
   -7.3386   -5.4510  -22.8070 N   0  0  0  0  0  0  0  0  0  0  0  0
   -8.3173   -4.4359  -22.4658 C   0  0  0  0  0  0  0  0  0  0  0  0
   -7.9065   -3.0154  -22.9232 C   0  0  2  0  0  0  0  0  0  0  0  0
   -6.7907   -2.4813  -21.9835 C   0  0  0  0  0  0  0  0  0  0  0  0
   -5.6534   -2.9071  -21.8812 O   0  0  0  0  0  0  0  0  0  0  0  0
   -7.3086   -1.4483  -21.2334 N   0  0  0  0  0  0  0  0  0  0  0  0
   -6.5675   -0.8464  -20.1973 C   0  0  0  0  0  0  0  0  0  0  0  0
   -6.9115   -1.0592  -18.8892 C   0  0  0  0  0  0  0  0  0  0  0  0
   -6.2372   -0.5580  -17.8278 N   0  0  0  0  0  0  0  0  0  0  0  0
   -5.1993    0.2004  -18.0873 C   0  0  0  0  0  0  0  0  0  0  0  0
   -4.7471    0.5149  -19.3994 C   0  0  0  0  0  0  0  0  0  0  0  0
   -3.6214    1.3516  -19.6218 C   0  0  0  0  0  0  0  0  0  0  0  0
   -3.2288    1.6512  -20.8958 C   0  0  0  0  0  0  0  0  0  0  0  0
   -3.9400    1.1468  -22.0035 C   0  0  0  0  0  0  0  0  0  0  0  0
   -5.0299    0.3359  -21.8168 C   0  0  0  0  0  0  0  0  0  0  0  0
   -5.4512   -0.0105  -20.5005 C   0  0  0  0  0  0  0  0  0  0  0  0
   -5.5750   -0.0503  -22.6705 H   0  0  0  0  0  0  0  0  0  0  0  0
   -3.6201    1.4070  -23.0095 H   0  0  0  0  0  0  0  0  0  0  0  0
   -2.3766    2.3031  -21.0631 H   0  0  0  0  0  0  0  0  0  0  0  0
   -3.0976    1.7511  -18.7577 H   0  0  0  0  0  0  0  0  0  0  0  0
   -4.6529    0.6026  -17.2346 H   0  0  0  0  0  0  0  0  0  0  0  0
   -7.7661   -1.6891  -18.6518 H   0  0  0  0  0  0  0  0  0  0  0  0
   -8.7546   -1.3622  -21.3117 C   0  0  0  0  0  0  0  0  0  0  0  0
   -9.0735   -2.0015  -22.6691 C   0  0  2  0  0  0  0  0  0  0  0  0
  -10.4899   -2.5673  -22.6986 C   0  0  0  0  0  0  0  0  0  0  0  0
  -10.6996   -3.0830  -23.6406 H   0  0  0  0  0  0  0  0  0  0  0  0
  -10.6441   -3.2807  -21.8794 H   0  0  0  0  0  0  0  0  0  0  0  0
  -11.2169   -1.7597  -22.5793 H   0  0  0  0  0  0  0  0  0  0  0  0
   -9.0044   -1.2133  -23.4242 H   0  0  0  0  0  0  0  0  0  0  0  0
   -9.2524   -1.9174  -20.5004 H   0  0  0  0  0  0  0  0  0  0  0  0
   -9.0823   -0.3198  -21.2581 H   0  0  0  0  0  0  0  0  0  0  0  0
   -7.4033   -3.0878  -24.3491 C   0  0  0  0  0  0  0  0  0  0  0  0
   -7.3293   -1.9299  -25.1279 C   0  0  0  0  0  0  0  0  0  0  0  0
   -6.8940   -2.0147  -26.4311 C   0  0  0  0  0  0  0  0  0  0  0  0
   -6.8237   -0.8920  -27.1627 F   0  0  0  0  0  0  0  0  0  0  0  0
   -6.5245   -3.2130  -27.0261 C   0  0  0  0  0  0  0  0  0  0  0  0
   -6.5404   -4.3469  -26.2391 C   0  0  0  0  0  0  0  0  0  0  0  0
   -6.9199   -4.2849  -24.8965 C   0  0  0  0  0  0  0  0  0  0  0  0
   -6.7244   -5.4799  -24.0143 C   0  0  0  0  0  0  0  0  0  0  0  0
   -5.9884   -6.4231  -24.3468 O   0  0  0  0  0  0  0  0  0  0  0  0
   -6.2511   -5.3019  -26.6583 H   0  0  0  0  0  0  0  0  0  0  0  0
   -6.2071   -3.2320  -28.0632 H   0  0  0  0  0  0  0  0  0  0  0  0
   -7.5945   -0.9569  -24.7320 H   0  0  0  0  0  0  0  0  0  0  0  0
   -8.4072   -4.4119  -21.3809 H   0  0  0  0  0  0  0  0  0  0  0  0
   -9.2945   -4.6927  -22.8970 H   0  0  0  0  0  0  0  0  0  0  0  0
   -7.7764   -6.5137  -21.0776 H   0  0  0  0  0  0  0  0  0  0  0  0
   -7.0008   -7.4549  -22.3554 H   0  0  0  0  0  0  0  0  0  0  0  0
   -5.5106   -6.8531  -20.3242 H   0  0  0  0  0  0  0  0  0  0  0  0
   -5.5567   -5.1715  -20.9321 H   0  0  0  0  0  0  0  0  0  0  0  0
   -4.9084   -7.0081  -23.0031 H   0  0  0  0  0  0  0  0  0  0  0  0
   -3.8229   -7.1793  -21.7016 H   0  0  0  0  0  0  0  0  0  0  0  0
   -2.8526   -5.6967  -23.2196 H   0  0  0  0  0  0  0  0  0  0  0  0
   -4.3782   -4.8176  -23.4352 H   0  0  0  0  0  0  0  0  0  0  0  0
   -3.5021   -4.6595  -21.9130 H   0  0  0  0  0  0  0  0  0  0  0  0
  1  2  1  0
  2  3  1  0
  3  4  1  0
  4  5  1  0
  5  6  1  0
  7  6  1  1
  7  8  1  0
  8  9  2  0
  8 10  1  0
 10 11  1  0
 11 12  2  0
 12 13  1  0
 13 14  2  0
 14 15  1  0
 15 16  2  0
 16 17  1  0
 17 18  2  0
 18 19  1  0
 19 20  2  0
 19 21  1  0
 18 22  1  0
 17 23  1  0
 16 24  1  0
 14 25  1  0
 12 26  1  0
 10 27  1  0
 27 28  1  0
 28 29  1  0
 29 30  1  0
 29 31  1  0
 29 32  1  0
 28 33  1  6
 27 34  1  0
 27 35  1  0
  7 36  1  0
 36 37  2  0
 37 38  1  0
 38 39  1  0
 38 40  2  0
 40 41  1  0
 41 42  2  0
 42 43  1  0
 43 44  2  0
 41 45  1  0
 40 46  1  0
 37 47  1  0
  6 48  1  0
  6 49  1  0
  4 50  1  0
  4 51  1  0
  3 52  1  0
  3 53  1  0
  2 54  1  0
  2 55  1  0
  1 56  1  0
  1 57  1  0
  1 58  1  0
 43  5  1  0
 28  7  1  0
 42 36  1  0
 20 11  1  0
 20 15  1  0
M  CHG  1   2   1
M  END
>  <cnnaffinities>  (27) 
[6.04727]

>  <score>  (27) 
6.04727

>  <index>  (27) 
27

>  <Smiles>  (27) 
C([N+](C(C(N1C([C@@]2(C(=O)N(c3c(nc(c4c(c(c(c(c34)[H])[H])[H])[H])[H])[H])C([C@@]2(C([H])([H])[H])[H])([H])[H])c2c(c(F)c(c(c2C1=O)[H])[H])[H])([H])[H])([H])[H])([H])[H])([H])[H])([H])([H])[H]

>  <h>  (27) 
<NA>

>  <Training>  (27) 
True

>  <Success>  (27) 
True

>  <enamine_searched>  (27) 
False

>  <enamine_id>  (27) 
nan

$$$$

     RDKit          3D

 64 68  0  0  0  0  0  0  0  0999 V2000
   -7.3992    0.5809  -29.3633 C   0  0  0  0  0  0  0  0  0  0  0  0
   -7.5888   -0.4178  -28.3372 N   0  0  0  0  0  0  0  0  0  0  0  0
   -6.5646   -0.8694  -27.5764 C   0  0  0  0  0  0  0  0  0  0  0  0
   -5.4043   -0.5038  -27.7047 O   0  0  0  0  0  0  0  0  0  0  0  0
   -6.9502   -1.9709  -26.5696 C   0  0  0  0  0  0  0  0  0  0  0  0
   -7.7958   -1.5901  -25.4453 N   0  0  0  0  0  0  0  0  0  0  0  0
   -7.1961   -1.3524  -24.1303 C   0  0  0  0  0  0  0  0  0  0  0  0
   -7.9449   -2.0809  -22.9512 C   0  0  2  0  0  0  0  0  0  0  0  0
   -7.6066   -1.3647  -21.6350 C   0  0  0  0  0  0  0  0  0  0  0  0
   -8.1525   -0.4046  -21.1317 O   0  0  0  0  0  0  0  0  0  0  0  0
   -6.4926   -1.9816  -21.0998 N   0  0  0  0  0  0  0  0  0  0  0  0
   -5.8534   -1.3661  -20.0002 C   0  0  0  0  0  0  0  0  0  0  0  0
   -6.2919   -1.6279  -18.7289 C   0  0  0  0  0  0  0  0  0  0  0  0
   -5.8590   -0.9727  -17.6255 N   0  0  0  0  0  0  0  0  0  0  0  0
   -5.0033    0.0077  -17.7966 C   0  0  0  0  0  0  0  0  0  0  0  0
   -4.4602    0.3770  -19.0616 C   0  0  0  0  0  0  0  0  0  0  0  0
   -3.5668    1.4725  -19.2083 C   0  0  0  0  0  0  0  0  0  0  0  0
   -3.0026    1.7392  -20.4276 C   0  0  0  0  0  0  0  0  0  0  0  0
   -3.3177    0.9433  -21.5546 C   0  0  0  0  0  0  0  0  0  0  0  0
   -4.2289   -0.0783  -21.4513 C   0  0  0  0  0  0  0  0  0  0  0  0
   -4.8419   -0.3713  -20.1980 C   0  0  0  0  0  0  0  0  0  0  0  0
   -4.5042   -0.6519  -22.3332 H   0  0  0  0  0  0  0  0  0  0  0  0
   -2.8464    1.1519  -22.5126 H   0  0  0  0  0  0  0  0  0  0  0  0
   -2.3078    2.5671  -20.5397 H   0  0  0  0  0  0  0  0  0  0  0  0
   -3.3597    2.0940  -18.3380 H   0  0  0  0  0  0  0  0  0  0  0  0
   -4.6927    0.5594  -16.9074 H   0  0  0  0  0  0  0  0  0  0  0  0
   -7.0528   -2.3929  -18.5698 H   0  0  0  0  0  0  0  0  0  0  0  0
   -6.1249   -3.2182  -21.7620 C   0  0  0  0  0  0  0  0  0  0  0  0
   -7.3687   -3.5115  -22.6243 C   0  0  2  0  0  0  0  0  0  0  0  0
   -7.0912   -4.4169  -23.8235 C   0  0  0  0  0  0  0  0  0  0  0  0
   -7.0066   -6.1582  -23.3909 S   0  0  0  0  0  0  0  0  0  0  0  0
   -8.1505   -6.4585  -22.5405 O   0  0  0  0  0  0  0  0  0  0  0  0
   -6.7621   -6.9025  -24.6182 O   0  0  0  0  0  0  0  0  0  0  0  0
   -5.6248   -6.2843  -22.4341 N   0  0  0  0  0  0  0  0  0  0  0  0
   -5.6837   -7.3442  -21.4123 C   0  0  0  0  0  0  0  0  0  0  0  0
   -6.5814   -7.1970  -20.8112 H   0  0  0  0  0  0  0  0  0  0  0  0
   -5.6973   -8.3597  -21.8313 H   0  0  0  0  0  0  0  0  0  0  0  0
   -4.8060   -7.2298  -20.7733 H   0  0  0  0  0  0  0  0  0  0  0  0
   -4.8421   -6.4326  -23.0691 H   0  0  0  0  0  0  0  0  0  0  0  0
   -7.8874   -4.3589  -24.5725 H   0  0  0  0  0  0  0  0  0  0  0  0
   -6.1583   -4.1635  -24.3356 H   0  0  0  0  0  0  0  0  0  0  0  0
   -8.1143   -4.0128  -21.9924 H   0  0  0  0  0  0  0  0  0  0  0  0
   -5.8957   -4.0098  -21.0458 H   0  0  0  0  0  0  0  0  0  0  0  0
   -5.2446   -3.0784  -22.4083 H   0  0  0  0  0  0  0  0  0  0  0  0
   -9.4182   -2.0147  -23.1490 C   0  0  0  0  0  0  0  0  0  0  0  0
  -10.3152   -2.1850  -22.0431 C   0  0  0  0  0  0  0  0  0  0  0  0
  -11.5283   -2.5216  -22.6245 C   0  0  0  0  0  0  0  0  0  0  0  0
  -11.8632   -4.6298  -23.4881 Cl  0  0  0  0  0  0  0  0  0  0  0  0
  -11.7618   -2.1955  -22.7594 C   0  0  0  0  0  0  0  0  0  0  0  0
  -11.3169   -1.1738  -24.5423 C   0  0  0  0  0  0  0  0  0  0  0  0
  -10.0024   -1.5460  -24.3921 C   0  0  0  0  0  0  0  0  0  0  0  0
   -9.1453   -1.5087  -25.6348 C   0  0  0  0  0  0  0  0  0  0  0  0
   -9.6473   -1.4607  -26.7596 O   0  0  0  0  0  0  0  0  0  0  0  0
  -11.5802   -0.6696  -25.4680 H   0  0  0  0  0  0  0  0  0  0  0  0
  -12.1832   -1.4768  -23.5403 H   0  0  0  0  0  0  0  0  0  0  0  0
  -10.2638   -2.9883  -21.3788 H   0  0  0  0  0  0  0  0  0  0  0  0
   -7.2207   -0.2787  -23.9050 H   0  0  0  0  0  0  0  0  0  0  0  0
   -6.1490   -1.6722  -24.1635 H   0  0  0  0  0  0  0  0  0  0  0  0
   -7.4717   -2.7628  -27.1205 H   0  0  0  0  0  0  0  0  0  0  0  0
   -6.0094   -2.3645  -26.1798 H   0  0  0  0  0  0  0  0  0  0  0  0
   -8.5124   -0.7814  -28.1365 H   0  0  0  0  0  0  0  0  0  0  0  0
   -6.3291    0.6686  -29.5583 H   0  0  0  0  0  0  0  0  0  0  0  0
   -7.9138    0.2744  -30.2805 H   0  0  0  0  0  0  0  0  0  0  0  0
   -7.7797    1.5633  -29.0564 H   0  0  0  0  0  0  0  0  0  0  0  0
  1  2  1  0
  2  3  1  0
  3  4  2  0
  3  5  1  0
  5  6  1  0
  6  7  1  0
  8  7  1  6
  8  9  1  0
  9 10  2  0
  9 11  1  0
 11 12  1  0
 12 13  2  0
 13 14  1  0
 14 15  2  0
 15 16  1  0
 16 17  2  0
 17 18  1  0
 18 19  2  0
 19 20  1  0
 20 21  2  0
 20 22  1  0
 19 23  1  0
 18 24  1  0
 17 25  1  0
 15 26  1  0
 13 27  1  0
 11 28  1  0
 28 29  1  0
 29 30  1  0
 30 31  1  0
 31 32  2  0
 31 33  2  0
 31 34  1  0
 34 35  1  0
 35 36  1  0
 35 37  1  0
 35 38  1  0
 34 39  1  0
 30 40  1  0
 30 41  1  0
 29 42  1  1
 28 43  1  0
 28 44  1  0
  8 45  1  0
 45 46  2  0
 46 47  1  0
 47 48  1  0
 47 49  2  0
 49 50  1  0
 50 51  2  0
 51 52  1  0
 52 53  2  0
 50 54  1  0
 49 55  1  0
 46 56  1  0
  7 57  1  0
  7 58  1  0
  5 59  1  0
  5 60  1  0
  2 61  1  0
  1 62  1  0
  1 63  1  0
  1 64  1  0
 52  6  1  0
 29  8  1  0
 51 45  1  0
 21 12  1  0
 21 16  1  0
M  END
>  <cnnaffinities>  (28) 
[6.45486]

>  <score>  (28) 
6.45486

>  <index>  (28) 
28

>  <Smiles>  (28) 
C(N(C(=O)C(N1C([C@@]2(C(=O)N(c3c(nc(c4c(c(c(c(c34)[H])[H])[H])[H])[H])[H])C([C@@]2(C(S(=O)(=O)N(C([H])([H])[H])[H])([H])[H])[H])([H])[H])c2c(c(Cl)c(c(c2C1=O)[H])[H])[H])([H])[H])([H])[H])[H])([H])([H])[H]

>  <h>  (28) 
<NA>

>  <Training>  (28) 
True

>  <Success>  (28) 
True

>  <enamine_searched>  (28) 
False

>  <enamine_id>  (28) 
nan

$$$$

     RDKit          3D

 55 60  0  0  0  0  0  0  0  0999 V2000
  -10.2302   -2.9734  -22.0746 C   0  0  0  0  0  0  0  0  0  0  0  0
   -9.1609   -2.0177  -22.6291 C   0  0  1  0  0  0  0  0  0  0  0  0
   -8.6912   -1.0409  -21.5335 C   0  0  0  0  0  0  0  0  0  0  0  0
   -7.3456   -1.4538  -21.2069 N   0  0  0  0  0  0  0  0  0  0  0  0
   -6.5709   -0.8540  -20.1911 C   0  0  0  0  0  0  0  0  0  0  0  0
   -6.9080   -1.0623  -18.8793 C   0  0  0  0  0  0  0  0  0  0  0  0
   -6.2222   -0.5617  -17.8259 N   0  0  0  0  0  0  0  0  0  0  0  0
   -5.1864    0.1980  -18.0944 C   0  0  0  0  0  0  0  0  0  0  0  0
   -4.7426    0.5114  -19.4119 C   0  0  0  0  0  0  0  0  0  0  0  0
   -3.6214    1.3530  -19.6369 C   0  0  0  0  0  0  0  0  0  0  0  0
   -3.2311    1.6623  -20.9100 C   0  0  0  0  0  0  0  0  0  0  0  0
   -3.9484    1.1523  -22.0178 C   0  0  0  0  0  0  0  0  0  0  0  0
   -5.0375    0.3375  -21.8313 C   0  0  0  0  0  0  0  0  0  0  0  0
   -5.4530   -0.0189  -20.5109 C   0  0  0  0  0  0  0  0  0  0  0  0
   -5.5863   -0.0345  -22.6981 H   0  0  0  0  0  0  0  0  0  0  0  0
   -3.6302    1.4114  -23.0244 H   0  0  0  0  0  0  0  0  0  0  0  0
   -2.3722    2.3057  -21.0818 H   0  0  0  0  0  0  0  0  0  0  0  0
   -3.0958    1.7492  -18.7720 H   0  0  0  0  0  0  0  0  0  0  0  0
   -4.6387    0.6090  -17.2462 H   0  0  0  0  0  0  0  0  0  0  0  0
   -7.7679   -1.6881  -18.6387 H   0  0  0  0  0  0  0  0  0  0  0  0
   -6.8225   -2.4066  -22.0424 C   0  0  0  0  0  0  0  0  0  0  0  0
   -5.7326   -2.9224  -21.9006 O   0  0  0  0  0  0  0  0  0  0  0  0
   -7.8536   -2.6756  -23.1578 C   0  0  1  0  0  0  0  0  0  0  0  0
   -7.9550   -4.1831  -23.3660 C   0  0  0  0  0  0  0  0  0  0  0  0
   -6.7063   -4.6669  -23.9078 N   0  0  0  0  0  0  0  0  0  0  0  0
   -6.2893   -5.9648  -23.4473 C   0  0  0  0  0  0  0  0  0  0  0  0
   -7.1738   -7.0279  -24.0212 C   0  0  0  0  0  0  0  0  0  0  0  0
   -8.3853   -7.5780  -23.5866 C   0  0  0  0  0  0  0  0  0  0  0  0
   -8.9073   -8.3069  -24.5631 N   0  0  0  0  0  0  0  0  0  0  0  0
   -8.0169   -8.1875  -25.5273 N   0  0  0  0  0  0  0  0  0  0  0  0
   -6.9426   -7.4712  -25.2510 N   0  0  0  0  0  0  0  0  0  0  0  0
   -8.0387   -8.8159  -26.3157 H   0  0  0  0  0  0  0  0  0  0  0  0
   -8.8876   -7.4772  -22.6399 H   0  0  0  0  0  0  0  0  0  0  0  0
   -5.2658   -6.1005  -23.7851 H   0  0  0  0  0  0  0  0  0  0  0  0
   -6.3007   -5.9354  -22.3551 H   0  0  0  0  0  0  0  0  0  0  0  0
   -6.2196   -4.2023  -25.0964 C   0  0  0  0  0  0  0  0  0  0  0  0
   -5.4749   -4.8485  -25.8191 O   0  0  0  0  0  0  0  0  0  0  0  0
   -6.6363   -2.8113  -25.3994 C   0  0  0  0  0  0  0  0  0  0  0  0
   -6.1790   -2.2693  -26.5958 C   0  0  0  0  0  0  0  0  0  0  0  0
   -6.4004   -0.9342  -26.8622 C   0  0  0  0  0  0  0  0  0  0  0  0
   -7.0805   -0.1745  -25.9137 C   0  0  0  0  0  0  0  0  0  0  0  0
   -7.2767    1.1333  -26.1615 F   0  0  0  0  0  0  0  0  0  0  0  0
   -7.5635   -0.7048  -24.7331 C   0  0  0  0  0  0  0  0  0  0  0  0
   -7.3673   -2.0638  -24.4689 C   0  0  0  0  0  0  0  0  0  0  0  0
   -8.0842   -0.0500  -24.0404 H   0  0  0  0  0  0  0  0  0  0  0  0
   -6.0343   -0.4576  -27.7609 H   0  0  0  0  0  0  0  0  0  0  0  0
   -5.6264   -2.9339  -27.2571 H   0  0  0  0  0  0  0  0  0  0  0  0
   -8.1261   -4.6937  -22.4135 H   0  0  0  0  0  0  0  0  0  0  0  0
   -8.7870   -4.4124  -24.0488 H   0  0  0  0  0  0  0  0  0  0  0  0
   -9.3362   -1.1184  -20.6633 H   0  0  0  0  0  0  0  0  0  0  0  0
   -8.7012    0.0057  -21.8622 H   0  0  0  0  0  0  0  0  0  0  0  0
   -9.6329   -1.4791  -23.4584 H   0  0  0  0  0  0  0  0  0  0  0  0
   -9.8435   -3.5771  -21.2454 H   0  0  0  0  0  0  0  0  0  0  0  0
  -11.0815   -2.3956  -21.6968 H   0  0  0  0  0  0  0  0  0  0  0  0
  -10.6115   -3.6485  -22.8468 H   0  0  0  0  0  0  0  0  0  0  0  0
  1  2  1  0
  2  3  1  0
  3  4  1  0
  4  5  1  0
  5  6  2  0
  6  7  1  0
  7  8  2  0
  8  9  1  0
  9 10  2  0
 10 11  1  0
 11 12  2  0
 12 13  1  0
 13 14  2  0
 13 15  1  0
 12 16  1  0
 11 17  1  0
 10 18  1  0
  8 19  1  0
  6 20  1  0
  4 21  1  0
 21 22  2  0
 21 23  1  0
 23 24  1  6
 24 25  1  0
 25 26  1  0
 26 27  1  0
 27 28  1  0
 28 29  2  0
 29 30  1  0
 30 31  1  0
 30 32  1  0
 28 33  1  0
 26 34  1  0
 26 35  1  0
 25 36  1  0
 36 37  2  0
 36 38  1  0
 38 39  2  0
 39 40  1  0
 40 41  2  0
 41 42  1  0
 41 43  1  0
 43 44  2  0
 43 45  1  0
 40 46  1  0
 39 47  1  0
 24 48  1  0
 24 49  1  0
  3 50  1  0
  3 51  1  0
  2 52  1  6
  1 53  1  0
  1 54  1  0
  1 55  1  0
 23  2  1  0
 31 27  2  0
 44 38  1  0
 14  5  1  0
 44 23  1  0
 14  9  1  0
M  END
>  <cnnaffinities>  (29) 
[6.38385, 6.45718]

>  <score>  (29) 
6.38385

>  <index>  (29) 
29

>  <Smiles>  (29) 
C([C@]1(C(N(c2c(nc(c3c(c(c(c(c23)[H])[H])[H])[H])[H])[H])C(=O)[C@]21C(N(C(c1c(nn(n1)[H])[H])([H])[H])C(=O)c1c(c(c(F)c(c21)[H])[H])[H])([H])[H])([H])[H])[H])([H])([H])[H]

>  <h>  (29) 
<NA>

>  <Training>  (29) 
True

>  <Success>  (29) 
True

>  <enamine_searched>  (29) 
False

>  <enamine_id>  (29) 
nan

$$$$

     RDKit          3D

 58 63  0  0  0  0  0  0  0  0999 V2000
   -7.0453   -4.7667  -23.1988 C   0  0  0  0  0  0  0  0  0  0  0  0
   -7.3142   -3.5201  -22.3566 C   0  0  1  0  0  0  0  0  0  0  0  0
   -6.2469   -3.2384  -21.2711 C   0  0  0  0  0  0  0  0  0  0  0  0
   -6.4176   -1.8177  -21.0148 N   0  0  0  0  0  0  0  0  0  0  0  0
   -5.8872   -1.0954  -19.9258 C   0  0  0  0  0  0  0  0  0  0  0  0
   -6.3290   -1.3510  -18.6512 C   0  0  0  0  0  0  0  0  0  0  0  0
   -5.9084   -0.6836  -17.5501 N   0  0  0  0  0  0  0  0  0  0  0  0
   -4.9934    0.2421  -17.7184 C   0  0  0  0  0  0  0  0  0  0  0  0
   -4.4151    0.5709  -18.9780 C   0  0  0  0  0  0  0  0  0  0  0  0
   -3.3760    1.5283  -19.0978 C   0  0  0  0  0  0  0  0  0  0  0  0
   -2.9099    1.8995  -20.3263 C   0  0  0  0  0  0  0  0  0  0  0  0
   -3.4595    1.3232  -21.4929 C   0  0  0  0  0  0  0  0  0  0  0  0
   -4.4207    0.3515  -21.4051 C   0  0  0  0  0  0  0  0  0  0  0  0
   -4.9129   -0.0646  -20.1332 C   0  0  0  0  0  0  0  0  0  0  0  0
   -4.8382   -0.0754  -22.3130 H   0  0  0  0  0  0  0  0  0  0  0  0
   -3.1156    1.6549  -22.4657 H   0  0  0  0  0  0  0  0  0  0  0  0
   -2.1285    2.6474  -20.4133 H   0  0  0  0  0  0  0  0  0  0  0  0
   -2.9693    1.9550  -18.1883 H   0  0  0  0  0  0  0  0  0  0  0  0
   -4.6699    0.7923  -16.8345 H   0  0  0  0  0  0  0  0  0  0  0  0
   -7.0909   -2.1156  -18.4844 H   0  0  0  0  0  0  0  0  0  0  0  0
   -7.1306   -1.1720  -21.9973 C   0  0  0  0  0  0  0  0  0  0  0  0
   -7.4700   -0.0118  -21.9387 O   0  0  0  0  0  0  0  0  0  0  0  0
   -7.3919   -2.1788  -23.1453 C   0  0  1  0  0  0  0  0  0  0  0  0
   -6.2264   -2.0989  -24.1775 C   0  0  0  0  0  0  0  0  0  0  0  0
   -6.2641   -0.8891  -24.9865 N   0  0  0  0  0  0  0  0  0  0  0  0
   -5.0179   -0.4271  -25.5967 C   0  0  0  0  0  0  0  0  0  0  0  0
   -4.8454   -0.8054  -27.0532 C   0  0  0  0  0  0  0  0  0  0  0  0
   -5.1143    0.0868  -28.0353 C   0  0  0  0  0  0  0  0  0  0  0  0
   -5.1090   -0.3025  -29.4230 C   0  0  0  0  0  0  0  0  0  0  0  0
   -5.4074    0.3615  -30.3957 O   0  0  0  0  0  0  0  0  0  0  0  0
   -4.6822   -1.6354  -29.5795 N   0  0  0  0  0  0  0  0  0  0  0  0
   -4.3292   -2.4347  -28.5375 C   0  0  0  0  0  0  0  0  0  0  0  0
   -4.4003   -2.0910  -27.2926 N   0  0  0  0  0  0  0  0  0  0  0  0
   -3.9810   -3.4282  -28.8053 H   0  0  0  0  0  0  0  0  0  0  0  0
   -4.6210   -1.9529  -30.5383 H   0  0  0  0  0  0  0  0  0  0  0  0
   -5.4296    1.0926  -27.7955 H   0  0  0  0  0  0  0  0  0  0  0  0
   -4.1970   -0.8813  -25.0414 H   0  0  0  0  0  0  0  0  0  0  0  0
   -4.9807    0.6627  -25.4866 H   0  0  0  0  0  0  0  0  0  0  0  0
   -7.4222   -0.2752  -25.3683 C   0  0  0  0  0  0  0  0  0  0  0  0
   -7.4362    0.6917  -26.1194 O   0  0  0  0  0  0  0  0  0  0  0  0
   -8.6959   -0.8665  -24.8467 C   0  0  0  0  0  0  0  0  0  0  0  0
   -9.8962   -0.4020  -25.3798 C   0  0  0  0  0  0  0  0  0  0  0  0
  -11.1133   -0.8282  -24.8957 C   0  0  0  0  0  0  0  0  0  0  0  0
  -11.0982   -1.7365  -23.8379 C   0  0  0  0  0  0  0  0  0  0  0  0
  -12.2439   -2.1731  -23.2922 F   0  0  0  0  0  0  0  0  0  0  0  0
   -9.9244   -2.2352  -23.3096 C   0  0  0  0  0  0  0  0  0  0  0  0
   -8.6935   -1.8139  -23.8162 C   0  0  0  0  0  0  0  0  0  0  0  0
   -9.9912   -2.8955  -22.4546 H   0  0  0  0  0  0  0  0  0  0  0  0
  -12.0302   -0.4596  -25.3451 H   0  0  0  0  0  0  0  0  0  0  0  0
   -9.8677    0.3176  -26.1867 H   0  0  0  0  0  0  0  0  0  0  0  0
   -6.2215   -2.9642  -24.8543 H   0  0  0  0  0  0  0  0  0  0  0  0
   -5.2756   -2.1178  -23.6265 H   0  0  0  0  0  0  0  0  0  0  0  0
   -5.2427   -3.4583  -21.6661 H   0  0  0  0  0  0  0  0  0  0  0  0
   -6.3632   -3.8032  -20.3409 H   0  0  0  0  0  0  0  0  0  0  0  0
   -8.2721   -3.6302  -21.8419 H   0  0  0  0  0  0  0  0  0  0  0  0
   -7.0100   -5.6756  -22.5860 H   0  0  0  0  0  0  0  0  0  0  0  0
   -7.8157   -4.9018  -23.9697 H   0  0  0  0  0  0  0  0  0  0  0  0
   -6.0781   -4.6764  -23.7085 H   0  0  0  0  0  0  0  0  0  0  0  0
  1  2  1  0
  2  3  1  0
  3  4  1  0
  4  5  1  0
  5  6  2  0
  6  7  1  0
  7  8  2  0
  8  9  1  0
  9 10  2  0
 10 11  1  0
 11 12  2  0
 12 13  1  0
 13 14  2  0
 13 15  1  0
 12 16  1  0
 11 17  1  0
 10 18  1  0
  8 19  1  0
  6 20  1  0
  4 21  1  0
 21 22  2  0
 21 23  1  0
 23 24  1  6
 24 25  1  0
 25 26  1  0
 26 27  1  0
 27 28  2  0
 28 29  1  0
 29 30  2  0
 29 31  1  0
 31 32  1  0
 32 33  2  0
 32 34  1  0
 31 35  1  0
 28 36  1  0
 26 37  1  0
 26 38  1  0
 25 39  1  0
 39 40  2  0
 39 41  1  0
 41 42  2  0
 42 43  1  0
 43 44  2  0
 44 45  1  0
 44 46  1  0
 46 47  2  0
 46 48  1  0
 43 49  1  0
 42 50  1  0
 24 51  1  0
 24 52  1  0
  3 53  1  0
  3 54  1  0
  2 55  1  1
  1 56  1  0
  1 57  1  0
  1 58  1  0
 23  2  1  0
 33 27  1  0
 47 41  1  0
 14  5  1  0
 47 23  1  0
 14  9  1  0
M  END
>  <cnnaffinities>  (30) 
[6.08643]

>  <score>  (30) 
6.08643

>  <index>  (30) 
30

>  <Smiles>  (30) 
C([C@]1(C(N(c2c(nc(c3c(c(c(c(c23)[H])[H])[H])[H])[H])[H])C(=O)[C@]21C(N(C(c1c(c(=O)n(c(n1)[H])[H])[H])([H])[H])C(=O)c1c(c(c(F)c(c21)[H])[H])[H])([H])[H])([H])[H])[H])([H])([H])[H]

>  <h>  (30) 
<NA>

>  <Training>  (30) 
True

>  <Success>  (30) 
True

>  <enamine_searched>  (30) 
False

>  <enamine_id>  (30) 
nan

$$$$

     RDKit          3D

 66 71  0  0  0  0  0  0  0  0999 V2000
   -5.5882    0.0473  -29.3750 C   0  0  0  0  0  0  0  0  0  0  0  0
   -5.5961    0.2460  -27.9478 N   0  0  0  0  0  0  0  0  0  0  0  0
   -4.9750   -0.6289  -27.1222 C   0  0  0  0  0  0  0  0  0  0  0  0
   -4.2771   -1.5523  -27.5144 O   0  0  0  0  0  0  0  0  0  0  0  0
   -5.1836   -0.3200  -25.6302 C   0  0  0  0  0  0  0  0  0  0  0  0
   -6.4306   -0.8386  -25.0745 N   0  0  0  0  0  0  0  0  0  0  0  0
   -6.3814   -2.0314  -24.2305 C   0  0  0  0  0  0  0  0  0  0  0  0
   -7.4998   -2.0713  -23.1341 C   0  0  2  0  0  0  0  0  0  0  0  0
   -7.1432   -1.0787  -22.0028 C   0  0  0  0  0  0  0  0  0  0  0  0
   -7.4651    0.0832  -21.8899 O   0  0  0  0  0  0  0  0  0  0  0  0
   -6.3655   -1.7649  -21.0912 N   0  0  0  0  0  0  0  0  0  0  0  0
   -5.8069   -1.0827  -19.9925 C   0  0  0  0  0  0  0  0  0  0  0  0
   -6.2629   -1.3636  -18.7302 C   0  0  0  0  0  0  0  0  0  0  0  0
   -5.8592   -0.7284  -17.6064 N   0  0  0  0  0  0  0  0  0  0  0  0
   -4.9613    0.2195  -17.7387 C   0  0  0  0  0  0  0  0  0  0  0  0
   -4.3812    0.5917  -18.9830 C   0  0  0  0  0  0  0  0  0  0  0  0
   -3.3845    1.6013  -19.0561 C   0  0  0  0  0  0  0  0  0  0  0  0
   -2.8397    1.9631  -20.2577 C   0  0  0  0  0  0  0  0  0  0  0  0
   -3.2675    1.3232  -21.4439 C   0  0  0  0  0  0  0  0  0  0  0  0
   -4.2195    0.3351  -21.3958 C   0  0  0  0  0  0  0  0  0  0  0  0
   -4.8122   -0.0607  -20.1591 C   0  0  0  0  0  0  0  0  0  0  0  0
   -4.5446   -0.1354  -22.3189 H   0  0  0  0  0  0  0  0  0  0  0  0
   -2.8420    1.6228  -22.3991 H   0  0  0  0  0  0  0  0  0  0  0  0
   -2.0835    2.7428  -20.3113 H   0  0  0  0  0  0  0  0  0  0  0  0
   -3.0726    2.0767  -18.1309 H   0  0  0  0  0  0  0  0  0  0  0  0
   -4.6440    0.7464  -16.8363 H   0  0  0  0  0  0  0  0  0  0  0  0
   -7.0209   -2.1347  -18.5925 H   0  0  0  0  0  0  0  0  0  0  0  0
   -6.2946   -3.1975  -21.3690 C   0  0  0  0  0  0  0  0  0  0  0  0
   -7.4921   -3.3798  -22.3052 C   0  0  2  0  0  0  0  0  0  0  0  0
   -7.6889   -4.7039  -23.0633 C   0  0  0  0  0  0  0  0  0  0  0  0
   -6.5859   -5.1710  -23.8829 N   0  0  0  0  0  0  0  0  0  0  0  0
   -5.4750   -5.7719  -23.3946 C   0  0  0  0  0  0  0  0  0  0  0  0
   -4.2735   -5.7743  -24.1387 C   0  0  0  0  0  0  0  0  0  0  0  0
   -3.2002   -6.4137  -23.5607 C   0  0  0  0  0  0  0  0  0  0  0  0
   -3.2704   -7.0330  -22.3757 N   0  0  0  0  0  0  0  0  0  0  0  0
   -4.4477   -6.9547  -21.7701 C   0  0  0  0  0  0  0  0  0  0  0  0
   -5.5418   -6.3109  -22.1709 N   0  0  0  0  0  0  0  0  0  0  0  0
   -4.5358   -7.4634  -20.8116 H   0  0  0  0  0  0  0  0  0  0  0  0
   -2.2380   -6.4519  -24.0698 H   0  0  0  0  0  0  0  0  0  0  0  0
   -4.1996   -5.2899  -25.1101 H   0  0  0  0  0  0  0  0  0  0  0  0
   -6.5856   -4.9447  -24.8664 H   0  0  0  0  0  0  0  0  0  0  0  0
   -8.5595   -4.5885  -23.7207 H   0  0  0  0  0  0  0  0  0  0  0  0
   -7.9210   -5.4969  -22.3468 H   0  0  0  0  0  0  0  0  0  0  0  0
   -8.3714   -3.2960  -21.6591 H   0  0  0  0  0  0  0  0  0  0  0  0
   -5.3548   -3.4454  -21.8694 H   0  0  0  0  0  0  0  0  0  0  0  0
   -6.3632   -3.8022  -20.4637 H   0  0  0  0  0  0  0  0  0  0  0  0
   -8.8222   -1.7268  -23.7576 C   0  0  0  0  0  0  0  0  0  0  0  0
  -10.0506   -2.1024  -23.1903 C   0  0  0  0  0  0  0  0  0  0  0  0
  -11.2406   -1.6675  -23.7480 C   0  0  0  0  0  0  0  0  0  0  0  0
  -12.7258   -2.1441  -22.9578 Cl  0  0  0  0  0  0  0  0  0  0  0  0
  -11.2490   -0.8682  -24.8943 C   0  0  0  0  0  0  0  0  0  0  0  0
  -10.0424   -0.5043  -25.4511 C   0  0  0  0  0  0  0  0  0  0  0  0
   -8.8407   -0.8830  -24.8722 C   0  0  0  0  0  0  0  0  0  0  0  0
   -7.6029   -0.2657  -25.4367 C   0  0  0  0  0  0  0  0  0  0  0  0
   -7.6574    0.7238  -26.1805 O   0  0  0  0  0  0  0  0  0  0  0  0
   -9.9938    0.1228  -26.3286 H   0  0  0  0  0  0  0  0  0  0  0  0
  -12.1629   -0.5074  -25.3475 H   0  0  0  0  0  0  0  0  0  0  0  0
  -10.1143   -2.7355  -22.3104 H   0  0  0  0  0  0  0  0  0  0  0  0
   -5.4008   -2.0381  -23.7445 H   0  0  0  0  0  0  0  0  0  0  0  0
   -6.4465   -2.9219  -24.8642 H   0  0  0  0  0  0  0  0  0  0  0  0
   -5.1482    0.7649  -25.4781 H   0  0  0  0  0  0  0  0  0  0  0  0
   -4.3463   -0.7727  -25.0957 H   0  0  0  0  0  0  0  0  0  0  0  0
   -6.3420    0.7900  -27.5340 H   0  0  0  0  0  0  0  0  0  0  0  0
   -5.9473    0.9650  -29.8495 H   0  0  0  0  0  0  0  0  0  0  0  0
   -4.5662   -0.1563  -29.7060 H   0  0  0  0  0  0  0  0  0  0  0  0
   -6.2290   -0.7910  -29.6749 H   0  0  0  0  0  0  0  0  0  0  0  0
  1  2  1  0
  2  3  1  0
  3  4  2  0
  3  5  1  0
  5  6  1  0
  6  7  1  0
  8  7  1  6
  8  9  1  0
  9 10  2  0
  9 11  1  0
 11 12  1  0
 12 13  2  0
 13 14  1  0
 14 15  2  0
 15 16  1  0
 16 17  2  0
 17 18  1  0
 18 19  2  0
 19 20  1  0
 20 21  2  0
 20 22  1  0
 19 23  1  0
 18 24  1  0
 17 25  1  0
 15 26  1  0
 13 27  1  0
 11 28  1  0
 28 29  1  0
 29 30  1  0
 30 31  1  0
 31 32  1  0
 32 33  2  0
 33 34  1  0
 34 35  2  0
 35 36  1  0
 36 37  2  0
 36 38  1  0
 34 39  1  0
 33 40  1  0
 31 41  1  0
 30 42  1  0
 30 43  1  0
 29 44  1  1
 28 45  1  0
 28 46  1  0
  8 47  1  0
 47 48  2  0
 48 49  1  0
 49 50  1  0
 49 51  2  0
 51 52  1  0
 52 53  2  0
 53 54  1  0
 54 55  2  0
 52 56  1  0
 51 57  1  0
 48 58  1  0
  7 59  1  0
  7 60  1  0
  5 61  1  0
  5 62  1  0
  2 63  1  0
  1 64  1  0
  1 65  1  0
  1 66  1  0
 54  6  1  0
 29  8  1  0
 37 32  1  0
 53 47  1  0
 21 12  1  0
 21 16  1  0
M  END
>  <cnnaffinities>  (31) 
[6.597]

>  <score>  (31) 
6.597

>  <index>  (31) 
31

>  <Smiles>  (31) 
C(N(C(=O)C(N1C([C@@]2(C(=O)N(c3c(nc(c4c(c(c(c(c34)[H])[H])[H])[H])[H])[H])C([C@@]2(C(N(c2c(c(nc(n2)[H])[H])[H])[H])([H])[H])[H])([H])[H])c2c(c(Cl)c(c(c2C1=O)[H])[H])[H])([H])[H])([H])[H])[H])([H])([H])[H]

>  <h>  (31) 
<NA>

>  <Training>  (31) 
True

>  <Success>  (31) 
True

>  <enamine_searched>  (31) 
False

>  <enamine_id>  (31) 
nan

$$$$

     RDKit          3D

 57 62  0  0  0  0  0  0  0  0999 V2000
  -10.2356   -2.9722  -22.0717 C   0  0  0  0  0  0  0  0  0  0  0  0
   -9.1650   -2.0179  -22.6353 C   0  0  1  0  0  0  0  0  0  0  0  0
   -8.6886   -1.0409  -21.5377 C   0  0  0  0  0  0  0  0  0  0  0  0
   -7.3411   -1.4628  -21.2137 N   0  0  0  0  0  0  0  0  0  0  0  0
   -6.5651   -0.8628  -20.1903 C   0  0  0  0  0  0  0  0  0  0  0  0
   -6.8965   -1.0620  -18.8742 C   0  0  0  0  0  0  0  0  0  0  0  0
   -6.2121   -0.5519  -17.8238 N   0  0  0  0  0  0  0  0  0  0  0  0
   -5.1756    0.2073  -18.0887 C   0  0  0  0  0  0  0  0  0  0  0  0
   -4.7346    0.5214  -19.4064 C   0  0  0  0  0  0  0  0  0  0  0  0
   -3.6109    1.3616  -19.6357 C   0  0  0  0  0  0  0  0  0  0  0  0
   -3.2255    1.6648  -20.9121 C   0  0  0  0  0  0  0  0  0  0  0  0
   -3.9518    1.1536  -22.0124 C   0  0  0  0  0  0  0  0  0  0  0  0
   -5.0412    0.3414  -21.8190 C   0  0  0  0  0  0  0  0  0  0  0  0
   -5.4504   -0.0149  -20.4996 C   0  0  0  0  0  0  0  0  0  0  0  0
   -5.5939   -0.0413  -22.6768 H   0  0  0  0  0  0  0  0  0  0  0  0
   -3.6380    1.4041  -23.0214 H   0  0  0  0  0  0  0  0  0  0  0  0
   -2.3682    2.3087  -21.0896 H   0  0  0  0  0  0  0  0  0  0  0  0
   -3.0801    1.7601  -18.7748 H   0  0  0  0  0  0  0  0  0  0  0  0
   -4.6307    0.6111  -17.2361 H   0  0  0  0  0  0  0  0  0  0  0  0
   -7.7548   -1.6803  -18.6154 H   0  0  0  0  0  0  0  0  0  0  0  0
   -6.8180   -2.4049  -22.0670 C   0  0  0  0  0  0  0  0  0  0  0  0
   -5.7117   -2.8955  -21.9556 O   0  0  0  0  0  0  0  0  0  0  0  0
   -7.8585   -2.6885  -23.1761 C   0  0  1  0  0  0  0  0  0  0  0  0
   -7.9946   -4.2104  -23.3936 C   0  0  0  0  0  0  0  0  0  0  0  0
   -6.7937   -4.7775  -23.9800 N   0  0  0  0  0  0  0  0  0  0  0  0
   -6.2117   -5.9505  -23.3330 C   0  0  0  0  0  0  0  0  0  0  0  0
   -7.1782   -7.0862  -23.3340 C   0  0  0  0  0  0  0  0  0  0  0  0
   -7.8350   -7.6284  -22.3331 N   0  0  0  0  0  0  0  0  0  0  0  0
   -8.7791   -8.4088  -22.9019 N   0  0  0  0  0  0  0  0  0  0  0  0
   -8.7054   -8.3718  -24.1800 N   0  0  0  0  0  0  0  0  0  0  0  0
   -7.6793   -7.5621  -24.4824 N   0  0  0  0  0  0  0  0  0  0  0  0
   -7.1848   -7.4178  -25.8338 C   0  0  0  0  0  0  0  0  0  0  0  0
   -7.4513   -6.4383  -26.2384 H   0  0  0  0  0  0  0  0  0  0  0  0
   -6.0965   -7.5320  -25.8581 H   0  0  0  0  0  0  0  0  0  0  0  0
   -7.6652   -8.2148  -26.3917 H   0  0  0  0  0  0  0  0  0  0  0  0
   -5.9514   -5.7128  -22.2945 H   0  0  0  0  0  0  0  0  0  0  0  0
   -5.3244   -6.1982  -23.9188 H   0  0  0  0  0  0  0  0  0  0  0  0
   -6.2195   -4.2337  -25.0909 C   0  0  0  0  0  0  0  0  0  0  0  0
   -5.4120   -4.8361  -25.7917 O   0  0  0  0  0  0  0  0  0  0  0  0
   -6.6135   -2.8202  -25.3933 C   0  0  0  0  0  0  0  0  0  0  0  0
   -6.1307   -2.2519  -26.5714 C   0  0  0  0  0  0  0  0  0  0  0  0
   -6.3620   -0.9190  -26.8457 C   0  0  0  0  0  0  0  0  0  0  0  0
   -7.0679   -0.1683  -25.9150 C   0  0  0  0  0  0  0  0  0  0  0  0
   -7.2719    1.1358  -26.1708 F   0  0  0  0  0  0  0  0  0  0  0  0
   -7.5642   -0.7074  -24.7455 C   0  0  0  0  0  0  0  0  0  0  0  0
   -7.3653   -2.0690  -24.4809 C   0  0  0  0  0  0  0  0  0  0  0  0
   -8.0908   -0.0441  -24.0665 H   0  0  0  0  0  0  0  0  0  0  0  0
   -5.9939   -0.4394  -27.7430 H   0  0  0  0  0  0  0  0  0  0  0  0
   -5.5547   -2.8905  -27.2326 H   0  0  0  0  0  0  0  0  0  0  0  0
   -8.8667   -4.4019  -24.0403 H   0  0  0  0  0  0  0  0  0  0  0  0
   -8.1363   -4.7064  -22.4340 H   0  0  0  0  0  0  0  0  0  0  0  0
   -8.7069    0.0107  -21.8603 H   0  0  0  0  0  0  0  0  0  0  0  0
   -9.3338   -1.1235  -20.6670 H   0  0  0  0  0  0  0  0  0  0  0  0
   -9.6447   -1.4692  -23.4556 H   0  0  0  0  0  0  0  0  0  0  0  0
  -10.6187   -3.6517  -22.8384 H   0  0  0  0  0  0  0  0  0  0  0  0
  -11.0892   -2.3974  -21.6933 H   0  0  0  0  0  0  0  0  0  0  0  0
   -9.8500   -3.5781  -21.2429 H   0  0  0  0  0  0  0  0  0  0  0  0
  1  2  1  0
  2  3  1  0
  3  4  1  0
  4  5  1  0
  5  6  2  0
  6  7  1  0
  7  8  2  0
  8  9  1  0
  9 10  2  0
 10 11  1  0
 11 12  2  0
 12 13  1  0
 13 14  2  0
 13 15  1  0
 12 16  1  0
 11 17  1  0
 10 18  1  0
  8 19  1  0
  6 20  1  0
  4 21  1  0
 21 22  2  0
 21 23  1  0
 23 24  1  6
 24 25  1  0
 25 26  1  0
 26 27  1  0
 27 28  2  0
 28 29  1  0
 29 30  2  0
 30 31  1  0
 31 32  1  0
 32 33  1  0
 32 34  1  0
 32 35  1  0
 26 36  1  0
 26 37  1  0
 25 38  1  0
 38 39  2  0
 38 40  1  0
 40 41  2  0
 41 42  1  0
 42 43  2  0
 43 44  1  0
 43 45  1  0
 45 46  2  0
 45 47  1  0
 42 48  1  0
 41 49  1  0
 24 50  1  0
 24 51  1  0
  3 52  1  0
  3 53  1  0
  2 54  1  6
  1 55  1  0
  1 56  1  0
  1 57  1  0
 23  2  1  0
 31 27  1  0
 46 40  1  0
 14  5  1  0
 46 23  1  0
 14  9  1  0
M  END
>  <cnnaffinities>  (32) 
[6.52106]

>  <score>  (32) 
6.52106

>  <index>  (32) 
32

>  <Smiles>  (32) 
C([C@]1(C(N(c2c(nc(c3c(c(c(c(c23)[H])[H])[H])[H])[H])[H])C(=O)[C@]21C(N(C(c1nnnn1C([H])([H])[H])([H])[H])C(=O)c1c(c(c(F)c(c21)[H])[H])[H])([H])[H])([H])[H])[H])([H])([H])[H]

>  <h>  (32) 
<NA>

>  <Training>  (32) 
True

>  <Success>  (32) 
True

>  <enamine_searched>  (32) 
False

>  <enamine_id>  (32) 
nan

$$$$

     RDKit          3D

 66 70  0  0  0  0  0  0  0  0999 V2000
   -8.3867   -5.6495  -27.9185 C   0  0  0  0  0  0  0  0  0  0  0  0
   -8.6899   -4.2581  -27.6781 N   0  0  0  0  0  0  0  0  0  0  0  0
   -7.8272   -3.4979  -26.9463 C   0  0  0  0  0  0  0  0  0  0  0  0
   -6.7477   -3.9142  -26.5519 O   0  0  0  0  0  0  0  0  0  0  0  0
   -8.2789   -2.0599  -26.6807 C   0  0  0  0  0  0  0  0  0  0  0  0
   -8.7860   -1.9001  -25.3221 N   0  0  0  0  0  0  0  0  0  0  0  0
   -7.9301   -1.3413  -24.2797 C   0  0  0  0  0  0  0  0  0  0  0  0
   -8.4738   -1.7710  -22.8854 C   0  0  2  0  0  0  0  0  0  0  0  0
   -7.8910   -0.8414  -21.7980 C   0  0  0  0  0  0  0  0  0  0  0  0
   -8.1189    0.3332  -21.6074 O   0  0  0  0  0  0  0  0  0  0  0  0
   -6.9859   -1.5702  -21.0556 N   0  0  0  0  0  0  0  0  0  0  0  0
   -6.2466   -0.9391  -20.0267 C   0  0  0  0  0  0  0  0  0  0  0  0
   -6.5937   -1.1616  -18.7208 C   0  0  0  0  0  0  0  0  0  0  0  0
   -5.9973   -0.5642  -17.6611 N   0  0  0  0  0  0  0  0  0  0  0  0
   -5.0249    0.2808  -17.9113 C   0  0  0  0  0  0  0  0  0  0  0  0
   -4.5430    0.5718  -19.2199 C   0  0  0  0  0  0  0  0  0  0  0  0
   -3.4589    1.4635  -19.4345 C   0  0  0  0  0  0  0  0  0  0  0  0
   -3.0157    1.7255  -20.7019 C   0  0  0  0  0  0  0  0  0  0  0  0
   -3.6245    1.0975  -21.8102 C   0  0  0  0  0  0  0  0  0  0  0  0
   -4.6672    0.2236  -21.6286 C   0  0  0  0  0  0  0  0  0  0  0  0
   -5.1621   -0.0551  -20.3226 C   0  0  0  0  0  0  0  0  0  0  0  0
   -5.1262   -0.2601  -22.4850 H   0  0  0  0  0  0  0  0  0  0  0  0
   -3.2699    1.3141  -22.8129 H   0  0  0  0  0  0  0  0  0  0  0  0
   -2.1967    2.4196  -20.8669 H   0  0  0  0  0  0  0  0  0  0  0  0
   -3.0009    1.9332  -18.5690 H   0  0  0  0  0  0  0  0  0  0  0  0
   -4.5565    0.7851  -17.0622 H   0  0  0  0  0  0  0  0  0  0  0  0
   -7.4068   -1.8458  -18.4790 H   0  0  0  0  0  0  0  0  0  0  0  0
   -6.6962   -2.8838  -21.5862 C   0  0  0  0  0  0  0  0  0  0  0  0
   -7.9318   -3.1823  -22.4411 C   0  0  2  0  0  0  0  0  0  0  0  0
   -7.6956   -4.2381  -23.5110 C   0  0  0  0  0  0  0  0  0  0  0  0
   -7.6686   -5.4798  -22.8440 O   0  0  0  0  0  0  0  0  0  0  0  0
   -7.4950   -6.5907  -23.7009 C   0  0  0  0  0  0  0  0  0  0  0  0
   -6.8309   -7.6449  -22.8291 C   0  0  0  0  0  0  0  0  0  0  0  0
   -5.9786   -7.1986  -22.3096 H   0  0  0  0  0  0  0  0  0  0  0  0
   -6.4704   -8.5022  -23.3977 H   0  0  0  0  0  0  0  0  0  0  0  0
   -7.5458   -7.9929  -22.0770 H   0  0  0  0  0  0  0  0  0  0  0  0
   -8.8316   -7.0535  -24.2877 C   0  0  0  0  0  0  0  0  0  0  0  0
   -8.6780   -7.7934  -25.0808 H   0  0  0  0  0  0  0  0  0  0  0  0
   -9.4002   -6.2132  -24.7073 H   0  0  0  0  0  0  0  0  0  0  0  0
   -9.4507   -7.5157  -23.5133 H   0  0  0  0  0  0  0  0  0  0  0  0
   -6.8264   -6.3006  -24.5300 H   0  0  0  0  0  0  0  0  0  0  0  0
   -8.4972   -4.2137  -24.2615 H   0  0  0  0  0  0  0  0  0  0  0  0
   -6.7508   -4.0722  -24.0523 H   0  0  0  0  0  0  0  0  0  0  0  0
   -8.6628   -3.6334  -21.7681 H   0  0  0  0  0  0  0  0  0  0  0  0
   -5.7768   -2.8806  -22.1930 H   0  0  0  0  0  0  0  0  0  0  0  0
   -6.5689   -3.6053  -20.7775 H   0  0  0  0  0  0  0  0  0  0  0  0
   -9.9723   -1.7442  -22.8297 C   0  0  0  0  0  0  0  0  0  0  0  0
  -10.6441   -2.3243  -21.7986 C   0  0  0  0  0  0  0  0  0  0  0  0
  -12.0787   -2.5819  -21.9286 C   0  0  0  0  0  0  0  0  0  0  0  0
  -13.0030   -3.2948  -20.6335 Cl  0  0  0  0  0  0  0  0  0  0  0  0
  -12.6297   -2.1411  -23.0612 C   0  0  0  0  0  0  0  0  0  0  0  0
  -11.4866   -1.2304  -24.0476 C   0  0  0  0  0  0  0  0  0  0  0  0
  -11.4964   -1.0116  -24.0633 C   0  0  0  0  0  0  0  0  0  0  0  0
  -10.1468   -2.2825  -25.1156 C   0  0  0  0  0  0  0  0  0  0  0  0
  -10.5180   -3.3033  -25.6690 O   0  0  0  0  0  0  0  0  0  0  0  0
  -11.7908   -0.6014  -25.1327 H   0  0  0  0  0  0  0  0  0  0  0  0
  -13.6307   -2.4252  -23.4519 H   0  0  0  0  0  0  0  0  0  0  0  0
  -10.1303   -2.5623  -20.8646 H   0  0  0  0  0  0  0  0  0  0  0  0
   -6.8962   -1.7080  -24.4336 H   0  0  0  0  0  0  0  0  0  0  0  0
   -7.8744   -0.2414  -24.3309 H   0  0  0  0  0  0  0  0  0  0  0  0
   -9.0540   -1.7610  -27.3958 H   0  0  0  0  0  0  0  0  0  0  0  0
   -7.4144   -1.3992  -26.8274 H   0  0  0  0  0  0  0  0  0  0  0  0
   -9.6669   -4.0128  -27.6590 H   0  0  0  0  0  0  0  0  0  0  0  0
   -8.5215   -6.2683  -27.0172 H   0  0  0  0  0  0  0  0  0  0  0  0
   -9.0367   -6.0277  -28.7151 H   0  0  0  0  0  0  0  0  0  0  0  0
   -7.3430   -5.7248  -28.2317 H   0  0  0  0  0  0  0  0  0  0  0  0
  1  2  1  0
  2  3  1  0
  3  4  2  0
  3  5  1  0
  5  6  1  0
  6  7  1  0
  8  7  1  6
  8  9  1  0
  9 10  2  0
  9 11  1  0
 11 12  1  0
 12 13  2  0
 13 14  1  0
 14 15  2  0
 15 16  1  0
 16 17  2  0
 17 18  1  0
 18 19  2  0
 19 20  1  0
 20 21  2  0
 20 22  1  0
 19 23  1  0
 18 24  1  0
 17 25  1  0
 15 26  1  0
 13 27  1  0
 11 28  1  0
 28 29  1  0
 29 30  1  0
 30 31  1  0
 31 32  1  0
 32 33  1  0
 33 34  1  0
 33 35  1  0
 33 36  1  0
 32 37  1  0
 37 38  1  0
 37 39  1  0
 37 40  1  0
 32 41  1  0
 30 42  1  0
 30 43  1  0
 29 44  1  1
 28 45  1  0
 28 46  1  0
  8 47  1  0
 47 48  2  0
 48 49  1  0
 49 50  1  0
 49 51  2  0
 51 52  1  0
 52 53  2  0
 53 54  1  0
 54 55  2  0
 52 56  1  0
 51 57  1  0
 48 58  1  0
  7 59  1  0
  7 60  1  0
  5 61  1  0
  5 62  1  0
  2 63  1  0
  1 64  1  0
  1 65  1  0
  1 66  1  0
 54  6  1  0
 29  8  1  0
 53 47  1  0
 21 12  1  0
 21 16  1  0
M  END
>  <cnnaffinities>  (33) 
[7.00677]

>  <score>  (33) 
7.00677

>  <index>  (33) 
34

>  <Smiles>  (33) 
C(N(C(=O)C(N1C([C@@]2(C(=O)N(c3c(nc(c4c(c(c(c(c34)[H])[H])[H])[H])[H])[H])C([C@@]2(C(OC(C([H])([H])[H])(C([H])([H])[H])[H])([H])[H])[H])([H])[H])c2c(c(Cl)c(c(c2C1=O)[H])[H])[H])([H])[H])([H])[H])[H])([H])([H])[H]

>  <h>  (33) 
<NA>

>  <Training>  (33) 
True

>  <Success>  (33) 
True

>  <enamine_searched>  (33) 
False

>  <enamine_id>  (33) 
nan

$$$$

     RDKit          3D

 40 42  0  0  0  0  0  0  0  0999 V2000
   -5.5897   -2.9558  -21.6862 O   0  0  0  0  0  0  0  0  0  0  0  0
   -6.7948   -2.7931  -21.7769 C   0  0  0  0  0  0  0  0  0  0  0  0
   -7.4248   -1.4780  -21.2536 C   0  0  0  0  0  0  0  0  0  0  0  0
   -6.5816   -0.8228  -20.1792 C   0  0  0  0  0  0  0  0  0  0  0  0
   -6.8734   -1.0419  -18.8564 C   0  0  0  0  0  0  0  0  0  0  0  0
   -6.1854   -0.5469  -17.7962 N   0  0  0  0  0  0  0  0  0  0  0  0
   -5.1558    0.2244  -18.0614 C   0  0  0  0  0  0  0  0  0  0  0  0
   -4.7198    0.5352  -19.3801 C   0  0  0  0  0  0  0  0  0  0  0  0
   -3.5898    1.3632  -19.6176 C   0  0  0  0  0  0  0  0  0  0  0  0
   -3.1894    1.6355  -20.9003 C   0  0  0  0  0  0  0  0  0  0  0  0
   -3.8981    1.0914  -21.9910 C   0  0  0  0  0  0  0  0  0  0  0  0
   -4.9969    0.2908  -21.7861 C   0  0  0  0  0  0  0  0  0  0  0  0
   -5.4429   -0.0071  -20.4698 C   0  0  0  0  0  0  0  0  0  0  0  0
   -5.5150   -0.1335  -22.6383 H   0  0  0  0  0  0  0  0  0  0  0  0
   -3.5683    1.3094  -23.0032 H   0  0  0  0  0  0  0  0  0  0  0  0
   -2.3270    2.2699  -21.0861 H   0  0  0  0  0  0  0  0  0  0  0  0
   -3.0491    1.7774  -18.7705 H   0  0  0  0  0  0  0  0  0  0  0  0
   -4.5973    0.6302  -17.2165 H   0  0  0  0  0  0  0  0  0  0  0  0
   -7.7212   -1.6719  -18.5895 H   0  0  0  0  0  0  0  0  0  0  0  0
   -8.4251   -1.6810  -20.8440 H   0  0  0  0  0  0  0  0  0  0  0  0
   -7.5658   -0.7848  -22.0937 H   0  0  0  0  0  0  0  0  0  0  0  0
   -7.6209   -3.7681  -22.3126 N   0  0  0  0  0  0  0  0  0  0  0  0
   -8.9726   -3.5171  -22.8053 C   0  0  0  0  0  0  0  0  0  0  0  0
   -9.2855   -4.3297  -24.0629 C   0  0  0  0  0  0  0  0  0  0  0  0
   -9.0003   -5.8120  -23.8410 C   0  0  0  0  0  0  0  0  0  0  0  0
   -9.3171   -6.6352  -25.0765 C   0  0  0  0  0  0  0  0  0  0  0  0
   -9.1018   -7.9518  -24.8895 F   0  0  0  0  0  0  0  0  0  0  0  0
  -10.5967   -6.5017  -25.4736 F   0  0  0  0  0  0  0  0  0  0  0  0
   -8.5536   -6.2700  -26.1249 F   0  0  0  0  0  0  0  0  0  0  0  0
   -7.5538   -6.0058  -23.3943 C   0  0  0  0  0  0  0  0  0  0  0  0
   -7.2633   -5.1827  -22.1454 C   0  0  0  0  0  0  0  0  0  0  0  0
   -6.2045   -5.2573  -21.8932 H   0  0  0  0  0  0  0  0  0  0  0  0
   -7.8196   -5.6180  -21.3021 H   0  0  0  0  0  0  0  0  0  0  0  0
   -7.3543   -7.0664  -23.1957 H   0  0  0  0  0  0  0  0  0  0  0  0
   -6.8748   -5.7020  -24.1964 H   0  0  0  0  0  0  0  0  0  0  0  0
   -9.6718   -6.1921  -23.0672 H   0  0  0  0  0  0  0  0  0  0  0  0
   -8.6811   -3.9606  -24.8977 H   0  0  0  0  0  0  0  0  0  0  0  0
  -10.3347   -4.1815  -24.3457 H   0  0  0  0  0  0  0  0  0  0  0  0
   -9.0844   -2.4570  -23.0480 H   0  0  0  0  0  0  0  0  0  0  0  0
   -9.7223   -3.7510  -22.0343 H   0  0  0  0  0  0  0  0  0  0  0  0
  1  2  2  0
  2  3  1  0
  3  4  1  0
  4  5  2  0
  5  6  1  0
  6  7  2  0
  7  8  1  0
  8  9  2  0
  9 10  1  0
 10 11  2  0
 11 12  1  0
 12 13  2  0
 12 14  1  0
 11 15  1  0
 10 16  1  0
  9 17  1  0
  7 18  1  0
  5 19  1  0
  3 20  1  0
  3 21  1  0
  2 22  1  0
 22 23  1  0
 23 24  1  0
 24 25  1  0
 25 26  1  0
 26 27  1  0
 26 28  1  0
 26 29  1  0
 25 30  1  0
 30 31  1  0
 31 32  1  0
 31 33  1  0
 30 34  1  0
 30 35  1  0
 25 36  1  0
 24 37  1  0
 24 38  1  0
 23 39  1  0
 23 40  1  0
 13  4  1  0
 31 22  1  0
 13  8  1  0
M  END
>  <cnnaffinities>  (34) 
[5.41149, 5.41151, 5.41142, 5.41136]

>  <score>  (34) 
5.41149

>  <index>  (34) 
35

>  <Smiles>  (34) 
O=C(C(c1c(nc(c2c(c(c(c(c12)[H])[H])[H])[H])[H])[H])([H])[H])N1C(C(C(C(F)(F)F)(C(C1([H])[H])([H])[H])[H])([H])[H])([H])[H]

>  <h>  (34) 
<NA>

>  <Training>  (34) 
True

>  <Success>  (34) 
True

>  <enamine_searched>  (34) 
False

>  <enamine_id>  (34) 
nan

$$$$

     RDKit          3D

 47 50  0  0  0  0  0  0  0  0999 V2000
   -6.2363   -3.5706  -21.1793 O   0  0  0  0  0  0  0  0  0  0  0  0
   -6.6116   -2.6642  -21.8979 C   0  0  0  0  0  0  0  0  0  0  0  0
   -7.3834   -1.4743  -21.2882 C   0  0  0  0  0  0  0  0  0  0  0  0
   -6.5785   -0.8209  -20.1817 C   0  0  0  0  0  0  0  0  0  0  0  0
   -6.8724   -1.0472  -18.8624 C   0  0  0  0  0  0  0  0  0  0  0  0
   -6.1833   -0.5502  -17.7991 N   0  0  0  0  0  0  0  0  0  0  0  0
   -5.1574    0.2220  -18.0640 C   0  0  0  0  0  0  0  0  0  0  0  0
   -4.7225    0.5361  -19.3792 C   0  0  0  0  0  0  0  0  0  0  0  0
   -3.5905    1.3559  -19.6210 C   0  0  0  0  0  0  0  0  0  0  0  0
   -3.1885    1.6318  -20.8999 C   0  0  0  0  0  0  0  0  0  0  0  0
   -3.9047    1.0958  -21.9933 C   0  0  0  0  0  0  0  0  0  0  0  0
   -5.0058    0.3020  -21.7859 C   0  0  0  0  0  0  0  0  0  0  0  0
   -5.4479   -0.0001  -20.4711 C   0  0  0  0  0  0  0  0  0  0  0  0
   -5.5430   -0.0983  -22.6399 H   0  0  0  0  0  0  0  0  0  0  0  0
   -3.5816    1.3185  -23.0054 H   0  0  0  0  0  0  0  0  0  0  0  0
   -2.3267    2.2668  -21.0862 H   0  0  0  0  0  0  0  0  0  0  0  0
   -3.0551    1.7681  -18.7693 H   0  0  0  0  0  0  0  0  0  0  0  0
   -4.6056    0.6276  -17.2135 H   0  0  0  0  0  0  0  0  0  0  0  0
   -7.7208   -1.6701  -18.5862 H   0  0  0  0  0  0  0  0  0  0  0  0
   -8.3077   -1.8741  -20.8563 H   0  0  0  0  0  0  0  0  0  0  0  0
   -7.6785   -0.7406  -22.0462 H   0  0  0  0  0  0  0  0  0  0  0  0
   -6.3027   -2.6343  -23.2504 N   0  0  0  0  0  0  0  0  0  0  0  0
   -5.1367   -3.3828  -23.7021 C   0  0  0  0  0  0  0  0  0  0  0  0
   -4.3437   -2.5695  -24.7236 C   0  0  0  0  0  0  0  0  0  0  0  0
   -5.2360   -1.9743  -25.8283 C   0  0  0  0  0  0  0  0  0  0  0  0
   -6.6916   -2.3975  -25.6729 C   0  0  0  0  0  0  0  0  0  0  0  0
   -7.2267   -2.1221  -24.2635 C   0  0  1  0  0  0  0  0  0  0  0  0
   -8.6387   -2.6729  -24.1106 C   0  0  0  0  0  0  0  0  0  0  0  0
   -8.8647   -4.0467  -24.0158 C   0  0  0  0  0  0  0  0  0  0  0  0
  -10.1545   -4.5519  -23.8900 C   0  0  0  0  0  0  0  0  0  0  0  0
  -11.2450   -3.6872  -23.8654 C   0  0  0  0  0  0  0  0  0  0  0  0
  -11.0288   -2.3174  -23.9759 C   0  0  0  0  0  0  0  0  0  0  0  0
   -9.7361   -1.8151  -24.1073 C   0  0  0  0  0  0  0  0  0  0  0  0
   -9.5931   -0.7403  -24.2028 H   0  0  0  0  0  0  0  0  0  0  0  0
  -11.8610   -1.6244  -23.9381 H   0  0  0  0  0  0  0  0  0  0  0  0
  -12.2520   -4.0823  -23.7596 H   0  0  0  0  0  0  0  0  0  0  0  0
  -10.3059   -5.6243  -23.8076 H   0  0  0  0  0  0  0  0  0  0  0  0
   -8.0249   -4.7358  -24.0401 H   0  0  0  0  0  0  0  0  0  0  0  0
   -7.2759   -1.0340  -24.1415 H   0  0  0  0  0  0  0  0  0  0  0  0
   -6.8244   -3.4551  -25.9234 H   0  0  0  0  0  0  0  0  0  0  0  0
   -7.3121   -1.8552  -26.3879 H   0  0  0  0  0  0  0  0  0  0  0  0
   -4.8751   -2.2661  -26.8199 H   0  0  0  0  0  0  0  0  0  0  0  0
   -5.1771   -0.8801  -25.8071 H   0  0  0  0  0  0  0  0  0  0  0  0
   -3.8183   -1.7645  -24.2011 H   0  0  0  0  0  0  0  0  0  0  0  0
   -3.5715   -3.2085  -25.1582 H   0  0  0  0  0  0  0  0  0  0  0  0
   -5.4126   -4.3633  -24.1172 H   0  0  0  0  0  0  0  0  0  0  0  0
   -4.5336   -3.5920  -22.8224 H   0  0  0  0  0  0  0  0  0  0  0  0
  1  2  2  0
  2  3  1  0
  3  4  1  0
  4  5  2  0
  5  6  1  0
  6  7  2  0
  7  8  1  0
  8  9  2  0
  9 10  1  0
 10 11  2  0
 11 12  1  0
 12 13  2  0
 12 14  1  0
 11 15  1  0
 10 16  1  0
  9 17  1  0
  7 18  1  0
  5 19  1  0
  3 20  1  0
  3 21  1  0
  2 22  1  0
 22 23  1  0
 23 24  1  0
 24 25  1  0
 25 26  1  0
 26 27  1  0
 27 28  1  0
 28 29  2  0
 29 30  1  0
 30 31  2  0
 31 32  1  0
 32 33  2  0
 33 34  1  0
 32 35  1  0
 31 36  1  0
 30 37  1  0
 29 38  1  0
 27 39  1  1
 26 40  1  0
 26 41  1  0
 25 42  1  0
 25 43  1  0
 24 44  1  0
 24 45  1  0
 23 46  1  0
 23 47  1  0
 13  4  1  0
 27 22  1  0
 33 28  1  0
 13  8  1  0
M  END
>  <cnnaffinities>  (35) 
[5.74746, 5.74714, 5.64501, 5.64573, 5.59124, 5.59238, 5.20883, 5.20948, 5.70932, 5.70973]

>  <score>  (35) 
5.74746

>  <index>  (35) 
36

>  <Smiles>  (35) 
O=C(C(c1c(nc(c2c(c(c(c(c12)[H])[H])[H])[H])[H])[H])([H])[H])N1C(C(C(C([C@]1(c1c(c(c(c(c1[H])[H])[H])[H])[H])[H])([H])[H])([H])[H])([H])[H])([H])[H]

>  <h>  (35) 
<NA>

>  <Training>  (35) 
True

>  <Success>  (35) 
True

>  <enamine_searched>  (35) 
False

>  <enamine_id>  (35) 
nan

$$$$

     RDKit          3D

 56 60  0  0  0  0  0  0  0  0999 V2000
   -6.9780    3.1608  -22.1051 C   0  0  0  0  0  0  0  0  0  0  0  0
   -7.4950    2.5224  -23.3013 N   0  0  0  0  0  0  0  0  0  0  0  0
   -6.6200    1.8861  -24.1181 C   0  0  0  0  0  0  0  0  0  0  0  0
   -5.4073    2.0298  -24.0626 O   0  0  0  0  0  0  0  0  0  0  0  0
   -7.2549    0.9052  -25.1082 C   0  0  0  0  0  0  0  0  0  0  0  0
   -7.9217   -0.2113  -24.4594 N   0  0  0  0  0  0  0  0  0  0  0  0
   -7.1140   -1.3657  -24.1106 C   0  0  0  0  0  0  0  0  0  0  0  0
   -7.6363   -2.1071  -22.8451 C   0  0  2  0  0  0  0  0  0  0  0  0
   -7.3760   -1.2182  -21.5913 C   0  0  0  0  0  0  0  0  0  0  0  0
   -7.9770   -0.2287  -21.2257 O   0  0  0  0  0  0  0  0  0  0  0  0
   -6.2674   -1.7305  -20.9460 N   0  0  0  0  0  0  0  0  0  0  0  0
   -5.6668   -1.0214  -19.8881 C   0  0  0  0  0  0  0  0  0  0  0  0
   -5.9665   -1.3678  -18.5990 C   0  0  0  0  0  0  0  0  0  0  0  0
   -5.4879   -0.7219  -17.5111 N   0  0  0  0  0  0  0  0  0  0  0  0
   -4.6709    0.2815  -17.7337 C   0  0  0  0  0  0  0  0  0  0  0  0
   -4.2175    0.6845  -19.0272 C   0  0  0  0  0  0  0  0  0  0  0  0
   -3.2490    1.7030  -19.2163 C   0  0  0  0  0  0  0  0  0  0  0  0
   -2.8514    2.0697  -20.4733 C   0  0  0  0  0  0  0  0  0  0  0  0
   -3.4041    1.4363  -21.6081 C   0  0  0  0  0  0  0  0  0  0  0  0
   -4.3293    0.4356  -21.4587 C   0  0  0  0  0  0  0  0  0  0  0  0
   -4.7500    0.0321  -20.1570 C   0  0  0  0  0  0  0  0  0  0  0  0
   -4.7297   -0.0528  -22.3441 H   0  0  0  0  0  0  0  0  0  0  0  0
   -3.1171    1.7447  -22.6067 H   0  0  0  0  0  0  0  0  0  0  0  0
   -2.1085    2.8499  -20.6069 H   0  0  0  0  0  0  0  0  0  0  0  0
   -2.8265    2.1654  -18.3325 H   0  0  0  0  0  0  0  0  0  0  0  0
   -4.3123    0.8229  -16.8609 H   0  0  0  0  0  0  0  0  0  0  0  0
   -6.6321   -2.2107  -18.4200 H   0  0  0  0  0  0  0  0  0  0  0  0
   -5.5690   -2.7370  -21.7150 C   0  0  0  0  0  0  0  0  0  0  0  0
   -6.7323   -3.3366  -22.5114 C   0  0  2  0  0  0  0  0  0  0  0  0
   -6.2780   -4.1931  -23.6822 C   0  0  0  0  0  0  0  0  0  0  0  0
   -5.5353   -3.6515  -24.2803 H   0  0  0  0  0  0  0  0  0  0  0  0
   -5.8092   -5.1166  -23.3283 H   0  0  0  0  0  0  0  0  0  0  0  0
   -7.1142   -4.4525  -24.3402 H   0  0  0  0  0  0  0  0  0  0  0  0
   -7.2748   -3.9481  -21.7784 H   0  0  0  0  0  0  0  0  0  0  0  0
   -4.7996   -2.3018  -22.3822 H   0  0  0  0  0  0  0  0  0  0  0  0
   -5.0748   -3.4624  -21.0605 H   0  0  0  0  0  0  0  0  0  0  0  0
   -9.1214   -2.3659  -23.0612 C   0  0  0  0  0  0  0  0  0  0  0  0
   -9.7985   -3.4882  -22.5764 C   0  0  0  0  0  0  0  0  0  0  0  0
  -11.1718   -3.6175  -22.7249 C   0  0  0  0  0  0  0  0  0  0  0  0
  -11.9217   -2.6201  -23.3493 C   0  0  0  0  0  0  0  0  0  0  0  0
  -11.2758   -1.4978  -23.8358 C   0  0  0  0  0  0  0  0  0  0  0  0
   -9.8960   -1.3688  -23.6766 C   0  0  0  0  0  0  0  0  0  0  0  0
   -9.2393   -0.1120  -24.1560 C   0  0  0  0  0  0  0  0  0  0  0  0
   -9.8436    0.9577  -24.2579 O   0  0  0  0  0  0  0  0  0  0  0  0
  -11.8230   -0.6659  -24.2765 H   0  0  0  0  0  0  0  0  0  0  0  0
  -13.0013   -2.7275  -23.4233 H   0  0  0  0  0  0  0  0  0  0  0  0
  -11.6736   -4.4850  -22.3151 H   0  0  0  0  0  0  0  0  0  0  0  0
   -9.2476   -4.2638  -22.0580 H   0  0  0  0  0  0  0  0  0  0  0  0
   -7.1015   -2.0709  -24.9487 H   0  0  0  0  0  0  0  0  0  0  0  0
   -6.0945   -0.9996  -23.9494 H   0  0  0  0  0  0  0  0  0  0  0  0
   -6.4597    0.5162  -25.7449 H   0  0  0  0  0  0  0  0  0  0  0  0
   -7.9894    1.4152  -25.7333 H   0  0  0  0  0  0  0  0  0  0  0  0
   -8.4887    2.3301  -23.4074 H   0  0  0  0  0  0  0  0  0  0  0  0
   -6.6466    2.4016  -21.3795 H   0  0  0  0  0  0  0  0  0  0  0  0
   -6.1148    3.7776  -22.3760 H   0  0  0  0  0  0  0  0  0  0  0  0
   -7.7514    3.7917  -21.6611 H   0  0  0  0  0  0  0  0  0  0  0  0
  1  2  1  0
  2  3  1  0
  3  4  2  0
  3  5  1  0
  5  6  1  0
  6  7  1  0
  8  7  1  6
  8  9  1  0
  9 10  2  0
  9 11  1  0
 11 12  1  0
 12 13  2  0
 13 14  1  0
 14 15  2  0
 15 16  1  0
 16 17  2  0
 17 18  1  0
 18 19  2  0
 19 20  1  0
 20 21  2  0
 20 22  1  0
 19 23  1  0
 18 24  1  0
 17 25  1  0
 15 26  1  0
 13 27  1  0
 11 28  1  0
 28 29  1  0
 29 30  1  0
 30 31  1  0
 30 32  1  0
 30 33  1  0
 29 34  1  1
 28 35  1  0
 28 36  1  0
  8 37  1  0
 37 38  2  0
 38 39  1  0
 39 40  2  0
 40 41  1  0
 41 42  2  0
 42 43  1  0
 43 44  2  0
 41 45  1  0
 40 46  1  0
 39 47  1  0
 38 48  1  0
  7 49  1  0
  7 50  1  0
  5 51  1  0
  5 52  1  0
  2 53  1  0
  1 54  1  0
  1 55  1  0
  1 56  1  0
 43  6  1  0
 29  8  1  0
 42 37  1  0
 21 12  1  0
 21 16  1  0
M  END
>  <cnnaffinities>  (36) 
[6.08411]

>  <score>  (36) 
6.08411

>  <index>  (36) 
37

>  <Smiles>  (36) 
C(N(C(=O)C(N1C([C@@]2(C(=O)N(c3c(nc(c4c(c(c(c(c34)[H])[H])[H])[H])[H])[H])C([C@@]2(C([H])([H])[H])[H])([H])[H])c2c(c(c(c(c2C1=O)[H])[H])[H])[H])([H])[H])([H])[H])[H])([H])([H])[H]

>  <h>  (36) 
<NA>

>  <Training>  (36) 
True

>  <Success>  (36) 
True

>  <enamine_searched>  (36) 
False

>  <enamine_id>  (36) 
nan

$$$$

     RDKit          3D

 46 48  0  0  0  0  0  0  0  0999 V2000
   -8.1581   -4.6948  -26.5426 C   0  0  0  0  0  0  0  0  0  0  0  0
   -8.6536   -4.9599  -25.1188 C   0  0  1  0  0  0  0  0  0  0  0  0
   -7.5894   -5.5250  -24.1816 C   0  0  0  0  0  0  0  0  0  0  0  0
   -6.6146   -4.5187  -23.5535 C   0  0  1  0  0  0  0  0  0  0  0  0
   -5.4118   -4.1595  -24.4400 C   0  0  0  0  0  0  0  0  0  0  0  0
   -4.6074   -3.7379  -23.8292 H   0  0  0  0  0  0  0  0  0  0  0  0
   -5.6632   -3.4317  -25.2146 H   0  0  0  0  0  0  0  0  0  0  0  0
   -5.0163   -5.0546  -24.9376 H   0  0  0  0  0  0  0  0  0  0  0  0
   -7.3243   -3.3379  -23.0138 N   0  0  0  0  0  0  0  0  0  0  0  0
   -6.7235   -2.7035  -21.9374 C   0  0  0  0  0  0  0  0  0  0  0  0
   -5.6784   -3.1201  -21.4632 O   0  0  0  0  0  0  0  0  0  0  0  0
   -7.4076   -1.4701  -21.2823 C   0  0  0  0  0  0  0  0  0  0  0  0
   -6.5781   -0.8339  -20.1873 C   0  0  0  0  0  0  0  0  0  0  0  0
   -6.8729   -1.0487  -18.8672 C   0  0  0  0  0  0  0  0  0  0  0  0
   -6.1859   -0.5509  -17.8029 N   0  0  0  0  0  0  0  0  0  0  0  0
   -5.1591    0.2204  -18.0657 C   0  0  0  0  0  0  0  0  0  0  0  0
   -4.7221    0.5309  -19.3807 C   0  0  0  0  0  0  0  0  0  0  0  0
   -3.5937    1.3577  -19.6223 C   0  0  0  0  0  0  0  0  0  0  0  0
   -3.1921    1.6335  -20.9013 C   0  0  0  0  0  0  0  0  0  0  0  0
   -3.9038    1.0910  -21.9939 C   0  0  0  0  0  0  0  0  0  0  0  0
   -4.9999    0.2895  -21.7868 C   0  0  0  0  0  0  0  0  0  0  0  0
   -5.4448   -0.0134  -20.4739 C   0  0  0  0  0  0  0  0  0  0  0  0
   -5.5341   -0.1224  -22.6377 H   0  0  0  0  0  0  0  0  0  0  0  0
   -3.5779    1.3146  -23.0054 H   0  0  0  0  0  0  0  0  0  0  0  0
   -2.3311    2.2712  -21.0885 H   0  0  0  0  0  0  0  0  0  0  0  0
   -3.0575    1.7728  -18.7713 H   0  0  0  0  0  0  0  0  0  0  0  0
   -4.6055    0.6274  -17.2155 H   0  0  0  0  0  0  0  0  0  0  0  0
   -7.7217   -1.6710  -18.5888 H   0  0  0  0  0  0  0  0  0  0  0  0
   -7.6722   -0.7132  -22.0325 H   0  0  0  0  0  0  0  0  0  0  0  0
   -8.3594   -1.8075  -20.8482 H   0  0  0  0  0  0  0  0  0  0  0  0
   -8.4100   -2.7191  -23.7935 C   0  0  1  0  0  0  0  0  0  0  0  0
   -7.9393   -1.6591  -24.8006 C   0  0  0  0  0  0  0  0  0  0  0  0
   -7.4433   -2.0880  -25.6754 H   0  0  0  0  0  0  0  0  0  0  0  0
   -8.7986   -1.0844  -25.1697 H   0  0  0  0  0  0  0  0  0  0  0  0
   -7.2437   -0.9495  -24.3425 H   0  0  0  0  0  0  0  0  0  0  0  0
   -9.3294   -3.7772  -24.4248 C   0  0  0  0  0  0  0  0  0  0  0  0
   -9.9789   -4.1697  -23.6353 H   0  0  0  0  0  0  0  0  0  0  0  0
   -9.9956   -3.2772  -25.1355 H   0  0  0  0  0  0  0  0  0  0  0  0
   -9.0330   -2.1943  -23.0633 H   0  0  0  0  0  0  0  0  0  0  0  0
   -6.1942   -5.0184  -22.6795 H   0  0  0  0  0  0  0  0  0  0  0  0
   -8.0926   -6.0554  -23.3657 H   0  0  0  0  0  0  0  0  0  0  0  0
   -7.0111   -6.2881  -24.7143 H   0  0  0  0  0  0  0  0  0  0  0  0
   -9.4272   -5.7358  -25.2235 H   0  0  0  0  0  0  0  0  0  0  0  0
   -7.9238   -5.6406  -27.0466 H   0  0  0  0  0  0  0  0  0  0  0  0
   -8.9305   -4.1941  -27.1378 H   0  0  0  0  0  0  0  0  0  0  0  0
   -7.2549   -4.0806  -26.5813 H   0  0  0  0  0  0  0  0  0  0  0  0
  1  2  1  0
  2  3  1  0
  3  4  1  0
  4  5  1  0
  5  6  1  0
  5  7  1  0
  5  8  1  0
  4  9  1  0
  9 10  1  0
 10 11  2  0
 10 12  1  0
 12 13  1  0
 13 14  2  0
 14 15  1  0
 15 16  2  0
 16 17  1  0
 17 18  2  0
 18 19  1  0
 19 20  2  0
 20 21  1  0
 21 22  2  0
 21 23  1  0
 20 24  1  0
 19 25  1  0
 18 26  1  0
 16 27  1  0
 14 28  1  0
 12 29  1  0
 12 30  1  0
  9 31  1  0
 31 32  1  0
 32 33  1  0
 32 34  1  0
 32 35  1  0
 31 36  1  0
 36 37  1  0
 36 38  1  0
 31 39  1  1
  4 40  1  1
  3 41  1  0
  3 42  1  0
  2 43  1  6
  1 44  1  0
  1 45  1  0
  1 46  1  0
 36  2  1  0
 22 13  1  0
 22 17  1  0
M  END
>  <cnnaffinities>  (37) 
[5.40965]

>  <score>  (37) 
5.40965

>  <index>  (37) 
38

>  <Smiles>  (37) 
C([C@]1(C([C@@](C([H])([H])[H])(N(C(=O)C(c2c(nc(c3c(c(c(c(c23)[H])[H])[H])[H])[H])[H])([H])[H])[C@@](C([H])([H])[H])(C1([H])[H])[H])[H])([H])[H])[H])([H])([H])[H]

>  <h>  (37) 
<NA>

>  <Training>  (37) 
True

>  <Success>  (37) 
True

>  <enamine_searched>  (37) 
False

>  <enamine_id>  (37) 
nan

$$$$

     RDKit          3D

 40 44  0  0  0  0  0  0  0  0999 V2000
   -7.2401    0.9299  -25.5973 C   0  0  0  0  0  0  0  0  0  0  0  0
   -6.5133   -0.3934  -25.4059 C   0  0  0  0  0  0  0  0  0  0  0  0
   -5.3022   -0.5090  -25.5397 O   0  0  0  0  0  0  0  0  0  0  0  0
   -7.2748   -1.4748  -25.0817 N   0  0  0  0  0  0  0  0  0  0  0  0
   -6.6407   -2.7665  -24.7374 C   0  0  0  0  0  0  0  0  0  0  0  0
   -7.8122   -3.4867  -24.0466 C   0  0  2  0  0  0  0  0  0  0  0  0
   -9.0047   -2.9603  -24.8625 C   0  0  0  0  0  0  0  0  0  0  0  0
   -8.6633   -1.4872  -24.5548 C   0  0  1  0  0  0  0  0  0  0  0  0
   -8.5652   -1.5574  -23.0860 C   0  0  0  0  0  0  0  0  0  0  0  0
   -8.1644   -0.6139  -22.0849 C   0  0  0  0  0  0  0  0  0  0  0  0
   -8.3427    0.5776  -21.9894 O   0  0  0  0  0  1  0  0  0  0  0  0
   -7.3993   -1.3919  -21.1827 N   0  0  0  0  0  0  0  0  0  0  0  0
   -6.5815   -0.8245  -20.1734 C   0  0  0  0  0  0  0  0  0  0  0  0
   -6.8899   -1.0627  -18.8612 C   0  0  0  0  0  0  0  0  0  0  0  0
   -6.1925   -0.5610  -17.8151 N   0  0  0  0  0  0  0  0  0  0  0  0
   -5.1676    0.2093  -18.0827 C   0  0  0  0  0  0  0  0  0  0  0  0
   -4.7291    0.5295  -19.3987 C   0  0  0  0  0  0  0  0  0  0  0  0
   -3.5950    1.3547  -19.6314 C   0  0  0  0  0  0  0  0  0  0  0  0
   -3.1826    1.6231  -20.9073 C   0  0  0  0  0  0  0  0  0  0  0  0
   -3.8809    1.0695  -22.0059 C   0  0  0  0  0  0  0  0  0  0  0  0
   -4.9773    0.2685  -21.8071 C   0  0  0  0  0  0  0  0  0  0  0  0
   -5.4467   -0.0089  -20.4908 C   0  0  0  0  0  0  0  0  0  0  0  0
   -5.4876   -0.1513  -22.6719 H   0  0  0  0  0  0  0  0  0  0  0  0
   -3.5546    1.2853  -23.0197 H   0  0  0  0  0  0  0  0  0  0  0  0
   -2.3241    2.2653  -21.0884 H   0  0  0  0  0  0  0  0  0  0  0  0
   -3.0748    1.7682  -18.7716 H   0  0  0  0  0  0  0  0  0  0  0  0
   -4.6284    0.6164  -17.2271 H   0  0  0  0  0  0  0  0  0  0  0  0
   -7.7432   -1.6849  -18.6066 H   0  0  0  0  0  0  0  0  0  0  0  0
   -7.2533   -2.7114  -21.6311 C   0  0  0  0  0  0  0  0  0  0  0  0
   -6.5350   -3.5590  -21.1583 O   0  0  0  0  0  0  0  0  0  0  0  0
   -8.0630   -2.7902  -22.7613 N   0  0  0  0  0  0  0  0  0  0  0  0
   -9.2842   -0.6917  -24.9761 H   0  0  0  0  0  0  0  0  0  0  0  0
   -9.9668   -3.2774  -24.4630 H   0  0  0  0  0  0  0  0  0  0  0  0
   -8.9257   -3.1964  -25.9278 H   0  0  0  0  0  0  0  0  0  0  0  0
   -7.7019   -4.5545  -23.9064 H   0  0  0  0  0  0  0  0  0  0  0  0
   -5.7909   -2.6288  -24.0597 H   0  0  0  0  0  0  0  0  0  0  0  0
   -6.2970   -3.2675  -25.6445 H   0  0  0  0  0  0  0  0  0  0  0  0
   -6.4886    1.6594  -25.9031 H   0  0  0  0  0  0  0  0  0  0  0  0
   -7.7268    1.2576  -24.6705 H   0  0  0  0  0  0  0  0  0  0  0  0
   -8.0201    0.8656  -26.3659 H   0  0  0  0  0  0  0  0  0  0  0  0
  1  2  1  0
  2  3  2  0
  2  4  1  0
  4  5  1  0
  5  6  1  0
  6  7  1  0
  7  8  1  0
  8  9  1  0
  9 10  2  0
 10 11  1  0
 10 12  1  0
 12 13  1  0
 13 14  2  0
 14 15  1  0
 15 16  2  0
 16 17  1  0
 17 18  2  0
 18 19  1  0
 19 20  2  0
 20 21  1  0
 21 22  2  0
 21 23  1  0
 20 24  1  0
 19 25  1  0
 18 26  1  0
 16 27  1  0
 14 28  1  0
 12 29  1  0
 29 30  2  0
 29 31  1  0
  8 32  1  1
  7 33  1  0
  7 34  1  0
  6 35  1  1
  5 36  1  0
  5 37  1  0
  1 38  1  0
  1 39  1  0
  1 40  1  0
  8  4  1  0
 31  9  1  0
 31  6  1  0
 22 13  1  0
 22 17  1  0
M  CHG  1  11  -1
M  END
>  <cnnaffinities>  (38) 
[5.476]

>  <score>  (38) 
5.476

>  <index>  (38) 
39

>  <Smiles>  (38) 
C(C(=O)N1C([C@@]2(C([C@]1(c1c([O-])n(c3c(nc(c4c(c(c(c(c34)[H])[H])[H])[H])[H])[H])c(=O)n21)[H])([H])[H])[H])([H])[H])([H])([H])[H]

>  <h>  (38) 
<NA>

>  <Training>  (38) 
True

>  <Success>  (38) 
True

>  <enamine_searched>  (38) 
False

>  <enamine_id>  (38) 
nan

$$$$

     RDKit          3D

 40 42  0  0  0  0  0  0  0  0999 V2000
   -9.3063   -6.6313  -25.1051 C   0  0  0  0  0  0  0  0  0  0  0  0
   -9.0073   -5.8186  -23.8472 C   0  0  0  0  0  0  0  0  0  0  0  0
   -7.5641   -5.9926  -23.3922 C   0  0  0  0  0  0  0  0  0  0  0  0
   -7.2625   -5.1704  -22.1490 C   0  0  0  0  0  0  0  0  0  0  0  0
   -7.6215   -3.7626  -22.3155 N   0  0  0  0  0  0  0  0  0  0  0  0
   -6.7881   -2.8013  -21.7718 C   0  0  0  0  0  0  0  0  0  0  0  0
   -5.5889   -2.9861  -21.6716 O   0  0  0  0  0  0  0  0  0  0  0  0
   -7.4215   -1.4834  -21.2569 C   0  0  0  0  0  0  0  0  0  0  0  0
   -6.5821   -0.8250  -20.1835 C   0  0  0  0  0  0  0  0  0  0  0  0
   -6.8739   -1.0433  -18.8641 C   0  0  0  0  0  0  0  0  0  0  0  0
   -6.1836   -0.5507  -17.8032 N   0  0  0  0  0  0  0  0  0  0  0  0
   -5.1570    0.2209  -18.0669 C   0  0  0  0  0  0  0  0  0  0  0  0
   -4.7220    0.5324  -19.3812 C   0  0  0  0  0  0  0  0  0  0  0  0
   -3.5927    1.3584  -19.6194 C   0  0  0  0  0  0  0  0  0  0  0  0
   -3.1889    1.6329  -20.8980 C   0  0  0  0  0  0  0  0  0  0  0  0
   -3.8990    1.0882  -21.9913 C   0  0  0  0  0  0  0  0  0  0  0  0
   -4.9959    0.2876  -21.7863 C   0  0  0  0  0  0  0  0  0  0  0  0
   -5.4448   -0.0103  -20.4742 C   0  0  0  0  0  0  0  0  0  0  0  0
   -5.5188   -0.1395  -22.6357 H   0  0  0  0  0  0  0  0  0  0  0  0
   -3.5702    1.3081  -23.0032 H   0  0  0  0  0  0  0  0  0  0  0  0
   -2.3277    2.2706  -21.0841 H   0  0  0  0  0  0  0  0  0  0  0  0
   -3.0591    1.7738  -18.7671 H   0  0  0  0  0  0  0  0  0  0  0  0
   -4.6063    0.6270  -17.2154 H   0  0  0  0  0  0  0  0  0  0  0  0
   -7.7202   -1.6687  -18.5853 H   0  0  0  0  0  0  0  0  0  0  0  0
   -7.5644   -0.7938  -22.1000 H   0  0  0  0  0  0  0  0  0  0  0  0
   -8.4238   -1.6897  -20.8506 H   0  0  0  0  0  0  0  0  0  0  0  0
   -8.9718   -3.5133  -22.7984 C   0  0  0  0  0  0  0  0  0  0  0  0
   -9.2803   -4.3342  -24.0483 C   0  0  0  0  0  0  0  0  0  0  0  0
  -10.3262   -4.1827  -24.3327 H   0  0  0  0  0  0  0  0  0  0  0  0
   -8.6807   -3.9688  -24.8885 H   0  0  0  0  0  0  0  0  0  0  0  0
   -9.0726   -2.4527  -23.0296 H   0  0  0  0  0  0  0  0  0  0  0  0
   -9.7177   -3.7524  -22.0244 H   0  0  0  0  0  0  0  0  0  0  0  0
   -7.8179   -5.6073  -21.3055 H   0  0  0  0  0  0  0  0  0  0  0  0
   -6.2046   -5.2177  -21.8956 H   0  0  0  0  0  0  0  0  0  0  0  0
   -6.8888   -5.6976  -24.2016 H   0  0  0  0  0  0  0  0  0  0  0  0
   -7.3611   -7.0516  -23.1944 H   0  0  0  0  0  0  0  0  0  0  0  0
   -9.6663   -6.1762  -23.0463 H   0  0  0  0  0  0  0  0  0  0  0  0
   -9.1218   -7.7011  -24.9479 H   0  0  0  0  0  0  0  0  0  0  0  0
  -10.3491   -6.5124  -25.4230 H   0  0  0  0  0  0  0  0  0  0  0  0
   -8.6688   -6.3062  -25.9365 H   0  0  0  0  0  0  0  0  0  0  0  0
  1  2  1  0
  2  3  1  0
  3  4  1  0
  4  5  1  0
  5  6  1  0
  6  7  2  0
  6  8  1  0
  8  9  1  0
  9 10  2  0
 10 11  1  0
 11 12  2  0
 12 13  1  0
 13 14  2  0
 14 15  1  0
 15 16  2  0
 16 17  1  0
 17 18  2  0
 17 19  1  0
 16 20  1  0
 15 21  1  0
 14 22  1  0
 12 23  1  0
 10 24  1  0
  8 25  1  0
  8 26  1  0
  5 27  1  0
 27 28  1  0
 28 29  1  0
 28 30  1  0
 27 31  1  0
 27 32  1  0
  4 33  1  0
  4 34  1  0
  3 35  1  0
  3 36  1  0
  2 37  1  0
  1 38  1  0
  1 39  1  0
  1 40  1  0
 28  2  1  0
 18  9  1  0
 18 13  1  0
M  END
>  <cnnaffinities>  (39) 
[5.08337, 5.08297]

>  <score>  (39) 
5.08337

>  <index>  (39) 
40

>  <Smiles>  (39) 
C(C1(C(C(N(C(=O)C(c2c(nc(c3c(c(c(c(c23)[H])[H])[H])[H])[H])[H])([H])[H])C(C1([H])[H])([H])[H])([H])[H])([H])[H])[H])([H])([H])[H]

>  <h>  (39) 
<NA>

>  <Training>  (39) 
True

>  <Success>  (39) 
True

>  <enamine_searched>  (39) 
False

>  <enamine_id>  (39) 
nan

$$$$

     RDKit          3D

 67 71  0  0  0  0  0  0  0  0999 V2000
   -5.7599    0.0681  -29.5590 C   0  0  0  0  0  0  0  0  0  0  0  0
   -5.6003    0.5144  -28.1927 N   0  0  0  0  0  0  0  0  0  0  0  0
   -4.9041   -0.2518  -27.3095 C   0  0  0  0  0  0  0  0  0  0  0  0
   -4.1875   -1.1830  -27.6312 O   0  0  0  0  0  0  0  0  0  0  0  0
   -5.0592    0.1742  -25.8371 C   0  0  0  0  0  0  0  0  0  0  0  0
   -6.2450   -0.3638  -25.1783 N   0  0  0  0  0  0  0  0  0  0  0  0
   -6.1047   -1.5841  -24.3860 C   0  0  0  0  0  0  0  0  0  0  0  0
   -7.2406   -1.8136  -23.3305 C   0  0  2  0  0  0  0  0  0  0  0  0
   -7.0029   -1.0101  -22.0395 C   0  0  0  0  0  0  0  0  0  0  0  0
   -7.4352    0.0842  -21.7444 O   0  0  0  0  0  0  0  0  0  0  0  0
   -6.2059   -1.7688  -21.2101 N   0  0  0  0  0  0  0  0  0  0  0  0
   -5.7156   -1.1554  -20.0384 C   0  0  0  0  0  0  0  0  0  0  0  0
   -6.2316   -1.4690  -18.8049 C   0  0  0  0  0  0  0  0  0  0  0  0
   -5.8742   -0.8450  -17.6541 N   0  0  0  0  0  0  0  0  0  0  0  0
   -4.9739    0.1077  -17.7390 C   0  0  0  0  0  0  0  0  0  0  0  0
   -4.3430    0.5059  -18.9518 C   0  0  0  0  0  0  0  0  0  0  0  0
   -3.3507    1.5180  -18.9876 C   0  0  0  0  0  0  0  0  0  0  0  0
   -2.8409    1.9549  -20.1789 C   0  0  0  0  0  0  0  0  0  0  0  0
   -3.2925    1.3910  -21.3945 C   0  0  0  0  0  0  0  0  0  0  0  0
   -4.2161    0.3784  -21.3850 C   0  0  0  0  0  0  0  0  0  0  0  0
   -4.7558   -0.1016  -20.1534 C   0  0  0  0  0  0  0  0  0  0  0  0
   -4.5656   -0.0432  -22.3243 H   0  0  0  0  0  0  0  0  0  0  0  0
   -2.9153    1.7700  -22.3397 H   0  0  0  0  0  0  0  0  0  0  0  0
   -2.0988    2.7470  -20.1989 H   0  0  0  0  0  0  0  0  0  0  0  0
   -3.0250    1.9433  -18.0453 H   0  0  0  0  0  0  0  0  0  0  0  0
   -4.7043    0.6352  -16.8226 H   0  0  0  0  0  0  0  0  0  0  0  0
   -6.9992   -2.2412  -18.7138 H   0  0  0  0  0  0  0  0  0  0  0  0
   -5.9736   -3.1105  -21.7280 C   0  0  0  0  0  0  0  0  0  0  0  0
   -7.1414   -3.2475  -22.7195 C   0  0  2  0  0  0  0  0  0  0  0  0
   -7.0913   -4.3829  -23.7363 C   0  0  0  0  0  0  0  0  0  0  0  0
   -7.4860   -5.9902  -23.0679 S   0  0  0  0  0  0  0  0  0  0  0  0
   -7.5580   -6.9126  -24.1942 O   0  0  0  0  0  0  0  0  0  0  0  0
   -8.6073   -5.8519  -22.1504 O   0  0  0  0  0  0  0  0  0  0  0  0
   -6.1450   -6.4158  -22.1116 N   0  0  0  0  0  0  0  0  0  0  0  0
   -6.4682   -7.6843  -21.4432 C   0  0  0  0  0  0  0  0  0  0  0  0
   -6.4769   -8.5452  -22.1350 H   0  0  0  0  0  0  0  0  0  0  0  0
   -5.7217   -7.8493  -20.6630 H   0  0  0  0  0  0  0  0  0  0  0  0
   -7.4492   -7.5897  -20.9788 H   0  0  0  0  0  0  0  0  0  0  0  0
   -4.8949   -6.5490  -22.8708 C   0  0  0  0  0  0  0  0  0  0  0  0
   -4.2347   -7.2110  -22.3048 H   0  0  0  0  0  0  0  0  0  0  0  0
   -5.0491   -6.9674  -23.8741 H   0  0  0  0  0  0  0  0  0  0  0  0
   -4.3983   -5.5795  -22.9390 H   0  0  0  0  0  0  0  0  0  0  0  0
   -6.1247   -4.4725  -24.2415 H   0  0  0  0  0  0  0  0  0  0  0  0
   -7.8509   -4.2395  -24.5148 H   0  0  0  0  0  0  0  0  0  0  0  0
   -8.0372   -3.3905  -22.1132 H   0  0  0  0  0  0  0  0  0  0  0  0
   -5.9579   -3.8541  -20.9323 H   0  0  0  0  0  0  0  0  0  0  0  0
   -5.0170   -3.1650  -22.2682 H   0  0  0  0  0  0  0  0  0  0  0  0
   -8.5663   -1.4336  -23.9132 C   0  0  0  0  0  0  0  0  0  0  0  0
   -9.7564   -1.8322  -23.2959 C   0  0  0  0  0  0  0  0  0  0  0  0
  -10.9593   -1.5549  -23.9145 C   0  0  0  0  0  0  0  0  0  0  0  0
  -12.0756   -2.0319  -23.3395 F   0  0  0  0  0  0  0  0  0  0  0  0
  -11.0400   -0.8261  -25.1011 C   0  0  0  0  0  0  0  0  0  0  0  0
   -9.8649   -0.3180  -25.6133 C   0  0  0  0  0  0  0  0  0  0  0  0
   -8.6421   -0.5833  -25.0160 C   0  0  0  0  0  0  0  0  0  0  0  0
   -7.4506    0.1277  -25.5508 C   0  0  0  0  0  0  0  0  0  0  0  0
   -7.5680    1.0998  -26.3030 O   0  0  0  0  0  0  0  0  0  0  0  0
   -9.8464    0.3299  -26.4727 H   0  0  0  0  0  0  0  0  0  0  0  0
  -11.9843   -0.6266  -25.5956 H   0  0  0  0  0  0  0  0  0  0  0  0
   -9.7538   -2.2946  -22.3141 H   0  0  0  0  0  0  0  0  0  0  0  0
   -6.0425   -2.4345  -25.0777 H   0  0  0  0  0  0  0  0  0  0  0  0
   -5.1366   -1.5069  -23.8815 H   0  0  0  0  0  0  0  0  0  0  0  0
   -5.0761    1.2652  -25.7306 H   0  0  0  0  0  0  0  0  0  0  0  0
   -4.1932   -0.2238  -25.3152 H   0  0  0  0  0  0  0  0  0  0  0  0
   -6.3400    1.0866  -27.8005 H   0  0  0  0  0  0  0  0  0  0  0  0
   -6.4501   -0.7824  -29.6186 H   0  0  0  0  0  0  0  0  0  0  0  0
   -6.1525    0.8965  -30.1545 H   0  0  0  0  0  0  0  0  0  0  0  0
   -4.7950   -0.2375  -29.9713 H   0  0  0  0  0  0  0  0  0  0  0  0
  1  2  1  0
  2  3  1  0
  3  4  2  0
  3  5  1  0
  5  6  1  0
  6  7  1  0
  8  7  1  6
  8  9  1  0
  9 10  2  0
  9 11  1  0
 11 12  1  0
 12 13  2  0
 13 14  1  0
 14 15  2  0
 15 16  1  0
 16 17  2  0
 17 18  1  0
 18 19  2  0
 19 20  1  0
 20 21  2  0
 20 22  1  0
 19 23  1  0
 18 24  1  0
 17 25  1  0
 15 26  1  0
 13 27  1  0
 11 28  1  0
 28 29  1  0
 29 30  1  0
 30 31  1  0
 31 32  2  0
 31 33  2  0
 31 34  1  0
 34 35  1  0
 35 36  1  0
 35 37  1  0
 35 38  1  0
 34 39  1  0
 39 40  1  0
 39 41  1  0
 39 42  1  0
 30 43  1  0
 30 44  1  0
 29 45  1  1
 28 46  1  0
 28 47  1  0
  8 48  1  0
 48 49  2  0
 49 50  1  0
 50 51  1  0
 50 52  2  0
 52 53  1  0
 53 54  2  0
 54 55  1  0
 55 56  2  0
 53 57  1  0
 52 58  1  0
 49 59  1  0
  7 60  1  0
  7 61  1  0
  5 62  1  0
  5 63  1  0
  2 64  1  0
  1 65  1  0
  1 66  1  0
  1 67  1  0
 55  6  1  0
 29  8  1  0
 54 48  1  0
 21 12  1  0
 21 16  1  0
M  END
>  <cnnaffinities>  (40) 
[6.29981, 6.51973]

>  <score>  (40) 
6.29981

>  <index>  (40) 
41

>  <Smiles>  (40) 
C(N(C(=O)C(N1C([C@@]2(C(=O)N(c3c(nc(c4c(c(c(c(c34)[H])[H])[H])[H])[H])[H])C([C@@]2(C(S(=O)(=O)N(C([H])([H])[H])C([H])([H])[H])([H])[H])[H])([H])[H])c2c(c(F)c(c(c2C1=O)[H])[H])[H])([H])[H])([H])[H])[H])([H])([H])[H]

>  <h>  (40) 
<NA>

>  <Training>  (40) 
True

>  <Success>  (40) 
True

>  <enamine_searched>  (40) 
False

>  <enamine_id>  (40) 
nan

$$$$

     RDKit          3D

 67 72  0  0  0  0  0  0  0  0999 V2000
   -8.2786    0.5281  -29.6417 C   0  0  0  0  0  0  0  0  0  0  0  0
   -8.2842   -0.5126  -28.6316 N   0  0  0  0  0  0  0  0  0  0  0  0
   -7.4277   -0.4385  -27.5694 C   0  0  0  0  0  0  0  0  0  0  0  0
   -6.6600    0.4919  -27.4138 O   0  0  0  0  0  0  0  0  0  0  0  0
   -7.4309   -1.6746  -26.6392 C   0  0  0  0  0  0  0  0  0  0  0  0
   -8.0621   -1.5071  -25.3232 N   0  0  0  0  0  0  0  0  0  0  0  0
   -7.3383   -1.3915  -24.0524 C   0  0  0  0  0  0  0  0  0  0  0  0
   -8.0600   -2.0050  -22.7890 C   0  0  2  0  0  0  0  0  0  0  0  0
   -7.6055   -1.1701  -21.5927 C   0  0  0  0  0  0  0  0  0  0  0  0
   -8.0104   -0.0762  -21.2492 O   0  0  0  0  0  0  0  0  0  0  0  0
   -6.5783   -1.8446  -20.9681 N   0  0  0  0  0  0  0  0  0  0  0  0
   -5.9139   -1.1405  -19.9430 C   0  0  0  0  0  0  0  0  0  0  0  0
   -6.3584   -1.2678  -18.6538 C   0  0  0  0  0  0  0  0  0  0  0  0
   -5.8671   -0.5660  -17.6054 N   0  0  0  0  0  0  0  0  0  0  0  0
   -4.9289    0.3165  -17.8616 C   0  0  0  0  0  0  0  0  0  0  0  0
   -4.3994    0.5601  -19.1632 C   0  0  0  0  0  0  0  0  0  0  0  0
   -3.3870    1.5261  -19.3888 C   0  0  0  0  0  0  0  0  0  0  0  0
   -2.9534    1.8012  -20.6561 C   0  0  0  0  0  0  0  0  0  0  0  0
   -3.5084    1.1151  -21.7590 C   0  0  0  0  0  0  0  0  0  0  0  0
   -4.4672    0.1527  -21.5720 C   0  0  0  0  0  0  0  0  0  0  0  0
   -4.9269   -0.1598  -20.2575 C   0  0  0  0  0  0  0  0  0  0  0  0
   -4.8831   -0.3656  -22.4345 H   0  0  0  0  0  0  0  0  0  0  0  0
   -3.1770    1.3575  -22.7627 H   0  0  0  0  0  0  0  0  0  0  0  0
   -2.1921    2.5570  -20.8251 H   0  0  0  0  0  0  0  0  0  0  0  0
   -2.9792    2.0445  -18.5271 H   0  0  0  0  0  0  0  0  0  0  0  0
   -4.5437    0.9089  -17.0272 H   0  0  0  0  0  0  0  0  0  0  0  0
   -7.1728   -1.9546  -18.4259 H   0  0  0  0  0  0  0  0  0  0  0  0
   -6.2114   -3.0919  -21.6352 C   0  0  0  0  0  0  0  0  0  0  0  0
   -7.5373   -3.4071  -22.3432 C   0  0  2  0  0  0  0  0  0  0  0  0
   -7.6247   -4.4751  -23.4373 C   0  0  0  0  0  0  0  0  0  0  0  0
   -6.4531   -4.5753  -24.2711 N   0  0  0  0  0  0  0  0  0  0  0  0
   -5.3326   -5.2521  -23.8848 C   0  0  0  0  0  0  0  0  0  0  0  0
   -5.3785   -6.4752  -22.6311 S   0  0  0  0  0  0  0  0  0  0  0  0
   -3.6533   -6.6201  -22.8055 C   0  0  0  0  0  0  0  0  0  0  0  0
   -3.1072   -5.8519  -23.6882 N   0  0  0  0  0  0  0  0  0  0  0  0
   -4.0508   -5.0751  -24.3276 C   0  0  0  0  0  0  0  0  0  0  0  0
   -3.6576   -4.0964  -25.3931 C   0  0  0  0  0  0  0  0  0  0  0  0
   -3.9326   -3.0725  -25.1026 H   0  0  0  0  0  0  0  0  0  0  0  0
   -4.1644   -4.3116  -26.3440 H   0  0  0  0  0  0  0  0  0  0  0  0
   -2.5776   -4.1307  -25.5587 H   0  0  0  0  0  0  0  0  0  0  0  0
   -3.1097   -7.3204  -22.1832 H   0  0  0  0  0  0  0  0  0  0  0  0
   -6.4406   -4.0418  -25.1299 H   0  0  0  0  0  0  0  0  0  0  0  0
   -8.4802   -4.2304  -24.0777 H   0  0  0  0  0  0  0  0  0  0  0  0
   -7.8184   -5.4570  -22.9911 H   0  0  0  0  0  0  0  0  0  0  0  0
   -8.2276   -3.7237  -21.5521 H   0  0  0  0  0  0  0  0  0  0  0  0
   -5.8838   -3.8500  -20.9231 H   0  0  0  0  0  0  0  0  0  0  0  0
   -5.3966   -2.9467  -22.3613 H   0  0  0  0  0  0  0  0  0  0  0  0
   -9.5541   -1.9969  -22.9229 C   0  0  0  0  0  0  0  0  0  0  0  0
  -10.3732   -2.4272  -21.8601 C   0  0  0  0  0  0  0  0  0  0  0  0
  -11.7497   -2.4312  -22.0080 C   0  0  0  0  0  0  0  0  0  0  0  0
  -12.8541   -3.1333  -20.8545 Cl  0  0  0  0  0  0  0  0  0  0  0  0
  -12.3438   -1.9426  -23.1618 C   0  0  0  0  0  0  0  0  0  0  0  0
  -11.5298   -1.4810  -24.1837 C   0  0  0  0  0  0  0  0  0  0  0  0
  -10.1596   -1.5834  -24.1012 C   0  0  0  0  0  0  0  0  0  0  0  0
   -9.4072   -1.3107  -25.3611 C   0  0  0  0  0  0  0  0  0  0  0  0
   -9.9813   -0.9986  -26.4019 O   0  0  0  0  0  0  0  0  0  0  0  0
  -11.8664   -1.0667  -25.1283 H   0  0  0  0  0  0  0  0  0  0  0  0
  -13.4268   -1.9029  -23.1878 H   0  0  0  0  0  0  0  0  0  0  0  0
   -9.9228   -2.7703  -20.9387 H   0  0  0  0  0  0  0  0  0  0  0  0
   -6.3581   -1.8698  -24.1566 H   0  0  0  0  0  0  0  0  0  0  0  0
   -7.1699   -0.3261  -23.8317 H   0  0  0  0  0  0  0  0  0  0  0  0
   -7.9429   -2.4802  -27.1793 H   0  0  0  0  0  0  0  0  0  0  0  0
   -6.3878   -1.9620  -26.4957 H   0  0  0  0  0  0  0  0  0  0  0  0
   -9.1134   -1.0807  -28.5356 H   0  0  0  0  0  0  0  0  0  0  0  0
   -8.9666    0.2518  -30.4484 H   0  0  0  0  0  0  0  0  0  0  0  0
   -7.2725    0.6313  -30.0583 H   0  0  0  0  0  0  0  0  0  0  0  0
   -8.5684    1.5054  -29.2364 H   0  0  0  0  0  0  0  0  0  0  0  0
  1  2  1  0
  2  3  1  0
  3  4  2  0
  3  5  1  0
  5  6  1  0
  6  7  1  0
  8  7  1  6
  8  9  1  0
  9 10  2  0
  9 11  1  0
 11 12  1  0
 12 13  2  0
 13 14  1  0
 14 15  2  0
 15 16  1  0
 16 17  2  0
 17 18  1  0
 18 19  2  0
 19 20  1  0
 20 21  2  0
 20 22  1  0
 19 23  1  0
 18 24  1  0
 17 25  1  0
 15 26  1  0
 13 27  1  0
 11 28  1  0
 28 29  1  0
 29 30  1  0
 30 31  1  0
 31 32  1  0
 32 33  1  0
 33 34  1  0
 34 35  2  0
 35 36  1  0
 36 37  1  0
 37 38  1  0
 37 39  1  0
 37 40  1  0
 34 41  1  0
 31 42  1  0
 30 43  1  0
 30 44  1  0
 29 45  1  1
 28 46  1  0
 28 47  1  0
  8 48  1  0
 48 49  2  0
 49 50  1  0
 50 51  1  0
 50 52  2  0
 52 53  1  0
 53 54  2  0
 54 55  1  0
 55 56  2  0
 53 57  1  0
 52 58  1  0
 49 59  1  0
  7 60  1  0
  7 61  1  0
  5 62  1  0
  5 63  1  0
  2 64  1  0
  1 65  1  0
  1 66  1  0
  1 67  1  0
 55  6  1  0
 29  8  1  0
 36 32  2  0
 54 48  1  0
 21 12  1  0
 21 16  1  0
M  END
>  <cnnaffinities>  (41) 
[6.75086]

>  <score>  (41) 
6.75086

>  <index>  (41) 
43

>  <Smiles>  (41) 
C(N(C(=O)C(N1C([C@@]2(C(=O)N(c3c(nc(c4c(c(c(c(c34)[H])[H])[H])[H])[H])[H])C([C@@]2(C(N(c2sc(nc2C([H])([H])[H])[H])[H])([H])[H])[H])([H])[H])c2c(c(Cl)c(c(c2C1=O)[H])[H])[H])([H])[H])([H])[H])[H])([H])([H])[H]

>  <h>  (41) 
<NA>

>  <Training>  (41) 
True

>  <Success>  (41) 
True

>  <enamine_searched>  (41) 
False

>  <enamine_id>  (41) 
nan

$$$$

     RDKit          3D

 60 64  0  0  0  0  0  0  0  0999 V2000
   -5.1890   -3.9269  -19.1763 C   0  0  0  0  0  0  0  0  0  0  0  0
   -6.2092   -4.5873  -19.9471 N   0  0  0  0  0  0  0  0  0  0  0  0
   -6.1065   -5.8542  -20.3933 C   0  0  0  0  0  0  0  0  0  0  0  0
   -5.1551   -6.5686  -20.1160 O   0  0  0  0  0  0  0  0  0  0  0  0
   -7.3256   -6.3415  -21.2113 C   0  0  0  0  0  0  0  0  0  0  0  0
   -7.6490   -5.4676  -22.3264 N   0  0  0  0  0  0  0  0  0  0  0  0
   -8.5535   -4.3145  -22.2967 C   0  0  0  0  0  0  0  0  0  0  0  0
   -7.9025   -3.0485  -22.9390 C   0  0  2  0  0  0  0  0  0  0  0  0
   -6.7872   -2.4486  -22.0490 C   0  0  0  0  0  0  0  0  0  0  0  0
   -5.6155   -2.7752  -22.0163 O   0  0  0  0  0  0  0  0  0  0  0  0
   -7.3236   -1.4552  -21.2617 N   0  0  0  0  0  0  0  0  0  0  0  0
   -6.5871   -0.8380  -20.2246 C   0  0  0  0  0  0  0  0  0  0  0  0
   -6.9714   -1.0090  -18.9177 C   0  0  0  0  0  0  0  0  0  0  0  0
   -6.2802   -0.5399  -17.8529 N   0  0  0  0  0  0  0  0  0  0  0  0
   -5.2126    0.1858  -18.0961 C   0  0  0  0  0  0  0  0  0  0  0  0
   -4.7399    0.4868  -19.4029 C   0  0  0  0  0  0  0  0  0  0  0  0
   -3.6103    1.3213  -19.6150 C   0  0  0  0  0  0  0  0  0  0  0  0
   -3.1973    1.6241  -20.8823 C   0  0  0  0  0  0  0  0  0  0  0  0
   -3.8903    1.1056  -21.9989 C   0  0  0  0  0  0  0  0  0  0  0  0
   -4.9831    0.2973  -21.8212 C   0  0  0  0  0  0  0  0  0  0  0  0
   -5.4380   -0.0361  -20.5139 C   0  0  0  0  0  0  0  0  0  0  0  0
   -5.5081   -0.0974  -22.6851 H   0  0  0  0  0  0  0  0  0  0  0  0
   -3.5590    1.3546  -23.0031 H   0  0  0  0  0  0  0  0  0  0  0  0
   -2.3455    2.2788  -21.0436 H   0  0  0  0  0  0  0  0  0  0  0  0
   -3.1037    1.7326  -18.7449 H   0  0  0  0  0  0  0  0  0  0  0  0
   -4.6643    0.5695  -17.2359 H   0  0  0  0  0  0  0  0  0  0  0  0
   -7.8380   -1.6202  -18.6664 H   0  0  0  0  0  0  0  0  0  0  0  0
   -8.6988   -1.1250  -21.5926 C   0  0  0  0  0  0  0  0  0  0  0  0
   -8.8616   -1.8095  -22.9576 C   0  0  2  0  0  0  0  0  0  0  0  0
  -10.3116   -2.0054  -23.3577 C   0  0  0  0  0  0  0  0  0  0  0  0
  -11.0297   -2.5690  -22.2824 O   0  0  0  0  0  0  0  0  0  0  0  0
  -12.3663   -2.8534  -22.6047 C   0  0  0  0  0  0  0  0  0  0  0  0
  -12.4354   -3.5886  -23.4215 H   0  0  0  0  0  0  0  0  0  0  0  0
  -12.8340   -3.2700  -21.7088 H   0  0  0  0  0  0  0  0  0  0  0  0
  -12.9152   -1.9471  -22.9036 H   0  0  0  0  0  0  0  0  0  0  0  0
  -10.7519   -1.0303  -23.6294 H   0  0  0  0  0  0  0  0  0  0  0  0
  -10.3754   -2.6568  -24.2446 H   0  0  0  0  0  0  0  0  0  0  0  0
   -8.4269   -1.1240  -23.6894 H   0  0  0  0  0  0  0  0  0  0  0  0
   -9.4188   -1.5061  -20.8612 H   0  0  0  0  0  0  0  0  0  0  0  0
   -8.8327   -0.0383  -21.6639 H   0  0  0  0  0  0  0  0  0  0  0  0
   -7.3136   -3.4618  -24.2813 C   0  0  0  0  0  0  0  0  0  0  0  0
   -6.9600   -2.5139  -25.2541 C   0  0  0  0  0  0  0  0  0  0  0  0
   -6.3301   -2.9053  -26.4255 C   0  0  0  0  0  0  0  0  0  0  0  0
   -5.8896   -1.6903  -27.5962 Cl  0  0  0  0  0  0  0  0  0  0  0  0
   -6.0223   -4.2401  -26.6862 C   0  0  0  0  0  0  0  0  0  0  0  0
   -6.3442   -5.1764  -25.7287 C   0  0  0  0  0  0  0  0  0  0  0  0
   -6.9621   -4.7946  -24.5419 C   0  0  0  0  0  0  0  0  0  0  0  0
   -7.0916   -5.8631  -23.5135 C   0  0  0  0  0  0  0  0  0  0  0  0
   -6.6558   -6.9919  -23.6882 O   0  0  0  0  0  0  0  0  0  0  0  0
   -6.1035   -6.2263  -25.8556 H   0  0  0  0  0  0  0  0  0  0  0  0
   -5.5251   -4.5275  -27.6062 H   0  0  0  0  0  0  0  0  0  0  0  0
   -7.1480   -1.4569  -25.1101 H   0  0  0  0  0  0  0  0  0  0  0  0
   -8.8985   -4.1070  -21.2811 H   0  0  0  0  0  0  0  0  0  0  0  0
   -9.4466   -4.5494  -22.8924 H   0  0  0  0  0  0  0  0  0  0  0  0
   -7.0524   -7.3128  -21.6243 H   0  0  0  0  0  0  0  0  0  0  0  0
   -8.2203   -6.5064  -20.6077 H   0  0  0  0  0  0  0  0  0  0  0  0
   -6.9869   -4.0391  -20.2789 H   0  0  0  0  0  0  0  0  0  0  0  0
   -4.2976   -3.7759  -19.7867 H   0  0  0  0  0  0  0  0  0  0  0  0
   -5.5534   -2.9610  -18.8276 H   0  0  0  0  0  0  0  0  0  0  0  0
   -4.9607   -4.4887  -18.2762 H   0  0  0  0  0  0  0  0  0  0  0  0
  1  2  1  0
  2  3  1  0
  3  4  2  0
  3  5  1  0
  5  6  1  0
  6  7  1  0
  8  7  1  1
  8  9  1  0
  9 10  2  0
  9 11  1  0
 11 12  1  0
 12 13  2  0
 13 14  1  0
 14 15  2  0
 15 16  1  0
 16 17  2  0
 17 18  1  0
 18 19  2  0
 19 20  1  0
 20 21  2  0
 20 22  1  0
 19 23  1  0
 18 24  1  0
 17 25  1  0
 15 26  1  0
 13 27  1  0
 11 28  1  0
 28 29  1  0
 29 30  1  0
 30 31  1  0
 31 32  1  0
 32 33  1  0
 32 34  1  0
 32 35  1  0
 30 36  1  0
 30 37  1  0
 29 38  1  6
 28 39  1  0
 28 40  1  0
  8 41  1  0
 41 42  2  0
 42 43  1  0
 43 44  1  0
 43 45  2  0
 45 46  1  0
 46 47  2  0
 47 48  1  0
 48 49  2  0
 46 50  1  0
 45 51  1  0
 42 52  1  0
  7 53  1  0
  7 54  1  0
  5 55  1  0
  5 56  1  0
  2 57  1  0
  1 58  1  0
  1 59  1  0
  1 60  1  0
 48  6  1  0
 29  8  1  0
 47 41  1  0
 21 12  1  0
 21 16  1  0
M  END
>  <cnnaffinities>  (42) 
[6.47843]

>  <score>  (42) 
6.47843

>  <index>  (42) 
44

>  <Smiles>  (42) 
C(N(C(=O)C(N1C([C@@]2(C(=O)N(c3c(nc(c4c(c(c(c(c34)[H])[H])[H])[H])[H])[H])C([C@@]2(C(OC([H])([H])[H])([H])[H])[H])([H])[H])c2c(c(Cl)c(c(c2C1=O)[H])[H])[H])([H])[H])([H])[H])[H])([H])([H])[H]

>  <h>  (42) 
<NA>

>  <Training>  (42) 
True

>  <Success>  (42) 
True

>  <enamine_searched>  (42) 
False

>  <enamine_id>  (42) 
nan

$$$$

     RDKit          3D

 66 71  0  0  0  0  0  0  0  0999 V2000
   -5.7606   -0.3578  -29.5161 C   0  0  0  0  0  0  0  0  0  0  0  0
   -5.6669   -0.0453  -28.1069 N   0  0  0  0  0  0  0  0  0  0  0  0
   -5.0937   -0.9470  -27.2670 C   0  0  0  0  0  0  0  0  0  0  0  0
   -4.5421   -1.9605  -27.6559 O   0  0  0  0  0  0  0  0  0  0  0  0
   -5.1047   -0.5787  -25.7736 C   0  0  0  0  0  0  0  0  0  0  0  0
   -6.3328   -0.9186  -25.0639 N   0  0  0  0  0  0  0  0  0  0  0  0
   -6.2466   -2.0395  -24.1268 C   0  0  0  0  0  0  0  0  0  0  0  0
   -7.4240   -2.1011  -23.1154 C   0  0  2  0  0  0  0  0  0  0  0  0
   -7.0983   -1.0877  -21.9924 C   0  0  0  0  0  0  0  0  0  0  0  0
   -7.4108    0.0772  -21.9205 O   0  0  0  0  0  0  0  0  0  0  0  0
   -6.3379   -1.7601  -21.0556 N   0  0  0  0  0  0  0  0  0  0  0  0
   -5.8119   -1.0918  -19.9400 C   0  0  0  0  0  0  0  0  0  0  0  0
   -6.2479   -1.3931  -18.6746 C   0  0  0  0  0  0  0  0  0  0  0  0
   -5.8500   -0.7583  -17.5502 N   0  0  0  0  0  0  0  0  0  0  0  0
   -4.9589    0.1940  -17.6919 C   0  0  0  0  0  0  0  0  0  0  0  0
   -4.3796    0.5678  -18.9370 C   0  0  0  0  0  0  0  0  0  0  0  0
   -3.3748    1.5711  -19.0192 C   0  0  0  0  0  0  0  0  0  0  0  0
   -2.8311    1.9073  -20.2300 C   0  0  0  0  0  0  0  0  0  0  0  0
   -3.2785    1.2770  -21.4145 C   0  0  0  0  0  0  0  0  0  0  0  0
   -4.2551    0.3161  -21.3588 C   0  0  0  0  0  0  0  0  0  0  0  0
   -4.8237   -0.0749  -20.1094 C   0  0  0  0  0  0  0  0  0  0  0  0
   -4.6071   -0.1301  -22.2825 H   0  0  0  0  0  0  0  0  0  0  0  0
   -2.8513    1.5606  -22.3752 H   0  0  0  0  0  0  0  0  0  0  0  0
   -2.0586    2.6689  -20.2934 H   0  0  0  0  0  0  0  0  0  0  0  0
   -3.0562    2.0669  -18.1049 H   0  0  0  0  0  0  0  0  0  0  0  0
   -4.6525    0.7162  -16.7888 H   0  0  0  0  0  0  0  0  0  0  0  0
   -6.9927   -2.1744  -18.5514 H   0  0  0  0  0  0  0  0  0  0  0  0
   -6.2595   -3.1930  -21.2828 C   0  0  0  0  0  0  0  0  0  0  0  0
   -7.4131   -3.4080  -22.2648 C   0  0  2  0  0  0  0  0  0  0  0  0
   -7.4995   -4.7895  -22.9419 C   0  0  0  0  0  0  0  0  0  0  0  0
   -6.2770   -5.3539  -23.6443 C   0  0  0  0  0  0  0  0  0  0  0  0
   -5.2360   -5.9520  -22.9232 C   0  0  0  0  0  0  0  0  0  0  0  0
   -4.1564   -6.5473  -23.5761 C   0  0  0  0  0  0  0  0  0  0  0  0
   -4.1062   -6.5768  -24.9670 C   0  0  0  0  0  0  0  0  0  0  0  0
   -5.1276   -5.9811  -25.7020 C   0  0  0  0  0  0  0  0  0  0  0  0
   -6.1963   -5.3731  -25.0420 C   0  0  0  0  0  0  0  0  0  0  0  0
   -6.9653   -4.8686  -25.6300 H   0  0  0  0  0  0  0  0  0  0  0  0
   -5.0960   -5.9996  -26.7899 H   0  0  0  0  0  0  0  0  0  0  0  0
   -3.2767   -7.0607  -25.4804 H   0  0  0  0  0  0  0  0  0  0  0  0
   -3.3591   -7.0024  -22.9922 H   0  0  0  0  0  0  0  0  0  0  0  0
   -5.2752   -5.9666  -21.8336 H   0  0  0  0  0  0  0  0  0  0  0  0
   -7.7905   -5.5108  -22.1635 H   0  0  0  0  0  0  0  0  0  0  0  0
   -8.3335   -4.7604  -23.6535 H   0  0  0  0  0  0  0  0  0  0  0  0
   -8.3077   -3.3393  -21.6364 H   0  0  0  0  0  0  0  0  0  0  0  0
   -5.2904   -3.4623  -21.7250 H   0  0  0  0  0  0  0  0  0  0  0  0
   -6.3809   -3.7345  -20.3378 H   0  0  0  0  0  0  0  0  0  0  0  0
   -8.7287   -1.7454  -23.7739 C   0  0  0  0  0  0  0  0  0  0  0  0
   -9.9487   -2.1588  -23.2277 C   0  0  0  0  0  0  0  0  0  0  0  0
  -11.1368   -1.7195  -23.7705 C   0  0  0  0  0  0  0  0  0  0  0  0
  -12.6277   -2.2078  -23.0136 Cl  0  0  0  0  0  0  0  0  0  0  0  0
  -11.1570   -0.8641  -24.8749 C   0  0  0  0  0  0  0  0  0  0  0  0
   -9.9599   -0.4440  -25.4082 C   0  0  0  0  0  0  0  0  0  0  0  0
   -8.7540   -0.8582  -24.8534 C   0  0  0  0  0  0  0  0  0  0  0  0
   -7.4899   -0.3050  -25.4218 C   0  0  0  0  0  0  0  0  0  0  0  0
   -7.5168    0.6441  -26.2139 O   0  0  0  0  0  0  0  0  0  0  0  0
   -9.9275    0.2333  -26.2514 H   0  0  0  0  0  0  0  0  0  0  0  0
  -12.0854   -0.5037  -25.2948 H   0  0  0  0  0  0  0  0  0  0  0  0
   -9.9912   -2.7909  -22.3486 H   0  0  0  0  0  0  0  0  0  0  0  0
   -5.3120   -1.9425  -23.5618 H   0  0  0  0  0  0  0  0  0  0  0  0
   -6.1565   -2.9711  -24.6873 H   0  0  0  0  0  0  0  0  0  0  0  0
   -4.8697    0.4839  -25.6321 H   0  0  0  0  0  0  0  0  0  0  0  0
   -4.3107   -1.1817  -25.3326 H   0  0  0  0  0  0  0  0  0  0  0  0
   -6.3527    0.5778  -27.6987 H   0  0  0  0  0  0  0  0  0  0  0  0
   -6.4637   -1.1780  -29.7149 H   0  0  0  0  0  0  0  0  0  0  0  0
   -6.0847    0.5377  -30.0544 H   0  0  0  0  0  0  0  0  0  0  0  0
   -4.7754   -0.6568  -29.8837 H   0  0  0  0  0  0  0  0  0  0  0  0
  1  2  1  0
  2  3  1  0
  3  4  2  0
  3  5  1  0
  5  6  1  0
  6  7  1  0
  8  7  1  6
  8  9  1  0
  9 10  2  0
  9 11  1  0
 11 12  1  0
 12 13  2  0
 13 14  1  0
 14 15  2  0
 15 16  1  0
 16 17  2  0
 17 18  1  0
 18 19  2  0
 19 20  1  0
 20 21  2  0
 20 22  1  0
 19 23  1  0
 18 24  1  0
 17 25  1  0
 15 26  1  0
 13 27  1  0
 11 28  1  0
 28 29  1  0
 29 30  1  0
 30 31  1  0
 31 32  2  0
 32 33  1  0
 33 34  2  0
 34 35  1  0
 35 36  2  0
 36 37  1  0
 35 38  1  0
 34 39  1  0
 33 40  1  0
 32 41  1  0
 30 42  1  0
 30 43  1  0
 29 44  1  1
 28 45  1  0
 28 46  1  0
  8 47  1  0
 47 48  2  0
 48 49  1  0
 49 50  1  0
 49 51  2  0
 51 52  1  0
 52 53  2  0
 53 54  1  0
 54 55  2  0
 52 56  1  0
 51 57  1  0
 48 58  1  0
  7 59  1  0
  7 60  1  0
  5 61  1  0
  5 62  1  0
  2 63  1  0
  1 64  1  0
  1 65  1  0
  1 66  1  0
 54  6  1  0
 29  8  1  0
 36 31  1  0
 53 47  1  0
 21 12  1  0
 21 16  1  0
M  END
>  <cnnaffinities>  (43) 
[6.69589, 6.69701]

>  <score>  (43) 
6.69589

>  <index>  (43) 
45

>  <Smiles>  (43) 
C(N(C(=O)C(N1C([C@@]2(C(=O)N(c3c(nc(c4c(c(c(c(c34)[H])[H])[H])[H])[H])[H])C([C@@]2(C(c2c(c(c(c(c2[H])[H])[H])[H])[H])([H])[H])[H])([H])[H])c2c(c(Cl)c(c(c2C1=O)[H])[H])[H])([H])[H])([H])[H])[H])([H])([H])[H]

>  <h>  (43) 
<NA>

>  <Training>  (43) 
True

>  <Success>  (43) 
True

>  <enamine_searched>  (43) 
False

>  <enamine_id>  (43) 
nan

$$$$

     RDKit          3D

 50 54  0  0  0  0  0  0  0  0999 V2000
  -10.2472   -2.9685  -22.0736 C   0  0  0  0  0  0  0  0  0  0  0  0
   -9.1662   -2.0198  -22.6376 C   0  0  1  0  0  0  0  0  0  0  0  0
   -8.6921   -1.0458  -21.5358 C   0  0  0  0  0  0  0  0  0  0  0  0
   -7.3451   -1.4665  -21.2140 N   0  0  0  0  0  0  0  0  0  0  0  0
   -6.5646   -0.8610  -20.1898 C   0  0  0  0  0  0  0  0  0  0  0  0
   -6.8902   -1.0571  -18.8724 C   0  0  0  0  0  0  0  0  0  0  0  0
   -6.2038   -0.5461  -17.8225 N   0  0  0  0  0  0  0  0  0  0  0  0
   -5.1669    0.2120  -18.0828 C   0  0  0  0  0  0  0  0  0  0  0  0
   -4.7312    0.5304  -19.3983 C   0  0  0  0  0  0  0  0  0  0  0  0
   -3.6051    1.3646  -19.6327 C   0  0  0  0  0  0  0  0  0  0  0  0
   -3.2220    1.6653  -20.9098 C   0  0  0  0  0  0  0  0  0  0  0  0
   -3.9529    1.1535  -22.0071 C   0  0  0  0  0  0  0  0  0  0  0  0
   -5.0446    0.3484  -21.8091 C   0  0  0  0  0  0  0  0  0  0  0  0
   -5.4506   -0.0080  -20.4927 C   0  0  0  0  0  0  0  0  0  0  0  0
   -5.5984   -0.0422  -22.6630 H   0  0  0  0  0  0  0  0  0  0  0  0
   -3.6423    1.4000  -23.0193 H   0  0  0  0  0  0  0  0  0  0  0  0
   -2.3646    2.3117  -21.0944 H   0  0  0  0  0  0  0  0  0  0  0  0
   -3.0681    1.7681  -18.7769 H   0  0  0  0  0  0  0  0  0  0  0  0
   -4.6224    0.6147  -17.2276 H   0  0  0  0  0  0  0  0  0  0  0  0
   -7.7452   -1.6776  -18.6030 H   0  0  0  0  0  0  0  0  0  0  0  0
   -6.8243   -2.3978  -22.0826 C   0  0  0  0  0  0  0  0  0  0  0  0
   -5.7070   -2.8639  -21.9866 O   0  0  0  0  0  0  0  0  0  0  0  0
   -7.8673   -2.6974  -23.1810 C   0  0  1  0  0  0  0  0  0  0  0  0
   -8.0161   -4.2182  -23.3863 C   0  0  0  0  0  0  0  0  0  0  0  0
   -6.8334   -4.8044  -23.9833 N   0  0  0  0  0  0  0  0  0  0  0  0
   -6.2997   -6.0678  -23.4995 C   0  0  0  0  0  0  0  0  0  0  0  0
   -4.9749   -5.9215  -22.8636 C   0  0  0  0  0  0  0  0  0  0  0  0
   -3.9420   -5.8114  -22.3579 N   0  0  0  0  0  0  0  0  0  0  0  0
   -6.9899   -6.4904  -22.7639 H   0  0  0  0  0  0  0  0  0  0  0  0
   -6.2173   -6.7900  -24.3182 H   0  0  0  0  0  0  0  0  0  0  0  0
   -6.2668   -4.2691  -25.1094 C   0  0  0  0  0  0  0  0  0  0  0  0
   -5.4905   -4.9180  -25.7926 O   0  0  0  0  0  0  0  0  0  0  0  0
   -6.6305   -2.8391  -25.3944 C   0  0  0  0  0  0  0  0  0  0  0  0
   -6.1388   -2.2604  -26.5642 C   0  0  0  0  0  0  0  0  0  0  0  0
   -6.3509   -0.9277  -26.8474 C   0  0  0  0  0  0  0  0  0  0  0  0
   -7.0518   -0.1790  -25.9126 C   0  0  0  0  0  0  0  0  0  0  0  0
   -7.2463    1.1276  -26.1631 F   0  0  0  0  0  0  0  0  0  0  0  0
   -7.5551   -0.7179  -24.7443 C   0  0  0  0  0  0  0  0  0  0  0  0
   -7.3818   -2.0843  -24.4856 C   0  0  0  0  0  0  0  0  0  0  0  0
   -8.0673   -0.0467  -24.0602 H   0  0  0  0  0  0  0  0  0  0  0  0
   -5.9829   -0.4430  -27.7471 H   0  0  0  0  0  0  0  0  0  0  0  0
   -5.5683   -2.8757  -27.2451 H   0  0  0  0  0  0  0  0  0  0  0  0
   -8.9021   -4.4146  -24.0111 H   0  0  0  0  0  0  0  0  0  0  0  0
   -8.1577   -4.6971  -22.4211 H   0  0  0  0  0  0  0  0  0  0  0  0
   -8.7330    0.0102  -21.8474 H   0  0  0  0  0  0  0  0  0  0  0  0
   -9.3302   -1.1373  -20.6621 H   0  0  0  0  0  0  0  0  0  0  0  0
   -9.6575   -1.4612  -23.4442 H   0  0  0  0  0  0  0  0  0  0  0  0
  -11.1050   -2.3950  -21.6901 H   0  0  0  0  0  0  0  0  0  0  0  0
   -9.8703   -3.5822  -21.2444 H   0  0  0  0  0  0  0  0  0  0  0  0
  -10.6366   -3.6488  -22.8393 H   0  0  0  0  0  0  0  0  0  0  0  0
  1  2  1  0
  2  3  1  0
  3  4  1  0
  4  5  1  0
  5  6  2  0
  6  7  1  0
  7  8  2  0
  8  9  1  0
  9 10  2  0
 10 11  1  0
 11 12  2  0
 12 13  1  0
 13 14  2  0
 13 15  1  0
 12 16  1  0
 11 17  1  0
 10 18  1  0
  8 19  1  0
  6 20  1  0
  4 21  1  0
 21 22  2  0
 21 23  1  0
 23 24  1  6
 24 25  1  0
 25 26  1  0
 26 27  1  0
 27 28  3  0
 26 29  1  0
 26 30  1  0
 25 31  1  0
 31 32  2  0
 31 33  1  0
 33 34  2  0
 34 35  1  0
 35 36  2  0
 36 37  1  0
 36 38  1  0
 38 39  2  0
 38 40  1  0
 35 41  1  0
 34 42  1  0
 24 43  1  0
 24 44  1  0
  3 45  1  0
  3 46  1  0
  2 47  1  6
  1 48  1  0
  1 49  1  0
  1 50  1  0
 23  2  1  0
 39 33  1  0
 14  5  1  0
 39 23  1  0
 14  9  1  0
M  END
>  <cnnaffinities>  (44) 
[6.03169, 6.20243, 5.90549]

>  <score>  (44) 
6.03169

>  <index>  (44) 
46

>  <Smiles>  (44) 
C([C@]1(C(N(c2c(nc(c3c(c(c(c(c23)[H])[H])[H])[H])[H])[H])C(=O)[C@]21C(N(C(C#N)([H])[H])C(=O)c1c(c(c(F)c(c21)[H])[H])[H])([H])[H])([H])[H])[H])([H])([H])[H]

>  <h>  (44) 
<NA>

>  <Training>  (44) 
True

>  <Success>  (44) 
True

>  <enamine_searched>  (44) 
False

>  <enamine_id>  (44) 
nan

$$$$

     RDKit          3D

 58 63  0  0  0  0  0  0  0  0999 V2000
   -8.5731    0.5683  -21.0501 O   0  0  0  0  0  0  0  0  0  0  0  0
   -8.1265   -0.2380  -21.8432 C   0  0  0  0  0  0  0  0  0  0  0  0
   -7.3523   -1.4474  -21.3030 C   0  0  0  0  0  0  0  0  0  0  0  0
   -6.4941   -0.9244  -20.1850 C   0  0  0  0  0  0  0  0  0  0  0  0
   -6.8496   -1.1010  -18.8747 C   0  0  0  0  0  0  0  0  0  0  0  0
   -6.2006   -0.5643  -17.8119 N   0  0  0  0  0  0  0  0  0  0  0  0
   -5.1748    0.2106  -18.0747 C   0  0  0  0  0  0  0  0  0  0  0  0
   -4.7225    0.5221  -19.3864 C   0  0  0  0  0  0  0  0  0  0  0  0
   -3.6143    1.3744  -19.6225 C   0  0  0  0  0  0  0  0  0  0  0  0
   -3.2167    1.6644  -20.9004 C   0  0  0  0  0  0  0  0  0  0  0  0
   -3.9279    1.1341  -22.0001 C   0  0  0  0  0  0  0  0  0  0  0  0
   -5.0193    0.3243  -21.7964 C   0  0  0  0  0  0  0  0  0  0  0  0
   -5.4202   -0.0381  -20.4798 C   0  0  0  0  0  0  0  0  0  0  0  0
   -5.5807   -0.0399  -22.6532 H   0  0  0  0  0  0  0  0  0  0  0  0
   -3.6076    1.3700  -23.0133 H   0  0  0  0  0  0  0  0  0  0  0  0
   -2.3600    2.3083  -21.0788 H   0  0  0  0  0  0  0  0  0  0  0  0
   -3.0911    1.7843  -18.7613 H   0  0  0  0  0  0  0  0  0  0  0  0
   -4.6360    0.6266  -17.2222 H   0  0  0  0  0  0  0  0  0  0  0  0
   -7.7323   -1.6908  -18.6288 H   0  0  0  0  0  0  0  0  0  0  0  0
   -6.7562   -1.9502  -22.0667 H   0  0  0  0  0  0  0  0  0  0  0  0
   -8.0706   -2.1835  -20.9266 H   0  0  0  0  0  0  0  0  0  0  0  0
   -8.2183   -0.0321  -23.2087 N   0  0  0  0  0  0  0  0  0  0  0  0
   -8.1211   -1.0795  -24.2227 C   0  0  0  0  0  0  0  0  0  0  0  0
   -9.1908   -2.1545  -24.1227 C   0  0  0  0  0  0  0  0  0  0  0  0
  -10.5357   -1.9435  -24.4377 C   0  0  0  0  0  0  0  0  0  0  0  0
  -11.4518   -2.9830  -24.3154 C   0  0  0  0  0  0  0  0  0  0  0  0
  -11.0798   -4.2390  -23.8558 C   0  0  0  0  0  0  0  0  0  0  0  0
   -9.7391   -4.4539  -23.5800 C   0  0  0  0  0  0  0  0  0  0  0  0
   -9.2043   -6.0478  -23.1212 Cl  0  0  0  0  0  0  0  0  0  0  0  0
   -8.8083   -3.4318  -23.7091 C   0  0  0  0  0  0  0  0  0  0  0  0
   -7.7682   -3.6492  -23.4796 H   0  0  0  0  0  0  0  0  0  0  0  0
  -11.8099   -5.0328  -23.7326 H   0  0  0  0  0  0  0  0  0  0  0  0
  -12.4819   -2.8695  -24.6037 H   0  0  0  0  0  0  0  0  0  0  0  0
  -10.8776   -0.9674  -24.7872 H   0  0  0  0  0  0  0  0  0  0  0  0
   -7.1383   -1.5674  -24.1781 H   0  0  0  0  0  0  0  0  0  0  0  0
   -8.1405   -0.5865  -25.1964 H   0  0  0  0  0  0  0  0  0  0  0  0
   -8.4624    1.3405  -23.5839 C   0  0  2  0  0  0  0  0  0  0  0  0
   -7.4145    2.3698  -23.1254 C   0  0  0  0  0  0  0  0  0  0  0  0
   -8.0449    3.6256  -23.6861 N   0  0  1  0  0  4  0  0  0  0  0  0
   -7.2010    4.4430  -24.5631 C   0  0  0  0  0  0  0  0  0  0  0  0
   -7.5661    5.8779  -24.7641 C   0  0  0  0  0  0  0  0  0  0  0  0
   -6.3542    5.5073  -23.9507 C   0  0  0  0  0  0  0  0  0  0  0  0
   -6.4129    5.5878  -22.8718 H   0  0  0  0  0  0  0  0  0  0  0  0
   -5.3671    5.6856  -24.3596 H   0  0  0  0  0  0  0  0  0  0  0  0
   -7.4233    6.3090  -25.7473 H   0  0  0  0  0  0  0  0  0  0  0  0
   -8.4498    6.2360  -24.2466 H   0  0  0  0  0  0  0  0  0  0  0  0
   -6.8014    3.9182  -25.4181 H   0  0  0  0  0  0  0  0  0  0  0  0
   -9.2649    3.0228  -24.3637 C   0  0  2  0  0  0  0  0  0  0  0  0
   -9.7746    2.0997  -23.2583 C   0  0  0  0  0  0  0  0  0  0  0  0
  -10.6758    1.5527  -23.5312 H   0  0  0  0  0  0  0  0  0  0  0  0
   -9.8481    2.5330  -22.2599 H   0  0  0  0  0  0  0  0  0  0  0  0
   -8.6821    1.7763  -25.0412 C   0  0  0  0  0  0  0  0  0  0  0  0
   -9.4227    1.1584  -25.5392 H   0  0  0  0  0  0  0  0  0  0  0  0
   -7.7965    1.9116  -25.6679 H   0  0  0  0  0  0  0  0  0  0  0  0
   -9.8785    3.7538  -24.8767 H   0  0  0  0  0  0  0  0  0  0  0  0
   -8.3641    4.2242  -22.8983 H   0  0  0  0  0  0  0  0  0  0  0  0
   -7.3440    2.4226  -22.0416 H   0  0  0  0  0  0  0  0  0  0  0  0
   -6.4279    2.2161  -23.5585 H   0  0  0  0  0  0  0  0  0  0  0  0
  1  2  2  0
  2  3  1  0
  3  4  1  0
  4  5  2  0
  5  6  1  0
  6  7  2  0
  7  8  1  0
  8  9  2  0
  9 10  1  0
 10 11  2  0
 11 12  1  0
 12 13  2  0
 12 14  1  0
 11 15  1  0
 10 16  1  0
  9 17  1  0
  7 18  1  0
  5 19  1  0
  3 20  1  0
  3 21  1  0
  2 22  1  0
 22 23  1  0
 23 24  1  0
 24 25  2  0
 25 26  1  0
 26 27  2  0
 27 28  1  0
 28 29  1  0
 28 30  2  0
 30 31  1  0
 27 32  1  0
 26 33  1  0
 25 34  1  0
 23 35  1  0
 23 36  1  0
 37 22  1  6
 37 38  1  0
 38 39  1  0
 39 40  1  0
 40 41  1  0
 41 42  1  0
 42 43  1  0
 42 44  1  0
 41 45  1  0
 41 46  1  0
 40 47  1  0
 39 48  1  0
 48 49  1  0
 49 50  1  0
 49 51  1  0
 48 52  1  0
 52 53  1  0
 52 54  1  0
 48 55  1  6
 39 56  1  1
 38 57  1  0
 38 58  1  0
 13  4  1  0
 30 24  1  0
 49 37  1  0
 13  8  1  0
 52 37  1  0
 42 40  1  0
M  CHG  1  39   1
M  END
>  <cnnaffinities>  (45) 
[5.99622, 6.04593]

>  <score>  (45) 
5.99622

>  <index>  (45) 
47

>  <Smiles>  (45) 
O=C(C(c1c(nc(c2c(c(c(c(c12)[H])[H])[H])[H])[H])[H])([H])[H])N(C(c1c(c(c(c(Cl)c1[H])[H])[H])[H])([H])[H])[C@]12C([N@@+](C3(C(C3([H])[H])([H])[H])[H])([C@](C1([H])[H])(C2([H])[H])[H])[H])([H])[H]

>  <h>  (45) 
<NA>

>  <Training>  (45) 
True

>  <Success>  (45) 
True

>  <enamine_searched>  (45) 
False

>  <enamine_id>  (45) 
nan

$$$$

     RDKit          3D

 46 48  0  0  0  0  0  0  0  0999 V2000
   -8.5209   -6.7750  -25.9041 C   0  0  0  0  0  0  0  0  0  0  0  0
   -9.6181   -6.7234  -24.8445 C   0  0  0  0  0  0  0  0  0  0  0  0
  -10.9826   -6.5495  -25.5087 C   0  0  0  0  0  0  0  0  0  0  0  0
  -11.7885   -6.5197  -24.7708 H   0  0  0  0  0  0  0  0  0  0  0  0
  -11.1923   -7.3740  -26.1985 H   0  0  0  0  0  0  0  0  0  0  0  0
  -11.0369   -5.6270  -26.0951 H   0  0  0  0  0  0  0  0  0  0  0  0
   -9.3746   -5.6731  -23.7308 C   0  0  0  0  0  0  0  0  0  0  0  0
   -9.2863   -4.2308  -24.2388 C   0  0  0  0  0  0  0  0  0  0  0  0
   -8.8350   -3.2509  -23.1581 C   0  0  0  0  0  0  0  0  0  0  0  0
   -7.5546   -3.6299  -22.5667 N   0  0  0  0  0  0  0  0  0  0  0  0
   -6.7695   -2.7733  -21.8330 C   0  0  0  0  0  0  0  0  0  0  0  0
   -5.5951   -3.0218  -21.6041 O   0  0  0  0  0  0  0  0  0  0  0  0
   -7.4184   -1.4849  -21.2645 C   0  0  0  0  0  0  0  0  0  0  0  0
   -6.5820   -0.8302  -20.1851 C   0  0  0  0  0  0  0  0  0  0  0  0
   -6.8739   -1.0443  -18.8650 C   0  0  0  0  0  0  0  0  0  0  0  0
   -6.1843   -0.5497  -17.8024 N   0  0  0  0  0  0  0  0  0  0  0  0
   -5.1585    0.2217  -18.0655 C   0  0  0  0  0  0  0  0  0  0  0  0
   -4.7220    0.5321  -19.3811 C   0  0  0  0  0  0  0  0  0  0  0  0
   -3.5927    1.3589  -19.6209 C   0  0  0  0  0  0  0  0  0  0  0  0
   -3.1898    1.6333  -20.8989 C   0  0  0  0  0  0  0  0  0  0  0  0
   -3.9007    1.0884  -21.9922 C   0  0  0  0  0  0  0  0  0  0  0  0
   -4.9980    0.2884  -21.7861 C   0  0  0  0  0  0  0  0  0  0  0  0
   -5.4457   -0.0121  -20.4744 C   0  0  0  0  0  0  0  0  0  0  0  0
   -5.5231   -0.1337  -22.6372 H   0  0  0  0  0  0  0  0  0  0  0  0
   -3.5719    1.3087  -23.0037 H   0  0  0  0  0  0  0  0  0  0  0  0
   -2.3280    2.2701  -21.0868 H   0  0  0  0  0  0  0  0  0  0  0  0
   -3.0552    1.7748  -18.7696 H   0  0  0  0  0  0  0  0  0  0  0  0
   -4.6033    0.6279  -17.2158 H   0  0  0  0  0  0  0  0  0  0  0  0
   -7.7202   -1.6692  -18.5859 H   0  0  0  0  0  0  0  0  0  0  0  0
   -8.4101   -1.7194  -20.8490 H   0  0  0  0  0  0  0  0  0  0  0  0
   -7.5939   -0.7630  -22.0744 H   0  0  0  0  0  0  0  0  0  0  0  0
   -7.0450   -4.9615  -22.8921 C   0  0  0  0  0  0  0  0  0  0  0  0
   -8.1578   -6.0052  -22.8398 C   0  0  0  0  0  0  0  0  0  0  0  0
   -7.7501   -6.9873  -23.1007 H   0  0  0  0  0  0  0  0  0  0  0  0
   -8.4819   -6.1014  -21.7991 H   0  0  0  0  0  0  0  0  0  0  0  0
   -6.2607   -5.2119  -22.1791 H   0  0  0  0  0  0  0  0  0  0  0  0
   -6.5669   -4.9638  -23.8800 H   0  0  0  0  0  0  0  0  0  0  0  0
   -8.7485   -2.2550  -23.6049 H   0  0  0  0  0  0  0  0  0  0  0  0
   -9.6117   -3.1738  -22.3866 H   0  0  0  0  0  0  0  0  0  0  0  0
  -10.2646   -3.9086  -24.6038 H   0  0  0  0  0  0  0  0  0  0  0  0
   -8.6179   -4.1502  -25.1009 H   0  0  0  0  0  0  0  0  0  0  0  0
  -10.2578   -5.7144  -23.0784 H   0  0  0  0  0  0  0  0  0  0  0  0
   -9.6324   -7.7017  -24.3467 H   0  0  0  0  0  0  0  0  0  0  0  0
   -7.5189   -6.8330  -25.4682 H   0  0  0  0  0  0  0  0  0  0  0  0
   -8.5445   -5.8927  -26.5514 H   0  0  0  0  0  0  0  0  0  0  0  0
   -8.6456   -7.6485  -26.5533 H   0  0  0  0  0  0  0  0  0  0  0  0
  1  2  1  0
  2  3  1  0
  3  4  1  0
  3  5  1  0
  3  6  1  0
  2  7  1  0
  7  8  1  0
  8  9  1  0
  9 10  1  0
 10 11  1  0
 11 12  2  0
 11 13  1  0
 13 14  1  0
 14 15  2  0
 15 16  1  0
 16 17  2  0
 17 18  1  0
 18 19  2  0
 19 20  1  0
 20 21  2  0
 21 22  1  0
 22 23  2  0
 22 24  1  0
 21 25  1  0
 20 26  1  0
 19 27  1  0
 17 28  1  0
 15 29  1  0
 13 30  1  0
 13 31  1  0
 10 32  1  0
 32 33  1  0
 33 34  1  0
 33 35  1  0
 32 36  1  0
 32 37  1  0
  9 38  1  0
  9 39  1  0
  8 40  1  0
  8 41  1  0
  7 42  1  0
  2 43  1  0
  1 44  1  0
  1 45  1  0
  1 46  1  0
 33  7  1  0
 23 14  1  0
 23 18  1  0
M  END
>  <cnnaffinities>  (46) 
[5.45034, 5.47473, 5.47495, 5.47639, 5.45135, 5.45133, 5.45143, 5.46546]

>  <score>  (46) 
5.45034

>  <index>  (46) 
48

>  <Smiles>  (46) 
C(C(C([H])([H])[H])(C1(C(C(N(C(=O)C(c2c(nc(c3c(c(c(c(c23)[H])[H])[H])[H])[H])[H])([H])[H])C(C1([H])[H])([H])[H])([H])[H])([H])[H])[H])[H])([H])([H])[H]

>  <h>  (46) 
<NA>

>  <Training>  (46) 
True

>  <Success>  (46) 
True

>  <enamine_searched>  (46) 
False

>  <enamine_id>  (46) 
nan

$$$$

     RDKit          3D

 67 72  0  0  0  0  0  0  0  0999 V2000
   -5.3029   -8.5941  -23.6882 C   0  0  0  0  0  0  0  0  0  0  0  0
   -6.4186   -7.8705  -23.1111 N   0  0  0  0  0  0  0  0  0  0  0  0
   -7.4585   -7.4750  -23.8961 C   0  0  0  0  0  0  0  0  0  0  0  0
   -7.4590   -7.6253  -25.1027 O   0  0  0  0  0  0  0  0  0  0  0  0
   -8.6181   -6.7866  -23.1697 C   0  0  0  0  0  0  0  0  0  0  0  0
   -8.6354   -5.3543  -23.4443 N   0  0  0  0  0  0  0  0  0  0  0  0
   -7.7704   -4.5292  -22.6142 C   0  0  0  0  0  0  0  0  0  0  0  0
   -7.8897   -3.0058  -22.8687 C   0  0  2  0  0  0  0  0  0  0  0  0
   -6.7279   -2.3724  -22.0863 C   0  0  0  0  0  0  0  0  0  0  0  0
   -5.5641   -2.7293  -22.1052 O   0  0  0  0  0  0  0  0  0  0  0  0
   -7.2187   -1.3509  -21.3060 N   0  0  0  0  0  0  0  0  0  0  0  0
   -6.4673   -0.7838  -20.2426 C   0  0  0  0  0  0  0  0  0  0  0  0
   -6.8270   -1.0124  -18.9372 C   0  0  0  0  0  0  0  0  0  0  0  0
   -6.1695   -0.5260  -17.8557 N   0  0  0  0  0  0  0  0  0  0  0  0
   -5.1289    0.2401  -18.0796 C   0  0  0  0  0  0  0  0  0  0  0  0
   -4.6525    0.5650  -19.3802 C   0  0  0  0  0  0  0  0  0  0  0  0
   -3.5273    1.4113  -19.5669 C   0  0  0  0  0  0  0  0  0  0  0  0
   -3.0964    1.7239  -20.8269 C   0  0  0  0  0  0  0  0  0  0  0  0
   -3.7669    1.2040  -21.9575 C   0  0  0  0  0  0  0  0  0  0  0  0
   -4.8538    0.3826  -21.8019 C   0  0  0  0  0  0  0  0  0  0  0  0
   -5.3289    0.0393  -20.5033 C   0  0  0  0  0  0  0  0  0  0  0  0
   -5.3557   -0.0206  -22.6760 H   0  0  0  0  0  0  0  0  0  0  0  0
   -3.4222    1.4601  -22.9561 H   0  0  0  0  0  0  0  0  0  0  0  0
   -2.2455    2.3840  -20.9730 H   0  0  0  0  0  0  0  0  0  0  0  0
   -3.0283    1.8104  -18.6874 H   0  0  0  0  0  0  0  0  0  0  0  0
   -4.6023    0.6443  -17.2133 H   0  0  0  0  0  0  0  0  0  0  0  0
   -7.6886   -1.6406  -18.7131 H   0  0  0  0  0  0  0  0  0  0  0  0
   -8.5620   -0.9608  -21.6875 C   0  0  0  0  0  0  0  0  0  0  0  0
   -9.1483   -2.2301  -22.3187 C   0  0  2  0  0  0  0  0  0  0  0  0
  -10.0532   -2.9645  -21.3435 C   0  0  0  0  0  0  0  0  0  0  0  0
  -10.8092   -3.9986  -21.9793 N   0  0  0  0  0  0  0  0  0  0  0  0
  -12.0441   -3.7836  -22.5409 C   0  0  0  0  0  0  0  0  0  0  0  0
  -13.1156   -3.0690  -22.1002 C   0  0  0  0  0  0  0  0  0  0  0  0
  -14.3082   -3.3272  -22.7409 N   0  0  0  0  0  0  0  0  0  0  0  0
  -14.1368   -4.1664  -23.7168 C   0  0  0  0  0  0  0  0  0  0  0  0
  -15.2713   -4.8051  -24.4520 C   0  0  0  0  0  0  0  0  0  0  0  0
  -16.0038   -4.0371  -24.7126 H   0  0  0  0  0  0  0  0  0  0  0  0
  -14.9661   -5.3598  -25.3456 H   0  0  0  0  0  0  0  0  0  0  0  0
  -15.7640   -5.5048  -23.7677 H   0  0  0  0  0  0  0  0  0  0  0  0
  -12.4816   -4.6520  -23.9932 S   0  0  0  0  0  0  0  0  0  0  0  0
  -13.1169   -2.3433  -21.2902 H   0  0  0  0  0  0  0  0  0  0  0  0
  -10.2728   -4.7479  -22.4116 H   0  0  0  0  0  0  0  0  0  0  0  0
   -9.4782   -3.3881  -20.5197 H   0  0  0  0  0  0  0  0  0  0  0  0
  -10.7595   -2.2358  -20.9381 H   0  0  0  0  0  0  0  0  0  0  0  0
   -9.8123   -1.9854  -23.1560 H   0  0  0  0  0  0  0  0  0  0  0  0
   -9.1242   -0.6156  -20.8180 H   0  0  0  0  0  0  0  0  0  0  0  0
   -8.5414   -0.1500  -22.4309 H   0  0  0  0  0  0  0  0  0  0  0  0
   -7.8479   -2.7768  -24.3701 C   0  0  0  0  0  0  0  0  0  0  0  0
   -7.3996   -1.5652  -24.9107 C   0  0  0  0  0  0  0  0  0  0  0  0
   -7.7093   -1.2408  -26.2246 C   0  0  0  0  0  0  0  0  0  0  0  0
   -7.2716    0.3194  -26.8605 Cl  0  0  0  0  0  0  0  0  0  0  0  0
   -8.4007   -2.1234  -27.0524 C   0  0  0  0  0  0  0  0  0  0  0  0
   -8.7977   -3.3422  -26.5349 C   0  0  0  0  0  0  0  0  0  0  0  0
   -8.5350   -3.6633  -25.2043 C   0  0  0  0  0  0  0  0  0  0  0  0
   -9.0688   -4.9627  -24.6931 C   0  0  0  0  0  0  0  0  0  0  0  0
   -9.8582   -5.6350  -25.3394 O   0  0  0  0  0  0  0  0  0  0  0  0
   -9.3295   -4.0705  -27.1391 H   0  0  0  0  0  0  0  0  0  0  0  0
   -8.6304   -1.8527  -28.0777 H   0  0  0  0  0  0  0  0  0  0  0  0
   -6.8227   -0.8680  -24.3108 H   0  0  0  0  0  0  0  0  0  0  0  0
   -8.0010   -4.7353  -21.5633 H   0  0  0  0  0  0  0  0  0  0  0  0
   -6.7232   -4.8201  -22.7647 H   0  0  0  0  0  0  0  0  0  0  0  0
   -9.5568   -7.2095  -23.5369 H   0  0  0  0  0  0  0  0  0  0  0  0
   -8.5279   -6.9251  -22.0900 H   0  0  0  0  0  0  0  0  0  0  0  0
   -6.4850   -7.7710  -22.1120 H   0  0  0  0  0  0  0  0  0  0  0  0
   -5.3181   -8.4260  -24.7674 H   0  0  0  0  0  0  0  0  0  0  0  0
   -5.3815   -9.6722  -23.5035 H   0  0  0  0  0  0  0  0  0  0  0  0
   -4.3614   -8.2245  -23.2787 H   0  0  0  0  0  0  0  0  0  0  0  0
  1  2  1  0
  2  3  1  0
  3  4  2  0
  3  5  1  0
  5  6  1  0
  6  7  1  0
  8  7  1  6
  8  9  1  0
  9 10  2  0
  9 11  1  0
 11 12  1  0
 12 13  2  0
 13 14  1  0
 14 15  2  0
 15 16  1  0
 16 17  2  0
 17 18  1  0
 18 19  2  0
 19 20  1  0
 20 21  2  0
 20 22  1  0
 19 23  1  0
 18 24  1  0
 17 25  1  0
 15 26  1  0
 13 27  1  0
 11 28  1  0
 28 29  1  0
 29 30  1  0
 30 31  1  0
 31 32  1  0
 32 33  2  0
 33 34  1  0
 34 35  2  0
 35 36  1  0
 36 37  1  0
 36 38  1  0
 36 39  1  0
 35 40  1  0
 33 41  1  0
 31 42  1  0
 30 43  1  0
 30 44  1  0
 29 45  1  6
 28 46  1  0
 28 47  1  0
  8 48  1  0
 48 49  2  0
 49 50  1  0
 50 51  1  0
 50 52  2  0
 52 53  1  0
 53 54  2  0
 54 55  1  0
 55 56  2  0
 53 57  1  0
 52 58  1  0
 49 59  1  0
  7 60  1  0
  7 61  1  0
  5 62  1  0
  5 63  1  0
  2 64  1  0
  1 65  1  0
  1 66  1  0
  1 67  1  0
 55  6  1  0
 29  8  1  0
 40 32  1  0
 54 48  1  0
 21 12  1  0
 21 16  1  0
M  END
>  <cnnaffinities>  (47) 
[7.54423, 6.78764]

>  <score>  (47) 
7.54423

>  <index>  (47) 
49

>  <Smiles>  (47) 
C(N(C(=O)C(N1C([C@@]2(C(=O)N(c3c(nc(c4c(c(c(c(c34)[H])[H])[H])[H])[H])[H])C([C@@]2(C(N(c2c(nc(C([H])([H])[H])s2)[H])[H])([H])[H])[H])([H])[H])c2c(c(Cl)c(c(c2C1=O)[H])[H])[H])([H])[H])([H])[H])[H])([H])([H])[H]

>  <h>  (47) 
<NA>

>  <Training>  (47) 
True

>  <Success>  (47) 
True

>  <enamine_searched>  (47) 
False

>  <enamine_id>  (47) 
nan

$$$$

     RDKit          3D

 66 70  0  0  0  0  0  0  0  0999 V2000
   -5.7531    0.0027  -29.3893 C   0  0  0  0  0  0  0  0  0  0  0  0
   -5.5885    0.3277  -27.9891 N   0  0  0  0  0  0  0  0  0  0  0  0
   -4.9409   -0.5143  -27.1394 C   0  0  0  0  0  0  0  0  0  0  0  0
   -4.3198   -1.4947  -27.5092 O   0  0  0  0  0  0  0  0  0  0  0  0
   -5.0487   -0.1425  -25.6443 C   0  0  0  0  0  0  0  0  0  0  0  0
   -6.2666   -0.6324  -25.0014 N   0  0  0  0  0  0  0  0  0  0  0  0
   -6.1750   -1.8802  -24.2519 C   0  0  0  0  0  0  0  0  0  0  0  0
   -7.3487   -2.0759  -23.2446 C   0  0  2  0  0  0  0  0  0  0  0  0
   -7.1438   -1.1508  -22.0283 C   0  0  0  0  0  0  0  0  0  0  0  0
   -7.5608   -0.0264  -21.8887 O   0  0  0  0  0  0  0  0  0  0  0  0
   -6.4088   -1.8370  -21.0852 N   0  0  0  0  0  0  0  0  0  0  0  0
   -5.8902   -1.1345  -19.9709 C   0  0  0  0  0  0  0  0  0  0  0  0
   -6.3569   -1.3859  -18.7065 C   0  0  0  0  0  0  0  0  0  0  0  0
   -5.9353   -0.7423  -17.5893 N   0  0  0  0  0  0  0  0  0  0  0  0
   -5.0029    0.1701  -17.7254 C   0  0  0  0  0  0  0  0  0  0  0  0
   -4.4221    0.5260  -18.9743 C   0  0  0  0  0  0  0  0  0  0  0  0
   -3.3873    1.4952  -19.0725 C   0  0  0  0  0  0  0  0  0  0  0  0
   -2.9054    1.8749  -20.2938 C   0  0  0  0  0  0  0  0  0  0  0  0
   -3.4315    1.2961  -21.4723 C   0  0  0  0  0  0  0  0  0  0  0  0
   -4.4146    0.3443  -21.4017 C   0  0  0  0  0  0  0  0  0  0  0  0
   -4.9063   -0.1038  -20.1425 C   0  0  0  0  0  0  0  0  0  0  0  0
   -4.8364   -0.0636  -22.3153 H   0  0  0  0  0  0  0  0  0  0  0  0
   -3.0755    1.6295  -22.4421 H   0  0  0  0  0  0  0  0  0  0  0  0
   -2.1219    2.6240  -20.3723 H   0  0  0  0  0  0  0  0  0  0  0  0
   -3.0158    1.9483  -18.1578 H   0  0  0  0  0  0  0  0  0  0  0  0
   -4.6759    0.6973  -16.8269 H   0  0  0  0  0  0  0  0  0  0  0  0
   -7.1470   -2.1212  -18.5536 H   0  0  0  0  0  0  0  0  0  0  0  0
   -6.2226   -3.2435  -21.4327 C   0  0  0  0  0  0  0  0  0  0  0  0
   -7.2873   -3.4520  -22.5283 C   0  0  2  0  0  0  0  0  0  0  0  0
   -7.0813   -4.6765  -23.4138 C   0  0  0  0  0  0  0  0  0  0  0  0
   -7.3053   -5.8482  -22.6586 O   0  0  0  0  0  0  0  0  0  0  0  0
   -7.2023   -7.0596  -23.4011 C   0  0  0  0  0  0  0  0  0  0  0  0
   -8.5225   -7.4136  -24.0840 C   0  0  0  0  0  0  0  0  0  0  0  0
   -8.8820   -6.5997  -24.7214 H   0  0  0  0  0  0  0  0  0  0  0  0
   -8.3969   -8.2972  -24.7191 H   0  0  0  0  0  0  0  0  0  0  0  0
   -9.2944   -7.6236  -23.3364 H   0  0  0  0  0  0  0  0  0  0  0  0
   -6.7619   -8.1296  -22.4093 C   0  0  0  0  0  0  0  0  0  0  0  0
   -7.6051   -8.4328  -21.7790 H   0  0  0  0  0  0  0  0  0  0  0  0
   -6.3633   -9.0162  -22.9136 H   0  0  0  0  0  0  0  0  0  0  0  0
   -5.9757   -7.7250  -21.7654 H   0  0  0  0  0  0  0  0  0  0  0  0
   -6.4241   -6.9369  -24.1712 H   0  0  0  0  0  0  0  0  0  0  0  0
   -7.7666   -4.6357  -24.2771 H   0  0  0  0  0  0  0  0  0  0  0  0
   -6.0506   -4.6800  -23.8096 H   0  0  0  0  0  0  0  0  0  0  0  0
   -8.2426   -3.5761  -22.0152 H   0  0  0  0  0  0  0  0  0  0  0  0
   -6.3642   -3.8929  -20.5691 H   0  0  0  0  0  0  0  0  0  0  0  0
   -5.2207   -3.4394  -21.8415 H   0  0  0  0  0  0  0  0  0  0  0  0
   -8.6604   -1.7057  -23.8795 C   0  0  0  0  0  0  0  0  0  0  0  0
   -9.8745   -2.1170  -23.3222 C   0  0  0  0  0  0  0  0  0  0  0  0
  -11.0605   -1.7111  -23.8989 C   0  0  0  0  0  0  0  0  0  0  0  0
  -12.2095   -2.1326  -23.3455 F   0  0  0  0  0  0  0  0  0  0  0  0
  -11.1002   -0.8793  -25.0195 C   0  0  0  0  0  0  0  0  0  0  0  0
   -9.9001   -0.3993  -25.4995 C   0  0  0  0  0  0  0  0  0  0  0  0
   -8.6939   -0.7617  -24.9113 C   0  0  0  0  0  0  0  0  0  0  0  0
   -7.4487   -0.0776  -25.3757 C   0  0  0  0  0  0  0  0  0  0  0  0
   -7.4964    0.9291  -26.0906 O   0  0  0  0  0  0  0  0  0  0  0  0
   -9.8542    0.2903  -26.3311 H   0  0  0  0  0  0  0  0  0  0  0  0
  -12.0367   -0.6029  -25.4882 H   0  0  0  0  0  0  0  0  0  0  0  0
   -9.9060   -2.7096  -22.4136 H   0  0  0  0  0  0  0  0  0  0  0  0
   -6.1242   -2.7205  -24.9535 H   0  0  0  0  0  0  0  0  0  0  0  0
   -5.2220   -1.8670  -23.7091 H   0  0  0  0  0  0  0  0  0  0  0  0
   -4.1854   -0.5917  -25.1477 H   0  0  0  0  0  0  0  0  0  0  0  0
   -5.0134    0.9423  -25.5111 H   0  0  0  0  0  0  0  0  0  0  0  0
   -6.2793    0.9380  -27.5737 H   0  0  0  0  0  0  0  0  0  0  0  0
   -4.7950   -0.2824  -29.8306 H   0  0  0  0  0  0  0  0  0  0  0  0
   -6.1319    0.8882  -29.9096 H   0  0  0  0  0  0  0  0  0  0  0  0
   -6.4641   -0.8180  -29.5413 H   0  0  0  0  0  0  0  0  0  0  0  0
  1  2  1  0
  2  3  1  0
  3  4  2  0
  3  5  1  0
  5  6  1  0
  6  7  1  0
  8  7  1  6
  8  9  1  0
  9 10  2  0
  9 11  1  0
 11 12  1  0
 12 13  2  0
 13 14  1  0
 14 15  2  0
 15 16  1  0
 16 17  2  0
 17 18  1  0
 18 19  2  0
 19 20  1  0
 20 21  2  0
 20 22  1  0
 19 23  1  0
 18 24  1  0
 17 25  1  0
 15 26  1  0
 13 27  1  0
 11 28  1  0
 28 29  1  0
 29 30  1  0
 30 31  1  0
 31 32  1  0
 32 33  1  0
 33 34  1  0
 33 35  1  0
 33 36  1  0
 32 37  1  0
 37 38  1  0
 37 39  1  0
 37 40  1  0
 32 41  1  0
 30 42  1  0
 30 43  1  0
 29 44  1  1
 28 45  1  0
 28 46  1  0
  8 47  1  0
 47 48  2  0
 48 49  1  0
 49 50  1  0
 49 51  2  0
 51 52  1  0
 52 53  2  0
 53 54  1  0
 54 55  2  0
 52 56  1  0
 51 57  1  0
 48 58  1  0
  7 59  1  0
  7 60  1  0
  5 61  1  0
  5 62  1  0
  2 63  1  0
  1 64  1  0
  1 65  1  0
  1 66  1  0
 54  6  1  0
 29  8  1  0
 53 47  1  0
 21 12  1  0
 21 16  1  0
M  END
>  <cnnaffinities>  (48) 
[6.35331, 6.38745]

>  <score>  (48) 
6.35331

>  <index>  (48) 
50

>  <Smiles>  (48) 
C(N(C(=O)C(N1C([C@@]2(C(=O)N(c3c(nc(c4c(c(c(c(c34)[H])[H])[H])[H])[H])[H])C([C@@]2(C(OC(C([H])([H])[H])(C([H])([H])[H])[H])([H])[H])[H])([H])[H])c2c(c(F)c(c(c2C1=O)[H])[H])[H])([H])[H])([H])[H])[H])([H])([H])[H]

>  <h>  (48) 
<NA>

>  <Training>  (48) 
True

>  <Success>  (48) 
True

>  <enamine_searched>  (48) 
False

>  <enamine_id>  (48) 
nan

$$$$

     RDKit          3D

 50 52  0  0  0  0  0  0  0  0999 V2000
   -9.7229   -0.9747  -26.4797 C   0  0  0  0  0  0  0  0  0  0  0  0
   -9.1431   -0.3156  -25.4771 C   0  0  0  0  0  0  0  0  0  0  0  0
   -9.6445   -0.4640  -24.0488 C   0  0  0  0  0  0  0  0  0  0  0  0
   -8.7649   -1.2434  -23.1661 N   0  0  0  0  0  0  0  0  0  0  0  0
   -8.1030   -0.5534  -22.1494 C   0  0  0  0  0  0  0  0  0  0  0  0
   -8.1598    0.6627  -22.0449 O   0  0  0  0  0  0  0  0  0  0  0  0
   -7.3759   -1.3458  -21.2773 N   0  0  0  0  0  0  0  0  0  0  0  0
   -6.6103   -0.7915  -20.2159 C   0  0  0  0  0  0  0  0  0  0  0  0
   -6.9061   -1.0537  -18.9021 C   0  0  0  0  0  0  0  0  0  0  0  0
   -6.2069   -0.5679  -17.8432 N   0  0  0  0  0  0  0  0  0  0  0  0
   -5.1811    0.2072  -18.0921 C   0  0  0  0  0  0  0  0  0  0  0  0
   -4.7363    0.5338  -19.4005 C   0  0  0  0  0  0  0  0  0  0  0  0
   -3.5945    1.3477  -19.6343 C   0  0  0  0  0  0  0  0  0  0  0  0
   -3.1725    1.6029  -20.9093 C   0  0  0  0  0  0  0  0  0  0  0  0
   -3.8696    1.0480  -22.0086 C   0  0  0  0  0  0  0  0  0  0  0  0
   -4.9782    0.2687  -21.8093 C   0  0  0  0  0  0  0  0  0  0  0  0
   -5.4605    0.0116  -20.4971 C   0  0  0  0  0  0  0  0  0  0  0  0
   -5.5189   -0.1630  -22.6460 H   0  0  0  0  0  0  0  0  0  0  0  0
   -3.5342    1.2598  -23.0199 H   0  0  0  0  0  0  0  0  0  0  0  0
   -2.3101    2.2387  -21.0822 H   0  0  0  0  0  0  0  0  0  0  0  0
   -3.0784    1.7636  -18.7738 H   0  0  0  0  0  0  0  0  0  0  0  0
   -4.6423    0.6074  -17.2335 H   0  0  0  0  0  0  0  0  0  0  0  0
   -7.7510   -1.6818  -18.6202 H   0  0  0  0  0  0  0  0  0  0  0  0
   -7.6607   -2.3133  -21.1905 H   0  0  0  0  0  0  0  0  0  0  0  0
   -8.4385   -2.5699  -23.5915 C   0  0  0  0  0  0  0  0  0  0  0  0
   -9.4468   -3.5211  -23.7558 C   0  0  0  0  0  0  0  0  0  0  0  0
   -9.1349   -4.8213  -24.1419 C   0  0  0  0  0  0  0  0  0  0  0  0
   -7.8221   -5.1880  -24.4156 C   0  0  0  0  0  0  0  0  0  0  0  0
   -6.8368   -4.2166  -24.3082 C   0  0  0  0  0  0  0  0  0  0  0  0
   -5.1866   -4.6567  -24.6430 Cl  0  0  0  0  0  0  0  0  0  0  0  0
   -7.1236   -2.9163  -23.9150 C   0  0  0  0  0  0  0  0  0  0  0  0
   -6.3235   -2.1839  -23.8559 H   0  0  0  0  0  0  0  0  0  0  0  0
   -7.5629   -6.1996  -24.7137 H   0  0  0  0  0  0  0  0  0  0  0  0
   -9.9275   -5.5600  -24.2304 H   0  0  0  0  0  0  0  0  0  0  0  0
  -10.4779   -3.2381  -23.5611 H   0  0  0  0  0  0  0  0  0  0  0  0
   -9.7921    0.4913  -23.5444 H   0  0  0  0  0  0  0  0  0  0  0  0
  -10.6098   -0.9802  -24.1015 H   0  0  0  0  0  0  0  0  0  0  0  0
   -7.8951    0.4755  -25.7933 C   0  0  0  0  0  0  0  0  0  0  0  0
   -7.2187    0.2088  -26.7805 O   0  0  0  0  0  0  0  0  0  0  0  0
   -7.5645    1.4757  -24.9370 N   0  0  0  0  0  0  0  0  0  0  0  0
   -6.2418    2.0763  -25.0156 C   0  0  0  0  0  0  0  0  0  0  0  0
   -6.0621    3.1716  -23.9681 C   0  0  0  0  0  0  0  0  0  0  0  0
   -6.7346    4.0227  -24.1333 H   0  0  0  0  0  0  0  0  0  0  0  0
   -6.2206    2.7854  -22.9496 H   0  0  0  0  0  0  0  0  0  0  0  0
   -5.0405    3.5623  -24.0127 H   0  0  0  0  0  0  0  0  0  0  0  0
   -6.0756    2.4525  -26.0342 H   0  0  0  0  0  0  0  0  0  0  0  0
   -5.4882    1.2846  -24.8683 H   0  0  0  0  0  0  0  0  0  0  0  0
   -8.1945    1.7894  -24.2107 H   0  0  0  0  0  0  0  0  0  0  0  0
   -9.3252   -0.9499  -27.4893 H   0  0  0  0  0  0  0  0  0  0  0  0
  -10.6172   -1.5727  -26.3160 H   0  0  0  0  0  0  0  0  0  0  0  0
  1  2  2  0
  2  3  1  0
  3  4  1  0
  4  5  1  0
  5  6  2  0
  5  7  1  0
  7  8  1  0
  8  9  2  0
  9 10  1  0
 10 11  2  0
 11 12  1  0
 12 13  2  0
 13 14  1  0
 14 15  2  0
 15 16  1  0
 16 17  2  0
 16 18  1  0
 15 19  1  0
 14 20  1  0
 13 21  1  0
 11 22  1  0
  9 23  1  0
  7 24  1  0
  4 25  1  0
 25 26  2  0
 26 27  1  0
 27 28  2  0
 28 29  1  0
 29 30  1  0
 29 31  2  0
 31 32  1  0
 28 33  1  0
 27 34  1  0
 26 35  1  0
  3 36  1  0
  3 37  1  0
  2 38  1  0
 38 39  2  0
 38 40  1  0
 40 41  1  0
 41 42  1  0
 42 43  1  0
 42 44  1  0
 42 45  1  0
 41 46  1  0
 41 47  1  0
 40 48  1  0
  1 49  1  0
  1 50  1  0
 17  8  1  0
 31 25  1  0
 17 12  1  0
M  END
>  <cnnaffinities>  (49) 
[5.78413, 5.5867, 6.07166]

>  <score>  (49) 
5.78413

>  <index>  (49) 
51

>  <Smiles>  (49) 
C(=C(C(N(C(=O)N(c1c(nc(c2c(c(c(c(c12)[H])[H])[H])[H])[H])[H])[H])c1c(c(c(c(Cl)c1[H])[H])[H])[H])([H])[H])C(=O)N(C(C([H])([H])[H])([H])[H])[H])([H])[H]

>  <h>  (49) 
<NA>

>  <Training>  (49) 
True

>  <Success>  (49) 
True

>  <enamine_searched>  (49) 
False

>  <enamine_id>  (49) 
nan

$$$$

     RDKit          3D

 57 60  0  0  0  0  0  0  0  0999 V2000
   -2.8087   -4.2733  -29.7960 C   0  0  0  0  0  0  0  0  0  0  0  0
   -2.7760   -3.3243  -28.5959 C   0  0  0  0  0  0  0  0  0  0  0  0
   -3.9194   -3.5508  -27.6286 C   0  0  0  0  0  0  0  0  0  0  0  0
   -4.9842   -2.9680  -27.7184 O   0  0  0  0  0  0  0  0  0  0  0  0
   -3.6617   -4.4783  -26.6519 N   0  0  0  0  0  0  0  0  0  0  0  0
   -4.5152   -4.7312  -25.5617 C   0  0  0  0  0  0  0  0  0  0  0  0
   -4.5881   -6.0258  -25.0470 C   0  0  0  0  0  0  0  0  0  0  0  0
   -5.4418   -6.2961  -23.9862 C   0  0  0  0  0  0  0  0  0  0  0  0
   -6.1674   -5.2770  -23.3806 C   0  0  0  0  0  0  0  0  0  0  0  0
   -6.0428   -3.9787  -23.8705 C   0  0  0  0  0  0  0  0  0  0  0  0
   -6.7920   -2.9122  -23.2789 N   0  0  0  0  0  0  0  0  0  0  0  0
   -7.8237   -2.2607  -24.0911 C   0  0  0  0  0  0  0  0  0  0  0  0
   -9.2457   -2.6423  -23.7074 C   0  0  0  0  0  0  0  0  0  0  0  0
  -10.2597   -1.7137  -23.4875 C   0  0  0  0  0  0  0  0  0  0  0  0
  -11.5539   -2.1430  -23.2142 C   0  0  0  0  0  0  0  0  0  0  0  0
  -11.8451   -3.4899  -23.0630 C   0  0  0  0  0  0  0  0  0  0  0  0
  -10.8509   -4.4249  -23.3101 C   0  0  0  0  0  0  0  0  0  0  0  0
   -9.5797   -3.9961  -23.6649 C   0  0  0  0  0  0  0  0  0  0  0  0
   -8.8270   -4.7376  -23.9190 H   0  0  0  0  0  0  0  0  0  0  0  0
  -11.0723   -5.4867  -23.2480 H   0  0  0  0  0  0  0  0  0  0  0  0
  -12.8366   -3.8217  -22.7616 H   0  0  0  0  0  0  0  0  0  0  0  0
  -12.3431   -1.4067  -23.1644 H   0  0  0  0  0  0  0  0  0  0  0  0
  -10.0630   -0.6394  -23.5164 H   0  0  0  0  0  0  0  0  0  0  0  0
   -7.6998   -1.1673  -24.0950 H   0  0  0  0  0  0  0  0  0  0  0  0
   -7.6512   -2.6007  -25.1182 H   0  0  0  0  0  0  0  0  0  0  0  0
   -6.6087   -2.6892  -21.9249 C   0  0  0  0  0  0  0  0  0  0  0  0
   -5.8724   -3.3826  -21.2417 O   0  0  0  0  0  0  0  0  0  0  0  0
   -7.3553   -1.5051  -21.3079 C   0  0  0  0  0  0  0  0  0  0  0  0
   -6.5696   -0.8497  -20.2093 C   0  0  0  0  0  0  0  0  0  0  0  0
   -6.8847   -1.0766  -18.8986 C   0  0  0  0  0  0  0  0  0  0  0  0
   -6.2155   -0.5806  -17.8248 N   0  0  0  0  0  0  0  0  0  0  0  0
   -5.1881    0.1930  -18.0785 C   0  0  0  0  0  0  0  0  0  0  0  0
   -4.7353    0.5148  -19.3896 C   0  0  0  0  0  0  0  0  0  0  0  0
   -3.6077    1.3471  -19.6163 C   0  0  0  0  0  0  0  0  0  0  0  0
   -3.1937    1.6295  -20.8891 C   0  0  0  0  0  0  0  0  0  0  0  0
   -3.8901    1.0904  -21.9928 C   0  0  0  0  0  0  0  0  0  0  0  0
   -4.9846    0.2849  -21.8034 C   0  0  0  0  0  0  0  0  0  0  0  0
   -5.4411   -0.0239  -20.4921 C   0  0  0  0  0  0  0  0  0  0  0  0
   -5.5065   -0.1177  -22.6672 H   0  0  0  0  0  0  0  0  0  0  0  0
   -3.5554    1.3223  -23.0007 H   0  0  0  0  0  0  0  0  0  0  0  0
   -2.3331    2.2717  -21.0643 H   0  0  0  0  0  0  0  0  0  0  0  0
   -3.0882    1.7651  -18.7582 H   0  0  0  0  0  0  0  0  0  0  0  0
   -4.6481    0.6056  -17.2237 H   0  0  0  0  0  0  0  0  0  0  0  0
   -7.7372   -1.7131  -18.6603 H   0  0  0  0  0  0  0  0  0  0  0  0
   -7.6035   -0.7772  -22.0840 H   0  0  0  0  0  0  0  0  0  0  0  0
   -8.2994   -1.9007  -20.9079 H   0  0  0  0  0  0  0  0  0  0  0  0
   -5.2640   -3.7072  -24.9908 C   0  0  0  0  0  0  0  0  0  0  0  0
   -5.2363   -2.7082  -25.4163 H   0  0  0  0  0  0  0  0  0  0  0  0
   -6.8195   -5.4679  -22.5311 H   0  0  0  0  0  0  0  0  0  0  0  0
   -5.5358   -7.3094  -23.6117 H   0  0  0  0  0  0  0  0  0  0  0  0
   -4.0131   -6.8217  -25.5123 H   0  0  0  0  0  0  0  0  0  0  0  0
   -2.8266   -5.0373  -26.7189 H   0  0  0  0  0  0  0  0  0  0  0  0
   -1.8202   -3.4094  -28.0619 H   0  0  0  0  0  0  0  0  0  0  0  0
   -2.8784   -2.2987  -28.9518 H   0  0  0  0  0  0  0  0  0  0  0  0
   -2.6582   -5.3122  -29.4891 H   0  0  0  0  0  0  0  0  0  0  0  0
   -2.0073   -4.0072  -30.4943 H   0  0  0  0  0  0  0  0  0  0  0  0
   -3.7644   -4.2162  -30.3292 H   0  0  0  0  0  0  0  0  0  0  0  0
  1  2  1  0
  2  3  1  0
  3  4  2  0
  3  5  1  0
  5  6  1  0
  6  7  2  0
  7  8  1  0
  8  9  2  0
  9 10  1  0
 10 11  1  0
 11 12  1  0
 12 13  1  0
 13 14  2  0
 14 15  1  0
 15 16  2  0
 16 17  1  0
 17 18  2  0
 18 19  1  0
 17 20  1  0
 16 21  1  0
 15 22  1  0
 14 23  1  0
 12 24  1  0
 12 25  1  0
 11 26  1  0
 26 27  2  0
 26 28  1  0
 28 29  1  0
 29 30  2  0
 30 31  1  0
 31 32  2  0
 32 33  1  0
 33 34  2  0
 34 35  1  0
 35 36  2  0
 36 37  1  0
 37 38  2  0
 37 39  1  0
 36 40  1  0
 35 41  1  0
 34 42  1  0
 32 43  1  0
 30 44  1  0
 28 45  1  0
 28 46  1  0
 10 47  2  0
 47 48  1  0
  9 49  1  0
  8 50  1  0
  7 51  1  0
  5 52  1  0
  2 53  1  0
  2 54  1  0
  1 55  1  0
  1 56  1  0
  1 57  1  0
 47  6  1  0
 18 13  1  0
 38 29  1  0
 38 33  1  0
M  END
>  <cnnaffinities>  (50) 
[5.84948, 6.16057, 5.83172, 6.16084, 5.98916, 6.13834, 6.14888, 5.94908, 6.14822, 6.12512, 6.12967, 6.10397, 6.10326, 5.86929, 6.01205, 6.37454, 6.10842, 5.911, 6.12519, 6.12649]

>  <score>  (50) 
5.84948

>  <index>  (50) 
52

>  <Smiles>  (50) 
C(C(C(=O)N(c1c(c(c(c(N(C(c2c(c(c(c(c2[H])[H])[H])[H])[H])([H])[H])C(=O)C(c2c(nc(c3c(c(c(c(c23)[H])[H])[H])[H])[H])[H])([H])[H])c1[H])[H])[H])[H])[H])([H])[H])([H])([H])[H]

>  <h>  (50) 
<NA>

>  <Training>  (50) 
True

>  <Success>  (50) 
True

>  <enamine_searched>  (50) 
False

>  <enamine_id>  (50) 
nan

$$$$

     RDKit          3D

 59 63  0  0  0  0  0  0  0  0999 V2000
   -5.1509   -8.3181  -23.7117 C   0  0  0  0  0  0  0  0  0  0  0  0
   -6.0872   -8.7500  -22.5783 C   0  0  0  0  0  0  0  0  0  0  0  0
   -7.1615   -7.7991  -22.3189 N   0  0  0  0  0  0  0  0  0  0  0  0
   -8.2137   -7.6661  -23.1835 C   0  0  0  0  0  0  0  0  0  0  0  0
   -8.4886   -8.4982  -24.0229 O   0  0  0  0  0  0  0  0  0  0  0  0
   -9.0376   -6.3881  -23.0333 C   0  0  0  0  0  0  0  0  0  0  0  0
   -8.4419   -5.2218  -23.6463 N   0  0  0  0  0  0  0  0  0  0  0  0
   -7.5398   -4.4307  -22.8343 C   0  0  0  0  0  0  0  0  0  0  0  0
   -7.7212   -2.9169  -23.0343 C   0  0  2  0  0  0  0  0  0  0  0  0
   -6.6616   -2.2709  -22.1453 C   0  0  0  0  0  0  0  0  0  0  0  0
   -5.4785   -2.5726  -22.0807 O   0  0  0  0  0  0  0  0  0  0  0  0
   -7.2731   -1.3520  -21.3351 N   0  0  0  0  0  0  0  0  0  0  0  0
   -6.5636   -0.7780  -20.2589 C   0  0  0  0  0  0  0  0  0  0  0  0
   -6.9306   -1.0182  -18.9575 C   0  0  0  0  0  0  0  0  0  0  0  0
   -6.2599   -0.5510  -17.8783 N   0  0  0  0  0  0  0  0  0  0  0  0
   -5.2093    0.2046  -18.1019 C   0  0  0  0  0  0  0  0  0  0  0  0
   -4.7347    0.5437  -19.4021 C   0  0  0  0  0  0  0  0  0  0  0  0
   -3.5950    1.3701  -19.5978 C   0  0  0  0  0  0  0  0  0  0  0  0
   -3.1665    1.6811  -20.8616 C   0  0  0  0  0  0  0  0  0  0  0  0
   -3.8518    1.1753  -21.9878 C   0  0  0  0  0  0  0  0  0  0  0  0
   -4.9532    0.3769  -21.8242 C   0  0  0  0  0  0  0  0  0  0  0  0
   -5.4233    0.0376  -20.5208 C   0  0  0  0  0  0  0  0  0  0  0  0
   -5.4607   -0.0118  -22.6995 H   0  0  0  0  0  0  0  0  0  0  0  0
   -3.5037    1.4159  -22.9893 H   0  0  0  0  0  0  0  0  0  0  0  0
   -2.3017    2.3223  -21.0100 H   0  0  0  0  0  0  0  0  0  0  0  0
   -3.0808    1.7552  -18.7220 H   0  0  0  0  0  0  0  0  0  0  0  0
   -4.6775    0.5862  -17.2297 H   0  0  0  0  0  0  0  0  0  0  0  0
   -7.7847   -1.6566  -18.7340 H   0  0  0  0  0  0  0  0  0  0  0  0
   -8.6351   -1.0580  -21.7417 C   0  0  0  0  0  0  0  0  0  0  0  0
   -9.0795   -2.3145  -22.5096 C   0  0  2  0  0  0  0  0  0  0  0  0
   -9.9630   -3.2524  -21.6857 C   0  0  0  0  0  0  0  0  0  0  0  0
  -10.9473   -2.7980  -21.5318 H   0  0  0  0  0  0  0  0  0  0  0  0
  -10.1090   -4.1854  -22.2349 H   0  0  0  0  0  0  0  0  0  0  0  0
   -9.5279   -3.4718  -20.7065 H   0  0  0  0  0  0  0  0  0  0  0  0
   -9.6823   -2.0236  -23.3788 H   0  0  0  0  0  0  0  0  0  0  0  0
   -8.6448   -0.1752  -22.3982 H   0  0  0  0  0  0  0  0  0  0  0  0
   -9.2570   -0.8481  -20.8725 H   0  0  0  0  0  0  0  0  0  0  0  0
   -7.6314   -2.6435  -24.5244 C   0  0  0  0  0  0  0  0  0  0  0  0
   -7.2529   -1.3925  -25.0267 C   0  0  0  0  0  0  0  0  0  0  0  0
   -7.4795   -1.0844  -26.3624 C   0  0  0  0  0  0  0  0  0  0  0  0
   -7.0892    0.5034  -26.9734 Cl  0  0  0  0  0  0  0  0  0  0  0  0
   -8.0755   -2.0025  -27.2239 C   0  0  0  0  0  0  0  0  0  0  0  0
   -8.4310   -3.2451  -26.7308 C   0  0  0  0  0  0  0  0  0  0  0  0
   -8.2216   -3.5710  -25.3966 C   0  0  0  0  0  0  0  0  0  0  0  0
   -8.7639   -4.8940  -24.9349 C   0  0  0  0  0  0  0  0  0  0  0  0
   -9.4573   -5.6124  -25.6470 O   0  0  0  0  0  0  0  0  0  0  0  0
   -8.9132   -3.9925  -27.3505 H   0  0  0  0  0  0  0  0  0  0  0  0
   -8.2632   -1.7264  -28.2570 H   0  0  0  0  0  0  0  0  0  0  0  0
   -6.8197   -0.6455  -24.3691 H   0  0  0  0  0  0  0  0  0  0  0  0
   -6.4945   -4.6598  -23.0706 H   0  0  0  0  0  0  0  0  0  0  0  0
   -7.6877   -4.6386  -21.7696 H   0  0  0  0  0  0  0  0  0  0  0  0
  -10.0099   -6.5694  -23.4910 H   0  0  0  0  0  0  0  0  0  0  0  0
   -9.1358   -6.1653  -21.9662 H   0  0  0  0  0  0  0  0  0  0  0  0
   -6.9276   -7.0189  -21.7213 H   0  0  0  0  0  0  0  0  0  0  0  0
   -6.5304   -9.7311  -22.7727 H   0  0  0  0  0  0  0  0  0  0  0  0
   -5.5190   -8.8191  -21.6474 H   0  0  0  0  0  0  0  0  0  0  0  0
   -4.4709   -7.5296  -23.3727 H   0  0  0  0  0  0  0  0  0  0  0  0
   -4.5414   -9.1587  -24.0565 H   0  0  0  0  0  0  0  0  0  0  0  0
   -5.7165   -7.9334  -24.5673 H   0  0  0  0  0  0  0  0  0  0  0  0
  1  2  1  0
  2  3  1  0
  3  4  1  0
  4  5  2  0
  4  6  1  0
  6  7  1  0
  7  8  1  0
  9  8  1  6
  9 10  1  0
 10 11  2  0
 10 12  1  0
 12 13  1  0
 13 14  2  0
 14 15  1  0
 15 16  2  0
 16 17  1  0
 17 18  2  0
 18 19  1  0
 19 20  2  0
 20 21  1  0
 21 22  2  0
 21 23  1  0
 20 24  1  0
 19 25  1  0
 18 26  1  0
 16 27  1  0
 14 28  1  0
 12 29  1  0
 29 30  1  0
 30 31  1  0
 31 32  1  0
 31 33  1  0
 31 34  1  0
 30 35  1  6
 29 36  1  0
 29 37  1  0
  9 38  1  0
 38 39  2  0
 39 40  1  0
 40 41  1  0
 40 42  2  0
 42 43  1  0
 43 44  2  0
 44 45  1  0
 45 46  2  0
 43 47  1  0
 42 48  1  0
 39 49  1  0
  8 50  1  0
  8 51  1  0
  6 52  1  0
  6 53  1  0
  3 54  1  0
  2 55  1  0
  2 56  1  0
  1 57  1  0
  1 58  1  0
  1 59  1  0
 45  7  1  0
 30  9  1  0
 44 38  1  0
 22 13  1  0
 22 17  1  0
M  END
>  <cnnaffinities>  (51) 
[6.6561]

>  <score>  (51) 
6.6561

>  <index>  (51) 
53

>  <Smiles>  (51) 
C(C(N(C(=O)C(N1C([C@@]2(C(=O)N(c3c(nc(c4c(c(c(c(c34)[H])[H])[H])[H])[H])[H])C([C@@]2(C([H])([H])[H])[H])([H])[H])c2c(c(Cl)c(c(c2C1=O)[H])[H])[H])([H])[H])([H])[H])[H])([H])[H])([H])([H])[H]

>  <h>  (51) 
<NA>

>  <Training>  (51) 
True

>  <Success>  (51) 
True

>  <enamine_searched>  (51) 
False

>  <enamine_id>  (51) 
nan

$$$$

     RDKit          3D

 40 43  0  0  0  0  0  0  0  0999 V2000
  -10.3205   -2.6556  -22.7804 C   0  0  0  0  0  0  0  0  0  0  0  0
   -8.9658   -2.2898  -22.4223 N   0  0  0  0  0  0  0  0  0  0  0  0
   -7.7638   -2.7134  -22.9060 C   0  0  0  0  0  0  0  0  0  0  0  0
   -7.6540   -3.6399  -24.0616 C   0  0  0  0  0  0  0  0  0  0  0  0
   -7.8729   -5.0527  -23.5796 C   0  0  0  0  0  0  0  0  0  0  0  0
   -6.8895   -5.6597  -22.8003 C   0  0  0  0  0  0  0  0  0  0  0  0
   -7.0631   -6.9617  -22.3428 C   0  0  0  0  0  0  0  0  0  0  0  0
   -8.2156   -7.6628  -22.6847 C   0  0  0  0  0  0  0  0  0  0  0  0
   -9.1950   -7.0644  -23.4716 C   0  0  0  0  0  0  0  0  0  0  0  0
   -9.0477   -5.7400  -23.8666 C   0  0  0  0  0  0  0  0  0  0  0  0
   -9.8593   -5.2403  -24.3977 H   0  0  0  0  0  0  0  0  0  0  0  0
  -10.0653   -7.6294  -23.8019 H   0  0  0  0  0  0  0  0  0  0  0  0
   -8.3559   -8.6733  -22.3206 H   0  0  0  0  0  0  0  0  0  0  0  0
   -6.2875   -7.4417  -21.7484 H   0  0  0  0  0  0  0  0  0  0  0  0
   -5.9837   -5.1009  -22.5713 H   0  0  0  0  0  0  0  0  0  0  0  0
   -6.6621   -3.5270  -24.5133 H   0  0  0  0  0  0  0  0  0  0  0  0
   -8.3922   -3.3917  -24.8335 H   0  0  0  0  0  0  0  0  0  0  0  0
   -6.7633   -2.2694  -22.2045 N   0  0  0  0  0  0  0  0  0  0  0  0
   -7.3247   -1.4569  -21.2593 N   0  0  0  0  0  0  0  0  0  0  0  0
   -6.5717   -0.8628  -20.2087 C   0  0  0  0  0  0  0  0  0  0  0  0
   -6.9009   -1.0772  -18.8894 C   0  0  0  0  0  0  0  0  0  0  0  0
   -6.2116   -0.5685  -17.8420 N   0  0  0  0  0  0  0  0  0  0  0  0
   -5.1810    0.1973  -18.1036 C   0  0  0  0  0  0  0  0  0  0  0  0
   -4.7376    0.5157  -19.4137 C   0  0  0  0  0  0  0  0  0  0  0  0
   -3.6159    1.3576  -19.6334 C   0  0  0  0  0  0  0  0  0  0  0  0
   -3.2274    1.6658  -20.9069 C   0  0  0  0  0  0  0  0  0  0  0  0
   -3.9534    1.1579  -22.0063 C   0  0  0  0  0  0  0  0  0  0  0  0
   -5.0407    0.3430  -21.8220 C   0  0  0  0  0  0  0  0  0  0  0  0
   -5.4534   -0.0233  -20.5112 C   0  0  0  0  0  0  0  0  0  0  0  0
   -5.5977   -0.0496  -22.6667 H   0  0  0  0  0  0  0  0  0  0  0  0
   -3.6379    1.4113  -23.0148 H   0  0  0  0  0  0  0  0  0  0  0  0
   -2.3661    2.3085  -21.0826 H   0  0  0  0  0  0  0  0  0  0  0  0
   -3.0867    1.7519  -18.7688 H   0  0  0  0  0  0  0  0  0  0  0  0
   -4.6384    0.6061  -17.2494 H   0  0  0  0  0  0  0  0  0  0  0  0
   -7.7629   -1.6835  -18.6215 H   0  0  0  0  0  0  0  0  0  0  0  0
   -8.6889   -1.3360  -21.4474 C   0  0  0  0  0  0  0  0  0  0  0  0
   -9.4376   -0.5247  -20.9586 O   0  0  0  0  0  0  0  0  0  0  0  0
  -10.4537   -2.6680  -23.8673 H   0  0  0  0  0  0  0  0  0  0  0  0
  -10.6134   -3.6258  -22.3572 H   0  0  0  0  0  0  0  0  0  0  0  0
  -10.9399   -1.8716  -22.3455 H   0  0  0  0  0  0  0  0  0  0  0  0
  1  2  1  0
  2  3  1  0
  3  4  1  0
  4  5  1  0
  5  6  2  0
  6  7  1  0
  7  8  2  0
  8  9  1  0
  9 10  2  0
 10 11  1  0
  9 12  1  0
  8 13  1  0
  7 14  1  0
  6 15  1  0
  4 16  1  0
  4 17  1  0
  3 18  2  0
 18 19  1  0
 19 20  1  0
 20 21  2  0
 21 22  1  0
 22 23  2  0
 23 24  1  0
 24 25  2  0
 25 26  1  0
 26 27  2  0
 27 28  1  0
 28 29  2  0
 28 30  1  0
 27 31  1  0
 26 32  1  0
 25 33  1  0
 23 34  1  0
 21 35  1  0
 19 36  1  0
 36 37  2  0
  1 38  1  0
  1 39  1  0
  1 40  1  0
 36  2  1  0
 10  5  1  0
 29 20  1  0
 29 24  1  0
M  END
>  <cnnaffinities>  (52) 
[4.95384, 4.95386, 5.57792, 5.57881, 5.34609, 5.34603, 5.39668, 5.39686]

>  <score>  (52) 
4.95384

>  <index>  (52) 
54

>  <Smiles>  (52) 
C(n1c(C(c2c(c(c(c(c2[H])[H])[H])[H])[H])([H])[H])nn(c2c(nc(c3c(c(c(c(c23)[H])[H])[H])[H])[H])[H])c1=O)([H])([H])[H]

>  <h>  (52) 
<NA>

>  <Training>  (52) 
True

>  <Success>  (52) 
True

>  <enamine_searched>  (52) 
False

>  <enamine_id>  (52) 
nan

$$$$

     RDKit          3D

 61 66  0  0  0  0  0  0  0  0999 V2000
  -12.3849   -2.2313  -22.6159 C   0  0  0  0  0  0  0  0  0  0  0  0
  -11.3647   -2.3461  -21.6568 O   0  0  0  0  0  0  0  0  0  0  0  0
  -10.1923   -2.9903  -22.0997 C   0  0  0  0  0  0  0  0  0  0  0  0
   -9.1507   -1.9912  -22.6591 C   0  0  1  0  0  0  0  0  0  0  0  0
   -8.7180   -0.9968  -21.5615 C   0  0  0  0  0  0  0  0  0  0  0  0
   -7.3853   -1.4218  -21.1990 N   0  0  0  0  0  0  0  0  0  0  0  0
   -6.6037   -0.8258  -20.1904 C   0  0  0  0  0  0  0  0  0  0  0  0
   -6.9257   -1.0501  -18.8799 C   0  0  0  0  0  0  0  0  0  0  0  0
   -6.2349   -0.5596  -17.8259 N   0  0  0  0  0  0  0  0  0  0  0  0
   -5.1984    0.1969  -18.0978 C   0  0  0  0  0  0  0  0  0  0  0  0
   -4.7591    0.5095  -19.4157 C   0  0  0  0  0  0  0  0  0  0  0  0
   -3.6321    1.3417  -19.6336 C   0  0  0  0  0  0  0  0  0  0  0  0
   -3.2334    1.6487  -20.9028 C   0  0  0  0  0  0  0  0  0  0  0  0
   -3.9467    1.1408  -22.0137 C   0  0  0  0  0  0  0  0  0  0  0  0
   -5.0445    0.3349  -21.8366 C   0  0  0  0  0  0  0  0  0  0  0  0
   -5.4747   -0.0110  -20.5169 C   0  0  0  0  0  0  0  0  0  0  0  0
   -5.5826   -0.0344  -22.7126 H   0  0  0  0  0  0  0  0  0  0  0  0
   -3.6198    1.4050  -23.0157 H   0  0  0  0  0  0  0  0  0  0  0  0
   -2.3806    2.3011  -21.0682 H   0  0  0  0  0  0  0  0  0  0  0  0
   -3.1136    1.7403  -18.7655 H   0  0  0  0  0  0  0  0  0  0  0  0
   -4.6451    0.6060  -17.2520 H   0  0  0  0  0  0  0  0  0  0  0  0
   -7.7793   -1.6849  -18.6461 H   0  0  0  0  0  0  0  0  0  0  0  0
   -6.8522   -2.4047  -21.9920 C   0  0  0  0  0  0  0  0  0  0  0  0
   -5.7967   -2.9608  -21.7665 O   0  0  0  0  0  0  0  0  0  0  0  0
   -7.8278   -2.6450  -23.1582 C   0  0  1  0  0  0  0  0  0  0  0  0
   -7.9380   -4.1524  -23.3758 C   0  0  0  0  0  0  0  0  0  0  0  0
   -6.6716   -4.6627  -23.8696 N   0  0  0  0  0  0  0  0  0  0  0  0
   -6.2818   -5.9941  -23.4342 C   0  0  0  0  0  0  0  0  0  0  0  0
   -7.1581   -7.0348  -24.0711 C   0  0  0  0  0  0  0  0  0  0  0  0
   -7.1027   -7.5317  -25.3251 C   0  0  0  0  0  0  0  0  0  0  0  0
   -8.2818   -8.2052  -25.5619 N   0  0  0  0  0  4  0  0  0  0  0  0
   -9.0457   -8.1345  -24.4612 C   0  0  0  0  0  0  0  0  0  0  0  0
   -8.3864   -7.4151  -23.5403 N   0  0  0  0  0  0  0  0  0  0  0  0
   -8.7350   -7.1687  -22.6183 H   0  0  0  0  0  0  0  0  0  0  0  0
  -10.0541   -8.4932  -24.3461 H   0  0  0  0  0  0  0  0  0  0  0  0
   -8.4650   -8.7128  -26.4190 H   0  0  0  0  0  0  0  0  0  0  0  0
   -6.3344   -7.4311  -26.0832 H   0  0  0  0  0  0  0  0  0  0  0  0
   -6.3348   -6.0114  -22.3360 H   0  0  0  0  0  0  0  0  0  0  0  0
   -5.2368   -6.1392  -23.7160 H   0  0  0  0  0  0  0  0  0  0  0  0
   -6.1635   -4.1919  -25.0499 C   0  0  0  0  0  0  0  0  0  0  0  0
   -5.4250   -4.8575  -25.7702 O   0  0  0  0  0  0  0  0  0  0  0  0
   -6.5468   -2.7830  -25.3570 C   0  0  0  0  0  0  0  0  0  0  0  0
   -6.0962   -2.2306  -26.5527 C   0  0  0  0  0  0  0  0  0  0  0  0
   -6.3158   -0.9015  -26.8466 C   0  0  0  0  0  0  0  0  0  0  0  0
   -7.0036   -0.1281  -25.9145 C   0  0  0  0  0  0  0  0  0  0  0  0
   -7.2549    1.5637  -26.2402 Cl  0  0  0  0  0  0  0  0  0  0  0  0
   -7.4906   -0.6707  -24.7360 C   0  0  0  0  0  0  0  0  0  0  0  0
   -7.2914   -2.0252  -24.4455 C   0  0  0  0  0  0  0  0  0  0  0  0
   -8.0329   -0.0179  -24.0605 H   0  0  0  0  0  0  0  0  0  0  0  0
   -5.9489   -0.4622  -27.7675 H   0  0  0  0  0  0  0  0  0  0  0  0
   -5.5610   -2.8795  -27.2340 H   0  0  0  0  0  0  0  0  0  0  0  0
   -8.1531   -4.6423  -22.4252 H   0  0  0  0  0  0  0  0  0  0  0  0
   -8.7607   -4.3621  -24.0807 H   0  0  0  0  0  0  0  0  0  0  0  0
   -9.3851   -1.0555  -20.7084 H   0  0  0  0  0  0  0  0  0  0  0  0
   -8.7299    0.0499  -21.8921 H   0  0  0  0  0  0  0  0  0  0  0  0
   -9.6443   -1.4700  -23.4865 H   0  0  0  0  0  0  0  0  0  0  0  0
   -9.7759   -3.4998  -21.2214 H   0  0  0  0  0  0  0  0  0  0  0  0
  -10.4440   -3.7602  -22.8467 H   0  0  0  0  0  0  0  0  0  0  0  0
  -12.7771   -3.2131  -22.9241 H   0  0  0  0  0  0  0  0  0  0  0  0
  -13.1975   -1.6678  -22.1489 H   0  0  0  0  0  0  0  0  0  0  0  0
  -12.0538   -1.6892  -23.5144 H   0  0  0  0  0  0  0  0  0  0  0  0
  1  2  1  0
  2  3  1  0
  3  4  1  0
  4  5  1  0
  5  6  1  0
  6  7  1  0
  7  8  2  0
  8  9  1  0
  9 10  2  0
 10 11  1  0
 11 12  2  0
 12 13  1  0
 13 14  2  0
 14 15  1  0
 15 16  2  0
 15 17  1  0
 14 18  1  0
 13 19  1  0
 12 20  1  0
 10 21  1  0
  8 22  1  0
  6 23  1  0
 23 24  2  0
 23 25  1  0
 25 26  1  6
 26 27  1  0
 27 28  1  0
 28 29  1  0
 29 30  2  0
 30 31  1  0
 31 32  2  0
 32 33  1  0
 33 34  1  0
 32 35  1  0
 31 36  1  0
 30 37  1  0
 28 38  1  0
 28 39  1  0
 27 40  1  0
 40 41  2  0
 40 42  1  0
 42 43  2  0
 43 44  1  0
 44 45  2  0
 45 46  1  0
 45 47  1  0
 47 48  2  0
 47 49  1  0
 44 50  1  0
 43 51  1  0
 26 52  1  0
 26 53  1  0
  5 54  1  0
  5 55  1  0
  4 56  1  6
  3 57  1  0
  3 58  1  0
  1 59  1  0
  1 60  1  0
  1 61  1  0
 25  4  1  0
 33 29  1  0
 48 42  1  0
 16  7  1  0
 48 25  1  0
 16 11  1  0
M  CHG  1  31   1
M  END
>  <cnnaffinities>  (53) 
[6.44753, 6.01659]

>  <score>  (53) 
6.44753

>  <index>  (53) 
55

>  <Smiles>  (53) 
C(OC([C@]1(C(N(c2c(nc(c3c(c(c(c(c23)[H])[H])[H])[H])[H])[H])C(=O)[C@]21C(N(C(c1c([n+](c(n1[H])[H])[H])[H])([H])[H])C(=O)c1c(c(c(Cl)c(c21)[H])[H])[H])([H])[H])([H])[H])[H])([H])[H])([H])([H])[H]

>  <h>  (53) 
<NA>

>  <Training>  (53) 
True

>  <Success>  (53) 
True

>  <enamine_searched>  (53) 
False

>  <enamine_id>  (53) 
nan

$$$$

     RDKit          3D

 57 62  0  0  0  0  0  0  0  0999 V2000
   -6.4937   -3.8905  -23.8568 C   0  0  0  0  0  0  0  0  0  0  0  0
   -6.8666   -3.1316  -22.5940 C   0  0  1  0  0  0  0  0  0  0  0  0
   -5.6684   -2.7110  -21.7445 C   0  0  0  0  0  0  0  0  0  0  0  0
   -6.2930   -1.7499  -20.8546 N   0  0  0  0  0  0  0  0  0  0  0  0
   -5.6231   -1.0794  -19.8151 C   0  0  0  0  0  0  0  0  0  0  0  0
   -5.9058   -1.4027  -18.5180 C   0  0  0  0  0  0  0  0  0  0  0  0
   -5.4343   -0.7220  -17.4522 N   0  0  0  0  0  0  0  0  0  0  0  0
   -4.6424    0.2951  -17.7038 C   0  0  0  0  0  0  0  0  0  0  0  0
   -4.2008    0.6723  -19.0071 C   0  0  0  0  0  0  0  0  0  0  0  0
   -3.2514    1.7038  -19.2257 C   0  0  0  0  0  0  0  0  0  0  0  0
   -2.8346    2.0207  -20.4889 C   0  0  0  0  0  0  0  0  0  0  0  0
   -3.3660    1.3384  -21.6042 C   0  0  0  0  0  0  0  0  0  0  0  0
   -4.2948    0.3455  -21.4238 C   0  0  0  0  0  0  0  0  0  0  0  0
   -4.7200   -0.0237  -20.1158 C   0  0  0  0  0  0  0  0  0  0  0  0
   -4.6946   -0.1429  -22.3045 H   0  0  0  0  0  0  0  0  0  0  0  0
   -3.0496    1.5989  -22.6103 H   0  0  0  0  0  0  0  0  0  0  0  0
   -2.0980    2.8011  -20.6456 H   0  0  0  0  0  0  0  0  0  0  0  0
   -2.8477    2.2044  -18.3539 H   0  0  0  0  0  0  0  0  0  0  0  0
   -4.3024    0.8696  -16.8447 H   0  0  0  0  0  0  0  0  0  0  0  0
   -6.5679   -2.2417  -18.3171 H   0  0  0  0  0  0  0  0  0  0  0  0
   -7.3854   -1.1139  -21.4215 C   0  0  0  0  0  0  0  0  0  0  0  0
   -7.9424   -0.1537  -20.9388 O   0  0  0  0  0  0  0  0  0  0  0  0
   -7.6873   -1.8098  -22.7642 C   0  0  1  0  0  0  0  0  0  0  0  0
   -7.1229   -0.9336  -23.9247 C   0  0  0  0  0  0  0  0  0  0  0  0
   -8.0052    0.1334  -24.3723 N   0  0  0  0  0  0  0  0  0  0  0  0
   -7.4009    1.3332  -24.9552 C   0  0  0  0  0  0  0  0  0  0  0  0
   -7.2264    2.4921  -23.9896 C   0  0  0  0  0  0  0  0  0  0  0  0
   -6.6773    2.1987  -22.8026 N   0  0  0  0  0  0  0  0  0  0  0  0
   -6.4959    3.2350  -21.9783 C   0  0  0  0  0  0  0  0  0  0  0  0
   -6.8742    4.5291  -22.3020 C   0  0  0  0  0  0  0  0  0  0  0  0
   -7.4426    4.7178  -23.5537 C   0  0  0  0  0  0  0  0  0  0  0  0
   -7.5853    3.7069  -24.4127 N   0  0  0  0  0  0  0  0  0  0  0  0
   -7.8069    5.6956  -23.8763 H   0  0  0  0  0  0  0  0  0  0  0  0
   -6.7581    5.3576  -21.6111 H   0  0  0  0  0  0  0  0  0  0  0  0
   -5.9995    3.0117  -21.0323 H   0  0  0  0  0  0  0  0  0  0  0  0
   -7.9868    1.6798  -25.8116 H   0  0  0  0  0  0  0  0  0  0  0  0
   -6.4123    1.0463  -25.3383 H   0  0  0  0  0  0  0  0  0  0  0  0
   -9.3558    0.1397  -24.1816 C   0  0  0  0  0  0  0  0  0  0  0  0
  -10.0184    1.1485  -24.3563 O   0  0  0  0  0  0  0  0  0  0  0  0
   -9.9439   -1.1483  -23.7117 C   0  0  0  0  0  0  0  0  0  0  0  0
  -11.2953   -1.3972  -23.9177 C   0  0  0  0  0  0  0  0  0  0  0  0
  -11.9203   -2.4318  -23.2509 C   0  0  0  0  0  0  0  0  0  0  0  0
  -11.1852   -3.1088  -22.2831 C   0  0  0  0  0  0  0  0  0  0  0  0
  -11.8403   -3.9084  -21.4356 F   0  0  0  0  0  0  0  0  0  0  0  0
   -9.8340   -2.9249  -22.1106 C   0  0  0  0  0  0  0  0  0  0  0  0
   -9.1712   -2.0003  -22.9213 C   0  0  0  0  0  0  0  0  0  0  0  0
   -9.3134   -3.4689  -21.3327 H   0  0  0  0  0  0  0  0  0  0  0  0
  -12.9686   -2.6585  -23.3874 H   0  0  0  0  0  0  0  0  0  0  0  0
  -11.8424   -0.7068  -24.5498 H   0  0  0  0  0  0  0  0  0  0  0  0
   -6.8763   -1.5839  -24.7711 H   0  0  0  0  0  0  0  0  0  0  0  0
   -6.2138   -0.4131  -23.6003 H   0  0  0  0  0  0  0  0  0  0  0  0
   -5.2240   -3.5374  -21.1832 H   0  0  0  0  0  0  0  0  0  0  0  0
   -4.8777   -2.2644  -22.3741 H   0  0  0  0  0  0  0  0  0  0  0  0
   -7.4592   -3.7905  -21.9507 H   0  0  0  0  0  0  0  0  0  0  0  0
   -5.7253   -3.3518  -24.4217 H   0  0  0  0  0  0  0  0  0  0  0  0
   -7.3620   -4.0275  -24.5080 H   0  0  0  0  0  0  0  0  0  0  0  0
   -6.0890   -4.8784  -23.6139 H   0  0  0  0  0  0  0  0  0  0  0  0
  1  2  1  0
  2  3  1  0
  3  4  1  0
  4  5  1  0
  5  6  2  0
  6  7  1  0
  7  8  2  0
  8  9  1  0
  9 10  2  0
 10 11  1  0
 11 12  2  0
 12 13  1  0
 13 14  2  0
 13 15  1  0
 12 16  1  0
 11 17  1  0
 10 18  1  0
  8 19  1  0
  6 20  1  0
  4 21  1  0
 21 22  2  0
 21 23  1  0
 23 24  1  6
 24 25  1  0
 25 26  1  0
 26 27  1  0
 27 28  2  0
 28 29  1  0
 29 30  2  0
 30 31  1  0
 31 32  2  0
 31 33  1  0
 30 34  1  0
 29 35  1  0
 26 36  1  0
 26 37  1  0
 25 38  1  0
 38 39  2  0
 38 40  1  0
 40 41  2  0
 41 42  1  0
 42 43  2  0
 43 44  1  0
 43 45  1  0
 45 46  2  0
 45 47  1  0
 42 48  1  0
 41 49  1  0
 24 50  1  0
 24 51  1  0
  3 52  1  0
  3 53  1  0
  2 54  1  1
  1 55  1  0
  1 56  1  0
  1 57  1  0
 23  2  1  0
 32 27  1  0
 46 40  1  0
 14  5  1  0
 46 23  1  0
 14  9  1  0
M  END
>  <cnnaffinities>  (54) 
[6.3059]

>  <score>  (54) 
6.3059

>  <index>  (54) 
56

>  <Smiles>  (54) 
C([C@]1(C(N(c2c(nc(c3c(c(c(c(c23)[H])[H])[H])[H])[H])[H])C(=O)[C@]21C(N(C(c1nc(c(c(n1)[H])[H])[H])([H])[H])C(=O)c1c(c(c(F)c(c21)[H])[H])[H])([H])[H])([H])[H])[H])([H])([H])[H]

>  <h>  (54) 
<NA>

>  <Training>  (54) 
True

>  <Success>  (54) 
True

>  <enamine_searched>  (54) 
False

>  <enamine_id>  (54) 
nan

$$$$

     RDKit          3D

 59 63  0  0  0  0  0  0  0  0999 V2000
   -2.6111   -4.6961  -22.8625 C   0  0  0  0  0  0  0  0  0  0  0  0
   -3.7630   -5.1757  -23.5970 N   0  0  0  0  0  0  0  0  0  0  0  0
   -4.8163   -5.6492  -22.8893 C   0  0  0  0  0  0  0  0  0  0  0  0
   -4.7723   -5.8009  -21.6807 O   0  0  0  0  0  0  0  0  0  0  0  0
   -6.0578   -5.9985  -23.7198 C   0  0  0  0  0  0  0  0  0  0  0  0
   -6.8133   -4.8349  -24.1465 N   0  0  0  0  0  0  0  0  0  0  0  0
   -7.9085   -4.3493  -23.3285 C   0  0  0  0  0  0  0  0  0  0  0  0
   -7.8831   -2.8113  -23.1224 C   0  0  2  0  0  0  0  0  0  0  0  0
   -6.7937   -2.4079  -22.0894 C   0  0  0  0  0  0  0  0  0  0  0  0
   -5.6500   -2.8122  -22.0395 O   0  0  0  0  0  0  0  0  0  0  0  0
   -7.3281   -1.4675  -21.2334 N   0  0  0  0  0  0  0  0  0  0  0  0
   -6.5702   -0.8584  -20.1951 C   0  0  0  0  0  0  0  0  0  0  0  0
   -6.8954   -1.0586  -18.8760 C   0  0  0  0  0  0  0  0  0  0  0  0
   -6.2073   -0.5507  -17.8235 N   0  0  0  0  0  0  0  0  0  0  0  0
   -5.1723    0.2101  -18.0854 C   0  0  0  0  0  0  0  0  0  0  0  0
   -4.7351    0.5252  -19.4031 C   0  0  0  0  0  0  0  0  0  0  0  0
   -3.6091    1.3622  -19.6338 C   0  0  0  0  0  0  0  0  0  0  0  0
   -3.2217    1.6621  -20.9097 C   0  0  0  0  0  0  0  0  0  0  0  0
   -3.9484    1.1506  -22.0093 C   0  0  0  0  0  0  0  0  0  0  0  0
   -5.0419    0.3463  -21.8159 C   0  0  0  0  0  0  0  0  0  0  0  0
   -5.4547   -0.0080  -20.4980 C   0  0  0  0  0  0  0  0  0  0  0  0
   -5.5962   -0.0328  -22.6734 H   0  0  0  0  0  0  0  0  0  0  0  0
   -3.6305    1.3967  -23.0179 H   0  0  0  0  0  0  0  0  0  0  0  0
   -2.3642    2.3041  -21.0889 H   0  0  0  0  0  0  0  0  0  0  0  0
   -3.0757    1.7617  -18.7737 H   0  0  0  0  0  0  0  0  0  0  0  0
   -4.6234    0.6155  -17.2333 H   0  0  0  0  0  0  0  0  0  0  0  0
   -7.7464   -1.6819  -18.6060 H   0  0  0  0  0  0  0  0  0  0  0  0
   -8.7283   -1.1820  -21.4843 C   0  0  0  0  0  0  0  0  0  0  0  0
   -9.2159   -2.2859  -22.4546 C   0  0  0  0  0  0  0  0  0  0  0  0
  -10.3083   -1.7847  -23.4108 C   0  0  0  0  0  0  0  0  0  0  0  0
  -10.0700   -0.8402  -23.9057 H   0  0  0  0  0  0  0  0  0  0  0  0
  -10.5185   -2.5422  -24.1750 H   0  0  0  0  0  0  0  0  0  0  0  0
  -11.2308   -1.6365  -22.8375 H   0  0  0  0  0  0  0  0  0  0  0  0
   -9.9039   -3.3639  -21.6020 C   0  0  0  0  0  0  0  0  0  0  0  0
  -10.7779   -2.8888  -21.1549 H   0  0  0  0  0  0  0  0  0  0  0  0
  -10.2569   -4.2175  -22.1861 H   0  0  0  0  0  0  0  0  0  0  0  0
   -9.2444   -3.7220  -20.8165 H   0  0  0  0  0  0  0  0  0  0  0  0
   -8.8724   -0.1667  -21.8788 H   0  0  0  0  0  0  0  0  0  0  0  0
   -9.2797   -1.2425  -20.5564 H   0  0  0  0  0  0  0  0  0  0  0  0
   -7.5107   -2.1354  -24.4392 C   0  0  0  0  0  0  0  0  0  0  0  0
   -7.6015   -0.7396  -24.5484 C   0  0  0  0  0  0  0  0  0  0  0  0
   -7.3046   -0.1131  -25.7451 C   0  0  0  0  0  0  0  0  0  0  0  0
   -7.4622    1.6150  -25.8793 Cl  0  0  0  0  0  0  0  0  0  0  0  0
   -6.8624   -0.8422  -26.8470 C   0  0  0  0  0  0  0  0  0  0  0  0
   -6.6829   -2.2031  -26.7158 C   0  0  0  0  0  0  0  0  0  0  0  0
   -6.9697   -2.8461  -25.5150 C   0  0  0  0  0  0  0  0  0  0  0  0
   -6.5343   -4.2710  -25.3588 C   0  0  0  0  0  0  0  0  0  0  0  0
   -5.8849   -4.8577  -26.2202 O   0  0  0  0  0  0  0  0  0  0  0  0
   -6.2802   -2.8141  -27.5158 H   0  0  0  0  0  0  0  0  0  0  0  0
   -6.6285   -0.3336  -27.7728 H   0  0  0  0  0  0  0  0  0  0  0  0
   -7.9133   -0.1205  -23.7108 H   0  0  0  0  0  0  0  0  0  0  0  0
   -8.8750   -4.6199  -23.7847 H   0  0  0  0  0  0  0  0  0  0  0  0
   -7.8164   -4.8389  -22.3585 H   0  0  0  0  0  0  0  0  0  0  0  0
   -6.6794   -6.6273  -23.0796 H   0  0  0  0  0  0  0  0  0  0  0  0
   -5.7868   -6.5390  -24.6305 H   0  0  0  0  0  0  0  0  0  0  0  0
   -3.8325   -5.0625  -24.5999 H   0  0  0  0  0  0  0  0  0  0  0  0
   -1.9024   -4.2671  -23.5742 H   0  0  0  0  0  0  0  0  0  0  0  0
   -2.1238   -5.5081  -22.3065 H   0  0  0  0  0  0  0  0  0  0  0  0
   -2.9506   -3.9467  -22.1365 H   0  0  0  0  0  0  0  0  0  0  0  0
  1  2  1  0
  2  3  1  0
  3  4  2  0
  3  5  1  0
  5  6  1  0
  6  7  1  0
  8  7  1  6
  8  9  1  0
  9 10  2  0
  9 11  1  0
 11 12  1  0
 12 13  2  0
 13 14  1  0
 14 15  2  0
 15 16  1  0
 16 17  2  0
 17 18  1  0
 18 19  2  0
 19 20  1  0
 20 21  2  0
 20 22  1  0
 19 23  1  0
 18 24  1  0
 17 25  1  0
 15 26  1  0
 13 27  1  0
 11 28  1  0
 28 29  1  0
 29 30  1  0
 30 31  1  0
 30 32  1  0
 30 33  1  0
 29 34  1  0
 34 35  1  0
 34 36  1  0
 34 37  1  0
 28 38  1  0
 28 39  1  0
  8 40  1  0
 40 41  2  0
 41 42  1  0
 42 43  1  0
 42 44  2  0
 44 45  1  0
 45 46  2  0
 46 47  1  0
 47 48  2  0
 45 49  1  0
 44 50  1  0
 41 51  1  0
  7 52  1  0
  7 53  1  0
  5 54  1  0
  5 55  1  0
  2 56  1  0
  1 57  1  0
  1 58  1  0
  1 59  1  0
 47  6  1  0
 29  8  1  0
 46 40  1  0
 21 12  1  0
 21 16  1  0
M  END
>  <cnnaffinities>  (55) 
[6.16125, 6.16407]

>  <score>  (55) 
6.16125

>  <index>  (55) 
57

>  <Smiles>  (55) 
C(N(C(=O)C(N1C([C@@]2(C(=O)N(c3c(nc(c4c(c(c(c(c34)[H])[H])[H])[H])[H])[H])C(C2(C([H])([H])[H])C([H])([H])[H])([H])[H])c2c(c(Cl)c(c(c2C1=O)[H])[H])[H])([H])[H])([H])[H])[H])([H])([H])[H]

>  <h>  (55) 
<NA>

>  <Training>  (55) 
True

>  <Success>  (55) 
True

>  <enamine_searched>  (55) 
False

>  <enamine_id>  (55) 
nan

$$$$

     RDKit          3D

 42 45  0  0  0  0  0  0  0  0999 V2000
   -7.2910   -5.4908  -21.7426 C   0  0  0  0  0  0  0  0  0  0  0  0
   -7.9095   -4.3910  -22.4709 N   0  0  0  0  0  0  0  0  0  0  0  0
   -9.1648   -3.8145  -22.0055 C   0  0  0  0  0  0  0  0  0  0  0  0
   -9.3212   -2.3242  -22.3532 C   0  0  1  0  0  0  0  0  0  0  0  0
   -8.5828   -1.3805  -21.4026 C   0  0  0  0  0  0  0  0  0  0  0  0
   -9.1461   -0.4659  -20.8313 O   0  0  0  0  0  0  0  0  0  0  0  0
   -7.2369   -1.5897  -21.2529 N   0  0  0  0  0  0  0  0  0  0  0  0
   -6.5378   -0.9318  -20.2194 C   0  0  0  0  0  0  0  0  0  0  0  0
   -6.9276   -1.0928  -18.9165 C   0  0  0  0  0  0  0  0  0  0  0  0
   -6.2658   -0.5801  -17.8541 N   0  0  0  0  0  0  0  0  0  0  0  0
   -5.2177    0.1664  -18.1058 C   0  0  0  0  0  0  0  0  0  0  0  0
   -4.7411    0.4634  -19.4137 C   0  0  0  0  0  0  0  0  0  0  0  0
   -3.6264    1.3133  -19.6394 C   0  0  0  0  0  0  0  0  0  0  0  0
   -3.2372    1.6082  -20.9177 C   0  0  0  0  0  0  0  0  0  0  0  0
   -3.9410    1.0806  -22.0256 C   0  0  0  0  0  0  0  0  0  0  0  0
   -5.0219    0.2528  -21.8350 C   0  0  0  0  0  0  0  0  0  0  0  0
   -5.4280   -0.0883  -20.5178 C   0  0  0  0  0  0  0  0  0  0  0  0
   -5.5904   -0.1264  -22.6810 H   0  0  0  0  0  0  0  0  0  0  0  0
   -3.6278    1.3436  -23.0335 H   0  0  0  0  0  0  0  0  0  0  0  0
   -2.3909    2.2689  -21.0924 H   0  0  0  0  0  0  0  0  0  0  0  0
   -3.1175    1.7358  -18.7764 H   0  0  0  0  0  0  0  0  0  0  0  0
   -4.6918    0.5837  -17.2470 H   0  0  0  0  0  0  0  0  0  0  0  0
   -7.8148   -1.6793  -18.6875 H   0  0  0  0  0  0  0  0  0  0  0  0
   -6.7708   -2.3330  -21.7531 H   0  0  0  0  0  0  0  0  0  0  0  0
   -8.8774   -2.0468  -23.7580 C   0  0  0  0  0  0  0  0  0  0  0  0
   -9.1895   -0.8177  -24.3524 C   0  0  0  0  0  0  0  0  0  0  0  0
   -8.6462   -0.5284  -25.5941 C   0  0  0  0  0  0  0  0  0  0  0  0
   -8.8330    1.0622  -26.2584 Cl  0  0  0  0  0  0  0  0  0  0  0  0
   -7.8811   -1.4513  -26.3082 C   0  0  0  0  0  0  0  0  0  0  0  0
   -7.6109   -2.6729  -25.7249 C   0  0  0  0  0  0  0  0  0  0  0  0
   -8.0345   -2.9342  -24.4211 C   0  0  0  0  0  0  0  0  0  0  0  0
   -7.4384   -4.1282  -23.7318 C   0  0  0  0  0  0  0  0  0  0  0  0
   -6.5465   -4.7742  -24.2555 O   0  0  0  0  0  0  0  0  0  0  0  0
   -7.0668   -3.4497  -26.2484 H   0  0  0  0  0  0  0  0  0  0  0  0
   -7.4599   -1.1814  -27.2743 H   0  0  0  0  0  0  0  0  0  0  0  0
   -9.8154   -0.0690  -23.8654 H   0  0  0  0  0  0  0  0  0  0  0  0
  -10.3691   -2.0487  -22.2015 H   0  0  0  0  0  0  0  0  0  0  0  0
  -10.0249   -4.3716  -22.4063 H   0  0  0  0  0  0  0  0  0  0  0  0
   -9.2074   -3.9033  -20.9242 H   0  0  0  0  0  0  0  0  0  0  0  0
   -8.0478   -6.1896  -21.3758 H   0  0  0  0  0  0  0  0  0  0  0  0
   -6.6362   -6.0145  -22.4415 H   0  0  0  0  0  0  0  0  0  0  0  0
   -6.6795   -5.1476  -20.8986 H   0  0  0  0  0  0  0  0  0  0  0  0
  1  2  1  0
  2  3  1  0
  3  4  1  0
  4  5  1  0
  5  6  2  0
  5  7  1  0
  7  8  1  0
  8  9  2  0
  9 10  1  0
 10 11  2  0
 11 12  1  0
 12 13  2  0
 13 14  1  0
 14 15  2  0
 15 16  1  0
 16 17  2  0
 16 18  1  0
 15 19  1  0
 14 20  1  0
 13 21  1  0
 11 22  1  0
  9 23  1  0
  7 24  1  0
  4 25  1  0
 25 26  2  0
 26 27  1  0
 27 28  1  0
 27 29  2  0
 29 30  1  0
 30 31  2  0
 31 32  1  0
 32 33  2  0
 30 34  1  0
 29 35  1  0
 26 36  1  0
  4 37  1  6
  3 38  1  0
  3 39  1  0
  1 40  1  0
  1 41  1  0
  1 42  1  0
 32  2  1  0
 17  8  1  0
 31 25  1  0
 17 12  1  0
M  END
>  <cnnaffinities>  (56) 
[5.18856, 5.36415, 4.98106]

>  <score>  (56) 
5.18856

>  <index>  (56) 
58

>  <Smiles>  (56) 
C(N1C([C@@](C(=O)N(c2c(nc(c3c(c(c(c(c23)[H])[H])[H])[H])[H])[H])[H])(c2c(c(Cl)c(c(c2C1=O)[H])[H])[H])[H])([H])[H])([H])([H])[H]

>  <h>  (56) 
<NA>

>  <Training>  (56) 
True

>  <Success>  (56) 
True

>  <enamine_searched>  (56) 
False

>  <enamine_id>  (56) 
nan

$$$$

     RDKit          3D

 60 65  0  0  0  0  0  0  0  0999 V2000
   -6.7095    2.7198  -22.0630 C   0  0  0  0  0  0  0  0  0  0  0  0
   -6.6638    1.7132  -23.1000 N   0  0  0  0  0  0  0  0  0  0  0  0
   -6.7699    1.9208  -24.4265 C   0  0  0  0  0  0  0  0  0  0  0  0
   -6.6784    2.9949  -25.0018 O   0  0  0  0  0  0  0  0  0  0  0  0
   -6.9937    0.6108  -25.2165 C   0  0  0  0  0  0  0  0  0  0  0  0
   -7.7348   -0.4053  -24.4854 N   0  0  0  0  0  0  0  0  0  0  0  0
   -7.1145   -1.6373  -24.0587 C   0  0  0  0  0  0  0  0  0  0  0  0
   -7.6895   -2.2176  -22.7206 C   0  0  2  0  0  0  0  0  0  0  0  0
   -7.2253   -1.3291  -21.5516 C   0  0  0  0  0  0  0  0  0  0  0  0
   -7.5913   -0.1902  -21.3164 O   0  0  0  0  0  0  0  0  0  0  0  0
   -6.2691   -1.9828  -20.8238 N   0  0  0  0  0  0  0  0  0  0  0  0
   -5.6166   -1.3173  -19.7603 C   0  0  0  0  0  0  0  0  0  0  0  0
   -5.9366   -1.5833  -18.4551 C   0  0  0  0  0  0  0  0  0  0  0  0
   -5.5353   -0.8269  -17.4087 N   0  0  0  0  0  0  0  0  0  0  0  0
   -4.7985    0.2326  -17.6719 C   0  0  0  0  0  0  0  0  0  0  0  0
   -4.3339    0.5772  -18.9773 C   0  0  0  0  0  0  0  0  0  0  0  0
   -3.5375    1.7269  -19.2511 C   0  0  0  0  0  0  0  0  0  0  0  0
   -3.0035    1.9160  -20.5000 C   0  0  0  0  0  0  0  0  0  0  0  0
   -3.2701    1.0067  -21.5458 C   0  0  0  0  0  0  0  0  0  0  0  0
   -4.1374   -0.0373  -21.3389 C   0  0  0  0  0  0  0  0  0  0  0  0
   -4.6994   -0.2668  -20.0514 C   0  0  0  0  0  0  0  0  0  0  0  0
   -4.4010   -0.6999  -22.1576 H   0  0  0  0  0  0  0  0  0  0  0  0
   -2.8017    1.1408  -22.5169 H   0  0  0  0  0  0  0  0  0  0  0  0
   -2.3822    2.7839  -20.7004 H   0  0  0  0  0  0  0  0  0  0  0  0
   -3.3765    2.4616  -18.4666 H   0  0  0  0  0  0  0  0  0  0  0  0
   -4.5277    0.8651  -16.8245 H   0  0  0  0  0  0  0  0  0  0  0  0
   -6.5927   -2.4200  -18.2094 H   0  0  0  0  0  0  0  0  0  0  0  0
   -6.2676   -3.4079  -21.0227 C   0  0  0  0  0  0  0  0  0  0  0  0
   -6.9991   -3.5917  -22.3756 C   0  0  2  0  0  0  0  0  0  0  0  0
   -5.9664   -4.0751  -23.4325 C   0  0  0  0  0  0  0  0  0  0  0  0
   -5.2267   -5.3102  -23.0199 C   0  0  0  0  0  0  0  0  0  0  0  0
   -4.0592   -5.3300  -22.3807 N   0  0  0  0  0  0  0  0  0  0  0  0
   -3.8011   -6.6209  -22.1906 N   0  0  0  0  0  0  0  0  0  0  0  0
   -4.7709   -7.3366  -22.6941 N   0  0  0  0  0  2  0  0  0  0  0  0
   -5.6836   -6.5334  -23.2314 N   0  0  0  0  0  0  0  0  0  0  0  0
   -6.4601   -4.3058  -24.3793 H   0  0  0  0  0  0  0  0  0  0  0  0
   -5.2108   -3.3055  -23.5977 H   0  0  0  0  0  0  0  0  0  0  0  0
   -7.7605   -4.3705  -22.2926 H   0  0  0  0  0  0  0  0  0  0  0  0
   -5.2427   -3.7854  -21.0460 H   0  0  0  0  0  0  0  0  0  0  0  0
   -6.7702   -3.9275  -20.2033 H   0  0  0  0  0  0  0  0  0  0  0  0
   -9.2254   -2.2014  -22.8152 C   0  0  0  0  0  0  0  0  0  0  0  0
  -10.0687   -2.9571  -21.9799 C   0  0  0  0  0  0  0  0  0  0  0  0
  -11.4468   -2.8282  -22.1321 C   0  0  0  0  0  0  0  0  0  0  0  0
  -12.5826   -3.4851  -21.0031 Cl  0  0  0  0  0  0  0  0  0  0  0  0
  -12.0330   -2.0615  -23.1386 C   0  0  0  0  0  0  0  0  0  0  0  0
  -11.2196   -1.2560  -23.9033 C   0  0  0  0  0  0  0  0  0  0  0  0
   -9.8452   -1.2801  -23.6818 C   0  0  0  0  0  0  0  0  0  0  0  0
   -9.0717   -0.1970  -24.3515 C   0  0  0  0  0  0  0  0  0  0  0  0
   -9.5887    0.8389  -24.7440 O   0  0  0  0  0  0  0  0  0  0  0  0
  -11.5980   -0.5031  -24.5930 H   0  0  0  0  0  0  0  0  0  0  0  0
  -13.1163   -2.0311  -23.2139 H   0  0  0  0  0  0  0  0  0  0  0  0
   -9.6752   -3.6064  -21.1980 H   0  0  0  0  0  0  0  0  0  0  0  0
   -7.2462   -2.3870  -24.8446 H   0  0  0  0  0  0  0  0  0  0  0  0
   -6.0449   -1.4358  -23.9542 H   0  0  0  0  0  0  0  0  0  0  0  0
   -7.5160    0.8540  -26.1424 H   0  0  0  0  0  0  0  0  0  0  0  0
   -6.0190    0.1975  -25.4912 H   0  0  0  0  0  0  0  0  0  0  0  0
   -6.7961    0.7721  -22.7488 H   0  0  0  0  0  0  0  0  0  0  0  0
   -7.6053    2.5862  -21.4463 H   0  0  0  0  0  0  0  0  0  0  0  0
   -5.8306    2.5991  -21.4238 H   0  0  0  0  0  0  0  0  0  0  0  0
   -6.7182    3.7159  -22.5069 H   0  0  0  0  0  0  0  0  0  0  0  0
  1  2  1  0
  2  3  1  0
  3  4  2  0
  3  5  1  0
  5  6  1  0
  6  7  1  0
  8  7  1  6
  8  9  1  0
  9 10  2  0
  9 11  1  0
 11 12  1  0
 12 13  2  0
 13 14  1  0
 14 15  2  0
 15 16  1  0
 16 17  2  0
 17 18  1  0
 18 19  2  0
 19 20  1  0
 20 21  2  0
 20 22  1  0
 19 23  1  0
 18 24  1  0
 17 25  1  0
 15 26  1  0
 13 27  1  0
 11 28  1  0
 28 29  1  0
 29 30  1  0
 30 31  1  0
 31 32  1  0
 32 33  2  0
 33 34  1  0
 34 35  1  0
 30 36  1  0
 30 37  1  0
 29 38  1  1
 28 39  1  0
 28 40  1  0
  8 41  1  0
 41 42  2  0
 42 43  1  0
 43 44  1  0
 43 45  2  0
 45 46  1  0
 46 47  2  0
 47 48  1  0
 48 49  2  0
 46 50  1  0
 45 51  1  0
 42 52  1  0
  7 53  1  0
  7 54  1  0
  5 55  1  0
  5 56  1  0
  2 57  1  0
  1 58  1  0
  1 59  1  0
  1 60  1  0
 48  6  1  0
 29  8  1  0
 35 31  2  0
 47 41  1  0
 21 12  1  0
 21 16  1  0
M  CHG  1  34  -1
M  END
>  <cnnaffinities>  (57) 
[6.52787]

>  <score>  (57) 
6.52787

>  <index>  (57) 
59

>  <Smiles>  (57) 
C(N(C(=O)C(N1C([C@@]2(C(=O)N(c3c(nc(c4c(c(c(c(c34)[H])[H])[H])[H])[H])[H])C([C@@]2(C(c2nn[n-]n2)([H])[H])[H])([H])[H])c2c(c(Cl)c(c(c2C1=O)[H])[H])[H])([H])[H])([H])[H])[H])([H])([H])[H]

>  <h>  (57) 
<NA>

>  <Training>  (57) 
True

>  <Success>  (57) 
True

>  <enamine_searched>  (57) 
False

>  <enamine_id>  (57) 
nan

$$$$

     RDKit          3D

 62 67  0  0  0  0  0  0  0  0999 V2000
   -8.1862   -6.7849  -26.7195 C   0  0  0  0  0  0  0  0  0  0  0  0
   -7.1024   -7.3009  -25.7836 C   0  0  0  0  0  0  0  0  0  0  0  0
   -7.6157   -7.4720  -24.4317 N   0  0  0  0  0  0  0  0  0  0  0  0
   -8.6634   -8.2876  -24.2714 N   0  0  0  0  0  0  0  0  0  0  0  0
   -8.8477   -8.3529  -22.9662 C   0  0  0  0  0  0  0  0  0  0  0  0
   -7.8950   -7.5925  -22.2557 C   0  0  0  0  0  0  0  0  0  0  0  0
   -7.1288   -7.0113  -23.2514 C   0  0  0  0  0  0  0  0  0  0  0  0
   -6.1482   -5.8855  -23.2888 C   0  0  0  0  0  0  0  0  0  0  0  0
   -6.7308   -4.7311  -23.9761 N   0  0  0  0  0  0  0  0  0  0  0  0
   -7.9530   -4.1751  -23.4111 C   0  0  0  0  0  0  0  0  0  0  0  0
   -7.8182   -2.6618  -23.1742 C   0  0  2  0  0  0  0  0  0  0  0  0
   -6.8369   -2.4316  -22.0067 C   0  0  0  0  0  0  0  0  0  0  0  0
   -5.7813   -2.9863  -21.7886 O   0  0  0  0  0  0  0  0  0  0  0  0
   -7.3614   -1.4535  -21.2050 N   0  0  0  0  0  0  0  0  0  0  0  0
   -6.5832   -0.8583  -20.1928 C   0  0  0  0  0  0  0  0  0  0  0  0
   -6.9281   -1.0615  -18.8838 C   0  0  0  0  0  0  0  0  0  0  0  0
   -6.2467   -0.5596  -17.8298 N   0  0  0  0  0  0  0  0  0  0  0  0
   -5.2059    0.1929  -18.0968 C   0  0  0  0  0  0  0  0  0  0  0  0
   -4.7565    0.5000  -19.4130 C   0  0  0  0  0  0  0  0  0  0  0  0
   -3.6314    1.3355  -19.6316 C   0  0  0  0  0  0  0  0  0  0  0  0
   -3.2367    1.6457  -20.9023 C   0  0  0  0  0  0  0  0  0  0  0  0
   -3.9471    1.1318  -22.0139 C   0  0  0  0  0  0  0  0  0  0  0  0
   -5.0369    0.3141  -21.8345 C   0  0  0  0  0  0  0  0  0  0  0  0
   -5.4615   -0.0323  -20.5143 C   0  0  0  0  0  0  0  0  0  0  0  0
   -5.5755   -0.0711  -22.7037 H   0  0  0  0  0  0  0  0  0  0  0  0
   -3.6249    1.3955  -23.0174 H   0  0  0  0  0  0  0  0  0  0  0  0
   -2.3842    2.2993  -21.0687 H   0  0  0  0  0  0  0  0  0  0  0  0
   -3.1154    1.7357  -18.7629 H   0  0  0  0  0  0  0  0  0  0  0  0
   -4.6571    0.5994  -17.2475 H   0  0  0  0  0  0  0  0  0  0  0  0
   -7.7905   -1.6840  -18.6467 H   0  0  0  0  0  0  0  0  0  0  0  0
   -8.6661   -0.9790  -21.5961 C   0  0  0  0  0  0  0  0  0  0  0  0
   -9.1322   -1.9915  -22.6604 C   0  0  2  0  0  0  0  0  0  0  0  0
  -10.1843   -2.9448  -22.0740 C   0  0  0  0  0  0  0  0  0  0  0  0
   -9.7953   -3.5247  -21.2302 H   0  0  0  0  0  0  0  0  0  0  0  0
  -10.5463   -3.6501  -22.8269 H   0  0  0  0  0  0  0  0  0  0  0  0
  -11.0516   -2.3797  -21.7139 H   0  0  0  0  0  0  0  0  0  0  0  0
   -9.6200   -1.4725  -23.4912 H   0  0  0  0  0  0  0  0  0  0  0  0
   -8.6181    0.0508  -21.9749 H   0  0  0  0  0  0  0  0  0  0  0  0
   -9.3361   -0.9627  -20.7386 H   0  0  0  0  0  0  0  0  0  0  0  0
   -7.2930   -2.0183  -24.4582 C   0  0  0  0  0  0  0  0  0  0  0  0
   -7.5286   -0.6682  -24.7583 C   0  0  0  0  0  0  0  0  0  0  0  0
   -7.0533   -0.1354  -25.9425 C   0  0  0  0  0  0  0  0  0  0  0  0
   -7.3046    1.1579  -26.2203 F   0  0  0  0  0  0  0  0  0  0  0  0
   -6.3363   -0.8890  -26.8634 C   0  0  0  0  0  0  0  0  0  0  0  0
   -6.0765   -2.2100  -26.5623 C   0  0  0  0  0  0  0  0  0  0  0  0
   -6.5257   -2.7642  -25.3643 C   0  0  0  0  0  0  0  0  0  0  0  0
   -6.1141   -4.1703  -25.0548 C   0  0  0  0  0  0  0  0  0  0  0  0
   -5.2605   -4.7486  -25.7198 O   0  0  0  0  0  0  0  0  0  0  0  0
   -5.5141   -2.8410  -27.2424 H   0  0  0  0  0  0  0  0  0  0  0  0
   -5.9906   -0.4277  -27.7798 H   0  0  0  0  0  0  0  0  0  0  0  0
   -8.0975   -0.0142  -24.1056 H   0  0  0  0  0  0  0  0  0  0  0  0
   -8.7984   -4.3659  -24.0884 H   0  0  0  0  0  0  0  0  0  0  0  0
   -8.1419   -4.6727  -22.4590 H   0  0  0  0  0  0  0  0  0  0  0  0
   -5.2519   -6.1702  -23.8516 H   0  0  0  0  0  0  0  0  0  0  0  0
   -5.8673   -5.6028  -22.2642 H   0  0  0  0  0  0  0  0  0  0  0  0
   -7.8524   -7.4069  -21.1875 H   0  0  0  0  0  0  0  0  0  0  0  0
   -9.7002   -8.9122  -22.6061 H   0  0  0  0  0  0  0  0  0  0  0  0
   -6.2448   -6.6263  -25.7656 H   0  0  0  0  0  0  0  0  0  0  0  0
   -6.7268   -8.2742  -26.1155 H   0  0  0  0  0  0  0  0  0  0  0  0
   -7.8081   -6.7654  -27.7425 H   0  0  0  0  0  0  0  0  0  0  0  0
   -9.0612   -7.4381  -26.6921 H   0  0  0  0  0  0  0  0  0  0  0  0
   -8.5238   -5.7745  -26.4674 H   0  0  0  0  0  0  0  0  0  0  0  0
  1  2  1  0
  2  3  1  0
  3  4  1  0
  4  5  2  0
  5  6  1  0
  6  7  2  0
  7  8  1  0
  8  9  1  0
  9 10  1  0
 11 10  1  6
 11 12  1  0
 12 13  2  0
 12 14  1  0
 14 15  1  0
 15 16  2  0
 16 17  1  0
 17 18  2  0
 18 19  1  0
 19 20  2  0
 20 21  1  0
 21 22  2  0
 22 23  1  0
 23 24  2  0
 23 25  1  0
 22 26  1  0
 21 27  1  0
 20 28  1  0
 18 29  1  0
 16 30  1  0
 14 31  1  0
 31 32  1  0
 32 33  1  0
 33 34  1  0
 33 35  1  0
 33 36  1  0
 32 37  1  6
 31 38  1  0
 31 39  1  0
 11 40  1  0
 40 41  2  0
 41 42  1  0
 42 43  1  0
 42 44  2  0
 44 45  1  0
 45 46  2  0
 46 47  1  0
 47 48  2  0
 45 49  1  0
 44 50  1  0
 41 51  1  0
 10 52  1  0
 10 53  1  0
  8 54  1  0
  8 55  1  0
  6 56  1  0
  5 57  1  0
  2 58  1  0
  2 59  1  0
  1 60  1  0
  1 61  1  0
  1 62  1  0
  7  3  1  0
 47  9  1  0
 32 11  1  0
 46 40  1  0
 24 15  1  0
 24 19  1  0
M  END
>  <cnnaffinities>  (58) 
[6.47118]

>  <score>  (58) 
6.47118

>  <index>  (58) 
60

>  <Smiles>  (58) 
C(C(n1nc(c(c1C(N1C([C@@]2(C(=O)N(c3c(nc(c4c(c(c(c(c34)[H])[H])[H])[H])[H])[H])C([C@@]2(C([H])([H])[H])[H])([H])[H])c2c(c(F)c(c(c2C1=O)[H])[H])[H])([H])[H])([H])[H])[H])[H])([H])[H])([H])([H])[H]

>  <h>  (58) 
<NA>

>  <Training>  (58) 
True

>  <Success>  (58) 
True

>  <enamine_searched>  (58) 
False

>  <enamine_id>  (58) 
nan

$$$$

     RDKit          3D

 44 47  0  0  0  0  0  0  0  0999 V2000
   -5.8680   -3.3083  -21.2795 O   0  0  0  0  0  0  0  0  0  0  0  0
   -6.6936   -2.6835  -21.9264 C   0  0  0  0  0  0  0  0  0  0  0  0
   -7.3966   -1.4601  -21.2856 C   0  0  0  0  0  0  0  0  0  0  0  0
   -6.5780   -0.8277  -20.1841 C   0  0  0  0  0  0  0  0  0  0  0  0
   -6.8720   -1.0469  -18.8606 C   0  0  0  0  0  0  0  0  0  0  0  0
   -6.1851   -0.5491  -17.7978 N   0  0  0  0  0  0  0  0  0  0  0  0
   -5.1579    0.2232  -18.0616 C   0  0  0  0  0  0  0  0  0  0  0  0
   -4.7214    0.5336  -19.3805 C   0  0  0  0  0  0  0  0  0  0  0  0
   -3.5923    1.3608  -19.6204 C   0  0  0  0  0  0  0  0  0  0  0  0
   -3.1929    1.6381  -20.9018 C   0  0  0  0  0  0  0  0  0  0  0  0
   -3.9066    1.0970  -21.9934 C   0  0  0  0  0  0  0  0  0  0  0  0
   -5.0037    0.2965  -21.7857 C   0  0  0  0  0  0  0  0  0  0  0  0
   -5.4452   -0.0066  -20.4700 C   0  0  0  0  0  0  0  0  0  0  0  0
   -5.5362   -0.1087  -22.6400 H   0  0  0  0  0  0  0  0  0  0  0  0
   -3.5841    1.3208  -23.0052 H   0  0  0  0  0  0  0  0  0  0  0  0
   -2.3329    2.2745  -21.0898 H   0  0  0  0  0  0  0  0  0  0  0  0
   -3.0529    1.7749  -18.7723 H   0  0  0  0  0  0  0  0  0  0  0  0
   -4.6016    0.6287  -17.2151 H   0  0  0  0  0  0  0  0  0  0  0  0
   -7.7210   -1.6709  -18.5893 H   0  0  0  0  0  0  0  0  0  0  0  0
   -8.3352   -1.8259  -20.8462 H   0  0  0  0  0  0  0  0  0  0  0  0
   -7.6874   -0.6994  -22.0204 H   0  0  0  0  0  0  0  0  0  0  0  0
   -7.0451   -3.0667  -23.1952 N   0  0  0  0  0  0  0  0  0  0  0  0
   -6.6675   -4.4023  -23.6641 C   0  0  0  0  0  0  0  0  0  0  0  0
   -7.8180   -5.0363  -24.4341 C   0  0  0  0  0  0  0  0  0  0  0  0
   -8.2726   -4.2031  -25.6415 C   0  0  0  0  0  0  0  0  0  0  0  0
   -8.0321   -4.8556  -27.0308 C   0  0  0  0  0  0  0  0  0  0  0  0
   -9.5453   -4.9269  -27.2913 C   0  0  0  0  0  0  0  0  0  0  0  0
   -9.8007   -4.2864  -25.9168 C   0  0  0  0  0  0  0  0  0  0  0  0
  -10.3050   -3.3189  -25.9467 H   0  0  0  0  0  0  0  0  0  0  0  0
  -10.3421   -4.9258  -25.2175 H   0  0  0  0  0  0  0  0  0  0  0  0
   -9.8854   -4.3315  -28.1396 H   0  0  0  0  0  0  0  0  0  0  0  0
   -9.9360   -5.9398  -27.3928 H   0  0  0  0  0  0  0  0  0  0  0  0
   -7.4844   -4.2212  -27.7286 H   0  0  0  0  0  0  0  0  0  0  0  0
   -7.5276   -5.8223  -26.9901 H   0  0  0  0  0  0  0  0  0  0  0  0
   -7.7282   -2.7762  -25.5537 C   0  0  0  0  0  0  0  0  0  0  0  0
   -7.7418   -2.1979  -24.1417 C   0  0  0  0  0  0  0  0  0  0  0  0
   -8.7762   -2.0284  -23.8223 H   0  0  0  0  0  0  0  0  0  0  0  0
   -7.2629   -1.2114  -24.1738 H   0  0  0  0  0  0  0  0  0  0  0  0
   -6.7105   -2.7370  -25.9626 H   0  0  0  0  0  0  0  0  0  0  0  0
   -8.3054   -2.1256  -26.2175 H   0  0  0  0  0  0  0  0  0  0  0  0
   -7.5456   -6.0473  -24.7534 H   0  0  0  0  0  0  0  0  0  0  0  0
   -8.6543   -5.1727  -23.7381 H   0  0  0  0  0  0  0  0  0  0  0  0
   -6.4076   -5.0126  -22.8010 H   0  0  0  0  0  0  0  0  0  0  0  0
   -5.7710   -4.3618  -24.2944 H   0  0  0  0  0  0  0  0  0  0  0  0
  1  2  2  0
  2  3  1  0
  3  4  1  0
  4  5  2  0
  5  6  1  0
  6  7  2  0
  7  8  1  0
  8  9  2  0
  9 10  1  0
 10 11  2  0
 11 12  1  0
 12 13  2  0
 12 14  1  0
 11 15  1  0
 10 16  1  0
  9 17  1  0
  7 18  1  0
  5 19  1  0
  3 20  1  0
  3 21  1  0
  2 22  1  0
 22 23  1  0
 23 24  1  0
 24 25  1  0
 25 26  1  0
 26 27  1  0
 27 28  1  0
 28 29  1  0
 28 30  1  0
 27 31  1  0
 27 32  1  0
 26 33  1  0
 26 34  1  0
 25 35  1  0
 35 36  1  0
 36 37  1  0
 36 38  1  0
 35 39  1  0
 35 40  1  0
 24 41  1  0
 24 42  1  0
 23 43  1  0
 23 44  1  0
 13  4  1  0
 36 22  1  0
 13  8  1  0
 28 25  1  0
M  END
>  <cnnaffinities>  (59) 
[5.4802, 5.48014, 5.4801, 5.47886, 5.27078, 5.2708, 5.27082, 4.99607, 4.99608, 4.99609, 4.99608, 5.26227, 5.26228, 5.2623, 5.41636, 5.4164, 5.41634, 5.41633]

>  <score>  (59) 
5.4802

>  <index>  (59) 
61

>  <Smiles>  (59) 
O=C(C(c1c(nc(c2c(c(c(c(c12)[H])[H])[H])[H])[H])[H])([H])[H])N1C(C(C2(C(C(C2([H])[H])([H])[H])([H])[H])C(C1([H])[H])([H])[H])([H])[H])([H])[H]

>  <h>  (59) 
<NA>

>  <Training>  (59) 
True

>  <Success>  (59) 
True

>  <enamine_searched>  (59) 
False

>  <enamine_id>  (59) 
nan

$$$$

     RDKit          3D

 44 47  0  0  0  0  0  0  0  0999 V2000
   -5.5924   -2.9857  -21.6718 O   0  0  0  0  0  0  0  0  0  0  0  0
   -6.7943   -2.8024  -21.7676 C   0  0  0  0  0  0  0  0  0  0  0  0
   -7.4220   -1.4800  -21.2562 C   0  0  0  0  0  0  0  0  0  0  0  0
   -6.5816   -0.8237  -20.1811 C   0  0  0  0  0  0  0  0  0  0  0  0
   -6.8738   -1.0433  -18.8630 C   0  0  0  0  0  0  0  0  0  0  0  0
   -6.1835   -0.5498  -17.8020 N   0  0  0  0  0  0  0  0  0  0  0  0
   -5.1566    0.2205  -18.0668 C   0  0  0  0  0  0  0  0  0  0  0  0
   -4.7213    0.5331  -19.3801 C   0  0  0  0  0  0  0  0  0  0  0  0
   -3.5923    1.3588  -19.6199 C   0  0  0  0  0  0  0  0  0  0  0  0
   -3.1895    1.6326  -20.8978 C   0  0  0  0  0  0  0  0  0  0  0  0
   -3.8988    1.0878  -21.9911 C   0  0  0  0  0  0  0  0  0  0  0  0
   -4.9953    0.2874  -21.7859 C   0  0  0  0  0  0  0  0  0  0  0  0
   -5.4445   -0.0097  -20.4741 C   0  0  0  0  0  0  0  0  0  0  0  0
   -5.5180   -0.1391  -22.6368 H   0  0  0  0  0  0  0  0  0  0  0  0
   -3.5692    1.3078  -23.0037 H   0  0  0  0  0  0  0  0  0  0  0  0
   -2.3271    2.2705  -21.0844 H   0  0  0  0  0  0  0  0  0  0  0  0
   -3.0578    1.7743  -18.7672 H   0  0  0  0  0  0  0  0  0  0  0  0
   -4.6052    0.6277  -17.2155 H   0  0  0  0  0  0  0  0  0  0  0  0
   -7.7216   -1.6701  -18.5860 H   0  0  0  0  0  0  0  0  0  0  0  0
   -7.5638   -0.7915  -22.1012 H   0  0  0  0  0  0  0  0  0  0  0  0
   -8.4254   -1.6847  -20.8504 H   0  0  0  0  0  0  0  0  0  0  0  0
   -7.6320   -3.7643  -22.3059 N   0  0  0  0  0  0  0  0  0  0  0  0
   -8.9784   -3.5141  -22.8039 C   0  0  0  0  0  0  0  0  0  0  0  0
   -9.2707   -4.3249  -24.0637 C   0  0  0  0  0  0  0  0  0  0  0  0
   -9.0027   -5.8180  -23.8643 C   0  0  0  0  0  0  0  0  0  0  0  0
   -9.3590   -6.5981  -25.1320 C   0  0  0  0  0  0  0  0  0  0  0  0
   -8.6143   -6.3643  -26.4196 C   0  0  0  0  0  0  0  0  0  0  0  0
   -8.5084   -7.6911  -25.7212 C   0  0  0  0  0  0  0  0  0  0  0  0
   -8.9940   -8.5496  -26.1834 H   0  0  0  0  0  0  0  0  0  0  0  0
   -7.5629   -7.9376  -25.2465 H   0  0  0  0  0  0  0  0  0  0  0  0
   -9.1614   -6.3175  -27.3607 H   0  0  0  0  0  0  0  0  0  0  0  0
   -7.7425   -5.7138  -26.3806 H   0  0  0  0  0  0  0  0  0  0  0  0
  -10.4312   -6.7450  -25.2655 H   0  0  0  0  0  0  0  0  0  0  0  0
   -7.5650   -6.0033  -23.3815 C   0  0  0  0  0  0  0  0  0  0  0  0
   -7.2877   -5.1763  -22.1359 C   0  0  0  0  0  0  0  0  0  0  0  0
   -7.8609   -5.6081  -21.3017 H   0  0  0  0  0  0  0  0  0  0  0  0
   -6.2350   -5.2309  -21.8613 H   0  0  0  0  0  0  0  0  0  0  0  0
   -7.3758   -7.0594  -23.1596 H   0  0  0  0  0  0  0  0  0  0  0  0
   -6.8558   -5.7224  -24.1669 H   0  0  0  0  0  0  0  0  0  0  0  0
   -9.6710   -6.1700  -23.0669 H   0  0  0  0  0  0  0  0  0  0  0  0
  -10.3112   -4.1653  -24.3635 H   0  0  0  0  0  0  0  0  0  0  0  0
   -8.6539   -3.9582  -24.8918 H   0  0  0  0  0  0  0  0  0  0  0  0
   -9.7305   -3.7632  -22.0381 H   0  0  0  0  0  0  0  0  0  0  0  0
   -9.0788   -2.4505  -23.0276 H   0  0  0  0  0  0  0  0  0  0  0  0
  1  2  2  0
  2  3  1  0
  3  4  1  0
  4  5  2  0
  5  6  1  0
  6  7  2  0
  7  8  1  0
  8  9  2  0
  9 10  1  0
 10 11  2  0
 11 12  1  0
 12 13  2  0
 12 14  1  0
 11 15  1  0
 10 16  1  0
  9 17  1  0
  7 18  1  0
  5 19  1  0
  3 20  1  0
  3 21  1  0
  2 22  1  0
 22 23  1  0
 23 24  1  0
 24 25  1  0
 25 26  1  0
 26 27  1  0
 27 28  1  0
 28 29  1  0
 28 30  1  0
 27 31  1  0
 27 32  1  0
 26 33  1  0
 25 34  1  0
 34 35  1  0
 35 36  1  0
 35 37  1  0
 34 38  1  0
 34 39  1  0
 25 40  1  0
 24 41  1  0
 24 42  1  0
 23 43  1  0
 23 44  1  0
 13  4  1  0
 35 22  1  0
 13  8  1  0
 28 26  1  0
M  END
>  <cnnaffinities>  (60) 
[5.29745, 5.55636, 5.48381, 5.47372, 5.27891, 5.09541]

>  <score>  (60) 
5.29745

>  <index>  (60) 
62

>  <Smiles>  (60) 
O=C(C(c1c(nc(c2c(c(c(c(c12)[H])[H])[H])[H])[H])[H])([H])[H])N1C(C(C(C2(C(C2([H])[H])([H])[H])[H])(C(C1([H])[H])([H])[H])[H])([H])[H])([H])[H]

>  <h>  (60) 
<NA>

>  <Training>  (60) 
True

>  <Success>  (60) 
True

>  <enamine_searched>  (60) 
False

>  <enamine_id>  (60) 
nan

$$$$

     RDKit          3D

 57 61  0  0  0  0  0  0  0  0999 V2000
   -5.6783   -0.1871  -29.3899 C   0  0  0  0  0  0  0  0  0  0  0  0
   -5.5655    0.0377  -27.9672 N   0  0  0  0  0  0  0  0  0  0  0  0
   -5.0002   -0.9234  -27.1864 C   0  0  0  0  0  0  0  0  0  0  0  0
   -4.4130   -1.8957  -27.6254 O   0  0  0  0  0  0  0  0  0  0  0  0
   -5.0911   -0.6720  -25.6736 C   0  0  0  0  0  0  0  0  0  0  0  0
   -6.3177   -1.1462  -25.0490 N   0  0  0  0  0  0  0  0  0  0  0  0
   -6.2761   -2.3361  -24.2068 C   0  0  0  0  0  0  0  0  0  0  0  0
   -7.3754   -2.3174  -23.0971 C   0  0  2  0  0  0  0  0  0  0  0  0
   -7.0033   -1.2219  -22.0769 C   0  0  0  0  0  0  0  0  0  0  0  0
   -7.2633   -0.0435  -22.1671 O   0  0  0  0  0  0  0  0  0  0  0  0
   -6.3085   -1.8311  -21.0400 N   0  0  0  0  0  0  0  0  0  0  0  0
   -5.8130   -1.1077  -19.9323 C   0  0  0  0  0  0  0  0  0  0  0  0
   -6.2557   -1.3629  -18.6577 C   0  0  0  0  0  0  0  0  0  0  0  0
   -5.8637   -0.6868  -17.5522 N   0  0  0  0  0  0  0  0  0  0  0  0
   -4.9734    0.2633  -17.7139 C   0  0  0  0  0  0  0  0  0  0  0  0
   -4.3879    0.6006  -18.9665 C   0  0  0  0  0  0  0  0  0  0  0  0
   -3.3926    1.6113  -19.0911 C   0  0  0  0  0  0  0  0  0  0  0  0
   -2.8867    1.9372  -20.3206 C   0  0  0  0  0  0  0  0  0  0  0  0
   -3.3400    1.2626  -21.4778 C   0  0  0  0  0  0  0  0  0  0  0  0
   -4.2716    0.2641  -21.3767 C   0  0  0  0  0  0  0  0  0  0  0  0
   -4.8298   -0.0847  -20.1165 C   0  0  0  0  0  0  0  0  0  0  0  0
   -4.6176   -0.2577  -22.2617 H   0  0  0  0  0  0  0  0  0  0  0  0
   -2.9553    1.5451  -22.4534 H   0  0  0  0  0  0  0  0  0  0  0  0
   -2.1382    2.7201  -20.4228 H   0  0  0  0  0  0  0  0  0  0  0  0
   -3.0421    2.1186  -18.1952 H   0  0  0  0  0  0  0  0  0  0  0  0
   -4.6786    0.8141  -16.8230 H   0  0  0  0  0  0  0  0  0  0  0  0
   -7.0010   -2.1367  -18.4905 H   0  0  0  0  0  0  0  0  0  0  0  0
   -6.2284   -3.2837  -21.1807 C   0  0  0  0  0  0  0  0  0  0  0  0
   -7.3329   -3.5781  -22.2069 C   0  0  2  0  0  0  0  0  0  0  0  0
   -7.1939   -4.8893  -22.9724 C   0  0  0  0  0  0  0  0  0  0  0  0
   -7.6714   -6.0027  -22.2483 O   0  0  0  0  0  0  0  0  0  0  0  0
   -7.0878   -6.1142  -21.4889 H   0  0  0  0  0  0  0  0  0  0  0  0
   -7.7753   -4.8215  -23.8974 H   0  0  0  0  0  0  0  0  0  0  0  0
   -6.1429   -5.0190  -23.2788 H   0  0  0  0  0  0  0  0  0  0  0  0
   -8.2718   -3.6005  -21.6492 H   0  0  0  0  0  0  0  0  0  0  0  0
   -5.2477   -3.5992  -21.5714 H   0  0  0  0  0  0  0  0  0  0  0  0
   -6.3827   -3.7813  -20.2181 H   0  0  0  0  0  0  0  0  0  0  0  0
   -8.7095   -1.9853  -23.7223 C   0  0  0  0  0  0  0  0  0  0  0  0
   -9.9448   -2.3981  -23.2007 C   0  0  0  0  0  0  0  0  0  0  0  0
  -11.1285   -1.8756  -23.6999 C   0  0  0  0  0  0  0  0  0  0  0  0
  -12.6351   -2.3618  -22.9624 Cl  0  0  0  0  0  0  0  0  0  0  0  0
  -11.1324   -0.9513  -24.7495 C   0  0  0  0  0  0  0  0  0  0  0  0
   -9.9189   -0.5413  -25.2533 C   0  0  0  0  0  0  0  0  0  0  0  0
   -8.7258   -1.0553  -24.7622 C   0  0  0  0  0  0  0  0  0  0  0  0
   -7.4741   -0.5141  -25.3616 C   0  0  0  0  0  0  0  0  0  0  0  0
   -7.5213    0.4489  -26.1278 O   0  0  0  0  0  0  0  0  0  0  0  0
   -9.8696    0.2118  -26.0263 H   0  0  0  0  0  0  0  0  0  0  0  0
  -12.0380   -0.5142  -25.1540 H   0  0  0  0  0  0  0  0  0  0  0  0
  -10.0029   -3.1263  -22.3999 H   0  0  0  0  0  0  0  0  0  0  0  0
   -6.3779   -3.2281  -24.8362 H   0  0  0  0  0  0  0  0  0  0  0  0
   -5.2876   -2.3752  -23.7330 H   0  0  0  0  0  0  0  0  0  0  0  0
   -4.2572   -1.2051  -25.2153 H   0  0  0  0  0  0  0  0  0  0  0  0
   -4.9884    0.3934  -25.4528 H   0  0  0  0  0  0  0  0  0  0  0  0
   -6.2958    0.5829  -27.5207 H   0  0  0  0  0  0  0  0  0  0  0  0
   -6.4056   -0.9733  -29.6254 H   0  0  0  0  0  0  0  0  0  0  0  0
   -4.7107   -0.4876  -29.7955 H   0  0  0  0  0  0  0  0  0  0  0  0
   -5.9803    0.7470  -29.8683 H   0  0  0  0  0  0  0  0  0  0  0  0
  1  2  1  0
  2  3  1  0
  3  4  2  0
  3  5  1  0
  5  6  1  0
  6  7  1  0
  8  7  1  6
  8  9  1  0
  9 10  2  0
  9 11  1  0
 11 12  1  0
 12 13  2  0
 13 14  1  0
 14 15  2  0
 15 16  1  0
 16 17  2  0
 17 18  1  0
 18 19  2  0
 19 20  1  0
 20 21  2  0
 20 22  1  0
 19 23  1  0
 18 24  1  0
 17 25  1  0
 15 26  1  0
 13 27  1  0
 11 28  1  0
 28 29  1  0
 29 30  1  0
 30 31  1  0
 31 32  1  0
 30 33  1  0
 30 34  1  0
 29 35  1  1
 28 36  1  0
 28 37  1  0
  8 38  1  0
 38 39  2  0
 39 40  1  0
 40 41  1  0
 40 42  2  0
 42 43  1  0
 43 44  2  0
 44 45  1  0
 45 46  2  0
 43 47  1  0
 42 48  1  0
 39 49  1  0
  7 50  1  0
  7 51  1  0
  5 52  1  0
  5 53  1  0
  2 54  1  0
  1 55  1  0
  1 56  1  0
  1 57  1  0
 45  6  1  0
 29  8  1  0
 44 38  1  0
 21 12  1  0
 21 16  1  0
M  END
>  <cnnaffinities>  (61) 
[6.06095]

>  <score>  (61) 
6.06095

>  <index>  (61) 
63

>  <Smiles>  (61) 
C(N(C(=O)C(N1C([C@@]2(C(=O)N(c3c(nc(c4c(c(c(c(c34)[H])[H])[H])[H])[H])[H])C([C@@]2(C(O[H])([H])[H])[H])([H])[H])c2c(c(Cl)c(c(c2C1=O)[H])[H])[H])([H])[H])([H])[H])[H])([H])([H])[H]

>  <h>  (61) 
<NA>

>  <Training>  (61) 
True

>  <Success>  (61) 
True

>  <enamine_searched>  (61) 
False

>  <enamine_id>  (61) 
nan

$$$$

     RDKit          3D

 55 60  0  0  0  0  0  0  0  0999 V2000
  -10.2189   -2.9634  -22.0636 C   0  0  0  0  0  0  0  0  0  0  0  0
   -9.1493   -2.0215  -22.6399 C   0  0  1  0  0  0  0  0  0  0  0  0
   -8.6710   -1.0401  -21.5565 C   0  0  0  0  0  0  0  0  0  0  0  0
   -7.3424   -1.4874  -21.2142 N   0  0  0  0  0  0  0  0  0  0  0  0
   -6.5683   -0.8692  -20.2004 C   0  0  0  0  0  0  0  0  0  0  0  0
   -6.9092   -1.0622  -18.8862 C   0  0  0  0  0  0  0  0  0  0  0  0
   -6.2248   -0.5602  -17.8305 N   0  0  0  0  0  0  0  0  0  0  0  0
   -5.1877    0.1989  -18.0933 C   0  0  0  0  0  0  0  0  0  0  0  0
   -4.7457    0.5125  -19.4113 C   0  0  0  0  0  0  0  0  0  0  0  0
   -3.6219    1.3517  -19.6348 C   0  0  0  0  0  0  0  0  0  0  0  0
   -3.2293    1.6612  -20.9074 C   0  0  0  0  0  0  0  0  0  0  0  0
   -3.9464    1.1534  -22.0155 C   0  0  0  0  0  0  0  0  0  0  0  0
   -5.0387    0.3421  -21.8304 C   0  0  0  0  0  0  0  0  0  0  0  0
   -5.4560   -0.0185  -20.5126 C   0  0  0  0  0  0  0  0  0  0  0  0
   -5.5877   -0.0274  -22.6980 H   0  0  0  0  0  0  0  0  0  0  0  0
   -3.6288    1.4112  -23.0227 H   0  0  0  0  0  0  0  0  0  0  0  0
   -2.3693    2.3031  -21.0799 H   0  0  0  0  0  0  0  0  0  0  0  0
   -3.0945    1.7479  -18.7709 H   0  0  0  0  0  0  0  0  0  0  0  0
   -4.6383    0.6105  -17.2446 H   0  0  0  0  0  0  0  0  0  0  0  0
   -7.7675   -1.6874  -18.6398 H   0  0  0  0  0  0  0  0  0  0  0  0
   -6.8270   -2.4452  -22.0575 C   0  0  0  0  0  0  0  0  0  0  0  0
   -5.7355   -2.9495  -21.9227 O   0  0  0  0  0  0  0  0  0  0  0  0
   -7.8568   -2.7041  -23.1844 C   0  0  1  0  0  0  0  0  0  0  0  0
   -8.1058   -4.2057  -23.4330 C   0  0  0  0  0  0  0  0  0  0  0  0
   -7.1051   -4.8830  -24.2366 N   0  0  0  0  0  0  0  0  0  0  0  0
   -6.7172   -6.2301  -23.8473 C   0  0  0  0  0  0  0  0  0  0  0  0
   -5.5495   -6.1474  -22.9081 C   0  0  0  0  0  0  0  0  0  0  0  0
   -4.2667   -5.9776  -23.3319 N   0  0  0  0  0  0  0  0  0  0  0  0
   -3.6022   -5.8220  -22.2128 C   0  0  0  0  0  0  0  0  0  0  0  0
   -4.4543   -5.8703  -21.1728 N   0  0  0  0  0  0  0  0  0  0  0  0
   -5.7112   -6.0887  -21.5986 N   0  0  0  0  0  0  0  0  0  0  0  0
   -4.2531   -5.8322  -20.1906 H   0  0  0  0  0  0  0  0  0  0  0  0
   -2.5281   -5.7095  -22.1265 H   0  0  0  0  0  0  0  0  0  0  0  0
   -7.5723   -6.6953  -23.3469 H   0  0  0  0  0  0  0  0  0  0  0  0
   -6.4706   -6.7741  -24.7640 H   0  0  0  0  0  0  0  0  0  0  0  0
   -6.3289   -4.2750  -25.1740 C   0  0  0  0  0  0  0  0  0  0  0  0
   -5.4566   -4.8708  -25.7927 O   0  0  0  0  0  0  0  0  0  0  0  0
   -6.6126   -2.8366  -25.3909 C   0  0  0  0  0  0  0  0  0  0  0  0
   -6.0832   -2.2842  -26.5520 C   0  0  0  0  0  0  0  0  0  0  0  0
   -6.3071   -0.9569  -26.8481 C   0  0  0  0  0  0  0  0  0  0  0  0
   -7.0371   -0.2028  -25.9336 C   0  0  0  0  0  0  0  0  0  0  0  0
   -7.2578    1.0954  -26.2091 F   0  0  0  0  0  0  0  0  0  0  0  0
   -7.5451   -0.7246  -24.7580 C   0  0  0  0  0  0  0  0  0  0  0  0
   -7.3531   -2.0822  -24.4779 C   0  0  0  0  0  0  0  0  0  0  0  0
   -8.1041   -0.0709  -24.0936 H   0  0  0  0  0  0  0  0  0  0  0  0
   -5.9332   -0.4880  -27.7513 H   0  0  0  0  0  0  0  0  0  0  0  0
   -5.5057   -2.9456  -27.1917 H   0  0  0  0  0  0  0  0  0  0  0  0
   -9.0858   -4.3057  -23.9129 H   0  0  0  0  0  0  0  0  0  0  0  0
   -8.1362   -4.7063  -22.4632 H   0  0  0  0  0  0  0  0  0  0  0  0
   -8.6649    0.0044  -21.8931 H   0  0  0  0  0  0  0  0  0  0  0  0
   -9.3212   -1.0832  -20.6877 H   0  0  0  0  0  0  0  0  0  0  0  0
   -9.6253   -1.4861  -23.4651 H   0  0  0  0  0  0  0  0  0  0  0  0
  -11.0715   -2.3869  -21.6908 H   0  0  0  0  0  0  0  0  0  0  0  0
  -10.6122   -3.6471  -22.8195 H   0  0  0  0  0  0  0  0  0  0  0  0
   -9.8298   -3.5597  -21.2313 H   0  0  0  0  0  0  0  0  0  0  0  0
  1  2  1  0
  2  3  1  0
  3  4  1  0
  4  5  1  0
  5  6  2  0
  6  7  1  0
  7  8  2  0
  8  9  1  0
  9 10  2  0
 10 11  1  0
 11 12  2  0
 12 13  1  0
 13 14  2  0
 13 15  1  0
 12 16  1  0
 11 17  1  0
 10 18  1  0
  8 19  1  0
  6 20  1  0
  4 21  1  0
 21 22  2  0
 21 23  1  0
 23 24  1  6
 24 25  1  0
 25 26  1  0
 26 27  1  0
 27 28  1  0
 28 29  2  0
 29 30  1  0
 30 31  1  0
 30 32  1  0
 29 33  1  0
 26 34  1  0
 26 35  1  0
 25 36  1  0
 36 37  2  0
 36 38  1  0
 38 39  2  0
 39 40  1  0
 40 41  2  0
 41 42  1  0
 41 43  1  0
 43 44  2  0
 43 45  1  0
 40 46  1  0
 39 47  1  0
 24 48  1  0
 24 49  1  0
  3 50  1  0
  3 51  1  0
  2 52  1  6
  1 53  1  0
  1 54  1  0
  1 55  1  0
 23  2  1  0
 31 27  2  0
 44 38  1  0
 14  5  1  0
 44 23  1  0
 14  9  1  0
M  END
>  <cnnaffinities>  (62) 
[6.2312]

>  <score>  (62) 
6.2312

>  <index>  (62) 
64

>  <Smiles>  (62) 
C([C@]1(C(N(c2c(nc(c3c(c(c(c(c23)[H])[H])[H])[H])[H])[H])C(=O)[C@]21C(N(C(c1nc(n(n1)[H])[H])([H])[H])C(=O)c1c(c(c(F)c(c21)[H])[H])[H])([H])[H])([H])[H])[H])([H])([H])[H]

>  <h>  (62) 
<NA>

>  <Training>  (62) 
True

>  <Success>  (62) 
True

>  <enamine_searched>  (62) 
False

>  <enamine_id>  (62) 
nan

$$$$

     RDKit          3D

 55 60  0  0  0  0  0  0  0  0999 V2000
  -10.2220   -2.9705  -22.0730 C   0  0  0  0  0  0  0  0  0  0  0  0
   -9.1548   -2.0169  -22.6289 C   0  0  1  0  0  0  0  0  0  0  0  0
   -8.6902   -1.0312  -21.5391 C   0  0  0  0  0  0  0  0  0  0  0  0
   -7.3523   -1.4522  -21.2012 N   0  0  0  0  0  0  0  0  0  0  0  0
   -6.5758   -0.8500  -20.1917 C   0  0  0  0  0  0  0  0  0  0  0  0
   -6.9140   -1.0600  -18.8811 C   0  0  0  0  0  0  0  0  0  0  0  0
   -6.2278   -0.5645  -17.8269 N   0  0  0  0  0  0  0  0  0  0  0  0
   -5.1907    0.1939  -18.0960 C   0  0  0  0  0  0  0  0  0  0  0  0
   -4.7473    0.5074  -19.4138 C   0  0  0  0  0  0  0  0  0  0  0  0
   -3.6260    1.3477  -19.6366 C   0  0  0  0  0  0  0  0  0  0  0  0
   -3.2331    1.6582  -20.9083 C   0  0  0  0  0  0  0  0  0  0  0  0
   -3.9469    1.1489  -22.0188 C   0  0  0  0  0  0  0  0  0  0  0  0
   -5.0370    0.3343  -21.8354 C   0  0  0  0  0  0  0  0  0  0  0  0
   -5.4563   -0.0200  -20.5150 C   0  0  0  0  0  0  0  0  0  0  0  0
   -5.5823   -0.0350  -22.7062 H   0  0  0  0  0  0  0  0  0  0  0  0
   -3.6272    1.4129  -23.0235 H   0  0  0  0  0  0  0  0  0  0  0  0
   -2.3760    2.3041  -21.0773 H   0  0  0  0  0  0  0  0  0  0  0  0
   -3.1029    1.7447  -18.7708 H   0  0  0  0  0  0  0  0  0  0  0  0
   -4.6418    0.6083  -17.2499 H   0  0  0  0  0  0  0  0  0  0  0  0
   -7.7729   -1.6902  -18.6492 H   0  0  0  0  0  0  0  0  0  0  0  0
   -6.8285   -2.4110  -22.0270 C   0  0  0  0  0  0  0  0  0  0  0  0
   -5.7445   -2.9370  -21.8657 O   0  0  0  0  0  0  0  0  0  0  0  0
   -7.8472   -2.6829  -23.1497 C   0  0  1  0  0  0  0  0  0  0  0  0
   -7.9616   -4.1952  -23.3498 C   0  0  0  0  0  0  0  0  0  0  0  0
   -6.7209   -4.7057  -23.8912 N   0  0  0  0  0  0  0  0  0  0  0  0
   -6.2675   -6.0056  -23.4402 C   0  0  0  0  0  0  0  0  0  0  0  0
   -7.1043   -7.1048  -24.0410 C   0  0  0  0  0  0  0  0  0  0  0  0
   -7.0875   -7.5751  -25.3071 C   0  0  0  0  0  0  0  0  0  0  0  0
   -8.2231   -8.2942  -25.5186 O   0  0  0  0  0  0  0  0  0  0  0  0
   -8.8712   -8.2304  -24.3387 C   0  0  0  0  0  0  0  0  0  0  0  0
   -8.2720   -7.5549  -23.4236 N   0  0  0  0  0  0  0  0  0  0  0  0
   -9.8000   -8.7773  -24.2571 H   0  0  0  0  0  0  0  0  0  0  0  0
   -6.4036   -7.4777  -26.1353 H   0  0  0  0  0  0  0  0  0  0  0  0
   -5.2133   -6.0718  -23.7220 H   0  0  0  0  0  0  0  0  0  0  0  0
   -6.3414   -5.9889  -22.3470 H   0  0  0  0  0  0  0  0  0  0  0  0
   -6.2490   -4.2384  -25.0827 C   0  0  0  0  0  0  0  0  0  0  0  0
   -5.5341   -4.9063  -25.8246 O   0  0  0  0  0  0  0  0  0  0  0  0
   -6.6264   -2.8313  -25.3824 C   0  0  0  0  0  0  0  0  0  0  0  0
   -6.1747   -2.2871  -26.5824 C   0  0  0  0  0  0  0  0  0  0  0  0
   -6.3969   -0.9539  -26.8632 C   0  0  0  0  0  0  0  0  0  0  0  0
   -7.0761   -0.1919  -25.9167 C   0  0  0  0  0  0  0  0  0  0  0  0
   -7.2787    1.1127  -26.1725 F   0  0  0  0  0  0  0  0  0  0  0  0
   -7.5539   -0.7160  -24.7309 C   0  0  0  0  0  0  0  0  0  0  0  0
   -7.3526   -2.0733  -24.4567 C   0  0  0  0  0  0  0  0  0  0  0  0
   -8.0843   -0.0617  -24.0446 H   0  0  0  0  0  0  0  0  0  0  0  0
   -6.0364   -0.4834  -27.7703 H   0  0  0  0  0  0  0  0  0  0  0  0
   -5.6332   -2.9481  -27.2532 H   0  0  0  0  0  0  0  0  0  0  0  0
   -8.7956   -4.4109  -24.0329 H   0  0  0  0  0  0  0  0  0  0  0  0
   -8.1536   -4.6918  -22.3976 H   0  0  0  0  0  0  0  0  0  0  0  0
   -9.3373   -1.0920  -20.6701 H   0  0  0  0  0  0  0  0  0  0  0  0
   -8.6954    0.0118  -21.8768 H   0  0  0  0  0  0  0  0  0  0  0  0
   -9.6282   -1.4834  -23.4598 H   0  0  0  0  0  0  0  0  0  0  0  0
  -11.0773   -2.3965  -21.6985 H   0  0  0  0  0  0  0  0  0  0  0  0
   -9.8328   -3.5704  -21.2431 H   0  0  0  0  0  0  0  0  0  0  0  0
  -10.5971   -3.6498  -22.8444 H   0  0  0  0  0  0  0  0  0  0  0  0
  1  2  1  0
  2  3  1  0
  3  4  1  0
  4  5  1  0
  5  6  2  0
  6  7  1  0
  7  8  2  0
  8  9  1  0
  9 10  2  0
 10 11  1  0
 11 12  2  0
 12 13  1  0
 13 14  2  0
 13 15  1  0
 12 16  1  0
 11 17  1  0
 10 18  1  0
  8 19  1  0
  6 20  1  0
  4 21  1  0
 21 22  2  0
 21 23  1  0
 23 24  1  6
 24 25  1  0
 25 26  1  0
 26 27  1  0
 27 28  2  0
 28 29  1  0
 29 30  1  0
 30 31  2  0
 30 32  1  0
 28 33  1  0
 26 34  1  0
 26 35  1  0
 25 36  1  0
 36 37  2  0
 36 38  1  0
 38 39  2  0
 39 40  1  0
 40 41  2  0
 41 42  1  0
 41 43  1  0
 43 44  2  0
 43 45  1  0
 40 46  1  0
 39 47  1  0
 24 48  1  0
 24 49  1  0
  3 50  1  0
  3 51  1  0
  2 52  1  6
  1 53  1  0
  1 54  1  0
  1 55  1  0
 23  2  1  0
 31 27  1  0
 44 38  1  0
 14  5  1  0
 44 23  1  0
 14  9  1  0
M  END
>  <cnnaffinities>  (63) 
[6.14122, 6.25815]

>  <score>  (63) 
6.14122

>  <index>  (63) 
65

>  <Smiles>  (63) 
C([C@]1(C(N(c2c(nc(c3c(c(c(c(c23)[H])[H])[H])[H])[H])[H])C(=O)[C@]21C(N(C(c1c(oc(n1)[H])[H])([H])[H])C(=O)c1c(c(c(F)c(c21)[H])[H])[H])([H])[H])([H])[H])[H])([H])([H])[H]

>  <h>  (63) 
<NA>

>  <Training>  (63) 
True

>  <Success>  (63) 
True

>  <enamine_searched>  (63) 
False

>  <enamine_id>  (63) 
nan

$$$$

     RDKit          3D

 44 47  0  0  0  0  0  0  0  0999 V2000
   -7.8633   -0.6307  -24.9373 C   0  0  0  0  0  0  0  0  0  0  0  0
   -8.3877   -2.0413  -25.1100 C   0  0  0  0  0  0  0  0  0  0  0  0
   -8.3386   -2.8841  -23.8287 C   0  0  1  0  0  0  0  0  0  0  0  0
   -8.8956   -4.2636  -24.0852 C   0  0  0  0  0  0  0  0  0  0  0  0
  -10.2767   -4.5733  -24.2922 C   0  0  0  0  0  0  0  0  0  0  0  0
  -10.4789   -5.8969  -24.5452 C   0  0  0  0  0  0  0  0  0  0  0  0
   -8.9973   -6.7825  -24.5489 S   0  0  0  0  0  0  0  0  0  0  0  0
   -8.0879   -5.3554  -24.1816 C   0  0  0  0  0  0  0  0  0  0  0  0
   -6.6073   -5.3362  -23.9388 C   0  0  0  0  0  0  0  0  0  0  0  0
   -6.0939   -3.8952  -23.9609 C   0  0  0  0  0  0  0  0  0  0  0  0
   -6.9915   -2.9816  -23.2488 N   0  0  0  0  0  0  0  0  0  0  0  0
   -6.6860   -2.6709  -21.9319 C   0  0  0  0  0  0  0  0  0  0  0  0
   -5.8398   -3.2879  -21.3099 O   0  0  0  0  0  0  0  0  0  0  0  0
   -7.4055   -1.4669  -21.2759 C   0  0  0  0  0  0  0  0  0  0  0  0
   -6.5817   -0.8262  -20.1810 C   0  0  0  0  0  0  0  0  0  0  0  0
   -6.8731   -1.0460  -18.8595 C   0  0  0  0  0  0  0  0  0  0  0  0
   -6.1846   -0.5485  -17.7970 N   0  0  0  0  0  0  0  0  0  0  0  0
   -5.1580    0.2231  -18.0619 C   0  0  0  0  0  0  0  0  0  0  0  0
   -4.7220    0.5338  -19.3806 C   0  0  0  0  0  0  0  0  0  0  0  0
   -3.5924    1.3612  -19.6209 C   0  0  0  0  0  0  0  0  0  0  0  0
   -3.1931    1.6379  -20.9013 C   0  0  0  0  0  0  0  0  0  0  0  0
   -3.9066    1.0959  -21.9934 C   0  0  0  0  0  0  0  0  0  0  0  0
   -5.0031    0.2947  -21.7858 C   0  0  0  0  0  0  0  0  0  0  0  0
   -5.4468   -0.0072  -20.4703 C   0  0  0  0  0  0  0  0  0  0  0  0
   -5.5346   -0.1117  -22.6408 H   0  0  0  0  0  0  0  0  0  0  0  0
   -3.5830    1.3200  -23.0049 H   0  0  0  0  0  0  0  0  0  0  0  0
   -2.3329    2.2745  -21.0896 H   0  0  0  0  0  0  0  0  0  0  0  0
   -3.0530    1.7753  -18.7721 H   0  0  0  0  0  0  0  0  0  0  0  0
   -4.6014    0.6288  -17.2151 H   0  0  0  0  0  0  0  0  0  0  0  0
   -7.7212   -1.6715  -18.5878 H   0  0  0  0  0  0  0  0  0  0  0  0
   -7.6872   -0.7144  -22.0257 H   0  0  0  0  0  0  0  0  0  0  0  0
   -8.3434   -1.8354  -20.8399 H   0  0  0  0  0  0  0  0  0  0  0  0
   -6.0013   -3.5645  -25.0014 H   0  0  0  0  0  0  0  0  0  0  0  0
   -5.0979   -3.8288  -23.5202 H   0  0  0  0  0  0  0  0  0  0  0  0
   -6.3974   -5.7707  -22.9553 H   0  0  0  0  0  0  0  0  0  0  0  0
   -6.0681   -5.9547  -24.6680 H   0  0  0  0  0  0  0  0  0  0  0  0
  -11.4166   -6.4035  -24.7283 H   0  0  0  0  0  0  0  0  0  0  0  0
  -11.0769   -3.8372  -24.2520 H   0  0  0  0  0  0  0  0  0  0  0  0
   -8.9908   -2.4008  -23.0926 H   0  0  0  0  0  0  0  0  0  0  0  0
   -7.8389   -2.5688  -25.8935 H   0  0  0  0  0  0  0  0  0  0  0  0
   -9.4260   -2.0165  -25.4589 H   0  0  0  0  0  0  0  0  0  0  0  0
   -7.9253   -0.0749  -25.8749 H   0  0  0  0  0  0  0  0  0  0  0  0
   -6.8182   -0.6400  -24.6157 H   0  0  0  0  0  0  0  0  0  0  0  0
   -8.4466   -0.0849  -24.1893 H   0  0  0  0  0  0  0  0  0  0  0  0
  1  2  1  0
  2  3  1  0
  3  4  1  0
  4  5  1  0
  5  6  2  0
  6  7  1  0
  7  8  1  0
  8  9  1  0
  9 10  1  0
 10 11  1  0
 11 12  1  0
 12 13  2  0
 12 14  1  0
 14 15  1  0
 15 16  2  0
 16 17  1  0
 17 18  2  0
 18 19  1  0
 19 20  2  0
 20 21  1  0
 21 22  2  0
 22 23  1  0
 23 24  2  0
 23 25  1  0
 22 26  1  0
 21 27  1  0
 20 28  1  0
 18 29  1  0
 16 30  1  0
 14 31  1  0
 14 32  1  0
 10 33  1  0
 10 34  1  0
  9 35  1  0
  9 36  1  0
  6 37  1  0
  5 38  1  0
  3 39  1  1
  2 40  1  0
  2 41  1  0
  1 42  1  0
  1 43  1  0
  1 44  1  0
 11  3  1  0
 24 15  1  0
  8  4  2  0
 24 19  1  0
M  END
>  <cnnaffinities>  (64) 
[5.77922, 5.72727]

>  <score>  (64) 
5.77922

>  <index>  (64) 
66

>  <Smiles>  (64) 
C(C([C@]1(c2c(c(sc2C(C(N1C(=O)C(c1c(nc(c2c(c(c(c(c12)[H])[H])[H])[H])[H])[H])([H])[H])([H])[H])([H])[H])[H])[H])[H])([H])[H])([H])([H])[H]

>  <h>  (64) 
<NA>

>  <Training>  (64) 
True

>  <Success>  (64) 
True

>  <enamine_searched>  (64) 
False

>  <enamine_id>  (64) 
nan

$$$$

     RDKit          3D

 58 63  0  0  0  0  0  0  0  0999 V2000
   -6.2428   -8.8810  -22.5109 C   0  0  0  0  0  0  0  0  0  0  0  0
   -7.2667   -7.8359  -22.4266 C   0  0  0  0  0  0  0  0  0  0  0  0
   -7.6912   -6.6202  -21.9234 C   0  0  0  0  0  0  0  0  0  0  0  0
   -8.7036   -6.5565  -22.9109 C   0  0  0  0  0  0  0  0  0  0  0  0
   -9.6335   -5.6826  -23.6462 C   0  0  0  0  0  0  0  0  0  0  0  0
   -8.9757   -4.4589  -24.0816 N   0  0  0  0  0  0  0  0  0  0  0  0
   -7.9393   -3.9248  -23.2159 C   0  0  0  0  0  0  0  0  0  0  0  0
   -7.8934   -2.3824  -23.3174 C   0  0  2  0  0  0  0  0  0  0  0  0
   -6.7118   -1.8960  -22.4726 C   0  0  0  0  0  0  0  0  0  0  0  0
   -5.5699   -2.3134  -22.5378 O   0  0  0  0  0  0  0  0  0  0  0  0
   -7.1545   -0.9202  -21.6048 N   0  0  0  0  0  0  0  0  0  0  0  0
   -6.4312   -0.4946  -20.4596 C   0  0  0  0  0  0  0  0  0  0  0  0
   -6.9282   -0.7867  -19.2116 C   0  0  0  0  0  0  0  0  0  0  0  0
   -6.3482   -0.4255  -18.0426 N   0  0  0  0  0  0  0  0  0  0  0  0
   -5.2457    0.2827  -18.1153 C   0  0  0  0  0  0  0  0  0  0  0  0
   -4.6242    0.6592  -19.3409 C   0  0  0  0  0  0  0  0  0  0  0  0
   -3.4353    1.4323  -19.3606 C   0  0  0  0  0  0  0  0  0  0  0  0
   -2.8802    1.8210  -20.5480 C   0  0  0  0  0  0  0  0  0  0  0  0
   -3.4837    1.4495  -21.7686 C   0  0  0  0  0  0  0  0  0  0  0  0
   -4.6203    0.6840  -21.7814 C   0  0  0  0  0  0  0  0  0  0  0  0
   -5.2244    0.2696  -20.5596 C   0  0  0  0  0  0  0  0  0  0  0  0
   -5.0667    0.3808  -22.7245 H   0  0  0  0  0  0  0  0  0  0  0  0
   -3.0427    1.7705  -22.7053 H   0  0  0  0  0  0  0  0  0  0  0  0
   -1.9837    2.4314  -20.5629 H   0  0  0  0  0  0  0  0  0  0  0  0
   -2.9867    1.7108  -18.4133 H   0  0  0  0  0  0  0  0  0  0  0  0
   -4.7827    0.5960  -17.1782 H   0  0  0  0  0  0  0  0  0  0  0  0
   -7.8506   -1.3627  -19.1140 H   0  0  0  0  0  0  0  0  0  0  0  0
   -8.4954   -0.4578  -21.9179 C   0  0  0  0  0  0  0  0  0  0  0  0
   -9.1328   -1.6224  -22.6992 C   0  0  2  0  0  0  0  0  0  0  0  0
  -10.0783   -2.4683  -21.8388 C   0  0  0  0  0  0  0  0  0  0  0  0
  -10.7237   -3.0698  -22.4872 H   0  0  0  0  0  0  0  0  0  0  0  0
  -10.7165   -1.8191  -21.2312 H   0  0  0  0  0  0  0  0  0  0  0  0
   -9.5410   -3.1395  -21.1623 H   0  0  0  0  0  0  0  0  0  0  0  0
   -9.7348   -1.2161  -23.5209 H   0  0  0  0  0  0  0  0  0  0  0  0
   -9.0373   -0.2200  -20.9980 H   0  0  0  0  0  0  0  0  0  0  0  0
   -8.4611    0.4475  -22.5472 H   0  0  0  0  0  0  0  0  0  0  0  0
   -7.7237   -2.0233  -24.7871 C   0  0  0  0  0  0  0  0  0  0  0  0
   -7.0474   -0.8639  -25.1876 C   0  0  0  0  0  0  0  0  0  0  0  0
   -6.9599   -0.5548  -26.5320 C   0  0  0  0  0  0  0  0  0  0  0  0
   -6.2570    0.5224  -26.9225 F   0  0  0  0  0  0  0  0  0  0  0  0
   -7.5497   -1.3429  -27.5117 C   0  0  0  0  0  0  0  0  0  0  0  0
   -8.2571   -2.4604  -27.1097 C   0  0  0  0  0  0  0  0  0  0  0  0
   -8.3359   -2.8171  -25.7628 C   0  0  0  0  0  0  0  0  0  0  0  0
   -9.0734   -4.0736  -25.3944 C   0  0  0  0  0  0  0  0  0  0  0  0
   -9.7249   -4.7000  -26.2177 O   0  0  0  0  0  0  0  0  0  0  0  0
   -8.7448   -3.1081  -27.8290 H   0  0  0  0  0  0  0  0  0  0  0  0
   -7.4588   -1.0715  -28.5577 H   0  0  0  0  0  0  0  0  0  0  0  0
   -6.5742   -0.2020  -24.4685 H   0  0  0  0  0  0  0  0  0  0  0  0
   -8.1499   -4.2298  -22.1946 H   0  0  0  0  0  0  0  0  0  0  0  0
   -6.9521   -4.3474  -23.4618 H   0  0  0  0  0  0  0  0  0  0  0  0
  -10.4692   -5.4400  -22.9824 H   0  0  0  0  0  0  0  0  0  0  0  0
  -10.0056   -6.1955  -24.5365 H   0  0  0  0  0  0  0  0  0  0  0  0
   -8.7676   -8.5659  -24.1850 O   0  0  0  0  0  0  0  0  0  0  0  0
   -8.2765   -7.7743  -23.3908 N   0  0  0  0  0  0  0  0  0  0  0  0
   -7.4028   -5.9779  -21.1107 H   0  0  0  0  0  0  0  0  0  0  0  0
   -5.7361   -8.7603  -23.4690 H   0  0  0  0  0  0  0  0  0  0  0  0
   -5.5301   -8.7959  -21.6929 H   0  0  0  0  0  0  0  0  0  0  0  0
   -6.7321   -9.8567  -22.5197 H   0  0  0  0  0  0  0  0  0  0  0  0
  1  2  1  0
  2  3  1  0
  3  4  2  0
  4  5  1  0
  5  6  1  0
  6  7  1  0
  8  7  1  6
  8  9  1  0
  9 10  2  0
  9 11  1  0
 11 12  1  0
 12 13  2  0
 13 14  1  0
 14 15  2  0
 15 16  1  0
 16 17  2  0
 17 18  1  0
 18 19  2  0
 19 20  1  0
 20 21  2  0
 20 22  1  0
 19 23  1  0
 18 24  1  0
 17 25  1  0
 15 26  1  0
 13 27  1  0
 11 28  1  0
 28 29  1  0
 29 30  1  0
 30 31  1  0
 30 32  1  0
 30 33  1  0
 29 34  1  6
 28 35  1  0
 28 36  1  0
  8 37  1  0
 37 38  2  0
 38 39  1  0
 39 40  1  0
 39 41  2  0
 41 42  1  0
 42 43  2  0
 43 44  1  0
 44 45  2  0
 42 46  1  0
 41 47  1  0
 38 48  1  0
  7 49  1  0
  7 50  1  0
  5 51  1  0
  5 52  1  0
  4 53  1  0
 53 54  1  0
  3 55  1  0
  1 56  1  0
  1 57  1  0
  1 58  1  0
 54  2  2  0
 44  6  1  0
 29  8  1  0
 43 37  1  0
 21 12  1  0
 21 16  1  0
M  END
>  <cnnaffinities>  (65) 
[6.65229]

>  <score>  (65) 
6.65229

>  <index>  (65) 
67

>  <Smiles>  (65) 
C(c1c(c(C(N2C([C@@]3(C(=O)N(c4c(nc(c5c(c(c(c(c45)[H])[H])[H])[H])[H])[H])C([C@@]3(C([H])([H])[H])[H])([H])[H])c3c(c(F)c(c(c3C2=O)[H])[H])[H])([H])[H])([H])[H])on1)[H])([H])([H])[H]

>  <h>  (65) 
<NA>

>  <Training>  (65) 
True

>  <Success>  (65) 
True

>  <enamine_searched>  (65) 
False

>  <enamine_id>  (65) 
nan

$$$$

     RDKit          3D

 65 70  0  0  0  0  0  0  0  0999 V2000
   -8.7705    0.2315  -20.7154 O   0  0  0  0  0  0  0  0  0  0  0  0
   -8.1429   -0.2046  -21.6644 C   0  0  0  0  0  0  0  0  0  0  0  0
   -7.2547   -1.4040  -21.3659 C   0  0  0  0  0  0  0  0  0  0  0  0
   -6.3654   -0.9641  -20.2394 C   0  0  0  0  0  0  0  0  0  0  0  0
   -6.7365   -1.1798  -18.9397 C   0  0  0  0  0  0  0  0  0  0  0  0
   -6.1375   -0.6267  -17.8575 N   0  0  0  0  0  0  0  0  0  0  0  0
   -5.1293    0.1853  -18.0772 C   0  0  0  0  0  0  0  0  0  0  0  0
   -4.6320    0.4970  -19.3735 C   0  0  0  0  0  0  0  0  0  0  0  0
   -3.5565    1.4018  -19.5778 C   0  0  0  0  0  0  0  0  0  0  0  0
   -3.1342    1.7169  -20.8418 C   0  0  0  0  0  0  0  0  0  0  0  0
   -3.7794    1.1546  -21.9644 C   0  0  0  0  0  0  0  0  0  0  0  0
   -4.8256    0.2771  -21.7929 C   0  0  0  0  0  0  0  0  0  0  0  0
   -5.2755   -0.0853  -20.4936 C   0  0  0  0  0  0  0  0  0  0  0  0
   -5.3121   -0.1233  -22.6758 H   0  0  0  0  0  0  0  0  0  0  0  0
   -3.4581    1.4230  -22.9695 H   0  0  0  0  0  0  0  0  0  0  0  0
   -2.3056    2.4058  -20.9930 H   0  0  0  0  0  0  0  0  0  0  0  0
   -3.0802    1.8370  -18.7021 H   0  0  0  0  0  0  0  0  0  0  0  0
   -4.6659    0.6590  -17.2067 H   0  0  0  0  0  0  0  0  0  0  0  0
   -7.6100   -1.7969  -18.7300 H   0  0  0  0  0  0  0  0  0  0  0  0
   -6.6722   -1.7284  -22.2221 H   0  0  0  0  0  0  0  0  0  0  0  0
   -7.9205   -2.2096  -21.0303 H   0  0  0  0  0  0  0  0  0  0  0  0
   -8.1436    0.3879  -22.9043 N   0  0  0  0  0  0  0  0  0  0  0  0
   -7.8814   -0.3830  -24.1161 C   0  0  0  0  0  0  0  0  0  0  0  0
   -9.0448   -1.2440  -24.5406 C   0  0  0  0  0  0  0  0  0  0  0  0
   -9.9920   -0.7781  -25.4498 C   0  0  0  0  0  0  0  0  0  0  0  0
  -11.0935   -1.5625  -25.7721 C   0  0  0  0  0  0  0  0  0  0  0  0
  -11.2546   -2.8219  -25.2052 C   0  0  0  0  0  0  0  0  0  0  0  0
  -10.3006   -3.2810  -24.3133 C   0  0  0  0  0  0  0  0  0  0  0  0
  -10.4955   -4.8624  -23.6048 Cl  0  0  0  0  0  0  0  0  0  0  0  0
   -9.2033   -2.5044  -23.9670 C   0  0  0  0  0  0  0  0  0  0  0  0
   -8.4834   -2.9054  -23.2573 H   0  0  0  0  0  0  0  0  0  0  0  0
  -12.1250   -3.4299  -25.4303 H   0  0  0  0  0  0  0  0  0  0  0  0
  -11.8197   -1.1929  -26.4869 H   0  0  0  0  0  0  0  0  0  0  0  0
   -9.8554    0.1903  -25.9328 H   0  0  0  0  0  0  0  0  0  0  0  0
   -7.6162    0.3088  -24.9123 H   0  0  0  0  0  0  0  0  0  0  0  0
   -7.0154   -1.0264  -23.9439 H   0  0  0  0  0  0  0  0  0  0  0  0
   -8.5212    1.8013  -22.9595 C   0  0  2  0  0  0  0  0  0  0  0  0
  -10.0285    2.1537  -22.9484 C   0  0  0  0  0  0  0  0  0  0  0  0
  -10.0411    3.6365  -23.4230 C   0  0  0  0  0  0  0  0  0  0  0  0
   -8.5609    3.9221  -23.6964 C   0  0  2  0  0  0  0  0  0  0  0  0
   -8.0463    2.5779  -24.1916 C   0  0  0  0  0  0  0  0  0  0  0  0
   -6.9599    2.5168  -24.3242 H   0  0  0  0  0  0  0  0  0  0  0  0
   -8.5624    2.2613  -25.1048 H   0  0  0  0  0  0  0  0  0  0  0  0
   -7.8945    4.0507  -22.3071 N   0  0  2  0  0  4  0  0  0  0  0  0
   -6.5615    4.7182  -22.2925 C   0  0  0  0  0  0  0  0  0  0  0  0
   -6.6904    6.2361  -22.3038 C   0  0  0  0  0  0  0  0  0  0  0  0
   -6.7208    6.8955  -20.9125 C   0  0  0  0  0  0  0  0  0  0  0  0
   -5.3637    7.3424  -21.0434 O   0  0  0  0  0  0  0  0  0  0  0  0
   -5.3411    6.9544  -22.4256 C   0  0  0  0  0  0  0  0  0  0  0  0
   -4.4799    6.3148  -22.6619 H   0  0  0  0  0  0  0  0  0  0  0  0
   -5.3411    7.8237  -23.0980 H   0  0  0  0  0  0  0  0  0  0  0  0
   -7.4077    7.7434  -20.8063 H   0  0  0  0  0  0  0  0  0  0  0  0
   -6.8471    6.2103  -20.0650 H   0  0  0  0  0  0  0  0  0  0  0  0
   -7.4806    6.5506  -22.9919 H   0  0  0  0  0  0  0  0  0  0  0  0
   -5.9658    4.3751  -23.1521 H   0  0  0  0  0  0  0  0  0  0  0  0
   -6.0150    4.4104  -21.3889 H   0  0  0  0  0  0  0  0  0  0  0  0
   -7.8758    2.6239  -21.8171 C   0  0  0  0  0  0  0  0  0  0  0  0
   -8.4365    2.5490  -20.8885 H   0  0  0  0  0  0  0  0  0  0  0  0
   -6.8468    2.3052  -21.6336 H   0  0  0  0  0  0  0  0  0  0  0  0
   -8.5106    4.6021  -21.6819 H   0  0  0  0  0  0  0  0  0  0  0  0
   -8.3490    4.7907  -24.3090 H   0  0  0  0  0  0  0  0  0  0  0  0
  -10.6606    3.7817  -24.3133 H   0  0  0  0  0  0  0  0  0  0  0  0
  -10.4153    4.3207  -22.6516 H   0  0  0  0  0  0  0  0  0  0  0  0
  -10.5685    1.5078  -23.6498 H   0  0  0  0  0  0  0  0  0  0  0  0
  -10.4583    2.0561  -21.9542 H   0  0  0  0  0  0  0  0  0  0  0  0
  1  2  2  0
  2  3  1  0
  3  4  1  0
  4  5  2  0
  5  6  1  0
  6  7  2  0
  7  8  1  0
  8  9  2  0
  9 10  1  0
 10 11  2  0
 11 12  1  0
 12 13  2  0
 12 14  1  0
 11 15  1  0
 10 16  1  0
  9 17  1  0
  7 18  1  0
  5 19  1  0
  3 20  1  0
  3 21  1  0
  2 22  1  0
 22 23  1  0
 23 24  1  0
 24 25  2  0
 25 26  1  0
 26 27  2  0
 27 28  1  0
 28 29  1  0
 28 30  2  0
 30 31  1  0
 27 32  1  0
 26 33  1  0
 25 34  1  0
 23 35  1  0
 23 36  1  0
 37 22  1  6
 37 38  1  0
 38 39  1  0
 39 40  1  0
 40 41  1  0
 41 42  1  0
 41 43  1  0
 40 44  1  0
 44 45  1  0
 45 46  1  0
 46 47  1  0
 47 48  1  0
 48 49  1  0
 49 50  1  0
 49 51  1  0
 47 52  1  0
 47 53  1  0
 46 54  1  0
 45 55  1  0
 45 56  1  0
 44 57  1  0
 57 58  1  0
 57 59  1  0
 44 60  1  1
 40 61  1  6
 39 62  1  0
 39 63  1  0
 38 64  1  0
 38 65  1  0
 13  4  1  0
 30 24  1  0
 41 37  1  0
 49 46  1  0
 13  8  1  0
 57 37  1  0
M  CHG  1  44   1
M  END
>  <cnnaffinities>  (66) 
[6.29324, 6.47279, 6.25298]

>  <score>  (66) 
6.29324

>  <index>  (66) 
68

>  <Smiles>  (66) 
O=C(C(c1c(nc(c2c(c(c(c(c12)[H])[H])[H])[H])[H])[H])([H])[H])N(C(c1c(c(c(c(Cl)c1[H])[H])[H])[H])([H])[H])[C@]12C(C([C@](C1([H])[H])([N@+](C(C1(C(OC1([H])[H])([H])[H])[H])([H])[H])(C2([H])[H])[H])[H])([H])[H])([H])[H]

>  <h>  (66) 
<NA>

>  <Training>  (66) 
True

>  <Success>  (66) 
True

>  <enamine_searched>  (66) 
False

>  <enamine_id>  (66) 
nan

$$$$

     RDKit          3D

 63 67  0  0  0  0  0  0  0  0999 V2000
   -3.5377    3.0417  -26.2686 C   0  0  0  0  0  0  0  0  0  0  0  0
   -4.3601    2.0217  -26.0314 C   0  0  0  0  0  0  0  0  0  0  0  0
   -4.8645    1.1367  -27.1277 C   0  0  0  0  0  0  0  0  0  0  0  0
   -4.6742    1.3816  -28.3035 O   0  0  0  0  0  0  0  0  0  0  0  0
   -5.6601    0.0427  -26.7308 N   0  0  0  0  0  0  0  0  0  0  0  0
   -6.9679   -0.0411  -27.3709 C   0  0  0  0  0  0  0  0  0  0  0  0
   -7.6502   -1.3694  -27.0845 C   0  0  0  0  0  0  0  0  0  0  0  0
   -7.6374   -1.6630  -25.5864 C   0  0  0  0  0  0  0  0  0  0  0  0
   -6.2224   -1.6478  -25.0543 C   0  0  0  0  0  0  0  0  0  0  0  0
   -5.2752   -0.8312  -25.7047 C   0  0  0  0  0  0  0  0  0  0  0  0
   -3.9206   -0.9314  -25.3663 C   0  0  0  0  0  0  0  0  0  0  0  0
   -3.5129   -1.7785  -24.3601 C   0  0  0  0  0  0  0  0  0  0  0  0
   -4.4519   -2.5072  -23.6245 C   0  0  0  0  0  0  0  0  0  0  0  0
   -5.7907   -2.3943  -23.9589 C   0  0  0  0  0  0  0  0  0  0  0  0
   -6.8303   -3.1859  -23.0621 N   0  0  1  0  0  4  0  0  0  0  0  0
   -6.7011   -4.7068  -23.2747 C   0  0  0  0  0  0  0  0  0  0  0  0
   -7.0286   -5.0851  -24.6948 C   0  0  0  0  0  0  0  0  0  0  0  0
   -8.3412   -5.3830  -25.0650 C   0  0  0  0  0  0  0  0  0  0  0  0
   -8.6628   -5.6940  -26.3819 C   0  0  0  0  0  0  0  0  0  0  0  0
   -7.6756   -5.7240  -27.3620 C   0  0  0  0  0  0  0  0  0  0  0  0
   -6.3678   -5.4330  -26.9901 C   0  0  0  0  0  0  0  0  0  0  0  0
   -5.1213   -5.4515  -28.2112 Cl  0  0  0  0  0  0  0  0  0  0  0  0
   -6.0339   -5.1239  -25.6773 C   0  0  0  0  0  0  0  0  0  0  0  0
   -5.0052   -4.8807  -25.4200 H   0  0  0  0  0  0  0  0  0  0  0  0
   -7.9094   -5.9707  -28.3953 H   0  0  0  0  0  0  0  0  0  0  0  0
   -9.6918   -5.9266  -26.6458 H   0  0  0  0  0  0  0  0  0  0  0  0
   -9.1200   -5.3529  -24.3066 H   0  0  0  0  0  0  0  0  0  0  0  0
   -7.3513   -5.2276  -22.5669 H   0  0  0  0  0  0  0  0  0  0  0  0
   -5.6726   -4.9775  -23.0384 H   0  0  0  0  0  0  0  0  0  0  0  0
   -6.7280   -2.8354  -21.6485 C   0  0  0  0  0  0  0  0  0  0  0  0
   -6.1221   -3.5605  -20.8930 O   0  0  0  0  0  0  0  0  0  0  0  0
   -7.3819   -1.5098  -21.2325 C   0  0  0  0  0  0  0  0  0  0  0  0
   -6.5848   -0.8044  -20.1659 C   0  0  0  0  0  0  0  0  0  0  0  0
   -6.8748   -1.0331  -18.8472 C   0  0  0  0  0  0  0  0  0  0  0  0
   -6.1813   -0.5427  -17.7895 N   0  0  0  0  0  0  0  0  0  0  0  0
   -5.1542    0.2224  -18.0622 C   0  0  0  0  0  0  0  0  0  0  0  0
   -4.7222    0.5393  -19.3804 C   0  0  0  0  0  0  0  0  0  0  0  0
   -3.5878    1.3549  -19.6192 C   0  0  0  0  0  0  0  0  0  0  0  0
   -3.1910    1.6328  -20.8978 C   0  0  0  0  0  0  0  0  0  0  0  0
   -3.9177    1.1096  -21.9923 C   0  0  0  0  0  0  0  0  0  0  0  0
   -5.0267    0.3252  -21.7895 C   0  0  0  0  0  0  0  0  0  0  0  0
   -5.4566    0.0154  -20.4705 C   0  0  0  0  0  0  0  0  0  0  0  0
   -5.5763   -0.0738  -22.6396 H   0  0  0  0  0  0  0  0  0  0  0  0
   -3.5962    1.3425  -23.0064 H   0  0  0  0  0  0  0  0  0  0  0  0
   -2.3270    2.2665  -21.0764 H   0  0  0  0  0  0  0  0  0  0  0  0
   -3.0579    1.7603  -18.7614 H   0  0  0  0  0  0  0  0  0  0  0  0
   -4.6062    0.6302  -17.2128 H   0  0  0  0  0  0  0  0  0  0  0  0
   -7.7206   -1.6686  -18.5832 H   0  0  0  0  0  0  0  0  0  0  0  0
   -8.3794   -1.7446  -20.8277 H   0  0  0  0  0  0  0  0  0  0  0  0
   -7.5474   -0.8745  -22.1085 H   0  0  0  0  0  0  0  0  0  0  0  0
   -7.7342   -2.8505  -23.4469 H   0  0  0  0  0  0  0  0  0  0  0  0
   -4.1946   -3.1229  -22.7699 H   0  0  0  0  0  0  0  0  0  0  0  0
   -2.4426   -1.7909  -24.1844 H   0  0  0  0  0  0  0  0  0  0  0  0
   -3.1550   -0.3707  -25.8946 H   0  0  0  0  0  0  0  0  0  0  0  0
   -8.1154   -2.6289  -25.3941 H   0  0  0  0  0  0  0  0  0  0  0  0
   -8.2269   -0.9104  -25.0438 H   0  0  0  0  0  0  0  0  0  0  0  0
   -7.1509   -2.1828  -27.6287 H   0  0  0  0  0  0  0  0  0  0  0  0
   -8.6792   -1.3178  -27.4575 H   0  0  0  0  0  0  0  0  0  0  0  0
   -6.8113    0.1184  -28.4437 H   0  0  0  0  0  0  0  0  0  0  0  0
   -7.5965    0.7849  -26.9995 H   0  0  0  0  0  0  0  0  0  0  0  0
   -4.7556    1.8281  -25.0342 H   0  0  0  0  0  0  0  0  0  0  0  0
   -3.2195    3.7167  -25.4776 H   0  0  0  0  0  0  0  0  0  0  0  0
   -3.1661    3.2526  -27.2680 H   0  0  0  0  0  0  0  0  0  0  0  0
  1  2  2  0
  2  3  1  0
  3  4  2  0
  3  5  1  0
  5  6  1  0
  6  7  1  0
  7  8  1  0
  8  9  1  0
  9 10  2  0
 10 11  1  0
 11 12  2  0
 12 13  1  0
 13 14  2  0
 14 15  1  0
 15 16  1  0
 16 17  1  0
 17 18  2  0
 18 19  1  0
 19 20  2  0
 20 21  1  0
 21 22  1  0
 21 23  2  0
 23 24  1  0
 20 25  1  0
 19 26  1  0
 18 27  1  0
 16 28  1  0
 16 29  1  0
 15 30  1  0
 30 31  2  0
 30 32  1  0
 32 33  1  0
 33 34  2  0
 34 35  1  0
 35 36  2  0
 36 37  1  0
 37 38  2  0
 38 39  1  0
 39 40  2  0
 40 41  1  0
 41 42  2  0
 41 43  1  0
 40 44  1  0
 39 45  1  0
 38 46  1  0
 36 47  1  0
 34 48  1  0
 32 49  1  0
 32 50  1  0
 15 51  1  6
 13 52  1  0
 12 53  1  0
 11 54  1  0
  8 55  1  0
  8 56  1  0
  7 57  1  0
  7 58  1  0
  6 59  1  0
  6 60  1  0
  2 61  1  0
  1 62  1  0
  1 63  1  0
 10  5  1  0
 23 17  1  0
 42 33  1  0
 14  9  1  0
 42 37  1  0
M  CHG  1  15   1
M  END
>  <cnnaffinities>  (67) 
[6.40225]

>  <score>  (67) 
6.40225

>  <index>  (67) 
69

>  <Smiles>  (67) 
C(=C(C(=O)N1C(C(C(c2c1c(c(c(c2[N@@+](C(c1c(c(c(c(Cl)c1[H])[H])[H])[H])([H])[H])(C(=O)C(c1c(nc(c2c(c(c(c(c12)[H])[H])[H])[H])[H])[H])([H])[H])[H])[H])[H])[H])([H])[H])([H])[H])([H])[H])[H])([H])[H]

>  <h>  (67) 
<NA>

>  <Training>  (67) 
True

>  <Success>  (67) 
True

>  <enamine_searched>  (67) 
False

>  <enamine_id>  (67) 
nan

$$$$

     RDKit          3D

 52 54  0  0  0  0  0  0  0  0999 V2000
   -8.8309   -7.6696  -27.3631 C   0  0  0  0  0  0  0  0  0  0  0  0
   -8.4811   -6.6997  -26.2418 C   0  0  0  0  0  0  0  0  0  0  0  0
   -7.7264   -5.4955  -26.8351 C   0  0  0  0  0  0  0  0  0  0  0  0
   -8.4599   -4.7699  -27.2156 H   0  0  0  0  0  0  0  0  0  0  0  0
   -7.1161   -4.9905  -26.0782 H   0  0  0  0  0  0  0  0  0  0  0  0
   -7.0642   -5.7919  -27.6593 H   0  0  0  0  0  0  0  0  0  0  0  0
   -9.7439   -6.3105  -25.5125 C   0  0  0  0  0  0  0  0  0  0  0  0
   -9.6604   -5.7724  -23.9274 C   0  0  0  0  0  0  0  0  0  0  0  0
   -9.4105   -5.6820  -24.1947 C   0  0  0  0  0  0  0  0  0  0  0  0
   -9.8409   -6.0324  -22.6971 H   0  0  0  0  0  0  0  0  0  0  0  0
  -10.7718   -5.7724  -23.6172 H   0  0  0  0  0  0  0  0  0  0  0  0
   -7.9716   -6.0980  -23.7140 H   0  0  0  0  0  0  0  0  0  0  0  0
   -6.9367   -6.0926  -23.2758 C   0  0  0  0  0  0  0  0  0  0  0  0
   -6.9756   -5.2149  -22.0377 C   0  0  0  0  0  0  0  0  0  0  0  0
   -7.3868   -3.8270  -22.2692 N   0  0  0  0  0  0  0  0  0  0  0  0
   -6.6522   -2.8832  -21.5881 C   0  0  0  0  0  0  0  0  0  0  0  0
   -5.5054   -3.0939  -21.2239 O   0  0  0  0  0  0  0  0  0  0  0  0
   -7.3404   -1.5475  -21.2647 C   0  0  0  0  0  0  0  0  0  0  0  0
   -6.6088   -0.8236  -20.1786 C   0  0  0  0  0  0  0  0  0  0  0  0
   -6.9621   -1.0192  -18.8707 C   0  0  0  0  0  0  0  0  0  0  0  0
   -6.3133   -0.5068  -17.7957 N   0  0  0  0  0  0  0  0  0  0  0  0
   -5.2665    0.2455  -18.0413 C   0  0  0  0  0  0  0  0  0  0  0  0
   -4.7746    0.5265  -19.3456 C   0  0  0  0  0  0  0  0  0  0  0  0
   -3.6335    1.3398  -19.5646 C   0  0  0  0  0  0  0  0  0  0  0  0
   -3.1892    1.5856  -20.8355 C   0  0  0  0  0  0  0  0  0  0  0  0
   -3.8635    1.0239  -21.9450 C   0  0  0  0  0  0  0  0  0  0  0  0
   -4.9682    0.2323  -21.7574 C   0  0  0  0  0  0  0  0  0  0  0  0
   -5.4604   -0.0282  -20.4519 C   0  0  0  0  0  0  0  0  0  0  0  0
   -5.4703   -0.2040  -22.6150 H   0  0  0  0  0  0  0  0  0  0  0  0
   -3.5031    1.2295  -22.9504 H   0  0  0  0  0  0  0  0  0  0  0  0
   -2.3219    2.2182  -21.0040 H   0  0  0  0  0  0  0  0  0  0  0  0
   -3.1270    1.7672  -18.6996 H   0  0  0  0  0  0  0  0  0  0  0  0
   -4.7452    0.6654  -17.1797 H   0  0  0  0  0  0  0  0  0  0  0  0
   -7.8234   -1.6422  -18.6332 H   0  0  0  0  0  0  0  0  0  0  0  0
   -7.4212   -0.9441  -22.1787 H   0  0  0  0  0  0  0  0  0  0  0  0
   -8.3640   -1.7587  -20.9298 H   0  0  0  0  0  0  0  0  0  0  0  0
   -8.7393   -3.5288  -22.7655 C   0  0  0  0  0  0  0  0  0  0  0  0
   -9.1218   -4.1814  -24.0917 C   0  0  0  0  0  0  0  0  0  0  0  0
   -8.2710   -4.0057  -24.7590 H   0  0  0  0  0  0  0  0  0  0  0  0
   -9.9525   -3.6007  -24.5159 H   0  0  0  0  0  0  0  0  0  0  0  0
   -8.7737   -2.4588  -22.9607 H   0  0  0  0  0  0  0  0  0  0  0  0
   -9.5063   -3.7184  -21.9933 H   0  0  0  0  0  0  0  0  0  0  0  0
   -7.6491   -5.6721  -21.2972 H   0  0  0  0  0  0  0  0  0  0  0  0
   -5.9899   -5.1600  -21.5747 H   0  0  0  0  0  0  0  0  0  0  0  0
   -6.2554   -5.7227  -24.0472 H   0  0  0  0  0  0  0  0  0  0  0  0
   -6.6613   -7.1142  -23.0098 H   0  0  0  0  0  0  0  0  0  0  0  0
  -10.2995   -7.2257  -25.3423 H   0  0  0  0  0  0  0  0  0  0  0  0
  -10.3603   -5.6551  -26.1390 H   0  0  0  0  0  0  0  0  0  0  0  0
   -7.8318   -7.2028  -25.5130 H   0  0  0  0  0  0  0  0  0  0  0  0
   -7.9608   -7.9409  -27.9775 H   0  0  0  0  0  0  0  0  0  0  0  0
   -9.5661   -7.2020  -28.0295 H   0  0  0  0  0  0  0  0  0  0  0  0
   -9.2797   -8.5917  -26.9765 H   0  0  0  0  0  0  0  0  0  0  0  0
  1  2  1  0
  2  3  1  0
  3  4  1  0
  3  5  1  0
  3  6  1  0
  2  7  1  0
  7  8  1  0
  8  9  1  0
  9 10  1  0
  9 11  1  0
  9 12  1  0
  8 13  1  0
 13 14  1  0
 14 15  1  0
 15 16  1  0
 16 17  2  0
 16 18  1  0
 18 19  1  0
 19 20  2  0
 20 21  1  0
 21 22  2  0
 22 23  1  0
 23 24  2  0
 24 25  1  0
 25 26  2  0
 26 27  1  0
 27 28  2  0
 27 29  1  0
 26 30  1  0
 25 31  1  0
 24 32  1  0
 22 33  1  0
 20 34  1  0
 18 35  1  0
 18 36  1  0
 15 37  1  0
 37 38  1  0
 38 39  1  0
 38 40  1  0
 37 41  1  0
 37 42  1  0
 14 43  1  0
 14 44  1  0
 13 45  1  0
 13 46  1  0
  7 47  1  0
  7 48  1  0
  2 49  1  0
  1 50  1  0
  1 51  1  0
  1 52  1  0
 38  8  1  0
 28 19  1  0
 28 23  1  0
M  END
>  <cnnaffinities>  (68) 
[5.34593]

>  <score>  (68) 
5.34593

>  <index>  (68) 
70

>  <Smiles>  (68) 
C(C(C([H])([H])[H])(C(C1(C([H])([H])[H])C(C(N(C(=O)C(c2c(nc(c3c(c(c(c(c23)[H])[H])[H])[H])[H])[H])([H])[H])C(C1([H])[H])([H])[H])([H])[H])([H])[H])([H])[H])[H])([H])([H])[H]

>  <h>  (68) 
<NA>

>  <Training>  (68) 
True

>  <Success>  (68) 
True

>  <enamine_searched>  (68) 
False

>  <enamine_id>  (68) 
nan

$$$$

     RDKit          3D

 50 54  0  0  0  0  0  0  0  0999 V2000
  -10.2472   -2.9685  -22.0736 C   0  0  0  0  0  0  0  0  0  0  0  0
   -9.1662   -2.0198  -22.6376 C   0  0  1  0  0  0  0  0  0  0  0  0
   -8.6921   -1.0458  -21.5358 C   0  0  0  0  0  0  0  0  0  0  0  0
   -7.3451   -1.4665  -21.2140 N   0  0  0  0  0  0  0  0  0  0  0  0
   -6.5646   -0.8610  -20.1898 C   0  0  0  0  0  0  0  0  0  0  0  0
   -6.8902   -1.0571  -18.8724 C   0  0  0  0  0  0  0  0  0  0  0  0
   -6.2038   -0.5461  -17.8225 N   0  0  0  0  0  0  0  0  0  0  0  0
   -5.1669    0.2120  -18.0828 C   0  0  0  0  0  0  0  0  0  0  0  0
   -4.7312    0.5304  -19.3983 C   0  0  0  0  0  0  0  0  0  0  0  0
   -3.6051    1.3646  -19.6327 C   0  0  0  0  0  0  0  0  0  0  0  0
   -3.2219    1.6653  -20.9098 C   0  0  0  0  0  0  0  0  0  0  0  0
   -3.9529    1.1535  -22.0071 C   0  0  0  0  0  0  0  0  0  0  0  0
   -5.0446    0.3484  -21.8091 C   0  0  0  0  0  0  0  0  0  0  0  0
   -5.4506   -0.0080  -20.4927 C   0  0  0  0  0  0  0  0  0  0  0  0
   -5.5984   -0.0422  -22.6630 H   0  0  0  0  0  0  0  0  0  0  0  0
   -3.6423    1.4000  -23.0193 H   0  0  0  0  0  0  0  0  0  0  0  0
   -2.3646    2.3117  -21.0944 H   0  0  0  0  0  0  0  0  0  0  0  0
   -3.0681    1.7681  -18.7769 H   0  0  0  0  0  0  0  0  0  0  0  0
   -4.6224    0.6147  -17.2276 H   0  0  0  0  0  0  0  0  0  0  0  0
   -7.7452   -1.6776  -18.6030 H   0  0  0  0  0  0  0  0  0  0  0  0
   -6.8243   -2.3978  -22.0826 C   0  0  0  0  0  0  0  0  0  0  0  0
   -5.7070   -2.8639  -21.9866 O   0  0  0  0  0  0  0  0  0  0  0  0
   -7.8673   -2.6974  -23.1810 C   0  0  1  0  0  0  0  0  0  0  0  0
   -8.0161   -4.2182  -23.3863 C   0  0  0  0  0  0  0  0  0  0  0  0
   -6.8334   -4.8044  -23.9833 N   0  0  0  0  0  0  0  0  0  0  0  0
   -6.2997   -6.0678  -23.4995 C   0  0  0  0  0  0  0  0  0  0  0  0
   -4.9749   -5.9215  -22.8636 C   0  0  0  0  0  0  0  0  0  0  0  0
   -3.9420   -5.8114  -22.3579 N   0  0  0  0  0  0  0  0  0  0  0  0
   -6.9899   -6.4904  -22.7639 H   0  0  0  0  0  0  0  0  0  0  0  0
   -6.2173   -6.7900  -24.3182 H   0  0  0  0  0  0  0  0  0  0  0  0
   -6.2668   -4.2691  -25.1094 C   0  0  0  0  0  0  0  0  0  0  0  0
   -5.4905   -4.9180  -25.7926 O   0  0  0  0  0  0  0  0  0  0  0  0
   -6.6305   -2.8391  -25.3944 C   0  0  0  0  0  0  0  0  0  0  0  0
   -6.1388   -2.2604  -26.5642 C   0  0  0  0  0  0  0  0  0  0  0  0
   -6.3509   -0.9277  -26.8474 C   0  0  0  0  0  0  0  0  0  0  0  0
   -7.0518   -0.1790  -25.9126 C   0  0  0  0  0  0  0  0  0  0  0  0
   -7.2463    1.1276  -26.1631 F   0  0  0  0  0  0  0  0  0  0  0  0
   -7.5551   -0.7179  -24.7443 C   0  0  0  0  0  0  0  0  0  0  0  0
   -7.3818   -2.0843  -24.4856 C   0  0  0  0  0  0  0  0  0  0  0  0
   -8.0673   -0.0467  -24.0602 H   0  0  0  0  0  0  0  0  0  0  0  0
   -5.9829   -0.4430  -27.7471 H   0  0  0  0  0  0  0  0  0  0  0  0
   -5.5683   -2.8757  -27.2451 H   0  0  0  0  0  0  0  0  0  0  0  0
   -8.9021   -4.4146  -24.0111 H   0  0  0  0  0  0  0  0  0  0  0  0
   -8.1577   -4.6971  -22.4211 H   0  0  0  0  0  0  0  0  0  0  0  0
   -8.7330    0.0102  -21.8474 H   0  0  0  0  0  0  0  0  0  0  0  0
   -9.3302   -1.1373  -20.6621 H   0  0  0  0  0  0  0  0  0  0  0  0
   -9.6575   -1.4612  -23.4442 H   0  0  0  0  0  0  0  0  0  0  0  0
  -11.1050   -2.3950  -21.6901 H   0  0  0  0  0  0  0  0  0  0  0  0
   -9.8703   -3.5822  -21.2444 H   0  0  0  0  0  0  0  0  0  0  0  0
  -10.6366   -3.6488  -22.8393 H   0  0  0  0  0  0  0  0  0  0  0  0
  1  2  1  0
  2  3  1  0
  3  4  1  0
  4  5  1  0
  5  6  2  0
  6  7  1  0
  7  8  2  0
  8  9  1  0
  9 10  2  0
 10 11  1  0
 11 12  2  0
 12 13  1  0
 13 14  2  0
 13 15  1  0
 12 16  1  0
 11 17  1  0
 10 18  1  0
  8 19  1  0
  6 20  1  0
  4 21  1  0
 21 22  2  0
 21 23  1  0
 23 24  1  6
 24 25  1  0
 25 26  1  0
 26 27  1  0
 27 28  3  0
 26 29  1  0
 26 30  1  0
 25 31  1  0
 31 32  2  0
 31 33  1  0
 33 34  2  0
 34 35  1  0
 35 36  2  0
 36 37  1  0
 36 38  1  0
 38 39  2  0
 38 40  1  0
 35 41  1  0
 34 42  1  0
 24 43  1  0
 24 44  1  0
  3 45  1  0
  3 46  1  0
  2 47  1  6
  1 48  1  0
  1 49  1  0
  1 50  1  0
 23  2  1  0
 39 33  1  0
 14  5  1  0
 39 23  1  0
 14  9  1  0
M  END
>  <cnnaffinities>  (69) 
[6.03169, 6.20243, 5.90549]

>  <score>  (69) 
6.03169

>  <index>  (69) 
71

>  <Smiles>  (69) 
C([C@]1(C(N(c2c(nc(c3c(c(c(c(c23)[H])[H])[H])[H])[H])[H])C(=O)[C@]21C(N(C(C#N)([H])[H])C(=O)c1c(c(c(F)c(c21)[H])[H])[H])([H])[H])([H])[H])[H])([H])([H])[H]

>  <h>  (69) 
<NA>

>  <Training>  (69) 
True

>  <Success>  (69) 
True

>  <enamine_searched>  (69) 
False

>  <enamine_id>  (69) 
nan

$$$$

     RDKit          3D

 41 44  0  0  0  0  0  0  0  0999 V2000
   -5.9726   -3.3692  -21.2297 O   0  0  0  0  0  0  0  0  0  0  0  0
   -6.6739   -2.6667  -21.9343 C   0  0  0  0  0  0  0  0  0  0  0  0
   -7.3980   -1.4575  -21.2834 C   0  0  0  0  0  0  0  0  0  0  0  0
   -6.5783   -0.8275  -20.1772 C   0  0  0  0  0  0  0  0  0  0  0  0
   -6.8727   -1.0465  -18.8553 C   0  0  0  0  0  0  0  0  0  0  0  0
   -6.1840   -0.5466  -17.7937 N   0  0  0  0  0  0  0  0  0  0  0  0
   -5.1564    0.2234  -18.0617 C   0  0  0  0  0  0  0  0  0  0  0  0
   -4.7204    0.5348  -19.3808 C   0  0  0  0  0  0  0  0  0  0  0  0
   -3.5912    1.3622  -19.6216 C   0  0  0  0  0  0  0  0  0  0  0  0
   -3.1953    1.6376  -20.9022 C   0  0  0  0  0  0  0  0  0  0  0  0
   -3.9117    1.0958  -21.9961 C   0  0  0  0  0  0  0  0  0  0  0  0
   -5.0093    0.2941  -21.7929 C   0  0  0  0  0  0  0  0  0  0  0  0
   -5.4455   -0.0065  -20.4716 C   0  0  0  0  0  0  0  0  0  0  0  0
   -5.5435   -0.1046  -22.6566 H   0  0  0  0  0  0  0  0  0  0  0  0
   -3.5882    1.3220  -23.0086 H   0  0  0  0  0  0  0  0  0  0  0  0
   -2.3345    2.2740  -21.0912 H   0  0  0  0  0  0  0  0  0  0  0  0
   -3.0503    1.7761  -18.7737 H   0  0  0  0  0  0  0  0  0  0  0  0
   -4.5992    0.6299  -17.2157 H   0  0  0  0  0  0  0  0  0  0  0  0
   -7.7234   -1.6724  -18.5881 H   0  0  0  0  0  0  0  0  0  0  0  0
   -8.3298   -1.8437  -20.8486 H   0  0  0  0  0  0  0  0  0  0  0  0
   -7.6817   -0.6950  -22.0166 H   0  0  0  0  0  0  0  0  0  0  0  0
   -6.8347   -2.9511  -23.2802 N   0  0  0  0  0  0  0  0  0  0  0  0
   -5.7771   -3.7099  -23.9506 C   0  0  0  0  0  0  0  0  0  0  0  0
   -4.6679   -2.8525  -24.5653 C   0  0  0  0  0  0  0  0  0  0  0  0
   -5.1229   -2.0224  -25.7762 C   0  0  0  0  0  0  0  0  0  0  0  0
   -6.0549   -0.8889  -25.4208 C   0  0  0  0  0  0  0  0  0  0  0  0
   -5.7199    0.7493  -25.8837 S   0  0  0  0  0  0  0  0  0  0  0  0
   -7.1859    1.3124  -25.1778 C   0  0  0  0  0  0  0  0  0  0  0  0
   -7.8878    0.2956  -24.6021 C   0  0  0  0  0  0  0  0  0  0  0  0
   -7.2327   -0.9660  -24.7232 C   0  0  0  0  0  0  0  0  0  0  0  0
   -7.7686   -2.2495  -24.1441 C   0  0  0  0  0  0  0  0  0  0  0  0
   -8.6941   -2.0528  -23.5973 H   0  0  0  0  0  0  0  0  0  0  0  0
   -8.0535   -2.9249  -24.9589 H   0  0  0  0  0  0  0  0  0  0  0  0
   -8.8465    0.4240  -24.0996 H   0  0  0  0  0  0  0  0  0  0  0  0
   -7.4657    2.3548  -25.2102 H   0  0  0  0  0  0  0  0  0  0  0  0
   -5.6284   -2.6875  -26.4928 H   0  0  0  0  0  0  0  0  0  0  0  0
   -4.2484   -1.6273  -26.3014 H   0  0  0  0  0  0  0  0  0  0  0  0
   -3.8349   -3.5005  -24.8724 H   0  0  0  0  0  0  0  0  0  0  0  0
   -4.2673   -2.1821  -23.7976 H   0  0  0  0  0  0  0  0  0  0  0  0
   -6.2409   -4.2978  -24.7487 H   0  0  0  0  0  0  0  0  0  0  0  0
   -5.3596   -4.4155  -23.2334 H   0  0  0  0  0  0  0  0  0  0  0  0
  1  2  2  0
  2  3  1  0
  3  4  1  0
  4  5  2  0
  5  6  1  0
  6  7  2  0
  7  8  1  0
  8  9  2  0
  9 10  1  0
 10 11  2  0
 11 12  1  0
 12 13  2  0
 12 14  1  0
 11 15  1  0
 10 16  1  0
  9 17  1  0
  7 18  1  0
  5 19  1  0
  3 20  1  0
  3 21  1  0
  2 22  1  0
 22 23  1  0
 23 24  1  0
 24 25  1  0
 25 26  1  0
 26 27  1  0
 27 28  1  0
 28 29  2  0
 29 30  1  0
 30 31  1  0
 31 32  1  0
 31 33  1  0
 29 34  1  0
 28 35  1  0
 25 36  1  0
 25 37  1  0
 24 38  1  0
 24 39  1  0
 23 40  1  0
 23 41  1  0
 13  4  1  0
 31 22  1  0
 13  8  1  0
 30 26  2  0
M  END
>  <cnnaffinities>  (70) 
[5.44531, 5.57884, 5.28223, 5.53694]

>  <score>  (70) 
5.44531

>  <index>  (70) 
72

>  <Smiles>  (70) 
O=C(C(c1c(nc(c2c(c(c(c(c12)[H])[H])[H])[H])[H])[H])([H])[H])N1C(C(C(c2sc(c(c2C1([H])[H])[H])[H])([H])[H])([H])[H])([H])[H]

>  <h>  (70) 
<NA>

>  <Training>  (70) 
True

>  <Success>  (70) 
True

>  <enamine_searched>  (70) 
False

>  <enamine_id>  (70) 
nan

$$$$

     RDKit          3D

 50 53  0  0  0  0  0  0  0  0999 V2000
   -5.6008   -3.0304  -21.5759 O   0  0  0  0  0  0  0  0  0  0  0  0
   -6.7575   -2.7534  -21.8605 C   0  0  0  0  0  0  0  0  0  0  0  0
   -7.4148   -1.4791  -21.2700 C   0  0  0  0  0  0  0  0  0  0  0  0
   -6.5812   -0.8302  -20.1858 C   0  0  0  0  0  0  0  0  0  0  0  0
   -6.8738   -1.0457  -18.8672 C   0  0  0  0  0  0  0  0  0  0  0  0
   -6.1842   -0.5511  -17.8033 N   0  0  0  0  0  0  0  0  0  0  0  0
   -5.1598    0.2211  -18.0666 C   0  0  0  0  0  0  0  0  0  0  0  0
   -4.7219    0.5310  -19.3806 C   0  0  0  0  0  0  0  0  0  0  0  0
   -3.5931    1.3570  -19.6220 C   0  0  0  0  0  0  0  0  0  0  0  0
   -3.1891    1.6320  -20.8986 C   0  0  0  0  0  0  0  0  0  0  0  0
   -3.9013    1.0868  -21.9927 C   0  0  0  0  0  0  0  0  0  0  0  0
   -4.9981    0.2878  -21.7861 C   0  0  0  0  0  0  0  0  0  0  0  0
   -5.4453   -0.0136  -20.4759 C   0  0  0  0  0  0  0  0  0  0  0  0
   -5.5258   -0.1319  -22.6374 H   0  0  0  0  0  0  0  0  0  0  0  0
   -3.5728    1.3076  -23.0037 H   0  0  0  0  0  0  0  0  0  0  0  0
   -2.3278    2.2689  -21.0872 H   0  0  0  0  0  0  0  0  0  0  0  0
   -3.0568    1.7734  -18.7694 H   0  0  0  0  0  0  0  0  0  0  0  0
   -4.6054    0.6272  -17.2154 H   0  0  0  0  0  0  0  0  0  0  0  0
   -7.7199   -1.6687  -18.5861 H   0  0  0  0  0  0  0  0  0  0  0  0
   -7.6156   -0.7492  -22.0664 H   0  0  0  0  0  0  0  0  0  0  0  0
   -8.3953   -1.7468  -20.8493 H   0  0  0  0  0  0  0  0  0  0  0  0
   -7.5198   -3.5821  -22.6620 N   0  0  0  0  0  0  0  0  0  0  0  0
   -8.6631   -3.1255  -23.4510 C   0  0  0  0  0  0  0  0  0  0  0  0
   -9.7341   -4.2018  -23.5638 C   0  0  0  0  0  0  0  0  0  0  0  0
   -9.1646   -5.5043  -24.1031 C   0  0  0  0  0  0  0  0  0  0  0  0
   -7.9860   -5.9356  -23.2416 C   0  0  0  0  0  0  0  0  0  0  0  0
   -6.9130   -4.8516  -23.1008 C   0  0  1  0  0  0  0  0  0  0  0  0
   -6.0434   -4.6966  -24.3696 C   0  0  0  0  0  0  0  0  0  0  0  0
   -5.2086   -5.9201  -24.6881 C   0  0  0  0  0  0  0  0  0  0  0  0
   -4.0474   -6.1894  -23.9579 C   0  0  0  0  0  0  0  0  0  0  0  0
   -3.2848   -7.3204  -24.2201 C   0  0  0  0  0  0  0  0  0  0  0  0
   -3.6703   -8.2115  -25.2176 C   0  0  0  0  0  0  0  0  0  0  0  0
   -4.8277   -7.9605  -25.9497 C   0  0  0  0  0  0  0  0  0  0  0  0
   -5.5853   -6.8247  -25.6834 C   0  0  0  0  0  0  0  0  0  0  0  0
   -6.4946   -6.6405  -26.2526 H   0  0  0  0  0  0  0  0  0  0  0  0
   -5.1420   -8.6461  -26.7315 H   0  0  0  0  0  0  0  0  0  0  0  0
   -3.0713   -9.0918  -25.4255 H   0  0  0  0  0  0  0  0  0  0  0  0
   -2.3829   -7.5094  -23.6437 H   0  0  0  0  0  0  0  0  0  0  0  0
   -3.7433   -5.4995  -23.1740 H   0  0  0  0  0  0  0  0  0  0  0  0
   -6.6854   -4.4573  -25.2242 H   0  0  0  0  0  0  0  0  0  0  0  0
   -5.3824   -3.8377  -24.2153 H   0  0  0  0  0  0  0  0  0  0  0  0
   -6.2401   -5.1516  -22.2983 H   0  0  0  0  0  0  0  0  0  0  0  0
   -8.3504   -6.1928  -22.2437 H   0  0  0  0  0  0  0  0  0  0  0  0
   -7.5388   -6.8525  -23.6373 H   0  0  0  0  0  0  0  0  0  0  0  0
   -9.9346   -6.2852  -24.1206 H   0  0  0  0  0  0  0  0  0  0  0  0
   -8.8408   -5.3772  -25.1437 H   0  0  0  0  0  0  0  0  0  0  0  0
  -10.1658   -4.3760  -22.5760 H   0  0  0  0  0  0  0  0  0  0  0  0
  -10.5508   -3.8479  -24.1990 H   0  0  0  0  0  0  0  0  0  0  0  0
   -9.0840   -2.2322  -22.9918 H   0  0  0  0  0  0  0  0  0  0  0  0
   -8.3547   -2.8301  -24.4653 H   0  0  0  0  0  0  0  0  0  0  0  0
  1  2  2  0
  2  3  1  0
  3  4  1  0
  4  5  2  0
  5  6  1  0
  6  7  2  0
  7  8  1  0
  8  9  2  0
  9 10  1  0
 10 11  2  0
 11 12  1  0
 12 13  2  0
 12 14  1  0
 11 15  1  0
 10 16  1  0
  9 17  1  0
  7 18  1  0
  5 19  1  0
  3 20  1  0
  3 21  1  0
  2 22  1  0
 22 23  1  0
 23 24  1  0
 24 25  1  0
 25 26  1  0
 26 27  1  0
 27 28  1  0
 28 29  1  0
 29 30  2  0
 30 31  1  0
 31 32  2  0
 32 33  1  0
 33 34  2  0
 34 35  1  0
 33 36  1  0
 32 37  1  0
 31 38  1  0
 30 39  1  0
 28 40  1  0
 28 41  1  0
 27 42  1  1
 26 43  1  0
 26 44  1  0
 25 45  1  0
 25 46  1  0
 24 47  1  0
 24 48  1  0
 23 49  1  0
 23 50  1  0
 13  4  1  0
 27 22  1  0
 34 29  1  0
 13  8  1  0
M  END
>  <cnnaffinities>  (71) 
[5.84913]

>  <score>  (71) 
5.84913

>  <index>  (71) 
73

>  <Smiles>  (71) 
O=C(C(c1c(nc(c2c(c(c(c(c12)[H])[H])[H])[H])[H])[H])([H])[H])N1C(C(C(C([C@]1(C(c1c(c(c(c(c1[H])[H])[H])[H])[H])([H])[H])[H])([H])[H])([H])[H])([H])[H])([H])[H]

>  <h>  (71) 
<NA>

>  <Training>  (71) 
True

>  <Success>  (71) 
True

>  <enamine_searched>  (71) 
False

>  <enamine_id>  (71) 
nan

$$$$

     RDKit          3D

 43 47  0  0  0  0  0  0  0  0999 V2000
   -9.4061   -0.4892  -20.9659 O   0  0  0  0  0  0  0  0  0  0  0  0
   -8.7282   -1.3878  -21.3781 C   0  0  0  0  0  0  0  0  0  0  0  0
   -9.1300   -2.4646  -22.1161 N   0  0  0  0  0  0  0  0  0  0  0  0
   -8.0342   -3.1544  -22.7445 C   0  0  1  0  0  0  0  0  0  0  0  0
   -8.1034   -4.6949  -22.7181 C   0  0  0  0  0  0  0  0  0  0  0  0
   -8.2243   -4.7241  -24.2762 C   0  0  2  0  0  0  0  0  0  0  0  0
   -7.1752   -5.5219  -24.9849 C   0  0  0  0  0  0  0  0  0  0  0  0
   -5.8192   -5.2764  -24.7392 C   0  0  0  0  0  0  0  0  0  0  0  0
   -4.8280   -6.0090  -25.3816 C   0  0  0  0  0  0  0  0  0  0  0  0
   -5.1771   -7.0086  -26.2880 C   0  0  0  0  0  0  0  0  0  0  0  0
   -6.5166   -7.2659  -26.5467 C   0  0  0  0  0  0  0  0  0  0  0  0
   -7.4966   -6.5304  -25.8925 C   0  0  0  0  0  0  0  0  0  0  0  0
   -9.1652   -6.9155  -26.2500 Cl  0  0  0  0  0  0  0  0  0  0  0  0
   -6.8206   -8.0224  -27.2608 H   0  0  0  0  0  0  0  0  0  0  0  0
   -4.4097   -7.5855  -26.7966 H   0  0  0  0  0  0  0  0  0  0  0  0
   -3.7840   -5.7930  -25.1759 H   0  0  0  0  0  0  0  0  0  0  0  0
   -5.5495   -4.4935  -24.0279 H   0  0  0  0  0  0  0  0  0  0  0  0
   -8.0338   -3.1719  -24.3007 C   0  0  0  0  0  0  0  0  0  0  0  0
   -8.8556   -2.6026  -24.7511 H   0  0  0  0  0  0  0  0  0  0  0  0
   -7.0969   -2.8278  -24.7584 H   0  0  0  0  0  0  0  0  0  0  0  0
   -9.2252   -5.0213  -24.6042 H   0  0  0  0  0  0  0  0  0  0  0  0
   -8.9678   -5.0704  -22.1625 H   0  0  0  0  0  0  0  0  0  0  0  0
   -7.1921   -5.1537  -22.3162 H   0  0  0  0  0  0  0  0  0  0  0  0
   -6.8304   -2.5253  -22.0568 C   0  0  0  0  0  0  0  0  0  0  0  0
   -5.6697   -2.8180  -22.2291 O   0  0  0  0  0  0  0  0  0  0  0  0
   -7.3277   -1.5272  -21.2114 N   0  0  0  0  0  0  0  0  0  0  0  0
   -6.5808   -0.8617  -20.1916 C   0  0  0  0  0  0  0  0  0  0  0  0
   -6.9086   -1.0641  -18.8732 C   0  0  0  0  0  0  0  0  0  0  0  0
   -6.2113   -0.5564  -17.8298 N   0  0  0  0  0  0  0  0  0  0  0  0
   -5.1791    0.2027  -18.0985 C   0  0  0  0  0  0  0  0  0  0  0  0
   -4.7475    0.5251  -19.4124 C   0  0  0  0  0  0  0  0  0  0  0  0
   -3.6177    1.3577  -19.6374 C   0  0  0  0  0  0  0  0  0  0  0  0
   -3.2259    1.6588  -20.9112 C   0  0  0  0  0  0  0  0  0  0  0  0
   -3.9546    1.1438  -22.0073 C   0  0  0  0  0  0  0  0  0  0  0  0
   -5.0495    0.3375  -21.8150 C   0  0  0  0  0  0  0  0  0  0  0  0
   -5.4694   -0.0105  -20.5014 C   0  0  0  0  0  0  0  0  0  0  0  0
   -5.5973   -0.0497  -22.6679 H   0  0  0  0  0  0  0  0  0  0  0  0
   -3.6413    1.3919  -23.0155 H   0  0  0  0  0  0  0  0  0  0  0  0
   -2.3678    2.3026  -21.0911 H   0  0  0  0  0  0  0  0  0  0  0  0
   -3.0851    1.7539  -18.7779 H   0  0  0  0  0  0  0  0  0  0  0  0
   -4.6322    0.6064  -17.2480 H   0  0  0  0  0  0  0  0  0  0  0  0
   -7.7586   -1.6851  -18.6026 H   0  0  0  0  0  0  0  0  0  0  0  0
  -10.0959   -2.5985  -22.3726 H   0  0  0  0  0  0  0  0  0  0  0  0
  1  2  2  0
  2  3  1  0
  4  3  1  6
  4  5  1  0
  5  6  1  0
  6  7  1  0
  7  8  2  0
  8  9  1  0
  9 10  2  0
 10 11  1  0
 11 12  2  0
 12 13  1  0
 11 14  1  0
 10 15  1  0
  9 16  1  0
  8 17  1  0
  6 18  1  0
 18 19  1  0
 18 20  1  0
  6 21  1  1
  5 22  1  0
  5 23  1  0
  4 24  1  0
 24 25  2  0
 24 26  1  0
 26 27  1  0
 27 28  2  0
 28 29  1  0
 29 30  2  0
 30 31  1  0
 31 32  2  0
 32 33  1  0
 33 34  2  0
 34 35  1  0
 35 36  2  0
 35 37  1  0
 34 38  1  0
 33 39  1  0
 32 40  1  0
 30 41  1  0
 28 42  1  0
  3 43  1  0
 26  2  1  0
 36 27  1  0
 18  4  1  0
 36 31  1  0
 12  7  1  0
M  END
>  <cnnaffinities>  (72) 
[5.83506]

>  <score>  (72) 
5.83506

>  <index>  (72) 
74

>  <Smiles>  (72) 
O=C1N([C@]2(C([C@](c3c(c(c(c(c3Cl)[H])[H])[H])[H])(C2([H])[H])[H])([H])[H])C(=O)N1c1c(nc(c2c(c(c(c(c12)[H])[H])[H])[H])[H])[H])[H]

>  <h>  (72) 
<NA>

>  <Training>  (72) 
True

>  <Success>  (72) 
True

>  <enamine_searched>  (72) 
False

>  <enamine_id>  (72) 
nan

$$$$

     RDKit          3D

 66 71  0  0  0  0  0  0  0  0999 V2000
   -5.8173   -0.1876  -29.5359 C   0  0  0  0  0  0  0  0  0  0  0  0
   -5.7528    0.2240  -28.1528 N   0  0  0  0  0  0  0  0  0  0  0  0
   -5.1406   -0.5502  -27.2168 C   0  0  0  0  0  0  0  0  0  0  0  0
   -4.4796   -1.5393  -27.4754 O   0  0  0  0  0  0  0  0  0  0  0  0
   -5.3256   -0.0493  -25.7705 C   0  0  0  0  0  0  0  0  0  0  0  0
   -6.5277   -0.5625  -25.1195 N   0  0  0  0  0  0  0  0  0  0  0  0
   -6.4676   -1.8231  -24.3851 C   0  0  0  0  0  0  0  0  0  0  0  0
   -7.5440   -1.9080  -23.2548 C   0  0  2  0  0  0  0  0  0  0  0  0
   -7.1615   -1.0460  -22.0383 C   0  0  0  0  0  0  0  0  0  0  0  0
   -7.5262    0.0794  -21.7752 O   0  0  0  0  0  0  0  0  0  0  0  0
   -6.3458   -1.8132  -21.2230 N   0  0  0  0  0  0  0  0  0  0  0  0
   -5.7933   -1.2248  -20.0652 C   0  0  0  0  0  0  0  0  0  0  0  0
   -6.2294   -1.5604  -18.8093 C   0  0  0  0  0  0  0  0  0  0  0  0
   -5.8255   -0.9528  -17.6670 N   0  0  0  0  0  0  0  0  0  0  0  0
   -4.9509    0.0218  -17.7725 C   0  0  0  0  0  0  0  0  0  0  0  0
   -4.3859    0.4497  -19.0063 C   0  0  0  0  0  0  0  0  0  0  0  0
   -3.4211    1.4962  -19.0746 C   0  0  0  0  0  0  0  0  0  0  0  0
   -2.9153    1.8937  -20.2844 C   0  0  0  0  0  0  0  0  0  0  0  0
   -3.3350    1.2570  -21.4772 C   0  0  0  0  0  0  0  0  0  0  0  0
   -4.2480    0.2342  -21.4296 C   0  0  0  0  0  0  0  0  0  0  0  0
   -4.8166   -0.1846  -20.1919 C   0  0  0  0  0  0  0  0  0  0  0  0
   -4.5592   -0.2638  -22.3431 H   0  0  0  0  0  0  0  0  0  0  0  0
   -2.9357    1.5865  -22.4344 H   0  0  0  0  0  0  0  0  0  0  0  0
   -2.1912    2.7042  -20.3432 H   0  0  0  0  0  0  0  0  0  0  0  0
   -3.0988    1.9754  -18.1509 H   0  0  0  0  0  0  0  0  0  0  0  0
   -4.6487    0.5213  -16.8508 H   0  0  0  0  0  0  0  0  0  0  0  0
   -6.9775   -2.3436  -18.6914 H   0  0  0  0  0  0  0  0  0  0  0  0
   -6.3528   -3.2268  -21.5844 C   0  0  0  0  0  0  0  0  0  0  0  0
   -7.5404   -3.2893  -22.5546 C   0  0  2  0  0  0  0  0  0  0  0  0
   -7.5947   -4.5187  -23.4636 C   0  0  0  0  0  0  0  0  0  0  0  0
   -7.7452   -5.7685  -22.7349 N   0  0  0  0  0  0  0  0  0  0  0  0
   -6.6283   -6.4533  -22.2838 C   0  0  0  0  0  0  0  0  0  0  0  0
   -5.4960   -6.6673  -23.1029 C   0  0  0  0  0  0  0  0  0  0  0  0
   -4.4520   -7.3638  -22.6876 N   0  0  0  0  0  0  0  0  0  0  0  0
   -4.5127   -7.8625  -21.4485 C   0  0  0  0  0  0  0  0  0  0  0  0
   -5.6203   -7.6635  -20.6474 C   0  0  0  0  0  0  0  0  0  0  0  0
   -6.6746   -6.9540  -21.0528 N   0  0  0  0  0  0  0  0  0  0  0  0
   -5.6853   -8.1049  -19.6525 H   0  0  0  0  0  0  0  0  0  0  0  0
   -3.6600   -8.4347  -21.0905 H   0  0  0  0  0  0  0  0  0  0  0  0
   -5.4615   -6.2936  -24.1264 H   0  0  0  0  0  0  0  0  0  0  0  0
   -8.4689   -5.7584  -22.0261 H   0  0  0  0  0  0  0  0  0  0  0  0
   -8.4205   -4.4121  -24.1783 H   0  0  0  0  0  0  0  0  0  0  0  0
   -6.6766   -4.5921  -24.0491 H   0  0  0  0  0  0  0  0  0  0  0  0
   -8.4539   -3.2873  -21.9519 H   0  0  0  0  0  0  0  0  0  0  0  0
   -5.4223   -3.5204  -22.0953 H   0  0  0  0  0  0  0  0  0  0  0  0
   -6.4696   -3.8658  -20.7035 H   0  0  0  0  0  0  0  0  0  0  0  0
   -8.8790   -1.4833  -23.7987 C   0  0  0  0  0  0  0  0  0  0  0  0
  -10.0807   -1.7461  -23.1245 C   0  0  0  0  0  0  0  0  0  0  0  0
  -11.2914   -1.4682  -23.7358 C   0  0  0  0  0  0  0  0  0  0  0  0
  -12.7376   -1.9683  -22.8990 Cl  0  0  0  0  0  0  0  0  0  0  0  0
  -11.3396   -0.8545  -24.9892 C   0  0  0  0  0  0  0  0  0  0  0  0
  -10.1559   -0.4753  -25.5736 C   0  0  0  0  0  0  0  0  0  0  0  0
   -8.9363   -0.7248  -24.9664 C   0  0  0  0  0  0  0  0  0  0  0  0
   -7.7252   -0.0897  -25.5600 C   0  0  0  0  0  0  0  0  0  0  0  0
   -7.8091    0.8117  -26.3988 O   0  0  0  0  0  0  0  0  0  0  0  0
  -10.1617    0.0033  -26.5347 H   0  0  0  0  0  0  0  0  0  0  0  0
  -12.2468   -0.5601  -25.4959 H   0  0  0  0  0  0  0  0  0  0  0  0
  -10.0942   -2.1266  -22.1089 H   0  0  0  0  0  0  0  0  0  0  0  0
   -5.4636   -1.9247  -23.9590 H   0  0  0  0  0  0  0  0  0  0  0  0
   -6.6105   -2.6526  -25.0936 H   0  0  0  0  0  0  0  0  0  0  0  0
   -4.4527   -0.3693  -25.1969 H   0  0  0  0  0  0  0  0  0  0  0  0
   -5.3812    1.0424  -25.7483 H   0  0  0  0  0  0  0  0  0  0  0  0
   -6.4916    0.8265  -27.8099 H   0  0  0  0  0  0  0  0  0  0  0  0
   -6.4944   -1.0361  -29.6874 H   0  0  0  0  0  0  0  0  0  0  0  0
   -6.1736    0.6600  -30.1252 H   0  0  0  0  0  0  0  0  0  0  0  0
   -4.8261   -0.4718  -29.8952 H   0  0  0  0  0  0  0  0  0  0  0  0
  1  2  1  0
  2  3  1  0
  3  4  2  0
  3  5  1  0
  5  6  1  0
  6  7  1  0
  8  7  1  6
  8  9  1  0
  9 10  2  0
  9 11  1  0
 11 12  1  0
 12 13  2  0
 13 14  1  0
 14 15  2  0
 15 16  1  0
 16 17  2  0
 17 18  1  0
 18 19  2  0
 19 20  1  0
 20 21  2  0
 20 22  1  0
 19 23  1  0
 18 24  1  0
 17 25  1  0
 15 26  1  0
 13 27  1  0
 11 28  1  0
 28 29  1  0
 29 30  1  0
 30 31  1  0
 31 32  1  0
 32 33  2  0
 33 34  1  0
 34 35  2  0
 35 36  1  0
 36 37  2  0
 36 38  1  0
 35 39  1  0
 33 40  1  0
 31 41  1  0
 30 42  1  0
 30 43  1  0
 29 44  1  1
 28 45  1  0
 28 46  1  0
  8 47  1  0
 47 48  2  0
 48 49  1  0
 49 50  1  0
 49 51  2  0
 51 52  1  0
 52 53  2  0
 53 54  1  0
 54 55  2  0
 52 56  1  0
 51 57  1  0
 48 58  1  0
  7 59  1  0
  7 60  1  0
  5 61  1  0
  5 62  1  0
  2 63  1  0
  1 64  1  0
  1 65  1  0
  1 66  1  0
 54  6  1  0
 29  8  1  0
 37 32  1  0
 53 47  1  0
 21 12  1  0
 21 16  1  0
M  END
>  <cnnaffinities>  (73) 
[6.26552, 6.77045]

>  <score>  (73) 
6.26552

>  <index>  (73) 
75

>  <Smiles>  (73) 
C(N(C(=O)C(N1C([C@@]2(C(=O)N(c3c(nc(c4c(c(c(c(c34)[H])[H])[H])[H])[H])[H])C([C@@]2(C(N(c2c(nc(c(n2)[H])[H])[H])[H])([H])[H])[H])([H])[H])c2c(c(Cl)c(c(c2C1=O)[H])[H])[H])([H])[H])([H])[H])[H])([H])([H])[H]

>  <h>  (73) 
<NA>

>  <Training>  (73) 
True

>  <Success>  (73) 
True

>  <enamine_searched>  (73) 
False

>  <enamine_id>  (73) 
nan

$$$$

     RDKit          3D

 66 71  0  0  0  0  0  0  0  0999 V2000
  -10.2374   -3.0125  -22.0747 C   0  0  0  0  0  0  0  0  0  0  0  0
   -9.1612   -2.0575  -22.6264 C   0  0  1  0  0  0  0  0  0  0  0  0
   -8.6963   -1.0901  -21.5153 C   0  0  0  0  0  0  0  0  0  0  0  0
   -7.3286   -1.4690  -21.2233 N   0  0  0  0  0  0  0  0  0  0  0  0
   -6.5637   -0.8636  -20.1929 C   0  0  0  0  0  0  0  0  0  0  0  0
   -6.8969   -1.0614  -18.8757 C   0  0  0  0  0  0  0  0  0  0  0  0
   -6.2131   -0.5509  -17.8250 N   0  0  0  0  0  0  0  0  0  0  0  0
   -5.1757    0.2084  -18.0887 C   0  0  0  0  0  0  0  0  0  0  0  0
   -4.7347    0.5213  -19.4066 C   0  0  0  0  0  0  0  0  0  0  0  0
   -3.6110    1.3614  -19.6346 C   0  0  0  0  0  0  0  0  0  0  0  0
   -3.2258    1.6634  -20.9125 C   0  0  0  0  0  0  0  0  0  0  0  0
   -3.9514    1.1523  -22.0119 C   0  0  0  0  0  0  0  0  0  0  0  0
   -5.0416    0.3403  -21.8203 C   0  0  0  0  0  0  0  0  0  0  0  0
   -5.4495   -0.0150  -20.4996 C   0  0  0  0  0  0  0  0  0  0  0  0
   -5.5962   -0.0399  -22.6776 H   0  0  0  0  0  0  0  0  0  0  0  0
   -3.6355    1.4031  -23.0207 H   0  0  0  0  0  0  0  0  0  0  0  0
   -2.3680    2.3070  -21.0901 H   0  0  0  0  0  0  0  0  0  0  0  0
   -3.0800    1.7602  -18.7746 H   0  0  0  0  0  0  0  0  0  0  0  0
   -4.6303    0.6130  -17.2367 H   0  0  0  0  0  0  0  0  0  0  0  0
   -7.7539   -1.6810  -18.6151 H   0  0  0  0  0  0  0  0  0  0  0  0
   -6.8054   -2.4130  -22.0718 C   0  0  0  0  0  0  0  0  0  0  0  0
   -5.6893   -2.8939  -21.9691 O   0  0  0  0  0  0  0  0  0  0  0  0
   -7.8505   -2.7284  -23.1677 C   0  0  1  0  0  0  0  0  0  0  0  0
   -7.9926   -4.2528  -23.3493 C   0  0  0  0  0  0  0  0  0  0  0  0
   -6.8462   -4.8518  -24.0159 N   0  0  0  0  0  0  0  0  0  0  0  0
   -6.5087   -6.2209  -23.6508 C   0  0  0  0  0  0  0  0  0  0  0  0
   -5.5079   -6.3587  -22.4951 C   0  0  0  0  0  0  0  0  0  0  0  0
   -4.0600   -6.2856  -22.8567 N   0  0  0  0  0  4  0  0  0  0  0  0
   -3.6418   -7.2110  -23.9843 C   0  0  0  0  0  0  0  0  0  0  0  0
   -2.1007   -7.2468  -24.0546 C   0  0  0  0  0  0  0  0  0  0  0  0
   -1.5442   -6.1580  -23.3514 O   0  0  0  0  0  0  0  0  0  0  0  0
   -2.1639   -4.9436  -23.7036 C   0  0  0  0  0  0  0  0  0  0  0  0
   -3.5605   -4.8716  -23.0725 C   0  0  0  0  0  0  0  0  0  0  0  0
   -4.2599   -4.3462  -23.7170 H   0  0  0  0  0  0  0  0  0  0  0  0
   -3.5394   -4.3704  -22.1030 H   0  0  0  0  0  0  0  0  0  0  0  0
   -2.2378   -4.8444  -24.7996 H   0  0  0  0  0  0  0  0  0  0  0  0
   -1.4933   -4.1674  -23.3392 H   0  0  0  0  0  0  0  0  0  0  0  0
   -1.6715   -8.1339  -23.5800 H   0  0  0  0  0  0  0  0  0  0  0  0
   -1.7832   -7.2321  -25.1097 H   0  0  0  0  0  0  0  0  0  0  0  0
   -4.0577   -6.8220  -24.9185 H   0  0  0  0  0  0  0  0  0  0  0  0
   -4.0439   -8.2147  -23.8024 H   0  0  0  0  0  0  0  0  0  0  0  0
   -3.5243   -6.6406  -22.0415 H   0  0  0  0  0  0  0  0  0  0  0  0
   -5.7174   -5.5748  -21.7589 H   0  0  0  0  0  0  0  0  0  0  0  0
   -5.6709   -7.3349  -22.0226 H   0  0  0  0  0  0  0  0  0  0  0  0
   -6.1467   -6.7201  -24.5489 H   0  0  0  0  0  0  0  0  0  0  0  0
   -7.4376   -6.7092  -23.3374 H   0  0  0  0  0  0  0  0  0  0  0  0
   -6.3533   -4.3224  -25.1760 C   0  0  0  0  0  0  0  0  0  0  0  0
   -5.6263   -4.9560  -25.9345 O   0  0  0  0  0  0  0  0  0  0  0  0
   -6.6905   -2.8767  -25.4315 C   0  0  0  0  0  0  0  0  0  0  0  0
   -6.2337   -2.2859  -26.6101 C   0  0  0  0  0  0  0  0  0  0  0  0
   -6.4265   -0.9372  -26.8444 C   0  0  0  0  0  0  0  0  0  0  0  0
   -7.0726   -0.1694  -25.8792 C   0  0  0  0  0  0  0  0  0  0  0  0
   -7.2833    1.5383  -26.1541 Cl  0  0  0  0  0  0  0  0  0  0  0  0
   -7.5420   -0.7382  -24.7084 C   0  0  0  0  0  0  0  0  0  0  0  0
   -7.3791   -2.1142  -24.4807 C   0  0  0  0  0  0  0  0  0  0  0  0
   -8.0214   -0.0873  -23.9827 H   0  0  0  0  0  0  0  0  0  0  0  0
   -6.0706   -0.4648  -27.7516 H   0  0  0  0  0  0  0  0  0  0  0  0
   -5.7082   -2.9192  -27.3158 H   0  0  0  0  0  0  0  0  0  0  0  0
   -8.9206   -4.4509  -23.9126 H   0  0  0  0  0  0  0  0  0  0  0  0
   -8.0616   -4.7163  -22.3634 H   0  0  0  0  0  0  0  0  0  0  0  0
   -9.3234   -1.2208  -20.6365 H   0  0  0  0  0  0  0  0  0  0  0  0
   -8.7590   -0.0310  -21.8068 H   0  0  0  0  0  0  0  0  0  0  0  0
   -9.6359   -1.4996  -23.4440 H   0  0  0  0  0  0  0  0  0  0  0  0
  -11.0802   -2.4360  -21.6749 H   0  0  0  0  0  0  0  0  0  0  0  0
   -9.8541   -3.6397  -21.2605 H   0  0  0  0  0  0  0  0  0  0  0  0
  -10.6415   -3.6684  -22.8513 H   0  0  0  0  0  0  0  0  0  0  0  0
  1  2  1  0
  2  3  1  0
  3  4  1  0
  4  5  1  0
  5  6  2  0
  6  7  1  0
  7  8  2  0
  8  9  1  0
  9 10  2  0
 10 11  1  0
 11 12  2  0
 12 13  1  0
 13 14  2  0
 13 15  1  0
 12 16  1  0
 11 17  1  0
 10 18  1  0
  8 19  1  0
  6 20  1  0
  4 21  1  0
 21 22  2  0
 21 23  1  0
 23 24  1  6
 24 25  1  0
 25 26  1  0
 26 27  1  0
 27 28  1  0
 28 29  1  0
 29 30  1  0
 30 31  1  0
 31 32  1  0
 32 33  1  0
 33 34  1  0
 33 35  1  0
 32 36  1  0
 32 37  1  0
 30 38  1  0
 30 39  1  0
 29 40  1  0
 29 41  1  0
 28 42  1  0
 27 43  1  0
 27 44  1  0
 26 45  1  0
 26 46  1  0
 25 47  1  0
 47 48  2  0
 47 49  1  0
 49 50  2  0
 50 51  1  0
 51 52  2  0
 52 53  1  0
 52 54  1  0
 54 55  2  0
 54 56  1  0
 51 57  1  0
 50 58  1  0
 24 59  1  0
 24 60  1  0
  3 61  1  0
  3 62  1  0
  2 63  1  6
  1 64  1  0
  1 65  1  0
  1 66  1  0
 23  2  1  0
 33 28  1  0
 55 49  1  0
 14  5  1  0
 55 23  1  0
 14  9  1  0
M  CHG  1  28   1
M  END
>  <cnnaffinities>  (74) 
[6.3454]

>  <score>  (74) 
6.3454

>  <index>  (74) 
76

>  <Smiles>  (74) 
C([C@]1(C(N(c2c(nc(c3c(c(c(c(c23)[H])[H])[H])[H])[H])[H])C(=O)[C@]21C(N(C(C([N+]1(C(C(OC(C1([H])[H])([H])[H])([H])[H])([H])[H])[H])([H])[H])([H])[H])C(=O)c1c(c(c(Cl)c(c21)[H])[H])[H])([H])[H])([H])[H])[H])([H])([H])[H]

>  <h>  (74) 
<NA>

>  <Training>  (74) 
True

>  <Success>  (74) 
True

>  <enamine_searched>  (74) 
False

>  <enamine_id>  (74) 
nan

$$$$

     RDKit          3D

 55 60  0  0  0  0  0  0  0  0999 V2000
  -10.2221   -2.9705  -22.0730 C   0  0  0  0  0  0  0  0  0  0  0  0
   -9.1548   -2.0169  -22.6289 C   0  0  1  0  0  0  0  0  0  0  0  0
   -8.6902   -1.0312  -21.5391 C   0  0  0  0  0  0  0  0  0  0  0  0
   -7.3522   -1.4522  -21.2012 N   0  0  0  0  0  0  0  0  0  0  0  0
   -6.5758   -0.8500  -20.1917 C   0  0  0  0  0  0  0  0  0  0  0  0
   -6.9140   -1.0600  -18.8811 C   0  0  0  0  0  0  0  0  0  0  0  0
   -6.2278   -0.5645  -17.8269 N   0  0  0  0  0  0  0  0  0  0  0  0
   -5.1907    0.1939  -18.0960 C   0  0  0  0  0  0  0  0  0  0  0  0
   -4.7473    0.5075  -19.4138 C   0  0  0  0  0  0  0  0  0  0  0  0
   -3.6260    1.3477  -19.6366 C   0  0  0  0  0  0  0  0  0  0  0  0
   -3.2331    1.6582  -20.9084 C   0  0  0  0  0  0  0  0  0  0  0  0
   -3.9469    1.1489  -22.0188 C   0  0  0  0  0  0  0  0  0  0  0  0
   -5.0370    0.3343  -21.8354 C   0  0  0  0  0  0  0  0  0  0  0  0
   -5.4563   -0.0200  -20.5150 C   0  0  0  0  0  0  0  0  0  0  0  0
   -5.5823   -0.0349  -22.7062 H   0  0  0  0  0  0  0  0  0  0  0  0
   -3.6272    1.4129  -23.0235 H   0  0  0  0  0  0  0  0  0  0  0  0
   -2.3760    2.3041  -21.0774 H   0  0  0  0  0  0  0  0  0  0  0  0
   -3.1028    1.7448  -18.7708 H   0  0  0  0  0  0  0  0  0  0  0  0
   -4.6418    0.6083  -17.2499 H   0  0  0  0  0  0  0  0  0  0  0  0
   -7.7729   -1.6902  -18.6492 H   0  0  0  0  0  0  0  0  0  0  0  0
   -6.8285   -2.4110  -22.0271 C   0  0  0  0  0  0  0  0  0  0  0  0
   -5.7445   -2.9370  -21.8657 O   0  0  0  0  0  0  0  0  0  0  0  0
   -7.8472   -2.6829  -23.1497 C   0  0  1  0  0  0  0  0  0  0  0  0
   -7.9616   -4.1952  -23.3498 C   0  0  0  0  0  0  0  0  0  0  0  0
   -6.7209   -4.7057  -23.8912 N   0  0  0  0  0  0  0  0  0  0  0  0
   -6.2675   -6.0056  -23.4402 C   0  0  0  0  0  0  0  0  0  0  0  0
   -7.1042   -7.1049  -24.0410 C   0  0  0  0  0  0  0  0  0  0  0  0
   -7.0874   -7.5752  -25.3070 C   0  0  0  0  0  0  0  0  0  0  0  0
   -8.2230   -8.2943  -25.5185 O   0  0  0  0  0  0  0  0  0  0  0  0
   -8.8712   -8.2305  -24.3388 C   0  0  0  0  0  0  0  0  0  0  0  0
   -8.2720   -7.5550  -23.4236 N   0  0  0  0  0  0  0  0  0  0  0  0
   -9.7999   -8.7775  -24.2571 H   0  0  0  0  0  0  0  0  0  0  0  0
   -6.4034   -7.4779  -26.1352 H   0  0  0  0  0  0  0  0  0  0  0  0
   -5.2133   -6.0718  -23.7220 H   0  0  0  0  0  0  0  0  0  0  0  0
   -6.3415   -5.9889  -22.3470 H   0  0  0  0  0  0  0  0  0  0  0  0
   -6.2490   -4.2384  -25.0827 C   0  0  0  0  0  0  0  0  0  0  0  0
   -5.5341   -4.9063  -25.8246 O   0  0  0  0  0  0  0  0  0  0  0  0
   -6.6264   -2.8313  -25.3824 C   0  0  0  0  0  0  0  0  0  0  0  0
   -6.1747   -2.2871  -26.5824 C   0  0  0  0  0  0  0  0  0  0  0  0
   -6.3969   -0.9539  -26.8632 C   0  0  0  0  0  0  0  0  0  0  0  0
   -7.0761   -0.1919  -25.9167 C   0  0  0  0  0  0  0  0  0  0  0  0
   -7.2787    1.1127  -26.1725 F   0  0  0  0  0  0  0  0  0  0  0  0
   -7.5539   -0.7160  -24.7309 C   0  0  0  0  0  0  0  0  0  0  0  0
   -7.3527   -2.0733  -24.4567 C   0  0  0  0  0  0  0  0  0  0  0  0
   -8.0843   -0.0617  -24.0446 H   0  0  0  0  0  0  0  0  0  0  0  0
   -6.0364   -0.4834  -27.7703 H   0  0  0  0  0  0  0  0  0  0  0  0
   -5.6332   -2.9481  -27.2532 H   0  0  0  0  0  0  0  0  0  0  0  0
   -8.7956   -4.4110  -24.0329 H   0  0  0  0  0  0  0  0  0  0  0  0
   -8.1536   -4.6919  -22.3976 H   0  0  0  0  0  0  0  0  0  0  0  0
   -9.3373   -1.0920  -20.6701 H   0  0  0  0  0  0  0  0  0  0  0  0
   -8.6954    0.0118  -21.8768 H   0  0  0  0  0  0  0  0  0  0  0  0
   -9.6282   -1.4834  -23.4598 H   0  0  0  0  0  0  0  0  0  0  0  0
  -11.0773   -2.3965  -21.6985 H   0  0  0  0  0  0  0  0  0  0  0  0
   -9.8328   -3.5704  -21.2431 H   0  0  0  0  0  0  0  0  0  0  0  0
  -10.5971   -3.6498  -22.8444 H   0  0  0  0  0  0  0  0  0  0  0  0
  1  2  1  0
  2  3  1  0
  3  4  1  0
  4  5  1  0
  5  6  2  0
  6  7  1  0
  7  8  2  0
  8  9  1  0
  9 10  2  0
 10 11  1  0
 11 12  2  0
 12 13  1  0
 13 14  2  0
 13 15  1  0
 12 16  1  0
 11 17  1  0
 10 18  1  0
  8 19  1  0
  6 20  1  0
  4 21  1  0
 21 22  2  0
 21 23  1  0
 23 24  1  6
 24 25  1  0
 25 26  1  0
 26 27  1  0
 27 28  2  0
 28 29  1  0
 29 30  1  0
 30 31  2  0
 30 32  1  0
 28 33  1  0
 26 34  1  0
 26 35  1  0
 25 36  1  0
 36 37  2  0
 36 38  1  0
 38 39  2  0
 39 40  1  0
 40 41  2  0
 41 42  1  0
 41 43  1  0
 43 44  2  0
 43 45  1  0
 40 46  1  0
 39 47  1  0
 24 48  1  0
 24 49  1  0
  3 50  1  0
  3 51  1  0
  2 52  1  6
  1 53  1  0
  1 54  1  0
  1 55  1  0
 23  2  1  0
 31 27  1  0
 44 38  1  0
 14  5  1  0
 44 23  1  0
 14  9  1  0
M  END
>  <cnnaffinities>  (75) 
[6.14123, 6.25813]

>  <score>  (75) 
6.14123

>  <index>  (75) 
77

>  <Smiles>  (75) 
C([C@]1(C(N(c2c(nc(c3c(c(c(c(c23)[H])[H])[H])[H])[H])[H])C(=O)[C@]21C(N(C(c1c(oc(n1)[H])[H])([H])[H])C(=O)c1c(c(c(F)c(c21)[H])[H])[H])([H])[H])([H])[H])[H])([H])([H])[H]

>  <h>  (75) 
<NA>

>  <Training>  (75) 
True

>  <Success>  (75) 
True

>  <enamine_searched>  (75) 
False

>  <enamine_id>  (75) 
nan

$$$$

     RDKit          3D

 56 60  0  0  0  0  0  0  0  0999 V2000
   -6.2273   -8.9821  -22.5542 C   0  0  0  0  0  0  0  0  0  0  0  0
   -7.1586   -7.8907  -22.3584 N   0  0  0  0  0  0  0  0  0  0  0  0
   -8.2410   -7.7326  -23.1695 C   0  0  0  0  0  0  0  0  0  0  0  0
   -8.6130   -8.5962  -23.9404 O   0  0  0  0  0  0  0  0  0  0  0  0
   -9.0012   -6.4143  -23.0377 C   0  0  0  0  0  0  0  0  0  0  0  0
   -8.3709   -5.2644  -23.6477 N   0  0  0  0  0  0  0  0  0  0  0  0
   -7.5030   -4.4561  -22.8232 C   0  0  0  0  0  0  0  0  0  0  0  0
   -7.7113   -2.9381  -23.0337 C   0  0  2  0  0  0  0  0  0  0  0  0
   -6.6704   -2.2834  -22.1391 C   0  0  0  0  0  0  0  0  0  0  0  0
   -5.4890   -2.5802  -22.0635 O   0  0  0  0  0  0  0  0  0  0  0  0
   -7.2859   -1.3734  -21.3193 N   0  0  0  0  0  0  0  0  0  0  0  0
   -6.5647   -0.7867  -20.2588 C   0  0  0  0  0  0  0  0  0  0  0  0
   -6.9297   -1.0292  -18.9597 C   0  0  0  0  0  0  0  0  0  0  0  0
   -6.2626   -0.5586  -17.8798 N   0  0  0  0  0  0  0  0  0  0  0  0
   -5.2156    0.1996  -18.1113 C   0  0  0  0  0  0  0  0  0  0  0  0
   -4.7340    0.5320  -19.4102 C   0  0  0  0  0  0  0  0  0  0  0  0
   -3.5989    1.3619  -19.6071 C   0  0  0  0  0  0  0  0  0  0  0  0
   -3.1725    1.6740  -20.8691 C   0  0  0  0  0  0  0  0  0  0  0  0
   -3.8568    1.1670  -21.9961 C   0  0  0  0  0  0  0  0  0  0  0  0
   -4.9522    0.3623  -21.8326 C   0  0  0  0  0  0  0  0  0  0  0  0
   -5.4220    0.0230  -20.5303 C   0  0  0  0  0  0  0  0  0  0  0  0
   -5.4616   -0.0269  -22.7081 H   0  0  0  0  0  0  0  0  0  0  0  0
   -3.5113    1.4157  -22.9950 H   0  0  0  0  0  0  0  0  0  0  0  0
   -2.3152    2.3228  -21.0161 H   0  0  0  0  0  0  0  0  0  0  0  0
   -3.0909    1.7542  -18.7304 H   0  0  0  0  0  0  0  0  0  0  0  0
   -4.6872    0.5831  -17.2396 H   0  0  0  0  0  0  0  0  0  0  0  0
   -7.7874   -1.6693  -18.7537 H   0  0  0  0  0  0  0  0  0  0  0  0
   -8.6352   -1.0541  -21.7379 C   0  0  0  0  0  0  0  0  0  0  0  0
   -9.0683   -2.3204  -22.5094 C   0  0  2  0  0  0  0  0  0  0  0  0
   -9.9558   -3.2648  -21.6981 C   0  0  0  0  0  0  0  0  0  0  0  0
   -9.5289   -3.4679  -20.7141 H   0  0  0  0  0  0  0  0  0  0  0  0
  -10.9585   -2.8390  -21.5616 H   0  0  0  0  0  0  0  0  0  0  0  0
  -10.0685   -4.2109  -22.2342 H   0  0  0  0  0  0  0  0  0  0  0  0
   -9.6773   -2.0199  -23.3666 H   0  0  0  0  0  0  0  0  0  0  0  0
   -8.6290   -0.1745  -22.4049 H   0  0  0  0  0  0  0  0  0  0  0  0
   -9.2753   -0.8305  -20.8804 H   0  0  0  0  0  0  0  0  0  0  0  0
   -7.6156   -2.6579  -24.5226 C   0  0  0  0  0  0  0  0  0  0  0  0
   -7.2507   -1.3978  -25.0197 C   0  0  0  0  0  0  0  0  0  0  0  0
   -7.4851   -1.0887  -26.3548 C   0  0  0  0  0  0  0  0  0  0  0  0
   -7.1207    0.5031  -26.9747 Cl  0  0  0  0  0  0  0  0  0  0  0  0
   -8.0795   -2.0052  -27.2226 C   0  0  0  0  0  0  0  0  0  0  0  0
   -8.4394   -3.2439  -26.7246 C   0  0  0  0  0  0  0  0  0  0  0  0
   -8.1962   -3.5850  -25.3972 C   0  0  0  0  0  0  0  0  0  0  0  0
   -8.7315   -4.9010  -24.9154 C   0  0  0  0  0  0  0  0  0  0  0  0
   -9.4745   -5.5926  -25.6031 O   0  0  0  0  0  0  0  0  0  0  0  0
   -8.9552   -3.9703  -27.3401 H   0  0  0  0  0  0  0  0  0  0  0  0
   -8.3083   -1.7245  -28.2480 H   0  0  0  0  0  0  0  0  0  0  0  0
   -6.8608   -0.6250  -24.3616 H   0  0  0  0  0  0  0  0  0  0  0  0
   -6.4505   -4.6745  -23.0316 H   0  0  0  0  0  0  0  0  0  0  0  0
   -7.6658   -4.6908  -21.7670 H   0  0  0  0  0  0  0  0  0  0  0  0
   -9.1109   -6.1751  -21.9732 H   0  0  0  0  0  0  0  0  0  0  0  0
   -9.9668   -6.5679  -23.5210 H   0  0  0  0  0  0  0  0  0  0  0  0
   -6.8644   -7.1677  -21.7177 H   0  0  0  0  0  0  0  0  0  0  0  0
   -5.6625   -8.8876  -23.4885 H   0  0  0  0  0  0  0  0  0  0  0  0
   -5.5322   -8.9190  -21.7223 H   0  0  0  0  0  0  0  0  0  0  0  0
   -6.7167   -9.9612  -22.5399 H   0  0  0  0  0  0  0  0  0  0  0  0
  1  2  1  0
  2  3  1  0
  3  4  2  0
  3  5  1  0
  5  6  1  0
  6  7  1  0
  8  7  1  6
  8  9  1  0
  9 10  2  0
  9 11  1  0
 11 12  1  0
 12 13  2  0
 13 14  1  0
 14 15  2  0
 15 16  1  0
 16 17  2  0
 17 18  1  0
 18 19  2  0
 19 20  1  0
 20 21  2  0
 20 22  1  0
 19 23  1  0
 18 24  1  0
 17 25  1  0
 15 26  1  0
 13 27  1  0
 11 28  1  0
 28 29  1  0
 29 30  1  0
 30 31  1  0
 30 32  1  0
 30 33  1  0
 29 34  1  6
 28 35  1  0
 28 36  1  0
  8 37  1  0
 37 38  2  0
 38 39  1  0
 39 40  1  0
 39 41  2  0
 41 42  1  0
 42 43  2  0
 43 44  1  0
 44 45  2  0
 42 46  1  0
 41 47  1  0
 38 48  1  0
  7 49  1  0
  7 50  1  0
  5 51  1  0
  5 52  1  0
  2 53  1  0
  1 54  1  0
  1 55  1  0
  1 56  1  0
 44  6  1  0
 29  8  1  0
 43 37  1  0
 21 12  1  0
 21 16  1  0
M  END
>  <cnnaffinities>  (76) 
[6.4776]

>  <score>  (76) 
6.4776

>  <index>  (76) 
78

>  <Smiles>  (76) 
C(N(C(=O)C(N1C([C@@]2(C(=O)N(c3c(nc(c4c(c(c(c(c34)[H])[H])[H])[H])[H])[H])C([C@@]2(C([H])([H])[H])[H])([H])[H])c2c(c(Cl)c(c(c2C1=O)[H])[H])[H])([H])[H])([H])[H])[H])([H])([H])[H]

>  <h>  (76) 
<NA>

>  <Training>  (76) 
True

>  <Success>  (76) 
True

>  <enamine_searched>  (76) 
False

>  <enamine_id>  (76) 
nan

$$$$

     RDKit          3D

 45 49  0  0  0  0  0  0  0  0999 V2000
  -10.0497   -0.9948  -23.7399 C   0  0  0  0  0  0  0  0  0  0  0  0
   -9.1304   -1.4375  -22.7157 N   0  0  0  0  0  0  0  0  0  0  0  0
   -8.3103   -0.5561  -22.0646 C   0  0  0  0  0  0  0  0  0  0  0  0
   -8.2724    0.6453  -22.2013 O   0  0  0  0  0  0  0  0  0  0  0  0
   -7.5077   -1.3332  -21.2087 N   0  0  0  0  0  0  0  0  0  0  0  0
   -6.6502   -0.8010  -20.2100 C   0  0  0  0  0  0  0  0  0  0  0  0
   -6.9301   -1.0762  -18.8941 C   0  0  0  0  0  0  0  0  0  0  0  0
   -6.2325   -0.5884  -17.8413 N   0  0  0  0  0  0  0  0  0  0  0  0
   -5.2114    0.1891  -18.1067 C   0  0  0  0  0  0  0  0  0  0  0  0
   -4.7839    0.5123  -19.4258 C   0  0  0  0  0  0  0  0  0  0  0  0
   -3.6441    1.3263  -19.6425 C   0  0  0  0  0  0  0  0  0  0  0  0
   -3.2156    1.5909  -20.9128 C   0  0  0  0  0  0  0  0  0  0  0  0
   -3.9024    1.0503  -22.0208 C   0  0  0  0  0  0  0  0  0  0  0  0
   -5.0189    0.2683  -21.8413 C   0  0  0  0  0  0  0  0  0  0  0  0
   -5.5022   -0.0052  -20.5266 C   0  0  0  0  0  0  0  0  0  0  0  0
   -5.5306   -0.1387  -22.7086 H   0  0  0  0  0  0  0  0  0  0  0  0
   -3.5405    1.2612  -23.0234 H   0  0  0  0  0  0  0  0  0  0  0  0
   -2.3512    2.2259  -21.0787 H   0  0  0  0  0  0  0  0  0  0  0  0
   -3.1329    1.7289  -18.7745 H   0  0  0  0  0  0  0  0  0  0  0  0
   -4.6473    0.5968  -17.2658 H   0  0  0  0  0  0  0  0  0  0  0  0
   -7.7721   -1.7185  -18.6465 H   0  0  0  0  0  0  0  0  0  0  0  0
   -7.7354   -2.6992  -21.3900 C   0  0  0  0  0  0  0  0  0  0  0  0
   -7.0518   -3.5968  -20.9637 O   0  0  0  0  0  0  0  0  0  0  0  0
   -8.9307   -2.8102  -22.3181 C   0  0  0  0  0  0  0  0  0  0  0  0
  -10.1918   -3.5932  -21.8459 C   0  0  0  0  0  0  0  0  0  0  0  0
  -10.0196   -4.5497  -22.9864 N   0  0  0  0  0  0  0  0  0  0  0  0
  -11.2246   -4.6760  -24.1542 S   0  0  0  0  0  0  0  0  0  0  0  0
  -10.9950   -3.6991  -25.2173 O   0  0  0  0  0  0  0  0  0  0  0  0
  -12.4855   -4.7024  -23.4460 O   0  0  0  0  0  0  0  0  0  0  0  0
  -10.9123   -6.2655  -24.8729 C   0  0  0  0  0  0  0  0  0  0  0  0
   -9.5714   -6.5957  -25.4910 C   0  0  0  0  0  0  0  0  0  0  0  0
  -10.0417   -7.3239  -24.2796 C   0  0  0  0  0  0  0  0  0  0  0  0
  -10.4081   -8.3327  -24.3881 H   0  0  0  0  0  0  0  0  0  0  0  0
   -9.5607   -7.1096  -23.3339 H   0  0  0  0  0  0  0  0  0  0  0  0
   -9.6190   -7.0871  -26.4598 H   0  0  0  0  0  0  0  0  0  0  0  0
   -8.7406   -5.9008  -25.3513 H   0  0  0  0  0  0  0  0  0  0  0  0
  -11.7808   -6.5942  -25.4344 H   0  0  0  0  0  0  0  0  0  0  0  0
   -8.7666   -3.8930  -23.4010 C   0  0  0  0  0  0  0  0  0  0  0  0
   -8.7634   -3.5231  -24.4266 H   0  0  0  0  0  0  0  0  0  0  0  0
   -7.9171   -4.5488  -23.2006 H   0  0  0  0  0  0  0  0  0  0  0  0
  -10.0592   -4.1036  -20.8908 H   0  0  0  0  0  0  0  0  0  0  0  0
  -11.1276   -3.0244  -21.8393 H   0  0  0  0  0  0  0  0  0  0  0  0
   -9.7351   -1.3434  -24.7282 H   0  0  0  0  0  0  0  0  0  0  0  0
  -10.0412    0.0957  -23.7238 H   0  0  0  0  0  0  0  0  0  0  0  0
  -11.0635   -1.3533  -23.5389 H   0  0  0  0  0  0  0  0  0  0  0  0
  1  2  1  0
  2  3  1  0
  3  4  2  0
  3  5  1  0
  5  6  1  0
  6  7  2  0
  7  8  1  0
  8  9  2  0
  9 10  1  0
 10 11  2  0
 11 12  1  0
 12 13  2  0
 13 14  1  0
 14 15  2  0
 14 16  1  0
 13 17  1  0
 12 18  1  0
 11 19  1  0
  9 20  1  0
  7 21  1  0
  5 22  1  0
 22 23  2  0
 22 24  1  0
 24 25  1  0
 25 26  1  0
 26 27  1  0
 27 28  2  0
 27 29  2  0
 27 30  1  0
 30 31  1  0
 31 32  1  0
 32 33  1  0
 32 34  1  0
 31 35  1  0
 31 36  1  0
 30 37  1  0
 26 38  1  0
 38 39  1  0
 38 40  1  0
 25 41  1  0
 25 42  1  0
  1 43  1  0
  1 44  1  0
  1 45  1  0
 24  2  1  0
 32 30  1  0
 15  6  1  0
 38 24  1  0
 15 10  1  0
M  END
>  <cnnaffinities>  (77) 
[5.61232, 5.5944, 5.60389]

>  <score>  (77) 
5.61232

>  <index>  (77) 
79

>  <Smiles>  (77) 
C(N1C(=O)N(c2c(nc(c3c(c(c(c(c23)[H])[H])[H])[H])[H])[H])C(=O)C21C(N(S(=O)(=O)C1(C(C1([H])[H])([H])[H])[H])C2([H])[H])([H])[H])([H])([H])[H]

>  <h>  (77) 
<NA>

>  <Training>  (77) 
True

>  <Success>  (77) 
True

>  <enamine_searched>  (77) 
False

>  <enamine_id>  (77) 
nan

$$$$

     RDKit          3D

 60 65  0  0  0  0  0  0  0  0999 V2000
   -2.6861   -6.7844  -22.7222 C   0  0  0  0  0  0  0  0  0  0  0  0
   -3.9431   -6.1872  -22.2564 N   0  0  0  0  0  0  0  0  0  0  0  0
   -4.9956   -6.9940  -22.0024 C   0  0  0  0  0  0  0  0  0  0  0  0
   -4.9469   -8.1899  -22.0282 O   0  0  0  0  0  0  0  0  0  0  0  0
   -6.6694   -6.0200  -21.4685 C   0  0  0  0  0  0  0  0  0  0  0  0
   -7.5000   -5.5018  -22.5674 N   0  0  0  0  0  0  0  0  0  0  0  0
   -8.4572   -4.4259  -22.3511 C   0  0  0  0  0  0  0  0  0  0  0  0
   -7.9801   -3.0485  -22.8680 C   0  0  2  0  0  0  0  0  0  0  0  0
   -6.8320   -2.4969  -22.0007 C   0  0  0  0  0  0  0  0  0  0  0  0
   -5.6795   -2.8865  -21.9962 O   0  0  0  0  0  0  0  0  0  0  0  0
   -7.3172   -1.4676  -21.2223 N   0  0  0  0  0  0  0  0  0  0  0  0
   -6.5560   -0.8651  -20.1975 C   0  0  0  0  0  0  0  0  0  0  0  0
   -6.8997   -1.0697  -18.8849 C   0  0  0  0  0  0  0  0  0  0  0  0
   -6.2253   -0.5655  -17.8245 N   0  0  0  0  0  0  0  0  0  0  0  0
   -5.1904    0.1985  -18.0820 C   0  0  0  0  0  0  0  0  0  0  0  0
   -4.7374    0.5109  -19.3963 C   0  0  0  0  0  0  0  0  0  0  0  0
   -3.6143    1.3508  -19.6186 C   0  0  0  0  0  0  0  0  0  0  0  0
   -3.2193    1.6546  -20.8930 C   0  0  0  0  0  0  0  0  0  0  0  0
   -3.9275    1.1409  -22.0021 C   0  0  0  0  0  0  0  0  0  0  0  0
   -5.0155    0.3250  -21.8145 C   0  0  0  0  0  0  0  0  0  0  0  0
   -5.4384   -0.0225  -20.4994 C   0  0  0  0  0  0  0  0  0  0  0  0
   -5.5605   -0.0656  -22.6687 H   0  0  0  0  0  0  0  0  0  0  0  0
   -3.6086    1.4000  -23.0082 H   0  0  0  0  0  0  0  0  0  0  0  0
   -2.3651    2.3047  -21.0627 H   0  0  0  0  0  0  0  0  0  0  0  0
   -3.0918    1.7543  -18.7562 H   0  0  0  0  0  0  0  0  0  0  0  0
   -4.6526    0.6110  -17.2298 H   0  0  0  0  0  0  0  0  0  0  0  0
   -7.7502   -1.7090  -18.6470 H   0  0  0  0  0  0  0  0  0  0  0  0
   -8.7605   -1.3340  -21.3012 C   0  0  0  0  0  0  0  0  0  0  0  0
   -9.1040   -1.9890  -22.6484 C   0  0  2  0  0  0  0  0  0  0  0  0
  -10.5417   -2.5093  -22.6806 C   0  0  0  0  0  0  0  0  0  0  0  0
  -10.7411   -3.1874  -21.8410 H   0  0  0  0  0  0  0  0  0  0  0  0
  -11.2602   -1.6883  -22.6025 H   0  0  0  0  0  0  0  0  0  0  0  0
  -10.7538   -3.0554  -23.6071 H   0  0  0  0  0  0  0  0  0  0  0  0
   -8.9983   -1.2246  -23.4219 H   0  0  0  0  0  0  0  0  0  0  0  0
   -9.0490   -0.2789  -21.2572 H   0  0  0  0  0  0  0  0  0  0  0  0
   -9.2651   -1.8668  -20.4805 H   0  0  0  0  0  0  0  0  0  0  0  0
   -7.4826   -3.2387  -24.2846 C   0  0  0  0  0  0  0  0  0  0  0  0
   -7.3631   -2.1309  -25.1327 C   0  0  0  0  0  0  0  0  0  0  0  0
   -6.9262   -2.2989  -26.4335 C   0  0  0  0  0  0  0  0  0  0  0  0
   -6.8253   -0.8988  -27.4718 Cl  0  0  0  0  0  0  0  0  0  0  0  0
   -6.5697   -3.5559  -26.9277 C   0  0  0  0  0  0  0  0  0  0  0  0
   -6.6216   -4.6414  -26.0720 C   0  0  0  0  0  0  0  0  0  0  0  0
   -7.0520   -4.4952  -24.7438 C   0  0  0  0  0  0  0  0  0  0  0  0
   -6.9593   -5.6698  -23.8170 C   0  0  0  0  0  0  0  0  0  0  0  0
   -6.4124   -6.7154  -24.1387 O   0  0  0  0  0  0  0  0  0  0  0  0
   -6.3274   -5.6231  -26.4272 H   0  0  0  0  0  0  0  0  0  0  0  0
   -6.2482   -3.6525  -27.9627 H   0  0  0  0  0  0  0  0  0  0  0  0
   -7.6066   -1.1302  -24.7843 H   0  0  0  0  0  0  0  0  0  0  0  0
   -9.3882   -4.7054  -22.8648 H   0  0  0  0  0  0  0  0  0  0  0  0
   -8.6451   -4.3756  -21.2813 H   0  0  0  0  0  0  0  0  0  0  0  0
   -6.9549   -6.2851  -21.3086 C   0  0  0  0  0  0  0  0  0  0  0  0
   -5.9663   -5.3828  -20.3662 C   0  0  0  0  0  0  0  0  0  0  0  0
   -5.5000   -6.0741  -19.7182 H   0  0  0  0  0  0  0  0  0  0  0  0
   -6.4757   -4.4923  -20.0600 H   0  0  0  0  0  0  0  0  0  0  0  0
   -7.8664   -6.4856  -20.7435 H   0  0  0  0  0  0  0  0  0  0  0  0
   -7.2314   -7.3960  -21.5193 H   0  0  0  0  0  0  0  0  0  0  0  0
   -4.0362   -5.1765  -22.3269 H   0  0  0  0  0  0  0  0  0  0  0  0
   -2.3329   -7.5333  -22.0036 H   0  0  0  0  0  0  0  0  0  0  0  0
   -2.8218   -7.3048  -23.6794 H   0  0  0  0  0  0  0  0  0  0  0  0
   -1.9260   -6.0066  -22.8302 H   0  0  0  0  0  0  0  0  0  0  0  0
  1  2  1  0
  2  3  1  0
  3  4  2  0
  3  5  1  0
  5  6  1  0
  6  7  1  0
  8  7  1  1
  8  9  1  0
  9 10  2  0
  9 11  1  0
 11 12  1  0
 12 13  2  0
 13 14  1  0
 14 15  2  0
 15 16  1  0
 16 17  2  0
 17 18  1  0
 18 19  2  0
 19 20  1  0
 20 21  2  0
 20 22  1  0
 19 23  1  0
 18 24  1  0
 17 25  1  0
 15 26  1  0
 13 27  1  0
 11 28  1  0
 28 29  1  0
 29 30  1  0
 30 31  1  0
 30 32  1  0
 30 33  1  0
 29 34  1  6
 28 35  1  0
 28 36  1  0
  8 37  1  0
 37 38  2  0
 38 39  1  0
 39 40  1  0
 39 41  2  0
 41 42  1  0
 42 43  2  0
 43 44  1  0
 44 45  2  0
 42 46  1  0
 41 47  1  0
 38 48  1  0
  7 49  1  0
  7 50  1  0
  5 51  1  0
 51 52  1  0
 52 53  1  0
 52 54  1  0
 51 55  1  0
 51 56  1  0
  2 57  1  0
  1 58  1  0
  1 59  1  0
  1 60  1  0
 52  5  1  0
 44  6  1  0
 29  8  1  0
 43 37  1  0
 21 12  1  0
 21 16  1  0
M  END
>  <cnnaffinities>  (78) 
[5.48566]

>  <score>  (78) 
5.48566

>  <index>  (78) 
80

>  <Smiles>  (78) 
C(N(C(=O)C1(N2C([C@@]3(C(=O)N(c4c(nc(c5c(c(c(c(c45)[H])[H])[H])[H])[H])[H])C([C@@]3(C([H])([H])[H])[H])([H])[H])c3c(c(Cl)c(c(c3C2=O)[H])[H])[H])([H])[H])C(C1([H])[H])([H])[H])[H])([H])([H])[H]

>  <h>  (78) 
<NA>

>  <Training>  (78) 
True

>  <Success>  (78) 
True

>  <enamine_searched>  (78) 
False

>  <enamine_id>  (78) 
nan

$$$$

     RDKit          3D

 36 38  0  0  0  0  0  0  0  0999 V2000
   -5.9638   -3.3826  -21.2458 O   0  0  0  0  0  0  0  0  0  0  0  0
   -6.6692   -2.6708  -21.9341 C   0  0  0  0  0  0  0  0  0  0  0  0
   -7.3903   -1.4616  -21.2874 C   0  0  0  0  0  0  0  0  0  0  0  0
   -6.5733   -0.8292  -20.1832 C   0  0  0  0  0  0  0  0  0  0  0  0
   -6.8718   -1.0483  -18.8632 C   0  0  0  0  0  0  0  0  0  0  0  0
   -6.1845   -0.5491  -17.7995 N   0  0  0  0  0  0  0  0  0  0  0  0
   -5.1575    0.2215  -18.0637 C   0  0  0  0  0  0  0  0  0  0  0  0
   -4.7213    0.5351  -19.3788 C   0  0  0  0  0  0  0  0  0  0  0  0
   -3.5930    1.3602  -19.6206 C   0  0  0  0  0  0  0  0  0  0  0  0
   -3.1934    1.6376  -20.9002 C   0  0  0  0  0  0  0  0  0  0  0  0
   -3.9079    1.0962  -21.9931 C   0  0  0  0  0  0  0  0  0  0  0  0
   -5.0032    0.2959  -21.7853 C   0  0  0  0  0  0  0  0  0  0  0  0
   -5.4443   -0.0058  -20.4714 C   0  0  0  0  0  0  0  0  0  0  0  0
   -5.5350   -0.1129  -22.6390 H   0  0  0  0  0  0  0  0  0  0  0  0
   -3.5868    1.3209  -23.0051 H   0  0  0  0  0  0  0  0  0  0  0  0
   -2.3339    2.2751  -21.0894 H   0  0  0  0  0  0  0  0  0  0  0  0
   -3.0558    1.7740  -18.7707 H   0  0  0  0  0  0  0  0  0  0  0  0
   -4.6042    0.6282  -17.2147 H   0  0  0  0  0  0  0  0  0  0  0  0
   -7.7216   -1.6709  -18.5886 H   0  0  0  0  0  0  0  0  0  0  0  0
   -7.6807   -0.7058  -22.0248 H   0  0  0  0  0  0  0  0  0  0  0  0
   -8.3272   -1.8370  -20.8516 H   0  0  0  0  0  0  0  0  0  0  0  0
   -6.8177   -2.9335  -23.2888 N   0  0  0  0  0  0  0  0  0  0  0  0
   -6.4336   -4.2692  -23.7401 C   0  0  0  0  0  0  0  0  0  0  0  0
   -7.4889   -5.3364  -23.5910 C   0  0  0  0  0  0  0  0  0  0  0  0
   -8.8169   -5.1857  -23.5222 C   0  0  0  0  0  0  0  0  0  0  0  0
   -9.6371   -3.9559  -23.5549 C   0  0  0  0  0  0  0  0  0  0  0  0
   -9.2451   -2.7026  -23.7983 C   0  0  0  0  0  0  0  0  0  0  0  0
   -7.8314   -2.2951  -24.1151 C   0  0  0  0  0  0  0  0  0  0  0  0
   -7.7110   -1.2089  -24.0773 H   0  0  0  0  0  0  0  0  0  0  0  0
   -7.5965   -2.5802  -25.1469 H   0  0  0  0  0  0  0  0  0  0  0  0
   -9.9872   -1.9047  -23.7706 H   0  0  0  0  0  0  0  0  0  0  0  0
  -10.6959   -4.1280  -23.3744 H   0  0  0  0  0  0  0  0  0  0  0  0
   -9.4082   -6.0960  -23.4319 H   0  0  0  0  0  0  0  0  0  0  0  0
   -7.0957   -6.3547  -23.5426 H   0  0  0  0  0  0  0  0  0  0  0  0
   -5.5192   -4.5679  -23.2211 H   0  0  0  0  0  0  0  0  0  0  0  0
   -6.1724   -4.1829  -24.8013 H   0  0  0  0  0  0  0  0  0  0  0  0
  1  2  2  0
  2  3  1  0
  3  4  1  0
  4  5  2  0
  5  6  1  0
  6  7  2  0
  7  8  1  0
  8  9  2  0
  9 10  1  0
 10 11  2  0
 11 12  1  0
 12 13  2  0
 12 14  1  0
 11 15  1  0
 10 16  1  0
  9 17  1  0
  7 18  1  0
  5 19  1  0
  3 20  1  0
  3 21  1  0
  2 22  1  0
 22 23  1  0
 23 24  1  0
 24 25  2  0
 25 26  1  0
 26 27  2  0
 27 28  1  0
 28 29  1  0
 28 30  1  0
 27 31  1  0
 26 32  1  0
 25 33  1  0
 24 34  1  0
 23 35  1  0
 23 36  1  0
 13  4  1  0
 28 22  1  0
 13  8  1  0
M  END
>  <cnnaffinities>  (79) 
[5.26036, 5.25983, 4.70142, 4.70314, 4.88749, 5.07759, 5.07761]

>  <score>  (79) 
5.26036

>  <index>  (79) 
81

>  <Smiles>  (79) 
O=C(C(c1c(nc(c2c(c(c(c(c12)[H])[H])[H])[H])[H])[H])([H])[H])N1C(C(=C(C(=C(C1([H])[H])[H])[H])[H])[H])([H])[H]

>  <h>  (79) 
<NA>

>  <Training>  (79) 
True

>  <Success>  (79) 
True

>  <enamine_searched>  (79) 
False

>  <enamine_id>  (79) 
nan

$$$$

     RDKit          3D

 54 57  0  0  0  0  0  0  0  0999 V2000
   -9.3967    1.4537  -24.5488 C   0  0  0  0  0  0  0  0  0  0  0  0
   -8.8717    0.1559  -24.4014 O   0  0  0  0  0  0  0  0  0  0  0  0
   -7.6019   -0.0659  -24.8277 C   0  0  0  0  0  0  0  0  0  0  0  0
   -6.7943    0.9298  -25.3826 C   0  0  0  0  0  0  0  0  0  0  0  0
   -5.4896    0.6245  -25.7606 C   0  0  0  0  0  0  0  0  0  0  0  0
   -5.0049   -0.6674  -25.6027 C   0  0  0  0  0  0  0  0  0  0  0  0
   -5.8228   -1.6481  -25.0495 C   0  0  0  0  0  0  0  0  0  0  0  0
   -7.1159   -1.3688  -24.6387 C   0  0  0  0  0  0  0  0  0  0  0  0
   -8.0004   -2.4613  -24.0371 C   0  0  1  0  0  0  0  0  0  0  0  0
   -8.5385   -3.3677  -25.1538 C   0  0  0  0  0  0  0  0  0  0  0  0
   -9.2451   -4.6014  -24.5872 C   0  0  1  0  0  0  0  0  0  0  0  0
   -9.8856   -5.4481  -25.6939 C   0  0  0  0  0  0  0  0  0  0  0  0
  -10.6214   -4.8683  -26.2631 H   0  0  0  0  0  0  0  0  0  0  0  0
   -9.1279   -5.8117  -26.4014 H   0  0  0  0  0  0  0  0  0  0  0  0
  -10.3980   -6.3228  -25.2768 H   0  0  0  0  0  0  0  0  0  0  0  0
   -8.2703   -5.4354  -23.7250 C   0  0  0  0  0  0  0  0  0  0  0  0
   -6.9990   -4.6601  -23.3524 C   0  0  0  0  0  0  0  0  0  0  0  0
   -7.3040   -3.2669  -23.0298 N   0  0  0  0  0  0  0  0  0  0  0  0
   -6.7431   -2.7373  -21.8885 C   0  0  0  0  0  0  0  0  0  0  0  0
   -5.8163   -3.2914  -21.3184 O   0  0  0  0  0  0  0  0  0  0  0  0
   -7.3915   -1.4679  -21.2920 C   0  0  0  0  0  0  0  0  0  0  0  0
   -6.5717   -0.8381  -20.1959 C   0  0  0  0  0  0  0  0  0  0  0  0
   -6.8711   -1.0590  -18.8785 C   0  0  0  0  0  0  0  0  0  0  0  0
   -6.1882   -0.5584  -17.8140 N   0  0  0  0  0  0  0  0  0  0  0  0
   -5.1608    0.2115  -18.0771 C   0  0  0  0  0  0  0  0  0  0  0  0
   -4.7227    0.5265  -19.3917 C   0  0  0  0  0  0  0  0  0  0  0  0
   -3.5973    1.3566  -19.6250 C   0  0  0  0  0  0  0  0  0  0  0  0
   -3.1988    1.6305  -20.9022 C   0  0  0  0  0  0  0  0  0  0  0  0
   -3.9072    1.0885  -21.9975 C   0  0  0  0  0  0  0  0  0  0  0  0
   -5.0008    0.2839  -21.8071 C   0  0  0  0  0  0  0  0  0  0  0  0
   -5.4400   -0.0153  -20.4870 C   0  0  0  0  0  0  0  0  0  0  0  0
   -5.5273   -0.1199  -22.6720 H   0  0  0  0  0  0  0  0  0  0  0  0
   -3.5844    1.3182  -23.0105 H   0  0  0  0  0  0  0  0  0  0  0  0
   -2.3417    2.2717  -21.0869 H   0  0  0  0  0  0  0  0  0  0  0  0
   -3.0723    1.7686  -18.7660 H   0  0  0  0  0  0  0  0  0  0  0  0
   -4.6184    0.6240  -17.2233 H   0  0  0  0  0  0  0  0  0  0  0  0
   -7.7258   -1.6774  -18.6011 H   0  0  0  0  0  0  0  0  0  0  0  0
   -7.6373   -0.7390  -22.0722 H   0  0  0  0  0  0  0  0  0  0  0  0
   -8.3571   -1.7819  -20.8702 H   0  0  0  0  0  0  0  0  0  0  0  0
   -6.2709   -4.7187  -24.1766 H   0  0  0  0  0  0  0  0  0  0  0  0
   -6.5191   -5.0840  -22.4712 H   0  0  0  0  0  0  0  0  0  0  0  0
   -7.9729   -6.3436  -24.2672 H   0  0  0  0  0  0  0  0  0  0  0  0
   -8.7882   -5.7621  -22.8150 H   0  0  0  0  0  0  0  0  0  0  0  0
  -10.0495   -4.2414  -23.9277 H   0  0  0  0  0  0  0  0  0  0  0  0
   -9.2415   -2.7679  -25.7452 H   0  0  0  0  0  0  0  0  0  0  0  0
   -7.7200   -3.6687  -25.8299 H   0  0  0  0  0  0  0  0  0  0  0  0
   -8.8562   -1.9734  -23.5575 H   0  0  0  0  0  0  0  0  0  0  0  0
   -5.4429   -2.6624  -24.9389 H   0  0  0  0  0  0  0  0  0  0  0  0
   -3.9958   -0.9275  -25.9031 H   0  0  0  0  0  0  0  0  0  0  0  0
   -4.8488    1.4007  -26.1747 H   0  0  0  0  0  0  0  0  0  0  0  0
   -7.1598    1.9434  -25.5015 H   0  0  0  0  0  0  0  0  0  0  0  0
   -9.3062    1.8003  -25.5876 H   0  0  0  0  0  0  0  0  0  0  0  0
   -8.8894    2.1701  -23.8878 H   0  0  0  0  0  0  0  0  0  0  0  0
  -10.4452    1.3587  -24.2622 H   0  0  0  0  0  0  0  0  0  0  0  0
  1  2  1  0
  2  3  1  0
  3  4  2  0
  4  5  1  0
  5  6  2  0
  6  7  1  0
  7  8  2  0
  8  9  1  0
  9 10  1  0
 10 11  1  0
 11 12  1  0
 12 13  1  0
 12 14  1  0
 12 15  1  0
 11 16  1  0
 16 17  1  0
 17 18  1  0
 18 19  1  0
 19 20  2  0
 19 21  1  0
 21 22  1  0
 22 23  2  0
 23 24  1  0
 24 25  2  0
 25 26  1  0
 26 27  2  0
 27 28  1  0
 28 29  2  0
 29 30  1  0
 30 31  2  0
 30 32  1  0
 29 33  1  0
 28 34  1  0
 27 35  1  0
 25 36  1  0
 23 37  1  0
 21 38  1  0
 21 39  1  0
 17 40  1  0
 17 41  1  0
 16 42  1  0
 16 43  1  0
 11 44  1  1
 10 45  1  0
 10 46  1  0
  9 47  1  1
  7 48  1  0
  6 49  1  0
  5 50  1  0
  4 51  1  0
  1 52  1  0
  1 53  1  0
  1 54  1  0
  8  3  1  0
 18  9  1  0
 31 22  1  0
 31 26  1  0
M  END
>  <cnnaffinities>  (80) 
[5.98878]

>  <score>  (80) 
5.98878

>  <index>  (80) 
82

>  <Smiles>  (80) 
C(Oc1c(c(c(c(c1[C@]1(C([C@@](C([H])([H])[H])(C(C(N1C(=O)C(c1c(nc(c2c(c(c(c(c12)[H])[H])[H])[H])[H])[H])([H])[H])([H])[H])([H])[H])[H])([H])[H])[H])[H])[H])[H])[H])([H])([H])[H]

>  <h>  (80) 
<NA>

>  <Training>  (80) 
True

>  <Success>  (80) 
True

>  <enamine_searched>  (80) 
False

>  <enamine_id>  (80) 
nan

$$$$

     RDKit          3D

 46 50  0  0  0  0  0  0  0  0999 V2000
   -3.6279   -1.0747  -25.3604 N   0  0  0  0  0  0  0  0  0  0  0  0
   -4.5228   -2.0124  -26.3759 S   0  0  0  0  0  0  0  0  0  0  0  0
   -4.3073   -3.3729  -25.9202 O   0  0  0  0  0  0  0  0  0  0  0  0
   -4.1874   -1.5790  -27.7194 O   0  0  0  0  0  0  0  0  0  0  0  0
   -6.2211   -1.5861  -26.0884 C   0  0  0  0  0  0  0  0  0  0  0  0
   -6.9627   -0.9880  -27.1009 C   0  0  0  0  0  0  0  0  0  0  0  0
   -8.2719   -0.6356  -26.8532 C   0  0  0  0  0  0  0  0  0  0  0  0
   -8.8391   -0.8571  -25.5986 C   0  0  0  0  0  0  0  0  0  0  0  0
   -8.0966   -1.4540  -24.5783 C   0  0  0  0  0  0  0  0  0  0  0  0
   -6.7774   -1.8082  -24.8383 C   0  0  0  0  0  0  0  0  0  0  0  0
   -6.1854   -2.2816  -24.0624 H   0  0  0  0  0  0  0  0  0  0  0  0
   -8.6852   -1.6848  -23.1982 C   0  0  1  0  0  0  0  0  0  0  0  0
  -10.2198   -1.5964  -23.2662 C   0  0  0  0  0  0  0  0  0  0  0  0
  -10.6569   -0.4241  -24.1343 C   0  0  0  0  0  0  0  0  0  0  0  0
  -10.1393   -0.5037  -25.4578 O   0  0  0  0  0  0  0  0  0  0  0  0
  -10.3498    0.5230  -23.6680 H   0  0  0  0  0  0  0  0  0  0  0  0
  -11.7394   -0.4415  -24.2849 H   0  0  0  0  0  0  0  0  0  0  0  0
  -10.6035   -1.5027  -22.2470 H   0  0  0  0  0  0  0  0  0  0  0  0
  -10.6174   -2.5307  -23.6861 H   0  0  0  0  0  0  0  0  0  0  0  0
   -8.2610   -2.9237  -22.5882 N   0  0  0  0  0  0  0  0  0  0  0  0
   -7.4924   -2.7899  -21.4713 C   0  0  0  0  0  0  0  0  0  0  0  0
   -6.9497   -3.6677  -20.8403 O   0  0  0  0  0  0  0  0  0  0  0  0
   -7.4067   -1.4038  -21.2176 N   0  0  0  0  0  0  0  0  0  0  0  0
   -6.5911   -0.8328  -20.1985 C   0  0  0  0  0  0  0  0  0  0  0  0
   -6.9010   -1.0707  -18.8849 C   0  0  0  0  0  0  0  0  0  0  0  0
   -6.2099   -0.5592  -17.8404 N   0  0  0  0  0  0  0  0  0  0  0  0
   -5.1795    0.2067  -18.0991 C   0  0  0  0  0  0  0  0  0  0  0  0
   -4.7336    0.5189  -19.4105 C   0  0  0  0  0  0  0  0  0  0  0  0
   -3.5990    1.3440  -19.6379 C   0  0  0  0  0  0  0  0  0  0  0  0
   -3.1811    1.6057  -20.9133 C   0  0  0  0  0  0  0  0  0  0  0  0
   -3.8771    1.0463  -22.0101 C   0  0  0  0  0  0  0  0  0  0  0  0
   -4.9768    0.2499  -21.8171 C   0  0  0  0  0  0  0  0  0  0  0  0
   -5.4477   -0.0243  -20.5026 C   0  0  0  0  0  0  0  0  0  0  0  0
   -5.5161   -0.1665  -22.6664 H   0  0  0  0  0  0  0  0  0  0  0  0
   -3.5390    1.2611  -23.0197 H   0  0  0  0  0  0  0  0  0  0  0  0
   -2.3197    2.2450  -21.0906 H   0  0  0  0  0  0  0  0  0  0  0  0
   -3.0783    1.7603  -18.7802 H   0  0  0  0  0  0  0  0  0  0  0  0
   -4.6372    0.6105  -17.2436 H   0  0  0  0  0  0  0  0  0  0  0  0
   -7.7520   -1.6918  -18.6172 H   0  0  0  0  0  0  0  0  0  0  0  0
   -8.1004   -0.6754  -22.1888 C   0  0  0  0  0  0  0  0  0  0  0  0
   -8.2039    0.5229  -22.2239 O   0  0  0  0  0  0  0  0  0  0  0  0
   -8.4565   -3.8281  -22.9866 H   0  0  0  0  0  0  0  0  0  0  0  0
   -8.8846   -0.2124  -27.6306 H   0  0  0  0  0  0  0  0  0  0  0  0
   -6.5159   -0.8174  -28.0727 H   0  0  0  0  0  0  0  0  0  0  0  0
   -3.7340   -0.0836  -25.5459 H   0  0  0  0  0  0  0  0  0  0  0  0
   -3.7010   -1.3578  -24.3902 H   0  0  0  0  0  0  0  0  0  0  0  0
  1  2  1  0
  2  3  2  0
  2  4  2  0
  2  5  1  0
  5  6  2  0
  6  7  1  0
  7  8  2  0
  8  9  1  0
  9 10  2  0
 10 11  1  0
  9 12  1  0
 12 13  1  0
 13 14  1  0
 14 15  1  0
 14 16  1  0
 14 17  1  0
 13 18  1  0
 13 19  1  0
 12 20  1  1
 20 21  1  0
 21 22  2  0
 21 23  1  0
 23 24  1  0
 24 25  2  0
 25 26  1  0
 26 27  2  0
 27 28  1  0
 28 29  2  0
 29 30  1  0
 30 31  2  0
 31 32  1  0
 32 33  2  0
 32 34  1  0
 31 35  1  0
 30 36  1  0
 29 37  1  0
 27 38  1  0
 25 39  1  0
 23 40  1  0
 40 41  2  0
 20 42  1  0
  7 43  1  0
  6 44  1  0
  1 45  1  0
  1 46  1  0
 10  5  1  0
 40 12  1  0
 15  8  1  0
 33 24  1  0
 33 28  1  0
M  END
>  <cnnaffinities>  (81) 
[5.21049, 5.19979]

>  <score>  (81) 
5.21049

>  <index>  (81) 
83

>  <Smiles>  (81) 
N(S(=O)(=O)c1c(c(c2c(c1[H])[C@@]1(C(C(O2)([H])[H])([H])[H])N(C(=O)N(c2c(nc(c3c(c(c(c(c23)[H])[H])[H])[H])[H])[H])C1=O)[H])[H])[H])([H])[H]

>  <h>  (81) 
<NA>

>  <Training>  (81) 
True

>  <Success>  (81) 
True

>  <enamine_searched>  (81) 
False

>  <enamine_id>  (81) 
nan

$$$$

     RDKit          3D

 63 68  0  0  0  0  0  0  0  0999 V2000
   -7.2373   -4.7341  -23.2322 C   0  0  0  0  0  0  0  0  0  0  0  0
   -7.3721   -3.5025  -22.3406 C   0  0  1  0  0  0  0  0  0  0  0  0
   -6.2649   -3.2649  -21.2903 C   0  0  0  0  0  0  0  0  0  0  0  0
   -6.4693   -1.8560  -20.9645 N   0  0  0  0  0  0  0  0  0  0  0  0
   -5.9370   -1.1256  -19.8828 C   0  0  0  0  0  0  0  0  0  0  0  0
   -6.3657   -1.3449  -18.5990 C   0  0  0  0  0  0  0  0  0  0  0  0
   -5.9247   -0.6531  -17.5195 N   0  0  0  0  0  0  0  0  0  0  0  0
   -5.0097    0.2678  -17.7153 C   0  0  0  0  0  0  0  0  0  0  0  0
   -4.4488    0.5650  -18.9909 C   0  0  0  0  0  0  0  0  0  0  0  0
   -3.4050    1.5161  -19.1501 C   0  0  0  0  0  0  0  0  0  0  0  0
   -2.9485    1.8425  -20.3976 C   0  0  0  0  0  0  0  0  0  0  0  0
   -3.5312    1.2472  -21.5408 C   0  0  0  0  0  0  0  0  0  0  0  0
   -4.5104    0.2967  -21.4150 C   0  0  0  0  0  0  0  0  0  0  0  0
   -4.9714   -0.0959  -20.1225 C   0  0  0  0  0  0  0  0  0  0  0  0
   -4.9542   -0.1416  -22.3064 H   0  0  0  0  0  0  0  0  0  0  0  0
   -3.1988    1.5520  -22.5301 H   0  0  0  0  0  0  0  0  0  0  0  0
   -2.1531    2.5722  -20.5222 H   0  0  0  0  0  0  0  0  0  0  0  0
   -2.9886    1.9765  -18.2582 H   0  0  0  0  0  0  0  0  0  0  0  0
   -4.6692    0.8332  -16.8447 H   0  0  0  0  0  0  0  0  0  0  0  0
   -7.1356   -2.0942  -18.4091 H   0  0  0  0  0  0  0  0  0  0  0  0
   -7.2301   -1.1905  -21.9009 C   0  0  0  0  0  0  0  0  0  0  0  0
   -7.6726   -0.0731  -21.7595 O   0  0  0  0  0  0  0  0  0  0  0  0
   -7.4274   -2.1406  -23.0977 C   0  0  1  0  0  0  0  0  0  0  0  0
   -6.2525   -2.0005  -24.1172 C   0  0  0  0  0  0  0  0  0  0  0  0
   -6.3126   -0.7307  -24.8454 N   0  0  0  0  0  0  0  0  0  0  0  0
   -5.0770   -0.1178  -25.3344 C   0  0  0  0  0  0  0  0  0  0  0  0
   -4.5225   -0.6714  -26.6602 C   0  0  0  0  0  0  0  0  0  0  0  0
   -3.3718   -1.0518  -26.7374 O   0  0  0  0  0  0  0  0  0  0  0  0
   -5.3975   -0.6897  -27.7133 N   0  0  0  0  0  0  0  0  0  0  0  0
   -5.2185   -1.7623  -28.6729 C   0  0  0  0  0  0  0  0  0  0  0  0
   -5.7950   -3.0236  -28.0839 C   0  0  0  0  0  0  0  0  0  0  0  0
   -5.0556   -3.3912  -26.9706 F   0  0  0  0  0  0  0  0  0  0  0  0
   -6.4601   -4.1703  -28.7488 C   0  0  0  0  0  0  0  0  0  0  0  0
   -7.2729   -3.1656  -27.9400 C   0  0  0  0  0  0  0  0  0  0  0  0
   -7.8913   -2.4844  -28.5244 H   0  0  0  0  0  0  0  0  0  0  0  0
   -7.6542   -3.4341  -26.9548 H   0  0  0  0  0  0  0  0  0  0  0  0
   -6.5631   -4.1831  -29.8299 H   0  0  0  0  0  0  0  0  0  0  0  0
   -6.2836   -5.1416  -28.2922 H   0  0  0  0  0  0  0  0  0  0  0  0
   -5.6990   -1.4842  -29.6142 H   0  0  0  0  0  0  0  0  0  0  0  0
   -4.1420   -1.8639  -28.8101 H   0  0  0  0  0  0  0  0  0  0  0  0
   -6.3309   -0.3232  -27.5521 H   0  0  0  0  0  0  0  0  0  0  0  0
   -5.2862    0.9501  -25.4559 H   0  0  0  0  0  0  0  0  0  0  0  0
   -4.2680   -0.2556  -24.6082 H   0  0  0  0  0  0  0  0  0  0  0  0
   -7.4869   -0.3232  -25.4035 C   0  0  0  0  0  0  0  0  0  0  0  0
   -7.5144    0.4941  -26.3320 O   0  0  0  0  0  0  0  0  0  0  0  0
   -8.7458   -0.8943  -24.8405 C   0  0  0  0  0  0  0  0  0  0  0  0
   -9.9485   -0.4549  -25.3820 C   0  0  0  0  0  0  0  0  0  0  0  0
  -11.1538   -0.8813  -24.8769 C   0  0  0  0  0  0  0  0  0  0  0  0
  -11.1290   -1.7655  -23.8046 C   0  0  0  0  0  0  0  0  0  0  0  0
  -12.2905   -2.1768  -23.2727 F   0  0  0  0  0  0  0  0  0  0  0  0
   -9.9539   -2.2203  -23.2421 C   0  0  0  0  0  0  0  0  0  0  0  0
   -8.7276   -1.8008  -23.7733 C   0  0  0  0  0  0  0  0  0  0  0  0
  -10.0255   -2.8518  -22.3646 H   0  0  0  0  0  0  0  0  0  0  0  0
  -12.0776   -0.4752  -25.2655 H   0  0  0  0  0  0  0  0  0  0  0  0
   -9.9011    0.2509  -26.1982 H   0  0  0  0  0  0  0  0  0  0  0  0
   -6.2865   -2.8342  -24.8380 H   0  0  0  0  0  0  0  0  0  0  0  0
   -5.2950   -2.0514  -23.5841 H   0  0  0  0  0  0  0  0  0  0  0  0
   -5.2685   -3.4447  -21.7262 H   0  0  0  0  0  0  0  0  0  0  0  0
   -6.3463   -3.8710  -20.3842 H   0  0  0  0  0  0  0  0  0  0  0  0
   -8.3054   -3.5744  -21.7657 H   0  0  0  0  0  0  0  0  0  0  0  0
   -8.0560   -4.7530  -23.9631 H   0  0  0  0  0  0  0  0  0  0  0  0
   -7.2607   -5.6724  -22.6673 H   0  0  0  0  0  0  0  0  0  0  0  0
   -6.3011   -4.7170  -23.8021 H   0  0  0  0  0  0  0  0  0  0  0  0
  1  2  1  0
  2  3  1  0
  3  4  1  0
  4  5  1  0
  5  6  2  0
  6  7  1  0
  7  8  2  0
  8  9  1  0
  9 10  2  0
 10 11  1  0
 11 12  2  0
 12 13  1  0
 13 14  2  0
 13 15  1  0
 12 16  1  0
 11 17  1  0
 10 18  1  0
  8 19  1  0
  6 20  1  0
  4 21  1  0
 21 22  2  0
 21 23  1  0
 23 24  1  6
 24 25  1  0
 25 26  1  0
 26 27  1  0
 27 28  2  0
 27 29  1  0
 29 30  1  0
 30 31  1  0
 31 32  1  0
 31 33  1  0
 33 34  1  0
 34 35  1  0
 34 36  1  0
 33 37  1  0
 33 38  1  0
 30 39  1  0
 30 40  1  0
 29 41  1  0
 26 42  1  0
 26 43  1  0
 25 44  1  0
 44 45  2  0
 44 46  1  0
 46 47  2  0
 47 48  1  0
 48 49  2  0
 49 50  1  0
 49 51  1  0
 51 52  2  0
 51 53  1  0
 48 54  1  0
 47 55  1  0
 24 56  1  0
 24 57  1  0
  3 58  1  0
  3 59  1  0
  2 60  1  1
  1 61  1  0
  1 62  1  0
  1 63  1  0
 23  2  1  0
 34 31  1  0
 52 46  1  0
 14  5  1  0
 52 23  1  0
 14  9  1  0
M  END
>  <cnnaffinities>  (82) 
[6.09077, 6.85568]

>  <score>  (82) 
6.09077

>  <index>  (82) 
84

>  <Smiles>  (82) 
C([C@]1(C(N(c2c(nc(c3c(c(c(c(c23)[H])[H])[H])[H])[H])[H])C(=O)[C@]21C(N(C(C(=O)N(C(C1(F)C(C1([H])[H])([H])[H])([H])[H])[H])([H])[H])C(=O)c1c(c(c(F)c(c21)[H])[H])[H])([H])[H])([H])[H])[H])([H])([H])[H]

>  <h>  (82) 
<NA>

>  <Training>  (82) 
True

>  <Success>  (82) 
True

>  <enamine_searched>  (82) 
False

>  <enamine_id>  (82) 
nan

$$$$

     RDKit          3D

 57 62  0  0  0  0  0  0  0  0999 V2000
   -9.1077   -8.7421  -23.6014 C   0  0  0  0  0  0  0  0  0  0  0  0
   -8.3958   -7.5587  -23.1942 N   0  0  0  0  0  0  0  0  0  0  0  0
   -7.2082   -7.2454  -23.7821 C   0  0  0  0  0  0  0  0  0  0  0  0
   -6.7943   -7.7773  -24.7905 O   0  0  0  0  0  0  0  0  0  0  0  0
   -6.4207   -6.1082  -23.1624 C   0  0  0  0  0  0  0  0  0  0  0  0
   -6.8136   -4.8564  -23.7683 N   0  0  0  0  0  0  0  0  0  0  0  0
   -8.0351   -4.2475  -23.2917 C   0  0  0  0  0  0  0  0  0  0  0  0
   -7.8628   -2.7289  -23.1639 C   0  0  2  0  0  0  0  0  0  0  0  0
   -6.8120   -2.4165  -22.0664 C   0  0  0  0  0  0  0  0  0  0  0  0
   -5.6993   -2.8870  -21.9496 O   0  0  0  0  0  0  0  0  0  0  0  0
   -7.3345   -1.4623  -21.2212 N   0  0  0  0  0  0  0  0  0  0  0  0
   -6.5641   -0.8599  -20.1923 C   0  0  0  0  0  0  0  0  0  0  0  0
   -6.8932   -1.0565  -18.8751 C   0  0  0  0  0  0  0  0  0  0  0  0
   -6.2061   -0.5484  -17.8242 N   0  0  0  0  0  0  0  0  0  0  0  0
   -5.1695    0.2122  -18.0833 C   0  0  0  0  0  0  0  0  0  0  0  0
   -4.7314    0.5279  -19.4005 C   0  0  0  0  0  0  0  0  0  0  0  0
   -3.6054    1.3640  -19.6327 C   0  0  0  0  0  0  0  0  0  0  0  0
   -3.2212    1.6646  -20.9104 C   0  0  0  0  0  0  0  0  0  0  0  0
   -3.9498    1.1527  -22.0088 C   0  0  0  0  0  0  0  0  0  0  0  0
   -5.0429    0.3472  -21.8131 C   0  0  0  0  0  0  0  0  0  0  0  0
   -5.4506   -0.0073  -20.4950 C   0  0  0  0  0  0  0  0  0  0  0  0
   -5.5987   -0.0358  -22.6691 H   0  0  0  0  0  0  0  0  0  0  0  0
   -3.6386    1.3991  -23.0193 H   0  0  0  0  0  0  0  0  0  0  0  0
   -2.3650    2.3088  -21.0942 H   0  0  0  0  0  0  0  0  0  0  0  0
   -3.0695    1.7669  -18.7764 H   0  0  0  0  0  0  0  0  0  0  0  0
   -4.6236    0.6147  -17.2282 H   0  0  0  0  0  0  0  0  0  0  0  0
   -7.7442   -1.6801  -18.6068 H   0  0  0  0  0  0  0  0  0  0  0  0
   -8.7111   -1.1201  -21.5009 C   0  0  0  0  0  0  0  0  0  0  0  0
   -9.1230   -2.0095  -22.6636 C   0  0  0  0  0  0  0  0  0  0  0  0
  -10.4945   -2.6465  -22.5938 C   0  0  0  0  0  0  0  0  0  0  0  0
  -10.2122   -1.5632  -23.6033 C   0  0  0  0  0  0  0  0  0  0  0  0
  -10.1279   -1.8544  -24.6467 H   0  0  0  0  0  0  0  0  0  0  0  0
  -10.6392   -0.5674  -23.4891 H   0  0  0  0  0  0  0  0  0  0  0  0
  -10.6255   -3.6704  -22.9359 H   0  0  0  0  0  0  0  0  0  0  0  0
  -11.1270   -2.4271  -21.7339 H   0  0  0  0  0  0  0  0  0  0  0  0
   -9.3355   -1.3323  -20.6416 H   0  0  0  0  0  0  0  0  0  0  0  0
   -8.8186   -0.0579  -21.7429 H   0  0  0  0  0  0  0  0  0  0  0  0
   -7.3257   -2.2237  -24.4961 C   0  0  0  0  0  0  0  0  0  0  0  0
   -7.4452   -0.8710  -24.8300 C   0  0  0  0  0  0  0  0  0  0  0  0
   -6.9085   -0.3988  -26.0128 C   0  0  0  0  0  0  0  0  0  0  0  0
   -7.0844    1.2812  -26.4235 Cl  0  0  0  0  0  0  0  0  0  0  0  0
   -6.2218   -1.2347  -26.8885 C   0  0  0  0  0  0  0  0  0  0  0  0
   -6.0591   -2.5586  -26.5376 C   0  0  0  0  0  0  0  0  0  0  0  0
   -6.5845   -3.0530  -25.3457 C   0  0  0  0  0  0  0  0  0  0  0  0
   -6.2441   -4.4579  -24.9475 C   0  0  0  0  0  0  0  0  0  0  0  0
   -5.4765   -5.1577  -25.5913 O   0  0  0  0  0  0  0  0  0  0  0  0
   -5.4967   -3.2333  -27.1690 H   0  0  0  0  0  0  0  0  0  0  0  0
   -5.8126   -0.8300  -27.8084 H   0  0  0  0  0  0  0  0  0  0  0  0
   -7.9610   -0.1767  -24.1748 H   0  0  0  0  0  0  0  0  0  0  0  0
   -8.2482   -4.6557  -22.3077 H   0  0  0  0  0  0  0  0  0  0  0  0
   -8.8849   -4.4753  -23.9530 H   0  0  0  0  0  0  0  0  0  0  0  0
   -5.3775   -6.2953  -23.4127 H   0  0  0  0  0  0  0  0  0  0  0  0
   -6.5378   -6.0376  -22.0704 H   0  0  0  0  0  0  0  0  0  0  0  0
   -8.6362   -7.1419  -22.3136 H   0  0  0  0  0  0  0  0  0  0  0  0
  -10.0482   -8.8181  -23.0698 H   0  0  0  0  0  0  0  0  0  0  0  0
   -9.3033   -8.7553  -24.6777 H   0  0  0  0  0  0  0  0  0  0  0  0
   -8.5233   -9.6104  -23.3221 H   0  0  0  0  0  0  0  0  0  0  0  0
  1  2  1  0
  2  3  1  0
  3  4  2  0
  3  5  1  0
  5  6  1  0
  6  7  1  0
  8  7  1  6
  8  9  1  0
  9 10  2  0
  9 11  1  0
 11 12  1  0
 12 13  2  0
 13 14  1  0
 14 15  2  0
 15 16  1  0
 16 17  2  0
 17 18  1  0
 18 19  2  0
 19 20  1  0
 20 21  2  0
 20 22  1  0
 19 23  1  0
 18 24  1  0
 17 25  1  0
 15 26  1  0
 13 27  1  0
 11 28  1  0
 28 29  1  0
 29 30  1  0
 30 31  1  0
 31 32  1  0
 31 33  1  0
 30 34  1  0
 30 35  1  0
 28 36  1  0
 28 37  1  0
  8 38  1  0
 38 39  2  0
 39 40  1  0
 40 41  1  0
 40 42  2  0
 42 43  1  0
 43 44  2  0
 44 45  1  0
 45 46  2  0
 43 47  1  0
 42 48  1  0
 39 49  1  0
  7 50  1  0
  7 51  1  0
  5 52  1  0
  5 53  1  0
  2 54  1  0
  1 55  1  0
  1 56  1  0
  1 57  1  0
 45  6  1  0
 29  8  1  0
 44 38  1  0
 21 12  1  0
 31 29  1  0
 21 16  1  0
M  END
>  <cnnaffinities>  (83) 
[6.08228]

>  <score>  (83) 
6.08228

>  <index>  (83) 
85

>  <Smiles>  (83) 
C(N(C(=O)C(N1C([C@@]2(C(=O)N(c3c(nc(c4c(c(c(c(c34)[H])[H])[H])[H])[H])[H])C(C32C(C3([H])[H])([H])[H])([H])[H])c2c(c(Cl)c(c(c2C1=O)[H])[H])[H])([H])[H])([H])[H])[H])([H])([H])[H]

>  <h>  (83) 
<NA>

>  <Training>  (83) 
True

>  <Success>  (83) 
True

>  <enamine_searched>  (83) 
False

>  <enamine_id>  (83) 
nan

$$$$

     RDKit          3D

 43 45  0  0  0  0  0  0  0  0999 V2000
   -8.5471   -5.5638  -25.7821 C   0  0  0  0  0  0  0  0  0  0  0  0
   -9.0640   -5.4500  -24.3452 C   0  0  1  0  0  0  0  0  0  0  0  0
   -8.0272   -5.8768  -23.3089 C   0  0  0  0  0  0  0  0  0  0  0  0
   -6.9378   -4.8321  -23.0942 C   0  0  0  0  0  0  0  0  0  0  0  0
   -7.5144   -3.5414  -22.7122 N   0  0  0  0  0  0  0  0  0  0  0  0
   -6.7560   -2.7460  -21.8645 C   0  0  0  0  0  0  0  0  0  0  0  0
   -5.6215   -3.0587  -21.5491 O   0  0  0  0  0  0  0  0  0  0  0  0
   -7.4129   -1.4741  -21.2711 C   0  0  0  0  0  0  0  0  0  0  0  0
   -6.5799   -0.8296  -20.1863 C   0  0  0  0  0  0  0  0  0  0  0  0
   -6.8738   -1.0471  -18.8670 C   0  0  0  0  0  0  0  0  0  0  0  0
   -6.1852   -0.5517  -17.8040 N   0  0  0  0  0  0  0  0  0  0  0  0
   -5.1586    0.2202  -18.0669 C   0  0  0  0  0  0  0  0  0  0  0  0
   -4.7221    0.5310  -19.3814 C   0  0  0  0  0  0  0  0  0  0  0  0
   -3.5936    1.3575  -19.6213 C   0  0  0  0  0  0  0  0  0  0  0  0
   -3.1903    1.6325  -20.9002 C   0  0  0  0  0  0  0  0  0  0  0  0
   -3.9007    1.0885  -21.9930 C   0  0  0  0  0  0  0  0  0  0  0  0
   -4.9973    0.2877  -21.7861 C   0  0  0  0  0  0  0  0  0  0  0  0
   -5.4444   -0.0129  -20.4744 C   0  0  0  0  0  0  0  0  0  0  0  0
   -5.5268   -0.1293  -22.6360 H   0  0  0  0  0  0  0  0  0  0  0  0
   -3.5741    1.3099  -23.0047 H   0  0  0  0  0  0  0  0  0  0  0  0
   -2.3297    2.2703  -21.0870 H   0  0  0  0  0  0  0  0  0  0  0  0
   -3.0589    1.7730  -18.7698 H   0  0  0  0  0  0  0  0  0  0  0  0
   -4.6068    0.6268  -17.2161 H   0  0  0  0  0  0  0  0  0  0  0  0
   -7.7215   -1.6699  -18.5880 H   0  0  0  0  0  0  0  0  0  0  0  0
   -7.6221   -0.7472  -22.0686 H   0  0  0  0  0  0  0  0  0  0  0  0
   -8.3923   -1.7504  -20.8545 H   0  0  0  0  0  0  0  0  0  0  0  0
   -8.5398   -2.9963  -23.6133 C   0  0  1  0  0  0  0  0  0  0  0  0
   -7.9409   -2.2906  -24.8404 C   0  0  0  0  0  0  0  0  0  0  0  0
   -8.7281   -1.9760  -25.5348 H   0  0  0  0  0  0  0  0  0  0  0  0
   -7.2484   -2.9312  -25.3934 H   0  0  0  0  0  0  0  0  0  0  0  0
   -7.3905   -1.3888  -24.5496 H   0  0  0  0  0  0  0  0  0  0  0  0
   -9.5910   -4.0643  -23.9668 C   0  0  0  0  0  0  0  0  0  0  0  0
  -10.2124   -3.6820  -24.7837 H   0  0  0  0  0  0  0  0  0  0  0  0
  -10.2622   -4.1718  -23.1082 H   0  0  0  0  0  0  0  0  0  0  0  0
   -9.0798   -2.2362  -23.0438 H   0  0  0  0  0  0  0  0  0  0  0  0
   -6.3004   -4.7547  -23.9885 H   0  0  0  0  0  0  0  0  0  0  0  0
   -6.2739   -5.1446  -22.2908 H   0  0  0  0  0  0  0  0  0  0  0  0
   -7.5753   -6.8273  -23.6118 H   0  0  0  0  0  0  0  0  0  0  0  0
   -8.5217   -6.0614  -22.3508 H   0  0  0  0  0  0  0  0  0  0  0  0
   -9.9156   -6.1421  -24.2743 H   0  0  0  0  0  0  0  0  0  0  0  0
   -7.6004   -5.0394  -25.9388 H   0  0  0  0  0  0  0  0  0  0  0  0
   -8.3803   -6.6142  -26.0495 H   0  0  0  0  0  0  0  0  0  0  0  0
   -9.2679   -5.1523  -26.4964 H   0  0  0  0  0  0  0  0  0  0  0  0
  1  2  1  0
  2  3  1  0
  3  4  1  0
  4  5  1  0
  5  6  1  0
  6  7  2  0
  6  8  1  0
  8  9  1  0
  9 10  2  0
 10 11  1  0
 11 12  2  0
 12 13  1  0
 13 14  2  0
 14 15  1  0
 15 16  2  0
 16 17  1  0
 17 18  2  0
 17 19  1  0
 16 20  1  0
 15 21  1  0
 14 22  1  0
 12 23  1  0
 10 24  1  0
  8 25  1  0
  8 26  1  0
  5 27  1  0
 27 28  1  0
 28 29  1  0
 28 30  1  0
 28 31  1  0
 27 32  1  0
 32 33  1  0
 32 34  1  0
 27 35  1  1
  4 36  1  0
  4 37  1  0
  3 38  1  0
  3 39  1  0
  2 40  1  6
  1 41  1  0
  1 42  1  0
  1 43  1  0
 32  2  1  0
 18  9  1  0
 18 13  1  0
M  END
>  <cnnaffinities>  (84) 
[5.38801]

>  <score>  (84) 
5.38801

>  <index>  (84) 
86

>  <Smiles>  (84) 
C([C@]1(C(C(N(C(=O)C(c2c(nc(c3c(c(c(c(c23)[H])[H])[H])[H])[H])[H])([H])[H])[C@@](C([H])([H])[H])(C1([H])[H])[H])([H])[H])([H])[H])[H])([H])([H])[H]

>  <h>  (84) 
<NA>

>  <Training>  (84) 
True

>  <Success>  (84) 
True

>  <enamine_searched>  (84) 
False

>  <enamine_id>  (84) 
nan

$$$$

     RDKit          3D

 59 64  0  0  0  0  0  0  0  0999 V2000
  -10.1206   -2.6972  -22.2339 C   0  0  0  0  0  0  0  0  0  0  0  0
   -8.9418   -1.8756  -22.7789 C   0  0  1  0  0  0  0  0  0  0  0  0
   -8.5171   -0.8178  -21.7367 C   0  0  0  0  0  0  0  0  0  0  0  0
   -7.3627   -1.4198  -21.1026 N   0  0  0  0  0  0  0  0  0  0  0  0
   -6.6205   -0.7760  -20.0819 C   0  0  0  0  0  0  0  0  0  0  0  0
   -6.9867   -0.9260  -18.7712 C   0  0  0  0  0  0  0  0  0  0  0  0
   -6.2987   -0.4093  -17.7245 N   0  0  0  0  0  0  0  0  0  0  0  0
   -5.2325    0.3057  -17.9970 C   0  0  0  0  0  0  0  0  0  0  0  0
   -4.7622    0.5633  -19.3164 C   0  0  0  0  0  0  0  0  0  0  0  0
   -3.6092    1.3549  -19.5612 C   0  0  0  0  0  0  0  0  0  0  0  0
   -3.1833    1.5819  -20.8409 C   0  0  0  0  0  0  0  0  0  0  0  0
   -3.8959    1.0413  -21.9376 C   0  0  0  0  0  0  0  0  0  0  0  0
   -5.0196    0.2832  -21.7308 C   0  0  0  0  0  0  0  0  0  0  0  0
   -5.4711    0.0117  -20.4031 C   0  0  0  0  0  0  0  0  0  0  0  0
   -5.5656   -0.1209  -22.5832 H   0  0  0  0  0  0  0  0  0  0  0  0
   -3.5444    1.2299  -22.9490 H   0  0  0  0  0  0  0  0  0  0  0  0
   -2.3010    2.1882  -21.0286 H   0  0  0  0  0  0  0  0  0  0  0  0
   -3.0877    1.7825  -18.7080 H   0  0  0  0  0  0  0  0  0  0  0  0
   -4.6790    0.7180  -17.1523 H   0  0  0  0  0  0  0  0  0  0  0  0
   -7.8653   -1.5198  -18.5198 H   0  0  0  0  0  0  0  0  0  0  0  0
   -6.7393   -2.3553  -21.8904 C   0  0  0  0  0  0  0  0  0  0  0  0
   -5.6770   -2.8754  -21.6033 O   0  0  0  0  0  0  0  0  0  0  0  0
   -7.6167   -2.6495  -23.1202 C   0  0  1  0  0  0  0  0  0  0  0  0
   -7.7923   -4.1874  -23.2088 C   0  0  0  0  0  0  0  0  0  0  0  0
   -6.6065   -4.9161  -23.6832 N   0  0  0  0  0  0  0  0  0  0  0  0
   -5.7670   -5.6133  -22.7653 C   0  0  0  0  0  0  0  0  0  0  0  0
   -7.2838   -7.3248  -23.1107 C   0  0  0  0  0  0  0  0  0  0  0  0
   -7.4661   -7.5208  -22.9765 C   0  0  0  0  0  0  0  0  0  0  0  0
   -9.5753   -8.7095  -23.3766 C   0  0  0  0  0  0  0  0  0  0  0  0
   -9.0478   -8.2777  -24.4557 N   0  0  0  0  0  0  0  0  0  0  0  0
   -7.8846   -7.7088  -24.3475 N   0  0  0  0  0  0  0  0  0  0  0  0
   -7.2333   -7.0551  -25.4658 C   0  0  0  0  0  0  0  0  0  0  0  0
   -7.7446   -6.1192  -25.7541 H   0  0  0  0  0  0  0  0  0  0  0  0
   -6.2150   -6.8066  -25.1698 H   0  0  0  0  0  0  0  0  0  0  0  0
   -7.2362   -7.7222  -26.3350 H   0  0  0  0  0  0  0  0  0  0  0  0
  -10.6081   -9.1008  -23.4115 H   0  0  0  0  0  0  0  0  0  0  0  0
   -6.9197   -6.7698  -22.2014 H   0  0  0  0  0  0  0  0  0  0  0  0
   -5.3337   -5.0208  -21.9502 H   0  0  0  0  0  0  0  0  0  0  0  0
   -5.1244   -6.2963  -23.3036 H   0  0  0  0  0  0  0  0  0  0  0  0
   -5.9110   -4.3974  -24.7653 C   0  0  0  0  0  0  0  0  0  0  0  0
   -5.0453   -5.0448  -25.3401 O   0  0  0  0  0  0  0  0  0  0  0  0
   -6.2247   -3.0113  -25.2244 C   0  0  0  0  0  0  0  0  0  0  0  0
   -5.6727   -2.5974  -26.4394 C   0  0  0  0  0  0  0  0  0  0  0  0
   -5.8100   -1.2933  -26.8651 C   0  0  0  0  0  0  0  0  0  0  0  0
   -6.4936   -0.4174  -26.0314 C   0  0  0  0  0  0  0  0  0  0  0  0
   -6.6156    0.8653  -26.4190 F   0  0  0  0  0  0  0  0  0  0  0  0
   -7.0620   -0.8066  -24.8289 C   0  0  0  0  0  0  0  0  0  0  0  0
   -6.9729   -2.1458  -24.4176 C   0  0  0  0  0  0  0  0  0  0  0  0
   -7.5643   -0.0492  -24.2333 H   0  0  0  0  0  0  0  0  0  0  0  0
   -5.3730   -0.9330  -27.7905 H   0  0  0  0  0  0  0  0  0  0  0  0
   -5.1145   -3.3181  -27.0264 H   0  0  0  0  0  0  0  0  0  0  0  0
   -8.6172   -4.3981  -23.8967 H   0  0  0  0  0  0  0  0  0  0  0  0
   -8.0649   -4.5480  -22.2156 H   0  0  0  0  0  0  0  0  0  0  0  0
   -8.2599    0.1415  -22.2113 H   0  0  0  0  0  0  0  0  0  0  0  0
   -9.2914   -0.6144  -20.9930 H   0  0  0  0  0  0  0  0  0  0  0  0
   -9.3042   -1.3914  -23.6915 H   0  0  0  0  0  0  0  0  0  0  0  0
  -10.4699   -3.4439  -22.9517 H   0  0  0  0  0  0  0  0  0  0  0  0
  -10.9660   -2.0277  -22.0297 H   0  0  0  0  0  0  0  0  0  0  0  0
   -9.8766   -3.2090  -21.2969 H   0  0  0  0  0  0  0  0  0  0  0  0
  1  2  1  0
  2  3  1  0
  3  4  1  0
  4  5  1  0
  5  6  2  0
  6  7  1  0
  7  8  2  0
  8  9  1  0
  9 10  2  0
 10 11  1  0
 11 12  2  0
 12 13  1  0
 13 14  2  0
 13 15  1  0
 12 16  1  0
 11 17  1  0
 10 18  1  0
  8 19  1  0
  6 20  1  0
  4 21  1  0
 21 22  2  0
 21 23  1  0
 23 24  1  6
 24 25  1  0
 25 26  1  0
 26 27  1  0
 27 28  2  0
 28 29  1  0
 29 30  2  0
 30 31  1  0
 31 32  1  0
 32 33  1  0
 32 34  1  0
 32 35  1  0
 29 36  1  0
 28 37  1  0
 26 38  1  0
 26 39  1  0
 25 40  1  0
 40 41  2  0
 40 42  1  0
 42 43  2  0
 43 44  1  0
 44 45  2  0
 45 46  1  0
 45 47  1  0
 47 48  2  0
 47 49  1  0
 44 50  1  0
 43 51  1  0
 24 52  1  0
 24 53  1  0
  3 54  1  0
  3 55  1  0
  2 56  1  6
  1 57  1  0
  1 58  1  0
  1 59  1  0
 23  2  1  0
 31 27  1  0
 48 42  1  0
 14  5  1  0
 48 23  1  0
 14  9  1  0
M  END
>  <cnnaffinities>  (85) 
[6.61505]

>  <score>  (85) 
6.61505

>  <index>  (85) 
87

>  <Smiles>  (85) 
C([C@]1(C(N(c2c(nc(c3c(c(c(c(c23)[H])[H])[H])[H])[H])[H])C(=O)[C@]21C(N(C(c1c(c(nn1C([H])([H])[H])[H])[H])([H])[H])C(=O)c1c(c(c(F)c(c21)[H])[H])[H])([H])[H])([H])[H])[H])([H])([H])[H]

>  <h>  (85) 
<NA>

>  <Training>  (85) 
True

>  <Success>  (85) 
True

>  <enamine_searched>  (85) 
False

>  <enamine_id>  (85) 
nan

$$$$

     RDKit          3D

 40 42  0  0  0  0  0  0  0  0999 V2000
   -5.5907   -2.9751  -21.6794 O   0  0  0  0  0  0  0  0  0  0  0  0
   -6.7934   -2.7996  -21.7766 C   0  0  0  0  0  0  0  0  0  0  0  0
   -7.4236   -1.4826  -21.2560 C   0  0  0  0  0  0  0  0  0  0  0  0
   -6.5826   -0.8239  -20.1823 C   0  0  0  0  0  0  0  0  0  0  0  0
   -6.8733   -1.0420  -18.8621 C   0  0  0  0  0  0  0  0  0  0  0  0
   -6.1833   -0.5493  -17.8005 N   0  0  0  0  0  0  0  0  0  0  0  0
   -5.1576    0.2225  -18.0646 C   0  0  0  0  0  0  0  0  0  0  0  0
   -4.7210    0.5333  -19.3805 C   0  0  0  0  0  0  0  0  0  0  0  0
   -3.5917    1.3601  -19.6196 C   0  0  0  0  0  0  0  0  0  0  0  0
   -3.1888    1.6341  -20.8978 C   0  0  0  0  0  0  0  0  0  0  0  0
   -3.8990    1.0894  -21.9913 C   0  0  0  0  0  0  0  0  0  0  0  0
   -4.9961    0.2896  -21.7855 C   0  0  0  0  0  0  0  0  0  0  0  0
   -5.4443   -0.0094  -20.4733 C   0  0  0  0  0  0  0  0  0  0  0  0
   -5.5175   -0.1372  -22.6364 H   0  0  0  0  0  0  0  0  0  0  0  0
   -3.5695    1.3086  -23.0030 H   0  0  0  0  0  0  0  0  0  0  0  0
   -2.3270    2.2707  -21.0852 H   0  0  0  0  0  0  0  0  0  0  0  0
   -3.0548    1.7755  -18.7683 H   0  0  0  0  0  0  0  0  0  0  0  0
   -4.6027    0.6282  -17.2155 H   0  0  0  0  0  0  0  0  0  0  0  0
   -7.7195   -1.6693  -18.5862 H   0  0  0  0  0  0  0  0  0  0  0  0
   -8.4254   -1.6855  -20.8474 H   0  0  0  0  0  0  0  0  0  0  0  0
   -7.5645   -0.7902  -22.0964 H   0  0  0  0  0  0  0  0  0  0  0  0
   -7.6217   -3.7654  -22.3131 N   0  0  0  0  0  0  0  0  0  0  0  0
   -7.2643   -5.1760  -22.1482 C   0  0  0  0  0  0  0  0  0  0  0  0
   -7.5552   -6.0025  -23.3927 C   0  0  0  0  0  0  0  0  0  0  0  0
   -8.9998   -5.8131  -23.8415 C   0  0  0  0  0  0  0  0  0  0  0  0
   -9.3380   -6.6252  -25.0774 C   0  0  0  0  0  0  0  0  0  0  0  0
   -8.5096   -6.2790  -26.1060 F   0  0  0  0  0  0  0  0  0  0  0  0
   -9.1474   -7.9589  -24.8533 F   0  0  0  0  0  0  0  0  0  0  0  0
  -10.3710   -6.4887  -25.4265 H   0  0  0  0  0  0  0  0  0  0  0  0
   -9.2790   -4.3318  -24.0555 C   0  0  0  0  0  0  0  0  0  0  0  0
   -8.9715   -3.5174  -22.8025 C   0  0  0  0  0  0  0  0  0  0  0  0
   -9.7203   -3.7516  -22.0319 H   0  0  0  0  0  0  0  0  0  0  0  0
   -9.0772   -2.4581  -23.0364 H   0  0  0  0  0  0  0  0  0  0  0  0
   -8.6825   -3.9674  -24.8959 H   0  0  0  0  0  0  0  0  0  0  0  0
  -10.3268   -4.1838  -24.3388 H   0  0  0  0  0  0  0  0  0  0  0  0
   -9.6679   -6.1931  -23.0641 H   0  0  0  0  0  0  0  0  0  0  0  0
   -6.8795   -5.7050  -24.1983 H   0  0  0  0  0  0  0  0  0  0  0  0
   -7.3566   -7.0618  -23.1956 H   0  0  0  0  0  0  0  0  0  0  0  0
   -6.2078   -5.2333  -21.8912 H   0  0  0  0  0  0  0  0  0  0  0  0
   -7.8184   -5.6140  -21.3059 H   0  0  0  0  0  0  0  0  0  0  0  0
  1  2  2  0
  2  3  1  0
  3  4  1  0
  4  5  2  0
  5  6  1  0
  6  7  2  0
  7  8  1  0
  8  9  2  0
  9 10  1  0
 10 11  2  0
 11 12  1  0
 12 13  2  0
 12 14  1  0
 11 15  1  0
 10 16  1  0
  9 17  1  0
  7 18  1  0
  5 19  1  0
  3 20  1  0
  3 21  1  0
  2 22  1  0
 22 23  1  0
 23 24  1  0
 24 25  1  0
 25 26  1  0
 26 27  1  0
 26 28  1  0
 26 29  1  0
 25 30  1  0
 30 31  1  0
 31 32  1  0
 31 33  1  0
 30 34  1  0
 30 35  1  0
 25 36  1  0
 24 37  1  0
 24 38  1  0
 23 39  1  0
 23 40  1  0
 13  4  1  0
 31 22  1  0
 13  8  1  0
M  END
>  <cnnaffinities>  (86) 
[5.40331, 5.33158, 5.3561, 5.35608, 5.35548]

>  <score>  (86) 
5.40331

>  <index>  (86) 
88

>  <Smiles>  (86) 
O=C(C(c1c(nc(c2c(c(c(c(c12)[H])[H])[H])[H])[H])[H])([H])[H])N1C(C(C(C(F)(F)[H])(C(C1([H])[H])([H])[H])[H])([H])[H])([H])[H]

>  <h>  (86) 
<NA>

>  <Training>  (86) 
True

>  <Success>  (86) 
True

>  <enamine_searched>  (86) 
False

>  <enamine_id>  (86) 
nan

$$$$

     RDKit          3D

 43 45  0  0  0  0  0  0  0  0999 V2000
   -9.7538   -4.1864  -25.8456 C   0  0  0  0  0  0  0  0  0  0  0  0
   -8.2272   -4.2037  -25.7062 C   0  0  0  0  0  0  0  0  0  0  0  0
   -7.6340   -4.8422  -26.9676 C   0  0  0  0  0  0  0  0  0  0  0  0
   -8.0336   -5.8504  -27.1256 H   0  0  0  0  0  0  0  0  0  0  0  0
   -7.8641   -4.2552  -27.8636 H   0  0  0  0  0  0  0  0  0  0  0  0
   -6.5443   -4.9312  -26.9021 H   0  0  0  0  0  0  0  0  0  0  0  0
   -7.6876   -2.7680  -25.5708 C   0  0  0  0  0  0  0  0  0  0  0  0
   -7.7329   -2.2025  -24.1508 C   0  0  0  0  0  0  0  0  0  0  0  0
   -7.0456   -3.0688  -23.1994 N   0  0  0  0  0  0  0  0  0  0  0  0
   -6.6939   -2.6853  -21.9283 C   0  0  0  0  0  0  0  0  0  0  0  0
   -5.8715   -3.3163  -21.2794 O   0  0  0  0  0  0  0  0  0  0  0  0
   -7.3943   -1.4609  -21.2877 C   0  0  0  0  0  0  0  0  0  0  0  0
   -6.5764   -0.8279  -20.1839 C   0  0  0  0  0  0  0  0  0  0  0  0
   -6.8717   -1.0472  -18.8646 C   0  0  0  0  0  0  0  0  0  0  0  0
   -6.1843   -0.5490  -17.7993 N   0  0  0  0  0  0  0  0  0  0  0  0
   -5.1591    0.2217  -18.0637 C   0  0  0  0  0  0  0  0  0  0  0  0
   -4.7210    0.5342  -19.3784 C   0  0  0  0  0  0  0  0  0  0  0  0
   -3.5932    1.3599  -19.6223 C   0  0  0  0  0  0  0  0  0  0  0  0
   -3.1930    1.6374  -20.8997 C   0  0  0  0  0  0  0  0  0  0  0  0
   -3.9077    1.0955  -21.9937 C   0  0  0  0  0  0  0  0  0  0  0  0
   -5.0022    0.2970  -21.7851 C   0  0  0  0  0  0  0  0  0  0  0  0
   -5.4455   -0.0070  -20.4726 C   0  0  0  0  0  0  0  0  0  0  0  0
   -5.5369   -0.1093  -22.6402 H   0  0  0  0  0  0  0  0  0  0  0  0
   -3.5841    1.3204  -23.0052 H   0  0  0  0  0  0  0  0  0  0  0  0
   -2.3328    2.2747  -21.0895 H   0  0  0  0  0  0  0  0  0  0  0  0
   -3.0545    1.7744  -18.7714 H   0  0  0  0  0  0  0  0  0  0  0  0
   -4.6029    0.6284  -17.2145 H   0  0  0  0  0  0  0  0  0  0  0  0
   -7.7211   -1.6710  -18.5892 H   0  0  0  0  0  0  0  0  0  0  0  0
   -8.3331   -1.8263  -20.8471 H   0  0  0  0  0  0  0  0  0  0  0  0
   -7.6872   -0.7021  -22.0237 H   0  0  0  0  0  0  0  0  0  0  0  0
   -6.6850   -4.4080  -23.6633 C   0  0  0  0  0  0  0  0  0  0  0  0
   -7.8330   -5.0231  -24.4570 C   0  0  0  0  0  0  0  0  0  0  0  0
   -7.5789   -6.0465  -24.7499 H   0  0  0  0  0  0  0  0  0  0  0  0
   -8.6880   -5.1209  -23.7801 H   0  0  0  0  0  0  0  0  0  0  0  0
   -6.4512   -5.0175  -22.7933 H   0  0  0  0  0  0  0  0  0  0  0  0
   -5.7713   -4.3815  -24.2696 H   0  0  0  0  0  0  0  0  0  0  0  0
   -8.7721   -2.0375  -23.8458 H   0  0  0  0  0  0  0  0  0  0  0  0
   -7.2553   -1.2163  -24.1663 H   0  0  0  0  0  0  0  0  0  0  0  0
   -8.2547   -2.1090  -26.2344 H   0  0  0  0  0  0  0  0  0  0  0  0
   -6.6579   -2.7140  -25.9419 H   0  0  0  0  0  0  0  0  0  0  0  0
  -10.2338   -3.6982  -24.9917 H   0  0  0  0  0  0  0  0  0  0  0  0
  -10.1573   -5.2026  -25.9151 H   0  0  0  0  0  0  0  0  0  0  0  0
  -10.0657   -3.6495  -26.7480 H   0  0  0  0  0  0  0  0  0  0  0  0
  1  2  1  0
  2  3  1  0
  3  4  1  0
  3  5  1  0
  3  6  1  0
  2  7  1  0
  7  8  1  0
  8  9  1  0
  9 10  1  0
 10 11  2  0
 10 12  1  0
 12 13  1  0
 13 14  2  0
 14 15  1  0
 15 16  2  0
 16 17  1  0
 17 18  2  0
 18 19  1  0
 19 20  2  0
 20 21  1  0
 21 22  2  0
 21 23  1  0
 20 24  1  0
 19 25  1  0
 18 26  1  0
 16 27  1  0
 14 28  1  0
 12 29  1  0
 12 30  1  0
  9 31  1  0
 31 32  1  0
 32 33  1  0
 32 34  1  0
 31 35  1  0
 31 36  1  0
  8 37  1  0
  8 38  1  0
  7 39  1  0
  7 40  1  0
  1 41  1  0
  1 42  1  0
  1 43  1  0
 32  2  1  0
 22 13  1  0
 22 17  1  0
M  END
>  <cnnaffinities>  (87) 
[5.27805, 5.16129, 5.1443, 5.14429, 5.14429, 5.19898, 5.19896, 5.19893, 5.1094, 5.10939, 5.1094, 5.1094]

>  <score>  (87) 
5.27805

>  <index>  (87) 
89

>  <Smiles>  (87) 
C(C1(C([H])([H])[H])C(C(N(C(=O)C(c2c(nc(c3c(c(c(c(c23)[H])[H])[H])[H])[H])[H])([H])[H])C(C1([H])[H])([H])[H])([H])[H])([H])[H])([H])([H])[H]

>  <h>  (87) 
<NA>

>  <Training>  (87) 
True

>  <Success>  (87) 
True

>  <enamine_searched>  (87) 
False

>  <enamine_id>  (87) 
nan

$$$$

     RDKit          3D

 64 68  0  0  0  0  0  0  0  0999 V2000
   -5.6037    0.2385  -29.3897 C   0  0  0  0  0  0  0  0  0  0  0  0
   -5.5855    0.5380  -27.9758 N   0  0  0  0  0  0  0  0  0  0  0  0
   -4.9196   -0.2462  -27.0897 C   0  0  0  0  0  0  0  0  0  0  0  0
   -4.1920   -1.1682  -27.4159 O   0  0  0  0  0  0  0  0  0  0  0  0
   -5.1351    0.1214  -25.6060 C   0  0  0  0  0  0  0  0  0  0  0  0
   -6.3273   -0.4496  -24.9899 N   0  0  0  0  0  0  0  0  0  0  0  0
   -6.2349   -1.7349  -24.3001 C   0  0  0  0  0  0  0  0  0  0  0  0
   -7.3632   -1.9414  -23.2424 C   0  0  2  0  0  0  0  0  0  0  0  0
   -7.0772   -1.0712  -22.0115 C   0  0  0  0  0  0  0  0  0  0  0  0
   -7.4641    0.0584  -21.7970 O   0  0  0  0  0  0  0  0  0  0  0  0
   -6.2909   -1.8072  -21.1491 N   0  0  0  0  0  0  0  0  0  0  0  0
   -5.7772   -1.1599  -20.0045 C   0  0  0  0  0  0  0  0  0  0  0  0
   -6.2571   -1.4463  -18.7512 C   0  0  0  0  0  0  0  0  0  0  0  0
   -5.8773   -0.7991  -17.6219 N   0  0  0  0  0  0  0  0  0  0  0  0
   -4.9719    0.1441  -17.7377 C   0  0  0  0  0  0  0  0  0  0  0  0
   -4.3672    0.5154  -18.9713 C   0  0  0  0  0  0  0  0  0  0  0  0
   -3.3626    1.5159  -19.0390 C   0  0  0  0  0  0  0  0  0  0  0  0
   -2.8781    1.9335  -20.2472 C   0  0  0  0  0  0  0  0  0  0  0  0
   -3.3587    1.3495  -21.4410 C   0  0  0  0  0  0  0  0  0  0  0  0
   -4.2838    0.3414  -21.3964 C   0  0  0  0  0  0  0  0  0  0  0  0
   -4.8063   -0.1170  -20.1524 C   0  0  0  0  0  0  0  0  0  0  0  0
   -4.6361   -0.1105  -22.3177 H   0  0  0  0  0  0  0  0  0  0  0  0
   -3.0110    1.7091  -22.4045 H   0  0  0  0  0  0  0  0  0  0  0  0
   -2.1365    2.7237  -20.3035 H   0  0  0  0  0  0  0  0  0  0  0  0
   -3.0067    1.9589  -18.1144 H   0  0  0  0  0  0  0  0  0  0  0  0
   -4.6919    0.6822  -16.8299 H   0  0  0  0  0  0  0  0  0  0  0  0
   -7.0265   -2.2092  -18.6248 H   0  0  0  0  0  0  0  0  0  0  0  0
   -6.1325   -3.1996  -21.5649 C   0  0  0  0  0  0  0  0  0  0  0  0
   -7.2792   -3.3564  -22.5837 C   0  0  2  0  0  0  0  0  0  0  0  0
   -7.1619   -4.5111  -23.5797 C   0  0  0  0  0  0  0  0  0  0  0  0
   -7.3277   -6.1571  -22.8829 S   0  0  0  0  0  0  0  0  0  0  0  0
   -7.6137   -7.0661  -23.9820 O   0  0  0  0  0  0  0  0  0  0  0  0
   -8.2051   -6.1074  -21.7227 O   0  0  0  0  0  0  0  0  0  0  0  0
   -5.7594   -6.4541  -22.3250 N   0  0  0  0  0  0  0  0  0  0  0  0
   -5.6804   -7.5407  -21.3347 C   0  0  0  0  0  0  0  0  0  0  0  0
   -5.8357   -8.5334  -21.7769 H   0  0  0  0  0  0  0  0  0  0  0  0
   -4.6915   -7.5051  -20.8739 H   0  0  0  0  0  0  0  0  0  0  0  0
   -6.4340   -7.3577  -20.5696 H   0  0  0  0  0  0  0  0  0  0  0  0
   -5.1836   -6.6735  -23.1371 H   0  0  0  0  0  0  0  0  0  0  0  0
   -6.1943   -4.5138  -24.0928 H   0  0  0  0  0  0  0  0  0  0  0  0
   -7.9445   -4.4524  -24.3453 H   0  0  0  0  0  0  0  0  0  0  0  0
   -8.2001   -3.4980  -22.0124 H   0  0  0  0  0  0  0  0  0  0  0  0
   -6.1947   -3.8831  -20.7161 H   0  0  0  0  0  0  0  0  0  0  0  0
   -5.1665   -3.3636  -22.0650 H   0  0  0  0  0  0  0  0  0  0  0  0
   -8.6845   -1.5534  -23.8449 C   0  0  0  0  0  0  0  0  0  0  0  0
   -9.8994   -1.9172  -23.2580 C   0  0  0  0  0  0  0  0  0  0  0  0
  -11.0814   -1.5966  -23.9002 C   0  0  0  0  0  0  0  0  0  0  0  0
  -12.2317   -1.9824  -23.3265 F   0  0  0  0  0  0  0  0  0  0  0  0
  -11.1129   -0.9077  -25.1097 C   0  0  0  0  0  0  0  0  0  0  0  0
   -9.9211   -0.4255  -25.5982 C   0  0  0  0  0  0  0  0  0  0  0  0
   -8.7273   -0.6921  -24.9459 C   0  0  0  0  0  0  0  0  0  0  0  0
   -7.5203    0.0400  -25.4091 C   0  0  0  0  0  0  0  0  0  0  0  0
   -7.6016    1.0397  -26.1308 O   0  0  0  0  0  0  0  0  0  0  0  0
   -9.8797    0.1822  -26.4870 H   0  0  0  0  0  0  0  0  0  0  0  0
  -12.0359   -0.6862  -25.6272 H   0  0  0  0  0  0  0  0  0  0  0  0
   -9.9424   -2.3802  -22.2782 H   0  0  0  0  0  0  0  0  0  0  0  0
   -5.2649   -1.7904  -23.7923 H   0  0  0  0  0  0  0  0  0  0  0  0
   -6.2755   -2.5359  -25.0488 H   0  0  0  0  0  0  0  0  0  0  0  0
   -5.2165    1.2060  -25.4919 H   0  0  0  0  0  0  0  0  0  0  0  0
   -4.2640   -0.2584  -25.0736 H   0  0  0  0  0  0  0  0  0  0  0  0
   -6.3534    1.0789  -27.5997 H   0  0  0  0  0  0  0  0  0  0  0  0
   -4.5925    0.0710  -29.7678 H   0  0  0  0  0  0  0  0  0  0  0  0
   -6.1928   -0.6559  -29.6235 H   0  0  0  0  0  0  0  0  0  0  0  0
   -6.0401    1.1030  -29.8952 H   0  0  0  0  0  0  0  0  0  0  0  0
  1  2  1  0
  2  3  1  0
  3  4  2  0
  3  5  1  0
  5  6  1  0
  6  7  1  0
  8  7  1  6
  8  9  1  0
  9 10  2  0
  9 11  1  0
 11 12  1  0
 12 13  2  0
 13 14  1  0
 14 15  2  0
 15 16  1  0
 16 17  2  0
 17 18  1  0
 18 19  2  0
 19 20  1  0
 20 21  2  0
 20 22  1  0
 19 23  1  0
 18 24  1  0
 17 25  1  0
 15 26  1  0
 13 27  1  0
 11 28  1  0
 28 29  1  0
 29 30  1  0
 30 31  1  0
 31 32  2  0
 31 33  2  0
 31 34  1  0
 34 35  1  0
 35 36  1  0
 35 37  1  0
 35 38  1  0
 34 39  1  0
 30 40  1  0
 30 41  1  0
 29 42  1  1
 28 43  1  0
 28 44  1  0
  8 45  1  0
 45 46  2  0
 46 47  1  0
 47 48  1  0
 47 49  2  0
 49 50  1  0
 50 51  2  0
 51 52  1  0
 52 53  2  0
 50 54  1  0
 49 55  1  0
 46 56  1  0
  7 57  1  0
  7 58  1  0
  5 59  1  0
  5 60  1  0
  2 61  1  0
  1 62  1  0
  1 63  1  0
  1 64  1  0
 52  6  1  0
 29  8  1  0
 51 45  1  0
 21 12  1  0
 21 16  1  0
M  END
>  <cnnaffinities>  (88) 
[6.05317]

>  <score>  (88) 
6.05317

>  <index>  (88) 
90

>  <Smiles>  (88) 
C(N(C(=O)C(N1C([C@@]2(C(=O)N(c3c(nc(c4c(c(c(c(c34)[H])[H])[H])[H])[H])[H])C([C@@]2(C(S(=O)(=O)N(C([H])([H])[H])[H])([H])[H])[H])([H])[H])c2c(c(F)c(c(c2C1=O)[H])[H])[H])([H])[H])([H])[H])[H])([H])([H])[H]

>  <h>  (88) 
<NA>

>  <Training>  (88) 
True

>  <Success>  (88) 
True

>  <enamine_searched>  (88) 
False

>  <enamine_id>  (88) 
nan

$$$$

     RDKit          3D

 66 71  0  0  0  0  0  0  0  0999 V2000
   -5.8613   -0.1719  -29.5539 C   0  0  0  0  0  0  0  0  0  0  0  0
   -5.7642    0.2557  -28.1777 N   0  0  0  0  0  0  0  0  0  0  0  0
   -5.1380   -0.5003  -27.2371 C   0  0  0  0  0  0  0  0  0  0  0  0
   -4.4313   -1.4623  -27.4931 O   0  0  0  0  0  0  0  0  0  0  0  0
   -5.3582   -0.0113  -25.7915 C   0  0  0  0  0  0  0  0  0  0  0  0
   -6.5469   -0.5615  -25.1501 N   0  0  0  0  0  0  0  0  0  0  0  0
   -6.4555   -1.8029  -24.3850 C   0  0  0  0  0  0  0  0  0  0  0  0
   -7.5433   -1.9050  -23.2655 C   0  0  2  0  0  0  0  0  0  0  0  0
   -7.1970   -1.0449  -22.0311 C   0  0  0  0  0  0  0  0  0  0  0  0
   -7.5872    0.0677  -21.7652 O   0  0  0  0  0  0  0  0  0  0  0  0
   -6.3846   -1.8028  -21.2055 N   0  0  0  0  0  0  0  0  0  0  0  0
   -5.8258   -1.2048  -20.0548 C   0  0  0  0  0  0  0  0  0  0  0  0
   -6.2569   -1.5340  -18.7961 C   0  0  0  0  0  0  0  0  0  0  0  0
   -5.8386   -0.9240  -17.6607 N   0  0  0  0  0  0  0  0  0  0  0  0
   -4.9575    0.0424  -17.7739 C   0  0  0  0  0  0  0  0  0  0  0  0
   -4.3995    0.4651  -19.0133 C   0  0  0  0  0  0  0  0  0  0  0  0
   -3.4222    1.4966  -19.0997 C   0  0  0  0  0  0  0  0  0  0  0  0
   -2.9281    1.8828  -20.3170 C   0  0  0  0  0  0  0  0  0  0  0  0
   -3.3633    1.2429  -21.4997 C   0  0  0  0  0  0  0  0  0  0  0  0
   -4.2840    0.2308  -21.4363 C   0  0  0  0  0  0  0  0  0  0  0  0
   -4.8444   -0.1713  -20.1914 C   0  0  0  0  0  0  0  0  0  0  0  0
   -4.6043   -0.2777  -22.3394 H   0  0  0  0  0  0  0  0  0  0  0  0
   -2.9671    1.5578  -22.4608 H   0  0  0  0  0  0  0  0  0  0  0  0
   -2.1958    2.6828  -20.3891 H   0  0  0  0  0  0  0  0  0  0  0  0
   -3.0797    1.9753  -18.1856 H   0  0  0  0  0  0  0  0  0  0  0  0
   -4.6415    0.5411  -16.8560 H   0  0  0  0  0  0  0  0  0  0  0  0
   -7.0067   -2.3134  -18.6634 H   0  0  0  0  0  0  0  0  0  0  0  0
   -6.3530   -3.2086  -21.5879 C   0  0  0  0  0  0  0  0  0  0  0  0
   -7.5349   -3.2840  -22.5635 C   0  0  2  0  0  0  0  0  0  0  0  0
   -7.6290   -4.5188  -23.4651 C   0  0  0  0  0  0  0  0  0  0  0  0
   -7.7892   -5.7648  -22.7279 N   0  0  0  0  0  0  0  0  0  0  0  0
   -6.6682   -6.4423  -22.2756 C   0  0  0  0  0  0  0  0  0  0  0  0
   -5.5186   -6.6195  -23.0787 C   0  0  0  0  0  0  0  0  0  0  0  0
   -4.4694   -7.3060  -22.6560 N   0  0  0  0  0  0  0  0  0  0  0  0
   -4.5347   -7.8264  -21.4267 C   0  0  0  0  0  0  0  0  0  0  0  0
   -5.6560   -7.6545  -20.6357 C   0  0  0  0  0  0  0  0  0  0  0  0
   -6.7229   -6.9701  -21.0569 N   0  0  0  0  0  0  0  0  0  0  0  0
   -5.7319   -8.0882  -19.6367 H   0  0  0  0  0  0  0  0  0  0  0  0
   -3.6726   -8.3920  -21.0773 H   0  0  0  0  0  0  0  0  0  0  0  0
   -5.4611   -6.2170  -24.0891 H   0  0  0  0  0  0  0  0  0  0  0  0
   -8.5098   -5.7515  -22.0158 H   0  0  0  0  0  0  0  0  0  0  0  0
   -8.4767   -4.4021  -24.1527 H   0  0  0  0  0  0  0  0  0  0  0  0
   -6.7341   -4.6189  -24.0810 H   0  0  0  0  0  0  0  0  0  0  0  0
   -8.4427   -3.2730  -21.9556 H   0  0  0  0  0  0  0  0  0  0  0  0
   -5.4182   -3.4784  -22.0991 H   0  0  0  0  0  0  0  0  0  0  0  0
   -6.4562   -3.8613  -20.7183 H   0  0  0  0  0  0  0  0  0  0  0  0
   -8.8794   -1.5063  -23.8247 C   0  0  0  0  0  0  0  0  0  0  0  0
  -10.0786   -1.7941  -23.1611 C   0  0  0  0  0  0  0  0  0  0  0  0
  -11.2951   -1.4959  -23.7422 C   0  0  0  0  0  0  0  0  0  0  0  0
  -12.7295   -1.9665  -22.8730 Cl  0  0  0  0  0  0  0  0  0  0  0  0
  -11.3481   -0.8563  -24.9795 C   0  0  0  0  0  0  0  0  0  0  0  0
  -10.1703   -0.4845  -25.5747 C   0  0  0  0  0  0  0  0  0  0  0  0
   -8.9458   -0.7480  -24.9902 C   0  0  0  0  0  0  0  0  0  0  0  0
   -7.7491   -0.1040  -25.5916 C   0  0  0  0  0  0  0  0  0  0  0  0
   -7.8437    0.7930  -26.4344 O   0  0  0  0  0  0  0  0  0  0  0  0
  -10.1816    0.0290  -26.5160 H   0  0  0  0  0  0  0  0  0  0  0  0
  -12.2519   -0.5605  -25.4868 H   0  0  0  0  0  0  0  0  0  0  0  0
  -10.0645   -2.2228  -22.1668 H   0  0  0  0  0  0  0  0  0  0  0  0
   -5.4521   -1.8574  -23.9508 H   0  0  0  0  0  0  0  0  0  0  0  0
   -6.5536   -2.6592  -25.0692 H   0  0  0  0  0  0  0  0  0  0  0  0
   -4.4780   -0.2879  -25.2083 H   0  0  0  0  0  0  0  0  0  0  0  0
   -5.4603    1.0759  -25.7724 H   0  0  0  0  0  0  0  0  0  0  0  0
   -6.5126    0.8405  -27.8305 H   0  0  0  0  0  0  0  0  0  0  0  0
   -6.5318   -1.0291  -29.6896 H   0  0  0  0  0  0  0  0  0  0  0  0
   -6.2356    0.6716  -30.1365 H   0  0  0  0  0  0  0  0  0  0  0  0
   -4.8787   -0.4435  -29.9386 H   0  0  0  0  0  0  0  0  0  0  0  0
  1  2  1  0
  2  3  1  0
  3  4  2  0
  3  5  1  0
  5  6  1  0
  6  7  1  0
  8  7  1  6
  8  9  1  0
  9 10  2  0
  9 11  1  0
 11 12  1  0
 12 13  2  0
 13 14  1  0
 14 15  2  0
 15 16  1  0
 16 17  2  0
 17 18  1  0
 18 19  2  0
 19 20  1  0
 20 21  2  0
 20 22  1  0
 19 23  1  0
 18 24  1  0
 17 25  1  0
 15 26  1  0
 13 27  1  0
 11 28  1  0
 28 29  1  0
 29 30  1  0
 30 31  1  0
 31 32  1  0
 32 33  2  0
 33 34  1  0
 34 35  2  0
 35 36  1  0
 36 37  2  0
 36 38  1  0
 35 39  1  0
 33 40  1  0
 31 41  1  0
 30 42  1  0
 30 43  1  0
 29 44  1  1
 28 45  1  0
 28 46  1  0
  8 47  1  0
 47 48  2  0
 48 49  1  0
 49 50  1  0
 49 51  2  0
 51 52  1  0
 52 53  2  0
 53 54  1  0
 54 55  2  0
 52 56  1  0
 51 57  1  0
 48 58  1  0
  7 59  1  0
  7 60  1  0
  5 61  1  0
  5 62  1  0
  2 63  1  0
  1 64  1  0
  1 65  1  0
  1 66  1  0
 54  6  1  0
 29  8  1  0
 37 32  1  0
 53 47  1  0
 21 12  1  0
 21 16  1  0
M  END
>  <cnnaffinities>  (89) 
[6.23915, 6.73907]

>  <score>  (89) 
6.23915

>  <index>  (89) 
91

>  <Smiles>  (89) 
C(N(C(=O)C(N1C([C@@]2(C(=O)N(c3c(nc(c4c(c(c(c(c34)[H])[H])[H])[H])[H])[H])C([C@@]2(C(N(c2c(nc(c(n2)[H])[H])[H])[H])([H])[H])[H])([H])[H])c2c(c(Cl)c(c(c2C1=O)[H])[H])[H])([H])[H])([H])[H])[H])([H])([H])[H]

>  <h>  (89) 
<NA>

>  <Training>  (89) 
True

>  <Success>  (89) 
True

>  <enamine_searched>  (89) 
False

>  <enamine_id>  (89) 
nan

$$$$

     RDKit          3D

 60 65  0  0  0  0  0  0  0  0999 V2000
  -11.6565   -4.3968  -23.0059 C   0  0  0  0  0  0  0  0  0  0  0  0
  -10.9041   -3.2690  -23.3384 O   0  0  0  0  0  0  0  0  0  0  0  0
  -10.2466   -2.7572  -22.2108 C   0  0  0  0  0  0  0  0  0  0  0  0
   -9.1001   -1.8790  -22.6825 C   0  0  1  0  0  0  0  0  0  0  0  0
   -8.6482   -0.9570  -21.5436 C   0  0  0  0  0  0  0  0  0  0  0  0
   -7.3374   -1.4301  -21.1962 N   0  0  0  0  0  0  0  0  0  0  0  0
   -6.5616   -0.8427  -20.1828 C   0  0  0  0  0  0  0  0  0  0  0  0
   -6.9049   -1.0522  -18.8754 C   0  0  0  0  0  0  0  0  0  0  0  0
   -6.2203   -0.5582  -17.8199 N   0  0  0  0  0  0  0  0  0  0  0  0
   -5.1820    0.1991  -18.0873 C   0  0  0  0  0  0  0  0  0  0  0  0
   -4.7403    0.5123  -19.4059 C   0  0  0  0  0  0  0  0  0  0  0  0
   -3.6196    1.3505  -19.6319 C   0  0  0  0  0  0  0  0  0  0  0  0
   -3.2292    1.6566  -20.9049 C   0  0  0  0  0  0  0  0  0  0  0  0
   -3.9430    1.1481  -22.0148 C   0  0  0  0  0  0  0  0  0  0  0  0
   -5.0348    0.3371  -21.8313 C   0  0  0  0  0  0  0  0  0  0  0  0
   -5.4469   -0.0146  -20.5075 C   0  0  0  0  0  0  0  0  0  0  0  0
   -5.5855   -0.0282  -22.7015 H   0  0  0  0  0  0  0  0  0  0  0  0
   -3.6232    1.4124  -23.0192 H   0  0  0  0  0  0  0  0  0  0  0  0
   -2.3756    2.3058  -21.0765 H   0  0  0  0  0  0  0  0  0  0  0  0
   -3.0963    1.7516  -18.7691 H   0  0  0  0  0  0  0  0  0  0  0  0
   -4.6324    0.6158  -17.2421 H   0  0  0  0  0  0  0  0  0  0  0  0
   -7.7636   -1.6825  -18.6455 H   0  0  0  0  0  0  0  0  0  0  0  0
   -6.8264   -2.4000  -22.0164 C   0  0  0  0  0  0  0  0  0  0  0  0
   -5.7656   -2.9569  -21.8309 O   0  0  0  0  0  0  0  0  0  0  0  0
   -7.8188   -2.6223  -23.1729 C   0  0  1  0  0  0  0  0  0  0  0  0
   -7.9520   -4.1371  -23.3888 C   0  0  0  0  0  0  0  0  0  0  0  0
   -6.7035   -4.6662  -23.9093 N   0  0  0  0  0  0  0  0  0  0  0  0
   -6.3029   -5.9881  -23.4663 C   0  0  0  0  0  0  0  0  0  0  0  0
   -7.1886   -7.0556  -24.0625 C   0  0  0  0  0  0  0  0  0  0  0  0
   -8.4397   -7.5206  -23.5974 C   0  0  0  0  0  0  0  0  0  0  0  0
   -9.0632   -8.2735  -24.4963 N   0  0  0  0  0  0  0  0  0  0  0  0
   -8.2303   -8.2766  -25.5515 N   0  0  0  0  0  0  0  0  0  0  0  0
   -7.0906   -7.5831  -25.3280 C   0  0  0  0  0  0  0  0  0  0  0  0
   -6.2929   -7.5395  -26.0558 H   0  0  0  0  0  0  0  0  0  0  0  0
   -8.4409   -8.8378  -26.3674 H   0  0  0  0  0  0  0  0  0  0  0  0
   -8.9109   -7.2878  -22.6479 H   0  0  0  0  0  0  0  0  0  0  0  0
   -6.3396   -5.9733  -22.3690 H   0  0  0  0  0  0  0  0  0  0  0  0
   -5.2596   -6.1238  -23.7633 H   0  0  0  0  0  0  0  0  0  0  0  0
   -6.1938   -4.1927  -25.0830 C   0  0  0  0  0  0  0  0  0  0  0  0
   -5.4711   -4.8619  -25.8148 O   0  0  0  0  0  0  0  0  0  0  0  0
   -6.5499   -2.7769  -25.3792 C   0  0  0  0  0  0  0  0  0  0  0  0
   -6.0775   -2.2207  -26.5652 C   0  0  0  0  0  0  0  0  0  0  0  0
   -6.2860   -0.8875  -26.8503 C   0  0  0  0  0  0  0  0  0  0  0  0
   -6.9765   -0.1201  -25.9145 C   0  0  0  0  0  0  0  0  0  0  0  0
   -7.2341    1.5703  -26.2197 Cl  0  0  0  0  0  0  0  0  0  0  0  0
   -7.4728   -0.6625  -24.7429 C   0  0  0  0  0  0  0  0  0  0  0  0
   -7.2872   -2.0200  -24.4661 C   0  0  0  0  0  0  0  0  0  0  0  0
   -8.0206   -0.0230  -24.0573 H   0  0  0  0  0  0  0  0  0  0  0  0
   -5.9059   -0.4321  -27.7590 H   0  0  0  0  0  0  0  0  0  0  0  0
   -5.5303   -2.8657  -27.2403 H   0  0  0  0  0  0  0  0  0  0  0  0
   -8.7879   -4.3594  -24.0636 H   0  0  0  0  0  0  0  0  0  0  0  0
   -8.1586   -4.6415  -22.4467 H   0  0  0  0  0  0  0  0  0  0  0  0
   -8.6363    0.1065  -21.8185 H   0  0  0  0  0  0  0  0  0  0  0  0
   -9.3070   -1.0429  -20.6851 H   0  0  0  0  0  0  0  0  0  0  0  0
   -9.5198   -1.3126  -23.5147 H   0  0  0  0  0  0  0  0  0  0  0  0
  -10.9585   -2.1707  -21.6085 H   0  0  0  0  0  0  0  0  0  0  0  0
   -9.8767   -3.5729  -21.5700 H   0  0  0  0  0  0  0  0  0  0  0  0
  -11.0065   -5.2191  -22.6665 H   0  0  0  0  0  0  0  0  0  0  0  0
  -12.3778   -4.1705  -22.2073 H   0  0  0  0  0  0  0  0  0  0  0  0
  -12.1909   -4.7179  -23.8976 H   0  0  0  0  0  0  0  0  0  0  0  0
  1  2  1  0
  2  3  1  0
  3  4  1  0
  4  5  1  0
  5  6  1  0
  6  7  1  0
  7  8  2  0
  8  9  1  0
  9 10  2  0
 10 11  1  0
 11 12  2  0
 12 13  1  0
 13 14  2  0
 14 15  1  0
 15 16  2  0
 15 17  1  0
 14 18  1  0
 13 19  1  0
 12 20  1  0
 10 21  1  0
  8 22  1  0
  6 23  1  0
 23 24  2  0
 23 25  1  0
 25 26  1  6
 26 27  1  0
 27 28  1  0
 28 29  1  0
 29 30  1  0
 30 31  2  0
 31 32  1  0
 32 33  1  0
 33 34  1  0
 32 35  1  0
 30 36  1  0
 28 37  1  0
 28 38  1  0
 27 39  1  0
 39 40  2  0
 39 41  1  0
 41 42  2  0
 42 43  1  0
 43 44  2  0
 44 45  1  0
 44 46  1  0
 46 47  2  0
 46 48  1  0
 43 49  1  0
 42 50  1  0
 26 51  1  0
 26 52  1  0
  5 53  1  0
  5 54  1  0
  4 55  1  6
  3 56  1  0
  3 57  1  0
  1 58  1  0
  1 59  1  0
  1 60  1  0
 25  4  1  0
 33 29  2  0
 47 41  1  0
 16  7  1  0
 47 25  1  0
 16 11  1  0
M  END
>  <cnnaffinities>  (90) 
[6.30016, 6.64649, 6.53907]

>  <score>  (90) 
6.30016

>  <index>  (90) 
92

>  <Smiles>  (90) 
C(OC([C@]1(C(N(c2c(nc(c3c(c(c(c(c23)[H])[H])[H])[H])[H])[H])C(=O)[C@]21C(N(C(c1c(nn(c1[H])[H])[H])([H])[H])C(=O)c1c(c(c(Cl)c(c21)[H])[H])[H])([H])[H])([H])[H])[H])([H])[H])([H])([H])[H]

>  <h>  (90) 
<NA>

>  <Training>  (90) 
True

>  <Success>  (90) 
True

>  <enamine_searched>  (90) 
False

>  <enamine_id>  (90) 
nan

$$$$

     RDKit          3D

 62 67  0  0  0  0  0  0  0  0999 V2000
   -8.1862   -6.7850  -26.7194 C   0  0  0  0  0  0  0  0  0  0  0  0
   -7.1025   -7.3011  -25.7836 C   0  0  0  0  0  0  0  0  0  0  0  0
   -7.6157   -7.4721  -24.4316 N   0  0  0  0  0  0  0  0  0  0  0  0
   -8.6634   -8.2876  -24.2712 N   0  0  0  0  0  0  0  0  0  0  0  0
   -8.8477   -8.3528  -22.9660 C   0  0  0  0  0  0  0  0  0  0  0  0
   -7.8950   -7.5924  -22.2556 C   0  0  0  0  0  0  0  0  0  0  0  0
   -7.1288   -7.0113  -23.2513 C   0  0  0  0  0  0  0  0  0  0  0  0
   -6.1483   -5.8856  -23.2889 C   0  0  0  0  0  0  0  0  0  0  0  0
   -6.7308   -4.7311  -23.9761 N   0  0  0  0  0  0  0  0  0  0  0  0
   -7.9530   -4.1751  -23.4111 C   0  0  0  0  0  0  0  0  0  0  0  0
   -7.8182   -2.6618  -23.1742 C   0  0  2  0  0  0  0  0  0  0  0  0
   -6.8369   -2.4316  -22.0067 C   0  0  0  0  0  0  0  0  0  0  0  0
   -5.7812   -2.9862  -21.7887 O   0  0  0  0  0  0  0  0  0  0  0  0
   -7.3613   -1.4535  -21.2050 N   0  0  0  0  0  0  0  0  0  0  0  0
   -6.5832   -0.8583  -20.1928 C   0  0  0  0  0  0  0  0  0  0  0  0
   -6.9281   -1.0615  -18.8838 C   0  0  0  0  0  0  0  0  0  0  0  0
   -6.2466   -0.5596  -17.8298 N   0  0  0  0  0  0  0  0  0  0  0  0
   -5.2059    0.1929  -18.0968 C   0  0  0  0  0  0  0  0  0  0  0  0
   -4.7565    0.5000  -19.4130 C   0  0  0  0  0  0  0  0  0  0  0  0
   -3.6313    1.3355  -19.6316 C   0  0  0  0  0  0  0  0  0  0  0  0
   -3.2367    1.6457  -20.9023 C   0  0  0  0  0  0  0  0  0  0  0  0
   -3.9472    1.1319  -22.0138 C   0  0  0  0  0  0  0  0  0  0  0  0
   -5.0369    0.3142  -21.8346 C   0  0  0  0  0  0  0  0  0  0  0  0
   -5.4615   -0.0322  -20.5143 C   0  0  0  0  0  0  0  0  0  0  0  0
   -5.5755   -0.0710  -22.7037 H   0  0  0  0  0  0  0  0  0  0  0  0
   -3.6249    1.3955  -23.0174 H   0  0  0  0  0  0  0  0  0  0  0  0
   -2.3842    2.2993  -21.0687 H   0  0  0  0  0  0  0  0  0  0  0  0
   -3.1153    1.7357  -18.7630 H   0  0  0  0  0  0  0  0  0  0  0  0
   -4.6571    0.5994  -17.2475 H   0  0  0  0  0  0  0  0  0  0  0  0
   -7.7905   -1.6840  -18.6467 H   0  0  0  0  0  0  0  0  0  0  0  0
   -8.6661   -0.9791  -21.5961 C   0  0  0  0  0  0  0  0  0  0  0  0
   -9.1322   -1.9915  -22.6604 C   0  0  2  0  0  0  0  0  0  0  0  0
  -10.1843   -2.9448  -22.0740 C   0  0  0  0  0  0  0  0  0  0  0  0
   -9.7954   -3.5248  -21.2303 H   0  0  0  0  0  0  0  0  0  0  0  0
  -10.5463   -3.6501  -22.8269 H   0  0  0  0  0  0  0  0  0  0  0  0
  -11.0516   -2.3797  -21.7139 H   0  0  0  0  0  0  0  0  0  0  0  0
   -9.6200   -1.4725  -23.4912 H   0  0  0  0  0  0  0  0  0  0  0  0
   -8.6182    0.0507  -21.9748 H   0  0  0  0  0  0  0  0  0  0  0  0
   -9.3361   -0.9628  -20.7385 H   0  0  0  0  0  0  0  0  0  0  0  0
   -7.2931   -2.0183  -24.4582 C   0  0  0  0  0  0  0  0  0  0  0  0
   -7.5287   -0.6682  -24.7583 C   0  0  0  0  0  0  0  0  0  0  0  0
   -7.0533   -0.1354  -25.9425 C   0  0  0  0  0  0  0  0  0  0  0  0
   -7.3046    1.1579  -26.2203 F   0  0  0  0  0  0  0  0  0  0  0  0
   -6.3363   -0.8890  -26.8634 C   0  0  0  0  0  0  0  0  0  0  0  0
   -6.0765   -2.2100  -26.5623 C   0  0  0  0  0  0  0  0  0  0  0  0
   -6.5257   -2.7643  -25.3643 C   0  0  0  0  0  0  0  0  0  0  0  0
   -6.1142   -4.1703  -25.0548 C   0  0  0  0  0  0  0  0  0  0  0  0
   -5.2607   -4.7487  -25.7199 O   0  0  0  0  0  0  0  0  0  0  0  0
   -5.5141   -2.8411  -27.2424 H   0  0  0  0  0  0  0  0  0  0  0  0
   -5.9905   -0.4277  -27.7798 H   0  0  0  0  0  0  0  0  0  0  0  0
   -8.0976   -0.0142  -24.1056 H   0  0  0  0  0  0  0  0  0  0  0  0
   -8.7985   -4.3659  -24.0884 H   0  0  0  0  0  0  0  0  0  0  0  0
   -8.1419   -4.6727  -22.4590 H   0  0  0  0  0  0  0  0  0  0  0  0
   -5.2520   -6.1703  -23.8517 H   0  0  0  0  0  0  0  0  0  0  0  0
   -5.8673   -5.6028  -22.2643 H   0  0  0  0  0  0  0  0  0  0  0  0
   -7.8525   -7.4067  -21.1874 H   0  0  0  0  0  0  0  0  0  0  0  0
   -9.7003   -8.9122  -22.6060 H   0  0  0  0  0  0  0  0  0  0  0  0
   -6.2447   -6.6266  -25.7655 H   0  0  0  0  0  0  0  0  0  0  0  0
   -6.7270   -8.2745  -26.1153 H   0  0  0  0  0  0  0  0  0  0  0  0
   -7.8082   -6.7655  -27.7424 H   0  0  0  0  0  0  0  0  0  0  0  0
   -9.0613   -7.4381  -26.6919 H   0  0  0  0  0  0  0  0  0  0  0  0
   -8.5237   -5.7745  -26.4672 H   0  0  0  0  0  0  0  0  0  0  0  0
  1  2  1  0
  2  3  1  0
  3  4  1  0
  4  5  2  0
  5  6  1  0
  6  7  2  0
  7  8  1  0
  8  9  1  0
  9 10  1  0
 11 10  1  6
 11 12  1  0
 12 13  2  0
 12 14  1  0
 14 15  1  0
 15 16  2  0
 16 17  1  0
 17 18  2  0
 18 19  1  0
 19 20  2  0
 20 21  1  0
 21 22  2  0
 22 23  1  0
 23 24  2  0
 23 25  1  0
 22 26  1  0
 21 27  1  0
 20 28  1  0
 18 29  1  0
 16 30  1  0
 14 31  1  0
 31 32  1  0
 32 33  1  0
 33 34  1  0
 33 35  1  0
 33 36  1  0
 32 37  1  6
 31 38  1  0
 31 39  1  0
 11 40  1  0
 40 41  2  0
 41 42  1  0
 42 43  1  0
 42 44  2  0
 44 45  1  0
 45 46  2  0
 46 47  1  0
 47 48  2  0
 45 49  1  0
 44 50  1  0
 41 51  1  0
 10 52  1  0
 10 53  1  0
  8 54  1  0
  8 55  1  0
  6 56  1  0
  5 57  1  0
  2 58  1  0
  2 59  1  0
  1 60  1  0
  1 61  1  0
  1 62  1  0
  7  3  1  0
 47  9  1  0
 32 11  1  0
 46 40  1  0
 24 15  1  0
 24 19  1  0
M  END
>  <cnnaffinities>  (91) 
[6.47124]

>  <score>  (91) 
6.47124

>  <index>  (91) 
93

>  <Smiles>  (91) 
C(C(n1nc(c(c1C(N1C([C@@]2(C(=O)N(c3c(nc(c4c(c(c(c(c34)[H])[H])[H])[H])[H])[H])C([C@@]2(C([H])([H])[H])[H])([H])[H])c2c(c(F)c(c(c2C1=O)[H])[H])[H])([H])[H])([H])[H])[H])[H])([H])[H])([H])([H])[H]

>  <h>  (91) 
<NA>

>  <Training>  (91) 
True

>  <Success>  (91) 
True

>  <enamine_searched>  (91) 
False

>  <enamine_id>  (91) 
nan

$$$$

     RDKit          3D

 66 71  0  0  0  0  0  0  0  0999 V2000
   -5.6162   -0.1186  -29.4293 C   0  0  0  0  0  0  0  0  0  0  0  0
   -5.6250    0.1135  -28.0027 N   0  0  0  0  0  0  0  0  0  0  0  0
   -5.0589   -0.7811  -27.1511 C   0  0  0  0  0  0  0  0  0  0  0  0
   -4.4508   -1.7691  -27.5149 O   0  0  0  0  0  0  0  0  0  0  0  0
   -5.2057   -0.3867  -25.6719 C   0  0  0  0  0  0  0  0  0  0  0  0
   -6.4446   -0.8579  -25.0702 N   0  0  0  0  0  0  0  0  0  0  0  0
   -6.4153   -2.0647  -24.2638 C   0  0  0  0  0  0  0  0  0  0  0  0
   -7.5002   -2.0765  -23.1412 C   0  0  2  0  0  0  0  0  0  0  0  0
   -7.1167   -1.0848  -22.0163 C   0  0  0  0  0  0  0  0  0  0  0  0
   -7.4285    0.0801  -21.9245 O   0  0  0  0  0  0  0  0  0  0  0  0
   -6.3473   -1.7757  -21.0969 N   0  0  0  0  0  0  0  0  0  0  0  0
   -5.7925   -1.0901  -19.9902 C   0  0  0  0  0  0  0  0  0  0  0  0
   -6.2404   -1.3718  -18.7215 C   0  0  0  0  0  0  0  0  0  0  0  0
   -5.8324   -0.7375  -17.5963 N   0  0  0  0  0  0  0  0  0  0  0  0
   -4.9408    0.2158  -17.7318 C   0  0  0  0  0  0  0  0  0  0  0  0
   -4.3623    0.5875  -18.9777 C   0  0  0  0  0  0  0  0  0  0  0  0
   -3.3788    1.6131  -19.0431 C   0  0  0  0  0  0  0  0  0  0  0  0
   -2.8088    1.9535  -20.2396 C   0  0  0  0  0  0  0  0  0  0  0  0
   -3.2043    1.2856  -21.4229 C   0  0  0  0  0  0  0  0  0  0  0  0
   -4.1594    0.2974  -21.3847 C   0  0  0  0  0  0  0  0  0  0  0  0
   -4.7824   -0.0768  -20.1534 C   0  0  0  0  0  0  0  0  0  0  0  0
   -4.4587   -0.1906  -22.3089 H   0  0  0  0  0  0  0  0  0  0  0  0
   -2.7516    1.5639  -22.3717 H   0  0  0  0  0  0  0  0  0  0  0  0
   -2.0582    2.7398  -20.2862 H   0  0  0  0  0  0  0  0  0  0  0  0
   -3.0939    2.1089  -18.1167 H   0  0  0  0  0  0  0  0  0  0  0  0
   -4.6215    0.7440  -16.8297 H   0  0  0  0  0  0  0  0  0  0  0  0
   -7.0010   -2.1391  -18.5735 H   0  0  0  0  0  0  0  0  0  0  0  0
   -6.3069   -3.2192  -21.3621 C   0  0  0  0  0  0  0  0  0  0  0  0
   -7.4990   -3.3871  -22.3113 C   0  0  2  0  0  0  0  0  0  0  0  0
   -7.6775   -4.7063  -23.0774 C   0  0  0  0  0  0  0  0  0  0  0  0
   -6.5292   -5.2125  -23.7993 N   0  0  0  0  0  0  0  0  0  0  0  0
   -5.5086   -5.9415  -23.2812 C   0  0  0  0  0  0  0  0  0  0  0  0
   -5.5404   -6.4377  -21.9653 C   0  0  0  0  0  0  0  0  0  0  0  0
   -4.4807   -7.2382  -21.5994 C   0  0  0  0  0  0  0  0  0  0  0  0
   -3.4070   -7.4480  -22.3738 N   0  0  0  0  0  0  0  0  0  0  0  0
   -3.4629   -6.8828  -23.5741 C   0  0  0  0  0  0  0  0  0  0  0  0
   -4.4591   -6.1654  -24.0877 N   0  0  0  0  0  0  0  0  0  0  0  0
   -2.5976   -7.0362  -24.2220 H   0  0  0  0  0  0  0  0  0  0  0  0
   -4.4595   -7.7179  -20.6161 H   0  0  0  0  0  0  0  0  0  0  0  0
   -6.3484   -6.1890  -21.2824 H   0  0  0  0  0  0  0  0  0  0  0  0
   -6.4948   -5.1192  -24.8032 H   0  0  0  0  0  0  0  0  0  0  0  0
   -8.4825   -4.5513  -23.8061 H   0  0  0  0  0  0  0  0  0  0  0  0
   -8.0399   -5.4793  -22.3895 H   0  0  0  0  0  0  0  0  0  0  0  0
   -8.3847   -3.2894  -21.6758 H   0  0  0  0  0  0  0  0  0  0  0  0
   -6.4105   -3.8007  -20.4403 H   0  0  0  0  0  0  0  0  0  0  0  0
   -5.3581   -3.4836  -21.8459 H   0  0  0  0  0  0  0  0  0  0  0  0
   -8.8315   -1.7017  -23.7451 C   0  0  0  0  0  0  0  0  0  0  0  0
  -10.0595   -2.0692  -23.1733 C   0  0  0  0  0  0  0  0  0  0  0  0
  -11.2503   -1.6269  -23.7243 C   0  0  0  0  0  0  0  0  0  0  0  0
  -12.7271   -2.1300  -22.9442 Cl  0  0  0  0  0  0  0  0  0  0  0  0
  -11.2709   -0.7953  -24.8466 C   0  0  0  0  0  0  0  0  0  0  0  0
  -10.0652   -0.4262  -25.4029 C   0  0  0  0  0  0  0  0  0  0  0  0
   -8.8609   -0.8422  -24.8462 C   0  0  0  0  0  0  0  0  0  0  0  0
   -7.6093   -0.2601  -25.4183 C   0  0  0  0  0  0  0  0  0  0  0  0
   -7.6470    0.7125  -26.1781 O   0  0  0  0  0  0  0  0  0  0  0  0
  -10.0031    0.2231  -26.2648 H   0  0  0  0  0  0  0  0  0  0  0  0
  -12.1898   -0.3834  -25.2463 H   0  0  0  0  0  0  0  0  0  0  0  0
  -10.1364   -2.6826  -22.2822 H   0  0  0  0  0  0  0  0  0  0  0  0
   -5.4202   -2.1124  -23.8157 H   0  0  0  0  0  0  0  0  0  0  0  0
   -6.5534   -2.9443  -24.9014 H   0  0  0  0  0  0  0  0  0  0  0  0
   -4.3565   -0.8066  -25.1218 H   0  0  0  0  0  0  0  0  0  0  0  0
   -5.1842    0.7031  -25.5856 H   0  0  0  0  0  0  0  0  0  0  0  0
   -6.3337    0.7175  -27.6070 H   0  0  0  0  0  0  0  0  0  0  0  0
   -4.5990   -0.3591  -29.7526 H   0  0  0  0  0  0  0  0  0  0  0  0
   -5.9612    0.7908  -29.9353 H   0  0  0  0  0  0  0  0  0  0  0  0
   -6.2641   -0.9573  -29.7151 H   0  0  0  0  0  0  0  0  0  0  0  0
  1  2  1  0
  2  3  1  0
  3  4  2  0
  3  5  1  0
  5  6  1  0
  6  7  1  0
  8  7  1  6
  8  9  1  0
  9 10  2  0
  9 11  1  0
 11 12  1  0
 12 13  2  0
 13 14  1  0
 14 15  2  0
 15 16  1  0
 16 17  2  0
 17 18  1  0
 18 19  2  0
 19 20  1  0
 20 21  2  0
 20 22  1  0
 19 23  1  0
 18 24  1  0
 17 25  1  0
 15 26  1  0
 13 27  1  0
 11 28  1  0
 28 29  1  0
 29 30  1  0
 30 31  1  0
 31 32  1  0
 32 33  2  0
 33 34  1  0
 34 35  2  0
 35 36  1  0
 36 37  2  0
 36 38  1  0
 34 39  1  0
 33 40  1  0
 31 41  1  0
 30 42  1  0
 30 43  1  0
 29 44  1  1
 28 45  1  0
 28 46  1  0
  8 47  1  0
 47 48  2  0
 48 49  1  0
 49 50  1  0
 49 51  2  0
 51 52  1  0
 52 53  2  0
 53 54  1  0
 54 55  2  0
 52 56  1  0
 51 57  1  0
 48 58  1  0
  7 59  1  0
  7 60  1  0
  5 61  1  0
  5 62  1  0
  2 63  1  0
  1 64  1  0
  1 65  1  0
  1 66  1  0
 54  6  1  0
 29  8  1  0
 37 32  1  0
 53 47  1  0
 21 12  1  0
 21 16  1  0
M  END
>  <cnnaffinities>  (92) 
[6.72874]

>  <score>  (92) 
6.72874

>  <index>  (92) 
95

>  <Smiles>  (92) 
C(N(C(=O)C(N1C([C@@]2(C(=O)N(c3c(nc(c4c(c(c(c(c34)[H])[H])[H])[H])[H])[H])C([C@@]2(C(N(c2c(c(nc(n2)[H])[H])[H])[H])([H])[H])[H])([H])[H])c2c(c(Cl)c(c(c2C1=O)[H])[H])[H])([H])[H])([H])[H])[H])([H])([H])[H]

>  <h>  (92) 
<NA>

>  <Training>  (92) 
True

>  <Success>  (92) 
True

>  <enamine_searched>  (92) 
False

>  <enamine_id>  (92) 
nan

$$$$

     RDKit          3D

 66 70  0  0  0  0  0  0  0  0999 V2000
   -8.3754   -5.6877  -27.9451 C   0  0  0  0  0  0  0  0  0  0  0  0
   -8.6419   -4.2789  -27.7437 N   0  0  0  0  0  0  0  0  0  0  0  0
   -7.7759   -3.5239  -27.0090 C   0  0  0  0  0  0  0  0  0  0  0  0
   -6.6928   -3.9391  -26.6204 O   0  0  0  0  0  0  0  0  0  0  0  0
   -8.2303   -2.0882  -26.7159 C   0  0  0  0  0  0  0  0  0  0  0  0
   -8.7542   -1.9338  -25.3578 N   0  0  0  0  0  0  0  0  0  0  0  0
   -7.9280   -1.3487  -24.3052 C   0  0  0  0  0  0  0  0  0  0  0  0
   -8.4946   -1.7639  -22.9074 C   0  0  2  0  0  0  0  0  0  0  0  0
   -7.9183   -0.8361  -21.8179 C   0  0  0  0  0  0  0  0  0  0  0  0
   -8.1746    0.3305  -21.6203 O   0  0  0  0  0  0  0  0  0  0  0  0
   -7.0027   -1.5493  -21.0727 N   0  0  0  0  0  0  0  0  0  0  0  0
   -6.2669   -0.9211  -20.0356 C   0  0  0  0  0  0  0  0  0  0  0  0
   -6.6001   -1.1568  -18.7272 C   0  0  0  0  0  0  0  0  0  0  0  0
   -5.9946   -0.5738  -17.6623 N   0  0  0  0  0  0  0  0  0  0  0  0
   -5.0226    0.2716  -17.9104 C   0  0  0  0  0  0  0  0  0  0  0  0
   -4.5475    0.5735  -19.2194 C   0  0  0  0  0  0  0  0  0  0  0  0
   -3.4655    1.4677  -19.4341 C   0  0  0  0  0  0  0  0  0  0  0  0
   -3.0211    1.7245  -20.7025 C   0  0  0  0  0  0  0  0  0  0  0  0
   -3.6269    1.0939  -21.8120 C   0  0  0  0  0  0  0  0  0  0  0  0
   -4.6747    0.2257  -21.6299 C   0  0  0  0  0  0  0  0  0  0  0  0
   -5.1732   -0.0457  -20.3238 C   0  0  0  0  0  0  0  0  0  0  0  0
   -5.1293   -0.2603  -22.4879 H   0  0  0  0  0  0  0  0  0  0  0  0
   -3.2636    1.3030  -22.8146 H   0  0  0  0  0  0  0  0  0  0  0  0
   -2.2017    2.4185  -20.8669 H   0  0  0  0  0  0  0  0  0  0  0  0
   -3.0087    1.9380  -18.5675 H   0  0  0  0  0  0  0  0  0  0  0  0
   -4.5510    0.7618  -17.0568 H   0  0  0  0  0  0  0  0  0  0  0  0
   -7.4101   -1.8468  -18.4904 H   0  0  0  0  0  0  0  0  0  0  0  0
   -6.7149   -2.8694  -21.5830 C   0  0  0  0  0  0  0  0  0  0  0  0
   -7.9527   -3.1737  -22.4421 C   0  0  2  0  0  0  0  0  0  0  0  0
   -7.7085   -4.2369  -23.5034 C   0  0  0  0  0  0  0  0  0  0  0  0
   -7.6612   -5.4762  -22.8343 O   0  0  0  0  0  0  0  0  0  0  0  0
   -7.5016   -6.5883  -23.6937 C   0  0  0  0  0  0  0  0  0  0  0  0
   -6.8362   -7.6535  -22.8367 C   0  0  0  0  0  0  0  0  0  0  0  0
   -5.9680   -7.2246  -22.3309 H   0  0  0  0  0  0  0  0  0  0  0  0
   -6.4948   -8.5053  -23.4238 H   0  0  0  0  0  0  0  0  0  0  0  0
   -7.5371   -8.0061  -22.0744 H   0  0  0  0  0  0  0  0  0  0  0  0
   -8.8428   -7.0454  -24.2749 C   0  0  0  0  0  0  0  0  0  0  0  0
   -8.6909   -7.8078  -25.0476 H   0  0  0  0  0  0  0  0  0  0  0  0
   -9.3939   -6.2087  -24.7232 H   0  0  0  0  0  0  0  0  0  0  0  0
   -9.4715   -7.4762  -23.4903 H   0  0  0  0  0  0  0  0  0  0  0  0
   -6.8343   -6.3033  -24.5267 H   0  0  0  0  0  0  0  0  0  0  0  0
   -8.5234   -4.2295  -24.2355 H   0  0  0  0  0  0  0  0  0  0  0  0
   -6.7744   -4.0541  -24.0580 H   0  0  0  0  0  0  0  0  0  0  0  0
   -8.6884   -3.6124  -21.7636 H   0  0  0  0  0  0  0  0  0  0  0  0
   -5.7874   -2.8788  -22.1781 H   0  0  0  0  0  0  0  0  0  0  0  0
   -6.5821   -3.5791  -20.7618 H   0  0  0  0  0  0  0  0  0  0  0  0
   -9.9933   -1.7292  -22.8537 C   0  0  0  0  0  0  0  0  0  0  0  0
  -10.6798   -2.2516  -21.8007 C   0  0  0  0  0  0  0  0  0  0  0  0
  -12.1251   -2.4806  -21.9376 C   0  0  0  0  0  0  0  0  0  0  0  0
  -13.0559   -3.2007  -20.6579 Cl  0  0  0  0  0  0  0  0  0  0  0  0
  -12.6553   -2.0564  -23.0743 C   0  0  0  0  0  0  0  0  0  0  0  0
  -11.4733   -1.2253  -24.1061 C   0  0  0  0  0  0  0  0  0  0  0  0
  -11.4761   -1.0100  -24.1433 C   0  0  0  0  0  0  0  0  0  0  0  0
  -10.1371   -2.2959  -25.1599 C   0  0  0  0  0  0  0  0  0  0  0  0
  -10.4996   -3.3264  -25.7069 O   0  0  0  0  0  0  0  0  0  0  0  0
  -11.7579   -0.6993  -25.2490 H   0  0  0  0  0  0  0  0  0  0  0  0
  -13.7098   -2.2162  -23.3743 H   0  0  0  0  0  0  0  0  0  0  0  0
  -10.1874   -2.4829  -20.8544 H   0  0  0  0  0  0  0  0  0  0  0  0
   -6.8848   -1.7061  -24.4235 H   0  0  0  0  0  0  0  0  0  0  0  0
   -7.8803   -0.2496  -24.3700 H   0  0  0  0  0  0  0  0  0  0  0  0
   -8.9857   -1.7719  -27.4476 H   0  0  0  0  0  0  0  0  0  0  0  0
   -7.3515   -1.4392  -26.8394 H   0  0  0  0  0  0  0  0  0  0  0  0
   -9.6164   -4.0167  -27.7156 H   0  0  0  0  0  0  0  0  0  0  0  0
   -8.5309   -6.2796  -27.0299 H   0  0  0  0  0  0  0  0  0  0  0  0
   -9.0345   -6.0707  -28.7311 H   0  0  0  0  0  0  0  0  0  0  0  0
   -7.3351   -5.8190  -28.2526 H   0  0  0  0  0  0  0  0  0  0  0  0
  1  2  1  0
  2  3  1  0
  3  4  2  0
  3  5  1  0
  5  6  1  0
  6  7  1  0
  8  7  1  6
  8  9  1  0
  9 10  2  0
  9 11  1  0
 11 12  1  0
 12 13  2  0
 13 14  1  0
 14 15  2  0
 15 16  1  0
 16 17  2  0
 17 18  1  0
 18 19  2  0
 19 20  1  0
 20 21  2  0
 20 22  1  0
 19 23  1  0
 18 24  1  0
 17 25  1  0
 15 26  1  0
 13 27  1  0
 11 28  1  0
 28 29  1  0
 29 30  1  0
 30 31  1  0
 31 32  1  0
 32 33  1  0
 33 34  1  0
 33 35  1  0
 33 36  1  0
 32 37  1  0
 37 38  1  0
 37 39  1  0
 37 40  1  0
 32 41  1  0
 30 42  1  0
 30 43  1  0
 29 44  1  1
 28 45  1  0
 28 46  1  0
  8 47  1  0
 47 48  2  0
 48 49  1  0
 49 50  1  0
 49 51  2  0
 51 52  1  0
 52 53  2  0
 53 54  1  0
 54 55  2  0
 52 56  1  0
 51 57  1  0
 48 58  1  0
  7 59  1  0
  7 60  1  0
  5 61  1  0
  5 62  1  0
  2 63  1  0
  1 64  1  0
  1 65  1  0
  1 66  1  0
 54  6  1  0
 29  8  1  0
 53 47  1  0
 21 12  1  0
 21 16  1  0
M  END
>  <cnnaffinities>  (93) 
[7.02367]

>  <score>  (93) 
7.02367

>  <index>  (93) 
96

>  <Smiles>  (93) 
C(N(C(=O)C(N1C([C@@]2(C(=O)N(c3c(nc(c4c(c(c(c(c34)[H])[H])[H])[H])[H])[H])C([C@@]2(C(OC(C([H])([H])[H])(C([H])([H])[H])[H])([H])[H])[H])([H])[H])c2c(c(Cl)c(c(c2C1=O)[H])[H])[H])([H])[H])([H])[H])[H])([H])([H])[H]

>  <h>  (93) 
<NA>

>  <Training>  (93) 
True

>  <Success>  (93) 
True

>  <enamine_searched>  (93) 
False

>  <enamine_id>  (93) 
nan

$$$$

     RDKit          3D

 40 43  0  0  0  0  0  0  0  0999 V2000
   -9.8460   -5.2346  -23.3444 C   0  0  0  0  0  0  0  0  0  0  0  0
  -10.7103   -4.1081  -22.7846 C   0  0  2  0  0  0  0  0  0  0  0  0
  -11.3420   -3.3078  -23.9135 C   0  0  0  0  0  0  0  0  0  0  0  0
  -10.3775   -2.5446  -24.6057 O   0  0  0  0  0  0  0  0  0  0  0  0
   -9.7690   -1.5851  -23.7647 C   0  0  0  0  0  0  0  0  0  0  0  0
   -8.9921   -2.2369  -22.6145 C   0  0  1  0  0  0  0  0  0  0  0  0
   -9.9650   -3.1555  -21.8681 C   0  0  0  0  0  0  0  0  0  0  0  0
  -10.6846   -2.4968  -21.3651 H   0  0  0  0  0  0  0  0  0  0  0  0
   -9.4103   -3.6801  -21.0892 H   0  0  0  0  0  0  0  0  0  0  0  0
   -7.7256   -2.8689  -23.0100 N   0  0  0  0  0  0  0  0  0  0  0  0
   -6.7107   -2.5995  -22.1118 C   0  0  0  0  0  0  0  0  0  0  0  0
   -5.6340   -3.1364  -22.0071 O   0  0  0  0  0  0  0  0  0  0  0  0
   -7.1858   -1.5476  -21.3089 N   0  0  0  0  0  0  0  0  0  0  0  0
   -6.4811   -0.9297  -20.2465 C   0  0  0  0  0  0  0  0  0  0  0  0
   -6.8994   -1.1070  -18.9571 C   0  0  0  0  0  0  0  0  0  0  0  0
   -6.2630   -0.5866  -17.8799 N   0  0  0  0  0  0  0  0  0  0  0  0
   -5.2145    0.1717  -18.1003 C   0  0  0  0  0  0  0  0  0  0  0  0
   -4.7156    0.4811  -19.4007 C   0  0  0  0  0  0  0  0  0  0  0  0
   -3.6039    1.3404  -19.6138 C   0  0  0  0  0  0  0  0  0  0  0  0
   -3.2134    1.6535  -20.8881 C   0  0  0  0  0  0  0  0  0  0  0  0
   -3.9148    1.1441  -22.0067 C   0  0  0  0  0  0  0  0  0  0  0  0
   -4.9917    0.3123  -21.8291 C   0  0  0  0  0  0  0  0  0  0  0  0
   -5.3866   -0.0608  -20.5158 C   0  0  0  0  0  0  0  0  0  0  0  0
   -5.5712   -0.0469  -22.6765 H   0  0  0  0  0  0  0  0  0  0  0  0
   -3.6135    1.4249  -23.0121 H   0  0  0  0  0  0  0  0  0  0  0  0
   -2.3709    2.3193  -21.0565 H   0  0  0  0  0  0  0  0  0  0  0  0
   -3.1016    1.7623  -18.7476 H   0  0  0  0  0  0  0  0  0  0  0  0
   -4.7132    0.5983  -17.2297 H   0  0  0  0  0  0  0  0  0  0  0  0
   -7.7870   -1.7027  -18.7521 H   0  0  0  0  0  0  0  0  0  0  0  0
   -8.5010   -1.2269  -21.5986 C   0  0  0  0  0  0  0  0  0  0  0  0
   -9.1410   -0.3531  -21.0656 O   0  0  0  0  0  0  0  0  0  0  0  0
   -7.7510   -3.8134  -23.3688 H   0  0  0  0  0  0  0  0  0  0  0  0
   -9.0992   -0.9899  -24.3874 H   0  0  0  0  0  0  0  0  0  0  0  0
  -10.5321   -0.9274  -23.3170 H   0  0  0  0  0  0  0  0  0  0  0  0
  -12.1324   -2.6554  -23.5034 H   0  0  0  0  0  0  0  0  0  0  0  0
  -11.7830   -3.9881  -24.6463 H   0  0  0  0  0  0  0  0  0  0  0  0
  -11.5189   -4.5300  -22.1855 H   0  0  0  0  0  0  0  0  0  0  0  0
   -9.1812   -4.8898  -24.1400 H   0  0  0  0  0  0  0  0  0  0  0  0
  -10.4837   -6.0066  -23.7786 H   0  0  0  0  0  0  0  0  0  0  0  0
   -9.2368   -5.7012  -22.5666 H   0  0  0  0  0  0  0  0  0  0  0  0
  1  2  1  0
  2  3  1  0
  3  4  1  0
  4  5  1  0
  5  6  1  0
  6  7  1  0
  7  8  1  0
  7  9  1  0
  6 10  1  6
 10 11  1  0
 11 12  2  0
 11 13  1  0
 13 14  1  0
 14 15  2  0
 15 16  1  0
 16 17  2  0
 17 18  1  0
 18 19  2  0
 19 20  1  0
 20 21  2  0
 21 22  1  0
 22 23  2  0
 22 24  1  0
 21 25  1  0
 20 26  1  0
 19 27  1  0
 17 28  1  0
 15 29  1  0
 13 30  1  0
 30 31  2  0
 10 32  1  0
  5 33  1  0
  5 34  1  0
  3 35  1  0
  3 36  1  0
  2 37  1  1
  1 38  1  0
  1 39  1  0
  1 40  1  0
  7  2  1  0
 23 14  1  0
 30  6  1  0
 23 18  1  0
M  END
>  <cnnaffinities>  (94) 
[5.35479]

>  <score>  (94) 
5.35479

>  <index>  (94) 
97

>  <Smiles>  (94) 
C([C@@]1(C(OC([C@@]2(C1([H])[H])N(C(=O)N(c1c(nc(c3c(c(c(c(c13)[H])[H])[H])[H])[H])[H])C2=O)[H])([H])[H])([H])[H])[H])([H])([H])[H]

>  <h>  (94) 
<NA>

>  <Training>  (94) 
True

>  <Success>  (94) 
True

>  <enamine_searched>  (94) 
False

>  <enamine_id>  (94) 
nan

$$$$
