
     RDKit          3D

 66 71  0  0  0  0  0  0  0  0999 V2000
   -8.4245    2.8182  -28.2908 C   0  0  0  0  0  0  0  0  0  0  0  0
   -8.5551    2.7871  -26.8458 N   0  0  0  0  0  0  0  0  0  0  0  0
   -7.7898    1.8954  -26.1483 C   0  0  0  0  0  0  0  0  0  0  0  0
   -6.8974    1.2308  -26.6460 O   0  0  0  0  0  0  0  0  0  0  0  0
   -8.1247    1.8226  -24.6528 C   0  0  0  0  0  0  0  0  0  0  0  0
   -9.0192    0.7300  -24.3254 N   0  0  0  0  0  0  0  0  0  0  0  0
   -8.4977   -0.6135  -24.1490 C   0  0  0  0  0  0  0  0  0  0  0  0
   -9.1068   -1.3008  -22.8903 C   0  0  2  0  0  0  0  0  0  0  0  0
   -8.5823   -0.6277  -21.5945 C   0  0  0  0  0  0  0  0  0  0  0  0
   -9.1164    0.2416  -20.9437 O   0  0  0  0  0  0  0  0  0  0  0  0
   -7.3808   -1.2244  -21.2795 N   0  0  0  0  0  0  0  0  0  0  0  0
   -6.5994   -0.7397  -20.1991 C   0  0  0  0  0  0  0  0  0  0  0  0
   -6.9225   -1.0671  -18.9053 C   0  0  0  0  0  0  0  0  0  0  0  0
   -6.2320   -0.6533  -17.8137 N   0  0  0  0  0  0  0  0  0  0  0  0
   -5.2027    0.1336  -18.0081 C   0  0  0  0  0  0  0  0  0  0  0  0
   -4.7652    0.5656  -19.2924 C   0  0  0  0  0  0  0  0  0  0  0  0
   -3.6572    1.4399  -19.4451 C   0  0  0  0  0  0  0  0  0  0  0  0
   -3.2734    1.8593  -20.6890 C   0  0  0  0  0  0  0  0  0  0  0  0
   -3.9823    1.4296  -21.8313 C   0  0  0  0  0  0  0  0  0  0  0  0
   -5.0560    0.5811  -21.7091 C   0  0  0  0  0  0  0  0  0  0  0  0
   -5.4767    0.1218  -20.4302 C   0  0  0  0  0  0  0  0  0  0  0  0
   -5.5856    0.2520  -22.5982 H   0  0  0  0  0  0  0  0  0  0  0  0
   -3.6732    1.7705  -22.8141 H   0  0  0  0  0  0  0  0  0  0  0  0
   -2.4294    2.5338  -20.8059 H   0  0  0  0  0  0  0  0  0  0  0  0
   -3.1398    1.7781  -18.5508 H   0  0  0  0  0  0  0  0  0  0  0  0
   -4.6588    0.4778  -17.1255 H   0  0  0  0  0  0  0  0  0  0  0  0
   -7.7892   -1.6918  -18.7006 H   0  0  0  0  0  0  0  0  0  0  0  0
   -7.1153   -2.4162  -22.0706 C   0  0  0  0  0  0  0  0  0  0  0  0
   -8.5095   -2.7281  -22.6666 C   0  0  2  0  0  0  0  0  0  0  0  0
   -8.4577   -3.7144  -23.8633 C   0  0  0  0  0  0  0  0  0  0  0  0
   -7.6630   -4.8456  -23.5581 N   0  0  0  0  0  0  0  0  0  0  0  0
   -8.2678   -6.0617  -23.6961 C   0  0  0  0  0  0  0  0  0  0  0  0
   -9.6753   -6.1533  -24.2626 C   0  0  0  0  0  0  0  0  0  0  0  0
   -9.5633   -5.9142  -24.2086 C   0  0  0  0  0  0  0  0  0  0  0  0
   -9.4790   -8.6673  -23.5156 N   0  0  0  0  0  0  0  0  0  0  0  0
   -8.2850   -8.3497  -23.4266 C   0  0  0  0  0  0  0  0  0  0  0  0
   -7.5608   -7.0969  -23.4193 N   0  0  0  0  0  0  0  0  0  0  0  0
   -7.5301   -9.1638  -23.2987 H   0  0  0  0  0  0  0  0  0  0  0  0
   -9.9485   -5.4612  -25.1864 H   0  0  0  0  0  0  0  0  0  0  0  0
  -10.5495   -5.4664  -23.8484 H   0  0  0  0  0  0  0  0  0  0  0  0
   -6.7614   -4.7608  -23.1229 H   0  0  0  0  0  0  0  0  0  0  0  0
   -7.9945   -3.1529  -24.7033 H   0  0  0  0  0  0  0  0  0  0  0  0
   -9.4419   -4.0300  -24.1294 H   0  0  0  0  0  0  0  0  0  0  0  0
   -9.0828   -3.1944  -21.8548 H   0  0  0  0  0  0  0  0  0  0  0  0
   -6.3742   -2.2204  -22.8657 H   0  0  0  0  0  0  0  0  0  0  0  0
   -6.7166   -3.2067  -21.4281 H   0  0  0  0  0  0  0  0  0  0  0  0
  -10.6078   -1.1363  -22.9649 C   0  0  0  0  0  0  0  0  0  0  0  0
  -11.4499   -1.8807  -22.1286 C   0  0  0  0  0  0  0  0  0  0  0  0
  -12.8247   -1.7791  -22.2768 C   0  0  0  0  0  0  0  0  0  0  0  0
  -13.8611   -2.7836  -21.3007 Cl  0  0  0  0  0  0  0  0  0  0  0  0
  -13.4039   -0.8650  -23.1553 C   0  0  0  0  0  0  0  0  0  0  0  0
  -12.5751   -0.0118  -23.8582 C   0  0  0  0  0  0  0  0  0  0  0  0
  -11.1920   -0.1256  -23.7515 C   0  0  0  0  0  0  0  0  0  0  0  0
  -10.3600    0.9382  -24.4014 C   0  0  0  0  0  0  0  0  0  0  0  0
  -10.8459    1.9432  -24.9183 O   0  0  0  0  0  0  0  0  0  0  0  0
  -12.9685    0.7858  -24.4774 H   0  0  0  0  0  0  0  0  0  0  0  0
  -14.4830   -0.7895  -23.2262 H   0  0  0  0  0  0  0  0  0  0  0  0
  -11.0634   -2.4595  -21.2950 H   0  0  0  0  0  0  0  0  0  0  0  0
   -8.7505   -1.2123  -25.0331 H   0  0  0  0  0  0  0  0  0  0  0  0
   -7.4068   -0.5412  -24.0962 H   0  0  0  0  0  0  0  0  0  0  0  0
   -8.6010    2.7501  -24.3210 H   0  0  0  0  0  0  0  0  0  0  0  0
   -7.1922    1.6781  -24.0982 H   0  0  0  0  0  0  0  0  0  0  0  0
   -9.4950    2.8883  -26.4763 H   0  0  0  0  0  0  0  0  0  0  0  0
   -7.3847    3.0222  -28.5561 H   0  0  0  0  0  0  0  0  0  0  0  0
   -9.0559    3.6185  -28.6843 H   0  0  0  0  0  0  0  0  0  0  0  0
   -8.7099    1.8655  -28.7567 H   0  0  0  0  0  0  0  0  0  0  0  0
  1  2  1  0
  2  3  1  0
  3  4  2  0
  3  5  1  0
  5  6  1  0
  6  7  1  0
  8  7  1  6
  8  9  1  0
  9 10  2  0
  9 11  1  0
 11 12  1  0
 12 13  2  0
 13 14  1  0
 14 15  2  0
 15 16  1  0
 16 17  2  0
 17 18  1  0
 18 19  2  0
 19 20  1  0
 20 21  2  0
 20 22  1  0
 19 23  1  0
 18 24  1  0
 17 25  1  0
 15 26  1  0
 13 27  1  0
 11 28  1  0
 28 29  1  0
 29 30  1  0
 30 31  1  0
 31 32  1  0
 32 33  2  0
 33 34  1  0
 34 35  2  0
 35 36  1  0
 36 37  2  0
 36 38  1  0
 34 39  1  0
 33 40  1  0
 31 41  1  0
 30 42  1  0
 30 43  1  0
 29 44  1  1
 28 45  1  0
 28 46  1  0
  8 47  1  0
 47 48  2  0
 48 49  1  0
 49 50  1  0
 49 51  2  0
 51 52  1  0
 52 53  2  0
 53 54  1  0
 54 55  2  0
 52 56  1  0
 51 57  1  0
 48 58  1  0
  7 59  1  0
  7 60  1  0
  5 61  1  0
  5 62  1  0
  2 63  1  0
  1 64  1  0
  1 65  1  0
  1 66  1  0
 54  6  1  0
 29  8  1  0
 37 32  1  0
 53 47  1  0
 21 12  1  0
 21 16  1  0
M  END
>  <cnnaffinities>  (1) 
[6.92939]

>  <score>  (1) 
6.92939

>  <index>  (1) 
0

>  <Smiles>  (1) 
C(N(C(=O)C(N1C([C@@]2(C(=O)N(c3c(nc(c4c(c(c(c(c34)[H])[H])[H])[H])[H])[H])C([C@@]2(C(N(c2c(c(nc(n2)[H])[H])[H])[H])([H])[H])[H])([H])[H])c2c(c(Cl)c(c(c2C1=O)[H])[H])[H])([H])[H])([H])[H])[H])([H])([H])[H]

>  <h>  (1) 
<NA>

>  <Training>  (1) 
True

>  <Success>  (1) 
True

>  <enamine_searched>  (1) 
False

>  <enamine_id>  (1) 
nan

$$$$

     RDKit          3D

 68 73  0  0  0  0  0  0  0  0999 V2000
   -7.2911    3.4957  -21.9937 C   0  0  0  0  0  0  0  0  0  0  0  0
   -8.2605    2.9186  -22.9051 N   0  0  0  0  0  0  0  0  0  0  0  0
   -7.8338    2.2504  -24.0056 C   0  0  0  0  0  0  0  0  0  0  0  0
   -6.6477    2.1131  -24.2744 O   0  0  0  0  0  0  0  0  0  0  0  0
   -8.9364    1.6884  -24.8972 C   0  0  0  0  0  0  0  0  0  0  0  0
   -9.5521    0.5160  -24.3041 N   0  0  0  0  0  0  0  0  0  0  0  0
   -8.7121   -0.6515  -24.0795 C   0  0  0  0  0  0  0  0  0  0  0  0
   -9.1061   -1.4294  -22.7961 C   0  0  2  0  0  0  0  0  0  0  0  0
   -8.6632   -0.6215  -21.5457 C   0  0  0  0  0  0  0  0  0  0  0  0
   -9.2184    0.3519  -21.0805 O   0  0  0  0  0  0  0  0  0  0  0  0
   -7.5107   -1.1846  -21.0503 N   0  0  0  0  0  0  0  0  0  0  0  0
   -6.7076   -0.6166  -20.0357 C   0  0  0  0  0  0  0  0  0  0  0  0
   -6.9408   -0.9414  -18.7271 C   0  0  0  0  0  0  0  0  0  0  0  0
   -6.1770   -0.5228  -17.6902 N   0  0  0  0  0  0  0  0  0  0  0  0
   -5.1422    0.2349  -17.9695 C   0  0  0  0  0  0  0  0  0  0  0  0
   -4.7636    0.6179  -19.2902 C   0  0  0  0  0  0  0  0  0  0  0  0
   -3.6267    1.4303  -19.5573 C   0  0  0  0  0  0  0  0  0  0  0  0
   -3.3018    1.7757  -20.8424 C   0  0  0  0  0  0  0  0  0  0  0  0
   -4.0966    1.3308  -21.9234 C   0  0  0  0  0  0  0  0  0  0  0  0
   -5.1957    0.5377  -21.6919 C   0  0  0  0  0  0  0  0  0  0  0  0
   -5.5635    0.1704  -20.3667 C   0  0  0  0  0  0  0  0  0  0  0  0
   -5.8095    0.2230  -22.5307 H   0  0  0  0  0  0  0  0  0  0  0  0
   -3.8561    1.6205  -22.9425 H   0  0  0  0  0  0  0  0  0  0  0  0
   -2.4375    2.4035  -21.0407 H   0  0  0  0  0  0  0  0  0  0  0  0
   -3.0285    1.7712  -18.7164 H   0  0  0  0  0  0  0  0  0  0  0  0
   -4.5366    0.5796  -17.1303 H   0  0  0  0  0  0  0  0  0  0  0  0
   -7.7874   -1.5804  -18.4828 H   0  0  0  0  0  0  0  0  0  0  0  0
   -7.0407   -2.3349  -21.7777 C   0  0  0  0  0  0  0  0  0  0  0  0
   -8.2572   -2.7355  -22.6225 C   0  0  2  0  0  0  0  0  0  0  0  0
   -7.8072   -3.4816  -23.8759 C   0  0  0  0  0  0  0  0  0  0  0  0
   -8.9316   -4.1192  -24.5184 N   0  0  0  0  0  0  0  0  0  0  0  0
   -8.7845   -4.6364  -25.8073 C   0  0  0  0  0  0  0  0  0  0  0  0
   -7.6360   -4.6541  -26.6441 C   0  0  0  0  0  0  0  0  0  0  0  0
   -7.8899   -5.2515  -27.8023 N   0  0  0  0  0  0  0  0  0  0  0  0
   -9.1647   -5.6315  -27.7256 N   0  0  0  0  0  0  0  0  0  0  0  0
   -9.8637   -6.0903  -28.8936 C   0  0  0  0  0  0  0  0  0  0  0  0
  -10.5819   -5.3248  -29.1927 H   0  0  0  0  0  0  0  0  0  0  0  0
  -10.3762   -7.0319  -28.6873 H   0  0  0  0  0  0  0  0  0  0  0  0
   -9.1406   -6.2233  -29.6952 H   0  0  0  0  0  0  0  0  0  0  0  0
   -9.7450   -5.2984  -26.5434 C   0  0  0  0  0  0  0  0  0  0  0  0
  -10.7681   -5.5768  -26.3151 H   0  0  0  0  0  0  0  0  0  0  0  0
   -6.6507   -4.2236  -26.4898 H   0  0  0  0  0  0  0  0  0  0  0  0
   -9.8275   -3.6808  -24.3328 H   0  0  0  0  0  0  0  0  0  0  0  0
   -7.2713   -2.7931  -24.5558 H   0  0  0  0  0  0  0  0  0  0  0  0
   -7.0645   -4.2380  -23.5916 H   0  0  0  0  0  0  0  0  0  0  0  0
   -8.8540   -3.4302  -22.0224 H   0  0  0  0  0  0  0  0  0  0  0  0
   -6.1614   -2.0918  -22.3974 H   0  0  0  0  0  0  0  0  0  0  0  0
   -6.7243   -3.1188  -21.0788 H   0  0  0  0  0  0  0  0  0  0  0  0
  -10.6234   -1.5865  -22.7768 C   0  0  0  0  0  0  0  0  0  0  0  0
  -11.2325   -2.4371  -21.8426 C   0  0  0  0  0  0  0  0  0  0  0  0
  -12.6102   -2.4112  -21.6752 C   0  0  0  0  0  0  0  0  0  0  0  0
  -13.3726   -3.2537  -20.3606 Cl  0  0  0  0  0  0  0  0  0  0  0  0
  -13.4424   -1.6362  -22.4816 C   0  0  0  0  0  0  0  0  0  0  0  0
  -12.8530   -0.7861  -23.3908 C   0  0  0  0  0  0  0  0  0  0  0  0
  -11.4628   -0.7232  -23.5019 C   0  0  0  0  0  0  0  0  0  0  0  0
  -10.9161    0.4360  -24.2727 C   0  0  0  0  0  0  0  0  0  0  0  0
  -11.6543    1.2766  -24.7713 O   0  0  0  0  0  0  0  0  0  0  0  0
  -13.4449   -0.0995  -23.9866 H   0  0  0  0  0  0  0  0  0  0  0  0
  -14.5208   -1.6928  -22.3597 H   0  0  0  0  0  0  0  0  0  0  0  0
  -10.6381   -3.1093  -21.2349 H   0  0  0  0  0  0  0  0  0  0  0  0
   -7.6833   -0.2913  -23.9916 H   0  0  0  0  0  0  0  0  0  0  0  0
   -8.7680   -1.3201  -24.9525 H   0  0  0  0  0  0  0  0  0  0  0  0
   -9.7349    2.4240  -25.0276 H   0  0  0  0  0  0  0  0  0  0  0  0
   -8.4908    1.4685  -25.8749 H   0  0  0  0  0  0  0  0  0  0  0  0
   -9.1927    2.7366  -22.5637 H   0  0  0  0  0  0  0  0  0  0  0  0
   -6.5736    4.0825  -22.5748 H   0  0  0  0  0  0  0  0  0  0  0  0
   -7.8050    4.1512  -21.2843 H   0  0  0  0  0  0  0  0  0  0  0  0
   -6.7443    2.7119  -21.4504 H   0  0  0  0  0  0  0  0  0  0  0  0
  1  2  1  0
  2  3  1  0
  3  4  2  0
  3  5  1  0
  5  6  1  0
  6  7  1  0
  8  7  1  6
  8  9  1  0
  9 10  2  0
  9 11  1  0
 11 12  1  0
 12 13  2  0
 13 14  1  0
 14 15  2  0
 15 16  1  0
 16 17  2  0
 17 18  1  0
 18 19  2  0
 19 20  1  0
 20 21  2  0
 20 22  1  0
 19 23  1  0
 18 24  1  0
 17 25  1  0
 15 26  1  0
 13 27  1  0
 11 28  1  0
 28 29  1  0
 29 30  1  0
 30 31  1  0
 31 32  1  0
 32 33  1  0
 33 34  2  0
 34 35  1  0
 35 36  1  0
 36 37  1  0
 36 38  1  0
 36 39  1  0
 35 40  1  0
 40 41  1  0
 33 42  1  0
 31 43  1  0
 30 44  1  0
 30 45  1  0
 29 46  1  1
 28 47  1  0
 28 48  1  0
  8 49  1  0
 49 50  2  0
 50 51  1  0
 51 52  1  0
 51 53  2  0
 53 54  1  0
 54 55  2  0
 55 56  1  0
 56 57  2  0
 54 58  1  0
 53 59  1  0
 50 60  1  0
  7 61  1  0
  7 62  1  0
  5 63  1  0
  5 64  1  0
  2 65  1  0
  1 66  1  0
  1 67  1  0
  1 68  1  0
 56  6  1  0
 29  8  1  0
 40 32  2  0
 55 49  1  0
 21 12  1  0
 21 16  1  0
M  END
>  <cnnaffinities>  (2) 
[6.53444]

>  <score>  (2) 
6.53444

>  <index>  (2) 
1

>  <Smiles>  (2) 
C(N(C(=O)C(N1C([C@@]2(C(=O)N(c3c(nc(c4c(c(c(c(c34)[H])[H])[H])[H])[H])[H])C([C@@]2(C(N(c2c(nn(C([H])([H])[H])c2[H])[H])[H])([H])[H])[H])([H])[H])c2c(c(Cl)c(c(c2C1=O)[H])[H])[H])([H])[H])([H])[H])[H])([H])([H])[H]

>  <h>  (2) 
<NA>

>  <Training>  (2) 
True

>  <Success>  (2) 
True

>  <enamine_searched>  (2) 
False

>  <enamine_id>  (2) 
nan

$$$$

     RDKit          3D

 60 65  0  0  0  0  0  0  0  0999 V2000
   -6.3291    1.0725  -30.6283 C   0  0  0  0  0  0  0  0  0  0  0  0
   -6.6954    1.2292  -29.1759 C   0  0  0  0  0  0  0  0  0  0  0  0
   -6.0593    0.4822  -28.1812 C   0  0  0  0  0  0  0  0  0  0  0  0
   -6.3756    0.5783  -26.8934 N   0  0  0  0  0  0  0  0  0  0  0  0
   -7.3651    1.4241  -26.5774 C   0  0  0  0  0  0  0  0  0  0  0  0
   -7.7726    1.5349  -25.1287 C   0  0  0  0  0  0  0  0  0  0  0  0
   -8.7349    0.5370  -24.6971 N   0  0  0  0  0  0  0  0  0  0  0  0
   -8.2698   -0.8076  -24.4159 C   0  0  0  0  0  0  0  0  0  0  0  0
   -8.8746   -1.3529  -23.0971 C   0  0  2  0  0  0  0  0  0  0  0  0
   -8.2978   -0.5455  -21.9052 C   0  0  0  0  0  0  0  0  0  0  0  0
   -8.5300    0.6105  -21.6218 O   0  0  0  0  0  0  0  0  0  0  0  0
   -7.4404   -1.3507  -21.1918 N   0  0  0  0  0  0  0  0  0  0  0  0
   -6.6164   -0.7964  -20.1734 C   0  0  0  0  0  0  0  0  0  0  0  0
   -6.8994   -1.0551  -18.8586 C   0  0  0  0  0  0  0  0  0  0  0  0
   -6.1925   -0.5678  -17.8084 N   0  0  0  0  0  0  0  0  0  0  0  0
   -5.1664    0.2039  -18.0742 C   0  0  0  0  0  0  0  0  0  0  0  0
   -4.7435    0.5421  -19.3915 C   0  0  0  0  0  0  0  0  0  0  0  0
   -3.6108    1.3706  -19.6266 C   0  0  0  0  0  0  0  0  0  0  0  0
   -3.2256    1.6740  -20.9033 C   0  0  0  0  0  0  0  0  0  0  0  0
   -3.9615    1.1708  -21.9982 C   0  0  0  0  0  0  0  0  0  0  0  0
   -5.0514    0.3585  -21.7972 C   0  0  0  0  0  0  0  0  0  0  0  0
   -5.4855    0.0318  -20.4809 C   0  0  0  0  0  0  0  0  0  0  0  0
   -5.5604   -0.0823  -22.6503 H   0  0  0  0  0  0  0  0  0  0  0  0
   -3.6265    1.3753  -23.0103 H   0  0  0  0  0  0  0  0  0  0  0  0
   -2.3525    2.2946  -21.0879 H   0  0  0  0  0  0  0  0  0  0  0  0
   -3.0667    1.7578  -18.7688 H   0  0  0  0  0  0  0  0  0  0  0  0
   -4.6164    0.6088  -17.2232 H   0  0  0  0  0  0  0  0  0  0  0  0
   -7.7516   -1.6794  -18.5965 H   0  0  0  0  0  0  0  0  0  0  0  0
   -7.2288   -2.6545  -21.7900 C   0  0  0  0  0  0  0  0  0  0  0  0
   -8.4013   -2.8067  -22.7814 C   0  0  2  0  0  0  0  0  0  0  0  0
   -8.0442   -3.6950  -23.9779 C   0  0  0  0  0  0  0  0  0  0  0  0
   -7.1720   -3.3041  -24.5144 H   0  0  0  0  0  0  0  0  0  0  0  0
   -8.8670   -3.7730  -24.6966 H   0  0  0  0  0  0  0  0  0  0  0  0
   -7.7945   -4.7089  -23.6487 H   0  0  0  0  0  0  0  0  0  0  0  0
   -9.2295   -3.2760  -22.2471 H   0  0  0  0  0  0  0  0  0  0  0  0
   -6.2638   -2.7076  -22.3176 H   0  0  0  0  0  0  0  0  0  0  0  0
   -7.2207   -3.4314  -21.0197 H   0  0  0  0  0  0  0  0  0  0  0  0
  -10.3819   -1.1475  -23.1592 C   0  0  0  0  0  0  0  0  0  0  0  0
  -11.2370   -1.8264  -22.2812 C   0  0  0  0  0  0  0  0  0  0  0  0
  -12.5965   -1.5964  -22.3501 C   0  0  0  0  0  0  0  0  0  0  0  0
  -13.4098   -2.2589  -21.5106 F   0  0  0  0  0  0  0  0  0  0  0  0
  -13.1650   -0.7034  -23.2530 C   0  0  0  0  0  0  0  0  0  0  0  0
  -12.3166    0.0282  -24.0594 C   0  0  0  0  0  0  0  0  0  0  0  0
  -10.9356   -0.1455  -23.9715 C   0  0  0  0  0  0  0  0  0  0  0  0
  -10.0568    0.8730  -24.6341 C   0  0  0  0  0  0  0  0  0  0  0  0
  -10.4909    1.9518  -25.0252 O   0  0  0  0  0  0  0  0  0  0  0  0
  -12.6847    0.7884  -24.7401 H   0  0  0  0  0  0  0  0  0  0  0  0
  -14.2383   -0.5529  -23.2545 H   0  0  0  0  0  0  0  0  0  0  0  0
  -10.8680   -2.4893  -21.5053 H   0  0  0  0  0  0  0  0  0  0  0  0
   -7.1787   -0.7676  -24.3337 H   0  0  0  0  0  0  0  0  0  0  0  0
   -8.5258   -1.4773  -25.2494 H   0  0  0  0  0  0  0  0  0  0  0  0
   -6.8769    1.4175  -24.5079 H   0  0  0  0  0  0  0  0  0  0  0  0
   -8.2290    2.5096  -24.9378 H   0  0  0  0  0  0  0  0  0  0  0  0
   -7.9749    2.1914  -27.5601 C   0  0  0  0  0  0  0  0  0  0  0  0
   -7.6463    2.1042  -28.8519 N   0  0  0  0  0  0  0  0  0  0  0  0
   -8.7579    2.9015  -27.2938 H   0  0  0  0  0  0  0  0  0  0  0  0
   -5.2763   -0.2266  -28.4442 H   0  0  0  0  0  0  0  0  0  0  0  0
   -6.5026    0.0425  -30.9667 H   0  0  0  0  0  0  0  0  0  0  0  0
   -6.9288    1.7534  -31.2371 H   0  0  0  0  0  0  0  0  0  0  0  0
   -5.2655    1.2913  -30.7843 H   0  0  0  0  0  0  0  0  0  0  0  0
  1  2  1  0
  2  3  2  0
  3  4  1  0
  4  5  2  0
  5  6  1  0
  6  7  1  0
  7  8  1  0
  9  8  1  6
  9 10  1  0
 10 11  2  0
 10 12  1  0
 12 13  1  0
 13 14  2  0
 14 15  1  0
 15 16  2  0
 16 17  1  0
 17 18  2  0
 18 19  1  0
 19 20  2  0
 20 21  1  0
 21 22  2  0
 21 23  1  0
 20 24  1  0
 19 25  1  0
 18 26  1  0
 16 27  1  0
 14 28  1  0
 12 29  1  0
 29 30  1  0
 30 31  1  0
 31 32  1  0
 31 33  1  0
 31 34  1  0
 30 35  1  1
 29 36  1  0
 29 37  1  0
  9 38  1  0
 38 39  2  0
 39 40  1  0
 40 41  1  0
 40 42  2  0
 42 43  1  0
 43 44  2  0
 44 45  1  0
 45 46  2  0
 43 47  1  0
 42 48  1  0
 39 49  1  0
  8 50  1  0
  8 51  1  0
  6 52  1  0
  6 53  1  0
  5 54  1  0
 54 55  2  0
 54 56  1  0
  3 57  1  0
  1 58  1  0
  1 59  1  0
  1 60  1  0
 55  2  1  0
 45  7  1  0
 30  9  1  0
 44 38  1  0
 22 13  1  0
 22 17  1  0
M  END
>  <cnnaffinities>  (3) 
[6.09885]

>  <score>  (3) 
6.09885

>  <index>  (3) 
2

>  <Smiles>  (3) 
C(c1c(nc(C(N2C([C@@]3(C(=O)N(c4c(nc(c5c(c(c(c(c45)[H])[H])[H])[H])[H])[H])C([C@@]3(C([H])([H])[H])[H])([H])[H])c3c(c(F)c(c(c3C2=O)[H])[H])[H])([H])[H])([H])[H])c(n1)[H])[H])([H])([H])[H]

>  <h>  (3) 
<NA>

>  <Training>  (3) 
True

>  <Success>  (3) 
True

>  <enamine_searched>  (3) 
False

>  <enamine_id>  (3) 
nan

$$$$

     RDKit          3D

 66 70  0  0  0  0  0  0  0  0999 V2000
   -7.3530    3.4230  -21.9027 C   0  0  0  0  0  0  0  0  0  0  0  0
   -8.3086    2.9293  -22.8827 N   0  0  0  0  0  0  0  0  0  0  0  0
   -7.8009    2.2311  -23.9389 C   0  0  0  0  0  0  0  0  0  0  0  0
   -6.6010    2.0612  -24.0784 O   0  0  0  0  0  0  0  0  0  0  0  0
   -8.8136    1.6476  -24.9264 C   0  0  0  0  0  0  0  0  0  0  0  0
   -9.4629    0.4865  -24.3435 N   0  0  0  0  0  0  0  0  0  0  0  0
   -8.6979   -0.7412  -24.1623 C   0  0  0  0  0  0  0  0  0  0  0  0
   -9.0955   -1.4984  -22.8675 C   0  0  2  0  0  0  0  0  0  0  0  0
   -8.5728   -0.7450  -21.6214 C   0  0  0  0  0  0  0  0  0  0  0  0
   -9.0525    0.2360  -21.0892 O   0  0  0  0  0  0  0  0  0  0  0  0
   -7.4200   -1.3621  -21.1946 N   0  0  0  0  0  0  0  0  0  0  0  0
   -6.6311   -0.7879  -20.1674 C   0  0  0  0  0  0  0  0  0  0  0  0
   -6.9369   -1.0409  -18.8553 C   0  0  0  0  0  0  0  0  0  0  0  0
   -6.2322   -0.5706  -17.7989 N   0  0  0  0  0  0  0  0  0  0  0  0
   -5.1950    0.1895  -18.0588 C   0  0  0  0  0  0  0  0  0  0  0  0
   -4.7719    0.5420  -19.3730 C   0  0  0  0  0  0  0  0  0  0  0  0
   -3.6446    1.3746  -19.6059 C   0  0  0  0  0  0  0  0  0  0  0  0
   -3.2840    1.7178  -20.8809 C   0  0  0  0  0  0  0  0  0  0  0  0
   -4.0397    1.2580  -21.9823 C   0  0  0  0  0  0  0  0  0  0  0  0
   -5.1256    0.4363  -21.7854 C   0  0  0  0  0  0  0  0  0  0  0  0
   -5.5158    0.0508  -20.4729 C   0  0  0  0  0  0  0  0  0  0  0  0
   -5.6925    0.0901  -22.6443 H   0  0  0  0  0  0  0  0  0  0  0  0
   -3.7579    1.5399  -22.9923 H   0  0  0  0  0  0  0  0  0  0  0  0
   -2.4148    2.3456  -21.0545 H   0  0  0  0  0  0  0  0  0  0  0  0
   -3.0881    1.7366  -18.7458 H   0  0  0  0  0  0  0  0  0  0  0  0
   -4.6302    0.5722  -17.2078 H   0  0  0  0  0  0  0  0  0  0  0  0
   -7.7959   -1.6645  -18.6219 H   0  0  0  0  0  0  0  0  0  0  0  0
   -7.0470   -2.5354  -21.9589 C   0  0  0  0  0  0  0  0  0  0  0  0
   -8.3315   -2.8581  -22.7378 C   0  0  2  0  0  0  0  0  0  0  0  0
   -8.0644   -3.6440  -24.0214 C   0  0  0  0  0  0  0  0  0  0  0  0
   -9.2724   -4.1196  -24.5815 O   0  0  0  0  0  0  0  0  0  0  0  0
   -9.5467   -5.5041  -24.3594 C   0  0  0  0  0  0  0  0  0  0  0  0
  -11.0531   -5.7011  -24.3416 C   0  0  0  0  0  0  0  0  0  0  0  0
  -11.2976   -6.7107  -23.9867 H   0  0  0  0  0  0  0  0  0  0  0  0
  -11.5442   -4.9801  -23.6798 H   0  0  0  0  0  0  0  0  0  0  0  0
  -11.4526   -5.5950  -25.3545 H   0  0  0  0  0  0  0  0  0  0  0  0
   -8.9102   -6.3650  -25.4485 C   0  0  0  0  0  0  0  0  0  0  0  0
   -9.2948   -7.3892  -25.3766 H   0  0  0  0  0  0  0  0  0  0  0  0
   -7.8173   -6.3993  -25.3778 H   0  0  0  0  0  0  0  0  0  0  0  0
   -9.1862   -5.9648  -26.4302 H   0  0  0  0  0  0  0  0  0  0  0  0
   -9.1599   -5.7942  -23.3696 H   0  0  0  0  0  0  0  0  0  0  0  0
   -7.3557   -4.4666  -23.8199 H   0  0  0  0  0  0  0  0  0  0  0  0
   -7.5825   -2.9968  -24.7650 H   0  0  0  0  0  0  0  0  0  0  0  0
   -8.9425   -3.4997  -22.0988 H   0  0  0  0  0  0  0  0  0  0  0  0
   -6.1971   -2.3310  -22.6308 H   0  0  0  0  0  0  0  0  0  0  0  0
   -6.7467   -3.3520  -21.2908 H   0  0  0  0  0  0  0  0  0  0  0  0
  -10.6088   -1.5804  -22.8231 C   0  0  0  0  0  0  0  0  0  0  0  0
  -11.2352   -2.4371  -21.9063 C   0  0  0  0  0  0  0  0  0  0  0  0
  -12.6129   -2.4074  -21.7621 C   0  0  0  0  0  0  0  0  0  0  0  0
  -13.3839   -3.2448  -20.4460 Cl  0  0  0  0  0  0  0  0  0  0  0  0
  -13.4103   -1.6240  -22.5962 C   0  0  0  0  0  0  0  0  0  0  0  0
  -12.7988   -0.7733  -23.4930 C   0  0  0  0  0  0  0  0  0  0  0  0
  -11.4110   -0.6910  -23.5526 C   0  0  0  0  0  0  0  0  0  0  0  0
  -10.8276    0.4795  -24.2823 C   0  0  0  0  0  0  0  0  0  0  0  0
  -11.5192    1.3797  -24.7437 O   0  0  0  0  0  0  0  0  0  0  0  0
  -13.3649   -0.0932  -24.1163 H   0  0  0  0  0  0  0  0  0  0  0  0
  -14.4867   -1.6293  -22.4773 H   0  0  0  0  0  0  0  0  0  0  0  0
  -10.6494   -3.0965  -21.2766 H   0  0  0  0  0  0  0  0  0  0  0  0
   -8.8687   -1.4221  -25.0077 H   0  0  0  0  0  0  0  0  0  0  0  0
   -7.6334   -0.4885  -24.1496 H   0  0  0  0  0  0  0  0  0  0  0  0
   -9.6097    2.3544  -25.1855 H   0  0  0  0  0  0  0  0  0  0  0  0
   -8.2806    1.3832  -25.8473 H   0  0  0  0  0  0  0  0  0  0  0  0
   -9.2445    2.7260  -22.5585 H   0  0  0  0  0  0  0  0  0  0  0  0
   -6.7860    2.5813  -21.4792 H   0  0  0  0  0  0  0  0  0  0  0  0
   -6.6542    4.1179  -22.3767 H   0  0  0  0  0  0  0  0  0  0  0  0
   -7.8784    3.9817  -21.1266 H   0  0  0  0  0  0  0  0  0  0  0  0
  1  2  1  0
  2  3  1  0
  3  4  2  0
  3  5  1  0
  5  6  1  0
  6  7  1  0
  8  7  1  6
  8  9  1  0
  9 10  2  0
  9 11  1  0
 11 12  1  0
 12 13  2  0
 13 14  1  0
 14 15  2  0
 15 16  1  0
 16 17  2  0
 17 18  1  0
 18 19  2  0
 19 20  1  0
 20 21  2  0
 20 22  1  0
 19 23  1  0
 18 24  1  0
 17 25  1  0
 15 26  1  0
 13 27  1  0
 11 28  1  0
 28 29  1  0
 29 30  1  0
 30 31  1  0
 31 32  1  0
 32 33  1  0
 33 34  1  0
 33 35  1  0
 33 36  1  0
 32 37  1  0
 37 38  1  0
 37 39  1  0
 37 40  1  0
 32 41  1  0
 30 42  1  0
 30 43  1  0
 29 44  1  1
 28 45  1  0
 28 46  1  0
  8 47  1  0
 47 48  2  0
 48 49  1  0
 49 50  1  0
 49 51  2  0
 51 52  1  0
 52 53  2  0
 53 54  1  0
 54 55  2  0
 52 56  1  0
 51 57  1  0
 48 58  1  0
  7 59  1  0
  7 60  1  0
  5 61  1  0
  5 62  1  0
  2 63  1  0
  1 64  1  0
  1 65  1  0
  1 66  1  0
 54  6  1  0
 29  8  1  0
 53 47  1  0
 21 12  1  0
 21 16  1  0
M  END
>  <cnnaffinities>  (4) 
[6.45811, 6.1514, 6.66602]

>  <score>  (4) 
6.45811

>  <index>  (4) 
3

>  <Smiles>  (4) 
C(N(C(=O)C(N1C([C@@]2(C(=O)N(c3c(nc(c4c(c(c(c(c34)[H])[H])[H])[H])[H])[H])C([C@@]2(C(OC(C([H])([H])[H])(C([H])([H])[H])[H])([H])[H])[H])([H])[H])c2c(c(Cl)c(c(c2C1=O)[H])[H])[H])([H])[H])([H])[H])[H])([H])([H])[H]

>  <h>  (4) 
<NA>

>  <Training>  (4) 
True

>  <Success>  (4) 
True

>  <enamine_searched>  (4) 
False

>  <enamine_id>  (4) 
nan

$$$$

     RDKit          3D

 59 64  0  0  0  0  0  0  0  0999 V2000
  -10.2811   -2.4642  -22.2592 C   0  0  0  0  0  0  0  0  0  0  0  0
   -9.0536   -1.7178  -22.8004 C   0  0  1  0  0  0  0  0  0  0  0  0
   -8.5251   -0.7147  -21.7559 C   0  0  0  0  0  0  0  0  0  0  0  0
   -7.4164   -1.4123  -21.1509 N   0  0  0  0  0  0  0  0  0  0  0  0
   -6.6212   -0.8324  -20.1368 C   0  0  0  0  0  0  0  0  0  0  0  0
   -6.9298   -1.0788  -18.8270 C   0  0  0  0  0  0  0  0  0  0  0  0
   -6.2486   -0.5716  -17.7722 N   0  0  0  0  0  0  0  0  0  0  0  0
   -5.2248    0.2043  -18.0331 C   0  0  0  0  0  0  0  0  0  0  0  0
   -4.8070    0.5525  -19.3516 C   0  0  0  0  0  0  0  0  0  0  0  0
   -3.6886    1.3966  -19.5750 C   0  0  0  0  0  0  0  0  0  0  0  0
   -3.3559    1.7764  -20.8455 C   0  0  0  0  0  0  0  0  0  0  0  0
   -4.1156    1.3177  -21.9489 C   0  0  0  0  0  0  0  0  0  0  0  0
   -5.1712    0.4572  -21.7667 C   0  0  0  0  0  0  0  0  0  0  0  0
   -5.5363    0.0470  -20.4478 C   0  0  0  0  0  0  0  0  0  0  0  0
   -5.7120    0.0708  -22.6310 H   0  0  0  0  0  0  0  0  0  0  0  0
   -3.8429    1.6311  -22.9531 H   0  0  0  0  0  0  0  0  0  0  0  0
   -2.5101    2.4363  -21.0183 H   0  0  0  0  0  0  0  0  0  0  0  0
   -3.1223    1.7379  -18.7119 H   0  0  0  0  0  0  0  0  0  0  0  0
   -4.6672    0.6112  -17.1877 H   0  0  0  0  0  0  0  0  0  0  0  0
   -7.7610   -1.7396  -18.5885 H   0  0  0  0  0  0  0  0  0  0  0  0
   -6.9829   -2.5113  -21.8509 C   0  0  0  0  0  0  0  0  0  0  0  0
   -6.1196   -3.2667  -21.4615 O   0  0  0  0  0  0  0  0  0  0  0  0
   -7.8284   -2.6320  -23.1371 C   0  0  1  0  0  0  0  0  0  0  0  0
   -8.2010   -4.1237  -23.2957 C   0  0  0  0  0  0  0  0  0  0  0  0
   -7.0486   -4.9118  -23.7004 N   0  0  0  0  0  0  0  0  0  0  0  0
   -6.8541   -6.2054  -23.0717 C   0  0  0  0  0  0  0  0  0  0  0  0
   -7.9859   -7.1385  -23.3815 C   0  0  0  0  0  0  0  0  0  0  0  0
   -8.7312   -7.6693  -22.4446 N   0  0  0  0  0  0  0  0  0  0  0  0
   -9.6354   -8.4570  -23.1084 C   0  0  0  0  0  0  0  0  0  0  0  0
   -9.4321   -8.3927  -24.4524 C   0  0  0  0  0  0  0  0  0  0  0  0
   -8.3725   -7.5292  -24.6400 N   0  0  0  0  0  0  0  0  0  0  0  0
   -7.8419   -7.1751  -25.9588 C   0  0  0  0  0  0  0  0  0  0  0  0
   -8.2623   -7.8815  -26.6816 H   0  0  0  0  0  0  0  0  0  0  0  0
   -8.1199   -6.1610  -26.2763 H   0  0  0  0  0  0  0  0  0  0  0  0
   -6.7533   -7.2503  -25.9849 H   0  0  0  0  0  0  0  0  0  0  0  0
   -9.9517   -8.8671  -25.2683 H   0  0  0  0  0  0  0  0  0  0  0  0
  -10.3376   -9.0704  -22.5671 H   0  0  0  0  0  0  0  0  0  0  0  0
   -5.8949   -6.6024  -23.4318 H   0  0  0  0  0  0  0  0  0  0  0  0
   -6.8013   -6.0807  -21.9776 H   0  0  0  0  0  0  0  0  0  0  0  0
   -6.2283   -4.5418  -24.7190 C   0  0  0  0  0  0  0  0  0  0  0  0
   -5.4265   -5.3149  -25.2332 O   0  0  0  0  0  0  0  0  0  0  0  0
   -6.3485   -3.1208  -25.1636 C   0  0  0  0  0  0  0  0  0  0  0  0
   -5.7103   -2.7693  -26.3524 C   0  0  0  0  0  0  0  0  0  0  0  0
   -5.7257   -1.4671  -26.7983 C   0  0  0  0  0  0  0  0  0  0  0  0
   -6.3878   -0.5333  -26.0143 C   0  0  0  0  0  0  0  0  0  0  0  0
   -6.4040    0.7453  -26.4287 F   0  0  0  0  0  0  0  0  0  0  0  0
   -7.0470   -0.8595  -24.8415 C   0  0  0  0  0  0  0  0  0  0  0  0
   -7.0690   -2.1907  -24.3998 C   0  0  0  0  0  0  0  0  0  0  0  0
   -7.5524   -0.0570  -24.3143 H   0  0  0  0  0  0  0  0  0  0  0  0
   -5.2383   -1.1715  -27.7195 H   0  0  0  0  0  0  0  0  0  0  0  0
   -5.2065   -3.5402  -26.9253 H   0  0  0  0  0  0  0  0  0  0  0  0
   -8.5507   -4.5277  -22.3441 H   0  0  0  0  0  0  0  0  0  0  0  0
   -9.0163   -4.2343  -24.0242 H   0  0  0  0  0  0  0  0  0  0  0  0
   -9.2690   -0.4614  -20.9949 H   0  0  0  0  0  0  0  0  0  0  0  0
   -8.1986    0.2325  -22.2072 H   0  0  0  0  0  0  0  0  0  0  0  0
   -9.3757   -1.1952  -23.7036 H   0  0  0  0  0  0  0  0  0  0  0  0
  -11.0909   -1.7674  -22.0227 H   0  0  0  0  0  0  0  0  0  0  0  0
  -10.0539   -3.0237  -21.3472 H   0  0  0  0  0  0  0  0  0  0  0  0
  -10.6705   -3.1736  -22.9926 H   0  0  0  0  0  0  0  0  0  0  0  0
  1  2  1  0
  2  3  1  0
  3  4  1  0
  4  5  1  0
  5  6  2  0
  6  7  1  0
  7  8  2  0
  8  9  1  0
  9 10  2  0
 10 11  1  0
 11 12  2  0
 12 13  1  0
 13 14  2  0
 13 15  1  0
 12 16  1  0
 11 17  1  0
 10 18  1  0
  8 19  1  0
  6 20  1  0
  4 21  1  0
 21 22  2  0
 21 23  1  0
 23 24  1  6
 24 25  1  0
 25 26  1  0
 26 27  1  0
 27 28  2  0
 28 29  1  0
 29 30  2  0
 30 31  1  0
 31 32  1  0
 32 33  1  0
 32 34  1  0
 32 35  1  0
 30 36  1  0
 29 37  1  0
 26 38  1  0
 26 39  1  0
 25 40  1  0
 40 41  2  0
 40 42  1  0
 42 43  2  0
 43 44  1  0
 44 45  2  0
 45 46  1  0
 45 47  1  0
 47 48  2  0
 47 49  1  0
 44 50  1  0
 43 51  1  0
 24 52  1  0
 24 53  1  0
  3 54  1  0
  3 55  1  0
  2 56  1  6
  1 57  1  0
  1 58  1  0
  1 59  1  0
 23  2  1  0
 31 27  1  0
 48 42  1  0
 14  5  1  0
 48 23  1  0
 14  9  1  0
M  END
>  <cnnaffinities>  (5) 
[6.06984]

>  <score>  (5) 
6.06984

>  <index>  (5) 
4

>  <Smiles>  (5) 
C([C@]1(C(N(c2c(nc(c3c(c(c(c(c23)[H])[H])[H])[H])[H])[H])C(=O)[C@]21C(N(C(c1nc(c(n1C([H])([H])[H])[H])[H])([H])[H])C(=O)c1c(c(c(F)c(c21)[H])[H])[H])([H])[H])([H])[H])[H])([H])([H])[H]

>  <h>  (5) 
<NA>

>  <Training>  (5) 
True

>  <Success>  (5) 
True

>  <enamine_searched>  (5) 
False

>  <enamine_id>  (5) 
nan

$$$$

     RDKit          3D

 58 61  0  0  0  0  0  0  0  0999 V2000
   -5.0898   -3.0642  -22.4360 C   0  0  0  0  0  0  0  0  0  0  0  0
   -6.4076   -3.2403  -22.4105 C   0  0  0  0  0  0  0  0  0  0  0  0
   -7.3905   -2.7890  -21.3686 C   0  0  0  0  0  0  0  0  0  0  0  0
   -7.4263   -1.3424  -21.1990 N   0  0  0  0  0  0  0  0  0  0  0  0
   -8.2481   -0.4597  -21.8857 C   0  0  0  0  0  0  0  0  0  0  0  0
   -8.3616    0.6971  -21.5035 O   0  0  0  0  0  0  0  0  0  0  0  0
   -8.9709   -0.9562  -23.1499 C   0  0  2  0  0  0  0  0  0  0  0  0
   -8.5020   -0.1255  -24.3694 C   0  0  0  0  0  0  0  0  0  0  0  0
   -9.0175    1.2380  -24.3488 N   0  0  0  0  0  0  0  0  0  0  0  0
   -8.1869    2.3057  -24.8573 C   0  0  0  0  0  0  0  0  0  0  0  0
   -7.1595    2.7623  -23.8233 C   0  0  0  0  0  0  0  0  0  0  0  0
   -5.9754    2.4947  -23.9382 O   0  0  0  0  0  0  0  0  0  0  0  0
   -7.6474    3.4984  -22.7876 N   0  0  0  0  0  0  0  0  0  0  0  0
   -6.7469    3.7994  -21.6907 C   0  0  0  0  0  0  0  0  0  0  0  0
   -7.2965    4.3160  -20.9014 H   0  0  0  0  0  0  0  0  0  0  0  0
   -5.9451    4.4531  -22.0437 H   0  0  0  0  0  0  0  0  0  0  0  0
   -6.2978    2.8738  -21.3009 H   0  0  0  0  0  0  0  0  0  0  0  0
   -8.6307    3.4030  -22.5626 H   0  0  0  0  0  0  0  0  0  0  0  0
   -8.8544    3.1302  -25.1169 H   0  0  0  0  0  0  0  0  0  0  0  0
   -7.6553    1.9624  -25.7477 H   0  0  0  0  0  0  0  0  0  0  0  0
  -10.2753    1.5613  -23.9324 C   0  0  0  0  0  0  0  0  0  0  0  0
  -10.7192    2.7034  -24.0109 O   0  0  0  0  0  0  0  0  0  0  0  0
  -11.0721    0.4510  -23.3420 C   0  0  0  0  0  0  0  0  0  0  0  0
  -12.4303    0.6711  -23.1219 C   0  0  0  0  0  0  0  0  0  0  0  0
  -13.2134   -0.3158  -22.5578 C   0  0  0  0  0  0  0  0  0  0  0  0
  -12.6100   -1.5221  -22.2040 C   0  0  0  0  0  0  0  0  0  0  0  0
  -13.5708   -2.7591  -21.4558 Cl  0  0  0  0  0  0  0  0  0  0  0  0
  -11.2565   -1.7448  -22.4069 C   0  0  0  0  0  0  0  0  0  0  0  0
  -10.4688   -0.7554  -22.9895 C   0  0  0  0  0  0  0  0  0  0  0  0
  -10.8153   -2.6912  -22.1089 H   0  0  0  0  0  0  0  0  0  0  0  0
  -14.2718   -0.1536  -22.3773 H   0  0  0  0  0  0  0  0  0  0  0  0
  -12.8366    1.6354  -23.4066 H   0  0  0  0  0  0  0  0  0  0  0  0
   -7.4067   -0.0694  -24.3882 H   0  0  0  0  0  0  0  0  0  0  0  0
   -8.8335   -0.6284  -25.2868 H   0  0  0  0  0  0  0  0  0  0  0  0
   -8.7331   -2.0178  -23.3441 H   0  0  0  0  0  0  0  0  0  0  0  0
   -6.6343   -0.7843  -20.1689 C   0  0  0  0  0  0  0  0  0  0  0  0
   -6.9407   -1.0532  -18.8595 C   0  0  0  0  0  0  0  0  0  0  0  0
   -6.2529   -0.5730  -17.8031 N   0  0  0  0  0  0  0  0  0  0  0  0
   -5.2214    0.1986  -18.0653 C   0  0  0  0  0  0  0  0  0  0  0  0
   -4.7979    0.5554  -19.3763 C   0  0  0  0  0  0  0  0  0  0  0  0
   -3.6582    1.3693  -19.6068 C   0  0  0  0  0  0  0  0  0  0  0  0
   -3.2810    1.6976  -20.8813 C   0  0  0  0  0  0  0  0  0  0  0  0
   -4.0228    1.2322  -21.9863 C   0  0  0  0  0  0  0  0  0  0  0  0
   -5.0969    0.3945  -21.7885 C   0  0  0  0  0  0  0  0  0  0  0  0
   -5.5298    0.0572  -20.4776 C   0  0  0  0  0  0  0  0  0  0  0  0
   -5.6157   -0.0216  -22.6486 H   0  0  0  0  0  0  0  0  0  0  0  0
   -3.7477    1.5275  -22.9931 H   0  0  0  0  0  0  0  0  0  0  0  0
   -2.3981    2.3064  -21.0463 H   0  0  0  0  0  0  0  0  0  0  0  0
   -3.0976    1.7216  -18.7456 H   0  0  0  0  0  0  0  0  0  0  0  0
   -4.6581    0.5801  -17.2136 H   0  0  0  0  0  0  0  0  0  0  0  0
   -7.7962   -1.6852  -18.6295 H   0  0  0  0  0  0  0  0  0  0  0  0
   -8.3535   -3.1811  -21.7013 H   0  0  0  0  0  0  0  0  0  0  0  0
   -7.1110   -3.2105  -20.4029 H   0  0  0  0  0  0  0  0  0  0  0  0
   -7.1553   -3.8822  -23.5621 C   0  0  0  0  0  0  0  0  0  0  0  0
   -8.3966   -3.8705  -23.4607 O   0  0  0  0  0  0  0  0  0  0  0  0
   -6.4582   -4.3213  -24.4970 O   0  0  0  0  0  1  0  0  0  0  0  0
   -4.4690   -3.4504  -23.2418 H   0  0  0  0  0  0  0  0  0  0  0  0
   -4.6225   -2.4778  -21.6476 H   0  0  0  0  0  0  0  0  0  0  0  0
  1  2  2  0
  2  3  1  0
  3  4  1  0
  4  5  1  0
  5  6  2  0
  5  7  1  0
  7  8  1  0
  8  9  1  0
  9 10  1  0
 10 11  1  0
 11 12  2  0
 11 13  1  0
 13 14  1  0
 14 15  1  0
 14 16  1  0
 14 17  1  0
 13 18  1  0
 10 19  1  0
 10 20  1  0
  9 21  1  0
 21 22  2  0
 21 23  1  0
 23 24  2  0
 24 25  1  0
 25 26  2  0
 26 27  1  0
 26 28  1  0
 28 29  2  0
 28 30  1  0
 25 31  1  0
 24 32  1  0
  8 33  1  0
  8 34  1  0
  7 35  1  6
  4 36  1  0
 36 37  2  0
 37 38  1  0
 38 39  2  0
 39 40  1  0
 40 41  2  0
 41 42  1  0
 42 43  2  0
 43 44  1  0
 44 45  2  0
 44 46  1  0
 43 47  1  0
 42 48  1  0
 41 49  1  0
 39 50  1  0
 37 51  1  0
  3 52  1  0
  3 53  1  0
  2 54  1  0
 54 55  2  0
 54 56  1  0
  1 57  1  0
  1 58  1  0
 29  7  1  0
 45 36  1  0
 29 23  1  0
 45 40  1  0
M  CHG  1  56  -1
M  END
>  <cnnaffinities>  (6) 
[6.20168]

>  <score>  (6) 
6.20168

>  <index>  (6) 
5

>  <Smiles>  (6) 
C(=C(C(N(C(=O)[C@@]1(C(N(C(C(=O)N(C([H])([H])[H])[H])([H])[H])C(=O)c2c(c(c(Cl)c(c12)[H])[H])[H])([H])[H])[H])c1c(nc(c2c(c(c(c(c12)[H])[H])[H])[H])[H])[H])([H])[H])C(=O)[O-])([H])[H]

>  <h>  (6) 
<NA>

>  <Training>  (6) 
True

>  <Success>  (6) 
True

>  <enamine_searched>  (6) 
False

>  <enamine_id>  (6) 
nan

$$$$

     RDKit          3D

 43 45  0  0  0  0  0  0  0  0999 V2000
  -10.4014   -6.8010  -25.6536 C   0  0  0  0  0  0  0  0  0  0  0  0
   -9.2240   -6.8725  -24.6899 C   0  0  0  0  0  0  0  0  0  0  0  0
   -9.3330   -5.9161  -23.4932 C   0  0  0  0  0  0  0  0  0  0  0  0
   -9.3612   -4.4506  -23.9341 C   0  0  0  0  0  0  0  0  0  0  0  0
   -8.9556   -3.4600  -22.8512 C   0  0  0  0  0  0  0  0  0  0  0  0
   -7.6146   -3.7382  -22.3546 N   0  0  0  0  0  0  0  0  0  0  0  0
   -6.7917   -2.7965  -21.7889 C   0  0  0  0  0  0  0  0  0  0  0  0
   -5.5921   -2.9885  -21.6780 O   0  0  0  0  0  0  0  0  0  0  0  0
   -7.4235   -1.4871  -21.2554 C   0  0  0  0  0  0  0  0  0  0  0  0
   -6.5820   -0.8293  -20.1814 C   0  0  0  0  0  0  0  0  0  0  0  0
   -6.8730   -1.0441  -18.8597 C   0  0  0  0  0  0  0  0  0  0  0  0
   -6.1865   -0.5455  -17.7989 N   0  0  0  0  0  0  0  0  0  0  0  0
   -5.1568    0.2223  -18.0632 C   0  0  0  0  0  0  0  0  0  0  0  0
   -4.7219    0.5340  -19.3794 C   0  0  0  0  0  0  0  0  0  0  0  0
   -3.5922    1.3609  -19.6161 C   0  0  0  0  0  0  0  0  0  0  0  0
   -3.1964    1.6491  -20.8948 C   0  0  0  0  0  0  0  0  0  0  0  0
   -3.9308    1.1373  -21.9846 C   0  0  0  0  0  0  0  0  0  0  0  0
   -5.0184    0.3195  -21.7806 C   0  0  0  0  0  0  0  0  0  0  0  0
   -5.4495   -0.0049  -20.4705 C   0  0  0  0  0  0  0  0  0  0  0  0
   -5.5152   -0.1319  -22.6330 H   0  0  0  0  0  0  0  0  0  0  0  0
   -3.5802    1.3176  -22.9966 H   0  0  0  0  0  0  0  0  0  0  0  0
   -2.3247    2.2718  -21.0833 H   0  0  0  0  0  0  0  0  0  0  0  0
   -3.0524    1.7731  -18.7662 H   0  0  0  0  0  0  0  0  0  0  0  0
   -4.6014    0.6285  -17.2155 H   0  0  0  0  0  0  0  0  0  0  0  0
   -7.7198   -1.6701  -18.5843 H   0  0  0  0  0  0  0  0  0  0  0  0
   -8.4254   -1.6909  -20.8476 H   0  0  0  0  0  0  0  0  0  0  0  0
   -7.5687   -0.7863  -22.0895 H   0  0  0  0  0  0  0  0  0  0  0  0
   -7.1002   -5.0949  -22.5597 C   0  0  0  0  0  0  0  0  0  0  0  0
   -8.2171   -6.1292  -22.4617 C   0  0  0  0  0  0  0  0  0  0  0  0
   -8.6363   -6.0959  -21.4516 H   0  0  0  0  0  0  0  0  0  0  0  0
   -7.8028   -7.1366  -22.5700 H   0  0  0  0  0  0  0  0  0  0  0  0
   -6.3442   -5.2961  -21.8005 H   0  0  0  0  0  0  0  0  0  0  0  0
   -6.5872   -5.1787  -23.5270 H   0  0  0  0  0  0  0  0  0  0  0  0
   -9.6937   -3.4809  -22.0379 H   0  0  0  0  0  0  0  0  0  0  0  0
   -8.9858   -2.4480  -23.2694 H   0  0  0  0  0  0  0  0  0  0  0  0
  -10.3708   -4.2057  -24.2398 H   0  0  0  0  0  0  0  0  0  0  0  0
   -8.7385   -4.2959  -24.8237 H   0  0  0  0  0  0  0  0  0  0  0  0
  -10.2875   -6.1367  -22.9950 H   0  0  0  0  0  0  0  0  0  0  0  0
   -8.2924   -6.6708  -25.2311 H   0  0  0  0  0  0  0  0  0  0  0  0
   -9.1362   -7.9002  -24.3167 H   0  0  0  0  0  0  0  0  0  0  0  0
  -10.3277   -7.5700  -26.4303 H   0  0  0  0  0  0  0  0  0  0  0  0
  -10.4633   -5.8303  -26.1542 H   0  0  0  0  0  0  0  0  0  0  0  0
  -11.3464   -6.9557  -25.1232 H   0  0  0  0  0  0  0  0  0  0  0  0
  1  2  1  0
  2  3  1  0
  3  4  1  0
  4  5  1  0
  5  6  1  0
  6  7  1  0
  7  8  2  0
  7  9  1  0
  9 10  1  0
 10 11  2  0
 11 12  1  0
 12 13  2  0
 13 14  1  0
 14 15  2  0
 15 16  1  0
 16 17  2  0
 17 18  1  0
 18 19  2  0
 18 20  1  0
 17 21  1  0
 16 22  1  0
 15 23  1  0
 13 24  1  0
 11 25  1  0
  9 26  1  0
  9 27  1  0
  6 28  1  0
 28 29  1  0
 29 30  1  0
 29 31  1  0
 28 32  1  0
 28 33  1  0
  5 34  1  0
  5 35  1  0
  4 36  1  0
  4 37  1  0
  3 38  1  0
  2 39  1  0
  2 40  1  0
  1 41  1  0
  1 42  1  0
  1 43  1  0
 29  3  1  0
 19 10  1  0
 19 14  1  0
M  END
>  <cnnaffinities>  (7) 
[4.41378, 4.41341, 4.25124, 4.25022]

>  <score>  (7) 
4.41378

>  <index>  (7) 
6

>  <Smiles>  (7) 
C(C(C1(C(C(N(C(=O)C(c2c(nc(c3c(c(c(c(c23)[H])[H])[H])[H])[H])[H])([H])[H])C(C1([H])[H])([H])[H])([H])[H])([H])[H])[H])([H])[H])([H])([H])[H]

>  <h>  (7) 
<NA>

>  <Training>  (7) 
True

>  <Success>  (7) 
True

>  <enamine_searched>  (7) 
False

>  <enamine_id>  (7) 
nan

$$$$

     RDKit          3D

 44 47  0  0  0  0  0  0  0  0999 V2000
   -8.8899   -7.8947  -23.5681 C   0  0  0  0  0  0  0  0  0  0  0  0
   -8.9383   -7.3029  -24.9686 C   0  0  0  0  0  0  0  0  0  0  0  0
   -9.2833   -5.5482  -24.9838 S   0  0  0  0  0  0  0  0  0  0  0  0
  -10.5028   -5.3530  -24.2062 O   0  0  0  0  0  0  0  0  0  0  0  0
   -9.2026   -5.0899  -26.3560 O   0  0  0  0  0  0  0  0  0  0  0  0
   -7.9904   -4.8045  -24.1703 N   0  0  0  0  0  0  0  0  0  0  0  0
   -7.9857   -3.3008  -24.2797 C   0  0  0  0  0  0  0  0  0  0  0  0
   -8.0700   -3.1826  -22.7349 C   0  0  0  0  0  0  0  0  0  0  0  0
   -8.0860   -4.7231  -22.6885 C   0  0  0  0  0  0  0  0  0  0  0  0
   -7.1842   -5.1295  -22.2341 H   0  0  0  0  0  0  0  0  0  0  0  0
   -8.9861   -5.1663  -22.2540 H   0  0  0  0  0  0  0  0  0  0  0  0
   -6.8692   -2.5427  -22.0515 C   0  0  0  0  0  0  0  0  0  0  0  0
   -5.7085   -2.8313  -22.2128 O   0  0  0  0  0  0  0  0  0  0  0  0
   -7.3661   -1.5394  -21.2166 N   0  0  0  0  0  0  0  0  0  0  0  0
   -6.6010   -0.8672  -20.2023 C   0  0  0  0  0  0  0  0  0  0  0  0
   -6.9120   -1.0680  -18.8791 C   0  0  0  0  0  0  0  0  0  0  0  0
   -6.2161   -0.5556  -17.8324 N   0  0  0  0  0  0  0  0  0  0  0  0
   -5.1825    0.2026  -18.0967 C   0  0  0  0  0  0  0  0  0  0  0  0
   -4.7550    0.5272  -19.4124 C   0  0  0  0  0  0  0  0  0  0  0  0
   -3.6234    1.3635  -19.6326 C   0  0  0  0  0  0  0  0  0  0  0  0
   -3.2407    1.6848  -20.9049 C   0  0  0  0  0  0  0  0  0  0  0  0
   -3.9880    1.1951  -21.9975 C   0  0  0  0  0  0  0  0  0  0  0  0
   -5.0758    0.3754  -21.8087 C   0  0  0  0  0  0  0  0  0  0  0  0
   -5.4895   -0.0009  -20.5023 C   0  0  0  0  0  0  0  0  0  0  0  0
   -5.5973   -0.0352  -22.6660 H   0  0  0  0  0  0  0  0  0  0  0  0
   -3.6635    1.4178  -23.0085 H   0  0  0  0  0  0  0  0  0  0  0  0
   -2.3680    2.3084  -21.0850 H   0  0  0  0  0  0  0  0  0  0  0  0
   -3.0814    1.7465  -18.7710 H   0  0  0  0  0  0  0  0  0  0  0  0
   -4.6314    0.6060  -17.2455 H   0  0  0  0  0  0  0  0  0  0  0  0
   -7.7597   -1.6877  -18.6020 H   0  0  0  0  0  0  0  0  0  0  0  0
   -8.7594   -1.3847  -21.4093 C   0  0  0  0  0  0  0  0  0  0  0  0
   -9.4387   -0.4613  -21.0170 O   0  0  0  0  0  0  0  0  0  0  0  0
   -9.1704   -2.4513  -22.1700 N   0  0  0  0  0  0  0  0  0  0  0  0
  -10.5642   -2.7690  -22.4125 C   0  0  0  0  0  0  0  0  0  0  0  0
  -11.1430   -1.9721  -21.9455 H   0  0  0  0  0  0  0  0  0  0  0  0
  -10.8393   -3.7356  -21.9678 H   0  0  0  0  0  0  0  0  0  0  0  0
  -10.7742   -2.8026  -23.4874 H   0  0  0  0  0  0  0  0  0  0  0  0
   -8.8368   -2.8811  -24.8289 H   0  0  0  0  0  0  0  0  0  0  0  0
   -7.0569   -2.9339  -24.7163 H   0  0  0  0  0  0  0  0  0  0  0  0
   -9.7670   -7.7216  -25.5560 H   0  0  0  0  0  0  0  0  0  0  0  0
   -8.0141   -7.4389  -25.5372 H   0  0  0  0  0  0  0  0  0  0  0  0
   -8.7953   -8.9802  -23.6423 H   0  0  0  0  0  0  0  0  0  0  0  0
   -9.8056   -7.6628  -23.0196 H   0  0  0  0  0  0  0  0  0  0  0  0
   -8.0322   -7.5174  -23.0019 H   0  0  0  0  0  0  0  0  0  0  0  0
  1  2  1  0
  2  3  1  0
  3  4  2  0
  3  5  2  0
  3  6  1  0
  6  7  1  0
  7  8  1  0
  8  9  1  0
  9 10  1  0
  9 11  1  0
  8 12  1  0
 12 13  2  0
 12 14  1  0
 14 15  1  0
 15 16  2  0
 16 17  1  0
 17 18  2  0
 18 19  1  0
 19 20  2  0
 20 21  1  0
 21 22  2  0
 22 23  1  0
 23 24  2  0
 23 25  1  0
 22 26  1  0
 21 27  1  0
 20 28  1  0
 18 29  1  0
 16 30  1  0
 14 31  1  0
 31 32  2  0
 31 33  1  0
 33 34  1  0
 34 35  1  0
 34 36  1  0
 34 37  1  0
  7 38  1  0
  7 39  1  0
  2 40  1  0
  2 41  1  0
  1 42  1  0
  1 43  1  0
  1 44  1  0
  9  6  1  0
 24 15  1  0
 33  8  1  0
 24 19  1  0
M  END
>  <cnnaffinities>  (8) 
[4.67358, 4.68852]

>  <score>  (8) 
4.67358

>  <index>  (8) 
7

>  <Smiles>  (8) 
C(C(S(=O)(=O)N1C(C2(C1([H])[H])C(=O)N(c1c(nc(c3c(c(c(c(c13)[H])[H])[H])[H])[H])[H])C(=O)N2C([H])([H])[H])([H])[H])([H])[H])([H])([H])[H]

>  <h>  (8) 
<NA>

>  <Training>  (8) 
True

>  <Success>  (8) 
True

>  <enamine_searched>  (8) 
False

>  <enamine_id>  (8) 
nan

$$$$

     RDKit          3D

 60 64  0  0  0  0  0  0  0  0999 V2000
   -7.4119    3.3824  -21.7873 C   0  0  0  0  0  0  0  0  0  0  0  0
   -8.2827    2.9250  -22.8511 N   0  0  0  0  0  0  0  0  0  0  0  0
   -7.7135    2.2371  -23.8718 C   0  0  0  0  0  0  0  0  0  0  0  0
   -6.4998    2.1336  -23.9873 O   0  0  0  0  0  0  0  0  0  0  0  0
   -8.6626    1.6169  -24.8973 C   0  0  0  0  0  0  0  0  0  0  0  0
   -9.3864    0.4626  -24.3968 N   0  0  0  0  0  0  0  0  0  0  0  0
   -8.6726   -0.7954  -24.2305 C   0  0  0  0  0  0  0  0  0  0  0  0
   -9.0672   -1.5175  -22.9139 C   0  0  2  0  0  0  0  0  0  0  0  0
   -8.5151   -0.7274  -21.6931 C   0  0  0  0  0  0  0  0  0  0  0  0
   -8.9599    0.2955  -21.2209 O   0  0  0  0  0  0  0  0  0  0  0  0
   -7.4065   -1.3841  -21.2028 N   0  0  0  0  0  0  0  0  0  0  0  0
   -6.6071   -0.8083  -20.1735 C   0  0  0  0  0  0  0  0  0  0  0  0
   -6.9083   -1.0464  -18.8584 C   0  0  0  0  0  0  0  0  0  0  0  0
   -6.2031   -0.5572  -17.8078 N   0  0  0  0  0  0  0  0  0  0  0  0
   -5.1690    0.2042  -18.0735 C   0  0  0  0  0  0  0  0  0  0  0  0
   -4.7370    0.5387  -19.3873 C   0  0  0  0  0  0  0  0  0  0  0  0
   -3.6107    1.3754  -19.6308 C   0  0  0  0  0  0  0  0  0  0  0  0
   -3.2361    1.6850  -20.9096 C   0  0  0  0  0  0  0  0  0  0  0  0
   -3.9775    1.1827  -22.0015 C   0  0  0  0  0  0  0  0  0  0  0  0
   -5.0639    0.3657  -21.7925 C   0  0  0  0  0  0  0  0  0  0  0  0
   -5.4797    0.0225  -20.4790 C   0  0  0  0  0  0  0  0  0  0  0  0
   -5.5965   -0.0464  -22.6448 H   0  0  0  0  0  0  0  0  0  0  0  0
   -3.6731    1.4036  -23.0190 H   0  0  0  0  0  0  0  0  0  0  0  0
   -2.3672    2.3115  -21.0933 H   0  0  0  0  0  0  0  0  0  0  0  0
   -3.0677    1.7672  -18.7744 H   0  0  0  0  0  0  0  0  0  0  0  0
   -4.6205    0.6094  -17.2219 H   0  0  0  0  0  0  0  0  0  0  0  0
   -7.7624   -1.6696  -18.6031 H   0  0  0  0  0  0  0  0  0  0  0  0
   -7.0700   -2.5977  -21.9211 C   0  0  0  0  0  0  0  0  0  0  0  0
   -8.3307   -2.8874  -22.7613 C   0  0  2  0  0  0  0  0  0  0  0  0
   -7.9813   -3.6549  -24.0346 C   0  0  0  0  0  0  0  0  0  0  0  0
   -9.1508   -3.9345  -24.7630 O   0  0  0  0  0  0  0  0  0  0  0  0
   -8.8682   -4.5821  -25.9804 C   0  0  0  0  0  0  0  0  0  0  0  0
   -8.2692   -3.9463  -26.6526 H   0  0  0  0  0  0  0  0  0  0  0  0
   -8.3152   -5.5204  -25.8192 H   0  0  0  0  0  0  0  0  0  0  0  0
   -9.8221   -4.8086  -26.4614 H   0  0  0  0  0  0  0  0  0  0  0  0
   -7.2778   -3.0677  -24.6495 H   0  0  0  0  0  0  0  0  0  0  0  0
   -7.4688   -4.5990  -23.7796 H   0  0  0  0  0  0  0  0  0  0  0  0
   -9.0007   -3.5239  -22.1844 H   0  0  0  0  0  0  0  0  0  0  0  0
   -6.1875   -2.4446  -22.5647 H   0  0  0  0  0  0  0  0  0  0  0  0
   -6.8294   -3.4090  -21.2218 H   0  0  0  0  0  0  0  0  0  0  0  0
  -10.5918   -1.5649  -22.8515 C   0  0  0  0  0  0  0  0  0  0  0  0
  -11.2346   -2.4069  -21.9329 C   0  0  0  0  0  0  0  0  0  0  0  0
  -12.6101   -2.3558  -21.7934 C   0  0  0  0  0  0  0  0  0  0  0  0
  -13.4142   -3.1790  -20.4906 Cl  0  0  0  0  0  0  0  0  0  0  0  0
  -13.3861   -1.5528  -22.6284 C   0  0  0  0  0  0  0  0  0  0  0  0
  -12.7645   -0.6702  -23.4858 C   0  0  0  0  0  0  0  0  0  0  0  0
  -11.3737   -0.6364  -23.5575 C   0  0  0  0  0  0  0  0  0  0  0  0
  -10.7519    0.5077  -24.3042 C   0  0  0  0  0  0  0  0  0  0  0  0
  -11.4297    1.4253  -24.7529 O   0  0  0  0  0  0  0  0  0  0  0  0
  -13.3143    0.0745  -24.0564 H   0  0  0  0  0  0  0  0  0  0  0  0
  -14.4618   -1.5910  -22.5481 H   0  0  0  0  0  0  0  0  0  0  0  0
  -10.6578   -3.0698  -21.2999 H   0  0  0  0  0  0  0  0  0  0  0  0
   -8.8831   -1.4710  -25.0724 H   0  0  0  0  0  0  0  0  0  0  0  0
   -7.6026   -0.5562  -24.2155 H   0  0  0  0  0  0  0  0  0  0  0  0
   -9.4331    2.3217  -25.2191 H   0  0  0  0  0  0  0  0  0  0  0  0
   -8.0323    1.3397  -25.7506 H   0  0  0  0  0  0  0  0  0  0  0  0
   -9.2777    2.8361  -22.6887 H   0  0  0  0  0  0  0  0  0  0  0  0
   -6.7155    4.1449  -22.1539 H   0  0  0  0  0  0  0  0  0  0  0  0
   -6.8201    2.5375  -21.3997 H   0  0  0  0  0  0  0  0  0  0  0  0
   -8.0268    3.8255  -21.0054 H   0  0  0  0  0  0  0  0  0  0  0  0
  1  2  1  0
  2  3  1  0
  3  4  2  0
  3  5  1  0
  5  6  1  0
  6  7  1  0
  8  7  1  6
  8  9  1  0
  9 10  2  0
  9 11  1  0
 11 12  1  0
 12 13  2  0
 13 14  1  0
 14 15  2  0
 15 16  1  0
 16 17  2  0
 17 18  1  0
 18 19  2  0
 19 20  1  0
 20 21  2  0
 20 22  1  0
 19 23  1  0
 18 24  1  0
 17 25  1  0
 15 26  1  0
 13 27  1  0
 11 28  1  0
 28 29  1  0
 29 30  1  0
 30 31  1  0
 31 32  1  0
 32 33  1  0
 32 34  1  0
 32 35  1  0
 30 36  1  0
 30 37  1  0
 29 38  1  1
 28 39  1  0
 28 40  1  0
  8 41  1  0
 41 42  2  0
 42 43  1  0
 43 44  1  0
 43 45  2  0
 45 46  1  0
 46 47  2  0
 47 48  1  0
 48 49  2  0
 46 50  1  0
 45 51  1  0
 42 52  1  0
  7 53  1  0
  7 54  1  0
  5 55  1  0
  5 56  1  0
  2 57  1  0
  1 58  1  0
  1 59  1  0
  1 60  1  0
 48  6  1  0
 29  8  1  0
 47 41  1  0
 21 12  1  0
 21 16  1  0
M  END
>  <cnnaffinities>  (9) 
[6.08945, 6.09436, 5.78437, 6.39844]

>  <score>  (9) 
6.08945

>  <index>  (9) 
8

>  <Smiles>  (9) 
C(N(C(=O)C(N1C([C@@]2(C(=O)N(c3c(nc(c4c(c(c(c(c34)[H])[H])[H])[H])[H])[H])C([C@@]2(C(OC([H])([H])[H])([H])[H])[H])([H])[H])c2c(c(Cl)c(c(c2C1=O)[H])[H])[H])([H])[H])([H])[H])[H])([H])([H])[H]

>  <h>  (9) 
<NA>

>  <Training>  (9) 
True

>  <Success>  (9) 
True

>  <enamine_searched>  (9) 
False

>  <enamine_id>  (9) 
nan

$$$$

     RDKit          3D

 41 43  0  0  0  0  0  0  0  0999 V2000
  -13.1788   -2.9271  -22.9032 C   0  0  0  0  0  0  0  0  0  0  0  0
  -11.9698   -2.0467  -23.2134 C   0  0  1  0  0  0  0  0  0  0  0  0
  -12.1571   -0.6581  -22.6425 C   0  0  0  0  0  0  0  0  0  0  0  0
  -11.3190    0.3565  -22.8353 C   0  0  0  0  0  0  0  0  0  0  0  0
  -10.0218    0.2182  -23.6035 C   0  0  0  0  0  0  0  0  0  0  0  0
   -9.0914   -0.7826  -23.0598 N   0  0  0  0  0  0  0  0  0  0  0  0
   -8.3782   -0.4049  -21.9322 C   0  0  0  0  0  0  0  0  0  0  0  0
   -8.4822    0.7170  -21.4721 O   0  0  0  0  0  0  0  0  0  0  0  0
   -7.4312   -1.4331  -21.2737 C   0  0  0  0  0  0  0  0  0  0  0  0
   -6.5796   -0.8283  -20.1815 C   0  0  0  0  0  0  0  0  0  0  0  0
   -6.8777   -1.0408  -18.8622 C   0  0  0  0  0  0  0  0  0  0  0  0
   -6.1918   -0.5403  -17.7996 N   0  0  0  0  0  0  0  0  0  0  0  0
   -5.1575    0.2201  -18.0638 C   0  0  0  0  0  0  0  0  0  0  0  0
   -4.7253    0.5372  -19.3787 C   0  0  0  0  0  0  0  0  0  0  0  0
   -3.5992    1.3676  -19.6184 C   0  0  0  0  0  0  0  0  0  0  0  0
   -3.2173    1.6717  -20.8969 C   0  0  0  0  0  0  0  0  0  0  0  0
   -3.9596    1.1692  -21.9867 C   0  0  0  0  0  0  0  0  0  0  0  0
   -5.0447    0.3502  -21.7821 C   0  0  0  0  0  0  0  0  0  0  0  0
   -5.4583    0.0076  -20.4702 C   0  0  0  0  0  0  0  0  0  0  0  0
   -5.5741   -0.0627  -22.6346 H   0  0  0  0  0  0  0  0  0  0  0  0
   -3.6293    1.3781  -22.9997 H   0  0  0  0  0  0  0  0  0  0  0  0
   -2.3510    2.3025  -21.0860 H   0  0  0  0  0  0  0  0  0  0  0  0
   -3.0554    1.7732  -18.7682 H   0  0  0  0  0  0  0  0  0  0  0  0
   -4.6024    0.6270  -17.2153 H   0  0  0  0  0  0  0  0  0  0  0  0
   -7.7296   -1.6605  -18.5858 H   0  0  0  0  0  0  0  0  0  0  0  0
   -6.7952   -1.8990  -22.0383 H   0  0  0  0  0  0  0  0  0  0  0  0
   -8.0408   -2.2442  -20.8459 H   0  0  0  0  0  0  0  0  0  0  0  0
   -9.3946   -2.1694  -23.3972 C   0  0  0  0  0  0  0  0  0  0  0  0
  -10.6665   -2.7290  -22.7519 C   0  0  0  0  0  0  0  0  0  0  0  0
  -10.5864   -2.6374  -21.6636 H   0  0  0  0  0  0  0  0  0  0  0  0
  -10.7250   -3.8065  -22.9663 H   0  0  0  0  0  0  0  0  0  0  0  0
   -8.5299   -2.7925  -23.1557 H   0  0  0  0  0  0  0  0  0  0  0  0
   -9.5101   -2.2193  -24.4853 H   0  0  0  0  0  0  0  0  0  0  0  0
  -10.2446   -0.0757  -24.6359 H   0  0  0  0  0  0  0  0  0  0  0  0
   -9.5074    1.1791  -23.6526 H   0  0  0  0  0  0  0  0  0  0  0  0
  -11.5316    1.3286  -22.3887 H   0  0  0  0  0  0  0  0  0  0  0  0
  -13.0301   -0.4936  -22.0102 H   0  0  0  0  0  0  0  0  0  0  0  0
  -11.9045   -1.9390  -24.3039 H   0  0  0  0  0  0  0  0  0  0  0  0
  -13.0968   -3.9090  -23.3858 H   0  0  0  0  0  0  0  0  0  0  0  0
  -13.2642   -3.0898  -21.8217 H   0  0  0  0  0  0  0  0  0  0  0  0
  -14.1064   -2.4566  -23.2510 H   0  0  0  0  0  0  0  0  0  0  0  0
  1  2  1  0
  2  3  1  0
  3  4  2  0
  4  5  1  0
  5  6  1  0
  6  7  1  0
  7  8  2  0
  7  9  1  0
  9 10  1  0
 10 11  2  0
 11 12  1  0
 12 13  2  0
 13 14  1  0
 14 15  2  0
 15 16  1  0
 16 17  2  0
 17 18  1  0
 18 19  2  0
 18 20  1  0
 17 21  1  0
 16 22  1  0
 15 23  1  0
 13 24  1  0
 11 25  1  0
  9 26  1  0
  9 27  1  0
  6 28  1  0
 28 29  1  0
 29 30  1  0
 29 31  1  0
 28 32  1  0
 28 33  1  0
  5 34  1  0
  5 35  1  0
  4 36  1  0
  3 37  1  0
  2 38  1  6
  1 39  1  0
  1 40  1  0
  1 41  1  0
 29  2  1  0
 19 10  1  0
 19 14  1  0
M  END
>  <cnnaffinities>  (10) 
[4.62808, 4.56755]

>  <score>  (10) 
4.62808

>  <index>  (10) 
9

>  <Smiles>  (10) 
C([C@]1(C(=C(C(N(C(=O)C(c2c(nc(c3c(c(c(c(c23)[H])[H])[H])[H])[H])[H])([H])[H])C(C1([H])[H])([H])[H])([H])[H])[H])[H])[H])([H])([H])[H]

>  <h>  (10) 
<NA>

>  <Training>  (10) 
True

>  <Success>  (10) 
True

>  <enamine_searched>  (10) 
False

>  <enamine_id>  (10) 
nan

$$$$

     RDKit          3D

 57 62  0  0  0  0  0  0  0  0999 V2000
  -10.3145   -2.5385  -22.2681 C   0  0  0  0  0  0  0  0  0  0  0  0
   -9.0243   -1.8833  -22.7916 C   0  0  1  0  0  0  0  0  0  0  0  0
   -8.5047   -0.8327  -21.7868 C   0  0  0  0  0  0  0  0  0  0  0  0
   -7.3545   -1.4556  -21.1759 N   0  0  0  0  0  0  0  0  0  0  0  0
   -6.5793   -0.8396  -20.1639 C   0  0  0  0  0  0  0  0  0  0  0  0
   -6.8983   -1.0634  -18.8519 C   0  0  0  0  0  0  0  0  0  0  0  0
   -6.2131   -0.5533  -17.7992 N   0  0  0  0  0  0  0  0  0  0  0  0
   -5.1844    0.2140  -18.0705 C   0  0  0  0  0  0  0  0  0  0  0  0
   -4.7523    0.5352  -19.3903 C   0  0  0  0  0  0  0  0  0  0  0  0
   -3.6262    1.3667  -19.6233 C   0  0  0  0  0  0  0  0  0  0  0  0
   -3.2464    1.6777  -20.8991 C   0  0  0  0  0  0  0  0  0  0  0  0
   -3.9812    1.1825  -22.0001 C   0  0  0  0  0  0  0  0  0  0  0  0
   -5.0586    0.3509  -21.8076 C   0  0  0  0  0  0  0  0  0  0  0  0
   -5.4693    0.0040  -20.4850 C   0  0  0  0  0  0  0  0  0  0  0  0
   -5.5798   -0.0600  -22.6733 H   0  0  0  0  0  0  0  0  0  0  0  0
   -3.6611    1.4250  -23.0099 H   0  0  0  0  0  0  0  0  0  0  0  0
   -2.3766    2.3037  -21.0798 H   0  0  0  0  0  0  0  0  0  0  0  0
   -3.0818    1.7478  -18.7639 H   0  0  0  0  0  0  0  0  0  0  0  0
   -4.6311    0.6322  -17.2285 H   0  0  0  0  0  0  0  0  0  0  0  0
   -7.7436   -1.7062  -18.6077 H   0  0  0  0  0  0  0  0  0  0  0  0
   -6.8953   -2.5731  -21.8290 C   0  0  0  0  0  0  0  0  0  0  0  0
   -5.9206   -3.2107  -21.4937 O   0  0  0  0  0  0  0  0  0  0  0  0
   -7.8272   -2.8478  -23.0246 C   0  0  1  0  0  0  0  0  0  0  0  0
   -8.2521   -4.3125  -23.0063 C   0  0  0  0  0  0  0  0  0  0  0  0
   -7.1009   -5.1450  -23.2394 N   0  0  0  0  0  0  0  0  0  0  0  0
   -7.0379   -6.3381  -22.4291 C   0  0  0  0  0  0  0  0  0  0  0  0
   -8.0434   -7.3503  -22.8856 C   0  0  0  0  0  0  0  0  0  0  0  0
   -7.7142   -8.2827  -23.7897 C   0  0  0  0  0  0  0  0  0  0  0  0
   -8.8483   -8.9724  -24.1316 N   0  0  0  0  0  4  0  0  0  0  0  0
   -9.8796   -8.4496  -23.4779 C   0  0  0  0  0  0  0  0  0  0  0  0
   -9.4210   -7.4426  -22.7205 N   0  0  0  0  0  0  0  0  0  0  0  0
  -10.0155   -6.8722  -22.1324 H   0  0  0  0  0  0  0  0  0  0  0  0
  -10.8995   -8.7732  -23.5574 H   0  0  0  0  0  0  0  0  0  0  0  0
   -8.8422   -9.7195  -24.8107 H   0  0  0  0  0  0  0  0  0  0  0  0
   -6.7472   -8.4743  -24.2275 H   0  0  0  0  0  0  0  0  0  0  0  0
   -7.1187   -6.0252  -21.3784 H   0  0  0  0  0  0  0  0  0  0  0  0
   -6.0544   -6.7837  -22.5900 H   0  0  0  0  0  0  0  0  0  0  0  0
   -6.3534   -5.0238  -24.3788 C   0  0  0  0  0  0  0  0  0  0  0  0
   -5.6846   -5.9405  -24.8474 O   0  0  0  0  0  0  0  0  0  0  0  0
   -6.3786   -3.6498  -24.9701 C   0  0  0  0  0  0  0  0  0  0  0  0
   -5.6575   -3.4217  -26.1429 C   0  0  0  0  0  0  0  0  0  0  0  0
   -5.5808   -2.1482  -26.6757 C   0  0  0  0  0  0  0  0  0  0  0  0
   -6.2297   -1.1155  -26.0065 C   0  0  0  0  0  0  0  0  0  0  0  0
   -6.1341    0.1333  -26.5003 F   0  0  0  0  0  0  0  0  0  0  0  0
   -6.9622   -1.3191  -24.8523 C   0  0  0  0  0  0  0  0  0  0  0  0
   -7.0669   -2.6104  -24.3260 C   0  0  0  0  0  0  0  0  0  0  0  0
   -7.4427   -0.4666  -24.3810 H   0  0  0  0  0  0  0  0  0  0  0  0
   -5.0140   -1.9238  -27.5722 H   0  0  0  0  0  0  0  0  0  0  0  0
   -5.1551   -4.2667  -26.6055 H   0  0  0  0  0  0  0  0  0  0  0  0
   -8.6682   -4.5802  -22.0318 H   0  0  0  0  0  0  0  0  0  0  0  0
   -9.0106   -4.4894  -23.7830 H   0  0  0  0  0  0  0  0  0  0  0  0
   -9.2475   -0.5859  -21.0212 H   0  0  0  0  0  0  0  0  0  0  0  0
   -8.2239    0.1016  -22.2921 H   0  0  0  0  0  0  0  0  0  0  0  0
   -9.2879   -1.4242  -23.7497 H   0  0  0  0  0  0  0  0  0  0  0  0
  -10.1529   -3.0380  -21.3057 H   0  0  0  0  0  0  0  0  0  0  0  0
  -10.7125   -3.2762  -22.9729 H   0  0  0  0  0  0  0  0  0  0  0  0
  -11.0910   -1.7796  -22.1223 H   0  0  0  0  0  0  0  0  0  0  0  0
  1  2  1  0
  2  3  1  0
  3  4  1  0
  4  5  1  0
  5  6  2  0
  6  7  1  0
  7  8  2  0
  8  9  1  0
  9 10  2  0
 10 11  1  0
 11 12  2  0
 12 13  1  0
 13 14  2  0
 13 15  1  0
 12 16  1  0
 11 17  1  0
 10 18  1  0
  8 19  1  0
  6 20  1  0
  4 21  1  0
 21 22  2  0
 21 23  1  0
 23 24  1  6
 24 25  1  0
 25 26  1  0
 26 27  1  0
 27 28  2  0
 28 29  1  0
 29 30  2  0
 30 31  1  0
 31 32  1  0
 30 33  1  0
 29 34  1  0
 28 35  1  0
 26 36  1  0
 26 37  1  0
 25 38  1  0
 38 39  2  0
 38 40  1  0
 40 41  2  0
 41 42  1  0
 42 43  2  0
 43 44  1  0
 43 45  1  0
 45 46  2  0
 45 47  1  0
 42 48  1  0
 41 49  1  0
 24 50  1  0
 24 51  1  0
  3 52  1  0
  3 53  1  0
  2 54  1  6
  1 55  1  0
  1 56  1  0
  1 57  1  0
 23  2  1  0
 31 27  1  0
 46 40  1  0
 14  5  1  0
 46 23  1  0
 14  9  1  0
M  CHG  1  29   1
M  END
>  <cnnaffinities>  (11) 
[6.02543]

>  <score>  (11) 
6.02543

>  <index>  (11) 
10

>  <Smiles>  (11) 
C([C@]1(C(N(c2c(nc(c3c(c(c(c(c23)[H])[H])[H])[H])[H])[H])C(=O)[C@]21C(N(C(c1c([n+](c(n1[H])[H])[H])[H])([H])[H])C(=O)c1c(c(c(F)c(c21)[H])[H])[H])([H])[H])([H])[H])[H])([H])([H])[H]

>  <h>  (11) 
<NA>

>  <Training>  (11) 
True

>  <Success>  (11) 
True

>  <enamine_searched>  (11) 
False

>  <enamine_id>  (11) 
nan

$$$$

     RDKit          3D

 48 52  0  0  0  0  0  0  0  0999 V2000
  -10.4751   -2.2959  -22.4292 C   0  0  0  0  0  0  0  0  0  0  0  0
   -9.0881   -1.9762  -22.1721 N   0  0  0  0  0  0  0  0  0  0  0  0
   -8.7024   -0.9580  -21.3385 C   0  0  0  0  0  0  0  0  0  0  0  0
   -9.3890   -0.0780  -20.8730 O   0  0  0  0  0  0  0  0  0  0  0  0
   -7.3215   -1.1190  -21.1359 N   0  0  0  0  0  0  0  0  0  0  0  0
   -6.5901   -0.5397  -20.0687 C   0  0  0  0  0  0  0  0  0  0  0  0
   -6.8883   -0.8641  -18.7711 C   0  0  0  0  0  0  0  0  0  0  0  0
   -6.1641   -0.4496  -17.7039 N   0  0  0  0  0  0  0  0  0  0  0  0
   -5.1251    0.3155  -17.9430 C   0  0  0  0  0  0  0  0  0  0  0  0
   -4.7157    0.7274  -19.2435 C   0  0  0  0  0  0  0  0  0  0  0  0
   -3.5756    1.5465  -19.4535 C   0  0  0  0  0  0  0  0  0  0  0  0
   -3.2166    1.9180  -20.7201 C   0  0  0  0  0  0  0  0  0  0  0  0
   -3.9797    1.4988  -21.8325 C   0  0  0  0  0  0  0  0  0  0  0  0
   -5.0881    0.7112  -21.6563 C   0  0  0  0  0  0  0  0  0  0  0  0
   -5.4730    0.2965  -20.3505 C   0  0  0  0  0  0  0  0  0  0  0  0
   -5.6712    0.3836  -22.5121 H   0  0  0  0  0  0  0  0  0  0  0  0
   -3.6837    1.7951  -22.8341 H   0  0  0  0  0  0  0  0  0  0  0  0
   -2.3444    2.5439  -20.8818 H   0  0  0  0  0  0  0  0  0  0  0  0
   -3.0076    1.8694  -18.5864 H   0  0  0  0  0  0  0  0  0  0  0  0
   -4.5423    0.6422  -17.0819 H   0  0  0  0  0  0  0  0  0  0  0  0
   -7.7332   -1.5134  -18.5501 H   0  0  0  0  0  0  0  0  0  0  0  0
   -6.8041   -2.1601  -21.8955 C   0  0  0  0  0  0  0  0  0  0  0  0
   -5.6590   -2.5444  -21.8912 O   0  0  0  0  0  0  0  0  0  0  0  0
   -7.9691   -2.7334  -22.6695 C   0  0  0  0  0  0  0  0  0  0  0  0
   -7.7732   -2.8275  -24.2005 C   0  0  0  0  0  0  0  0  0  0  0  0
   -7.8215   -4.3174  -24.1049 N   0  0  0  0  0  0  0  0  0  0  0  0
   -9.0212   -5.1141  -24.9754 S   0  0  0  0  0  0  0  0  0  0  0  0
   -8.9369   -4.6041  -26.3286 O   0  0  0  0  0  0  0  0  0  0  0  0
  -10.2839   -5.0723  -24.2458 O   0  0  0  0  0  0  0  0  0  0  0  0
   -8.4315   -6.8285  -24.9037 C   0  0  0  0  0  0  0  0  0  0  0  0
   -9.8230   -8.1230  -24.7797 C   0  0  0  0  0  0  0  0  0  0  0  0
   -9.4713   -8.2334  -24.8638 C   0  0  0  0  0  0  0  0  0  0  0  0
   -8.8225   -9.1522  -23.7313 C   0  0  0  0  0  0  0  0  0  0  0  0
   -7.6568   -8.4830  -23.3434 C   0  0  0  0  0  0  0  0  0  0  0  0
   -7.4592   -7.2054  -23.9573 C   0  0  0  0  0  0  0  0  0  0  0  0
   -6.6423   -6.5338  -23.6831 H   0  0  0  0  0  0  0  0  0  0  0  0
   -6.9501   -8.8843  -22.6284 H   0  0  0  0  0  0  0  0  0  0  0  0
   -8.7715  -10.2023  -24.0358 H   0  0  0  0  0  0  0  0  0  0  0  0
  -10.1494   -8.5596  -25.9012 H   0  0  0  0  0  0  0  0  0  0  0  0
  -10.6894   -7.6252  -24.2302 H   0  0  0  0  0  0  0  0  0  0  0  0
   -7.9912   -4.2699  -22.6379 C   0  0  0  0  0  0  0  0  0  0  0  0
   -7.1137   -4.6745  -22.1300 H   0  0  0  0  0  0  0  0  0  0  0  0
   -8.9038   -4.7539  -22.2852 H   0  0  0  0  0  0  0  0  0  0  0  0
   -6.7950   -2.4799  -24.5380 H   0  0  0  0  0  0  0  0  0  0  0  0
   -8.5648   -2.3720  -24.7994 H   0  0  0  0  0  0  0  0  0  0  0  0
  -10.6802   -2.3471  -23.5027 H   0  0  0  0  0  0  0  0  0  0  0  0
  -10.7576   -3.2495  -21.9703 H   0  0  0  0  0  0  0  0  0  0  0  0
  -11.0712   -1.4993  -21.9867 H   0  0  0  0  0  0  0  0  0  0  0  0
  1  2  1  0
  2  3  1  0
  3  4  2  0
  3  5  1  0
  5  6  1  0
  6  7  2  0
  7  8  1  0
  8  9  2  0
  9 10  1  0
 10 11  2  0
 11 12  1  0
 12 13  2  0
 13 14  1  0
 14 15  2  0
 14 16  1  0
 13 17  1  0
 12 18  1  0
 11 19  1  0
  9 20  1  0
  7 21  1  0
  5 22  1  0
 22 23  2  0
 22 24  1  0
 24 25  1  0
 25 26  1  0
 26 27  1  0
 27 28  2  0
 27 29  2  0
 27 30  1  0
 30 31  2  0
 31 32  1  0
 32 33  2  0
 33 34  1  0
 34 35  2  0
 35 36  1  0
 34 37  1  0
 33 38  1  0
 32 39  1  0
 31 40  1  0
 26 41  1  0
 41 42  1  0
 41 43  1  0
 25 44  1  0
 25 45  1  0
  1 46  1  0
  1 47  1  0
  1 48  1  0
 24  2  1  0
 35 30  1  0
 15  6  1  0
 41 24  1  0
 15 10  1  0
M  END
>  <cnnaffinities>  (12) 
[5.5442]

>  <score>  (12) 
5.5442

>  <index>  (12) 
11

>  <Smiles>  (12) 
C(N1C(=O)N(c2c(nc(c3c(c(c(c(c23)[H])[H])[H])[H])[H])[H])C(=O)C21C(N(S(=O)(=O)c1c(c(c(c(c1[H])[H])[H])[H])[H])C2([H])[H])([H])[H])([H])([H])[H]

>  <h>  (12) 
<NA>

>  <Training>  (12) 
True

>  <Success>  (12) 
True

>  <enamine_searched>  (12) 
False

>  <enamine_id>  (12) 
nan

$$$$

     RDKit          3D

 76 82  0  0  0  0  0  0  0  0999 V2000
  -10.7345    2.0277  -24.5668 O   0  0  0  0  0  0  0  0  0  0  0  0
  -10.2251    0.9553  -24.2638 C   0  0  0  0  0  0  0  0  0  0  0  0
  -11.0483   -0.1832  -23.7474 C   0  0  0  0  0  0  0  0  0  0  0  0
  -12.4277   -0.0458  -23.8507 C   0  0  0  0  0  0  0  0  0  0  0  0
  -13.2613   -1.0317  -23.3702 C   0  0  0  0  0  0  0  0  0  0  0  0
  -12.6866   -2.1659  -22.7975 C   0  0  0  0  0  0  0  0  0  0  0  0
  -13.7491   -3.3978  -22.1787 Cl  0  0  0  0  0  0  0  0  0  0  0  0
  -11.3134   -2.3299  -22.7004 C   0  0  0  0  0  0  0  0  0  0  0  0
  -10.4621   -1.3158  -23.1619 C   0  0  0  0  0  0  0  0  0  0  0  0
   -8.9594   -1.3452  -22.9756 C   0  0  1  0  0  0  0  0  0  0  0  0
   -8.3376   -0.5994  -24.1904 C   0  0  0  0  0  0  0  0  0  0  0  0
   -8.8876    0.7247  -24.3525 N   0  0  0  0  0  0  0  0  0  0  0  0
   -8.0282    1.8757  -24.5147 C   0  0  0  0  0  0  0  0  0  0  0  0
   -7.8187    2.5862  -23.1803 C   0  0  0  0  0  0  0  0  0  0  0  0
   -6.8826    3.7441  -23.3500 N   0  0  0  0  0  4  0  0  0  0  0  0
   -7.5187    4.9757  -23.9684 C   0  0  0  0  0  0  0  0  0  0  0  0
   -8.3815    5.7219  -22.9596 C   0  0  0  0  0  0  0  0  0  0  0  0
   -7.6177    6.1149  -21.8378 O   0  0  0  0  0  0  0  0  0  0  0  0
   -7.0546    4.9962  -21.1804 C   0  0  0  0  0  0  0  0  0  0  0  0
   -6.1643    4.1667  -22.0981 C   0  0  0  0  0  0  0  0  0  0  0  0
   -5.8095    3.2717  -21.5790 H   0  0  0  0  0  0  0  0  0  0  0  0
   -5.3002    4.7554  -22.4107 H   0  0  0  0  0  0  0  0  0  0  0  0
   -6.4530    5.3942  -20.3606 H   0  0  0  0  0  0  0  0  0  0  0  0
   -7.8511    4.3623  -20.7603 H   0  0  0  0  0  0  0  0  0  0  0  0
   -9.2401    5.1058  -22.6458 H   0  0  0  0  0  0  0  0  0  0  0  0
   -8.7682    6.6384  -23.4116 H   0  0  0  0  0  0  0  0  0  0  0  0
   -6.7067    5.6310  -24.2882 H   0  0  0  0  0  0  0  0  0  0  0  0
   -8.1030    4.6882  -24.8446 H   0  0  0  0  0  0  0  0  0  0  0  0
   -6.1560    3.4095  -24.0052 H   0  0  0  0  0  0  0  0  0  0  0  0
   -8.7786    2.9217  -22.7832 H   0  0  0  0  0  0  0  0  0  0  0  0
   -7.3902    1.8912  -22.4527 H   0  0  0  0  0  0  0  0  0  0  0  0
   -8.5022    2.5397  -25.2414 H   0  0  0  0  0  0  0  0  0  0  0  0
   -7.0635    1.5548  -24.9248 H   0  0  0  0  0  0  0  0  0  0  0  0
   -7.2481   -0.5211  -24.0841 H   0  0  0  0  0  0  0  0  0  0  0  0
   -8.5541   -1.1887  -25.0921 H   0  0  0  0  0  0  0  0  0  0  0  0
   -8.5463   -0.6674  -21.6468 C   0  0  0  0  0  0  0  0  0  0  0  0
   -9.0757    0.2696  -21.0858 O   0  0  0  0  0  0  0  0  0  0  0  0
   -7.4283   -1.3213  -21.1773 N   0  0  0  0  0  0  0  0  0  0  0  0
   -6.6260   -0.7652  -20.1571 C   0  0  0  0  0  0  0  0  0  0  0  0
   -6.9268   -1.0350  -18.8493 C   0  0  0  0  0  0  0  0  0  0  0  0
   -6.2196   -0.5705  -17.7925 N   0  0  0  0  0  0  0  0  0  0  0  0
   -5.1889    0.1966  -18.0584 C   0  0  0  0  0  0  0  0  0  0  0  0
   -4.7673    0.5547  -19.3722 C   0  0  0  0  0  0  0  0  0  0  0  0
   -3.6408    1.3881  -19.6027 C   0  0  0  0  0  0  0  0  0  0  0  0
   -3.2653    1.7182  -20.8764 C   0  0  0  0  0  0  0  0  0  0  0  0
   -4.0039    1.2463  -21.9831 C   0  0  0  0  0  0  0  0  0  0  0  0
   -5.0941    0.4290  -21.7858 C   0  0  0  0  0  0  0  0  0  0  0  0
   -5.5050    0.0623  -20.4716 C   0  0  0  0  0  0  0  0  0  0  0  0
   -5.6279    0.0536  -22.6533 H   0  0  0  0  0  0  0  0  0  0  0  0
   -3.7033    1.5197  -22.9921 H   0  0  0  0  0  0  0  0  0  0  0  0
   -2.3975    2.3477  -21.0457 H   0  0  0  0  0  0  0  0  0  0  0  0
   -3.0918    1.7518  -18.7407 H   0  0  0  0  0  0  0  0  0  0  0  0
   -4.6227    0.5793  -17.2099 H   0  0  0  0  0  0  0  0  0  0  0  0
   -7.7855   -1.6652  -18.6269 H   0  0  0  0  0  0  0  0  0  0  0  0
   -7.0471   -2.4863  -21.9447 C   0  0  0  0  0  0  0  0  0  0  0  0
   -8.2946   -2.7293  -22.8050 C   0  0  2  0  0  0  0  0  0  0  0  0
   -7.9553   -3.4969  -24.0760 C   0  0  0  0  0  0  0  0  0  0  0  0
   -7.4860   -4.8232  -23.7301 N   0  0  0  0  0  0  0  0  0  0  0  0
   -8.3592   -5.8621  -23.6963 C   0  0  0  0  0  0  0  0  0  0  0  0
   -7.8318   -7.0843  -23.5037 N   0  0  0  0  0  0  0  0  0  0  0  0
   -8.6904   -8.0912  -23.5362 C   0  0  0  0  0  0  0  0  0  0  0  0
  -10.0488   -7.9251  -23.7532 C   0  0  0  0  0  0  0  0  0  0  0  0
  -10.4941   -6.6178  -23.8922 C   0  0  0  0  0  0  0  0  0  0  0  0
   -9.6680   -5.5714  -23.8403 N   0  0  0  0  0  0  0  0  0  0  0  0
  -11.5448   -6.3664  -24.0506 H   0  0  0  0  0  0  0  0  0  0  0  0
  -10.6958   -8.7889  -23.7440 H   0  0  0  0  0  0  0  0  0  0  0  0
   -8.2777   -9.0845  -23.3786 H   0  0  0  0  0  0  0  0  0  0  0  0
   -6.5034   -5.0585  -23.7650 H   0  0  0  0  0  0  0  0  0  0  0  0
   -7.1743   -2.9638  -24.6283 H   0  0  0  0  0  0  0  0  0  0  0  0
   -8.8460   -3.5820  -24.7111 H   0  0  0  0  0  0  0  0  0  0  0  0
   -8.9678   -3.3585  -22.2162 H   0  0  0  0  0  0  0  0  0  0  0  0
   -6.1397   -2.3025  -22.5448 H   0  0  0  0  0  0  0  0  0  0  0  0
   -6.8263   -3.3350  -21.2893 H   0  0  0  0  0  0  0  0  0  0  0  0
  -10.9263   -3.2536  -22.2787 H   0  0  0  0  0  0  0  0  0  0  0  0
  -14.3399   -0.9335  -23.4312 H   0  0  0  0  0  0  0  0  0  0  0  0
  -12.8118    0.8572  -24.3123 H   0  0  0  0  0  0  0  0  0  0  0  0
  1  2  2  0
  2  3  1  0
  3  4  2  0
  4  5  1  0
  5  6  2  0
  6  7  1  0
  6  8  1  0
  8  9  2  0
  9 10  1  0
 10 11  1  6
 11 12  1  0
 12 13  1  0
 13 14  1  0
 14 15  1  0
 15 16  1  0
 16 17  1  0
 17 18  1  0
 18 19  1  0
 19 20  1  0
 20 21  1  0
 20 22  1  0
 19 23  1  0
 19 24  1  0
 17 25  1  0
 17 26  1  0
 16 27  1  0
 16 28  1  0
 15 29  1  0
 14 30  1  0
 14 31  1  0
 13 32  1  0
 13 33  1  0
 11 34  1  0
 11 35  1  0
 10 36  1  0
 36 37  2  0
 36 38  1  0
 38 39  1  0
 39 40  2  0
 40 41  1  0
 41 42  2  0
 42 43  1  0
 43 44  2  0
 44 45  1  0
 45 46  2  0
 46 47  1  0
 47 48  2  0
 47 49  1  0
 46 50  1  0
 45 51  1  0
 44 52  1  0
 42 53  1  0
 40 54  1  0
 38 55  1  0
 55 56  1  0
 56 57  1  0
 57 58  1  0
 58 59  1  0
 59 60  2  0
 60 61  1  0
 61 62  2  0
 62 63  1  0
 63 64  2  0
 63 65  1  0
 62 66  1  0
 61 67  1  0
 58 68  1  0
 57 69  1  0
 57 70  1  0
 56 71  1  1
 55 72  1  0
 55 73  1  0
  8 74  1  0
  5 75  1  0
  4 76  1  0
 12  2  1  0
 20 15  1  0
 48 39  1  0
 64 59  1  0
  9  3  1  0
 56 10  1  0
 48 43  1  0
M  CHG  1  15   1
M  END
>  <cnnaffinities>  (13) 
[6.98016]

>  <score>  (13) 
6.98016

>  <index>  (13) 
12

>  <Smiles>  (13) 
O=C1c2c(c(c(Cl)c(c2[C@@]2(C(N1C(C([N+]1(C(C(OC(C1([H])[H])([H])[H])([H])[H])([H])[H])[H])([H])[H])([H])[H])([H])[H])C(=O)N(c1c(nc(c3c(c(c(c(c13)[H])[H])[H])[H])[H])[H])C([C@@]2(C(N(c1nc(c(c(n1)[H])[H])[H])[H])([H])[H])[H])([H])[H])[H])[H])[H]

>  <h>  (13) 
<NA>

>  <Training>  (13) 
True

>  <Success>  (13) 
True

>  <enamine_searched>  (13) 
False

>  <enamine_id>  (13) 
nan

$$$$

     RDKit          3D

 69 74  0  0  0  0  0  0  0  0999 V2000
   -7.3188    3.4506  -22.0337 C   0  0  0  0  0  0  0  0  0  0  0  0
   -8.3462    2.8827  -22.8964 N   0  0  0  0  0  0  0  0  0  0  0  0
   -7.9573    2.1547  -23.9829 C   0  0  0  0  0  0  0  0  0  0  0  0
   -6.7761    1.9500  -24.2368 O   0  0  0  0  0  0  0  0  0  0  0  0
   -9.0850    1.6174  -24.8781 C   0  0  0  0  0  0  0  0  0  0  0  0
   -9.6911    0.4296  -24.2937 N   0  0  0  0  0  0  0  0  0  0  0  0
   -8.8890   -0.7772  -24.1300 C   0  0  0  0  0  0  0  0  0  0  0  0
   -9.2259   -1.5637  -22.8265 C   0  0  2  0  0  0  0  0  0  0  0  0
   -8.6807   -0.7636  -21.6073 C   0  0  0  0  0  0  0  0  0  0  0  0
   -9.1883    0.2089  -21.0941 O   0  0  0  0  0  0  0  0  0  0  0  0
   -7.4909   -1.3262  -21.1996 N   0  0  0  0  0  0  0  0  0  0  0  0
   -6.6999   -0.7531  -20.1713 C   0  0  0  0  0  0  0  0  0  0  0  0
   -6.9808   -1.0419  -18.8608 C   0  0  0  0  0  0  0  0  0  0  0  0
   -6.2576   -0.5968  -17.8052 N   0  0  0  0  0  0  0  0  0  0  0  0
   -5.2199    0.1635  -18.0604 C   0  0  0  0  0  0  0  0  0  0  0  0
   -4.8055    0.5344  -19.3709 C   0  0  0  0  0  0  0  0  0  0  0  0
   -3.6792    1.3726  -19.5938 C   0  0  0  0  0  0  0  0  0  0  0  0
   -3.3253    1.7371  -20.8651 C   0  0  0  0  0  0  0  0  0  0  0  0
   -4.0904    1.2927  -21.9682 C   0  0  0  0  0  0  0  0  0  0  0  0
   -5.1856    0.4802  -21.7789 C   0  0  0  0  0  0  0  0  0  0  0  0
   -5.5699    0.0728  -20.4711 C   0  0  0  0  0  0  0  0  0  0  0  0
   -5.7799    0.1764  -22.6361 H   0  0  0  0  0  0  0  0  0  0  0  0
   -3.8189    1.5967  -22.9753 H   0  0  0  0  0  0  0  0  0  0  0  0
   -2.4661    2.3813  -21.0334 H   0  0  0  0  0  0  0  0  0  0  0  0
   -3.1279    1.7308  -18.7277 H   0  0  0  0  0  0  0  0  0  0  0  0
   -4.6469    0.5320  -17.2080 H   0  0  0  0  0  0  0  0  0  0  0  0
   -7.8298   -1.6789  -18.6217 H   0  0  0  0  0  0  0  0  0  0  0  0
   -7.0816   -2.4759  -21.9746 C   0  0  0  0  0  0  0  0  0  0  0  0
   -8.3760   -2.8751  -22.7061 C   0  0  2  0  0  0  0  0  0  0  0  0
   -8.0615   -3.6701  -23.9775 C   0  0  0  0  0  0  0  0  0  0  0  0
   -9.2528   -4.2512  -24.5371 N   0  0  0  0  0  0  0  0  0  0  0  0
   -9.2471   -4.9442  -25.7076 C   0  0  0  0  0  0  0  0  0  0  0  0
  -10.3831   -5.6578  -26.1318 C   0  0  0  0  0  0  0  0  0  0  0  0
  -10.3032   -6.2276  -27.3812 C   0  0  0  0  0  0  0  0  0  0  0  0
   -9.2060   -6.1887  -28.1455 N   0  0  0  0  0  0  0  0  0  0  0  0
   -8.1465   -5.5907  -27.6044 C   0  0  0  0  0  0  0  0  0  0  0  0
   -6.8658   -5.7237  -28.3874 C   0  0  0  0  0  0  0  0  0  0  0  0
   -7.0722   -5.6648  -29.4591 H   0  0  0  0  0  0  0  0  0  0  0  0
   -6.4276   -6.7147  -28.2185 H   0  0  0  0  0  0  0  0  0  0  0  0
   -6.1314   -4.9693  -28.1038 H   0  0  0  0  0  0  0  0  0  0  0  0
   -8.1189   -4.9314  -26.4375 N   0  0  0  0  0  0  0  0  0  0  0  0
  -11.1456   -6.7613  -27.8160 H   0  0  0  0  0  0  0  0  0  0  0  0
  -11.2699   -5.7646  -25.5110 H   0  0  0  0  0  0  0  0  0  0  0  0
  -10.1137   -4.1439  -24.0241 H   0  0  0  0  0  0  0  0  0  0  0  0
   -7.3305   -4.4623  -23.7587 H   0  0  0  0  0  0  0  0  0  0  0  0
   -7.5896   -3.0348  -24.7369 H   0  0  0  0  0  0  0  0  0  0  0  0
   -8.9152   -3.5359  -22.0204 H   0  0  0  0  0  0  0  0  0  0  0  0
   -6.2737   -2.2118  -22.6757 H   0  0  0  0  0  0  0  0  0  0  0  0
   -6.6996   -3.2765  -21.3256 H   0  0  0  0  0  0  0  0  0  0  0  0
  -10.7501   -1.6993  -22.7213 C   0  0  0  0  0  0  0  0  0  0  0  0
  -11.3714   -2.6150  -21.8476 C   0  0  0  0  0  0  0  0  0  0  0  0
  -12.7349   -2.5114  -21.5927 C   0  0  0  0  0  0  0  0  0  0  0  0
  -13.4778   -3.3887  -20.2908 Cl  0  0  0  0  0  0  0  0  0  0  0  0
  -13.5503   -1.6098  -22.2757 C   0  0  0  0  0  0  0  0  0  0  0  0
  -12.9637   -0.7436  -23.1672 C   0  0  0  0  0  0  0  0  0  0  0  0
  -11.5823   -0.7541  -23.3523 C   0  0  0  0  0  0  0  0  0  0  0  0
  -11.0439    0.4114  -24.1241 C   0  0  0  0  0  0  0  0  0  0  0  0
  -11.7776    1.3142  -24.5041 O   0  0  0  0  0  0  0  0  0  0  0  0
  -13.5447    0.0074  -23.6946 H   0  0  0  0  0  0  0  0  0  0  0  0
  -14.6149   -1.5685  -22.0709 H   0  0  0  0  0  0  0  0  0  0  0  0
  -10.8217   -3.4019  -21.3349 H   0  0  0  0  0  0  0  0  0  0  0  0
   -7.8366   -0.4808  -24.1118 H   0  0  0  0  0  0  0  0  0  0  0  0
   -9.0436   -1.4243  -25.0033 H   0  0  0  0  0  0  0  0  0  0  0  0
   -8.6672    1.4061  -25.8710 H   0  0  0  0  0  0  0  0  0  0  0  0
   -9.8941    2.3467  -25.0138 H   0  0  0  0  0  0  0  0  0  0  0  0
   -9.2625    2.7230  -22.4930 H   0  0  0  0  0  0  0  0  0  0  0  0
   -6.7599    2.6780  -21.4860 H   0  0  0  0  0  0  0  0  0  0  0  0
   -6.5963    3.9890  -22.6536 H   0  0  0  0  0  0  0  0  0  0  0  0
   -7.7794    4.1437  -21.3223 H   0  0  0  0  0  0  0  0  0  0  0  0
  1  2  1  0
  2  3  1  0
  3  4  2  0
  3  5  1  0
  5  6  1  0
  6  7  1  0
  8  7  1  6
  8  9  1  0
  9 10  2  0
  9 11  1  0
 11 12  1  0
 12 13  2  0
 13 14  1  0
 14 15  2  0
 15 16  1  0
 16 17  2  0
 17 18  1  0
 18 19  2  0
 19 20  1  0
 20 21  2  0
 20 22  1  0
 19 23  1  0
 18 24  1  0
 17 25  1  0
 15 26  1  0
 13 27  1  0
 11 28  1  0
 28 29  1  0
 29 30  1  0
 30 31  1  0
 31 32  1  0
 32 33  2  0
 33 34  1  0
 34 35  2  0
 35 36  1  0
 36 37  1  0
 37 38  1  0
 37 39  1  0
 37 40  1  0
 36 41  2  0
 34 42  1  0
 33 43  1  0
 31 44  1  0
 30 45  1  0
 30 46  1  0
 29 47  1  1
 28 48  1  0
 28 49  1  0
  8 50  1  0
 50 51  2  0
 51 52  1  0
 52 53  1  0
 52 54  2  0
 54 55  1  0
 55 56  2  0
 56 57  1  0
 57 58  2  0
 55 59  1  0
 54 60  1  0
 51 61  1  0
  7 62  1  0
  7 63  1  0
  5 64  1  0
  5 65  1  0
  2 66  1  0
  1 67  1  0
  1 68  1  0
  1 69  1  0
 57  6  1  0
 29  8  1  0
 41 32  1  0
 56 50  1  0
 21 12  1  0
 21 16  1  0
M  END
>  <cnnaffinities>  (14) 
[6.47764, 6.752]

>  <score>  (14) 
6.47764

>  <index>  (14) 
13

>  <Smiles>  (14) 
C(N(C(=O)C(N1C([C@@]2(C(=O)N(c3c(nc(c4c(c(c(c(c34)[H])[H])[H])[H])[H])[H])C([C@@]2(C(N(c2c(c(nc(C([H])([H])[H])n2)[H])[H])[H])([H])[H])[H])([H])[H])c2c(c(Cl)c(c(c2C1=O)[H])[H])[H])([H])[H])([H])[H])[H])([H])([H])[H]

>  <h>  (14) 
<NA>

>  <Training>  (14) 
True

>  <Success>  (14) 
True

>  <enamine_searched>  (14) 
False

>  <enamine_id>  (14) 
nan

$$$$

     RDKit          3D

 73 78  0  0  0  0  0  0  0  0999 V2000
   -7.9440   -3.7505  -24.0044 C   0  0  0  0  0  0  0  0  0  0  0  0
   -8.2967   -2.8746  -22.7985 C   0  0  1  0  0  0  0  0  0  0  0  0
   -7.0985   -2.6529  -21.8498 C   0  0  0  0  0  0  0  0  0  0  0  0
   -7.4069   -1.3925  -21.1984 N   0  0  0  0  0  0  0  0  0  0  0  0
   -6.6071   -0.8105  -20.1752 C   0  0  0  0  0  0  0  0  0  0  0  0
   -6.9005   -1.0549  -18.8587 C   0  0  0  0  0  0  0  0  0  0  0  0
   -6.1964   -0.5625  -17.8102 N   0  0  0  0  0  0  0  0  0  0  0  0
   -5.1690    0.2078  -18.0763 C   0  0  0  0  0  0  0  0  0  0  0  0
   -4.7445    0.5479  -19.3943 C   0  0  0  0  0  0  0  0  0  0  0  0
   -3.6165    1.3830  -19.6340 C   0  0  0  0  0  0  0  0  0  0  0  0
   -3.2364    1.6908  -20.9126 C   0  0  0  0  0  0  0  0  0  0  0  0
   -3.9727    1.1871  -22.0053 C   0  0  0  0  0  0  0  0  0  0  0  0
   -5.0612    0.3710  -21.7971 C   0  0  0  0  0  0  0  0  0  0  0  0
   -5.4861    0.0294  -20.4823 C   0  0  0  0  0  0  0  0  0  0  0  0
   -5.5679   -0.0661  -22.6511 H   0  0  0  0  0  0  0  0  0  0  0  0
   -3.6576    1.4072  -23.0223 H   0  0  0  0  0  0  0  0  0  0  0  0
   -2.3669    2.3160  -21.0934 H   0  0  0  0  0  0  0  0  0  0  0  0
   -3.0731    1.7726  -18.7781 H   0  0  0  0  0  0  0  0  0  0  0  0
   -4.6194    0.6138  -17.2265 H   0  0  0  0  0  0  0  0  0  0  0  0
   -7.7540   -1.6781  -18.6009 H   0  0  0  0  0  0  0  0  0  0  0  0
   -8.3895   -0.6649  -21.8317 C   0  0  0  0  0  0  0  0  0  0  0  0
   -8.8078    0.4024  -21.4336 O   0  0  0  0  0  0  0  0  0  0  0  0
   -8.8391   -1.4419  -23.1008 C   0  0  1  0  0  0  0  0  0  0  0  0
   -8.1553   -0.8395  -24.3615 C   0  0  0  0  0  0  0  0  0  0  0  0
   -8.6037    0.5105  -24.6342 N   0  0  0  0  0  0  0  0  0  0  0  0
   -7.6416    1.5728  -24.8919 C   0  0  0  0  0  0  0  0  0  0  0  0
   -7.5157    2.5182  -23.6941 C   0  0  0  0  0  0  0  0  0  0  0  0
   -6.4236    3.5550  -23.8578 N   0  0  0  0  0  4  0  0  0  0  0  0
   -6.7545    4.6757  -24.8359 C   0  0  0  0  0  0  0  0  0  0  0  0
   -7.7583    5.6762  -24.2563 C   0  0  0  0  0  0  0  0  0  0  0  0
   -7.3542    6.1566  -22.9356 N   0  0  0  0  0  0  0  0  0  0  0  0
   -6.5501    7.6003  -22.8288 S   0  0  0  0  0  0  0  0  0  0  0  0
   -6.0427    7.6897  -21.4745 O   0  0  0  0  0  0  0  0  0  0  0  0
   -7.4127    8.6198  -23.3973 O   0  0  0  0  0  0  0  0  0  0  0  0
   -5.1443    7.5240  -23.9308 C   0  0  0  0  0  0  0  0  0  0  0  0
   -5.5137    7.4988  -24.9613 H   0  0  0  0  0  0  0  0  0  0  0  0
   -4.5137    6.6660  -23.6882 H   0  0  0  0  0  0  0  0  0  0  0  0
   -4.6075    8.4627  -23.7574 H   0  0  0  0  0  0  0  0  0  0  0  0
   -7.0448    5.0948  -21.9742 C   0  0  0  0  0  0  0  0  0  0  0  0
   -5.9870    4.1508  -22.5323 C   0  0  0  0  0  0  0  0  0  0  0  0
   -5.0582    4.7003  -22.7081 H   0  0  0  0  0  0  0  0  0  0  0  0
   -5.7786    3.3323  -21.8386 H   0  0  0  0  0  0  0  0  0  0  0  0
   -7.9800    4.5546  -21.7925 H   0  0  0  0  0  0  0  0  0  0  0  0
   -6.7223    5.5577  -21.0428 H   0  0  0  0  0  0  0  0  0  0  0  0
   -8.7354    5.2016  -24.1271 H   0  0  0  0  0  0  0  0  0  0  0  0
   -7.8927    6.5371  -24.9150 H   0  0  0  0  0  0  0  0  0  0  0  0
   -7.1514    4.2430  -25.7531 H   0  0  0  0  0  0  0  0  0  0  0  0
   -5.8172    5.1821  -25.0794 H   0  0  0  0  0  0  0  0  0  0  0  0
   -5.5929    3.0500  -24.2199 H   0  0  0  0  0  0  0  0  0  0  0  0
   -7.2865    1.9427  -22.7929 H   0  0  0  0  0  0  0  0  0  0  0  0
   -8.4731    3.0192  -23.5389 H   0  0  0  0  0  0  0  0  0  0  0  0
   -6.6710    1.1070  -25.0981 H   0  0  0  0  0  0  0  0  0  0  0  0
   -7.9618    2.1154  -25.7852 H   0  0  0  0  0  0  0  0  0  0  0  0
   -9.9314    0.8197  -24.6212 C   0  0  0  0  0  0  0  0  0  0  0  0
  -10.3713    1.9005  -25.0005 O   0  0  0  0  0  0  0  0  0  0  0  0
  -10.8477   -0.2306  -24.0493 C   0  0  0  0  0  0  0  0  0  0  0  0
  -12.2232   -0.0526  -24.2014 C   0  0  0  0  0  0  0  0  0  0  0  0
  -13.1134   -0.9019  -23.5739 C   0  0  0  0  0  0  0  0  0  0  0  0
  -12.6104   -1.9189  -22.7641 C   0  0  0  0  0  0  0  0  0  0  0  0
  -13.7291   -2.9460  -21.9153 Cl  0  0  0  0  0  0  0  0  0  0  0  0
  -11.2499   -2.1184  -22.6091 C   0  0  0  0  0  0  0  0  0  0  0  0
  -10.3410   -1.2981  -23.2908 C   0  0  0  0  0  0  0  0  0  0  0  0
  -10.9161   -2.8942  -21.9280 H   0  0  0  0  0  0  0  0  0  0  0  0
  -14.1847   -0.7688  -23.6745 H   0  0  0  0  0  0  0  0  0  0  0  0
  -12.5617    0.7849  -24.8028 H   0  0  0  0  0  0  0  0  0  0  0  0
   -8.3794   -1.4936  -25.2188 H   0  0  0  0  0  0  0  0  0  0  0  0
   -7.0698   -0.8162  -24.2120 H   0  0  0  0  0  0  0  0  0  0  0  0
   -6.1523   -2.5997  -22.4127 H   0  0  0  0  0  0  0  0  0  0  0  0
   -6.9925   -3.4523  -21.1088 H   0  0  0  0  0  0  0  0  0  0  0  0
   -9.0725   -3.3802  -22.2172 H   0  0  0  0  0  0  0  0  0  0  0  0
   -7.0907   -3.3390  -24.5571 H   0  0  0  0  0  0  0  0  0  0  0  0
   -7.6639   -4.7601  -23.6853 H   0  0  0  0  0  0  0  0  0  0  0  0
   -8.7820   -3.8418  -24.7045 H   0  0  0  0  0  0  0  0  0  0  0  0
  1  2  1  0
  2  3  1  0
  3  4  1  0
  4  5  1  0
  5  6  2  0
  6  7  1  0
  7  8  2  0
  8  9  1  0
  9 10  2  0
 10 11  1  0
 11 12  2  0
 12 13  1  0
 13 14  2  0
 13 15  1  0
 12 16  1  0
 11 17  1  0
 10 18  1  0
  8 19  1  0
  6 20  1  0
  4 21  1  0
 21 22  2  0
 21 23  1  0
 23 24  1  6
 24 25  1  0
 25 26  1  0
 26 27  1  0
 27 28  1  0
 28 29  1  0
 29 30  1  0
 30 31  1  0
 31 32  1  0
 32 33  2  0
 32 34  2  0
 32 35  1  0
 35 36  1  0
 35 37  1  0
 35 38  1  0
 31 39  1  0
 39 40  1  0
 40 41  1  0
 40 42  1  0
 39 43  1  0
 39 44  1  0
 30 45  1  0
 30 46  1  0
 29 47  1  0
 29 48  1  0
 28 49  1  0
 27 50  1  0
 27 51  1  0
 26 52  1  0
 26 53  1  0
 25 54  1  0
 54 55  2  0
 54 56  1  0
 56 57  2  0
 57 58  1  0
 58 59  2  0
 59 60  1  0
 59 61  1  0
 61 62  2  0
 61 63  1  0
 58 64  1  0
 57 65  1  0
 24 66  1  0
 24 67  1  0
  3 68  1  0
  3 69  1  0
  2 70  1  1
  1 71  1  0
  1 72  1  0
  1 73  1  0
 23  2  1  0
 40 28  1  0
 62 56  1  0
 14  5  1  0
 62 23  1  0
 14  9  1  0
M  CHG  1  28   1
M  END
>  <cnnaffinities>  (15) 
[6.5117, 6.22996]

>  <score>  (15) 
6.5117

>  <index>  (15) 
14

>  <Smiles>  (15) 
C([C@]1(C(N(c2c(nc(c3c(c(c(c(c23)[H])[H])[H])[H])[H])[H])C(=O)[C@]21C(N(C(C([N+]1(C(C(N(S(=O)(=O)C([H])([H])[H])C(C1([H])[H])([H])[H])([H])[H])([H])[H])[H])([H])[H])([H])[H])C(=O)c1c(c(c(Cl)c(c21)[H])[H])[H])([H])[H])([H])[H])[H])([H])([H])[H]

>  <h>  (15) 
<NA>

>  <Training>  (15) 
True

>  <Success>  (15) 
True

>  <enamine_searched>  (15) 
False

>  <enamine_id>  (15) 
nan

$$$$

     RDKit          3D

 63 68  0  0  0  0  0  0  0  0999 V2000
   -7.0585    3.4005  -22.4481 C   0  0  0  0  0  0  0  0  0  0  0  0
   -8.0987    2.6440  -23.1075 N   0  0  0  0  0  0  0  0  0  0  0  0
   -7.8731    1.9543  -24.2505 C   0  0  0  0  0  0  0  0  0  0  0  0
   -6.7635    1.7614  -24.7293 O   0  0  0  0  0  0  0  0  0  0  0  0
   -9.1364    1.4804  -24.9502 C   0  0  0  0  0  0  0  0  0  0  0  0
   -9.7319    0.3098  -24.3374 N   0  0  0  0  0  0  0  0  0  0  0  0
   -8.9374   -0.8933  -24.1610 C   0  0  0  0  0  0  0  0  0  0  0  0
   -9.2719   -1.5978  -22.8171 C   0  0  2  0  0  0  0  0  0  0  0  0
   -8.7376   -0.7121  -21.6452 C   0  0  0  0  0  0  0  0  0  0  0  0
   -9.2593    0.2753  -21.1794 O   0  0  0  0  0  0  0  0  0  0  0  0
   -7.5350   -1.2428  -21.2262 N   0  0  0  0  0  0  0  0  0  0  0  0
   -6.7605   -0.6830  -20.1754 C   0  0  0  0  0  0  0  0  0  0  0  0
   -7.0262   -1.0222  -18.8734 C   0  0  0  0  0  0  0  0  0  0  0  0
   -6.2888   -0.6192  -17.8089 N   0  0  0  0  0  0  0  0  0  0  0  0
   -5.2502    0.1477  -18.0388 C   0  0  0  0  0  0  0  0  0  0  0  0
   -4.8541    0.5732  -19.3403 C   0  0  0  0  0  0  0  0  0  0  0  0
   -3.7150    1.3976  -19.5568 C   0  0  0  0  0  0  0  0  0  0  0  0
   -3.3811    1.8028  -20.8202 C   0  0  0  0  0  0  0  0  0  0  0  0
   -4.1747    1.4170  -21.9235 C   0  0  0  0  0  0  0  0  0  0  0  0
   -5.2842    0.6238  -21.7438 C   0  0  0  0  0  0  0  0  0  0  0  0
   -5.6427    0.1659  -20.4460 C   0  0  0  0  0  0  0  0  0  0  0  0
   -5.9181    0.3947  -22.5977 H   0  0  0  0  0  0  0  0  0  0  0  0
   -3.9239    1.7607  -22.9225 H   0  0  0  0  0  0  0  0  0  0  0  0
   -2.5115    2.4347  -20.9796 H   0  0  0  0  0  0  0  0  0  0  0  0
   -3.1211    1.7009  -18.6982 H   0  0  0  0  0  0  0  0  0  0  0  0
   -4.6635    0.4735  -17.1750 H   0  0  0  0  0  0  0  0  0  0  0  0
   -7.8736   -1.6664  -18.6481 H   0  0  0  0  0  0  0  0  0  0  0  0
   -7.0952   -2.3680  -22.0239 C   0  0  0  0  0  0  0  0  0  0  0  0
   -8.4114   -2.8901  -22.6233 C   0  0  2  0  0  0  0  0  0  0  0  0
   -8.1953   -3.7562  -23.8771 C   0  0  0  0  0  0  0  0  0  0  0  0
   -7.4581   -4.9799  -23.6158 N   0  0  0  0  0  0  0  0  0  0  0  0
   -6.1226   -5.1691  -23.7201 C   0  0  0  0  0  0  0  0  0  0  0  0
   -5.8739   -6.4834  -23.3972 C   0  0  0  0  0  0  0  0  0  0  0  0
   -7.1505   -7.0061  -23.1006 C   0  0  0  0  0  0  0  0  0  0  0  0
   -8.0996   -6.0886  -23.2313 N   0  0  0  0  0  0  0  0  0  0  0  0
   -7.4239   -8.0098  -22.7918 H   0  0  0  0  0  0  0  0  0  0  0  0
   -4.9206   -6.9958  -23.3894 H   0  0  0  0  0  0  0  0  0  0  0  0
   -5.4661   -4.3562  -24.0043 H   0  0  0  0  0  0  0  0  0  0  0  0
   -7.6200   -3.1936  -24.6210 H   0  0  0  0  0  0  0  0  0  0  0  0
   -9.1549   -4.0535  -24.3117 H   0  0  0  0  0  0  0  0  0  0  0  0
   -8.8877   -3.5131  -21.8609 H   0  0  0  0  0  0  0  0  0  0  0  0
   -6.5774   -3.1045  -21.4072 H   0  0  0  0  0  0  0  0  0  0  0  0
   -6.3996   -2.0464  -22.8181 H   0  0  0  0  0  0  0  0  0  0  0  0
  -10.7930   -1.7411  -22.7383 C   0  0  0  0  0  0  0  0  0  0  0  0
  -11.4037   -2.6320  -21.8427 C   0  0  0  0  0  0  0  0  0  0  0  0
  -12.7648   -2.5438  -21.5950 C   0  0  0  0  0  0  0  0  0  0  0  0
  -13.5216   -3.3804  -20.2787 Cl  0  0  0  0  0  0  0  0  0  0  0  0
  -13.5926   -1.6854  -22.3093 C   0  0  0  0  0  0  0  0  0  0  0  0
  -13.0265   -0.8501  -23.2422 C   0  0  0  0  0  0  0  0  0  0  0  0
  -11.6399   -0.8376  -23.4064 C   0  0  0  0  0  0  0  0  0  0  0  0
  -11.0929    0.2756  -24.2357 C   0  0  0  0  0  0  0  0  0  0  0  0
  -11.8254    1.1109  -24.7496 O   0  0  0  0  0  0  0  0  0  0  0  0
  -13.6281   -0.1452  -23.8104 H   0  0  0  0  0  0  0  0  0  0  0  0
  -14.6505   -1.6779  -22.0780 H   0  0  0  0  0  0  0  0  0  0  0  0
  -10.8299   -3.3920  -21.3281 H   0  0  0  0  0  0  0  0  0  0  0  0
   -7.8868   -0.5907  -24.1933 H   0  0  0  0  0  0  0  0  0  0  0  0
   -9.1177   -1.5968  -24.9868 H   0  0  0  0  0  0  0  0  0  0  0  0
   -9.9027    2.2605  -24.8969 H   0  0  0  0  0  0  0  0  0  0  0  0
   -8.8627    1.3099  -25.9955 H   0  0  0  0  0  0  0  0  0  0  0  0
   -9.0081    2.5580  -22.6771 H   0  0  0  0  0  0  0  0  0  0  0  0
   -7.4178    4.3885  -22.1505 H   0  0  0  0  0  0  0  0  0  0  0  0
   -6.2238    3.5251  -23.1400 H   0  0  0  0  0  0  0  0  0  0  0  0
   -6.6860    2.8610  -21.5767 H   0  0  0  0  0  0  0  0  0  0  0  0
  1  2  1  0
  2  3  1  0
  3  4  2  0
  3  5  1  0
  5  6  1  0
  6  7  1  0
  8  7  1  6
  8  9  1  0
  9 10  2  0
  9 11  1  0
 11 12  1  0
 12 13  2  0
 13 14  1  0
 14 15  2  0
 15 16  1  0
 16 17  2  0
 17 18  1  0
 18 19  2  0
 19 20  1  0
 20 21  2  0
 20 22  1  0
 19 23  1  0
 18 24  1  0
 17 25  1  0
 15 26  1  0
 13 27  1  0
 11 28  1  0
 28 29  1  0
 29 30  1  0
 30 31  1  0
 31 32  1  0
 32 33  2  0
 33 34  1  0
 34 35  2  0
 34 36  1  0
 33 37  1  0
 32 38  1  0
 30 39  1  0
 30 40  1  0
 29 41  1  1
 28 42  1  0
 28 43  1  0
  8 44  1  0
 44 45  2  0
 45 46  1  0
 46 47  1  0
 46 48  2  0
 48 49  1  0
 49 50  2  0
 50 51  1  0
 51 52  2  0
 49 53  1  0
 48 54  1  0
 45 55  1  0
  7 56  1  0
  7 57  1  0
  5 58  1  0
  5 59  1  0
  2 60  1  0
  1 61  1  0
  1 62  1  0
  1 63  1  0
 51  6  1  0
 29  8  1  0
 35 31  1  0
 50 44  1  0
 21 12  1  0
 21 16  1  0
M  END
>  <cnnaffinities>  (16) 
[7.02152, 6.77217, 6.73024]

>  <score>  (16) 
7.02152

>  <index>  (16) 
15

>  <Smiles>  (16) 
C(N(C(=O)C(N1C([C@@]2(C(=O)N(c3c(nc(c4c(c(c(c(c34)[H])[H])[H])[H])[H])[H])C([C@@]2(C(n2c(c(c(n2)[H])[H])[H])([H])[H])[H])([H])[H])c2c(c(Cl)c(c(c2C1=O)[H])[H])[H])([H])[H])([H])[H])[H])([H])([H])[H]

>  <h>  (16) 
<NA>

>  <Training>  (16) 
True

>  <Success>  (16) 
True

>  <enamine_searched>  (16) 
False

>  <enamine_id>  (16) 
nan

$$$$

     RDKit          3D

 61 66  0  0  0  0  0  0  0  0999 V2000
   -6.8597    3.4078  -23.2566 C   0  0  0  0  0  0  0  0  0  0  0  0
   -7.5694    2.6158  -24.2368 N   0  0  0  0  0  0  0  0  0  0  0  0
   -6.9584    1.5826  -24.8471 C   0  0  0  0  0  0  0  0  0  0  0  0
   -5.7642    1.3290  -24.7241 O   0  0  0  0  0  0  0  0  0  0  0  0
   -7.8961    0.7196  -25.7044 C   0  0  0  0  0  0  0  0  0  0  0  0
   -8.8823    0.0375  -24.8712 N   0  0  0  0  0  0  0  0  0  0  0  0
   -8.5605   -1.2828  -24.3395 C   0  0  0  0  0  0  0  0  0  0  0  0
   -9.0974   -1.4681  -22.8883 C   0  0  2  0  0  0  0  0  0  0  0  0
   -8.3136   -0.5227  -21.9396 C   0  0  0  0  0  0  0  0  0  0  0  0
   -8.4253    0.6829  -21.8284 O   0  0  0  0  0  0  0  0  0  0  0  0
   -7.4469   -1.2869  -21.1994 N   0  0  0  0  0  0  0  0  0  0  0  0
   -6.6364   -0.7493  -20.1804 C   0  0  0  0  0  0  0  0  0  0  0  0
   -6.9093   -1.0611  -18.8736 C   0  0  0  0  0  0  0  0  0  0  0  0
   -6.2163   -0.5904  -17.8134 N   0  0  0  0  0  0  0  0  0  0  0  0
   -5.1975    0.1961  -18.0686 C   0  0  0  0  0  0  0  0  0  0  0  0
   -4.7805    0.5610  -19.3798 C   0  0  0  0  0  0  0  0  0  0  0  0
   -3.6451    1.3847  -19.5991 C   0  0  0  0  0  0  0  0  0  0  0  0
   -3.2638    1.7188  -20.8695 C   0  0  0  0  0  0  0  0  0  0  0  0
   -4.0027    1.2528  -21.9791 C   0  0  0  0  0  0  0  0  0  0  0  0
   -5.0942    0.4396  -21.7957 C   0  0  0  0  0  0  0  0  0  0  0  0
   -5.5189    0.0822  -20.4846 C   0  0  0  0  0  0  0  0  0  0  0  0
   -5.6248    0.0742  -22.6702 H   0  0  0  0  0  0  0  0  0  0  0  0
   -3.7134    1.5253  -22.9902 H   0  0  0  0  0  0  0  0  0  0  0  0
   -2.3896    2.3408  -21.0338 H   0  0  0  0  0  0  0  0  0  0  0  0
   -3.0956    1.7411  -18.7334 H   0  0  0  0  0  0  0  0  0  0  0  0
   -4.6380    0.5811  -17.2162 H   0  0  0  0  0  0  0  0  0  0  0  0
   -7.7502   -1.7158  -18.6464 H   0  0  0  0  0  0  0  0  0  0  0  0
   -7.4447   -2.6867  -21.5345 C   0  0  0  0  0  0  0  0  0  0  0  0
   -8.7423   -2.8720  -22.3229 C   0  0  2  0  0  0  0  0  0  0  0  0
   -8.6188   -3.9997  -23.3563 C   0  0  0  0  0  0  0  0  0  0  0  0
   -8.3718   -5.2887  -22.7312 N   0  0  0  0  0  0  0  0  0  0  0  0
   -7.1629   -5.7656  -22.4797 N   0  0  0  0  0  0  0  0  0  0  0  0
   -7.4571   -6.9223  -21.9027 C   0  0  0  0  0  0  0  0  0  0  0  0
   -8.7835   -7.1237  -21.8021 N   0  0  0  0  0  0  0  0  0  0  0  0
   -9.3461   -6.0737  -22.3329 N   0  0  0  0  0  0  0  0  0  0  0  0
   -6.7265   -7.6391  -21.5596 H   0  0  0  0  0  0  0  0  0  0  0  0
   -9.5286   -4.0893  -23.9570 H   0  0  0  0  0  0  0  0  0  0  0  0
   -7.7675   -3.8182  -24.0133 H   0  0  0  0  0  0  0  0  0  0  0  0
   -9.5170   -3.1698  -21.6151 H   0  0  0  0  0  0  0  0  0  0  0  0
   -7.4275   -3.2856  -20.6285 H   0  0  0  0  0  0  0  0  0  0  0  0
   -6.5646   -2.9658  -22.1314 H   0  0  0  0  0  0  0  0  0  0  0  0
  -10.5752   -1.1243  -22.9037 C   0  0  0  0  0  0  0  0  0  0  0  0
  -11.5136   -1.7336  -22.0710 C   0  0  0  0  0  0  0  0  0  0  0  0
  -12.8504   -1.4026  -22.1812 C   0  0  0  0  0  0  0  0  0  0  0  0
  -14.0176   -2.2466  -21.2091 Cl  0  0  0  0  0  0  0  0  0  0  0  0
  -13.2994   -0.4213  -23.0593 C   0  0  0  0  0  0  0  0  0  0  0  0
  -12.3692    0.2519  -23.8207 C   0  0  0  0  0  0  0  0  0  0  0  0
  -11.0225   -0.0948  -23.7398 C   0  0  0  0  0  0  0  0  0  0  0  0
  -10.0288    0.6886  -24.5307 C   0  0  0  0  0  0  0  0  0  0  0  0
  -10.2495    1.8533  -24.8638 O   0  0  0  0  0  0  0  0  0  0  0  0
  -12.6712    1.0364  -24.5058 H   0  0  0  0  0  0  0  0  0  0  0  0
  -14.3579   -0.2118  -23.1463 H   0  0  0  0  0  0  0  0  0  0  0  0
  -11.2131   -2.4685  -21.3389 H   0  0  0  0  0  0  0  0  0  0  0  0
   -9.0043   -2.0509  -24.9867 H   0  0  0  0  0  0  0  0  0  0  0  0
   -7.4702   -1.4173  -24.3480 H   0  0  0  0  0  0  0  0  0  0  0  0
   -7.3066   -0.0123  -26.2608 H   0  0  0  0  0  0  0  0  0  0  0  0
   -8.4104    1.3308  -26.4509 H   0  0  0  0  0  0  0  0  0  0  0  0
   -8.5783    2.6969  -24.3325 H   0  0  0  0  0  0  0  0  0  0  0  0
   -7.5492    4.1442  -22.8372 H   0  0  0  0  0  0  0  0  0  0  0  0
   -6.4793    2.7709  -22.4431 H   0  0  0  0  0  0  0  0  0  0  0  0
   -6.0200    3.9224  -23.7367 H   0  0  0  0  0  0  0  0  0  0  0  0
  1  2  1  0
  2  3  1  0
  3  4  2  0
  3  5  1  0
  5  6  1  0
  6  7  1  0
  8  7  1  6
  8  9  1  0
  9 10  2  0
  9 11  1  0
 11 12  1  0
 12 13  2  0
 13 14  1  0
 14 15  2  0
 15 16  1  0
 16 17  2  0
 17 18  1  0
 18 19  2  0
 19 20  1  0
 20 21  2  0
 20 22  1  0
 19 23  1  0
 18 24  1  0
 17 25  1  0
 15 26  1  0
 13 27  1  0
 11 28  1  0
 28 29  1  0
 29 30  1  0
 30 31  1  0
 31 32  1  0
 32 33  2  0
 33 34  1  0
 34 35  2  0
 33 36  1  0
 30 37  1  0
 30 38  1  0
 29 39  1  1
 28 40  1  0
 28 41  1  0
  8 42  1  0
 42 43  2  0
 43 44  1  0
 44 45  1  0
 44 46  2  0
 46 47  1  0
 47 48  2  0
 48 49  1  0
 49 50  2  0
 47 51  1  0
 46 52  1  0
 43 53  1  0
  7 54  1  0
  7 55  1  0
  5 56  1  0
  5 57  1  0
  2 58  1  0
  1 59  1  0
  1 60  1  0
  1 61  1  0
 49  6  1  0
 29  8  1  0
 35 31  1  0
 48 42  1  0
 21 12  1  0
 21 16  1  0
M  END
>  <cnnaffinities>  (17) 
[6.47532]

>  <score>  (17) 
6.47532

>  <index>  (17) 
16

>  <Smiles>  (17) 
C(N(C(=O)C(N1C([C@@]2(C(=O)N(c3c(nc(c4c(c(c(c(c34)[H])[H])[H])[H])[H])[H])C([C@@]2(C(n2nc(nn2)[H])([H])[H])[H])([H])[H])c2c(c(Cl)c(c(c2C1=O)[H])[H])[H])([H])[H])([H])[H])[H])([H])([H])[H]

>  <h>  (17) 
<NA>

>  <Training>  (17) 
True

>  <Success>  (17) 
True

>  <enamine_searched>  (17) 
False

>  <enamine_id>  (17) 
nan

$$$$

     RDKit          3D

 38 41  0  0  0  0  0  0  0  0999 V2000
  -10.0931   -5.0130  -24.3149 C   0  0  0  0  0  0  0  0  0  0  0  0
   -9.8091   -3.7201  -23.5581 C   0  0  2  0  0  0  0  0  0  0  0  0
   -9.5577   -2.4918  -24.4305 C   0  0  0  0  0  0  0  0  0  0  0  0
   -9.5905   -1.2398  -23.5502 C   0  0  0  0  0  0  0  0  0  0  0  0
   -8.6694   -1.4487  -22.4391 C   0  0  0  0  0  0  0  0  0  0  0  0
   -8.1785   -0.5388  -21.4499 C   0  0  0  0  0  0  0  0  0  0  0  0
   -8.5772    0.5346  -21.0631 O   0  0  0  0  0  1  0  0  0  0  0  0
   -7.0527   -1.2208  -20.9236 N   0  0  0  0  0  0  0  0  0  0  0  0
   -6.2560   -0.7105  -19.8906 C   0  0  0  0  0  0  0  0  0  0  0  0
   -6.5423   -1.0292  -18.5931 C   0  0  0  0  0  0  0  0  0  0  0  0
   -5.8919   -0.5073  -17.5299 N   0  0  0  0  0  0  0  0  0  0  0  0
   -4.9207    0.3425  -17.7772 C   0  0  0  0  0  0  0  0  0  0  0  0
   -4.5037    0.7304  -19.0896 C   0  0  0  0  0  0  0  0  0  0  0  0
   -3.4281    1.6305  -19.3292 C   0  0  0  0  0  0  0  0  0  0  0  0
   -3.1148    1.9942  -20.6114 C   0  0  0  0  0  0  0  0  0  0  0  0
   -3.8408    1.4854  -21.7125 C   0  0  0  0  0  0  0  0  0  0  0  0
   -4.8692    0.5973  -21.5135 C   0  0  0  0  0  0  0  0  0  0  0  0
   -5.2045    0.1971  -20.1910 C   0  0  0  0  0  0  0  0  0  0  0  0
   -5.4171    0.1922  -22.3593 H   0  0  0  0  0  0  0  0  0  0  0  0
   -3.5913    1.8088  -22.7184 H   0  0  0  0  0  0  0  0  0  0  0  0
   -2.3111    2.7022  -20.7943 H   0  0  0  0  0  0  0  0  0  0  0  0
   -2.8744    2.0328  -18.4840 H   0  0  0  0  0  0  0  0  0  0  0  0
   -4.4339    0.7824  -16.9079 H   0  0  0  0  0  0  0  0  0  0  0  0
   -7.3570   -1.7142  -18.3782 H   0  0  0  0  0  0  0  0  0  0  0  0
   -7.0315   -2.5533  -21.3292 C   0  0  0  0  0  0  0  0  0  0  0  0
   -6.3041   -3.4390  -20.9531 O   0  0  0  0  0  0  0  0  0  0  0  0
   -8.0654   -2.6425  -22.2342 N   0  0  0  0  0  0  0  0  0  0  0  0
   -8.5679   -3.9248  -22.6908 C   0  0  0  0  0  0  0  0  0  0  0  0
   -8.7977   -4.5468  -21.8248 H   0  0  0  0  0  0  0  0  0  0  0  0
   -7.7939   -4.4330  -23.2749 H   0  0  0  0  0  0  0  0  0  0  0  0
   -9.3423   -0.3359  -24.1154 H   0  0  0  0  0  0  0  0  0  0  0  0
  -10.5961   -1.0555  -23.1505 H   0  0  0  0  0  0  0  0  0  0  0  0
   -8.5760   -2.5956  -24.9113 H   0  0  0  0  0  0  0  0  0  0  0  0
  -10.2734   -2.3746  -25.2358 H   0  0  0  0  0  0  0  0  0  0  0  0
  -10.6779   -3.5123  -22.9242 H   0  0  0  0  0  0  0  0  0  0  0  0
  -11.1138   -5.1064  -24.6915 H   0  0  0  0  0  0  0  0  0  0  0  0
   -9.9552   -5.8714  -23.6550 H   0  0  0  0  0  0  0  0  0  0  0  0
   -9.4028   -5.1175  -25.1561 H   0  0  0  0  0  0  0  0  0  0  0  0
  1  2  1  0
  2  3  1  0
  3  4  1  0
  4  5  1  0
  5  6  2  0
  6  7  1  0
  6  8  1  0
  8  9  1  0
  9 10  2  0
 10 11  1  0
 11 12  2  0
 12 13  1  0
 13 14  2  0
 14 15  1  0
 15 16  2  0
 16 17  1  0
 17 18  2  0
 17 19  1  0
 16 20  1  0
 15 21  1  0
 14 22  1  0
 12 23  1  0
 10 24  1  0
  8 25  1  0
 25 26  2  0
 25 27  1  0
 27 28  1  0
 28 29  1  0
 28 30  1  0
  4 31  1  0
  4 32  1  0
  3 33  1  0
  3 34  1  0
  2 35  1  1
  1 36  1  0
  1 37  1  0
  1 38  1  0
 28  2  1  0
 27  5  1  0
 18  9  1  0
 18 13  1  0
M  CHG  1   7  -1
M  END
>  <cnnaffinities>  (18) 
[5.19627]

>  <score>  (18) 
5.19627

>  <index>  (18) 
17

>  <Smiles>  (18) 
C([C@@]1(C(C(c2c([O-])n(c3c(nc(c4c(c(c(c(c34)[H])[H])[H])[H])[H])[H])c(=O)n2C1([H])[H])([H])[H])([H])[H])[H])([H])([H])[H]

>  <h>  (18) 
<NA>

>  <Training>  (18) 
True

>  <Success>  (18) 
True

>  <enamine_searched>  (18) 
False

>  <enamine_id>  (18) 
nan

$$$$

     RDKit          3D

 56 61  0  0  0  0  0  0  0  0999 V2000
   -7.8956   -3.5675  -24.1200 C   0  0  0  0  0  0  0  0  0  0  0  0
   -8.2875   -2.8406  -22.8257 C   0  0  1  0  0  0  0  0  0  0  0  0
   -7.0700   -2.5935  -21.9077 C   0  0  0  0  0  0  0  0  0  0  0  0
   -7.4007   -1.3730  -21.2016 N   0  0  0  0  0  0  0  0  0  0  0  0
   -6.6008   -0.8086  -20.1704 C   0  0  0  0  0  0  0  0  0  0  0  0
   -6.9067   -1.0487  -18.8578 C   0  0  0  0  0  0  0  0  0  0  0  0
   -6.2014   -0.5601  -17.8082 N   0  0  0  0  0  0  0  0  0  0  0  0
   -5.1720    0.2054  -18.0754 C   0  0  0  0  0  0  0  0  0  0  0  0
   -4.7404    0.5439  -19.3900 C   0  0  0  0  0  0  0  0  0  0  0  0
   -3.6130    1.3793  -19.6312 C   0  0  0  0  0  0  0  0  0  0  0  0
   -3.2288    1.6767  -20.9076 C   0  0  0  0  0  0  0  0  0  0  0  0
   -3.9568    1.1573  -21.9977 C   0  0  0  0  0  0  0  0  0  0  0  0
   -5.0400    0.3323  -21.7924 C   0  0  0  0  0  0  0  0  0  0  0  0
   -5.4718    0.0141  -20.4785 C   0  0  0  0  0  0  0  0  0  0  0  0
   -5.5749   -0.0643  -22.6509 H   0  0  0  0  0  0  0  0  0  0  0  0
   -3.6506    1.3839  -23.0150 H   0  0  0  0  0  0  0  0  0  0  0  0
   -2.3609    2.3069  -21.0923 H   0  0  0  0  0  0  0  0  0  0  0  0
   -3.0732    1.7700  -18.7721 H   0  0  0  0  0  0  0  0  0  0  0  0
   -4.6225    0.6103  -17.2245 H   0  0  0  0  0  0  0  0  0  0  0  0
   -7.7646   -1.6687  -18.6035 H   0  0  0  0  0  0  0  0  0  0  0  0
   -8.4585   -0.6720  -21.7320 C   0  0  0  0  0  0  0  0  0  0  0  0
   -8.8800    0.3621  -21.2649 O   0  0  0  0  0  0  0  0  0  0  0  0
   -8.9972   -1.4527  -22.9687 C   0  0  1  0  0  0  0  0  0  0  0  0
   -8.5722   -0.7556  -24.2852 C   0  0  0  0  0  0  0  0  0  0  0  0
   -9.2840    0.4834  -24.5172 N   0  0  0  0  0  0  0  0  0  0  0  0
   -8.5260    1.6880  -24.8195 C   0  0  0  0  0  0  0  0  0  0  0  0
   -8.1646    2.4935  -23.5956 C   0  0  0  0  0  0  0  0  0  0  0  0
   -8.9559    3.4637  -22.9448 C   0  0  0  0  0  0  0  0  0  0  0  0
   -8.1307    3.9781  -21.9665 C   0  0  0  0  0  0  0  0  0  0  0  0
   -6.9654    3.3073  -22.0524 N   0  0  0  0  0  0  0  0  0  0  0  0
   -6.9663    2.3783  -23.0234 N   0  0  0  0  0  0  0  0  0  0  0  0
   -6.2289    3.3363  -21.3672 H   0  0  0  0  0  0  0  0  0  0  0  0
   -8.2752    4.7199  -21.1938 H   0  0  0  0  0  0  0  0  0  0  0  0
  -10.0107    3.6241  -23.1181 H   0  0  0  0  0  0  0  0  0  0  0  0
   -7.6043    1.3929  -25.3352 H   0  0  0  0  0  0  0  0  0  0  0  0
   -9.1434    2.2829  -25.5008 H   0  0  0  0  0  0  0  0  0  0  0  0
  -10.6378    0.5872  -24.3733 C   0  0  0  0  0  0  0  0  0  0  0  0
  -11.2759    1.5485  -24.7851 O   0  0  0  0  0  0  0  0  0  0  0  0
  -11.2865   -0.5381  -23.6261 C   0  0  0  0  0  0  0  0  0  0  0  0
  -12.6792   -0.5547  -23.5617 C   0  0  0  0  0  0  0  0  0  0  0  0
  -13.3241   -1.4655  -22.7512 C   0  0  0  0  0  0  0  0  0  0  0  0
  -12.5531   -2.3288  -21.9824 C   0  0  0  0  0  0  0  0  0  0  0  0
  -13.1786   -3.1549  -21.1295 F   0  0  0  0  0  0  0  0  0  0  0  0
  -11.1772   -2.3488  -22.0470 C   0  0  0  0  0  0  0  0  0  0  0  0
  -10.5167   -1.4773  -22.9215 C   0  0  0  0  0  0  0  0  0  0  0  0
  -10.6438   -3.0205  -21.3849 H   0  0  0  0  0  0  0  0  0  0  0  0
  -14.4008   -1.5031  -22.6651 H   0  0  0  0  0  0  0  0  0  0  0  0
  -13.2164    0.1905  -24.1411 H   0  0  0  0  0  0  0  0  0  0  0  0
   -7.5050   -0.5098  -24.2253 H   0  0  0  0  0  0  0  0  0  0  0  0
   -8.7521   -1.4427  -25.1255 H   0  0  0  0  0  0  0  0  0  0  0  0
   -6.9047   -3.4144  -21.1990 H   0  0  0  0  0  0  0  0  0  0  0  0
   -6.1455   -2.4727  -22.4940 H   0  0  0  0  0  0  0  0  0  0  0  0
   -8.9897   -3.4774  -22.2845 H   0  0  0  0  0  0  0  0  0  0  0  0
   -8.7508   -3.7180  -24.7891 H   0  0  0  0  0  0  0  0  0  0  0  0
   -7.1335   -3.0058  -24.6744 H   0  0  0  0  0  0  0  0  0  0  0  0
   -7.4718   -4.5530  -23.8985 H   0  0  0  0  0  0  0  0  0  0  0  0
  1  2  1  0
  2  3  1  0
  3  4  1  0
  4  5  1  0
  5  6  2  0
  6  7  1  0
  7  8  2  0
  8  9  1  0
  9 10  2  0
 10 11  1  0
 11 12  2  0
 12 13  1  0
 13 14  2  0
 13 15  1  0
 12 16  1  0
 11 17  1  0
 10 18  1  0
  8 19  1  0
  6 20  1  0
  4 21  1  0
 21 22  2  0
 21 23  1  0
 23 24  1  6
 24 25  1  0
 25 26  1  0
 26 27  1  0
 27 28  1  0
 28 29  2  0
 29 30  1  0
 30 31  1  0
 30 32  1  0
 29 33  1  0
 28 34  1  0
 26 35  1  0
 26 36  1  0
 25 37  1  0
 37 38  2  0
 37 39  1  0
 39 40  2  0
 40 41  1  0
 41 42  2  0
 42 43  1  0
 42 44  1  0
 44 45  2  0
 44 46  1  0
 41 47  1  0
 40 48  1  0
 24 49  1  0
 24 50  1  0
  3 51  1  0
  3 52  1  0
  2 53  1  1
  1 54  1  0
  1 55  1  0
  1 56  1  0
 23  2  1  0
 31 27  2  0
 45 39  1  0
 14  5  1  0
 45 23  1  0
 14  9  1  0
M  END
>  <cnnaffinities>  (19) 
[6.15928]

>  <score>  (19) 
6.15928

>  <index>  (19) 
18

>  <Smiles>  (19) 
C([C@]1(C(N(c2c(nc(c3c(c(c(c(c23)[H])[H])[H])[H])[H])[H])C(=O)[C@]21C(N(C(c1c(c(n(n1)[H])[H])[H])([H])[H])C(=O)c1c(c(c(F)c(c21)[H])[H])[H])([H])[H])([H])[H])[H])([H])([H])[H]

>  <h>  (19) 
<NA>

>  <Training>  (19) 
True

>  <Success>  (19) 
True

>  <enamine_searched>  (19) 
False

>  <enamine_id>  (19) 
nan

$$$$

     RDKit          3D

 42 45  0  0  0  0  0  0  0  0999 V2000
   -9.1474   -0.0647  -20.7252 O   0  0  0  0  0  0  0  0  0  0  0  0
   -8.6543   -0.9065  -21.4510 C   0  0  0  0  0  0  0  0  0  0  0  0
   -9.3665   -1.5022  -22.6778 C   0  0  1  0  0  0  0  0  0  0  0  0
  -10.4387   -0.5583  -23.1895 C   0  0  0  0  0  0  0  0  0  0  0  0
  -10.1011    0.7532  -23.5142 C   0  0  0  0  0  0  0  0  0  0  0  0
  -11.0717    1.6258  -23.9720 C   0  0  0  0  0  0  0  0  0  0  0  0
  -12.3998    1.2393  -24.0863 C   0  0  0  0  0  0  0  0  0  0  0  0
  -13.5498    2.5019  -24.3734 Cl  0  0  0  0  0  0  0  0  0  0  0  0
  -12.7275   -0.0998  -23.8644 C   0  0  0  0  0  0  0  0  0  0  0  0
  -14.3300   -0.6930  -24.1143 Cl  0  0  0  0  0  0  0  0  0  0  0  0
  -11.7481   -0.9859  -23.4065 C   0  0  0  0  0  0  0  0  0  0  0  0
  -12.0450   -2.0125  -23.1874 H   0  0  0  0  0  0  0  0  0  0  0  0
  -10.8319    2.6512  -24.2097 H   0  0  0  0  0  0  0  0  0  0  0  0
   -9.0893    1.1203  -23.3417 H   0  0  0  0  0  0  0  0  0  0  0  0
   -8.3343   -1.7858  -23.7766 C   0  0  0  0  0  0  0  0  0  0  0  0
   -7.2411   -2.7549  -23.3391 C   0  0  2  0  0  0  0  0  0  0  0  0
   -7.5403   -4.1049  -23.6624 O   0  0  0  0  0  0  0  0  0  0  0  0
   -8.3918   -4.3239  -23.2620 H   0  0  0  0  0  0  0  0  0  0  0  0
   -6.9334   -2.6358  -21.8365 C   0  0  0  0  0  0  0  0  0  0  0  0
   -7.3754   -1.3766  -21.2540 N   0  0  0  0  0  0  0  0  0  0  0  0
   -6.6089   -0.8066  -20.1922 C   0  0  0  0  0  0  0  0  0  0  0  0
   -6.9078   -1.0557  -18.8779 C   0  0  0  0  0  0  0  0  0  0  0  0
   -6.1986   -0.5688  -17.8279 N   0  0  0  0  0  0  0  0  0  0  0  0
   -5.1677    0.2002  -18.0792 C   0  0  0  0  0  0  0  0  0  0  0  0
   -4.7306    0.5322  -19.3922 C   0  0  0  0  0  0  0  0  0  0  0  0
   -3.6028    1.3639  -19.6308 C   0  0  0  0  0  0  0  0  0  0  0  0
   -3.2293    1.6700  -20.9106 C   0  0  0  0  0  0  0  0  0  0  0  0
   -3.9732    1.1669  -22.0004 C   0  0  0  0  0  0  0  0  0  0  0  0
   -5.0557    0.3500  -21.7922 C   0  0  0  0  0  0  0  0  0  0  0  0
   -5.4677    0.0139  -20.4802 C   0  0  0  0  0  0  0  0  0  0  0  0
   -5.5882   -0.0825  -22.6320 H   0  0  0  0  0  0  0  0  0  0  0  0
   -3.6476    1.3710  -23.0153 H   0  0  0  0  0  0  0  0  0  0  0  0
   -2.3588    2.2914  -21.1016 H   0  0  0  0  0  0  0  0  0  0  0  0
   -3.0612    1.7633  -18.7773 H   0  0  0  0  0  0  0  0  0  0  0  0
   -4.6248    0.6099  -17.2246 H   0  0  0  0  0  0  0  0  0  0  0  0
   -7.7576   -1.6735  -18.5975 H   0  0  0  0  0  0  0  0  0  0  0  0
   -7.3913   -3.5103  -21.3394 H   0  0  0  0  0  0  0  0  0  0  0  0
   -5.8584   -2.6935  -21.6670 H   0  0  0  0  0  0  0  0  0  0  0  0
   -6.3400   -2.5451  -23.9206 H   0  0  0  0  0  0  0  0  0  0  0  0
   -7.8961   -0.8284  -24.0870 H   0  0  0  0  0  0  0  0  0  0  0  0
   -8.8246   -2.2060  -24.6604 H   0  0  0  0  0  0  0  0  0  0  0  0
   -9.8464   -2.4443  -22.3763 H   0  0  0  0  0  0  0  0  0  0  0  0
  1  2  2  0
  2  3  1  0
  3  4  1  0
  4  5  2  0
  5  6  1  0
  6  7  2  0
  7  8  1  0
  7  9  1  0
  9 10  1  0
  9 11  2  0
 11 12  1  0
  6 13  1  0
  5 14  1  0
  3 15  1  0
 15 16  1  0
 16 17  1  0
 17 18  1  0
 16 19  1  0
 19 20  1  0
 20 21  1  0
 21 22  2  0
 22 23  1  0
 23 24  2  0
 24 25  1  0
 25 26  2  0
 26 27  1  0
 27 28  2  0
 28 29  1  0
 29 30  2  0
 29 31  1  0
 28 32  1  0
 27 33  1  0
 26 34  1  0
 24 35  1  0
 22 36  1  0
 19 37  1  0
 19 38  1  0
 16 39  1  6
 15 40  1  0
 15 41  1  0
  3 42  1  1
 20  2  1  0
 30 21  1  0
 11  4  1  0
 30 25  1  0
M  END
>  <cnnaffinities>  (20) 
[5.50022]

>  <score>  (20) 
5.50022

>  <index>  (20) 
19

>  <Smiles>  (20) 
O=C1[C@@](c2c(c(c(Cl)c(Cl)c2[H])[H])[H])(C([C@](O[H])(C(N1c1c(nc(c2c(c(c(c(c12)[H])[H])[H])[H])[H])[H])([H])[H])[H])([H])[H])[H]

>  <h>  (20) 
<NA>

>  <Training>  (20) 
True

>  <Success>  (20) 
True

>  <enamine_searched>  (20) 
False

>  <enamine_id>  (20) 
nan

$$$$

     RDKit          3D

 66 71  0  0  0  0  0  0  0  0999 V2000
   -7.4316    3.3680  -21.7914 C   0  0  0  0  0  0  0  0  0  0  0  0
   -8.3169    2.9153  -22.8448 N   0  0  0  0  0  0  0  0  0  0  0  0
   -7.7578    2.2208  -23.8649 C   0  0  0  0  0  0  0  0  0  0  0  0
   -6.5476    2.1036  -23.9849 O   0  0  0  0  0  0  0  0  0  0  0  0
   -8.7025    1.5940  -24.8865 C   0  0  0  0  0  0  0  0  0  0  0  0
   -9.4136    0.4406  -24.3673 N   0  0  0  0  0  0  0  0  0  0  0  0
   -8.6851   -0.8029  -24.2016 C   0  0  0  0  0  0  0  0  0  0  0  0
   -9.0791   -1.5281  -22.8894 C   0  0  2  0  0  0  0  0  0  0  0  0
   -8.5308   -0.7456  -21.6682 C   0  0  0  0  0  0  0  0  0  0  0  0
   -8.9929    0.2658  -21.1793 O   0  0  0  0  0  0  0  0  0  0  0  0
   -7.3994   -1.3802  -21.2051 N   0  0  0  0  0  0  0  0  0  0  0  0
   -6.6049   -0.8096  -20.1733 C   0  0  0  0  0  0  0  0  0  0  0  0
   -6.9113   -1.0501  -18.8571 C   0  0  0  0  0  0  0  0  0  0  0  0
   -6.2085   -0.5605  -17.8063 N   0  0  0  0  0  0  0  0  0  0  0  0
   -5.1752    0.2020  -18.0721 C   0  0  0  0  0  0  0  0  0  0  0  0
   -4.7437    0.5416  -19.3864 C   0  0  0  0  0  0  0  0  0  0  0  0
   -3.6188    1.3773  -19.6289 C   0  0  0  0  0  0  0  0  0  0  0  0
   -3.2427    1.6884  -20.9066 C   0  0  0  0  0  0  0  0  0  0  0  0
   -3.9848    1.1916  -22.0022 C   0  0  0  0  0  0  0  0  0  0  0  0
   -5.0713    0.3732  -21.7941 C   0  0  0  0  0  0  0  0  0  0  0  0
   -5.4840    0.0266  -20.4807 C   0  0  0  0  0  0  0  0  0  0  0  0
   -5.6077   -0.0286  -22.6504 H   0  0  0  0  0  0  0  0  0  0  0  0
   -3.6845    1.4232  -23.0186 H   0  0  0  0  0  0  0  0  0  0  0  0
   -2.3727    2.3147  -21.0881 H   0  0  0  0  0  0  0  0  0  0  0  0
   -3.0704    1.7601  -18.7706 H   0  0  0  0  0  0  0  0  0  0  0  0
   -4.6213    0.6039  -17.2227 H   0  0  0  0  0  0  0  0  0  0  0  0
   -7.7692   -1.6721  -18.6086 H   0  0  0  0  0  0  0  0  0  0  0  0
   -7.0554   -2.5854  -21.9322 C   0  0  0  0  0  0  0  0  0  0  0  0
   -8.3287   -2.8915  -22.7492 C   0  0  2  0  0  0  0  0  0  0  0  0
   -8.0197   -3.6727  -24.0461 C   0  0  0  0  0  0  0  0  0  0  0  0
   -7.4767   -5.0614  -23.7748 C   0  0  0  0  0  0  0  0  0  0  0  0
   -8.3520   -6.1167  -23.5009 C   0  0  0  0  0  0  0  0  0  0  0  0
   -7.8737   -7.3926  -23.2157 C   0  0  0  0  0  0  0  0  0  0  0  0
   -6.5022   -7.6371  -23.1963 C   0  0  0  0  0  0  0  0  0  0  0  0
   -5.6170   -6.5963  -23.4700 C   0  0  0  0  0  0  0  0  0  0  0  0
   -6.1023   -5.3208  -23.7542 C   0  0  0  0  0  0  0  0  0  0  0  0
   -5.4013   -4.5124  -23.9655 H   0  0  0  0  0  0  0  0  0  0  0  0
   -4.5440   -6.7814  -23.4609 H   0  0  0  0  0  0  0  0  0  0  0  0
   -6.1264   -8.6340  -22.9701 H   0  0  0  0  0  0  0  0  0  0  0  0
   -8.5770   -8.1982  -23.0099 H   0  0  0  0  0  0  0  0  0  0  0  0
   -9.4270   -5.9353  -23.5140 H   0  0  0  0  0  0  0  0  0  0  0  0
   -8.9392   -3.7537  -24.6439 H   0  0  0  0  0  0  0  0  0  0  0  0
   -7.2912   -3.1110  -24.6491 H   0  0  0  0  0  0  0  0  0  0  0  0
   -8.9743   -3.5275  -22.1375 H   0  0  0  0  0  0  0  0  0  0  0  0
   -6.7940   -3.4020  -21.2460 H   0  0  0  0  0  0  0  0  0  0  0  0
   -6.1847   -2.4131  -22.5874 H   0  0  0  0  0  0  0  0  0  0  0  0
  -10.5981   -1.5879  -22.8229 C   0  0  0  0  0  0  0  0  0  0  0  0
  -11.2311   -2.4350  -21.9066 C   0  0  0  0  0  0  0  0  0  0  0  0
  -12.6095   -2.3879  -21.7742 C   0  0  0  0  0  0  0  0  0  0  0  0
  -13.3874   -3.2194  -20.4593 Cl  0  0  0  0  0  0  0  0  0  0  0  0
  -13.4017   -1.5851  -22.5960 C   0  0  0  0  0  0  0  0  0  0  0  0
  -12.7806   -0.7159  -23.4618 C   0  0  0  0  0  0  0  0  0  0  0  0
  -11.3923   -0.6775  -23.5357 C   0  0  0  0  0  0  0  0  0  0  0  0
  -10.7791    0.4750  -24.2749 C   0  0  0  0  0  0  0  0  0  0  0  0
  -11.4575    1.3961  -24.7115 O   0  0  0  0  0  0  0  0  0  0  0  0
  -13.3202    0.0152  -24.0513 H   0  0  0  0  0  0  0  0  0  0  0  0
  -14.4811   -1.6346  -22.5325 H   0  0  0  0  0  0  0  0  0  0  0  0
  -10.6563   -3.1313  -21.3025 H   0  0  0  0  0  0  0  0  0  0  0  0
   -8.8986   -1.4736  -25.0492 H   0  0  0  0  0  0  0  0  0  0  0  0
   -7.6166   -0.5547  -24.1990 H   0  0  0  0  0  0  0  0  0  0  0  0
   -9.4843    2.2957  -25.1856 H   0  0  0  0  0  0  0  0  0  0  0  0
   -8.0750    1.3156  -25.7449 H   0  0  0  0  0  0  0  0  0  0  0  0
   -9.3010    2.7899  -22.6454 H   0  0  0  0  0  0  0  0  0  0  0  0
   -6.7350    4.1146  -22.1832 H   0  0  0  0  0  0  0  0  0  0  0  0
   -8.0216    3.8026  -20.9873 H   0  0  0  0  0  0  0  0  0  0  0  0
   -6.8360    2.5246  -21.4188 H   0  0  0  0  0  0  0  0  0  0  0  0
  1  2  1  0
  2  3  1  0
  3  4  2  0
  3  5  1  0
  5  6  1  0
  6  7  1  0
  8  7  1  6
  8  9  1  0
  9 10  2  0
  9 11  1  0
 11 12  1  0
 12 13  2  0
 13 14  1  0
 14 15  2  0
 15 16  1  0
 16 17  2  0
 17 18  1  0
 18 19  2  0
 19 20  1  0
 20 21  2  0
 20 22  1  0
 19 23  1  0
 18 24  1  0
 17 25  1  0
 15 26  1  0
 13 27  1  0
 11 28  1  0
 28 29  1  0
 29 30  1  0
 30 31  1  0
 31 32  2  0
 32 33  1  0
 33 34  2  0
 34 35  1  0
 35 36  2  0
 36 37  1  0
 35 38  1  0
 34 39  1  0
 33 40  1  0
 32 41  1  0
 30 42  1  0
 30 43  1  0
 29 44  1  1
 28 45  1  0
 28 46  1  0
  8 47  1  0
 47 48  2  0
 48 49  1  0
 49 50  1  0
 49 51  2  0
 51 52  1  0
 52 53  2  0
 53 54  1  0
 54 55  2  0
 52 56  1  0
 51 57  1  0
 48 58  1  0
  7 59  1  0
  7 60  1  0
  5 61  1  0
  5 62  1  0
  2 63  1  0
  1 64  1  0
  1 65  1  0
  1 66  1  0
 54  6  1  0
 29  8  1  0
 36 31  1  0
 53 47  1  0
 21 12  1  0
 21 16  1  0
M  END
>  <cnnaffinities>  (21) 
[6.96544, 6.94919]

>  <score>  (21) 
6.96544

>  <index>  (21) 
20

>  <Smiles>  (21) 
C(N(C(=O)C(N1C([C@@]2(C(=O)N(c3c(nc(c4c(c(c(c(c34)[H])[H])[H])[H])[H])[H])C([C@@]2(C(c2c(c(c(c(c2[H])[H])[H])[H])[H])([H])[H])[H])([H])[H])c2c(c(Cl)c(c(c2C1=O)[H])[H])[H])([H])[H])([H])[H])[H])([H])([H])[H]

>  <h>  (21) 
<NA>

>  <Training>  (21) 
True

>  <Success>  (21) 
True

>  <enamine_searched>  (21) 
False

>  <enamine_id>  (21) 
nan

$$$$

     RDKit          3D

 63 68  0  0  0  0  0  0  0  0999 V2000
  -10.1999   -2.9819  -22.0661 C   0  0  0  0  0  0  0  0  0  0  0  0
   -9.1324   -2.0402  -22.6362 C   0  0  1  0  0  0  0  0  0  0  0  0
   -8.6690   -1.0372  -21.5649 C   0  0  0  0  0  0  0  0  0  0  0  0
   -7.3435   -1.4799  -21.2000 N   0  0  0  0  0  0  0  0  0  0  0  0
   -6.5813   -0.8537  -20.1898 C   0  0  0  0  0  0  0  0  0  0  0  0
   -6.9165   -1.0634  -18.8794 C   0  0  0  0  0  0  0  0  0  0  0  0
   -6.2395   -0.5614  -17.8212 N   0  0  0  0  0  0  0  0  0  0  0  0
   -5.2037    0.1991  -18.0879 C   0  0  0  0  0  0  0  0  0  0  0  0
   -4.7698    0.5277  -19.4044 C   0  0  0  0  0  0  0  0  0  0  0  0
   -3.6437    1.3633  -19.6199 C   0  0  0  0  0  0  0  0  0  0  0  0
   -3.2708    1.7066  -20.8891 C   0  0  0  0  0  0  0  0  0  0  0  0
   -4.0150    1.2422  -21.9966 C   0  0  0  0  0  0  0  0  0  0  0  0
   -5.0935    0.4090  -21.8214 C   0  0  0  0  0  0  0  0  0  0  0  0
   -5.4879    0.0139  -20.5070 C   0  0  0  0  0  0  0  0  0  0  0  0
   -5.6257    0.0307  -22.6955 H   0  0  0  0  0  0  0  0  0  0  0  0
   -3.7059    1.5231  -22.9988 H   0  0  0  0  0  0  0  0  0  0  0  0
   -2.4094    2.3463  -21.0520 H   0  0  0  0  0  0  0  0  0  0  0  0
   -3.1019    1.7284  -18.7518 H   0  0  0  0  0  0  0  0  0  0  0  0
   -4.6502    0.6018  -17.2393 H   0  0  0  0  0  0  0  0  0  0  0  0
   -7.7710   -1.6974  -18.6492 H   0  0  0  0  0  0  0  0  0  0  0  0
   -6.8087   -2.4490  -22.0131 C   0  0  0  0  0  0  0  0  0  0  0  0
   -5.7251   -2.9717  -21.8412 O   0  0  0  0  0  0  0  0  0  0  0  0
   -7.8212   -2.7204  -23.1463 C   0  0  1  0  0  0  0  0  0  0  0  0
   -7.9868   -4.2325  -23.3627 C   0  0  0  0  0  0  0  0  0  0  0  0
   -6.8082   -4.8181  -23.9766 N   0  0  0  0  0  0  0  0  0  0  0  0
   -6.4326   -6.1627  -23.5814 C   0  0  0  0  0  0  0  0  0  0  0  0
   -7.4399   -7.1645  -24.1530 C   0  0  0  0  0  0  0  0  0  0  0  0
   -8.3845   -7.5940  -23.5147 O   0  0  0  0  0  0  0  0  0  0  0  0
   -7.2117   -7.4660  -25.4665 N   0  0  0  0  0  0  0  0  0  0  0  0
   -8.3597   -7.9099  -26.2511 C   0  0  0  0  0  0  0  0  0  0  0  0
   -9.3645   -6.7946  -26.4322 C   0  0  0  0  0  0  0  0  0  0  0  0
   -8.9940   -5.5813  -27.2361 C   0  0  0  0  0  0  0  0  0  0  0  0
  -10.0378   -6.5427  -27.7435 C   0  0  0  0  0  0  0  0  0  0  0  0
  -11.0803   -6.2388  -27.7244 H   0  0  0  0  0  0  0  0  0  0  0  0
   -9.7670   -7.1815  -28.5819 H   0  0  0  0  0  0  0  0  0  0  0  0
   -8.0286   -5.5902  -27.7431 H   0  0  0  0  0  0  0  0  0  0  0  0
   -9.3148   -4.6135  -26.8540 H   0  0  0  0  0  0  0  0  0  0  0  0
   -9.9630   -6.6209  -25.5401 H   0  0  0  0  0  0  0  0  0  0  0  0
   -7.9834   -8.2692  -27.2152 H   0  0  0  0  0  0  0  0  0  0  0  0
   -8.8362   -8.7523  -25.7411 H   0  0  0  0  0  0  0  0  0  0  0  0
   -6.5517   -6.8509  -25.9389 H   0  0  0  0  0  0  0  0  0  0  0  0
   -5.4234   -6.3585  -23.9541 H   0  0  0  0  0  0  0  0  0  0  0  0
   -6.4375   -6.2068  -22.4914 H   0  0  0  0  0  0  0  0  0  0  0  0
   -6.2875   -4.3058  -25.1220 C   0  0  0  0  0  0  0  0  0  0  0  0
   -5.5986   -4.9858  -25.8836 O   0  0  0  0  0  0  0  0  0  0  0  0
   -6.5953   -2.8659  -25.3795 C   0  0  0  0  0  0  0  0  0  0  0  0
   -6.1240   -2.3028  -26.5634 C   0  0  0  0  0  0  0  0  0  0  0  0
   -6.3534   -0.9754  -26.8564 C   0  0  0  0  0  0  0  0  0  0  0  0
   -7.0546   -0.2262  -25.9219 C   0  0  0  0  0  0  0  0  0  0  0  0
   -7.2892    1.0668  -26.1973 F   0  0  0  0  0  0  0  0  0  0  0  0
   -7.5301   -0.7522  -24.7368 C   0  0  0  0  0  0  0  0  0  0  0  0
   -7.3194   -2.1066  -24.4516 C   0  0  0  0  0  0  0  0  0  0  0  0
   -8.0853   -0.0972  -24.0726 H   0  0  0  0  0  0  0  0  0  0  0  0
   -6.0074   -0.5163  -27.7756 H   0  0  0  0  0  0  0  0  0  0  0  0
   -5.5722   -2.9474  -27.2346 H   0  0  0  0  0  0  0  0  0  0  0  0
   -8.1490   -4.7384  -22.4134 H   0  0  0  0  0  0  0  0  0  0  0  0
   -8.8858   -4.3916  -23.9754 H   0  0  0  0  0  0  0  0  0  0  0  0
   -8.6631    0.0019  -21.9242 H   0  0  0  0  0  0  0  0  0  0  0  0
   -9.3227   -1.0637  -20.6966 H   0  0  0  0  0  0  0  0  0  0  0  0
   -9.5999   -1.5171  -23.4766 H   0  0  0  0  0  0  0  0  0  0  0  0
  -10.5815   -3.6656  -22.8280 H   0  0  0  0  0  0  0  0  0  0  0  0
   -9.8140   -3.5755  -21.2317 H   0  0  0  0  0  0  0  0  0  0  0  0
  -11.0479   -2.3965  -21.7005 H   0  0  0  0  0  0  0  0  0  0  0  0
  1  2  1  0
  2  3  1  0
  3  4  1  0
  4  5  1  0
  5  6  2  0
  6  7  1  0
  7  8  2  0
  8  9  1  0
  9 10  2  0
 10 11  1  0
 11 12  2  0
 12 13  1  0
 13 14  2  0
 13 15  1  0
 12 16  1  0
 11 17  1  0
 10 18  1  0
  8 19  1  0
  6 20  1  0
  4 21  1  0
 21 22  2  0
 21 23  1  0
 23 24  1  6
 24 25  1  0
 25 26  1  0
 26 27  1  0
 27 28  2  0
 27 29  1  0
 29 30  1  0
 30 31  1  0
 31 32  1  0
 32 33  1  0
 33 34  1  0
 33 35  1  0
 32 36  1  0
 32 37  1  0
 31 38  1  0
 30 39  1  0
 30 40  1  0
 29 41  1  0
 26 42  1  0
 26 43  1  0
 25 44  1  0
 44 45  2  0
 44 46  1  0
 46 47  2  0
 47 48  1  0
 48 49  2  0
 49 50  1  0
 49 51  1  0
 51 52  2  0
 51 53  1  0
 48 54  1  0
 47 55  1  0
 24 56  1  0
 24 57  1  0
  3 58  1  0
  3 59  1  0
  2 60  1  6
  1 61  1  0
  1 62  1  0
  1 63  1  0
 23  2  1  0
 33 31  1  0
 52 46  1  0
 14  5  1  0
 52 23  1  0
 14  9  1  0
M  END
>  <cnnaffinities>  (22) 
[5.69927, 6.36949]

>  <score>  (22) 
5.69927

>  <index>  (22) 
21

>  <Smiles>  (22) 
C([C@]1(C(N(c2c(nc(c3c(c(c(c(c23)[H])[H])[H])[H])[H])[H])C(=O)[C@]21C(N(C(C(=O)N(C(C1(C(C1([H])[H])([H])[H])[H])([H])[H])[H])([H])[H])C(=O)c1c(c(c(F)c(c21)[H])[H])[H])([H])[H])([H])[H])[H])([H])([H])[H]

>  <h>  (22) 
<NA>

>  <Training>  (22) 
True

>  <Success>  (22) 
True

>  <enamine_searched>  (22) 
False

>  <enamine_id>  (22) 
nan

$$$$

     RDKit          3D

 68 73  0  0  0  0  0  0  0  0999 V2000
   -7.2957    3.4586  -21.9652 C   0  0  0  0  0  0  0  0  0  0  0  0
   -8.2535    2.9605  -22.9393 N   0  0  0  0  0  0  0  0  0  0  0  0
   -7.7718    2.2338  -23.9903 C   0  0  0  0  0  0  0  0  0  0  0  0
   -6.5788    2.0340  -24.1554 O   0  0  0  0  0  0  0  0  0  0  0  0
   -8.8219    1.6693  -24.9497 C   0  0  0  0  0  0  0  0  0  0  0  0
   -9.4855    0.5281  -24.3449 N   0  0  0  0  0  0  0  0  0  0  0  0
   -8.7232   -0.7020  -24.1680 C   0  0  0  0  0  0  0  0  0  0  0  0
   -9.1336   -1.4834  -22.8903 C   0  0  2  0  0  0  0  0  0  0  0  0
   -8.6033   -0.7194  -21.6453 C   0  0  0  0  0  0  0  0  0  0  0  0
   -9.0783    0.2776  -21.1415 O   0  0  0  0  0  0  0  0  0  0  0  0
   -7.4717   -1.3487  -21.1862 N   0  0  0  0  0  0  0  0  0  0  0  0
   -6.6698   -0.7763  -20.1684 C   0  0  0  0  0  0  0  0  0  0  0  0
   -6.9657   -1.0461  -18.8585 C   0  0  0  0  0  0  0  0  0  0  0  0
   -6.2508   -0.5912  -17.8033 N   0  0  0  0  0  0  0  0  0  0  0  0
   -5.2136    0.1695  -18.0604 C   0  0  0  0  0  0  0  0  0  0  0  0
   -4.7976    0.5358  -19.3720 C   0  0  0  0  0  0  0  0  0  0  0  0
   -3.6700    1.3697  -19.5981 C   0  0  0  0  0  0  0  0  0  0  0  0
   -3.3156    1.7316  -20.8698 C   0  0  0  0  0  0  0  0  0  0  0  0
   -4.0797    1.2875  -21.9730 C   0  0  0  0  0  0  0  0  0  0  0  0
   -5.1661    0.4644  -21.7825 C   0  0  0  0  0  0  0  0  0  0  0  0
   -5.5512    0.0609  -20.4731 C   0  0  0  0  0  0  0  0  0  0  0  0
   -5.7517    0.1484  -22.6412 H   0  0  0  0  0  0  0  0  0  0  0  0
   -3.8152    1.5988  -22.9797 H   0  0  0  0  0  0  0  0  0  0  0  0
   -2.4511    2.3674  -21.0392 H   0  0  0  0  0  0  0  0  0  0  0  0
   -3.1110    1.7205  -18.7350 H   0  0  0  0  0  0  0  0  0  0  0  0
   -4.6405    0.5406  -17.2095 H   0  0  0  0  0  0  0  0  0  0  0  0
   -7.8257   -1.6699  -18.6241 H   0  0  0  0  0  0  0  0  0  0  0  0
   -7.0981   -2.5197  -21.9429 C   0  0  0  0  0  0  0  0  0  0  0  0
   -8.3618   -2.8429  -22.7554 C   0  0  2  0  0  0  0  0  0  0  0  0
   -7.9609   -3.6201  -24.0119 C   0  0  0  0  0  0  0  0  0  0  0  0
   -9.0900   -4.2655  -24.6305 N   0  0  0  0  0  0  0  0  0  0  0  0
   -8.9932   -4.8851  -25.8738 C   0  0  0  0  0  0  0  0  0  0  0  0
  -10.1352   -5.5260  -26.3813 C   0  0  0  0  0  0  0  0  0  0  0  0
  -10.1327   -6.0773  -27.6552 C   0  0  0  0  0  0  0  0  0  0  0  0
   -9.0002   -5.9862  -28.4647 C   0  0  0  0  0  0  0  0  0  0  0  0
   -7.8359   -5.4473  -27.9300 C   0  0  0  0  0  0  0  0  0  0  0  0
   -7.8102   -4.9268  -26.6369 C   0  0  0  0  0  0  0  0  0  0  0  0
   -6.8711   -4.5780  -26.2197 H   0  0  0  0  0  0  0  0  0  0  0  0
   -6.9293   -5.4428  -28.5331 H   0  0  0  0  0  0  0  0  0  0  0  0
   -9.0250   -6.3760  -29.4790 H   0  0  0  0  0  0  0  0  0  0  0  0
  -11.0377   -6.5695  -28.0182 H   0  0  0  0  0  0  0  0  0  0  0  0
  -11.0400   -5.5962  -25.7705 H   0  0  0  0  0  0  0  0  0  0  0  0
   -9.9982   -3.8598  -24.4334 H   0  0  0  0  0  0  0  0  0  0  0  0
   -7.2269   -4.3863  -23.7274 H   0  0  0  0  0  0  0  0  0  0  0  0
   -7.4120   -2.9551  -24.7008 H   0  0  0  0  0  0  0  0  0  0  0  0
   -8.9841   -3.5103  -22.1516 H   0  0  0  0  0  0  0  0  0  0  0  0
   -6.8080   -3.3449  -21.2801 H   0  0  0  0  0  0  0  0  0  0  0  0
   -6.2440   -2.3122  -22.6095 H   0  0  0  0  0  0  0  0  0  0  0  0
  -10.6552   -1.5395  -22.8173 C   0  0  0  0  0  0  0  0  0  0  0  0
  -11.3011   -2.4041  -21.9220 C   0  0  0  0  0  0  0  0  0  0  0  0
  -12.6730   -2.3157  -21.7395 C   0  0  0  0  0  0  0  0  0  0  0  0
  -13.4392   -3.2180  -20.4672 Cl  0  0  0  0  0  0  0  0  0  0  0  0
  -13.4619   -1.4330  -22.4751 C   0  0  0  0  0  0  0  0  0  0  0  0
  -12.8358   -0.5754  -23.3507 C   0  0  0  0  0  0  0  0  0  0  0  0
  -11.4475   -0.5839  -23.4736 C   0  0  0  0  0  0  0  0  0  0  0  0
  -10.8451    0.5561  -24.2317 C   0  0  0  0  0  0  0  0  0  0  0  0
  -11.5342    1.4673  -24.6746 O   0  0  0  0  0  0  0  0  0  0  0  0
  -13.3917    0.1564  -23.9261 H   0  0  0  0  0  0  0  0  0  0  0  0
  -14.5330   -1.3845  -22.3101 H   0  0  0  0  0  0  0  0  0  0  0  0
  -10.7422   -3.1091  -21.3169 H   0  0  0  0  0  0  0  0  0  0  0  0
   -7.6633   -0.4347  -24.1061 H   0  0  0  0  0  0  0  0  0  0  0  0
   -8.8623   -1.3400  -25.0508 H   0  0  0  0  0  0  0  0  0  0  0  0
   -8.3305    1.3879  -25.8894 H   0  0  0  0  0  0  0  0  0  0  0  0
   -9.6033    2.4013  -25.1781 H   0  0  0  0  0  0  0  0  0  0  0  0
   -9.1813    2.7430  -22.5943 H   0  0  0  0  0  0  0  0  0  0  0  0
   -6.7419    2.6324  -21.5013 H   0  0  0  0  0  0  0  0  0  0  0  0
   -7.8139    4.0329  -21.1945 H   0  0  0  0  0  0  0  0  0  0  0  0
   -6.5757    4.1124  -22.4646 H   0  0  0  0  0  0  0  0  0  0  0  0
  1  2  1  0
  2  3  1  0
  3  4  2  0
  3  5  1  0
  5  6  1  0
  6  7  1  0
  8  7  1  6
  8  9  1  0
  9 10  2  0
  9 11  1  0
 11 12  1  0
 12 13  2  0
 13 14  1  0
 14 15  2  0
 15 16  1  0
 16 17  2  0
 17 18  1  0
 18 19  2  0
 19 20  1  0
 20 21  2  0
 20 22  1  0
 19 23  1  0
 18 24  1  0
 17 25  1  0
 15 26  1  0
 13 27  1  0
 11 28  1  0
 28 29  1  0
 29 30  1  0
 30 31  1  0
 31 32  1  0
 32 33  2  0
 33 34  1  0
 34 35  2  0
 35 36  1  0
 36 37  2  0
 37 38  1  0
 36 39  1  0
 35 40  1  0
 34 41  1  0
 33 42  1  0
 31 43  1  0
 30 44  1  0
 30 45  1  0
 29 46  1  1
 28 47  1  0
 28 48  1  0
  8 49  1  0
 49 50  2  0
 50 51  1  0
 51 52  1  0
 51 53  2  0
 53 54  1  0
 54 55  2  0
 55 56  1  0
 56 57  2  0
 54 58  1  0
 53 59  1  0
 50 60  1  0
  7 61  1  0
  7 62  1  0
  5 63  1  0
  5 64  1  0
  2 65  1  0
  1 66  1  0
  1 67  1  0
  1 68  1  0
 56  6  1  0
 29  8  1  0
 37 32  1  0
 55 49  1  0
 21 12  1  0
 21 16  1  0
M  END
>  <cnnaffinities>  (23) 
[6.31759]

>  <score>  (23) 
6.31759

>  <index>  (23) 
23

>  <Smiles>  (23) 
C(N(C(=O)C(N1C([C@@]2(C(=O)N(c3c(nc(c4c(c(c(c(c34)[H])[H])[H])[H])[H])[H])C([C@@]2(C(N(c2c(c(c(c(c2[H])[H])[H])[H])[H])[H])([H])[H])[H])([H])[H])c2c(c(Cl)c(c(c2C1=O)[H])[H])[H])([H])[H])([H])[H])[H])([H])([H])[H]

>  <h>  (23) 
<NA>

>  <Training>  (23) 
True

>  <Success>  (23) 
True

>  <enamine_searched>  (23) 
False

>  <enamine_id>  (23) 
nan

$$$$

     RDKit          3D

 65 70  0  0  0  0  0  0  0  0999 V2000
   -5.0069   -7.4656  -22.8180 O   0  0  0  0  0  0  0  0  0  0  0  0
   -5.9130   -7.3356  -23.6229 C   0  0  0  0  0  0  0  0  0  0  0  0
   -7.2256   -6.6243  -23.2654 C   0  0  0  0  0  0  0  0  0  0  0  0
   -7.2180   -5.1719  -23.5985 N   0  0  1  0  0  4  0  0  0  0  0  0
   -7.3004   -4.9430  -25.0924 C   0  0  0  0  0  0  0  0  0  0  0  0
   -7.2290   -3.4836  -25.4247 C   0  0  0  0  0  0  0  0  0  0  0  0
   -6.8108   -3.0975  -26.6958 C   0  0  0  0  0  0  0  0  0  0  0  0
   -6.6808   -1.7584  -27.0337 C   0  0  0  0  0  0  0  0  0  0  0  0
   -6.9681   -0.8006  -26.0669 C   0  0  0  0  0  0  0  0  0  0  0  0
   -6.7818    0.8888  -26.4533 Cl  0  0  0  0  0  0  0  0  0  0  0  0
   -7.4028   -1.1639  -24.8013 C   0  0  0  0  0  0  0  0  0  0  0  0
   -7.5713   -2.5160  -24.4819 C   0  0  0  0  0  0  0  0  0  0  0  0
   -8.0531   -2.9010  -23.0935 C   0  0  2  0  0  0  0  0  0  0  0  0
   -9.2205   -2.0443  -22.5851 C   0  0  0  0  0  0  0  0  0  0  0  0
   -8.6360   -1.0481  -21.5684 C   0  0  0  0  0  0  0  0  0  0  0  0
   -7.2971   -1.5451  -21.2977 N   0  0  0  0  0  0  0  0  0  0  0  0
   -6.5208   -0.9615  -20.2534 C   0  0  0  0  0  0  0  0  0  0  0  0
   -6.8814   -1.1653  -18.9433 C   0  0  0  0  0  0  0  0  0  0  0  0
   -6.2408   -0.6397  -17.8716 N   0  0  0  0  0  0  0  0  0  0  0  0
   -5.2234    0.1553  -18.1034 C   0  0  0  0  0  0  0  0  0  0  0  0
   -4.7715    0.5009  -19.4086 C   0  0  0  0  0  0  0  0  0  0  0  0
   -3.6716    1.3767  -19.6060 C   0  0  0  0  0  0  0  0  0  0  0  0
   -3.3001    1.7466  -20.8697 C   0  0  0  0  0  0  0  0  0  0  0  0
   -4.0178    1.2652  -21.9857 C   0  0  0  0  0  0  0  0  0  0  0  0
   -5.0662    0.3917  -21.8256 C   0  0  0  0  0  0  0  0  0  0  0  0
   -5.4565   -0.0361  -20.5258 C   0  0  0  0  0  0  0  0  0  0  0  0
   -5.5850    0.0073  -22.7021 H   0  0  0  0  0  0  0  0  0  0  0  0
   -3.7175    1.5611  -22.9859 H   0  0  0  0  0  0  0  0  0  0  0  0
   -2.4577    2.4149  -21.0251 H   0  0  0  0  0  0  0  0  0  0  0  0
   -3.1420    1.7505  -18.7340 H   0  0  0  0  0  0  0  0  0  0  0  0
   -4.7109    0.5789  -17.2384 H   0  0  0  0  0  0  0  0  0  0  0  0
   -7.7355   -1.7989  -18.7022 H   0  0  0  0  0  0  0  0  0  0  0  0
   -6.9382   -2.6138  -22.0809 C   0  0  0  0  0  0  0  0  0  0  0  0
   -5.9294   -3.2964  -22.0158 O   0  0  0  0  0  0  0  0  0  0  0  0
   -9.2166   -1.0330  -20.6488 H   0  0  0  0  0  0  0  0  0  0  0  0
   -8.6185   -0.0134  -21.9389 H   0  0  0  0  0  0  0  0  0  0  0  0
   -9.7427   -1.5397  -23.4021 H   0  0  0  0  0  0  0  0  0  0  0  0
   -9.9561   -2.6887  -22.0927 H   0  0  0  0  0  0  0  0  0  0  0  0
   -8.3566   -4.4021  -22.9876 C   0  0  0  0  0  0  0  0  0  0  0  0
   -8.4582   -4.6669  -21.9333 H   0  0  0  0  0  0  0  0  0  0  0  0
   -9.2922   -4.6501  -23.4995 H   0  0  0  0  0  0  0  0  0  0  0  0
   -7.6069   -0.3835  -24.0713 H   0  0  0  0  0  0  0  0  0  0  0  0
   -6.3527   -1.4494  -28.0210 H   0  0  0  0  0  0  0  0  0  0  0  0
   -6.5703   -3.8680  -27.4230 H   0  0  0  0  0  0  0  0  0  0  0  0
   -8.2457   -5.3692  -25.4620 H   0  0  0  0  0  0  0  0  0  0  0  0
   -6.4919   -5.4678  -25.5976 H   0  0  0  0  0  0  0  0  0  0  0  0
   -6.3531   -4.7282  -23.2059 H   0  0  0  0  0  0  0  0  0  0  0  0
   -7.3965   -6.7653  -22.1962 H   0  0  0  0  0  0  0  0  0  0  0  0
   -8.0528   -7.1054  -23.8039 H   0  0  0  0  0  0  0  0  0  0  0  0
   -5.8560   -7.8069  -24.9025 N   0  0  0  0  0  0  0  0  0  0  0  0
   -4.7880   -8.6751  -25.3679 C   0  0  0  0  0  0  0  0  0  0  0  0
   -4.5942   -8.5661  -26.8737 C   0  0  1  0  0  0  0  0  0  0  0  0
   -5.8479   -8.6443  -27.7863 C   0  0  0  0  0  0  0  0  0  0  0  0
   -5.5429   -7.2186  -28.2850 C   0  0  1  0  0  0  0  0  0  0  0  0
   -6.5541   -6.3094  -27.9583 F   0  0  0  0  0  0  0  0  0  0  0  0
   -4.3128   -7.1205  -27.3603 C   0  0  0  0  0  0  0  0  0  0  0  0
   -3.3426   -6.9127  -27.8278 H   0  0  0  0  0  0  0  0  0  0  0  0
   -4.4694   -6.3841  -26.5671 H   0  0  0  0  0  0  0  0  0  0  0  0
   -5.3502   -7.1173  -29.3566 H   0  0  0  0  0  0  0  0  0  0  0  0
   -5.7948   -9.4267  -28.5432 H   0  0  0  0  0  0  0  0  0  0  0  0
   -6.8204   -8.7646  -27.2983 H   0  0  0  0  0  0  0  0  0  0  0  0
   -3.8319   -9.2834  -27.1885 H   0  0  0  0  0  0  0  0  0  0  0  0
   -4.9893   -9.7036  -25.0518 H   0  0  0  0  0  0  0  0  0  0  0  0
   -3.8716   -8.3561  -24.8567 H   0  0  0  0  0  0  0  0  0  0  0  0
   -6.6759   -7.6762  -25.4689 H   0  0  0  0  0  0  0  0  0  0  0  0
  1  2  2  0
  2  3  1  0
  3  4  1  0
  4  5  1  0
  5  6  1  0
  6  7  2  0
  7  8  1  0
  8  9  2  0
  9 10  1  0
  9 11  1  0
 11 12  2  0
 12 13  1  0
 13 14  1  1
 14 15  1  0
 15 16  1  0
 16 17  1  0
 17 18  2  0
 18 19  1  0
 19 20  2  0
 20 21  1  0
 21 22  2  0
 22 23  1  0
 23 24  2  0
 24 25  1  0
 25 26  2  0
 25 27  1  0
 24 28  1  0
 23 29  1  0
 22 30  1  0
 20 31  1  0
 18 32  1  0
 16 33  1  0
 33 34  2  0
 15 35  1  0
 15 36  1  0
 14 37  1  0
 14 38  1  0
 13 39  1  0
 39 40  1  0
 39 41  1  0
 11 42  1  0
  8 43  1  0
  7 44  1  0
  5 45  1  0
  5 46  1  0
  4 47  1  1
  3 48  1  0
  3 49  1  0
  2 50  1  0
 50 51  1  0
 51 52  1  0
 52 53  1  0
 53 54  1  0
 54 55  1  0
 54 56  1  0
 56 57  1  0
 56 58  1  0
 54 59  1  6
 53 60  1  0
 53 61  1  0
 52 62  1  6
 51 63  1  0
 51 64  1  0
 50 65  1  0
 39  4  1  0
 56 52  1  0
 12  6  1  0
 33 13  1  0
 26 17  1  0
 26 21  1  0
M  CHG  1   4   1
M  END
>  <cnnaffinities>  (24) 
[6.16388]

>  <score>  (24) 
6.16388

>  <index>  (24) 
24

>  <Smiles>  (24) 
O=C(C([N@+]1(C(c2c(c(c(Cl)c(c2[C@@]2(C(C(N(c3c(nc(c4c(c(c(c(c34)[H])[H])[H])[H])[H])[H])C2=O)([H])[H])([H])[H])C1([H])[H])[H])[H])[H])([H])[H])[H])([H])[H])N(C([C@]1(C([C@@](F)(C1([H])[H])[H])([H])[H])[H])([H])[H])[H]

>  <h>  (24) 
<NA>

>  <Training>  (24) 
True

>  <Success>  (24) 
True

>  <enamine_searched>  (24) 
False

>  <enamine_id>  (24) 
nan

$$$$

     RDKit          3D

 70 75  0  0  0  0  0  0  0  0999 V2000
   -5.8071   -7.8122  -25.5348 O   0  0  0  0  0  0  0  0  0  0  0  0
   -5.6783   -7.1859  -24.4950 C   0  0  0  0  0  0  0  0  0  0  0  0
   -6.8526   -6.4225  -23.8685 C   0  0  0  0  0  0  0  0  0  0  0  0
   -6.7808   -4.9144  -23.9739 N   0  0  1  0  0  4  0  0  0  0  0  0
   -6.7621   -4.5243  -25.4519 C   0  0  0  0  0  0  0  0  0  0  0  0
   -6.7695   -3.0277  -25.6399 C   0  0  0  0  0  0  0  0  0  0  0  0
   -6.2827   -2.4799  -26.8292 C   0  0  0  0  0  0  0  0  0  0  0  0
   -6.2999   -1.1091  -27.0515 C   0  0  0  0  0  0  0  0  0  0  0  0
   -6.8128   -0.2781  -26.0618 C   0  0  0  0  0  0  0  0  0  0  0  0
   -6.8496    1.4469  -26.3184 Cl  0  0  0  0  0  0  0  0  0  0  0  0
   -7.3022   -0.8059  -24.8754 C   0  0  0  0  0  0  0  0  0  0  0  0
   -7.2959   -2.1857  -24.6590 C   0  0  0  0  0  0  0  0  0  0  0  0
   -7.8086   -2.7012  -23.3240 C   0  0  2  0  0  0  0  0  0  0  0  0
   -6.8322   -2.3336  -22.2096 C   0  0  0  0  0  0  0  0  0  0  0  0
   -5.7229   -2.8440  -22.1951 O   0  0  0  0  0  0  0  0  0  0  0  0
   -7.3091   -1.4346  -21.2703 N   0  0  0  0  0  0  0  0  0  0  0  0
   -6.5584   -0.8543  -20.2134 C   0  0  0  0  0  0  0  0  0  0  0  0
   -6.8940   -1.0662  -18.8952 C   0  0  0  0  0  0  0  0  0  0  0  0
   -6.2114   -0.5655  -17.8348 N   0  0  0  0  0  0  0  0  0  0  0  0
   -5.1755    0.1982  -18.0833 C   0  0  0  0  0  0  0  0  0  0  0  0
   -4.7409    0.5343  -19.3949 C   0  0  0  0  0  0  0  0  0  0  0  0
   -3.6211    1.3809  -19.6186 C   0  0  0  0  0  0  0  0  0  0  0  0
   -3.2577    1.7195  -20.8935 C   0  0  0  0  0  0  0  0  0  0  0  0
   -4.0066    1.2479  -21.9960 C   0  0  0  0  0  0  0  0  0  0  0  0
   -5.0841    0.4182  -21.8061 C   0  0  0  0  0  0  0  0  0  0  0  0
   -5.4629    0.0197  -20.4942 C   0  0  0  0  0  0  0  0  0  0  0  0
   -5.6290    0.0288  -22.6601 H   0  0  0  0  0  0  0  0  0  0  0  0
   -3.6994    1.4967  -23.0076 H   0  0  0  0  0  0  0  0  0  0  0  0
   -2.3900    2.3496  -21.0697 H   0  0  0  0  0  0  0  0  0  0  0  0
   -3.0756    1.7495  -18.7525 H   0  0  0  0  0  0  0  0  0  0  0  0
   -4.6300    0.5961  -17.2265 H   0  0  0  0  0  0  0  0  0  0  0  0
   -7.7521   -1.6822  -18.6272 H   0  0  0  0  0  0  0  0  0  0  0  0
   -8.3142   -1.3730  -21.1712 H   0  0  0  0  0  0  0  0  0  0  0  0
   -7.9844   -4.2237  -23.3139 C   0  0  0  0  0  0  0  0  0  0  0  0
   -8.8844   -4.4976  -23.8723 H   0  0  0  0  0  0  0  0  0  0  0  0
   -8.0779   -4.5773  -22.2844 H   0  0  0  0  0  0  0  0  0  0  0  0
   -8.7658   -2.2206  -23.1043 H   0  0  0  0  0  0  0  0  0  0  0  0
   -7.6893   -0.1391  -24.1101 H   0  0  0  0  0  0  0  0  0  0  0  0
   -5.9245   -0.6780  -27.9748 H   0  0  0  0  0  0  0  0  0  0  0  0
   -5.8808   -3.1364  -27.5988 H   0  0  0  0  0  0  0  0  0  0  0  0
   -7.6455   -4.9739  -25.9300 H   0  0  0  0  0  0  0  0  0  0  0  0
   -5.8934   -4.9756  -25.9356 H   0  0  0  0  0  0  0  0  0  0  0  0
   -5.9426   -4.5032  -23.4949 H   0  0  0  0  0  0  0  0  0  0  0  0
   -7.7337   -6.7815  -24.4056 H   0  0  0  0  0  0  0  0  0  0  0  0
   -6.9804   -6.6961  -22.8190 H   0  0  0  0  0  0  0  0  0  0  0  0
   -4.5055   -7.1129  -23.7981 N   0  0  0  0  0  0  0  0  0  0  0  0
   -3.2960   -7.7499  -24.1782 C   0  0  0  0  0  0  0  0  0  0  0  0
   -2.0733   -7.1098  -23.9635 C   0  0  0  0  0  0  0  0  0  0  0  0
   -0.8886   -7.7073  -24.3870 C   0  0  0  0  0  0  0  0  0  0  0  0
   -0.9057   -8.9492  -25.0269 C   0  0  0  0  0  0  0  0  0  0  0  0
    0.3197   -9.5432  -25.4770 N   0  0  0  0  0  0  0  0  0  0  0  0
    1.3336   -9.8754  -24.4780 C   0  0  0  0  0  0  0  0  0  0  0  0
    2.6538  -10.2416  -25.1427 C   0  0  0  0  0  0  0  0  0  0  0  0
    2.4276  -11.1949  -26.1521 O   0  0  0  0  0  0  0  0  0  0  0  0
    1.7047  -10.6246  -27.2098 C   0  0  0  0  0  0  0  0  0  0  0  0
    0.4046   -9.9438  -26.7879 C   0  0  0  0  0  0  0  0  0  0  0  0
   -0.4681   -9.7272  -27.6094 O   0  0  0  0  0  0  0  0  0  0  0  0
    2.3130   -9.8662  -27.7330 H   0  0  0  0  0  0  0  0  0  0  0  0
    1.4551  -11.4287  -27.9056 H   0  0  0  0  0  0  0  0  0  0  0  0
    3.1448   -9.3543  -25.5714 H   0  0  0  0  0  0  0  0  0  0  0  0
    3.3361  -10.6998  -24.4182 H   0  0  0  0  0  0  0  0  0  0  0  0
    1.4735   -9.0115  -23.8204 H   0  0  0  0  0  0  0  0  0  0  0  0
    0.9793  -10.7233  -23.8766 H   0  0  0  0  0  0  0  0  0  0  0  0
   -2.1285   -9.6066  -25.1955 C   0  0  0  0  0  0  0  0  0  0  0  0
   -3.3119   -9.0111  -24.7736 C   0  0  0  0  0  0  0  0  0  0  0  0
   -4.2631   -9.5066  -24.9248 H   0  0  0  0  0  0  0  0  0  0  0  0
   -2.1631  -10.5786  -25.6866 H   0  0  0  0  0  0  0  0  0  0  0  0
    0.0586   -7.1907  -24.2317 H   0  0  0  0  0  0  0  0  0  0  0  0
   -2.0429   -6.1427  -23.4668 H   0  0  0  0  0  0  0  0  0  0  0  0
   -4.5060   -6.5302  -22.9769 H   0  0  0  0  0  0  0  0  0  0  0  0
  1  2  2  0
  2  3  1  0
  3  4  1  0
  4  5  1  0
  5  6  1  0
  6  7  2  0
  7  8  1  0
  8  9  2  0
  9 10  1  0
  9 11  1  0
 11 12  2  0
 12 13  1  0
 13 14  1  0
 14 15  2  0
 14 16  1  0
 16 17  1  0
 17 18  2  0
 18 19  1  0
 19 20  2  0
 20 21  1  0
 21 22  2  0
 22 23  1  0
 23 24  2  0
 24 25  1  0
 25 26  2  0
 25 27  1  0
 24 28  1  0
 23 29  1  0
 22 30  1  0
 20 31  1  0
 18 32  1  0
 16 33  1  0
 13 34  1  0
 34 35  1  0
 34 36  1  0
 13 37  1  1
 11 38  1  0
  8 39  1  0
  7 40  1  0
  5 41  1  0
  5 42  1  0
  4 43  1  1
  3 44  1  0
  3 45  1  0
  2 46  1  0
 46 47  1  0
 47 48  2  0
 48 49  1  0
 49 50  2  0
 50 51  1  0
 51 52  1  0
 52 53  1  0
 53 54  1  0
 54 55  1  0
 55 56  1  0
 56 57  2  0
 55 58  1  0
 55 59  1  0
 53 60  1  0
 53 61  1  0
 52 62  1  0
 52 63  1  0
 50 64  1  0
 64 65  2  0
 65 66  1  0
 64 67  1  0
 49 68  1  0
 48 69  1  0
 46 70  1  0
 34  4  1  0
 65 47  1  0
 12  6  1  0
 26 17  1  0
 56 51  1  0
 26 21  1  0
M  CHG  1   4   1
M  END
>  <cnnaffinities>  (25) 
[5.97651]

>  <score>  (25) 
5.97651

>  <index>  (25) 
25

>  <Smiles>  (25) 
O=C(C([N@+]1(C(c2c(c(c(Cl)c(c2[C@](C(=O)N(c2c(nc(c3c(c(c(c(c23)[H])[H])[H])[H])[H])[H])[H])(C1([H])[H])[H])[H])[H])[H])([H])[H])[H])([H])[H])N(c1c(c(c(N2C(C(OC(C2=O)([H])[H])([H])[H])([H])[H])c(c1[H])[H])[H])[H])[H]

>  <h>  (25) 
<NA>

>  <Training>  (25) 
True

>  <Success>  (25) 
True

>  <enamine_searched>  (25) 
False

>  <enamine_id>  (25) 
nan

$$$$

     RDKit          3D

 55 60  0  0  0  0  0  0  0  0999 V2000
   -7.8793   -3.6217  -24.0840 C   0  0  0  0  0  0  0  0  0  0  0  0
   -8.2896   -2.8525  -22.8195 C   0  0  1  0  0  0  0  0  0  0  0  0
   -7.0934   -2.6223  -21.8708 C   0  0  0  0  0  0  0  0  0  0  0  0
   -7.4089   -1.3785  -21.1979 N   0  0  0  0  0  0  0  0  0  0  0  0
   -6.6090   -0.8021  -20.1742 C   0  0  0  0  0  0  0  0  0  0  0  0
   -6.9058   -1.0487  -18.8598 C   0  0  0  0  0  0  0  0  0  0  0  0
   -6.1964   -0.5626  -17.8120 N   0  0  0  0  0  0  0  0  0  0  0  0
   -5.1689    0.2081  -18.0762 C   0  0  0  0  0  0  0  0  0  0  0  0
   -4.7412    0.5464  -19.3915 C   0  0  0  0  0  0  0  0  0  0  0  0
   -3.6119    1.3789  -19.6316 C   0  0  0  0  0  0  0  0  0  0  0  0
   -3.2263    1.6794  -20.9091 C   0  0  0  0  0  0  0  0  0  0  0  0
   -3.9579    1.1606  -21.9991 C   0  0  0  0  0  0  0  0  0  0  0  0
   -5.0439    0.3382  -21.7913 C   0  0  0  0  0  0  0  0  0  0  0  0
   -5.4777    0.0218  -20.4791 C   0  0  0  0  0  0  0  0  0  0  0  0
   -5.5645   -0.0767  -22.6486 H   0  0  0  0  0  0  0  0  0  0  0  0
   -3.6456    1.3710  -23.0154 H   0  0  0  0  0  0  0  0  0  0  0  0
   -2.3544    2.3000  -21.0946 H   0  0  0  0  0  0  0  0  0  0  0  0
   -3.0714    1.7711  -18.7747 H   0  0  0  0  0  0  0  0  0  0  0  0
   -4.6236    0.6118  -17.2226 H   0  0  0  0  0  0  0  0  0  0  0  0
   -7.7551   -1.6731  -18.5960 H   0  0  0  0  0  0  0  0  0  0  0  0
   -8.4113   -0.6456  -21.7940 C   0  0  0  0  0  0  0  0  0  0  0  0
   -8.7787    0.4347  -21.3871 O   0  0  0  0  0  0  0  0  0  0  0  0
   -8.9502   -1.4464  -23.0159 C   0  0  1  0  0  0  0  0  0  0  0  0
   -8.4864   -0.7993  -24.3459 C   0  0  0  0  0  0  0  0  0  0  0  0
   -9.1482    0.4561  -24.6221 N   0  0  0  0  0  0  0  0  0  0  0  0
   -8.3534    1.6316  -24.9499 C   0  0  0  0  0  0  0  0  0  0  0  0
   -8.0482    2.4971  -23.7543 C   0  0  0  0  0  0  0  0  0  0  0  0
   -8.8781    3.4280  -23.1131 C   0  0  0  0  0  0  0  0  0  0  0  0
   -8.2156    3.9620  -22.0920 N   0  0  0  0  0  0  0  0  0  0  0  0
   -7.0536    3.3535  -22.1332 N   0  0  0  0  0  0  0  0  0  0  0  0
   -6.8792    2.4733  -23.1058 N   0  0  0  0  0  0  0  0  0  0  0  0
   -6.3710    3.5134  -21.4030 H   0  0  0  0  0  0  0  0  0  0  0  0
   -9.9074    3.6960  -23.3243 H   0  0  0  0  0  0  0  0  0  0  0  0
   -7.4079    1.3056  -25.3974 H   0  0  0  0  0  0  0  0  0  0  0  0
   -8.9192    2.2070  -25.6873 H   0  0  0  0  0  0  0  0  0  0  0  0
  -10.5015    0.6053  -24.4881 C   0  0  0  0  0  0  0  0  0  0  0  0
  -11.1016    1.5887  -24.9085 O   0  0  0  0  0  0  0  0  0  0  0  0
  -11.1938   -0.4893  -23.7376 C   0  0  0  0  0  0  0  0  0  0  0  0
  -12.5883   -0.4674  -23.6976 C   0  0  0  0  0  0  0  0  0  0  0  0
  -13.2821   -1.3291  -22.8743 C   0  0  0  0  0  0  0  0  0  0  0  0
  -12.5465   -2.1887  -22.0682 C   0  0  0  0  0  0  0  0  0  0  0  0
  -13.2094   -2.9857  -21.2162 F   0  0  0  0  0  0  0  0  0  0  0  0
  -11.1699   -2.2463  -22.0993 C   0  0  0  0  0  0  0  0  0  0  0  0
  -10.4674   -1.4293  -22.9920 C   0  0  0  0  0  0  0  0  0  0  0  0
  -10.6717   -2.9038  -21.3959 H   0  0  0  0  0  0  0  0  0  0  0  0
  -14.3634   -1.3326  -22.8064 H   0  0  0  0  0  0  0  0  0  0  0  0
  -13.0966    0.2689  -24.3072 H   0  0  0  0  0  0  0  0  0  0  0  0
   -7.4150   -0.5858  -24.2686 H   0  0  0  0  0  0  0  0  0  0  0  0
   -8.6638   -1.5032  -25.1734 H   0  0  0  0  0  0  0  0  0  0  0  0
   -6.1461   -2.5514  -22.4298 H   0  0  0  0  0  0  0  0  0  0  0  0
   -6.9693   -3.4304  -21.1405 H   0  0  0  0  0  0  0  0  0  0  0  0
   -9.0296   -3.4542  -22.2875 H   0  0  0  0  0  0  0  0  0  0  0  0
   -7.4905   -4.6148  -23.8302 H   0  0  0  0  0  0  0  0  0  0  0  0
   -7.0873   -3.0971  -24.6329 H   0  0  0  0  0  0  0  0  0  0  0  0
   -8.7171   -3.7636  -24.7759 H   0  0  0  0  0  0  0  0  0  0  0  0
  1  2  1  0
  2  3  1  0
  3  4  1  0
  4  5  1  0
  5  6  2  0
  6  7  1  0
  7  8  2  0
  8  9  1  0
  9 10  2  0
 10 11  1  0
 11 12  2  0
 12 13  1  0
 13 14  2  0
 13 15  1  0
 12 16  1  0
 11 17  1  0
 10 18  1  0
  8 19  1  0
  6 20  1  0
  4 21  1  0
 21 22  2  0
 21 23  1  0
 23 24  1  6
 24 25  1  0
 25 26  1  0
 26 27  1  0
 27 28  1  0
 28 29  2  0
 29 30  1  0
 30 31  1  0
 30 32  1  0
 28 33  1  0
 26 34  1  0
 26 35  1  0
 25 36  1  0
 36 37  2  0
 36 38  1  0
 38 39  2  0
 39 40  1  0
 40 41  2  0
 41 42  1  0
 41 43  1  0
 43 44  2  0
 43 45  1  0
 40 46  1  0
 39 47  1  0
 24 48  1  0
 24 49  1  0
  3 50  1  0
  3 51  1  0
  2 52  1  1
  1 53  1  0
  1 54  1  0
  1 55  1  0
 23  2  1  0
 31 27  2  0
 44 38  1  0
 14  5  1  0
 44 23  1  0
 14  9  1  0
M  END
>  <cnnaffinities>  (26) 
[6.2534]

>  <score>  (26) 
6.2534

>  <index>  (26) 
26

>  <Smiles>  (26) 
C([C@]1(C(N(c2c(nc(c3c(c(c(c(c23)[H])[H])[H])[H])[H])[H])C(=O)[C@]21C(N(C(c1c(nn(n1)[H])[H])([H])[H])C(=O)c1c(c(c(F)c(c21)[H])[H])[H])([H])[H])([H])[H])[H])([H])([H])[H]

>  <h>  (26) 
<NA>

>  <Training>  (26) 
True

>  <Success>  (26) 
True

>  <enamine_searched>  (26) 
False

>  <enamine_id>  (26) 
nan

$$$$

     RDKit          3D

 58 62  0  0  0  0  0  0  0  0999 V2000
   -7.0434    3.5759  -22.0936 C   0  0  0  0  0  0  0  0  0  0  0  0
   -7.2838    2.5334  -23.0936 N   0  0  0  0  0  4  0  0  0  0  0  0
   -8.4382    2.8268  -23.9878 C   0  0  0  0  0  0  0  0  0  0  0  0
   -8.7137    1.6730  -24.9443 C   0  0  0  0  0  0  0  0  0  0  0  0
   -9.3756    0.5324  -24.3243 N   0  0  0  0  0  0  0  0  0  0  0  0
   -8.6724   -0.7296  -24.1923 C   0  0  0  0  0  0  0  0  0  0  0  0
   -9.0668   -1.4884  -22.9014 C   0  0  2  0  0  0  0  0  0  0  0  0
   -8.5304   -0.7303  -21.6574 C   0  0  0  0  0  0  0  0  0  0  0  0
   -8.9694    0.2944  -21.1752 O   0  0  0  0  0  0  0  0  0  0  0  0
   -7.4168   -1.3869  -21.1881 N   0  0  0  0  0  0  0  0  0  0  0  0
   -6.6087   -0.8047  -20.1702 C   0  0  0  0  0  0  0  0  0  0  0  0
   -6.9086   -1.0454  -18.8566 C   0  0  0  0  0  0  0  0  0  0  0  0
   -6.1985   -0.5605  -17.8093 N   0  0  0  0  0  0  0  0  0  0  0  0
   -5.1691    0.2038  -18.0803 C   0  0  0  0  0  0  0  0  0  0  0  0
   -4.7446    0.5450  -19.3959 C   0  0  0  0  0  0  0  0  0  0  0  0
   -3.6180    1.3812  -19.6353 C   0  0  0  0  0  0  0  0  0  0  0  0
   -3.2453    1.7002  -20.9124 C   0  0  0  0  0  0  0  0  0  0  0  0
   -3.9841    1.1989  -22.0035 C   0  0  0  0  0  0  0  0  0  0  0  0
   -5.0718    0.3798  -21.8000 C   0  0  0  0  0  0  0  0  0  0  0  0
   -5.4905    0.0312  -20.4864 C   0  0  0  0  0  0  0  0  0  0  0  0
   -5.5696   -0.0629  -22.6585 H   0  0  0  0  0  0  0  0  0  0  0  0
   -3.6648    1.4121  -23.0206 H   0  0  0  0  0  0  0  0  0  0  0  0
   -2.3727    2.3225  -21.0938 H   0  0  0  0  0  0  0  0  0  0  0  0
   -3.0752    1.7660  -18.7757 H   0  0  0  0  0  0  0  0  0  0  0  0
   -4.6220    0.6094  -17.2282 H   0  0  0  0  0  0  0  0  0  0  0  0
   -7.7613   -1.6704  -18.5999 H   0  0  0  0  0  0  0  0  0  0  0  0
   -7.0538   -2.5667  -21.9497 C   0  0  0  0  0  0  0  0  0  0  0  0
   -8.3111   -2.8538  -22.8018 C   0  0  2  0  0  0  0  0  0  0  0  0
   -7.9704   -3.5635  -24.1207 C   0  0  0  0  0  0  0  0  0  0  0  0
   -7.5148   -4.5450  -23.9354 H   0  0  0  0  0  0  0  0  0  0  0  0
   -8.8566   -3.7223  -24.7477 H   0  0  0  0  0  0  0  0  0  0  0  0
   -7.2498   -2.9805  -24.7104 H   0  0  0  0  0  0  0  0  0  0  0  0
   -8.9583   -3.5107  -22.2153 H   0  0  0  0  0  0  0  0  0  0  0  0
   -6.7999   -3.3936  -21.2752 H   0  0  0  0  0  0  0  0  0  0  0  0
   -6.1715   -2.3848  -22.5851 H   0  0  0  0  0  0  0  0  0  0  0  0
  -10.5841   -1.5559  -22.8460 C   0  0  0  0  0  0  0  0  0  0  0  0
  -11.2339   -2.4945  -22.0342 C   0  0  0  0  0  0  0  0  0  0  0  0
  -12.6077   -2.4552  -21.9325 C   0  0  0  0  0  0  0  0  0  0  0  0
  -13.2345   -3.2791  -21.0806 F   0  0  0  0  0  0  0  0  0  0  0  0
  -13.3875   -1.5570  -22.6480 C   0  0  0  0  0  0  0  0  0  0  0  0
  -12.7554   -0.5903  -23.3996 C   0  0  0  0  0  0  0  0  0  0  0  0
  -11.3619   -0.5649  -23.4689 C   0  0  0  0  0  0  0  0  0  0  0  0
  -10.7282    0.6029  -24.1642 C   0  0  0  0  0  0  0  0  0  0  0  0
  -11.3909    1.5609  -24.5459 O   0  0  0  0  0  0  0  0  0  0  0  0
  -13.3067    0.1964  -23.9072 H   0  0  0  0  0  0  0  0  0  0  0  0
  -14.4616   -1.6212  -22.5466 H   0  0  0  0  0  0  0  0  0  0  0  0
  -10.6958   -3.2252  -21.4411 H   0  0  0  0  0  0  0  0  0  0  0  0
   -8.8761   -1.3835  -25.0556 H   0  0  0  0  0  0  0  0  0  0  0  0
   -7.6009   -0.5074  -24.1583 H   0  0  0  0  0  0  0  0  0  0  0  0
   -7.7783    1.3118  -25.3848 H   0  0  0  0  0  0  0  0  0  0  0  0
   -9.3639    2.0518  -25.7299 H   0  0  0  0  0  0  0  0  0  0  0  0
   -9.3271    3.0119  -23.3764 H   0  0  0  0  0  0  0  0  0  0  0  0
   -8.2349    3.7332  -24.5678 H   0  0  0  0  0  0  0  0  0  0  0  0
   -6.4208    2.4038  -23.6747 H   0  0  0  0  0  0  0  0  0  0  0  0
   -7.4986    1.6392  -22.5994 H   0  0  0  0  0  0  0  0  0  0  0  0
   -6.1750    3.2992  -21.4959 H   0  0  0  0  0  0  0  0  0  0  0  0
   -7.9226    3.6793  -21.4511 H   0  0  0  0  0  0  0  0  0  0  0  0
   -6.8730    4.5490  -22.5677 H   0  0  0  0  0  0  0  0  0  0  0  0
  1  2  1  0
  2  3  1  0
  3  4  1  0
  4  5  1  0
  5  6  1  0
  7  6  1  6
  7  8  1  0
  8  9  2  0
  8 10  1  0
 10 11  1  0
 11 12  2  0
 12 13  1  0
 13 14  2  0
 14 15  1  0
 15 16  2  0
 16 17  1  0
 17 18  2  0
 18 19  1  0
 19 20  2  0
 19 21  1  0
 18 22  1  0
 17 23  1  0
 16 24  1  0
 14 25  1  0
 12 26  1  0
 10 27  1  0
 27 28  1  0
 28 29  1  0
 29 30  1  0
 29 31  1  0
 29 32  1  0
 28 33  1  1
 27 34  1  0
 27 35  1  0
  7 36  1  0
 36 37  2  0
 37 38  1  0
 38 39  1  0
 38 40  2  0
 40 41  1  0
 41 42  2  0
 42 43  1  0
 43 44  2  0
 41 45  1  0
 40 46  1  0
 37 47  1  0
  6 48  1  0
  6 49  1  0
  4 50  1  0
  4 51  1  0
  3 52  1  0
  3 53  1  0
  2 54  1  0
  2 55  1  0
  1 56  1  0
  1 57  1  0
  1 58  1  0
 43  5  1  0
 28  7  1  0
 42 36  1  0
 20 11  1  0
 20 15  1  0
M  CHG  1   2   1
M  END
>  <cnnaffinities>  (27) 
[6.02273]

>  <score>  (27) 
6.02273

>  <index>  (27) 
27

>  <Smiles>  (27) 
C([N+](C(C(N1C([C@@]2(C(=O)N(c3c(nc(c4c(c(c(c(c34)[H])[H])[H])[H])[H])[H])C([C@@]2(C([H])([H])[H])[H])([H])[H])c2c(c(F)c(c(c2C1=O)[H])[H])[H])([H])[H])([H])[H])([H])[H])([H])[H])([H])([H])[H]

>  <h>  (27) 
<NA>

>  <Training>  (27) 
True

>  <Success>  (27) 
True

>  <enamine_searched>  (27) 
False

>  <enamine_id>  (27) 
nan

$$$$

     RDKit          3D

 64 68  0  0  0  0  0  0  0  0999 V2000
   -7.2244    3.4238  -22.1316 C   0  0  0  0  0  0  0  0  0  0  0  0
   -8.1755    2.7706  -23.0080 N   0  0  0  0  0  0  0  0  0  0  0  0
   -7.7383    2.1233  -24.1185 C   0  0  0  0  0  0  0  0  0  0  0  0
   -6.5563    2.0258  -24.4238 O   0  0  0  0  0  0  0  0  0  0  0  0
   -8.8549    1.5514  -24.9832 C   0  0  0  0  0  0  0  0  0  0  0  0
   -9.5290    0.4431  -24.3294 N   0  0  0  0  0  0  0  0  0  0  0  0
   -8.7582   -0.7699  -24.1204 C   0  0  0  0  0  0  0  0  0  0  0  0
   -9.1667   -1.5199  -22.8232 C   0  0  2  0  0  0  0  0  0  0  0  0
   -8.6307   -0.7514  -21.6001 C   0  0  0  0  0  0  0  0  0  0  0  0
   -9.1438    0.2098  -21.0657 O   0  0  0  0  0  0  0  0  0  0  0  0
   -7.4565   -1.3426  -21.1969 N   0  0  0  0  0  0  0  0  0  0  0  0
   -6.6728   -0.7769  -20.1594 C   0  0  0  0  0  0  0  0  0  0  0  0
   -6.9744   -1.0524  -18.8517 C   0  0  0  0  0  0  0  0  0  0  0  0
   -6.2592   -0.6045  -17.7913 N   0  0  0  0  0  0  0  0  0  0  0  0
   -5.2210    0.1602  -18.0321 C   0  0  0  0  0  0  0  0  0  0  0  0
   -4.8058    0.5427  -19.3400 C   0  0  0  0  0  0  0  0  0  0  0  0
   -3.6846    1.3875  -19.5657 C   0  0  0  0  0  0  0  0  0  0  0  0
   -3.3506    1.7784  -20.8344 C   0  0  0  0  0  0  0  0  0  0  0  0
   -4.1276    1.3548  -21.9358 C   0  0  0  0  0  0  0  0  0  0  0  0
   -5.2078    0.5251  -21.7460 C   0  0  0  0  0  0  0  0  0  0  0  0
   -5.5661    0.0827  -20.4436 C   0  0  0  0  0  0  0  0  0  0  0  0
   -5.8250    0.2514  -22.5967 H   0  0  0  0  0  0  0  0  0  0  0  0
   -3.8936    1.6986  -22.9389 H   0  0  0  0  0  0  0  0  0  0  0  0
   -2.4973    2.4295  -21.0034 H   0  0  0  0  0  0  0  0  0  0  0  0
   -3.1077    1.7230  -18.7083 H   0  0  0  0  0  0  0  0  0  0  0  0
   -4.6494    0.5229  -17.1737 H   0  0  0  0  0  0  0  0  0  0  0  0
   -7.8386   -1.6698  -18.6154 H   0  0  0  0  0  0  0  0  0  0  0  0
   -7.0819   -2.5154  -21.9635 C   0  0  0  0  0  0  0  0  0  0  0  0
   -8.3867   -2.8701  -22.7109 C   0  0  2  0  0  0  0  0  0  0  0  0
   -8.1927   -3.5395  -24.0759 C   0  0  0  0  0  0  0  0  0  0  0  0
   -7.4179   -5.1429  -24.1230 S   0  0  0  0  0  0  0  0  0  0  0  0
   -6.1198   -5.0407  -23.4672 O   0  0  0  0  0  0  0  0  0  0  0  0
   -7.5249   -5.5943  -25.5009 O   0  0  0  0  0  0  0  0  0  0  0  0
   -8.4314   -6.0711  -23.1982 N   0  0  0  0  0  0  0  0  0  0  0  0
   -7.9795   -6.7208  -21.9750 C   0  0  0  0  0  0  0  0  0  0  0  0
   -8.8626   -6.9114  -21.3607 H   0  0  0  0  0  0  0  0  0  0  0  0
   -7.3204   -6.0331  -21.4430 H   0  0  0  0  0  0  0  0  0  0  0  0
   -7.4534   -7.6721  -22.1386 H   0  0  0  0  0  0  0  0  0  0  0  0
   -9.0953   -6.5965  -23.7657 H   0  0  0  0  0  0  0  0  0  0  0  0
   -7.5220   -2.9559  -24.7150 H   0  0  0  0  0  0  0  0  0  0  0  0
   -9.1551   -3.6533  -24.5897 H   0  0  0  0  0  0  0  0  0  0  0  0
   -8.9701   -3.5424  -22.0712 H   0  0  0  0  0  0  0  0  0  0  0  0
   -6.7473   -3.3144  -21.2994 H   0  0  0  0  0  0  0  0  0  0  0  0
   -6.2526   -2.3049  -22.6538 H   0  0  0  0  0  0  0  0  0  0  0  0
  -10.6841   -1.5992  -22.7690 C   0  0  0  0  0  0  0  0  0  0  0  0
  -11.3319   -2.4490  -21.8623 C   0  0  0  0  0  0  0  0  0  0  0  0
  -12.7082   -2.3812  -21.7035 C   0  0  0  0  0  0  0  0  0  0  0  0
  -13.4747   -3.2348  -20.3951 Cl  0  0  0  0  0  0  0  0  0  0  0  0
  -13.5068   -1.5520  -22.4900 C   0  0  0  0  0  0  0  0  0  0  0  0
  -12.8780   -0.7122  -23.3817 C   0  0  0  0  0  0  0  0  0  0  0  0
  -11.4864   -0.6953  -23.4821 C   0  0  0  0  0  0  0  0  0  0  0  0
  -10.8971    0.4150  -24.2942 C   0  0  0  0  0  0  0  0  0  0  0  0
  -11.6076    1.2692  -24.8099 O   0  0  0  0  0  0  0  0  0  0  0  0
  -13.4444   -0.0358  -24.0103 H   0  0  0  0  0  0  0  0  0  0  0  0
  -14.5824   -1.5277  -22.3378 H   0  0  0  0  0  0  0  0  0  0  0  0
  -10.7645   -3.1305  -21.2384 H   0  0  0  0  0  0  0  0  0  0  0  0
   -8.8689   -1.4332  -24.9886 H   0  0  0  0  0  0  0  0  0  0  0  0
   -7.7059   -0.4793  -24.0636 H   0  0  0  0  0  0  0  0  0  0  0  0
   -8.4097    1.2598  -25.9397 H   0  0  0  0  0  0  0  0  0  0  0  0
   -9.6200    2.3131  -25.1607 H   0  0  0  0  0  0  0  0  0  0  0  0
   -9.0954    2.5490  -22.6495 H   0  0  0  0  0  0  0  0  0  0  0  0
   -6.7084    2.6938  -21.4929 H   0  0  0  0  0  0  0  0  0  0  0  0
   -6.4771    3.9319  -22.7489 H   0  0  0  0  0  0  0  0  0  0  0  0
   -7.7382    4.1655  -21.5141 H   0  0  0  0  0  0  0  0  0  0  0  0
  1  2  1  0
  2  3  1  0
  3  4  2  0
  3  5  1  0
  5  6  1  0
  6  7  1  0
  8  7  1  6
  8  9  1  0
  9 10  2  0
  9 11  1  0
 11 12  1  0
 12 13  2  0
 13 14  1  0
 14 15  2  0
 15 16  1  0
 16 17  2  0
 17 18  1  0
 18 19  2  0
 19 20  1  0
 20 21  2  0
 20 22  1  0
 19 23  1  0
 18 24  1  0
 17 25  1  0
 15 26  1  0
 13 27  1  0
 11 28  1  0
 28 29  1  0
 29 30  1  0
 30 31  1  0
 31 32  2  0
 31 33  2  0
 31 34  1  0
 34 35  1  0
 35 36  1  0
 35 37  1  0
 35 38  1  0
 34 39  1  0
 30 40  1  0
 30 41  1  0
 29 42  1  1
 28 43  1  0
 28 44  1  0
  8 45  1  0
 45 46  2  0
 46 47  1  0
 47 48  1  0
 47 49  2  0
 49 50  1  0
 50 51  2  0
 51 52  1  0
 52 53  2  0
 50 54  1  0
 49 55  1  0
 46 56  1  0
  7 57  1  0
  7 58  1  0
  5 59  1  0
  5 60  1  0
  2 61  1  0
  1 62  1  0
  1 63  1  0
  1 64  1  0
 52  6  1  0
 29  8  1  0
 51 45  1  0
 21 12  1  0
 21 16  1  0
M  END
>  <cnnaffinities>  (28) 
[6.66865, 6.57301]

>  <score>  (28) 
6.66865

>  <index>  (28) 
28

>  <Smiles>  (28) 
C(N(C(=O)C(N1C([C@@]2(C(=O)N(c3c(nc(c4c(c(c(c(c34)[H])[H])[H])[H])[H])[H])C([C@@]2(C(S(=O)(=O)N(C([H])([H])[H])[H])([H])[H])[H])([H])[H])c2c(c(Cl)c(c(c2C1=O)[H])[H])[H])([H])[H])([H])[H])[H])([H])([H])[H]

>  <h>  (28) 
<NA>

>  <Training>  (28) 
True

>  <Success>  (28) 
True

>  <enamine_searched>  (28) 
False

>  <enamine_id>  (28) 
nan

$$$$

     RDKit          3D

 55 60  0  0  0  0  0  0  0  0999 V2000
   -7.8793   -3.6217  -24.0840 C   0  0  0  0  0  0  0  0  0  0  0  0
   -8.2896   -2.8525  -22.8195 C   0  0  1  0  0  0  0  0  0  0  0  0
   -7.0934   -2.6223  -21.8707 C   0  0  0  0  0  0  0  0  0  0  0  0
   -7.4089   -1.3785  -21.1979 N   0  0  0  0  0  0  0  0  0  0  0  0
   -6.6090   -0.8021  -20.1742 C   0  0  0  0  0  0  0  0  0  0  0  0
   -6.9058   -1.0487  -18.8598 C   0  0  0  0  0  0  0  0  0  0  0  0
   -6.1964   -0.5626  -17.8120 N   0  0  0  0  0  0  0  0  0  0  0  0
   -5.1689    0.2081  -18.0762 C   0  0  0  0  0  0  0  0  0  0  0  0
   -4.7412    0.5464  -19.3915 C   0  0  0  0  0  0  0  0  0  0  0  0
   -3.6119    1.3789  -19.6316 C   0  0  0  0  0  0  0  0  0  0  0  0
   -3.2263    1.6794  -20.9091 C   0  0  0  0  0  0  0  0  0  0  0  0
   -3.9579    1.1606  -21.9991 C   0  0  0  0  0  0  0  0  0  0  0  0
   -5.0439    0.3382  -21.7913 C   0  0  0  0  0  0  0  0  0  0  0  0
   -5.4777    0.0218  -20.4791 C   0  0  0  0  0  0  0  0  0  0  0  0
   -5.5645   -0.0767  -22.6486 H   0  0  0  0  0  0  0  0  0  0  0  0
   -3.6456    1.3710  -23.0154 H   0  0  0  0  0  0  0  0  0  0  0  0
   -2.3544    2.3000  -21.0946 H   0  0  0  0  0  0  0  0  0  0  0  0
   -3.0714    1.7711  -18.7747 H   0  0  0  0  0  0  0  0  0  0  0  0
   -4.6236    0.6118  -17.2226 H   0  0  0  0  0  0  0  0  0  0  0  0
   -7.7551   -1.6731  -18.5960 H   0  0  0  0  0  0  0  0  0  0  0  0
   -8.4113   -0.6456  -21.7940 C   0  0  0  0  0  0  0  0  0  0  0  0
   -8.7787    0.4347  -21.3871 O   0  0  0  0  0  0  0  0  0  0  0  0
   -8.9502   -1.4464  -23.0159 C   0  0  1  0  0  0  0  0  0  0  0  0
   -8.4864   -0.7993  -24.3459 C   0  0  0  0  0  0  0  0  0  0  0  0
   -9.1482    0.4561  -24.6221 N   0  0  0  0  0  0  0  0  0  0  0  0
   -8.3534    1.6316  -24.9499 C   0  0  0  0  0  0  0  0  0  0  0  0
   -8.0482    2.4971  -23.7543 C   0  0  0  0  0  0  0  0  0  0  0  0
   -8.8781    3.4280  -23.1131 C   0  0  0  0  0  0  0  0  0  0  0  0
   -8.2156    3.9620  -22.0920 N   0  0  0  0  0  0  0  0  0  0  0  0
   -7.0536    3.3535  -22.1332 N   0  0  0  0  0  0  0  0  0  0  0  0
   -6.8792    2.4734  -23.1058 N   0  0  0  0  0  0  0  0  0  0  0  0
   -6.3710    3.5134  -21.4030 H   0  0  0  0  0  0  0  0  0  0  0  0
   -9.9074    3.6960  -23.3243 H   0  0  0  0  0  0  0  0  0  0  0  0
   -7.4079    1.3056  -25.3974 H   0  0  0  0  0  0  0  0  0  0  0  0
   -8.9192    2.2070  -25.6873 H   0  0  0  0  0  0  0  0  0  0  0  0
  -10.5015    0.6053  -24.4881 C   0  0  0  0  0  0  0  0  0  0  0  0
  -11.1016    1.5887  -24.9085 O   0  0  0  0  0  0  0  0  0  0  0  0
  -11.1938   -0.4893  -23.7376 C   0  0  0  0  0  0  0  0  0  0  0  0
  -12.5883   -0.4674  -23.6976 C   0  0  0  0  0  0  0  0  0  0  0  0
  -13.2821   -1.3291  -22.8743 C   0  0  0  0  0  0  0  0  0  0  0  0
  -12.5465   -2.1887  -22.0682 C   0  0  0  0  0  0  0  0  0  0  0  0
  -13.2094   -2.9857  -21.2162 F   0  0  0  0  0  0  0  0  0  0  0  0
  -11.1699   -2.2463  -22.0993 C   0  0  0  0  0  0  0  0  0  0  0  0
  -10.4674   -1.4293  -22.9920 C   0  0  0  0  0  0  0  0  0  0  0  0
  -10.6717   -2.9038  -21.3959 H   0  0  0  0  0  0  0  0  0  0  0  0
  -14.3634   -1.3326  -22.8064 H   0  0  0  0  0  0  0  0  0  0  0  0
  -13.0966    0.2689  -24.3072 H   0  0  0  0  0  0  0  0  0  0  0  0
   -7.4150   -0.5858  -24.2686 H   0  0  0  0  0  0  0  0  0  0  0  0
   -8.6638   -1.5032  -25.1734 H   0  0  0  0  0  0  0  0  0  0  0  0
   -6.1461   -2.5514  -22.4298 H   0  0  0  0  0  0  0  0  0  0  0  0
   -6.9693   -3.4304  -21.1406 H   0  0  0  0  0  0  0  0  0  0  0  0
   -9.0296   -3.4542  -22.2875 H   0  0  0  0  0  0  0  0  0  0  0  0
   -7.4905   -4.6148  -23.8302 H   0  0  0  0  0  0  0  0  0  0  0  0
   -7.0873   -3.0971  -24.6329 H   0  0  0  0  0  0  0  0  0  0  0  0
   -8.7171   -3.7636  -24.7759 H   0  0  0  0  0  0  0  0  0  0  0  0
  1  2  1  0
  2  3  1  0
  3  4  1  0
  4  5  1  0
  5  6  2  0
  6  7  1  0
  7  8  2  0
  8  9  1  0
  9 10  2  0
 10 11  1  0
 11 12  2  0
 12 13  1  0
 13 14  2  0
 13 15  1  0
 12 16  1  0
 11 17  1  0
 10 18  1  0
  8 19  1  0
  6 20  1  0
  4 21  1  0
 21 22  2  0
 21 23  1  0
 23 24  1  6
 24 25  1  0
 25 26  1  0
 26 27  1  0
 27 28  1  0
 28 29  2  0
 29 30  1  0
 30 31  1  0
 30 32  1  0
 28 33  1  0
 26 34  1  0
 26 35  1  0
 25 36  1  0
 36 37  2  0
 36 38  1  0
 38 39  2  0
 39 40  1  0
 40 41  2  0
 41 42  1  0
 41 43  1  0
 43 44  2  0
 43 45  1  0
 40 46  1  0
 39 47  1  0
 24 48  1  0
 24 49  1  0
  3 50  1  0
  3 51  1  0
  2 52  1  1
  1 53  1  0
  1 54  1  0
  1 55  1  0
 23  2  1  0
 31 27  2  0
 44 38  1  0
 14  5  1  0
 44 23  1  0
 14  9  1  0
M  END
>  <cnnaffinities>  (29) 
[6.25341]

>  <score>  (29) 
6.25341

>  <index>  (29) 
29

>  <Smiles>  (29) 
C([C@]1(C(N(c2c(nc(c3c(c(c(c(c23)[H])[H])[H])[H])[H])[H])C(=O)[C@]21C(N(C(c1c(nn(n1)[H])[H])([H])[H])C(=O)c1c(c(c(F)c(c21)[H])[H])[H])([H])[H])([H])[H])[H])([H])([H])[H]

>  <h>  (29) 
<NA>

>  <Training>  (29) 
True

>  <Success>  (29) 
True

>  <enamine_searched>  (29) 
False

>  <enamine_id>  (29) 
nan

$$$$

     RDKit          3D

 58 63  0  0  0  0  0  0  0  0999 V2000
   -7.2731   -3.3715  -23.8896 C   0  0  0  0  0  0  0  0  0  0  0  0
   -8.2387   -2.8648  -22.8124 C   0  0  1  0  0  0  0  0  0  0  0  0
   -7.5605   -2.7565  -21.4307 C   0  0  0  0  0  0  0  0  0  0  0  0
   -7.3348   -1.3400  -21.2601 N   0  0  0  0  0  0  0  0  0  0  0  0
   -6.5840   -0.7990  -20.1992 C   0  0  0  0  0  0  0  0  0  0  0  0
   -6.8931   -1.0890  -18.8962 C   0  0  0  0  0  0  0  0  0  0  0  0
   -6.2199   -0.6019  -17.8271 N   0  0  0  0  0  0  0  0  0  0  0  0
   -5.2022    0.1908  -18.0712 C   0  0  0  0  0  0  0  0  0  0  0  0
   -4.7671    0.5539  -19.3798 C   0  0  0  0  0  0  0  0  0  0  0  0
   -3.6307    1.3741  -19.5948 C   0  0  0  0  0  0  0  0  0  0  0  0
   -3.2439    1.7003  -20.8652 C   0  0  0  0  0  0  0  0  0  0  0  0
   -3.9646    1.2255  -21.9810 C   0  0  0  0  0  0  0  0  0  0  0  0
   -5.0534    0.4126  -21.7992 C   0  0  0  0  0  0  0  0  0  0  0  0
   -5.4825    0.0580  -20.4882 C   0  0  0  0  0  0  0  0  0  0  0  0
   -5.5789    0.0108  -22.6602 H   0  0  0  0  0  0  0  0  0  0  0  0
   -3.6570    1.5166  -22.9809 H   0  0  0  0  0  0  0  0  0  0  0  0
   -2.3711    2.3242  -21.0257 H   0  0  0  0  0  0  0  0  0  0  0  0
   -3.0813    1.7290  -18.7287 H   0  0  0  0  0  0  0  0  0  0  0  0
   -4.6535    0.5815  -17.2142 H   0  0  0  0  0  0  0  0  0  0  0  0
   -7.7452   -1.7278  -18.6693 H   0  0  0  0  0  0  0  0  0  0  0  0
   -8.2053   -0.5608  -21.9898 C   0  0  0  0  0  0  0  0  0  0  0  0
   -8.3976    0.6190  -21.7992 O   0  0  0  0  0  0  0  0  0  0  0  0
   -8.8849   -1.4602  -23.0494 C   0  0  1  0  0  0  0  0  0  0  0  0
   -8.6378   -0.9141  -24.4707 C   0  0  0  0  0  0  0  0  0  0  0  0
   -9.2847    0.3602  -24.6757 N   0  0  0  0  0  0  0  0  0  0  0  0
   -8.5467    1.4445  -25.2907 C   0  0  0  0  0  0  0  0  0  0  0  0
   -8.1060    2.4912  -24.3015 C   0  0  0  0  0  0  0  0  0  0  0  0
   -6.8362    2.6133  -23.8234 C   0  0  0  0  0  0  0  0  0  0  0  0
   -6.4779    3.7076  -22.9473 C   0  0  0  0  0  0  0  0  0  0  0  0
   -5.3811    3.9727  -22.4929 O   0  0  0  0  0  0  0  0  0  0  0  0
   -7.5933    4.5134  -22.6304 N   0  0  0  0  0  0  0  0  0  0  0  0
   -8.8199    4.3486  -23.1916 C   0  0  0  0  0  0  0  0  0  0  0  0
   -9.1026    3.3884  -24.0053 N   0  0  0  0  0  0  0  0  0  0  0  0
   -9.5782    5.0898  -22.9396 H   0  0  0  0  0  0  0  0  0  0  0  0
   -7.4100    5.2700  -21.9837 H   0  0  0  0  0  0  0  0  0  0  0  0
   -6.0512    1.9198  -24.0837 H   0  0  0  0  0  0  0  0  0  0  0  0
   -9.2358    1.9740  -25.9344 H   0  0  0  0  0  0  0  0  0  0  0  0
   -7.7248    1.0286  -25.8863 H   0  0  0  0  0  0  0  0  0  0  0  0
  -10.6121    0.5252  -24.3937 C   0  0  0  0  0  0  0  0  0  0  0  0
  -11.2842    1.4514  -24.8204 O   0  0  0  0  0  0  0  0  0  0  0  0
  -11.2000   -0.5005  -23.4780 C   0  0  0  0  0  0  0  0  0  0  0  0
  -12.5717   -0.4326  -23.2350 C   0  0  0  0  0  0  0  0  0  0  0  0
  -13.1787   -1.3263  -22.3768 C   0  0  0  0  0  0  0  0  0  0  0  0
  -12.3664   -2.2717  -21.7600 C   0  0  0  0  0  0  0  0  0  0  0  0
  -12.9341   -3.1906  -20.9675 F   0  0  0  0  0  0  0  0  0  0  0  0
  -10.9983   -2.3226  -21.9362 C   0  0  0  0  0  0  0  0  0  0  0  0
  -10.3938   -1.4462  -22.8365 C   0  0  0  0  0  0  0  0  0  0  0  0
  -10.4266   -3.0316  -21.3494 H   0  0  0  0  0  0  0  0  0  0  0  0
  -14.2384   -1.2790  -22.1450 H   0  0  0  0  0  0  0  0  0  0  0  0
  -13.1246    0.3516  -23.7395 H   0  0  0  0  0  0  0  0  0  0  0  0
   -9.0182   -1.6595  -25.1846 H   0  0  0  0  0  0  0  0  0  0  0  0
   -7.5733   -0.7695  -24.6499 H   0  0  0  0  0  0  0  0  0  0  0  0
   -6.6093   -3.2951  -21.3743 H   0  0  0  0  0  0  0  0  0  0  0  0
   -8.2249   -3.1383  -20.6452 H   0  0  0  0  0  0  0  0  0  0  0  0
   -9.0434   -3.6037  -22.7773 H   0  0  0  0  0  0  0  0  0  0  0  0
   -6.8965   -4.3575  -23.6014 H   0  0  0  0  0  0  0  0  0  0  0  0
   -6.4148   -2.7069  -24.0312 H   0  0  0  0  0  0  0  0  0  0  0  0
   -7.7833   -3.4901  -24.8498 H   0  0  0  0  0  0  0  0  0  0  0  0
  1  2  1  0
  2  3  1  0
  3  4  1  0
  4  5  1  0
  5  6  2  0
  6  7  1  0
  7  8  2  0
  8  9  1  0
  9 10  2  0
 10 11  1  0
 11 12  2  0
 12 13  1  0
 13 14  2  0
 13 15  1  0
 12 16  1  0
 11 17  1  0
 10 18  1  0
  8 19  1  0
  6 20  1  0
  4 21  1  0
 21 22  2  0
 21 23  1  0
 23 24  1  6
 24 25  1  0
 25 26  1  0
 26 27  1  0
 27 28  2  0
 28 29  1  0
 29 30  2  0
 29 31  1  0
 31 32  1  0
 32 33  2  0
 32 34  1  0
 31 35  1  0
 28 36  1  0
 26 37  1  0
 26 38  1  0
 25 39  1  0
 39 40  2  0
 39 41  1  0
 41 42  2  0
 42 43  1  0
 43 44  2  0
 44 45  1  0
 44 46  1  0
 46 47  2  0
 46 48  1  0
 43 49  1  0
 42 50  1  0
 24 51  1  0
 24 52  1  0
  3 53  1  0
  3 54  1  0
  2 55  1  1
  1 56  1  0
  1 57  1  0
  1 58  1  0
 23  2  1  0
 33 27  1  0
 47 41  1  0
 14  5  1  0
 47 23  1  0
 14  9  1  0
M  END
>  <cnnaffinities>  (30) 
[6.40329]

>  <score>  (30) 
6.40329

>  <index>  (30) 
30

>  <Smiles>  (30) 
C([C@]1(C(N(c2c(nc(c3c(c(c(c(c23)[H])[H])[H])[H])[H])[H])C(=O)[C@]21C(N(C(c1c(c(=O)n(c(n1)[H])[H])[H])([H])[H])C(=O)c1c(c(c(F)c(c21)[H])[H])[H])([H])[H])([H])[H])[H])([H])([H])[H]

>  <h>  (30) 
<NA>

>  <Training>  (30) 
True

>  <Success>  (30) 
True

>  <enamine_searched>  (30) 
False

>  <enamine_id>  (30) 
nan

$$$$

     RDKit          3D

 66 71  0  0  0  0  0  0  0  0999 V2000
   -8.4276    2.8205  -28.3230 C   0  0  0  0  0  0  0  0  0  0  0  0
   -8.5641    2.7961  -26.8756 N   0  0  0  0  0  0  0  0  0  0  0  0
   -7.8051    1.9055  -26.1700 C   0  0  0  0  0  0  0  0  0  0  0  0
   -6.9018    1.2527  -26.6646 O   0  0  0  0  0  0  0  0  0  0  0  0
   -8.1284    1.8288  -24.6730 C   0  0  0  0  0  0  0  0  0  0  0  0
   -9.0225    0.7412  -24.3235 N   0  0  0  0  0  0  0  0  0  0  0  0
   -8.4951   -0.6000  -24.1435 C   0  0  0  0  0  0  0  0  0  0  0  0
   -9.1016   -1.2979  -22.8860 C   0  0  2  0  0  0  0  0  0  0  0  0
   -8.5725   -0.6130  -21.5984 C   0  0  0  0  0  0  0  0  0  0  0  0
   -9.0978    0.2924  -20.9892 O   0  0  0  0  0  0  0  0  0  0  0  0
   -7.3880   -1.2249  -21.2481 N   0  0  0  0  0  0  0  0  0  0  0  0
   -6.6037   -0.7204  -20.1782 C   0  0  0  0  0  0  0  0  0  0  0  0
   -6.9171   -1.0464  -18.8834 C   0  0  0  0  0  0  0  0  0  0  0  0
   -6.2187   -0.6346  -17.7973 N   0  0  0  0  0  0  0  0  0  0  0  0
   -5.1880    0.1494  -17.9965 C   0  0  0  0  0  0  0  0  0  0  0  0
   -4.7604    0.5841  -19.2824 C   0  0  0  0  0  0  0  0  0  0  0  0
   -3.6492    1.4538  -19.4495 C   0  0  0  0  0  0  0  0  0  0  0  0
   -3.2739    1.8656  -20.6995 C   0  0  0  0  0  0  0  0  0  0  0  0
   -3.9914    1.4311  -21.8360 C   0  0  0  0  0  0  0  0  0  0  0  0
   -5.0683    0.5891  -21.6990 C   0  0  0  0  0  0  0  0  0  0  0  0
   -5.4821    0.1401  -20.4149 C   0  0  0  0  0  0  0  0  0  0  0  0
   -5.6076    0.2599  -22.5821 H   0  0  0  0  0  0  0  0  0  0  0  0
   -3.6877    1.7590  -22.8265 H   0  0  0  0  0  0  0  0  0  0  0  0
   -2.4262    2.5339  -20.8310 H   0  0  0  0  0  0  0  0  0  0  0  0
   -3.1133    1.7906  -18.5650 H   0  0  0  0  0  0  0  0  0  0  0  0
   -4.6338    0.4823  -17.1159 H   0  0  0  0  0  0  0  0  0  0  0  0
   -7.7764   -1.6807  -18.6814 H   0  0  0  0  0  0  0  0  0  0  0  0
   -7.0803   -2.3767  -22.0841 C   0  0  0  0  0  0  0  0  0  0  0  0
   -8.4803   -2.7337  -22.6542 C   0  0  2  0  0  0  0  0  0  0  0  0
   -8.4543   -3.7453  -23.8497 C   0  0  0  0  0  0  0  0  0  0  0  0
   -7.6603   -4.8963  -23.5915 N   0  0  0  0  0  0  0  0  0  0  0  0
   -8.2772   -6.0975  -23.7510 C   0  0  0  0  0  0  0  0  0  0  0  0
   -9.7092   -6.1785  -24.2475 C   0  0  0  0  0  0  0  0  0  0  0  0
   -9.5903   -5.9398  -24.2105 C   0  0  0  0  0  0  0  0  0  0  0  0
   -9.4858   -8.7226  -23.5936 N   0  0  0  0  0  0  0  0  0  0  0  0
   -8.2993   -8.3894  -23.4745 C   0  0  0  0  0  0  0  0  0  0  0  0
   -7.5774   -7.1442  -23.4950 N   0  0  0  0  0  0  0  0  0  0  0  0
   -7.5549   -9.1947  -23.2701 H   0  0  0  0  0  0  0  0  0  0  0  0
  -10.0691   -5.5130  -25.1600 H   0  0  0  0  0  0  0  0  0  0  0  0
  -10.5256   -5.4752  -23.7484 H   0  0  0  0  0  0  0  0  0  0  0  0
   -6.7983   -4.8833  -23.0787 H   0  0  0  0  0  0  0  0  0  0  0  0
   -8.0164   -3.1693  -24.6990 H   0  0  0  0  0  0  0  0  0  0  0  0
   -9.4407   -4.0559  -24.1265 H   0  0  0  0  0  0  0  0  0  0  0  0
   -9.0103   -3.1832  -21.8048 H   0  0  0  0  0  0  0  0  0  0  0  0
   -6.3807   -2.1117  -22.8940 H   0  0  0  0  0  0  0  0  0  0  0  0
   -6.6112   -3.1697  -21.4929 H   0  0  0  0  0  0  0  0  0  0  0  0
  -10.6083   -1.1329  -22.9596 C   0  0  0  0  0  0  0  0  0  0  0  0
  -11.4455   -1.9016  -22.1414 C   0  0  0  0  0  0  0  0  0  0  0  0
  -12.8202   -1.8056  -22.2926 C   0  0  0  0  0  0  0  0  0  0  0  0
  -13.8566   -2.8748  -21.3901 Cl  0  0  0  0  0  0  0  0  0  0  0  0
  -13.4043   -0.8659  -23.1412 C   0  0  0  0  0  0  0  0  0  0  0  0
  -12.5805    0.0062  -23.8251 C   0  0  0  0  0  0  0  0  0  0  0  0
  -11.1964   -0.1064  -23.7258 C   0  0  0  0  0  0  0  0  0  0  0  0
  -10.3654    0.9527  -24.3856 C   0  0  0  0  0  0  0  0  0  0  0  0
  -10.8521    1.9525  -24.9080 O   0  0  0  0  0  0  0  0  0  0  0  0
  -12.9874    0.7970  -24.4429 H   0  0  0  0  0  0  0  0  0  0  0  0
  -14.4845   -0.8139  -23.2314 H   0  0  0  0  0  0  0  0  0  0  0  0
  -11.0474   -2.4961  -21.3260 H   0  0  0  0  0  0  0  0  0  0  0  0
   -8.7231   -1.2051  -25.0318 H   0  0  0  0  0  0  0  0  0  0  0  0
   -7.4074   -0.5100  -24.0745 H   0  0  0  0  0  0  0  0  0  0  0  0
   -8.5771    2.7648  -24.3290 H   0  0  0  0  0  0  0  0  0  0  0  0
   -7.1828    1.6754  -24.1445 H   0  0  0  0  0  0  0  0  0  0  0  0
   -9.4964    2.9408  -26.5027 H   0  0  0  0  0  0  0  0  0  0  0  0
   -7.3867    3.0252  -28.5844 H   0  0  0  0  0  0  0  0  0  0  0  0
   -9.0606    3.6151  -28.7280 H   0  0  0  0  0  0  0  0  0  0  0  0
   -8.7061    1.8649  -28.7877 H   0  0  0  0  0  0  0  0  0  0  0  0
  1  2  1  0
  2  3  1  0
  3  4  2  0
  3  5  1  0
  5  6  1  0
  6  7  1  0
  8  7  1  6
  8  9  1  0
  9 10  2  0
  9 11  1  0
 11 12  1  0
 12 13  2  0
 13 14  1  0
 14 15  2  0
 15 16  1  0
 16 17  2  0
 17 18  1  0
 18 19  2  0
 19 20  1  0
 20 21  2  0
 20 22  1  0
 19 23  1  0
 18 24  1  0
 17 25  1  0
 15 26  1  0
 13 27  1  0
 11 28  1  0
 28 29  1  0
 29 30  1  0
 30 31  1  0
 31 32  1  0
 32 33  2  0
 33 34  1  0
 34 35  2  0
 35 36  1  0
 36 37  2  0
 36 38  1  0
 34 39  1  0
 33 40  1  0
 31 41  1  0
 30 42  1  0
 30 43  1  0
 29 44  1  1
 28 45  1  0
 28 46  1  0
  8 47  1  0
 47 48  2  0
 48 49  1  0
 49 50  1  0
 49 51  2  0
 51 52  1  0
 52 53  2  0
 53 54  1  0
 54 55  2  0
 52 56  1  0
 51 57  1  0
 48 58  1  0
  7 59  1  0
  7 60  1  0
  5 61  1  0
  5 62  1  0
  2 63  1  0
  1 64  1  0
  1 65  1  0
  1 66  1  0
 54  6  1  0
 29  8  1  0
 37 32  1  0
 53 47  1  0
 21 12  1  0
 21 16  1  0
M  END
>  <cnnaffinities>  (31) 
[6.94545]

>  <score>  (31) 
6.94545

>  <index>  (31) 
31

>  <Smiles>  (31) 
C(N(C(=O)C(N1C([C@@]2(C(=O)N(c3c(nc(c4c(c(c(c(c34)[H])[H])[H])[H])[H])[H])C([C@@]2(C(N(c2c(c(nc(n2)[H])[H])[H])[H])([H])[H])[H])([H])[H])c2c(c(Cl)c(c(c2C1=O)[H])[H])[H])([H])[H])([H])[H])[H])([H])([H])[H]

>  <h>  (31) 
<NA>

>  <Training>  (31) 
True

>  <Success>  (31) 
True

>  <enamine_searched>  (31) 
False

>  <enamine_id>  (31) 
nan

$$$$

     RDKit          3D

 57 62  0  0  0  0  0  0  0  0999 V2000
  -10.2134   -2.9734  -22.0767 C   0  0  0  0  0  0  0  0  0  0  0  0
   -9.1448   -2.0237  -22.6334 C   0  0  1  0  0  0  0  0  0  0  0  0
   -8.6762   -1.0429  -21.5430 C   0  0  0  0  0  0  0  0  0  0  0  0
   -7.3415   -1.4681  -21.2032 N   0  0  0  0  0  0  0  0  0  0  0  0
   -6.5738   -0.8543  -20.1888 C   0  0  0  0  0  0  0  0  0  0  0  0
   -6.9106   -1.0620  -18.8749 C   0  0  0  0  0  0  0  0  0  0  0  0
   -6.2259   -0.5626  -17.8196 N   0  0  0  0  0  0  0  0  0  0  0  0
   -5.1911    0.2015  -18.0848 C   0  0  0  0  0  0  0  0  0  0  0  0
   -4.7583    0.5273  -19.4039 C   0  0  0  0  0  0  0  0  0  0  0  0
   -3.6359    1.3690  -19.6245 C   0  0  0  0  0  0  0  0  0  0  0  0
   -3.2593    1.7011  -20.8976 C   0  0  0  0  0  0  0  0  0  0  0  0
   -3.9963    1.2225  -22.0037 C   0  0  0  0  0  0  0  0  0  0  0  0
   -5.0730    0.3864  -21.8220 C   0  0  0  0  0  0  0  0  0  0  0  0
   -5.4716    0.0049  -20.5039 C   0  0  0  0  0  0  0  0  0  0  0  0
   -5.6083    0.0036  -22.6917 H   0  0  0  0  0  0  0  0  0  0  0  0
   -3.6851    1.4836  -23.0122 H   0  0  0  0  0  0  0  0  0  0  0  0
   -2.3879    2.3277  -21.0700 H   0  0  0  0  0  0  0  0  0  0  0  0
   -3.0880    1.7347  -18.7610 H   0  0  0  0  0  0  0  0  0  0  0  0
   -4.6361    0.6104  -17.2399 H   0  0  0  0  0  0  0  0  0  0  0  0
   -7.7670   -1.6947  -18.6369 H   0  0  0  0  0  0  0  0  0  0  0  0
   -6.8212   -2.4181  -22.0423 C   0  0  0  0  0  0  0  0  0  0  0  0
   -5.7340   -2.9424  -21.9019 O   0  0  0  0  0  0  0  0  0  0  0  0
   -7.8414   -2.6905  -23.1606 C   0  0  1  0  0  0  0  0  0  0  0  0
   -7.9868   -4.2076  -23.3800 C   0  0  0  0  0  0  0  0  0  0  0  0
   -6.8030   -4.7814  -24.0019 N   0  0  0  0  0  0  0  0  0  0  0  0
   -6.2333   -5.9700  -23.3862 C   0  0  0  0  0  0  0  0  0  0  0  0
   -7.2423   -7.0735  -23.4456 C   0  0  0  0  0  0  0  0  0  0  0  0
   -8.0156   -7.4834  -22.4670 N   0  0  0  0  0  0  0  0  0  0  0  0
   -8.9554   -8.2643  -23.0425 N   0  0  0  0  0  0  0  0  0  0  0  0
   -8.7758   -8.3431  -24.3101 N   0  0  0  0  0  0  0  0  0  0  0  0
   -7.6966   -7.5976  -24.5969 N   0  0  0  0  0  0  0  0  0  0  0  0
   -7.1786   -7.4894  -25.9461 C   0  0  0  0  0  0  0  0  0  0  0  0
   -7.4830   -6.5571  -26.4208 H   0  0  0  0  0  0  0  0  0  0  0  0
   -6.0905   -7.5324  -25.9403 H   0  0  0  0  0  0  0  0  0  0  0  0
   -7.5624   -8.3264  -26.5246 H   0  0  0  0  0  0  0  0  0  0  0  0
   -5.9912   -5.7406  -22.3397 H   0  0  0  0  0  0  0  0  0  0  0  0
   -5.3155   -6.1844  -23.9397 H   0  0  0  0  0  0  0  0  0  0  0  0
   -6.2139   -4.2294  -25.0984 C   0  0  0  0  0  0  0  0  0  0  0  0
   -5.3969   -4.8230  -25.7972 O   0  0  0  0  0  0  0  0  0  0  0  0
   -6.6004   -2.8160  -25.3806 C   0  0  0  0  0  0  0  0  0  0  0  0
   -6.1260   -2.2605  -26.5670 C   0  0  0  0  0  0  0  0  0  0  0  0
   -6.3638   -0.9283  -26.8479 C   0  0  0  0  0  0  0  0  0  0  0  0
   -7.0675   -0.1715  -25.9157 C   0  0  0  0  0  0  0  0  0  0  0  0
   -7.2773    1.1349  -26.1689 F   0  0  0  0  0  0  0  0  0  0  0  0
   -7.5543   -0.7074  -24.7374 C   0  0  0  0  0  0  0  0  0  0  0  0
   -7.3439   -2.0659  -24.4618 C   0  0  0  0  0  0  0  0  0  0  0  0
   -8.0987   -0.0558  -24.0598 H   0  0  0  0  0  0  0  0  0  0  0  0
   -5.9982   -0.4502  -27.7484 H   0  0  0  0  0  0  0  0  0  0  0  0
   -5.5587   -2.9128  -27.2274 H   0  0  0  0  0  0  0  0  0  0  0  0
   -8.8561   -4.3891  -24.0255 H   0  0  0  0  0  0  0  0  0  0  0  0
   -8.1375   -4.7140  -22.4232 H   0  0  0  0  0  0  0  0  0  0  0  0
   -8.6711    0.0001  -21.8796 H   0  0  0  0  0  0  0  0  0  0  0  0
   -9.3260   -1.0965  -20.6752 H   0  0  0  0  0  0  0  0  0  0  0  0
   -9.6152   -1.4890  -23.4635 H   0  0  0  0  0  0  0  0  0  0  0  0
  -10.5957   -3.6524  -22.8443 H   0  0  0  0  0  0  0  0  0  0  0  0
  -11.0658   -2.3984  -21.7006 H   0  0  0  0  0  0  0  0  0  0  0  0
   -9.8230   -3.5708  -21.2462 H   0  0  0  0  0  0  0  0  0  0  0  0
  1  2  1  0
  2  3  1  0
  3  4  1  0
  4  5  1  0
  5  6  2  0
  6  7  1  0
  7  8  2  0
  8  9  1  0
  9 10  2  0
 10 11  1  0
 11 12  2  0
 12 13  1  0
 13 14  2  0
 13 15  1  0
 12 16  1  0
 11 17  1  0
 10 18  1  0
  8 19  1  0
  6 20  1  0
  4 21  1  0
 21 22  2  0
 21 23  1  0
 23 24  1  6
 24 25  1  0
 25 26  1  0
 26 27  1  0
 27 28  2  0
 28 29  1  0
 29 30  2  0
 30 31  1  0
 31 32  1  0
 32 33  1  0
 32 34  1  0
 32 35  1  0
 26 36  1  0
 26 37  1  0
 25 38  1  0
 38 39  2  0
 38 40  1  0
 40 41  2  0
 41 42  1  0
 42 43  2  0
 43 44  1  0
 43 45  1  0
 45 46  2  0
 45 47  1  0
 42 48  1  0
 41 49  1  0
 24 50  1  0
 24 51  1  0
  3 52  1  0
  3 53  1  0
  2 54  1  6
  1 55  1  0
  1 56  1  0
  1 57  1  0
 23  2  1  0
 31 27  1  0
 46 40  1  0
 14  5  1  0
 46 23  1  0
 14  9  1  0
M  END
>  <cnnaffinities>  (32) 
[5.71192]

>  <score>  (32) 
5.71192

>  <index>  (32) 
32

>  <Smiles>  (32) 
C([C@]1(C(N(c2c(nc(c3c(c(c(c(c23)[H])[H])[H])[H])[H])[H])C(=O)[C@]21C(N(C(c1nnnn1C([H])([H])[H])([H])[H])C(=O)c1c(c(c(F)c(c21)[H])[H])[H])([H])[H])([H])[H])[H])([H])([H])[H]

>  <h>  (32) 
<NA>

>  <Training>  (32) 
True

>  <Success>  (32) 
True

>  <enamine_searched>  (32) 
False

>  <enamine_id>  (32) 
nan

$$$$

     RDKit          3D

 66 70  0  0  0  0  0  0  0  0999 V2000
   -7.3531    3.4229  -21.9025 C   0  0  0  0  0  0  0  0  0  0  0  0
   -8.3087    2.9293  -22.8826 N   0  0  0  0  0  0  0  0  0  0  0  0
   -7.8009    2.2311  -23.9388 C   0  0  0  0  0  0  0  0  0  0  0  0
   -6.6009    2.0612  -24.0782 O   0  0  0  0  0  0  0  0  0  0  0  0
   -8.8136    1.6476  -24.9263 C   0  0  0  0  0  0  0  0  0  0  0  0
   -9.4629    0.4865  -24.3434 N   0  0  0  0  0  0  0  0  0  0  0  0
   -8.6979   -0.7412  -24.1624 C   0  0  0  0  0  0  0  0  0  0  0  0
   -9.0955   -1.4985  -22.8676 C   0  0  2  0  0  0  0  0  0  0  0  0
   -8.5728   -0.7451  -21.6215 C   0  0  0  0  0  0  0  0  0  0  0  0
   -9.0525    0.2360  -21.0892 O   0  0  0  0  0  0  0  0  0  0  0  0
   -7.4200   -1.3622  -21.1947 N   0  0  0  0  0  0  0  0  0  0  0  0
   -6.6311   -0.7879  -20.1674 C   0  0  0  0  0  0  0  0  0  0  0  0
   -6.9369   -1.0409  -18.8553 C   0  0  0  0  0  0  0  0  0  0  0  0
   -6.2322   -0.5705  -17.7989 N   0  0  0  0  0  0  0  0  0  0  0  0
   -5.1949    0.1895  -18.0588 C   0  0  0  0  0  0  0  0  0  0  0  0
   -4.7719    0.5420  -19.3731 C   0  0  0  0  0  0  0  0  0  0  0  0
   -3.6446    1.3746  -19.6059 C   0  0  0  0  0  0  0  0  0  0  0  0
   -3.2840    1.7178  -20.8809 C   0  0  0  0  0  0  0  0  0  0  0  0
   -4.0396    1.2580  -21.9823 C   0  0  0  0  0  0  0  0  0  0  0  0
   -5.1255    0.4362  -21.7854 C   0  0  0  0  0  0  0  0  0  0  0  0
   -5.5158    0.0508  -20.4729 C   0  0  0  0  0  0  0  0  0  0  0  0
   -5.6924    0.0900  -22.6443 H   0  0  0  0  0  0  0  0  0  0  0  0
   -3.7578    1.5398  -22.9924 H   0  0  0  0  0  0  0  0  0  0  0  0
   -2.4147    2.3456  -21.0545 H   0  0  0  0  0  0  0  0  0  0  0  0
   -3.0881    1.7366  -18.7458 H   0  0  0  0  0  0  0  0  0  0  0  0
   -4.6302    0.5722  -17.2078 H   0  0  0  0  0  0  0  0  0  0  0  0
   -7.7959   -1.6645  -18.6219 H   0  0  0  0  0  0  0  0  0  0  0  0
   -7.0470   -2.5354  -21.9588 C   0  0  0  0  0  0  0  0  0  0  0  0
   -8.3315   -2.8581  -22.7379 C   0  0  2  0  0  0  0  0  0  0  0  0
   -8.0643   -3.6440  -24.0214 C   0  0  0  0  0  0  0  0  0  0  0  0
   -9.2723   -4.1195  -24.5817 O   0  0  0  0  0  0  0  0  0  0  0  0
   -9.5468   -5.5039  -24.3595 C   0  0  0  0  0  0  0  0  0  0  0  0
  -11.0532   -5.7008  -24.3418 C   0  0  0  0  0  0  0  0  0  0  0  0
  -11.2978   -6.7104  -23.9870 H   0  0  0  0  0  0  0  0  0  0  0  0
  -11.5442   -4.9798  -23.6800 H   0  0  0  0  0  0  0  0  0  0  0  0
  -11.4525   -5.5947  -25.3547 H   0  0  0  0  0  0  0  0  0  0  0  0
   -8.9103   -6.3650  -25.4486 C   0  0  0  0  0  0  0  0  0  0  0  0
   -9.2950   -7.3891  -25.3765 H   0  0  0  0  0  0  0  0  0  0  0  0
   -7.8174   -6.3993  -25.3778 H   0  0  0  0  0  0  0  0  0  0  0  0
   -9.1863   -5.9647  -26.4303 H   0  0  0  0  0  0  0  0  0  0  0  0
   -9.1601   -5.7941  -23.3697 H   0  0  0  0  0  0  0  0  0  0  0  0
   -7.3557   -4.4666  -23.8199 H   0  0  0  0  0  0  0  0  0  0  0  0
   -7.5824   -2.9968  -24.7650 H   0  0  0  0  0  0  0  0  0  0  0  0
   -8.9425   -3.4998  -22.0988 H   0  0  0  0  0  0  0  0  0  0  0  0
   -6.1970   -2.3310  -22.6308 H   0  0  0  0  0  0  0  0  0  0  0  0
   -6.7467   -3.3521  -21.2908 H   0  0  0  0  0  0  0  0  0  0  0  0
  -10.6088   -1.5804  -22.8231 C   0  0  0  0  0  0  0  0  0  0  0  0
  -11.2352   -2.4371  -21.9063 C   0  0  0  0  0  0  0  0  0  0  0  0
  -12.6129   -2.4074  -21.7621 C   0  0  0  0  0  0  0  0  0  0  0  0
  -13.3839   -3.2451  -20.4460 Cl  0  0  0  0  0  0  0  0  0  0  0  0
  -13.4103   -1.6240  -22.5962 C   0  0  0  0  0  0  0  0  0  0  0  0
  -12.7987   -0.7733  -23.4931 C   0  0  0  0  0  0  0  0  0  0  0  0
  -11.4110   -0.6910  -23.5526 C   0  0  0  0  0  0  0  0  0  0  0  0
  -10.8276    0.4795  -24.2822 C   0  0  0  0  0  0  0  0  0  0  0  0
  -11.5192    1.3797  -24.7437 O   0  0  0  0  0  0  0  0  0  0  0  0
  -13.3649   -0.0932  -24.1162 H   0  0  0  0  0  0  0  0  0  0  0  0
  -14.4866   -1.6294  -22.4774 H   0  0  0  0  0  0  0  0  0  0  0  0
  -10.6494   -3.0966  -21.2766 H   0  0  0  0  0  0  0  0  0  0  0  0
   -8.8687   -1.4221  -25.0078 H   0  0  0  0  0  0  0  0  0  0  0  0
   -7.6334   -0.4885  -24.1497 H   0  0  0  0  0  0  0  0  0  0  0  0
   -9.6097    2.3544  -25.1855 H   0  0  0  0  0  0  0  0  0  0  0  0
   -8.2805    1.3832  -25.8472 H   0  0  0  0  0  0  0  0  0  0  0  0
   -9.2446    2.7261  -22.5585 H   0  0  0  0  0  0  0  0  0  0  0  0
   -6.7860    2.5812  -21.4791 H   0  0  0  0  0  0  0  0  0  0  0  0
   -6.6544    4.1179  -22.3765 H   0  0  0  0  0  0  0  0  0  0  0  0
   -7.8785    3.9816  -21.1264 H   0  0  0  0  0  0  0  0  0  0  0  0
  1  2  1  0
  2  3  1  0
  3  4  2  0
  3  5  1  0
  5  6  1  0
  6  7  1  0
  8  7  1  6
  8  9  1  0
  9 10  2  0
  9 11  1  0
 11 12  1  0
 12 13  2  0
 13 14  1  0
 14 15  2  0
 15 16  1  0
 16 17  2  0
 17 18  1  0
 18 19  2  0
 19 20  1  0
 20 21  2  0
 20 22  1  0
 19 23  1  0
 18 24  1  0
 17 25  1  0
 15 26  1  0
 13 27  1  0
 11 28  1  0
 28 29  1  0
 29 30  1  0
 30 31  1  0
 31 32  1  0
 32 33  1  0
 33 34  1  0
 33 35  1  0
 33 36  1  0
 32 37  1  0
 37 38  1  0
 37 39  1  0
 37 40  1  0
 32 41  1  0
 30 42  1  0
 30 43  1  0
 29 44  1  1
 28 45  1  0
 28 46  1  0
  8 47  1  0
 47 48  2  0
 48 49  1  0
 49 50  1  0
 49 51  2  0
 51 52  1  0
 52 53  2  0
 53 54  1  0
 54 55  2  0
 52 56  1  0
 51 57  1  0
 48 58  1  0
  7 59  1  0
  7 60  1  0
  5 61  1  0
  5 62  1  0
  2 63  1  0
  1 64  1  0
  1 65  1  0
  1 66  1  0
 54  6  1  0
 29  8  1  0
 53 47  1  0
 21 12  1  0
 21 16  1  0
M  END
>  <cnnaffinities>  (33) 
[6.4578, 6.15143, 6.66602]

>  <score>  (33) 
6.4578

>  <index>  (33) 
34

>  <Smiles>  (33) 
C(N(C(=O)C(N1C([C@@]2(C(=O)N(c3c(nc(c4c(c(c(c(c34)[H])[H])[H])[H])[H])[H])C([C@@]2(C(OC(C([H])([H])[H])(C([H])([H])[H])[H])([H])[H])[H])([H])[H])c2c(c(Cl)c(c(c2C1=O)[H])[H])[H])([H])[H])([H])[H])[H])([H])([H])[H]

>  <h>  (33) 
<NA>

>  <Training>  (33) 
True

>  <Success>  (33) 
True

>  <enamine_searched>  (33) 
False

>  <enamine_id>  (33) 
nan

$$$$

     RDKit          3D

 40 42  0  0  0  0  0  0  0  0999 V2000
   -9.2469   -1.8716  -22.4796 O   0  0  0  0  0  0  0  0  0  0  0  0
   -8.3683   -1.0453  -22.2410 C   0  0  0  0  0  0  0  0  0  0  0  0
   -6.9854   -1.4874  -21.7678 C   0  0  0  0  0  0  0  0  0  0  0  0
   -6.4378   -0.7658  -20.5425 C   0  0  0  0  0  0  0  0  0  0  0  0
   -6.9840   -1.0056  -19.3042 C   0  0  0  0  0  0  0  0  0  0  0  0
   -6.4976   -0.5382  -18.1283 N   0  0  0  0  0  0  0  0  0  0  0  0
   -5.4354    0.2291  -18.1848 C   0  0  0  0  0  0  0  0  0  0  0  0
   -4.7986    0.6205  -19.3922 C   0  0  0  0  0  0  0  0  0  0  0  0
   -3.6925    1.5103  -19.4075 C   0  0  0  0  0  0  0  0  0  0  0  0
   -3.1287    1.9106  -20.5886 C   0  0  0  0  0  0  0  0  0  0  0  0
   -3.6381    1.4172  -21.8064 C   0  0  0  0  0  0  0  0  0  0  0  0
   -4.6908    0.5330  -21.8101 C   0  0  0  0  0  0  0  0  0  0  0  0
   -5.3118    0.1110  -20.6085 C   0  0  0  0  0  0  0  0  0  0  0  0
   -5.0007    0.1218  -22.7659 H   0  0  0  0  0  0  0  0  0  0  0  0
   -3.1853    1.7170  -22.7470 H   0  0  0  0  0  0  0  0  0  0  0  0
   -2.2933    2.6048  -20.6037 H   0  0  0  0  0  0  0  0  0  0  0  0
   -3.3115    1.8766  -18.4576 H   0  0  0  0  0  0  0  0  0  0  0  0
   -5.0219    0.5832  -17.2386 H   0  0  0  0  0  0  0  0  0  0  0  0
   -7.8797   -1.6223  -19.2198 H   0  0  0  0  0  0  0  0  0  0  0  0
   -7.1037   -2.5500  -21.5447 H   0  0  0  0  0  0  0  0  0  0  0  0
   -6.2721   -1.4212  -22.5948 H   0  0  0  0  0  0  0  0  0  0  0  0
   -8.5147    0.3185  -22.3388 N   0  0  0  0  0  0  0  0  0  0  0  0
   -7.5452    1.1790  -23.0796 C   0  0  0  0  0  0  0  0  0  0  0  0
   -8.1155    2.4396  -23.6714 C   0  0  0  0  0  0  0  0  0  0  0  0
   -9.3847    2.8285  -23.6204 C   0  0  0  0  0  0  0  0  0  0  0  0
   -8.5822    5.3735  -22.6822 C   0  0  0  0  0  0  0  0  0  0  0  0
   -7.8704    4.9427  -21.6594 F   0  0  0  0  0  0  0  0  0  0  0  0
   -9.3518    6.3768  -22.3148 F   0  0  0  0  0  0  0  0  0  0  0  0
   -7.7849    5.7268  -23.6772 F   0  0  0  0  0  0  0  0  0  0  0  0
   -9.6821    1.1026  -21.8789 C   0  0  0  0  0  0  0  0  0  0  0  0
   -9.6966    0.9480  -21.6911 C   0  0  0  0  0  0  0  0  0  0  0  0
  -10.4855    0.5824  -22.6275 H   0  0  0  0  0  0  0  0  0  0  0  0
   -9.8966    0.1281  -20.3631 H   0  0  0  0  0  0  0  0  0  0  0  0
  -10.5741    1.8862  -21.6227 H   0  0  0  0  0  0  0  0  0  0  0  0
   -8.9505    1.9408  -21.3850 H   0  0  0  0  0  0  0  0  0  0  0  0
   -9.5977    3.8993  -23.5472 H   0  0  0  0  0  0  0  0  0  0  0  0
   -7.3530    3.0868  -24.1003 H   0  0  0  0  0  0  0  0  0  0  0  0
  -10.1841    2.1076  -23.6112 H   0  0  0  0  0  0  0  0  0  0  0  0
   -7.0745    0.5791  -23.8611 H   0  0  0  0  0  0  0  0  0  0  0  0
   -6.7687    1.4975  -22.3743 H   0  0  0  0  0  0  0  0  0  0  0  0
  1  2  2  0
  2  3  1  0
  3  4  1  0
  4  5  2  0
  5  6  1  0
  6  7  2  0
  7  8  1  0
  8  9  2  0
  9 10  1  0
 10 11  2  0
 11 12  1  0
 12 13  2  0
 12 14  1  0
 11 15  1  0
 10 16  1  0
  9 17  1  0
  7 18  1  0
  5 19  1  0
  3 20  1  0
  3 21  1  0
  2 22  1  0
 22 23  1  0
 23 24  1  0
 24 25  1  0
 25 26  1  0
 26 27  1  0
 26 28  1  0
 26 29  1  0
 25 30  1  0
 30 31  1  0
 31 32  1  0
 31 33  1  0
 30 34  1  0
 30 35  1  0
 25 36  1  0
 24 37  1  0
 24 38  1  0
 23 39  1  0
 23 40  1  0
 13  4  1  0
 31 22  1  0
 13  8  1  0
M  END
>  <cnnaffinities>  (34) 
[4.37305]

>  <score>  (34) 
4.37305

>  <index>  (34) 
35

>  <Smiles>  (34) 
O=C(C(c1c(nc(c2c(c(c(c(c12)[H])[H])[H])[H])[H])[H])([H])[H])N1C(C(C(C(F)(F)F)(C(C1([H])[H])([H])[H])[H])([H])[H])([H])[H]

>  <h>  (34) 
<NA>

>  <Training>  (34) 
True

>  <Success>  (34) 
True

>  <enamine_searched>  (34) 
False

>  <enamine_id>  (34) 
nan

$$$$

     RDKit          3D

 47 50  0  0  0  0  0  0  0  0999 V2000
   -6.0884   -3.4678  -21.2161 O   0  0  0  0  0  0  0  0  0  0  0  0
   -6.6444   -2.6589  -21.9375 C   0  0  0  0  0  0  0  0  0  0  0  0
   -7.3858   -1.4619  -21.2928 C   0  0  0  0  0  0  0  0  0  0  0  0
   -6.5776   -0.8249  -20.1814 C   0  0  0  0  0  0  0  0  0  0  0  0
   -6.8720   -1.0486  -18.8614 C   0  0  0  0  0  0  0  0  0  0  0  0
   -6.1862   -0.5466  -17.7969 N   0  0  0  0  0  0  0  0  0  0  0  0
   -5.1577    0.2211  -18.0627 C   0  0  0  0  0  0  0  0  0  0  0  0
   -4.7230    0.5373  -19.3769 C   0  0  0  0  0  0  0  0  0  0  0  0
   -3.5936    1.3609  -19.6171 C   0  0  0  0  0  0  0  0  0  0  0  0
   -3.2045    1.6574  -20.8950 C   0  0  0  0  0  0  0  0  0  0  0  0
   -3.9466    1.1526  -21.9844 C   0  0  0  0  0  0  0  0  0  0  0  0
   -5.0328    0.3363  -21.7810 C   0  0  0  0  0  0  0  0  0  0  0  0
   -5.4544    0.0064  -20.4692 C   0  0  0  0  0  0  0  0  0  0  0  0
   -5.5370   -0.1035  -22.6373 H   0  0  0  0  0  0  0  0  0  0  0  0
   -3.6017    1.3367  -22.9964 H   0  0  0  0  0  0  0  0  0  0  0  0
   -2.3310    2.2760  -21.0853 H   0  0  0  0  0  0  0  0  0  0  0  0
   -3.0546    1.7682  -18.7653 H   0  0  0  0  0  0  0  0  0  0  0  0
   -4.6047    0.6276  -17.2133 H   0  0  0  0  0  0  0  0  0  0  0  0
   -7.7207   -1.6707  -18.5841 H   0  0  0  0  0  0  0  0  0  0  0  0
   -8.3107   -1.8634  -20.8624 H   0  0  0  0  0  0  0  0  0  0  0  0
   -7.6896   -0.7100  -22.0295 H   0  0  0  0  0  0  0  0  0  0  0  0
   -6.6113   -2.7871  -23.3151 N   0  0  0  0  0  0  0  0  0  0  0  0
   -5.5575   -3.6024  -23.9114 C   0  0  0  0  0  0  0  0  0  0  0  0
   -6.0972   -4.6262  -24.9081 C   0  0  0  0  0  0  0  0  0  0  0  0
   -7.0955   -4.0159  -25.9087 C   0  0  0  0  0  0  0  0  0  0  0  0
   -7.2795   -2.5178  -25.6768 C   0  0  0  0  0  0  0  0  0  0  0  0
   -7.5720   -2.1514  -24.2120 C   0  0  1  0  0  0  0  0  0  0  0  0
   -9.0184   -2.4572  -23.8368 C   0  0  0  0  0  0  0  0  0  0  0  0
   -9.4053   -3.7234  -23.3985 C   0  0  0  0  0  0  0  0  0  0  0  0
  -10.7327   -3.9921  -23.0814 C   0  0  0  0  0  0  0  0  0  0  0  0
  -11.7011   -3.0001  -23.2082 C   0  0  0  0  0  0  0  0  0  0  0  0
  -11.3331   -1.7437  -23.6808 C   0  0  0  0  0  0  0  0  0  0  0  0
  -10.0018   -1.4782  -23.9960 C   0  0  0  0  0  0  0  0  0  0  0  0
   -9.7314   -0.4906  -24.3655 H   0  0  0  0  0  0  0  0  0  0  0  0
  -12.0833   -0.9665  -23.7986 H   0  0  0  0  0  0  0  0  0  0  0  0
  -12.7382   -3.2182  -22.9692 H   0  0  0  0  0  0  0  0  0  0  0  0
  -11.0051   -4.9844  -22.7346 H   0  0  0  0  0  0  0  0  0  0  0  0
   -8.6612   -4.5077  -23.2924 H   0  0  0  0  0  0  0  0  0  0  0  0
   -7.4424   -1.0640  -24.1364 H   0  0  0  0  0  0  0  0  0  0  0  0
   -6.4023   -1.9661  -26.0297 H   0  0  0  0  0  0  0  0  0  0  0  0
   -8.1055   -2.1547  -26.2893 H   0  0  0  0  0  0  0  0  0  0  0  0
   -8.0671   -4.5159  -25.8212 H   0  0  0  0  0  0  0  0  0  0  0  0
   -6.7653   -4.1823  -26.9396 H   0  0  0  0  0  0  0  0  0  0  0  0
   -5.2519   -5.0744  -25.4380 H   0  0  0  0  0  0  0  0  0  0  0  0
   -6.5705   -5.4448  -24.3600 H   0  0  0  0  0  0  0  0  0  0  0  0
   -4.8316   -2.9445  -24.4102 H   0  0  0  0  0  0  0  0  0  0  0  0
   -5.0319   -4.0972  -23.0986 H   0  0  0  0  0  0  0  0  0  0  0  0
  1  2  2  0
  2  3  1  0
  3  4  1  0
  4  5  2  0
  5  6  1  0
  6  7  2  0
  7  8  1  0
  8  9  2  0
  9 10  1  0
 10 11  2  0
 11 12  1  0
 12 13  2  0
 12 14  1  0
 11 15  1  0
 10 16  1  0
  9 17  1  0
  7 18  1  0
  5 19  1  0
  3 20  1  0
  3 21  1  0
  2 22  1  0
 22 23  1  0
 23 24  1  0
 24 25  1  0
 25 26  1  0
 26 27  1  0
 27 28  1  0
 28 29  2  0
 29 30  1  0
 30 31  2  0
 31 32  1  0
 32 33  2  0
 33 34  1  0
 32 35  1  0
 31 36  1  0
 30 37  1  0
 29 38  1  0
 27 39  1  6
 26 40  1  0
 26 41  1  0
 25 42  1  0
 25 43  1  0
 24 44  1  0
 24 45  1  0
 23 46  1  0
 23 47  1  0
 13  4  1  0
 27 22  1  0
 33 28  1  0
 13  8  1  0
M  END
>  <cnnaffinities>  (35) 
[5.42891, 5.42188, 5.02937, 5.03553, 5.05151, 5.05028, 5.34476, 5.34439]

>  <score>  (35) 
5.42891

>  <index>  (35) 
36

>  <Smiles>  (35) 
O=C(C(c1c(nc(c2c(c(c(c(c12)[H])[H])[H])[H])[H])[H])([H])[H])N1C(C(C(C([C@]1(c1c(c(c(c(c1[H])[H])[H])[H])[H])[H])([H])[H])([H])[H])([H])[H])([H])[H]

>  <h>  (35) 
<NA>

>  <Training>  (35) 
True

>  <Success>  (35) 
True

>  <enamine_searched>  (35) 
False

>  <enamine_id>  (35) 
nan

$$$$

     RDKit          3D

 56 60  0  0  0  0  0  0  0  0999 V2000
   -7.3096    3.4469  -21.8899 C   0  0  0  0  0  0  0  0  0  0  0  0
   -8.1441    2.9737  -22.9809 N   0  0  0  0  0  0  0  0  0  0  0  0
   -7.5736    2.2591  -23.9794 C   0  0  0  0  0  0  0  0  0  0  0  0
   -6.3604    2.1265  -24.0816 O   0  0  0  0  0  0  0  0  0  0  0  0
   -8.5253    1.6357  -25.0081 C   0  0  0  0  0  0  0  0  0  0  0  0
   -9.2739    0.5003  -24.5011 N   0  0  0  0  0  0  0  0  0  0  0  0
   -8.5724   -0.7559  -24.3039 C   0  0  0  0  0  0  0  0  0  0  0  0
   -8.9878   -1.4543  -22.9837 C   0  0  2  0  0  0  0  0  0  0  0  0
   -8.4392   -0.6646  -21.7645 C   0  0  0  0  0  0  0  0  0  0  0  0
   -8.8364    0.4022  -21.3415 O   0  0  0  0  0  0  0  0  0  0  0  0
   -7.4064   -1.3757  -21.2010 N   0  0  0  0  0  0  0  0  0  0  0  0
   -6.6073   -0.8039  -20.1715 C   0  0  0  0  0  0  0  0  0  0  0  0
   -6.9075   -1.0476  -18.8583 C   0  0  0  0  0  0  0  0  0  0  0  0
   -6.2027   -0.5593  -17.8071 N   0  0  0  0  0  0  0  0  0  0  0  0
   -5.1700    0.2044  -18.0734 C   0  0  0  0  0  0  0  0  0  0  0  0
   -4.7399    0.5429  -19.3875 C   0  0  0  0  0  0  0  0  0  0  0  0
   -3.6108    1.3756  -19.6302 C   0  0  0  0  0  0  0  0  0  0  0  0
   -3.2314    1.6809  -20.9087 C   0  0  0  0  0  0  0  0  0  0  0  0
   -3.9710    1.1784  -22.0012 C   0  0  0  0  0  0  0  0  0  0  0  0
   -5.0607    0.3647  -21.7932 C   0  0  0  0  0  0  0  0  0  0  0  0
   -5.4842    0.0291  -20.4794 C   0  0  0  0  0  0  0  0  0  0  0  0
   -5.5842   -0.0556  -22.6478 H   0  0  0  0  0  0  0  0  0  0  0  0
   -3.6657    1.3966  -23.0192 H   0  0  0  0  0  0  0  0  0  0  0  0
   -2.3593    2.3030  -21.0913 H   0  0  0  0  0  0  0  0  0  0  0  0
   -3.0674    1.7646  -18.7723 H   0  0  0  0  0  0  0  0  0  0  0  0
   -4.6210    0.6091  -17.2219 H   0  0  0  0  0  0  0  0  0  0  0  0
   -7.7616   -1.6709  -18.6038 H   0  0  0  0  0  0  0  0  0  0  0  0
   -7.0844   -2.6111  -21.8859 C   0  0  0  0  0  0  0  0  0  0  0  0
   -8.2901   -2.8504  -22.8231 C   0  0  2  0  0  0  0  0  0  0  0  0
   -7.8859   -3.5904  -24.1046 C   0  0  0  0  0  0  0  0  0  0  0  0
   -7.1146   -3.0391  -24.6557 H   0  0  0  0  0  0  0  0  0  0  0  0
   -7.4701   -4.5750  -23.8648 H   0  0  0  0  0  0  0  0  0  0  0  0
   -8.7356   -3.7449  -24.7785 H   0  0  0  0  0  0  0  0  0  0  0  0
   -9.0057   -3.4787  -22.2876 H   0  0  0  0  0  0  0  0  0  0  0  0
   -6.1481   -2.5129  -22.4581 H   0  0  0  0  0  0  0  0  0  0  0  0
   -6.9435   -3.4260  -21.1640 H   0  0  0  0  0  0  0  0  0  0  0  0
  -10.5096   -1.4657  -22.9144 C   0  0  0  0  0  0  0  0  0  0  0  0
  -11.1699   -2.3053  -22.0117 C   0  0  0  0  0  0  0  0  0  0  0  0
  -12.5516   -2.3101  -21.9175 C   0  0  0  0  0  0  0  0  0  0  0  0
  -13.3132   -1.4471  -22.7110 C   0  0  0  0  0  0  0  0  0  0  0  0
  -12.6769   -0.5578  -23.5557 C   0  0  0  0  0  0  0  0  0  0  0  0
  -11.2834   -0.5421  -23.6300 C   0  0  0  0  0  0  0  0  0  0  0  0
  -10.6381    0.5728  -24.4002 C   0  0  0  0  0  0  0  0  0  0  0  0
  -11.3000    1.4978  -24.8555 O   0  0  0  0  0  0  0  0  0  0  0  0
  -13.2143    0.1726  -24.1523 H   0  0  0  0  0  0  0  0  0  0  0  0
  -14.3960   -1.4461  -22.6406 H   0  0  0  0  0  0  0  0  0  0  0  0
  -13.0390   -2.9772  -21.2130 H   0  0  0  0  0  0  0  0  0  0  0  0
  -10.5970   -2.9491  -21.3503 H   0  0  0  0  0  0  0  0  0  0  0  0
   -8.7695   -1.4425  -25.1434 H   0  0  0  0  0  0  0  0  0  0  0  0
   -7.5021   -0.5262  -24.2741 H   0  0  0  0  0  0  0  0  0  0  0  0
   -7.8896    1.3375  -25.8510 H   0  0  0  0  0  0  0  0  0  0  0  0
   -9.2818    2.3454  -25.3507 H   0  0  0  0  0  0  0  0  0  0  0  0
   -9.1413    2.9168  -22.8511 H   0  0  0  0  0  0  0  0  0  0  0  0
   -6.7477    2.6107  -21.4465 H   0  0  0  0  0  0  0  0  0  0  0  0
   -6.5845    4.1858  -22.2499 H   0  0  0  0  0  0  0  0  0  0  0  0
   -7.9580    3.9151  -21.1467 H   0  0  0  0  0  0  0  0  0  0  0  0
  1  2  1  0
  2  3  1  0
  3  4  2  0
  3  5  1  0
  5  6  1  0
  6  7  1  0
  8  7  1  6
  8  9  1  0
  9 10  2  0
  9 11  1  0
 11 12  1  0
 12 13  2  0
 13 14  1  0
 14 15  2  0
 15 16  1  0
 16 17  2  0
 17 18  1  0
 18 19  2  0
 19 20  1  0
 20 21  2  0
 20 22  1  0
 19 23  1  0
 18 24  1  0
 17 25  1  0
 15 26  1  0
 13 27  1  0
 11 28  1  0
 28 29  1  0
 29 30  1  0
 30 31  1  0
 30 32  1  0
 30 33  1  0
 29 34  1  1
 28 35  1  0
 28 36  1  0
  8 37  1  0
 37 38  2  0
 38 39  1  0
 39 40  2  0
 40 41  1  0
 41 42  2  0
 42 43  1  0
 43 44  2  0
 41 45  1  0
 40 46  1  0
 39 47  1  0
 38 48  1  0
  7 49  1  0
  7 50  1  0
  5 51  1  0
  5 52  1  0
  2 53  1  0
  1 54  1  0
  1 55  1  0
  1 56  1  0
 43  6  1  0
 29  8  1  0
 42 37  1  0
 21 12  1  0
 21 16  1  0
M  END
>  <cnnaffinities>  (36) 
[6.16519]

>  <score>  (36) 
6.16519

>  <index>  (36) 
37

>  <Smiles>  (36) 
C(N(C(=O)C(N1C([C@@]2(C(=O)N(c3c(nc(c4c(c(c(c(c34)[H])[H])[H])[H])[H])[H])C([C@@]2(C([H])([H])[H])[H])([H])[H])c2c(c(c(c(c2C1=O)[H])[H])[H])[H])([H])[H])([H])[H])[H])([H])([H])[H]

>  <h>  (36) 
<NA>

>  <Training>  (36) 
True

>  <Success>  (36) 
True

>  <enamine_searched>  (36) 
False

>  <enamine_id>  (36) 
nan

$$$$

     RDKit          3D

 46 48  0  0  0  0  0  0  0  0999 V2000
   -8.1588   -4.6955  -26.5419 C   0  0  0  0  0  0  0  0  0  0  0  0
   -8.6490   -4.9634  -25.1178 C   0  0  1  0  0  0  0  0  0  0  0  0
   -7.5867   -5.5274  -24.1824 C   0  0  0  0  0  0  0  0  0  0  0  0
   -6.6132   -4.5198  -23.5540 C   0  0  1  0  0  0  0  0  0  0  0  0
   -5.4108   -4.1611  -24.4399 C   0  0  0  0  0  0  0  0  0  0  0  0
   -4.6068   -3.7388  -23.8293 H   0  0  0  0  0  0  0  0  0  0  0  0
   -5.6623   -3.4326  -25.2133 H   0  0  0  0  0  0  0  0  0  0  0  0
   -5.0141   -5.0549  -24.9389 H   0  0  0  0  0  0  0  0  0  0  0  0
   -7.3186   -3.3364  -23.0107 N   0  0  0  0  0  0  0  0  0  0  0  0
   -6.7218   -2.7017  -21.9368 C   0  0  0  0  0  0  0  0  0  0  0  0
   -5.6778   -3.1197  -21.4586 O   0  0  0  0  0  0  0  0  0  0  0  0
   -7.4071   -1.4694  -21.2805 C   0  0  0  0  0  0  0  0  0  0  0  0
   -6.5792   -0.8337  -20.1844 C   0  0  0  0  0  0  0  0  0  0  0  0
   -6.8720   -1.0487  -18.8632 C   0  0  0  0  0  0  0  0  0  0  0  0
   -6.1876   -0.5463  -17.7987 N   0  0  0  0  0  0  0  0  0  0  0  0
   -5.1589    0.2212  -18.0630 C   0  0  0  0  0  0  0  0  0  0  0  0
   -4.7222    0.5323  -19.3785 C   0  0  0  0  0  0  0  0  0  0  0  0
   -3.5936    1.3593  -19.6193 C   0  0  0  0  0  0  0  0  0  0  0  0
   -3.1997    1.6510  -20.8964 C   0  0  0  0  0  0  0  0  0  0  0  0
   -3.9388    1.1429  -21.9868 C   0  0  0  0  0  0  0  0  0  0  0  0
   -5.0238    0.3235  -21.7801 C   0  0  0  0  0  0  0  0  0  0  0  0
   -5.4505   -0.0065  -20.4706 C   0  0  0  0  0  0  0  0  0  0  0  0
   -5.5303   -0.1182  -22.6336 H   0  0  0  0  0  0  0  0  0  0  0  0
   -3.5894    1.3245  -22.9979 H   0  0  0  0  0  0  0  0  0  0  0  0
   -2.3280    2.2729  -21.0866 H   0  0  0  0  0  0  0  0  0  0  0  0
   -3.0535    1.7709  -18.7686 H   0  0  0  0  0  0  0  0  0  0  0  0
   -4.6029    0.6281  -17.2148 H   0  0  0  0  0  0  0  0  0  0  0  0
   -7.7204   -1.6713  -18.5868 H   0  0  0  0  0  0  0  0  0  0  0  0
   -7.6711   -0.7105  -22.0293 H   0  0  0  0  0  0  0  0  0  0  0  0
   -8.3587   -1.8072  -20.8466 H   0  0  0  0  0  0  0  0  0  0  0  0
   -8.4005   -2.7212  -23.7880 C   0  0  1  0  0  0  0  0  0  0  0  0
   -7.9399   -1.6596  -24.7994 C   0  0  0  0  0  0  0  0  0  0  0  0
   -7.4435   -2.0867  -25.6749 H   0  0  0  0  0  0  0  0  0  0  0  0
   -8.7982   -1.0828  -25.1705 H   0  0  0  0  0  0  0  0  0  0  0  0
   -7.2445   -0.9502  -24.3423 H   0  0  0  0  0  0  0  0  0  0  0  0
   -9.3102   -3.7792  -24.4180 C   0  0  0  0  0  0  0  0  0  0  0  0
   -9.9821   -4.1657  -23.6424 H   0  0  0  0  0  0  0  0  0  0  0  0
   -9.9245   -3.2499  -25.1425 H   0  0  0  0  0  0  0  0  0  0  0  0
   -9.0331   -2.1953  -23.0656 H   0  0  0  0  0  0  0  0  0  0  0  0
   -6.1932   -5.0217  -22.6812 H   0  0  0  0  0  0  0  0  0  0  0  0
   -8.0909   -6.0582  -23.3680 H   0  0  0  0  0  0  0  0  0  0  0  0
   -7.0117   -6.2914  -24.7147 H   0  0  0  0  0  0  0  0  0  0  0  0
   -9.4276   -5.7355  -25.2239 H   0  0  0  0  0  0  0  0  0  0  0  0
   -7.9251   -5.6401  -27.0466 H   0  0  0  0  0  0  0  0  0  0  0  0
   -8.9315   -4.1952  -27.1373 H   0  0  0  0  0  0  0  0  0  0  0  0
   -7.2562   -4.0817  -26.5825 H   0  0  0  0  0  0  0  0  0  0  0  0
  1  2  1  0
  2  3  1  0
  3  4  1  0
  4  5  1  0
  5  6  1  0
  5  7  1  0
  5  8  1  0
  4  9  1  0
  9 10  1  0
 10 11  2  0
 10 12  1  0
 12 13  1  0
 13 14  2  0
 14 15  1  0
 15 16  2  0
 16 17  1  0
 17 18  2  0
 18 19  1  0
 19 20  2  0
 20 21  1  0
 21 22  2  0
 21 23  1  0
 20 24  1  0
 19 25  1  0
 18 26  1  0
 16 27  1  0
 14 28  1  0
 12 29  1  0
 12 30  1  0
  9 31  1  0
 31 32  1  0
 32 33  1  0
 32 34  1  0
 32 35  1  0
 31 36  1  0
 36 37  1  0
 36 38  1  0
 31 39  1  1
  4 40  1  1
  3 41  1  0
  3 42  1  0
  2 43  1  6
  1 44  1  0
  1 45  1  0
  1 46  1  0
 36  2  1  0
 22 13  1  0
 22 17  1  0
M  END
>  <cnnaffinities>  (37) 
[5.21846, 5.40938]

>  <score>  (37) 
5.21846

>  <index>  (37) 
38

>  <Smiles>  (37) 
C([C@]1(C([C@@](C([H])([H])[H])(N(C(=O)C(c2c(nc(c3c(c(c(c(c23)[H])[H])[H])[H])[H])[H])([H])[H])[C@@](C([H])([H])[H])(C1([H])[H])[H])[H])([H])[H])[H])([H])([H])[H]

>  <h>  (37) 
<NA>

>  <Training>  (37) 
True

>  <Success>  (37) 
True

>  <enamine_searched>  (37) 
False

>  <enamine_id>  (37) 
nan

$$$$

     RDKit          3D

 40 44  0  0  0  0  0  0  0  0999 V2000
   -7.2397    0.9258  -25.5975 C   0  0  0  0  0  0  0  0  0  0  0  0
   -6.5118   -0.3956  -25.4081 C   0  0  0  0  0  0  0  0  0  0  0  0
   -5.3011   -0.5085  -25.5381 O   0  0  0  0  0  0  0  0  0  0  0  0
   -7.2725   -1.4754  -25.0906 N   0  0  0  0  0  0  0  0  0  0  0  0
   -6.6335   -2.7641  -24.7426 C   0  0  0  0  0  0  0  0  0  0  0  0
   -7.8054   -3.4852  -24.0498 C   0  0  2  0  0  0  0  0  0  0  0  0
   -9.0023   -2.9597  -24.8589 C   0  0  0  0  0  0  0  0  0  0  0  0
   -8.6589   -1.4855  -24.5586 C   0  0  1  0  0  0  0  0  0  0  0  0
   -8.5622   -1.5458  -23.0905 C   0  0  0  0  0  0  0  0  0  0  0  0
   -8.1684   -0.6098  -22.0792 C   0  0  0  0  0  0  0  0  0  0  0  0
   -8.3601    0.5780  -21.9709 O   0  0  0  0  0  1  0  0  0  0  0  0
   -7.4007   -1.3869  -21.1792 N   0  0  0  0  0  0  0  0  0  0  0  0
   -6.5832   -0.8218  -20.1671 C   0  0  0  0  0  0  0  0  0  0  0  0
   -6.8899   -1.0663  -18.8551 C   0  0  0  0  0  0  0  0  0  0  0  0
   -6.1983   -0.5602  -17.8084 N   0  0  0  0  0  0  0  0  0  0  0  0
   -5.1699    0.2079  -18.0767 C   0  0  0  0  0  0  0  0  0  0  0  0
   -4.7386    0.5419  -19.3926 C   0  0  0  0  0  0  0  0  0  0  0  0
   -3.6054    1.3715  -19.6191 C   0  0  0  0  0  0  0  0  0  0  0  0
   -3.2137    1.6773  -20.8933 C   0  0  0  0  0  0  0  0  0  0  0  0
   -3.9417    1.1676  -21.9903 C   0  0  0  0  0  0  0  0  0  0  0  0
   -5.0247    0.3450  -21.7987 C   0  0  0  0  0  0  0  0  0  0  0  0
   -5.4682    0.0239  -20.4828 C   0  0  0  0  0  0  0  0  0  0  0  0
   -5.4888   -0.1165  -22.6680 H   0  0  0  0  0  0  0  0  0  0  0  0
   -3.6028    1.3556  -23.0055 H   0  0  0  0  0  0  0  0  0  0  0  0
   -2.3276    2.2814  -21.0727 H   0  0  0  0  0  0  0  0  0  0  0  0
   -3.0691    1.7521  -18.7556 H   0  0  0  0  0  0  0  0  0  0  0  0
   -4.6292    0.6148  -17.2240 H   0  0  0  0  0  0  0  0  0  0  0  0
   -7.7435   -1.6919  -18.6040 H   0  0  0  0  0  0  0  0  0  0  0  0
   -7.2419   -2.7030  -21.6389 C   0  0  0  0  0  0  0  0  0  0  0  0
   -6.5164   -3.5476  -21.1783 O   0  0  0  0  0  0  0  0  0  0  0  0
   -8.0604   -2.7784  -22.7650 N   0  0  0  0  0  0  0  0  0  0  0  0
   -9.2736   -0.6874  -24.9796 H   0  0  0  0  0  0  0  0  0  0  0  0
   -9.9538   -3.2744  -24.4388 H   0  0  0  0  0  0  0  0  0  0  0  0
   -8.9324   -3.1948  -25.9236 H   0  0  0  0  0  0  0  0  0  0  0  0
   -7.6936   -4.5530  -23.9031 H   0  0  0  0  0  0  0  0  0  0  0  0
   -5.7886   -2.6146  -24.0606 H   0  0  0  0  0  0  0  0  0  0  0  0
   -6.2874   -3.2689  -25.6482 H   0  0  0  0  0  0  0  0  0  0  0  0
   -6.4879    1.6548  -25.9014 H   0  0  0  0  0  0  0  0  0  0  0  0
   -7.7251    1.2456  -24.6681 H   0  0  0  0  0  0  0  0  0  0  0  0
   -8.0222    0.8558  -26.3629 H   0  0  0  0  0  0  0  0  0  0  0  0
  1  2  1  0
  2  3  2  0
  2  4  1  0
  4  5  1  0
  5  6  1  0
  6  7  1  0
  7  8  1  0
  8  9  1  0
  9 10  2  0
 10 11  1  0
 10 12  1  0
 12 13  1  0
 13 14  2  0
 14 15  1  0
 15 16  2  0
 16 17  1  0
 17 18  2  0
 18 19  1  0
 19 20  2  0
 20 21  1  0
 21 22  2  0
 21 23  1  0
 20 24  1  0
 19 25  1  0
 18 26  1  0
 16 27  1  0
 14 28  1  0
 12 29  1  0
 29 30  2  0
 29 31  1  0
  8 32  1  1
  7 33  1  0
  7 34  1  0
  6 35  1  1
  5 36  1  0
  5 37  1  0
  1 38  1  0
  1 39  1  0
  1 40  1  0
  8  4  1  0
 31  9  1  0
 31  6  1  0
 22 13  1  0
 22 17  1  0
M  CHG  1  11  -1
M  END
>  <cnnaffinities>  (38) 
[4.95841]

>  <score>  (38) 
4.95841

>  <index>  (38) 
39

>  <Smiles>  (38) 
C(C(=O)N1C([C@@]2(C([C@]1(c1c([O-])n(c3c(nc(c4c(c(c(c(c34)[H])[H])[H])[H])[H])[H])c(=O)n21)[H])([H])[H])[H])([H])[H])([H])([H])[H]

>  <h>  (38) 
<NA>

>  <Training>  (38) 
True

>  <Success>  (38) 
True

>  <enamine_searched>  (38) 
False

>  <enamine_id>  (38) 
nan

$$$$

     RDKit          3D

 40 42  0  0  0  0  0  0  0  0999 V2000
  -10.2680   -6.4028  -23.5583 C   0  0  0  0  0  0  0  0  0  0  0  0
   -8.9245   -5.7141  -23.8400 C   0  0  0  0  0  0  0  0  0  0  0  0
   -7.9971   -5.9649  -22.6414 C   0  0  0  0  0  0  0  0  0  0  0  0
   -6.8492   -4.9742  -22.5863 C   0  0  0  0  0  0  0  0  0  0  0  0
   -7.4219   -3.6509  -22.3527 N   0  0  0  0  0  0  0  0  0  0  0  0
   -6.6695   -2.7566  -21.6587 C   0  0  0  0  0  0  0  0  0  0  0  0
   -5.5013   -2.9762  -21.3772 O   0  0  0  0  0  0  0  0  0  0  0  0
   -7.3815   -1.4697  -21.2306 C   0  0  0  0  0  0  0  0  0  0  0  0
   -6.6137   -0.7893  -20.1523 C   0  0  0  0  0  0  0  0  0  0  0  0
   -6.9027   -1.0636  -18.8452 C   0  0  0  0  0  0  0  0  0  0  0  0
   -6.2278   -0.5748  -17.7760 N   0  0  0  0  0  0  0  0  0  0  0  0
   -5.1998    0.1985  -18.0363 C   0  0  0  0  0  0  0  0  0  0  0  0
   -4.7663    0.5427  -19.3452 C   0  0  0  0  0  0  0  0  0  0  0  0
   -3.6440    1.3744  -19.5767 C   0  0  0  0  0  0  0  0  0  0  0  0
   -3.2834    1.7142  -20.8519 C   0  0  0  0  0  0  0  0  0  0  0  0
   -4.0254    1.2338  -21.9506 C   0  0  0  0  0  0  0  0  0  0  0  0
   -5.0969    0.3991  -21.7570 C   0  0  0  0  0  0  0  0  0  0  0  0
   -5.5005    0.0432  -20.4442 C   0  0  0  0  0  0  0  0  0  0  0  0
   -5.6151   -0.0132  -22.6167 H   0  0  0  0  0  0  0  0  0  0  0  0
   -3.7301    1.5108  -22.9576 H   0  0  0  0  0  0  0  0  0  0  0  0
   -2.4316    2.3623  -21.0257 H   0  0  0  0  0  0  0  0  0  0  0  0
   -3.0929    1.7536  -18.7218 H   0  0  0  0  0  0  0  0  0  0  0  0
   -4.6508    0.5866  -17.1788 H   0  0  0  0  0  0  0  0  0  0  0  0
   -7.7380   -1.7246  -18.6118 H   0  0  0  0  0  0  0  0  0  0  0  0
   -8.3859   -1.7243  -20.8660 H   0  0  0  0  0  0  0  0  0  0  0  0
   -7.4992   -0.8225  -22.1079 H   0  0  0  0  0  0  0  0  0  0  0  0
   -8.7820   -3.3804  -22.8101 C   0  0  0  0  0  0  0  0  0  0  0  0
   -9.0936   -4.1940  -24.0612 C   0  0  0  0  0  0  0  0  0  0  0  0
   -8.4706   -3.8225  -24.8855 H   0  0  0  0  0  0  0  0  0  0  0  0
  -10.1215   -3.9946  -24.3635 H   0  0  0  0  0  0  0  0  0  0  0  0
   -8.8916   -2.3179  -23.0454 H   0  0  0  0  0  0  0  0  0  0  0  0
   -9.5246   -3.6017  -22.0271 H   0  0  0  0  0  0  0  0  0  0  0  0
   -6.1719   -5.2226  -21.7640 H   0  0  0  0  0  0  0  0  0  0  0  0
   -6.2324   -4.9666  -23.4994 H   0  0  0  0  0  0  0  0  0  0  0  0
   -7.6133   -6.9893  -22.6594 H   0  0  0  0  0  0  0  0  0  0  0  0
   -8.5646   -5.8453  -21.7013 H   0  0  0  0  0  0  0  0  0  0  0  0
   -8.4535   -6.1246  -24.7506 H   0  0  0  0  0  0  0  0  0  0  0  0
  -10.9663   -6.2957  -24.3984 H   0  0  0  0  0  0  0  0  0  0  0  0
  -10.7104   -5.9354  -22.6581 H   0  0  0  0  0  0  0  0  0  0  0  0
  -10.1351   -7.4781  -23.3584 H   0  0  0  0  0  0  0  0  0  0  0  0
  1  2  1  0
  2  3  1  0
  3  4  1  0
  4  5  1  0
  5  6  1  0
  6  7  2  0
  6  8  1  0
  8  9  1  0
  9 10  2  0
 10 11  1  0
 11 12  2  0
 12 13  1  0
 13 14  2  0
 14 15  1  0
 15 16  2  0
 16 17  1  0
 17 18  2  0
 17 19  1  0
 16 20  1  0
 15 21  1  0
 14 22  1  0
 12 23  1  0
 10 24  1  0
  8 25  1  0
  8 26  1  0
  5 27  1  0
 27 28  1  0
 28 29  1  0
 28 30  1  0
 27 31  1  0
 27 32  1  0
  4 33  1  0
  4 34  1  0
  3 35  1  0
  3 36  1  0
  2 37  1  0
  1 38  1  0
  1 39  1  0
  1 40  1  0
 28  2  1  0
 18  9  1  0
 18 13  1  0
M  END
>  <cnnaffinities>  (39) 
[4.03723, 4.03939, 4.48704, 4.48712]

>  <score>  (39) 
4.03723

>  <index>  (39) 
40

>  <Smiles>  (39) 
C(C1(C(C(N(C(=O)C(c2c(nc(c3c(c(c(c(c23)[H])[H])[H])[H])[H])[H])([H])[H])C(C1([H])[H])([H])[H])([H])[H])([H])[H])[H])([H])([H])[H]

>  <h>  (39) 
<NA>

>  <Training>  (39) 
True

>  <Success>  (39) 
True

>  <enamine_searched>  (39) 
False

>  <enamine_id>  (39) 
nan

$$$$

     RDKit          3D

 67 71  0  0  0  0  0  0  0  0999 V2000
   -6.8635    3.3851  -23.2707 C   0  0  0  0  0  0  0  0  0  0  0  0
   -7.5617    2.5807  -24.2438 N   0  0  0  0  0  0  0  0  0  0  0  0
   -6.9308    1.5598  -24.8546 C   0  0  0  0  0  0  0  0  0  0  0  0
   -5.7355    1.3173  -24.7361 O   0  0  0  0  0  0  0  0  0  0  0  0
   -7.8533    0.6808  -25.7035 C   0  0  0  0  0  0  0  0  0  0  0  0
   -8.8439    0.0248  -24.8705 N   0  0  0  0  0  0  0  0  0  0  0  0
   -8.5481   -1.2927  -24.3294 C   0  0  0  0  0  0  0  0  0  0  0  0
   -9.1037   -1.4691  -22.8884 C   0  0  2  0  0  0  0  0  0  0  0  0
   -8.3271   -0.5368  -21.9305 C   0  0  0  0  0  0  0  0  0  0  0  0
   -8.4429    0.6650  -21.7970 O   0  0  0  0  0  0  0  0  0  0  0  0
   -7.4377   -1.3004  -21.2157 N   0  0  0  0  0  0  0  0  0  0  0  0
   -6.6417   -0.7564  -20.1868 C   0  0  0  0  0  0  0  0  0  0  0  0
   -6.9199   -1.0688  -18.8794 C   0  0  0  0  0  0  0  0  0  0  0  0
   -6.2289   -0.5971  -17.8161 N   0  0  0  0  0  0  0  0  0  0  0  0
   -5.2103    0.1886  -18.0760 C   0  0  0  0  0  0  0  0  0  0  0  0
   -4.7926    0.5578  -19.3861 C   0  0  0  0  0  0  0  0  0  0  0  0
   -3.6562    1.3805  -19.6020 C   0  0  0  0  0  0  0  0  0  0  0  0
   -3.2723    1.7188  -20.8703 C   0  0  0  0  0  0  0  0  0  0  0  0
   -4.0127    1.2612  -21.9828 C   0  0  0  0  0  0  0  0  0  0  0  0
   -5.1054    0.4479  -21.8039 C   0  0  0  0  0  0  0  0  0  0  0  0
   -5.5292    0.0820  -20.4929 C   0  0  0  0  0  0  0  0  0  0  0  0
   -5.6358    0.0941  -22.6845 H   0  0  0  0  0  0  0  0  0  0  0  0
   -3.7267    1.5413  -22.9931 H   0  0  0  0  0  0  0  0  0  0  0  0
   -2.3963    2.3398  -21.0288 H   0  0  0  0  0  0  0  0  0  0  0  0
   -3.1085    1.7273  -18.7314 H   0  0  0  0  0  0  0  0  0  0  0  0
   -4.6486    0.5728  -17.2263 H   0  0  0  0  0  0  0  0  0  0  0  0
   -7.7647   -1.7213  -18.6552 H   0  0  0  0  0  0  0  0  0  0  0  0
   -7.4342   -2.6998  -21.5537 C   0  0  0  0  0  0  0  0  0  0  0  0
   -8.7535   -2.8741  -22.3252 C   0  0  2  0  0  0  0  0  0  0  0  0
   -8.6889   -3.9858  -23.3715 C   0  0  0  0  0  0  0  0  0  0  0  0
   -8.5049   -5.5832  -22.5952 S   0  0  0  0  0  0  0  0  0  0  0  0
   -9.5788   -5.7199  -21.6266 O   0  0  0  0  0  0  0  0  0  0  0  0
   -7.1186   -5.7332  -22.1763 O   0  0  0  0  0  0  0  0  0  0  0  0
   -8.7582   -6.6520  -23.8383 N   0  0  0  0  0  0  0  0  0  0  0  0
  -10.1091   -6.8644  -24.3370 C   0  0  0  0  0  0  0  0  0  0  0  0
  -10.4419   -6.1129  -25.0695 H   0  0  0  0  0  0  0  0  0  0  0  0
  -10.8029   -6.8673  -23.5004 H   0  0  0  0  0  0  0  0  0  0  0  0
  -10.1433   -7.8459  -24.8194 H   0  0  0  0  0  0  0  0  0  0  0  0
   -7.6786   -6.8216  -24.7965 C   0  0  0  0  0  0  0  0  0  0  0  0
   -7.8205   -7.7834  -25.2939 H   0  0  0  0  0  0  0  0  0  0  0  0
   -7.6432   -6.0362  -25.5675 H   0  0  0  0  0  0  0  0  0  0  0  0
   -6.7305   -6.8412  -24.2567 H   0  0  0  0  0  0  0  0  0  0  0  0
   -7.8367   -3.8503  -24.0469 H   0  0  0  0  0  0  0  0  0  0  0  0
   -9.6132   -4.0127  -23.9567 H   0  0  0  0  0  0  0  0  0  0  0  0
   -9.5117   -3.1573  -21.5932 H   0  0  0  0  0  0  0  0  0  0  0  0
   -6.5600   -2.9538  -22.1702 H   0  0  0  0  0  0  0  0  0  0  0  0
   -7.3927   -3.3096  -20.6513 H   0  0  0  0  0  0  0  0  0  0  0  0
  -10.5777   -1.1161  -22.9234 C   0  0  0  0  0  0  0  0  0  0  0  0
  -11.5388   -1.7030  -22.0935 C   0  0  0  0  0  0  0  0  0  0  0  0
  -12.8627   -1.3363  -22.2237 C   0  0  0  0  0  0  0  0  0  0  0  0
  -13.7771   -1.9600  -21.4609 F   0  0  0  0  0  0  0  0  0  0  0  0
  -13.2929   -0.3807  -23.1359 C   0  0  0  0  0  0  0  0  0  0  0  0
  -12.3341    0.2601  -23.8956 C   0  0  0  0  0  0  0  0  0  0  0  0
  -10.9960   -0.1016  -23.7952 C   0  0  0  0  0  0  0  0  0  0  0  0
   -9.9941    0.6775  -24.5750 C   0  0  0  0  0  0  0  0  0  0  0  0
  -10.1948    1.8564  -24.8973 O   0  0  0  0  0  0  0  0  0  0  0  0
  -12.5791    1.0456  -24.6009 H   0  0  0  0  0  0  0  0  0  0  0  0
  -14.3495   -0.1623  -23.2433 H   0  0  0  0  0  0  0  0  0  0  0  0
  -11.2936   -2.4577  -21.3563 H   0  0  0  0  0  0  0  0  0  0  0  0
   -7.4630   -1.4554  -24.3346 H   0  0  0  0  0  0  0  0  0  0  0  0
   -8.9950   -2.0562  -24.9738 H   0  0  0  0  0  0  0  0  0  0  0  0
   -8.3775    1.2776  -26.4503 H   0  0  0  0  0  0  0  0  0  0  0  0
   -7.2677   -0.0678  -26.2392 H   0  0  0  0  0  0  0  0  0  0  0  0
   -8.5688    2.6608  -24.3588 H   0  0  0  0  0  0  0  0  0  0  0  0
   -6.4789    2.7587  -22.4549 H   0  0  0  0  0  0  0  0  0  0  0  0
   -7.5628    4.1127  -22.8590 H   0  0  0  0  0  0  0  0  0  0  0  0
   -6.0260    3.9032  -23.7462 H   0  0  0  0  0  0  0  0  0  0  0  0
  1  2  1  0
  2  3  1  0
  3  4  2  0
  3  5  1  0
  5  6  1  0
  6  7  1  0
  8  7  1  6
  8  9  1  0
  9 10  2  0
  9 11  1  0
 11 12  1  0
 12 13  2  0
 13 14  1  0
 14 15  2  0
 15 16  1  0
 16 17  2  0
 17 18  1  0
 18 19  2  0
 19 20  1  0
 20 21  2  0
 20 22  1  0
 19 23  1  0
 18 24  1  0
 17 25  1  0
 15 26  1  0
 13 27  1  0
 11 28  1  0
 28 29  1  0
 29 30  1  0
 30 31  1  0
 31 32  2  0
 31 33  2  0
 31 34  1  0
 34 35  1  0
 35 36  1  0
 35 37  1  0
 35 38  1  0
 34 39  1  0
 39 40  1  0
 39 41  1  0
 39 42  1  0
 30 43  1  0
 30 44  1  0
 29 45  1  1
 28 46  1  0
 28 47  1  0
  8 48  1  0
 48 49  2  0
 49 50  1  0
 50 51  1  0
 50 52  2  0
 52 53  1  0
 53 54  2  0
 54 55  1  0
 55 56  2  0
 53 57  1  0
 52 58  1  0
 49 59  1  0
  7 60  1  0
  7 61  1  0
  5 62  1  0
  5 63  1  0
  2 64  1  0
  1 65  1  0
  1 66  1  0
  1 67  1  0
 55  6  1  0
 29  8  1  0
 54 48  1  0
 21 12  1  0
 21 16  1  0
M  END
>  <cnnaffinities>  (40) 
[6.77763]

>  <score>  (40) 
6.77763

>  <index>  (40) 
41

>  <Smiles>  (40) 
C(N(C(=O)C(N1C([C@@]2(C(=O)N(c3c(nc(c4c(c(c(c(c34)[H])[H])[H])[H])[H])[H])C([C@@]2(C(S(=O)(=O)N(C([H])([H])[H])C([H])([H])[H])([H])[H])[H])([H])[H])c2c(c(F)c(c(c2C1=O)[H])[H])[H])([H])[H])([H])[H])[H])([H])([H])[H]

>  <h>  (40) 
<NA>

>  <Training>  (40) 
True

>  <Success>  (40) 
True

>  <enamine_searched>  (40) 
False

>  <enamine_id>  (40) 
nan

$$$$

     RDKit          3D

 67 72  0  0  0  0  0  0  0  0999 V2000
   -7.3824    3.4035  -21.8226 C   0  0  0  0  0  0  0  0  0  0  0  0
   -8.2549    2.9546  -22.8903 N   0  0  0  0  0  0  0  0  0  0  0  0
   -7.6969    2.2482  -23.9059 C   0  0  0  0  0  0  0  0  0  0  0  0
   -6.4877    2.1127  -24.0158 O   0  0  0  0  0  0  0  0  0  0  0  0
   -8.6519    1.6341  -24.9270 C   0  0  0  0  0  0  0  0  0  0  0  0
   -9.3521    0.4841  -24.3977 N   0  0  0  0  0  0  0  0  0  0  0  0
   -8.6269   -0.7594  -24.2297 C   0  0  0  0  0  0  0  0  0  0  0  0
   -9.0276   -1.4970  -22.9307 C   0  0  2  0  0  0  0  0  0  0  0  0
   -8.4997   -0.7246  -21.6985 C   0  0  0  0  0  0  0  0  0  0  0  0
   -8.9559    0.2950  -21.2254 O   0  0  0  0  0  0  0  0  0  0  0  0
   -7.3996   -1.3840  -21.2033 N   0  0  0  0  0  0  0  0  0  0  0  0
   -6.6069   -0.8086  -20.1772 C   0  0  0  0  0  0  0  0  0  0  0  0
   -6.9155   -1.0526  -18.8625 C   0  0  0  0  0  0  0  0  0  0  0  0
   -6.2170   -0.5656  -17.8088 N   0  0  0  0  0  0  0  0  0  0  0  0
   -5.1853    0.2036  -18.0687 C   0  0  0  0  0  0  0  0  0  0  0  0
   -4.7556    0.5442  -19.3844 C   0  0  0  0  0  0  0  0  0  0  0  0
   -3.6274    1.3759  -19.6221 C   0  0  0  0  0  0  0  0  0  0  0  0
   -3.2490    1.6896  -20.9012 C   0  0  0  0  0  0  0  0  0  0  0  0
   -3.9929    1.2041  -22.0003 C   0  0  0  0  0  0  0  0  0  0  0  0
   -5.0787    0.3830  -21.7963 C   0  0  0  0  0  0  0  0  0  0  0  0
   -5.4876    0.0287  -20.4812 C   0  0  0  0  0  0  0  0  0  0  0  0
   -5.6198   -0.0071  -22.6543 H   0  0  0  0  0  0  0  0  0  0  0  0
   -3.6953    1.4472  -23.0150 H   0  0  0  0  0  0  0  0  0  0  0  0
   -2.3790    2.3146  -21.0798 H   0  0  0  0  0  0  0  0  0  0  0  0
   -3.0738    1.7513  -18.7661 H   0  0  0  0  0  0  0  0  0  0  0  0
   -4.6216    0.5956  -17.2211 H   0  0  0  0  0  0  0  0  0  0  0  0
   -7.7769   -1.6717  -18.6210 H   0  0  0  0  0  0  0  0  0  0  0  0
   -7.0422   -2.5809  -21.9319 C   0  0  0  0  0  0  0  0  0  0  0  0
   -8.2907   -2.8644  -22.7872 C   0  0  2  0  0  0  0  0  0  0  0  0
   -7.9321   -3.6302  -24.0738 C   0  0  0  0  0  0  0  0  0  0  0  0
   -7.3857   -4.9322  -23.7718 N   0  0  0  0  0  0  0  0  0  0  0  0
   -6.0626   -5.2769  -23.7954 C   0  0  0  0  0  0  0  0  0  0  0  0
   -4.8131   -4.2315  -24.4153 S   0  0  0  0  0  0  0  0  0  0  0  0
   -3.6559   -5.4624  -23.9960 C   0  0  0  0  0  0  0  0  0  0  0  0
   -4.1458   -6.5341  -23.4680 N   0  0  0  0  0  0  0  0  0  0  0  0
   -5.5207   -6.4531  -23.3575 C   0  0  0  0  0  0  0  0  0  0  0  0
   -6.3093   -7.5958  -22.7867 C   0  0  0  0  0  0  0  0  0  0  0  0
   -7.0255   -8.0221  -23.5031 H   0  0  0  0  0  0  0  0  0  0  0  0
   -6.8729   -7.3114  -21.8876 H   0  0  0  0  0  0  0  0  0  0  0  0
   -5.6160   -8.3890  -22.5052 H   0  0  0  0  0  0  0  0  0  0  0  0
   -2.5996   -5.3057  -24.1808 H   0  0  0  0  0  0  0  0  0  0  0  0
   -8.0347   -5.6550  -23.5038 H   0  0  0  0  0  0  0  0  0  0  0  0
   -8.8187   -3.7558  -24.7084 H   0  0  0  0  0  0  0  0  0  0  0  0
   -7.1906   -3.0684  -24.6489 H   0  0  0  0  0  0  0  0  0  0  0  0
   -8.9527   -3.5145  -22.2109 H   0  0  0  0  0  0  0  0  0  0  0  0
   -6.1533   -2.4166  -22.5583 H   0  0  0  0  0  0  0  0  0  0  0  0
   -6.8092   -3.4040  -21.2481 H   0  0  0  0  0  0  0  0  0  0  0  0
  -10.5457   -1.5410  -22.8701 C   0  0  0  0  0  0  0  0  0  0  0  0
  -11.2009   -2.3723  -21.9537 C   0  0  0  0  0  0  0  0  0  0  0  0
  -12.5823   -2.3196  -21.8337 C   0  0  0  0  0  0  0  0  0  0  0  0
  -13.3545   -3.1908  -20.5408 Cl  0  0  0  0  0  0  0  0  0  0  0  0
  -13.3709   -1.5160  -22.6623 C   0  0  0  0  0  0  0  0  0  0  0  0
  -12.7246   -0.6567  -23.5269 C   0  0  0  0  0  0  0  0  0  0  0  0
  -11.3321   -0.6292  -23.5871 C   0  0  0  0  0  0  0  0  0  0  0  0
  -10.7144    0.5218  -24.3178 C   0  0  0  0  0  0  0  0  0  0  0  0
  -11.3865    1.4464  -24.7517 O   0  0  0  0  0  0  0  0  0  0  0  0
  -13.2637    0.0601  -24.1366 H   0  0  0  0  0  0  0  0  0  0  0  0
  -14.4575   -1.5486  -22.6021 H   0  0  0  0  0  0  0  0  0  0  0  0
  -10.6409   -3.0589  -21.3256 H   0  0  0  0  0  0  0  0  0  0  0  0
   -7.5581   -0.5279  -24.2202 H   0  0  0  0  0  0  0  0  0  0  0  0
   -8.8352   -1.4147  -25.0841 H   0  0  0  0  0  0  0  0  0  0  0  0
   -8.0391    1.3561  -25.7920 H   0  0  0  0  0  0  0  0  0  0  0  0
   -9.4218    2.3514  -25.2197 H   0  0  0  0  0  0  0  0  0  0  0  0
   -9.2268    2.8130  -22.6639 H   0  0  0  0  0  0  0  0  0  0  0  0
   -6.7989    2.5646  -21.4298 H   0  0  0  0  0  0  0  0  0  0  0  0
   -6.6785    4.1421  -22.2026 H   0  0  0  0  0  0  0  0  0  0  0  0
   -7.9640    3.8531  -21.0191 H   0  0  0  0  0  0  0  0  0  0  0  0
  1  2  1  0
  2  3  1  0
  3  4  2  0
  3  5  1  0
  5  6  1  0
  6  7  1  0
  8  7  1  6
  8  9  1  0
  9 10  2  0
  9 11  1  0
 11 12  1  0
 12 13  2  0
 13 14  1  0
 14 15  2  0
 15 16  1  0
 16 17  2  0
 17 18  1  0
 18 19  2  0
 19 20  1  0
 20 21  2  0
 20 22  1  0
 19 23  1  0
 18 24  1  0
 17 25  1  0
 15 26  1  0
 13 27  1  0
 11 28  1  0
 28 29  1  0
 29 30  1  0
 30 31  1  0
 31 32  1  0
 32 33  1  0
 33 34  1  0
 34 35  2  0
 35 36  1  0
 36 37  1  0
 37 38  1  0
 37 39  1  0
 37 40  1  0
 34 41  1  0
 31 42  1  0
 30 43  1  0
 30 44  1  0
 29 45  1  1
 28 46  1  0
 28 47  1  0
  8 48  1  0
 48 49  2  0
 49 50  1  0
 50 51  1  0
 50 52  2  0
 52 53  1  0
 53 54  2  0
 54 55  1  0
 55 56  2  0
 53 57  1  0
 52 58  1  0
 49 59  1  0
  7 60  1  0
  7 61  1  0
  5 62  1  0
  5 63  1  0
  2 64  1  0
  1 65  1  0
  1 66  1  0
  1 67  1  0
 55  6  1  0
 29  8  1  0
 36 32  2  0
 54 48  1  0
 21 12  1  0
 21 16  1  0
M  END
>  <cnnaffinities>  (41) 
[7.07455]

>  <score>  (41) 
7.07455

>  <index>  (41) 
43

>  <Smiles>  (41) 
C(N(C(=O)C(N1C([C@@]2(C(=O)N(c3c(nc(c4c(c(c(c(c34)[H])[H])[H])[H])[H])[H])C([C@@]2(C(N(c2sc(nc2C([H])([H])[H])[H])[H])([H])[H])[H])([H])[H])c2c(c(Cl)c(c(c2C1=O)[H])[H])[H])([H])[H])([H])[H])[H])([H])([H])[H]

>  <h>  (41) 
<NA>

>  <Training>  (41) 
True

>  <Success>  (41) 
True

>  <enamine_searched>  (41) 
False

>  <enamine_id>  (41) 
nan

$$$$

     RDKit          3D

 60 64  0  0  0  0  0  0  0  0999 V2000
   -7.4119    3.3824  -21.7873 C   0  0  0  0  0  0  0  0  0  0  0  0
   -8.2827    2.9250  -22.8511 N   0  0  0  0  0  0  0  0  0  0  0  0
   -7.7135    2.2371  -23.8719 C   0  0  0  0  0  0  0  0  0  0  0  0
   -6.4998    2.1336  -23.9873 O   0  0  0  0  0  0  0  0  0  0  0  0
   -8.6627    1.6169  -24.8973 C   0  0  0  0  0  0  0  0  0  0  0  0
   -9.3864    0.4626  -24.3968 N   0  0  0  0  0  0  0  0  0  0  0  0
   -8.6726   -0.7954  -24.2305 C   0  0  0  0  0  0  0  0  0  0  0  0
   -9.0672   -1.5175  -22.9139 C   0  0  2  0  0  0  0  0  0  0  0  0
   -8.5151   -0.7274  -21.6931 C   0  0  0  0  0  0  0  0  0  0  0  0
   -8.9599    0.2955  -21.2209 O   0  0  0  0  0  0  0  0  0  0  0  0
   -7.4065   -1.3841  -21.2028 N   0  0  0  0  0  0  0  0  0  0  0  0
   -6.6071   -0.8083  -20.1735 C   0  0  0  0  0  0  0  0  0  0  0  0
   -6.9083   -1.0464  -18.8584 C   0  0  0  0  0  0  0  0  0  0  0  0
   -6.2031   -0.5572  -17.8078 N   0  0  0  0  0  0  0  0  0  0  0  0
   -5.1690    0.2042  -18.0735 C   0  0  0  0  0  0  0  0  0  0  0  0
   -4.7370    0.5387  -19.3873 C   0  0  0  0  0  0  0  0  0  0  0  0
   -3.6107    1.3754  -19.6308 C   0  0  0  0  0  0  0  0  0  0  0  0
   -3.2361    1.6850  -20.9096 C   0  0  0  0  0  0  0  0  0  0  0  0
   -3.9775    1.1827  -22.0015 C   0  0  0  0  0  0  0  0  0  0  0  0
   -5.0639    0.3657  -21.7925 C   0  0  0  0  0  0  0  0  0  0  0  0
   -5.4797    0.0225  -20.4791 C   0  0  0  0  0  0  0  0  0  0  0  0
   -5.5965   -0.0464  -22.6448 H   0  0  0  0  0  0  0  0  0  0  0  0
   -3.6731    1.4037  -23.0190 H   0  0  0  0  0  0  0  0  0  0  0  0
   -2.3672    2.3115  -21.0933 H   0  0  0  0  0  0  0  0  0  0  0  0
   -3.0677    1.7672  -18.7744 H   0  0  0  0  0  0  0  0  0  0  0  0
   -4.6205    0.6094  -17.2219 H   0  0  0  0  0  0  0  0  0  0  0  0
   -7.7624   -1.6696  -18.6031 H   0  0  0  0  0  0  0  0  0  0  0  0
   -7.0700   -2.5977  -21.9211 C   0  0  0  0  0  0  0  0  0  0  0  0
   -8.3307   -2.8874  -22.7613 C   0  0  2  0  0  0  0  0  0  0  0  0
   -7.9813   -3.6549  -24.0346 C   0  0  0  0  0  0  0  0  0  0  0  0
   -9.1508   -3.9345  -24.7630 O   0  0  0  0  0  0  0  0  0  0  0  0
   -8.8682   -4.5821  -25.9804 C   0  0  0  0  0  0  0  0  0  0  0  0
   -8.2692   -3.9463  -26.6526 H   0  0  0  0  0  0  0  0  0  0  0  0
   -8.3152   -5.5204  -25.8192 H   0  0  0  0  0  0  0  0  0  0  0  0
   -9.8221   -4.8086  -26.4614 H   0  0  0  0  0  0  0  0  0  0  0  0
   -7.2778   -3.0677  -24.6495 H   0  0  0  0  0  0  0  0  0  0  0  0
   -7.4688   -4.5990  -23.7795 H   0  0  0  0  0  0  0  0  0  0  0  0
   -9.0007   -3.5239  -22.1844 H   0  0  0  0  0  0  0  0  0  0  0  0
   -6.1875   -2.4445  -22.5647 H   0  0  0  0  0  0  0  0  0  0  0  0
   -6.8294   -3.4091  -21.2218 H   0  0  0  0  0  0  0  0  0  0  0  0
  -10.5918   -1.5649  -22.8515 C   0  0  0  0  0  0  0  0  0  0  0  0
  -11.2346   -2.4069  -21.9329 C   0  0  0  0  0  0  0  0  0  0  0  0
  -12.6101   -2.3558  -21.7934 C   0  0  0  0  0  0  0  0  0  0  0  0
  -13.4142   -3.1790  -20.4906 Cl  0  0  0  0  0  0  0  0  0  0  0  0
  -13.3861   -1.5527  -22.6284 C   0  0  0  0  0  0  0  0  0  0  0  0
  -12.7645   -0.6702  -23.4858 C   0  0  0  0  0  0  0  0  0  0  0  0
  -11.3737   -0.6364  -23.5575 C   0  0  0  0  0  0  0  0  0  0  0  0
  -10.7519    0.5077  -24.3042 C   0  0  0  0  0  0  0  0  0  0  0  0
  -11.4297    1.4253  -24.7529 O   0  0  0  0  0  0  0  0  0  0  0  0
  -13.3143    0.0746  -24.0564 H   0  0  0  0  0  0  0  0  0  0  0  0
  -14.4618   -1.5909  -22.5482 H   0  0  0  0  0  0  0  0  0  0  0  0
  -10.6577   -3.0698  -21.2999 H   0  0  0  0  0  0  0  0  0  0  0  0
   -8.8831   -1.4710  -25.0724 H   0  0  0  0  0  0  0  0  0  0  0  0
   -7.6026   -0.5562  -24.2155 H   0  0  0  0  0  0  0  0  0  0  0  0
   -9.4331    2.3217  -25.2191 H   0  0  0  0  0  0  0  0  0  0  0  0
   -8.0323    1.3397  -25.7506 H   0  0  0  0  0  0  0  0  0  0  0  0
   -9.2777    2.8361  -22.6887 H   0  0  0  0  0  0  0  0  0  0  0  0
   -6.7155    4.1449  -22.1540 H   0  0  0  0  0  0  0  0  0  0  0  0
   -6.8201    2.5375  -21.3997 H   0  0  0  0  0  0  0  0  0  0  0  0
   -8.0268    3.8256  -21.0054 H   0  0  0  0  0  0  0  0  0  0  0  0
  1  2  1  0
  2  3  1  0
  3  4  2  0
  3  5  1  0
  5  6  1  0
  6  7  1  0
  8  7  1  6
  8  9  1  0
  9 10  2  0
  9 11  1  0
 11 12  1  0
 12 13  2  0
 13 14  1  0
 14 15  2  0
 15 16  1  0
 16 17  2  0
 17 18  1  0
 18 19  2  0
 19 20  1  0
 20 21  2  0
 20 22  1  0
 19 23  1  0
 18 24  1  0
 17 25  1  0
 15 26  1  0
 13 27  1  0
 11 28  1  0
 28 29  1  0
 29 30  1  0
 30 31  1  0
 31 32  1  0
 32 33  1  0
 32 34  1  0
 32 35  1  0
 30 36  1  0
 30 37  1  0
 29 38  1  1
 28 39  1  0
 28 40  1  0
  8 41  1  0
 41 42  2  0
 42 43  1  0
 43 44  1  0
 43 45  2  0
 45 46  1  0
 46 47  2  0
 47 48  1  0
 48 49  2  0
 46 50  1  0
 45 51  1  0
 42 52  1  0
  7 53  1  0
  7 54  1  0
  5 55  1  0
  5 56  1  0
  2 57  1  0
  1 58  1  0
  1 59  1  0
  1 60  1  0
 48  6  1  0
 29  8  1  0
 47 41  1  0
 21 12  1  0
 21 16  1  0
M  END
>  <cnnaffinities>  (42) 
[6.08946, 6.09436, 5.78345, 6.3984]

>  <score>  (42) 
6.08946

>  <index>  (42) 
44

>  <Smiles>  (42) 
C(N(C(=O)C(N1C([C@@]2(C(=O)N(c3c(nc(c4c(c(c(c(c34)[H])[H])[H])[H])[H])[H])C([C@@]2(C(OC([H])([H])[H])([H])[H])[H])([H])[H])c2c(c(Cl)c(c(c2C1=O)[H])[H])[H])([H])[H])([H])[H])[H])([H])([H])[H]

>  <h>  (42) 
<NA>

>  <Training>  (42) 
True

>  <Success>  (42) 
True

>  <enamine_searched>  (42) 
False

>  <enamine_id>  (42) 
nan

$$$$

     RDKit          3D

 66 71  0  0  0  0  0  0  0  0999 V2000
   -7.4316    3.3680  -21.7915 C   0  0  0  0  0  0  0  0  0  0  0  0
   -8.3169    2.9153  -22.8448 N   0  0  0  0  0  0  0  0  0  0  0  0
   -7.7578    2.2208  -23.8649 C   0  0  0  0  0  0  0  0  0  0  0  0
   -6.5476    2.1036  -23.9849 O   0  0  0  0  0  0  0  0  0  0  0  0
   -8.7026    1.5940  -24.8866 C   0  0  0  0  0  0  0  0  0  0  0  0
   -9.4136    0.4406  -24.3673 N   0  0  0  0  0  0  0  0  0  0  0  0
   -8.6850   -0.8029  -24.2016 C   0  0  0  0  0  0  0  0  0  0  0  0
   -9.0791   -1.5281  -22.8894 C   0  0  2  0  0  0  0  0  0  0  0  0
   -8.5308   -0.7456  -21.6682 C   0  0  0  0  0  0  0  0  0  0  0  0
   -8.9929    0.2657  -21.1793 O   0  0  0  0  0  0  0  0  0  0  0  0
   -7.3994   -1.3802  -21.2051 N   0  0  0  0  0  0  0  0  0  0  0  0
   -6.6049   -0.8096  -20.1733 C   0  0  0  0  0  0  0  0  0  0  0  0
   -6.9113   -1.0501  -18.8571 C   0  0  0  0  0  0  0  0  0  0  0  0
   -6.2085   -0.5605  -17.8063 N   0  0  0  0  0  0  0  0  0  0  0  0
   -5.1752    0.2020  -18.0721 C   0  0  0  0  0  0  0  0  0  0  0  0
   -4.7437    0.5416  -19.3864 C   0  0  0  0  0  0  0  0  0  0  0  0
   -3.6189    1.3773  -19.6289 C   0  0  0  0  0  0  0  0  0  0  0  0
   -3.2427    1.6884  -20.9066 C   0  0  0  0  0  0  0  0  0  0  0  0
   -3.9849    1.1916  -22.0022 C   0  0  0  0  0  0  0  0  0  0  0  0
   -5.0713    0.3733  -21.7941 C   0  0  0  0  0  0  0  0  0  0  0  0
   -5.4840    0.0266  -20.4807 C   0  0  0  0  0  0  0  0  0  0  0  0
   -5.6077   -0.0286  -22.6504 H   0  0  0  0  0  0  0  0  0  0  0  0
   -3.6845    1.4232  -23.0186 H   0  0  0  0  0  0  0  0  0  0  0  0
   -2.3727    2.3147  -21.0880 H   0  0  0  0  0  0  0  0  0  0  0  0
   -3.0704    1.7601  -18.7705 H   0  0  0  0  0  0  0  0  0  0  0  0
   -4.6213    0.6038  -17.2227 H   0  0  0  0  0  0  0  0  0  0  0  0
   -7.7692   -1.6721  -18.6086 H   0  0  0  0  0  0  0  0  0  0  0  0
   -7.0554   -2.5854  -21.9322 C   0  0  0  0  0  0  0  0  0  0  0  0
   -8.3287   -2.8915  -22.7492 C   0  0  2  0  0  0  0  0  0  0  0  0
   -8.0197   -3.6727  -24.0461 C   0  0  0  0  0  0  0  0  0  0  0  0
   -7.4767   -5.0614  -23.7748 C   0  0  0  0  0  0  0  0  0  0  0  0
   -8.3520   -6.1167  -23.5009 C   0  0  0  0  0  0  0  0  0  0  0  0
   -7.8737   -7.3926  -23.2157 C   0  0  0  0  0  0  0  0  0  0  0  0
   -6.5022   -7.6371  -23.1963 C   0  0  0  0  0  0  0  0  0  0  0  0
   -5.6170   -6.5963  -23.4700 C   0  0  0  0  0  0  0  0  0  0  0  0
   -6.1023   -5.3208  -23.7542 C   0  0  0  0  0  0  0  0  0  0  0  0
   -5.4013   -4.5124  -23.9654 H   0  0  0  0  0  0  0  0  0  0  0  0
   -4.5440   -6.7814  -23.4609 H   0  0  0  0  0  0  0  0  0  0  0  0
   -6.1264   -8.6340  -22.9701 H   0  0  0  0  0  0  0  0  0  0  0  0
   -8.5770   -8.1982  -23.0099 H   0  0  0  0  0  0  0  0  0  0  0  0
   -9.4270   -5.9353  -23.5140 H   0  0  0  0  0  0  0  0  0  0  0  0
   -8.9393   -3.7537  -24.6439 H   0  0  0  0  0  0  0  0  0  0  0  0
   -7.2912   -3.1110  -24.6490 H   0  0  0  0  0  0  0  0  0  0  0  0
   -8.9743   -3.5275  -22.1375 H   0  0  0  0  0  0  0  0  0  0  0  0
   -6.7940   -3.4020  -21.2460 H   0  0  0  0  0  0  0  0  0  0  0  0
   -6.1847   -2.4131  -22.5874 H   0  0  0  0  0  0  0  0  0  0  0  0
  -10.5981   -1.5879  -22.8229 C   0  0  0  0  0  0  0  0  0  0  0  0
  -11.2311   -2.4350  -21.9066 C   0  0  0  0  0  0  0  0  0  0  0  0
  -12.6095   -2.3879  -21.7742 C   0  0  0  0  0  0  0  0  0  0  0  0
  -13.3874   -3.2194  -20.4593 Cl  0  0  0  0  0  0  0  0  0  0  0  0
  -13.4017   -1.5851  -22.5960 C   0  0  0  0  0  0  0  0  0  0  0  0
  -12.7805   -0.7158  -23.4619 C   0  0  0  0  0  0  0  0  0  0  0  0
  -11.3923   -0.6775  -23.5357 C   0  0  0  0  0  0  0  0  0  0  0  0
  -10.7791    0.4750  -24.2749 C   0  0  0  0  0  0  0  0  0  0  0  0
  -11.4575    1.3961  -24.7115 O   0  0  0  0  0  0  0  0  0  0  0  0
  -13.3202    0.0152  -24.0514 H   0  0  0  0  0  0  0  0  0  0  0  0
  -14.4812   -1.6346  -22.5325 H   0  0  0  0  0  0  0  0  0  0  0  0
  -10.6563   -3.1313  -21.3026 H   0  0  0  0  0  0  0  0  0  0  0  0
   -8.8986   -1.4736  -25.0492 H   0  0  0  0  0  0  0  0  0  0  0  0
   -7.6166   -0.5547  -24.1989 H   0  0  0  0  0  0  0  0  0  0  0  0
   -9.4843    2.2956  -25.1855 H   0  0  0  0  0  0  0  0  0  0  0  0
   -8.0750    1.3155  -25.7449 H   0  0  0  0  0  0  0  0  0  0  0  0
   -9.3010    2.7898  -22.6454 H   0  0  0  0  0  0  0  0  0  0  0  0
   -6.7350    4.1146  -22.1832 H   0  0  0  0  0  0  0  0  0  0  0  0
   -8.0216    3.8026  -20.9873 H   0  0  0  0  0  0  0  0  0  0  0  0
   -6.8360    2.5246  -21.4188 H   0  0  0  0  0  0  0  0  0  0  0  0
  1  2  1  0
  2  3  1  0
  3  4  2  0
  3  5  1  0
  5  6  1  0
  6  7  1  0
  8  7  1  6
  8  9  1  0
  9 10  2  0
  9 11  1  0
 11 12  1  0
 12 13  2  0
 13 14  1  0
 14 15  2  0
 15 16  1  0
 16 17  2  0
 17 18  1  0
 18 19  2  0
 19 20  1  0
 20 21  2  0
 20 22  1  0
 19 23  1  0
 18 24  1  0
 17 25  1  0
 15 26  1  0
 13 27  1  0
 11 28  1  0
 28 29  1  0
 29 30  1  0
 30 31  1  0
 31 32  2  0
 32 33  1  0
 33 34  2  0
 34 35  1  0
 35 36  2  0
 36 37  1  0
 35 38  1  0
 34 39  1  0
 33 40  1  0
 32 41  1  0
 30 42  1  0
 30 43  1  0
 29 44  1  1
 28 45  1  0
 28 46  1  0
  8 47  1  0
 47 48  2  0
 48 49  1  0
 49 50  1  0
 49 51  2  0
 51 52  1  0
 52 53  2  0
 53 54  1  0
 54 55  2  0
 52 56  1  0
 51 57  1  0
 48 58  1  0
  7 59  1  0
  7 60  1  0
  5 61  1  0
  5 62  1  0
  2 63  1  0
  1 64  1  0
  1 65  1  0
  1 66  1  0
 54  6  1  0
 29  8  1  0
 36 31  1  0
 53 47  1  0
 21 12  1  0
 21 16  1  0
M  END
>  <cnnaffinities>  (43) 
[6.96546, 6.94921]

>  <score>  (43) 
6.96546

>  <index>  (43) 
45

>  <Smiles>  (43) 
C(N(C(=O)C(N1C([C@@]2(C(=O)N(c3c(nc(c4c(c(c(c(c34)[H])[H])[H])[H])[H])[H])C([C@@]2(C(c2c(c(c(c(c2[H])[H])[H])[H])[H])([H])[H])[H])([H])[H])c2c(c(Cl)c(c(c2C1=O)[H])[H])[H])([H])[H])([H])[H])[H])([H])([H])[H]

>  <h>  (43) 
<NA>

>  <Training>  (43) 
True

>  <Success>  (43) 
True

>  <enamine_searched>  (43) 
False

>  <enamine_id>  (43) 
nan

$$$$

     RDKit          3D

 50 54  0  0  0  0  0  0  0  0999 V2000
  -10.5120   -2.5294  -22.6465 C   0  0  0  0  0  0  0  0  0  0  0  0
   -9.0961   -1.9650  -22.6598 C   0  0  1  0  0  0  0  0  0  0  0  0
   -8.7502   -1.3829  -21.2837 C   0  0  0  0  0  0  0  0  0  0  0  0
   -7.3020   -1.4189  -21.2645 N   0  0  0  0  0  0  0  0  0  0  0  0
   -6.5648   -0.8356  -20.2122 C   0  0  0  0  0  0  0  0  0  0  0  0
   -6.9188   -1.0675  -18.9102 C   0  0  0  0  0  0  0  0  0  0  0  0
   -6.2560   -0.5761  -17.8363 N   0  0  0  0  0  0  0  0  0  0  0  0
   -5.2147    0.1897  -18.0663 C   0  0  0  0  0  0  0  0  0  0  0  0
   -4.7661    0.5430  -19.3690 C   0  0  0  0  0  0  0  0  0  0  0  0
   -3.6443    1.3910  -19.5778 C   0  0  0  0  0  0  0  0  0  0  0  0
   -3.2860    1.7645  -20.8429 C   0  0  0  0  0  0  0  0  0  0  0  0
   -4.0289    1.3165  -21.9600 C   0  0  0  0  0  0  0  0  0  0  0  0
   -5.0985    0.4730  -21.7881 C   0  0  0  0  0  0  0  0  0  0  0  0
   -5.4712    0.0431  -20.4852 C   0  0  0  0  0  0  0  0  0  0  0  0
   -5.6522    0.0997  -22.6462 H   0  0  0  0  0  0  0  0  0  0  0  0
   -3.7374    1.6212  -22.9602 H   0  0  0  0  0  0  0  0  0  0  0  0
   -2.4330    2.4202  -21.0025 H   0  0  0  0  0  0  0  0  0  0  0  0
   -3.0971    1.7462  -18.7076 H   0  0  0  0  0  0  0  0  0  0  0  0
   -4.6782    0.5832  -17.2012 H   0  0  0  0  0  0  0  0  0  0  0  0
   -7.7676   -1.7106  -18.6758 H   0  0  0  0  0  0  0  0  0  0  0  0
   -6.7804   -2.3603  -22.1376 C   0  0  0  0  0  0  0  0  0  0  0  0
   -5.6182   -2.7138  -22.1654 O   0  0  0  0  0  0  0  0  0  0  0  0
   -7.9149   -2.9476  -22.9956 C   0  0  1  0  0  0  0  0  0  0  0  0
   -8.1367   -4.3839  -22.4439 C   0  0  0  0  0  0  0  0  0  0  0  0
   -8.9414   -5.2145  -23.3072 N   0  0  0  0  0  0  0  0  0  0  0  0
   -9.7381   -6.2731  -22.7392 C   0  0  0  0  0  0  0  0  0  0  0  0
   -9.2880   -7.6029  -23.1814 C   0  0  0  0  0  0  0  0  0  0  0  0
   -8.9861   -8.6506  -23.5579 N   0  0  0  0  0  0  0  0  0  0  0  0
   -9.6523   -6.1963  -21.6535 H   0  0  0  0  0  0  0  0  0  0  0  0
  -10.7837   -6.1432  -23.0372 H   0  0  0  0  0  0  0  0  0  0  0  0
   -8.9192   -5.1347  -24.6679 C   0  0  0  0  0  0  0  0  0  0  0  0
   -9.5970   -5.8758  -25.3586 O   0  0  0  0  0  0  0  0  0  0  0  0
   -8.0219   -4.0969  -25.2490 C   0  0  0  0  0  0  0  0  0  0  0  0
   -7.7385   -4.2038  -26.6092 C   0  0  0  0  0  0  0  0  0  0  0  0
   -6.9708   -3.2552  -27.2460 C   0  0  0  0  0  0  0  0  0  0  0  0
   -6.4996   -2.1968  -26.4795 C   0  0  0  0  0  0  0  0  0  0  0  0
   -5.7664   -1.2578  -27.0996 F   0  0  0  0  0  0  0  0  0  0  0  0
   -6.7571   -2.0625  -25.1263 C   0  0  0  0  0  0  0  0  0  0  0  0
   -7.5458   -3.0308  -24.4749 C   0  0  0  0  0  0  0  0  0  0  0  0
   -6.3062   -1.2138  -24.6142 H   0  0  0  0  0  0  0  0  0  0  0  0
   -6.7538   -3.3254  -28.3066 H   0  0  0  0  0  0  0  0  0  0  0  0
   -8.1355   -5.0561  -27.1491 H   0  0  0  0  0  0  0  0  0  0  0  0
   -7.1547   -4.8363  -22.2581 H   0  0  0  0  0  0  0  0  0  0  0  0
   -8.6485   -4.3174  -21.4791 H   0  0  0  0  0  0  0  0  0  0  0  0
   -9.1825   -1.9985  -20.4794 H   0  0  0  0  0  0  0  0  0  0  0  0
   -9.1301   -0.3637  -21.1489 H   0  0  0  0  0  0  0  0  0  0  0  0
   -9.0189   -1.1504  -23.3920 H   0  0  0  0  0  0  0  0  0  0  0  0
  -10.6273   -3.2471  -21.8262 H   0  0  0  0  0  0  0  0  0  0  0  0
  -11.2440   -1.7301  -22.4812 H   0  0  0  0  0  0  0  0  0  0  0  0
  -10.7586   -3.0446  -23.5763 H   0  0  0  0  0  0  0  0  0  0  0  0
  1  2  1  0
  2  3  1  0
  3  4  1  0
  4  5  1  0
  5  6  2  0
  6  7  1  0
  7  8  2  0
  8  9  1  0
  9 10  2  0
 10 11  1  0
 11 12  2  0
 12 13  1  0
 13 14  2  0
 13 15  1  0
 12 16  1  0
 11 17  1  0
 10 18  1  0
  8 19  1  0
  6 20  1  0
  4 21  1  0
 21 22  2  0
 21 23  1  0
 23 24  1  1
 24 25  1  0
 25 26  1  0
 26 27  1  0
 27 28  3  0
 26 29  1  0
 26 30  1  0
 25 31  1  0
 31 32  2  0
 31 33  1  0
 33 34  2  0
 34 35  1  0
 35 36  2  0
 36 37  1  0
 36 38  1  0
 38 39  2  0
 38 40  1  0
 35 41  1  0
 34 42  1  0
 24 43  1  0
 24 44  1  0
  3 45  1  0
  3 46  1  0
  2 47  1  6
  1 48  1  0
  1 49  1  0
  1 50  1  0
 23  2  1  0
 39 33  1  0
 14  5  1  0
 39 23  1  0
 14  9  1  0
M  END
>  <cnnaffinities>  (44) 
[5.79277, 5.44128]

>  <score>  (44) 
5.79277

>  <index>  (44) 
46

>  <Smiles>  (44) 
C([C@]1(C(N(c2c(nc(c3c(c(c(c(c23)[H])[H])[H])[H])[H])[H])C(=O)[C@]21C(N(C(C#N)([H])[H])C(=O)c1c(c(c(F)c(c21)[H])[H])[H])([H])[H])([H])[H])[H])([H])([H])[H]

>  <h>  (44) 
<NA>

>  <Training>  (44) 
True

>  <Success>  (44) 
True

>  <enamine_searched>  (44) 
False

>  <enamine_id>  (44) 
nan

$$$$

     RDKit          3D

 58 63  0  0  0  0  0  0  0  0999 V2000
   -8.9660    0.4546  -21.0632 O   0  0  0  0  0  0  0  0  0  0  0  0
   -8.3070   -0.2373  -21.8208 C   0  0  0  0  0  0  0  0  0  0  0  0
   -7.4631   -1.3754  -21.2614 C   0  0  0  0  0  0  0  0  0  0  0  0
   -6.5870   -0.8286  -20.1594 C   0  0  0  0  0  0  0  0  0  0  0  0
   -6.8831   -1.0611  -18.8443 C   0  0  0  0  0  0  0  0  0  0  0  0
   -6.1972   -0.5672  -17.7810 N   0  0  0  0  0  0  0  0  0  0  0  0
   -5.1761    0.2107  -18.0492 C   0  0  0  0  0  0  0  0  0  0  0  0
   -4.7540    0.5524  -19.3632 C   0  0  0  0  0  0  0  0  0  0  0  0
   -3.6344    1.3922  -19.5944 C   0  0  0  0  0  0  0  0  0  0  0  0
   -3.2604    1.7192  -20.8694 C   0  0  0  0  0  0  0  0  0  0  0  0
   -4.0063    1.2327  -21.9647 C   0  0  0  0  0  0  0  0  0  0  0  0
   -5.0921    0.4140  -21.7670 C   0  0  0  0  0  0  0  0  0  0  0  0
   -5.4901    0.0352  -20.4559 C   0  0  0  0  0  0  0  0  0  0  0  0
   -5.6395    0.0436  -22.6304 H   0  0  0  0  0  0  0  0  0  0  0  0
   -3.6975    1.4847  -22.9771 H   0  0  0  0  0  0  0  0  0  0  0  0
   -2.3967    2.3521  -21.0474 H   0  0  0  0  0  0  0  0  0  0  0  0
   -3.0857    1.7681  -18.7341 H   0  0  0  0  0  0  0  0  0  0  0  0
   -4.6223    0.6137  -17.2006 H   0  0  0  0  0  0  0  0  0  0  0  0
   -7.7349   -1.6917  -18.5879 H   0  0  0  0  0  0  0  0  0  0  0  0
   -6.8735   -1.8389  -22.0556 H   0  0  0  0  0  0  0  0  0  0  0  0
   -8.1497   -2.1336  -20.8642 H   0  0  0  0  0  0  0  0  0  0  0  0
   -8.2402    0.0129  -23.1871 N   0  0  0  0  0  0  0  0  0  0  0  0
   -8.1262   -1.0477  -24.1967 C   0  0  0  0  0  0  0  0  0  0  0  0
   -9.2151   -2.0915  -24.0094 C   0  0  0  0  0  0  0  0  0  0  0  0
   -8.9401   -3.4305  -23.7338 C   0  0  0  0  0  0  0  0  0  0  0  0
   -9.9536   -4.2982  -23.3465 C   0  0  0  0  0  0  0  0  0  0  0  0
  -11.2654   -3.8581  -23.2080 C   0  0  0  0  0  0  0  0  0  0  0  0
  -11.5475   -2.5342  -23.5495 C   0  0  0  0  0  0  0  0  0  0  0  0
  -13.1932   -1.9588  -23.5738 Cl  0  0  0  0  0  0  0  0  0  0  0  0
  -10.5476   -1.6711  -23.9709 C   0  0  0  0  0  0  0  0  0  0  0  0
  -10.8306   -0.6613  -24.2494 H   0  0  0  0  0  0  0  0  0  0  0  0
  -12.0363   -4.5445  -22.8818 H   0  0  0  0  0  0  0  0  0  0  0  0
   -9.7010   -5.3373  -23.1597 H   0  0  0  0  0  0  0  0  0  0  0  0
   -7.9115   -3.7865  -23.7695 H   0  0  0  0  0  0  0  0  0  0  0  0
   -7.1336   -1.5109  -24.1535 H   0  0  0  0  0  0  0  0  0  0  0  0
   -8.1772   -0.5585  -25.1710 H   0  0  0  0  0  0  0  0  0  0  0  0
   -8.4817    1.3829  -23.5534 C   0  0  2  0  0  0  0  0  0  0  0  0
   -7.4356    2.4157  -23.0877 C   0  0  0  0  0  0  0  0  0  0  0  0
   -8.0730    3.6681  -23.6417 N   0  0  1  0  0  4  0  0  0  0  0  0
   -7.2209    4.4825  -24.5137 C   0  0  0  0  0  0  0  0  0  0  0  0
   -6.3769    5.5376  -23.8797 C   0  0  0  0  0  0  0  0  0  0  0  0
   -7.5869    5.9188  -24.6969 C   0  0  0  0  0  0  0  0  0  0  0  0
   -8.4731    6.2599  -24.1674 H   0  0  0  0  0  0  0  0  0  0  0  0
   -7.4380    6.3649  -25.6738 H   0  0  0  0  0  0  0  0  0  0  0  0
   -6.4478    5.6063  -22.7976 H   0  0  0  0  0  0  0  0  0  0  0  0
   -5.3907    5.7259  -24.2896 H   0  0  0  0  0  0  0  0  0  0  0  0
   -6.8142    3.9504  -25.3642 H   0  0  0  0  0  0  0  0  0  0  0  0
   -9.2909    3.0646  -24.3171 C   0  0  2  0  0  0  0  0  0  0  0  0
   -9.7934    2.1400  -23.2097 C   0  0  0  0  0  0  0  0  0  0  0  0
   -9.8430    2.5709  -22.2095 H   0  0  0  0  0  0  0  0  0  0  0  0
  -10.6953    1.5809  -23.4566 H   0  0  0  0  0  0  0  0  0  0  0  0
   -8.7179    1.8196  -25.0061 C   0  0  0  0  0  0  0  0  0  0  0  0
   -7.8424    1.9301  -25.6567 H   0  0  0  0  0  0  0  0  0  0  0  0
   -9.4940    1.2191  -25.4711 H   0  0  0  0  0  0  0  0  0  0  0  0
   -9.9102    3.7915  -24.8243 H   0  0  0  0  0  0  0  0  0  0  0  0
   -8.3950    4.2639  -22.8533 H   0  0  0  0  0  0  0  0  0  0  0  0
   -6.4491    2.2831  -23.5311 H   0  0  0  0  0  0  0  0  0  0  0  0
   -7.3544    2.4648  -21.9998 H   0  0  0  0  0  0  0  0  0  0  0  0
  1  2  2  0
  2  3  1  0
  3  4  1  0
  4  5  2  0
  5  6  1  0
  6  7  2  0
  7  8  1  0
  8  9  2  0
  9 10  1  0
 10 11  2  0
 11 12  1  0
 12 13  2  0
 12 14  1  0
 11 15  1  0
 10 16  1  0
  9 17  1  0
  7 18  1  0
  5 19  1  0
  3 20  1  0
  3 21  1  0
  2 22  1  0
 22 23  1  0
 23 24  1  0
 24 25  2  0
 25 26  1  0
 26 27  2  0
 27 28  1  0
 28 29  1  0
 28 30  2  0
 30 31  1  0
 27 32  1  0
 26 33  1  0
 25 34  1  0
 23 35  1  0
 23 36  1  0
 37 22  1  6
 37 38  1  0
 38 39  1  0
 39 40  1  0
 40 41  1  0
 41 42  1  0
 42 43  1  0
 42 44  1  0
 41 45  1  0
 41 46  1  0
 40 47  1  0
 39 48  1  0
 48 49  1  0
 49 50  1  0
 49 51  1  0
 48 52  1  0
 52 53  1  0
 52 54  1  0
 48 55  1  6
 39 56  1  1
 38 57  1  0
 38 58  1  0
 13  4  1  0
 30 24  1  0
 49 37  1  0
 13  8  1  0
 52 37  1  0
 42 40  1  0
M  CHG  1  39   1
M  END
>  <cnnaffinities>  (45) 
[5.91359, 5.64642, 5.9324]

>  <score>  (45) 
5.91359

>  <index>  (45) 
47

>  <Smiles>  (45) 
O=C(C(c1c(nc(c2c(c(c(c(c12)[H])[H])[H])[H])[H])[H])([H])[H])N(C(c1c(c(c(c(Cl)c1[H])[H])[H])[H])([H])[H])[C@]12C([N@@+](C3(C(C3([H])[H])([H])[H])[H])([C@](C1([H])[H])(C2([H])[H])[H])[H])([H])[H]

>  <h>  (45) 
<NA>

>  <Training>  (45) 
True

>  <Success>  (45) 
True

>  <enamine_searched>  (45) 
False

>  <enamine_id>  (45) 
nan

$$$$

     RDKit          3D

 46 48  0  0  0  0  0  0  0  0999 V2000
   -8.9237   -7.8365  -25.4770 C   0  0  0  0  0  0  0  0  0  0  0  0
   -9.4883   -6.4226  -25.3372 C   0  0  0  0  0  0  0  0  0  0  0  0
   -9.8001   -5.8639  -26.7273 C   0  0  0  0  0  0  0  0  0  0  0  0
  -10.4594   -6.5388  -27.2856 H   0  0  0  0  0  0  0  0  0  0  0  0
  -10.2867   -4.8869  -26.6885 H   0  0  0  0  0  0  0  0  0  0  0  0
   -8.8825   -5.7502  -27.3158 H   0  0  0  0  0  0  0  0  0  0  0  0
   -8.5528   -5.4772  -24.5403 C   0  0  0  0  0  0  0  0  0  0  0  0
   -9.1660   -4.0820  -24.3210 C   0  0  0  0  0  0  0  0  0  0  0  0
   -8.9241   -3.4483  -22.9464 C   0  0  0  0  0  0  0  0  0  0  0  0
   -7.5857   -3.6981  -22.4434 N   0  0  0  0  0  0  0  0  0  0  0  0
   -6.7861   -2.7812  -21.8060 C   0  0  0  0  0  0  0  0  0  0  0  0
   -5.5979   -2.9991  -21.6400 O   0  0  0  0  0  0  0  0  0  0  0  0
   -7.4226   -1.4789  -21.2580 C   0  0  0  0  0  0  0  0  0  0  0  0
   -6.5811   -0.8281  -20.1813 C   0  0  0  0  0  0  0  0  0  0  0  0
   -6.8727   -1.0445  -18.8590 C   0  0  0  0  0  0  0  0  0  0  0  0
   -6.1870   -0.5457  -17.7982 N   0  0  0  0  0  0  0  0  0  0  0  0
   -5.1566    0.2225  -18.0626 C   0  0  0  0  0  0  0  0  0  0  0  0
   -4.7214    0.5339  -19.3797 C   0  0  0  0  0  0  0  0  0  0  0  0
   -3.5919    1.3610  -19.6160 C   0  0  0  0  0  0  0  0  0  0  0  0
   -3.1959    1.6481  -20.8959 C   0  0  0  0  0  0  0  0  0  0  0  0
   -3.9299    1.1358  -21.9851 C   0  0  0  0  0  0  0  0  0  0  0  0
   -5.0178    0.3177  -21.7812 C   0  0  0  0  0  0  0  0  0  0  0  0
   -5.4481   -0.0052  -20.4699 C   0  0  0  0  0  0  0  0  0  0  0  0
   -5.5160   -0.1316  -22.6335 H   0  0  0  0  0  0  0  0  0  0  0  0
   -3.5798    1.3167  -22.9970 H   0  0  0  0  0  0  0  0  0  0  0  0
   -2.3251    2.2712  -21.0841 H   0  0  0  0  0  0  0  0  0  0  0  0
   -3.0518    1.7734  -18.7672 H   0  0  0  0  0  0  0  0  0  0  0  0
   -4.6008    0.6287  -17.2157 H   0  0  0  0  0  0  0  0  0  0  0  0
   -7.7203   -1.6705  -18.5862 H   0  0  0  0  0  0  0  0  0  0  0  0
   -8.4173   -1.7014  -20.8433 H   0  0  0  0  0  0  0  0  0  0  0  0
   -7.5838   -0.7738  -22.0852 H   0  0  0  0  0  0  0  0  0  0  0  0
   -7.1048   -5.0834  -22.5103 C   0  0  0  0  0  0  0  0  0  0  0  0
   -8.0890   -6.0304  -23.1970 C   0  0  0  0  0  0  0  0  0  0  0  0
   -8.9498   -6.2379  -22.5499 H   0  0  0  0  0  0  0  0  0  0  0  0
   -7.5891   -6.9940  -23.3336 H   0  0  0  0  0  0  0  0  0  0  0  0
   -6.8974   -5.4510  -21.4988 H   0  0  0  0  0  0  0  0  0  0  0  0
   -6.1443   -5.1076  -23.0358 H   0  0  0  0  0  0  0  0  0  0  0  0
   -9.0853   -2.3714  -23.0286 H   0  0  0  0  0  0  0  0  0  0  0  0
   -9.6793   -3.8213  -22.2402 H   0  0  0  0  0  0  0  0  0  0  0  0
  -10.2428   -4.1620  -24.4170 H   0  0  0  0  0  0  0  0  0  0  0  0
   -8.8327   -3.3987  -25.1094 H   0  0  0  0  0  0  0  0  0  0  0  0
   -7.6504   -5.3422  -25.1494 H   0  0  0  0  0  0  0  0  0  0  0  0
  -10.4356   -6.5024  -24.7883 H   0  0  0  0  0  0  0  0  0  0  0  0
   -8.9109   -8.3802  -24.5281 H   0  0  0  0  0  0  0  0  0  0  0  0
   -9.5188   -8.4312  -26.1791 H   0  0  0  0  0  0  0  0  0  0  0  0
   -7.9006   -7.8154  -25.8689 H   0  0  0  0  0  0  0  0  0  0  0  0
  1  2  1  0
  2  3  1  0
  3  4  1  0
  3  5  1  0
  3  6  1  0
  2  7  1  0
  7  8  1  0
  8  9  1  0
  9 10  1  0
 10 11  1  0
 11 12  2  0
 11 13  1  0
 13 14  1  0
 14 15  2  0
 15 16  1  0
 16 17  2  0
 17 18  1  0
 18 19  2  0
 19 20  1  0
 20 21  2  0
 21 22  1  0
 22 23  2  0
 22 24  1  0
 21 25  1  0
 20 26  1  0
 19 27  1  0
 17 28  1  0
 15 29  1  0
 13 30  1  0
 13 31  1  0
 10 32  1  0
 32 33  1  0
 33 34  1  0
 33 35  1  0
 32 36  1  0
 32 37  1  0
  9 38  1  0
  9 39  1  0
  8 40  1  0
  8 41  1  0
  7 42  1  0
  2 43  1  0
  1 44  1  0
  1 45  1  0
  1 46  1  0
 33  7  1  0
 23 14  1  0
 23 18  1  0
M  END
>  <cnnaffinities>  (46) 
[4.54674, 4.54705, 4.54661, 4.50504, 4.61497, 4.62501, 4.62504, 4.62499, 4.55788, 4.60715, 4.60716, 4.52284, 4.52282, 4.5228, 4.94004, 4.68958, 4.94893, 4.95804, 4.95285, 4.68409, 4.68423, 4.68436, 4.74751, 4.75339]

>  <score>  (46) 
4.54674

>  <index>  (46) 
48

>  <Smiles>  (46) 
C(C(C([H])([H])[H])(C1(C(C(N(C(=O)C(c2c(nc(c3c(c(c(c(c23)[H])[H])[H])[H])[H])[H])([H])[H])C(C1([H])[H])([H])[H])([H])[H])([H])[H])[H])[H])([H])([H])[H]

>  <h>  (46) 
<NA>

>  <Training>  (46) 
True

>  <Success>  (46) 
True

>  <enamine_searched>  (46) 
False

>  <enamine_id>  (46) 
nan

$$$$

     RDKit          3D

 67 72  0  0  0  0  0  0  0  0999 V2000
   -7.2586    3.4133  -21.9832 C   0  0  0  0  0  0  0  0  0  0  0  0
   -8.1422    2.9053  -23.0138 N   0  0  0  0  0  0  0  0  0  0  0  0
   -7.6018    2.2376  -24.0678 C   0  0  0  0  0  0  0  0  0  0  0  0
   -6.3966    2.1006  -24.2137 O   0  0  0  0  0  0  0  0  0  0  0  0
   -8.6157    1.6518  -25.0540 C   0  0  0  0  0  0  0  0  0  0  0  0
   -9.3173    0.5314  -24.4477 N   0  0  0  0  0  0  0  0  0  0  0  0
   -8.5665   -0.6851  -24.1701 C   0  0  0  0  0  0  0  0  0  0  0  0
   -9.0232   -1.4087  -22.8681 C   0  0  2  0  0  0  0  0  0  0  0  0
   -8.5435   -0.6095  -21.6308 C   0  0  0  0  0  0  0  0  0  0  0  0
   -9.0205    0.4091  -21.1795 O   0  0  0  0  0  0  0  0  0  0  0  0
   -7.4550   -1.2517  -21.0956 N   0  0  0  0  0  0  0  0  0  0  0  0
   -6.6587   -0.6912  -20.0826 C   0  0  0  0  0  0  0  0  0  0  0  0
   -6.9404   -0.9943  -18.7819 C   0  0  0  0  0  0  0  0  0  0  0  0
   -6.2119   -0.5514  -17.7335 N   0  0  0  0  0  0  0  0  0  0  0  0
   -5.1753    0.2063  -18.0027 C   0  0  0  0  0  0  0  0  0  0  0  0
   -4.7612    0.5714  -19.3168 C   0  0  0  0  0  0  0  0  0  0  0  0
   -3.6320    1.3962  -19.5657 C   0  0  0  0  0  0  0  0  0  0  0  0
   -3.2967    1.7527  -20.8436 C   0  0  0  0  0  0  0  0  0  0  0  0
   -4.0730    1.3083  -21.9393 C   0  0  0  0  0  0  0  0  0  0  0  0
   -5.1569    0.4900  -21.7279 C   0  0  0  0  0  0  0  0  0  0  0  0
   -5.5290    0.1089  -20.4082 C   0  0  0  0  0  0  0  0  0  0  0  0
   -5.7612    0.1744  -22.5747 H   0  0  0  0  0  0  0  0  0  0  0  0
   -3.8317    1.6263  -22.9496 H   0  0  0  0  0  0  0  0  0  0  0  0
   -2.4396    2.3943  -21.0268 H   0  0  0  0  0  0  0  0  0  0  0  0
   -3.0637    1.7522  -18.7109 H   0  0  0  0  0  0  0  0  0  0  0  0
   -4.6029    0.5775  -17.1526 H   0  0  0  0  0  0  0  0  0  0  0  0
   -7.7945   -1.6311  -18.5579 H   0  0  0  0  0  0  0  0  0  0  0  0
   -7.0390   -2.4365  -21.7859 C   0  0  0  0  0  0  0  0  0  0  0  0
   -8.2565   -2.7608  -22.6529 C   0  0  2  0  0  0  0  0  0  0  0  0
   -7.7901   -3.5122  -23.8854 C   0  0  0  0  0  0  0  0  0  0  0  0
   -8.9126   -3.9513  -24.6612 N   0  0  0  0  0  0  0  0  0  0  0  0
   -8.6943   -4.7891  -25.7228 C   0  0  0  0  0  0  0  0  0  0  0  0
   -7.5067   -5.0394  -26.3463 C   0  0  0  0  0  0  0  0  0  0  0  0
   -7.5689   -5.7907  -27.4989 N   0  0  0  0  0  0  0  0  0  0  0  0
   -8.7929   -6.1125  -27.7517 C   0  0  0  0  0  0  0  0  0  0  0  0
   -9.2920   -6.6756  -29.0349 C   0  0  0  0  0  0  0  0  0  0  0  0
   -9.7490   -5.8601  -29.6008 H   0  0  0  0  0  0  0  0  0  0  0  0
   -8.4751   -7.1385  -29.5917 H   0  0  0  0  0  0  0  0  0  0  0  0
  -10.0837   -7.3976  -28.8733 H   0  0  0  0  0  0  0  0  0  0  0  0
   -9.9726   -5.6339  -26.5493 S   0  0  0  0  0  0  0  0  0  0  0  0
   -6.5363   -4.7028  -25.9992 H   0  0  0  0  0  0  0  0  0  0  0  0
   -9.8458   -3.6665  -24.3999 H   0  0  0  0  0  0  0  0  0  0  0  0
   -7.1195   -2.8653  -24.4770 H   0  0  0  0  0  0  0  0  0  0  0  0
   -7.1779   -4.3795  -23.5915 H   0  0  0  0  0  0  0  0  0  0  0  0
   -8.9168   -3.4223  -22.0814 H   0  0  0  0  0  0  0  0  0  0  0  0
   -6.7944   -3.2415  -21.0820 H   0  0  0  0  0  0  0  0  0  0  0  0
   -6.1344   -2.2583  -22.3945 H   0  0  0  0  0  0  0  0  0  0  0  0
  -10.5454   -1.4750  -22.8545 C   0  0  0  0  0  0  0  0  0  0  0  0
  -11.2203   -2.3189  -21.9590 C   0  0  0  0  0  0  0  0  0  0  0  0
  -12.6016   -2.2614  -21.8594 C   0  0  0  0  0  0  0  0  0  0  0  0
  -13.4294   -3.1668  -20.6276 Cl  0  0  0  0  0  0  0  0  0  0  0  0
  -13.3596   -1.4270  -22.6789 C   0  0  0  0  0  0  0  0  0  0  0  0
  -12.7022   -0.5909  -23.5559 C   0  0  0  0  0  0  0  0  0  0  0  0
  -11.3096   -0.5546  -23.5912 C   0  0  0  0  0  0  0  0  0  0  0  0
  -10.6763    0.5817  -24.3394 C   0  0  0  0  0  0  0  0  0  0  0  0
  -11.3456    1.5137  -24.7782 O   0  0  0  0  0  0  0  0  0  0  0  0
  -13.2473    0.0805  -24.2089 H   0  0  0  0  0  0  0  0  0  0  0  0
  -14.4392   -1.4004  -22.5817 H   0  0  0  0  0  0  0  0  0  0  0  0
  -10.6779   -2.9867  -21.2983 H   0  0  0  0  0  0  0  0  0  0  0  0
   -8.6573   -1.3684  -25.0250 H   0  0  0  0  0  0  0  0  0  0  0  0
   -7.5124   -0.4073  -24.0742 H   0  0  0  0  0  0  0  0  0  0  0  0
   -8.0857    1.3583  -25.9687 H   0  0  0  0  0  0  0  0  0  0  0  0
   -9.3837    2.3820  -25.3254 H   0  0  0  0  0  0  0  0  0  0  0  0
   -9.0806    2.6511  -22.7311 H   0  0  0  0  0  0  0  0  0  0  0  0
   -6.5261    4.0913  -22.4282 H   0  0  0  0  0  0  0  0  0  0  0  0
   -6.7111    2.6009  -21.4892 H   0  0  0  0  0  0  0  0  0  0  0  0
   -7.8453    3.9604  -21.2439 H   0  0  0  0  0  0  0  0  0  0  0  0
  1  2  1  0
  2  3  1  0
  3  4  2  0
  3  5  1  0
  5  6  1  0
  6  7  1  0
  8  7  1  6
  8  9  1  0
  9 10  2  0
  9 11  1  0
 11 12  1  0
 12 13  2  0
 13 14  1  0
 14 15  2  0
 15 16  1  0
 16 17  2  0
 17 18  1  0
 18 19  2  0
 19 20  1  0
 20 21  2  0
 20 22  1  0
 19 23  1  0
 18 24  1  0
 17 25  1  0
 15 26  1  0
 13 27  1  0
 11 28  1  0
 28 29  1  0
 29 30  1  0
 30 31  1  0
 31 32  1  0
 32 33  2  0
 33 34  1  0
 34 35  2  0
 35 36  1  0
 36 37  1  0
 36 38  1  0
 36 39  1  0
 35 40  1  0
 33 41  1  0
 31 42  1  0
 30 43  1  0
 30 44  1  0
 29 45  1  1
 28 46  1  0
 28 47  1  0
  8 48  1  0
 48 49  2  0
 49 50  1  0
 50 51  1  0
 50 52  2  0
 52 53  1  0
 53 54  2  0
 54 55  1  0
 55 56  2  0
 53 57  1  0
 52 58  1  0
 49 59  1  0
  7 60  1  0
  7 61  1  0
  5 62  1  0
  5 63  1  0
  2 64  1  0
  1 65  1  0
  1 66  1  0
  1 67  1  0
 55  6  1  0
 29  8  1  0
 40 32  1  0
 54 48  1  0
 21 12  1  0
 21 16  1  0
M  END
>  <cnnaffinities>  (47) 
[6.45406, 7.00816]

>  <score>  (47) 
6.45406

>  <index>  (47) 
49

>  <Smiles>  (47) 
C(N(C(=O)C(N1C([C@@]2(C(=O)N(c3c(nc(c4c(c(c(c(c34)[H])[H])[H])[H])[H])[H])C([C@@]2(C(N(c2c(nc(C([H])([H])[H])s2)[H])[H])([H])[H])[H])([H])[H])c2c(c(Cl)c(c(c2C1=O)[H])[H])[H])([H])[H])([H])[H])[H])([H])([H])[H]

>  <h>  (47) 
<NA>

>  <Training>  (47) 
True

>  <Success>  (47) 
True

>  <enamine_searched>  (47) 
False

>  <enamine_id>  (47) 
nan

$$$$

     RDKit          3D

 66 70  0  0  0  0  0  0  0  0999 V2000
   -7.3901    3.3933  -21.8182 C   0  0  0  0  0  0  0  0  0  0  0  0
   -8.2426    2.9223  -22.8913 N   0  0  0  0  0  0  0  0  0  0  0  0
   -7.6644    2.2314  -23.8999 C   0  0  0  0  0  0  0  0  0  0  0  0
   -6.4476    2.1350  -24.0077 O   0  0  0  0  0  0  0  0  0  0  0  0
   -8.6144    1.6001  -24.9255 C   0  0  0  0  0  0  0  0  0  0  0  0
   -9.3604    0.4624  -24.4204 N   0  0  0  0  0  0  0  0  0  0  0  0
   -8.6609   -0.7963  -24.2413 C   0  0  0  0  0  0  0  0  0  0  0  0
   -9.0588   -1.4954  -22.9168 C   0  0  2  0  0  0  0  0  0  0  0  0
   -8.5011   -0.7013  -21.7009 C   0  0  0  0  0  0  0  0  0  0  0  0
   -8.9274    0.3341  -21.2387 O   0  0  0  0  0  0  0  0  0  0  0  0
   -7.4077   -1.3758  -21.2015 N   0  0  0  0  0  0  0  0  0  0  0  0
   -6.6087   -0.8041  -20.1737 C   0  0  0  0  0  0  0  0  0  0  0  0
   -6.9087   -1.0451  -18.8593 C   0  0  0  0  0  0  0  0  0  0  0  0
   -6.2014   -0.5582  -17.8094 N   0  0  0  0  0  0  0  0  0  0  0  0
   -5.1681    0.2039  -18.0744 C   0  0  0  0  0  0  0  0  0  0  0  0
   -4.7352    0.5383  -19.3877 C   0  0  0  0  0  0  0  0  0  0  0  0
   -3.6085    1.3733  -19.6317 C   0  0  0  0  0  0  0  0  0  0  0  0
   -3.2329    1.6834  -20.9096 C   0  0  0  0  0  0  0  0  0  0  0  0
   -3.9748    1.1805  -22.0018 C   0  0  0  0  0  0  0  0  0  0  0  0
   -5.0624    0.3646  -21.7916 C   0  0  0  0  0  0  0  0  0  0  0  0
   -5.4797    0.0233  -20.4794 C   0  0  0  0  0  0  0  0  0  0  0  0
   -5.5912   -0.0538  -22.6437 H   0  0  0  0  0  0  0  0  0  0  0  0
   -3.6686    1.3957  -23.0191 H   0  0  0  0  0  0  0  0  0  0  0  0
   -2.3631    2.3074  -21.0943 H   0  0  0  0  0  0  0  0  0  0  0  0
   -3.0675    1.7676  -18.7749 H   0  0  0  0  0  0  0  0  0  0  0  0
   -4.6219    0.6096  -17.2219 H   0  0  0  0  0  0  0  0  0  0  0  0
   -7.7609   -1.6688  -18.6013 H   0  0  0  0  0  0  0  0  0  0  0  0
   -7.0808   -2.5982  -21.9111 C   0  0  0  0  0  0  0  0  0  0  0  0
   -8.3424   -2.8703  -22.7580 C   0  0  2  0  0  0  0  0  0  0  0  0
   -8.0172   -3.6521  -24.0376 C   0  0  0  0  0  0  0  0  0  0  0  0
   -7.4913   -4.9271  -23.7264 O   0  0  0  0  0  0  0  0  0  0  0  0
   -8.4668   -5.9664  -23.6396 C   0  0  0  0  0  0  0  0  0  0  0  0
   -8.5692   -6.6990  -24.9773 C   0  0  0  0  0  0  0  0  0  0  0  0
   -8.8676   -6.0173  -25.7825 H   0  0  0  0  0  0  0  0  0  0  0  0
   -7.5963   -7.1305  -25.2353 H   0  0  0  0  0  0  0  0  0  0  0  0
   -9.3100   -7.5059  -24.9190 H   0  0  0  0  0  0  0  0  0  0  0  0
   -8.0522   -6.9017  -22.5136 C   0  0  0  0  0  0  0  0  0  0  0  0
   -7.0790   -7.3519  -22.7325 H   0  0  0  0  0  0  0  0  0  0  0  0
   -8.7929   -7.7000  -22.3958 H   0  0  0  0  0  0  0  0  0  0  0  0
   -7.9734   -6.3526  -21.5710 H   0  0  0  0  0  0  0  0  0  0  0  0
   -9.4492   -5.5185  -23.4022 H   0  0  0  0  0  0  0  0  0  0  0  0
   -8.9109   -3.7376  -24.6798 H   0  0  0  0  0  0  0  0  0  0  0  0
   -7.2385   -3.1330  -24.6128 H   0  0  0  0  0  0  0  0  0  0  0  0
   -9.0093   -3.5048  -22.1677 H   0  0  0  0  0  0  0  0  0  0  0  0
   -6.8599   -3.4117  -21.2104 H   0  0  0  0  0  0  0  0  0  0  0  0
   -6.1879   -2.4696  -22.5439 H   0  0  0  0  0  0  0  0  0  0  0  0
  -10.5764   -1.5246  -22.8477 C   0  0  0  0  0  0  0  0  0  0  0  0
  -11.2288   -2.3910  -21.9633 C   0  0  0  0  0  0  0  0  0  0  0  0
  -12.6047   -2.3678  -21.8814 C   0  0  0  0  0  0  0  0  0  0  0  0
  -13.2204   -3.1795  -21.0087 F   0  0  0  0  0  0  0  0  0  0  0  0
  -13.3891   -1.5133  -22.6451 C   0  0  0  0  0  0  0  0  0  0  0  0
  -12.7492   -0.6111  -23.4690 C   0  0  0  0  0  0  0  0  0  0  0  0
  -11.3560   -0.5902  -23.5480 C   0  0  0  0  0  0  0  0  0  0  0  0
  -10.7233    0.5320  -24.3164 C   0  0  0  0  0  0  0  0  0  0  0  0
  -11.3876    1.4523  -24.7710 O   0  0  0  0  0  0  0  0  0  0  0  0
  -13.2963    0.1272  -24.0455 H   0  0  0  0  0  0  0  0  0  0  0  0
  -14.4666   -1.5497  -22.5452 H   0  0  0  0  0  0  0  0  0  0  0  0
  -10.6892   -3.0596  -21.3034 H   0  0  0  0  0  0  0  0  0  0  0  0
   -8.8677   -1.4759  -25.0839 H   0  0  0  0  0  0  0  0  0  0  0  0
   -7.5918   -0.5649  -24.2250 H   0  0  0  0  0  0  0  0  0  0  0  0
   -9.3715    2.3067  -25.2789 H   0  0  0  0  0  0  0  0  0  0  0  0
   -7.9717    1.3061  -25.7619 H   0  0  0  0  0  0  0  0  0  0  0  0
   -9.2416    2.8440  -22.7494 H   0  0  0  0  0  0  0  0  0  0  0  0
   -6.6913    4.1583  -22.1776 H   0  0  0  0  0  0  0  0  0  0  0  0
   -6.7985    2.5553  -21.4113 H   0  0  0  0  0  0  0  0  0  0  0  0
   -8.0228    3.8433  -21.0542 H   0  0  0  0  0  0  0  0  0  0  0  0
  1  2  1  0
  2  3  1  0
  3  4  2  0
  3  5  1  0
  5  6  1  0
  6  7  1  0
  8  7  1  6
  8  9  1  0
  9 10  2  0
  9 11  1  0
 11 12  1  0
 12 13  2  0
 13 14  1  0
 14 15  2  0
 15 16  1  0
 16 17  2  0
 17 18  1  0
 18 19  2  0
 19 20  1  0
 20 21  2  0
 20 22  1  0
 19 23  1  0
 18 24  1  0
 17 25  1  0
 15 26  1  0
 13 27  1  0
 11 28  1  0
 28 29  1  0
 29 30  1  0
 30 31  1  0
 31 32  1  0
 32 33  1  0
 33 34  1  0
 33 35  1  0
 33 36  1  0
 32 37  1  0
 37 38  1  0
 37 39  1  0
 37 40  1  0
 32 41  1  0
 30 42  1  0
 30 43  1  0
 29 44  1  1
 28 45  1  0
 28 46  1  0
  8 47  1  0
 47 48  2  0
 48 49  1  0
 49 50  1  0
 49 51  2  0
 51 52  1  0
 52 53  2  0
 53 54  1  0
 54 55  2  0
 52 56  1  0
 51 57  1  0
 48 58  1  0
  7 59  1  0
  7 60  1  0
  5 61  1  0
  5 62  1  0
  2 63  1  0
  1 64  1  0
  1 65  1  0
  1 66  1  0
 54  6  1  0
 29  8  1  0
 53 47  1  0
 21 12  1  0
 21 16  1  0
M  END
>  <cnnaffinities>  (48) 
[6.58138, 6.58769, 6.19306, 6.43498, 6.40962, 6.38677]

>  <score>  (48) 
6.58138

>  <index>  (48) 
50

>  <Smiles>  (48) 
C(N(C(=O)C(N1C([C@@]2(C(=O)N(c3c(nc(c4c(c(c(c(c34)[H])[H])[H])[H])[H])[H])C([C@@]2(C(OC(C([H])([H])[H])(C([H])([H])[H])[H])([H])[H])[H])([H])[H])c2c(c(F)c(c(c2C1=O)[H])[H])[H])([H])[H])([H])[H])[H])([H])([H])[H]

>  <h>  (48) 
<NA>

>  <Training>  (48) 
True

>  <Success>  (48) 
True

>  <enamine_searched>  (48) 
False

>  <enamine_id>  (48) 
nan

$$$$

     RDKit          3D

 50 52  0  0  0  0  0  0  0  0999 V2000
  -11.5576   -1.0098  -24.4948 C   0  0  0  0  0  0  0  0  0  0  0  0
  -10.8454   -0.0537  -23.9098 C   0  0  0  0  0  0  0  0  0  0  0  0
   -9.3459   -0.0544  -24.0861 C   0  0  0  0  0  0  0  0  0  0  0  0
   -8.6302   -0.9699  -23.1651 N   0  0  0  0  0  0  0  0  0  0  0  0
   -7.9458   -0.3618  -22.1195 C   0  0  0  0  0  0  0  0  0  0  0  0
   -7.7494    0.8387  -22.0723 O   0  0  0  0  0  0  0  0  0  0  0  0
   -7.4127   -1.2436  -21.2011 N   0  0  0  0  0  0  0  0  0  0  0  0
   -6.6032   -0.7736  -20.1521 C   0  0  0  0  0  0  0  0  0  0  0  0
   -6.8860   -1.1048  -18.8509 C   0  0  0  0  0  0  0  0  0  0  0  0
   -6.2051   -0.6274  -17.7801 N   0  0  0  0  0  0  0  0  0  0  0  0
   -5.1997    0.1834  -18.0130 C   0  0  0  0  0  0  0  0  0  0  0  0
   -4.7666    0.5597  -19.3132 C   0  0  0  0  0  0  0  0  0  0  0  0
   -3.6569    1.4190  -19.5247 C   0  0  0  0  0  0  0  0  0  0  0  0
   -3.2764    1.7677  -20.7935 C   0  0  0  0  0  0  0  0  0  0  0  0
   -3.9814    1.2602  -21.9053 C   0  0  0  0  0  0  0  0  0  0  0  0
   -5.0344    0.4008  -21.7293 C   0  0  0  0  0  0  0  0  0  0  0  0
   -5.4776    0.0613  -20.4230 C   0  0  0  0  0  0  0  0  0  0  0  0
   -5.5270   -0.0203  -22.5946 H   0  0  0  0  0  0  0  0  0  0  0  0
   -3.6864    1.5343  -22.9131 H   0  0  0  0  0  0  0  0  0  0  0  0
   -2.4288    2.4264  -20.9596 H   0  0  0  0  0  0  0  0  0  0  0  0
   -3.1223    1.7933  -18.6577 H   0  0  0  0  0  0  0  0  0  0  0  0
   -4.6682    0.5803  -17.1489 H   0  0  0  0  0  0  0  0  0  0  0  0
   -7.7232   -1.7637  -18.6163 H   0  0  0  0  0  0  0  0  0  0  0  0
   -7.8159   -2.1693  -21.1178 H   0  0  0  0  0  0  0  0  0  0  0  0
   -9.2014   -2.2675  -22.9557 C   0  0  0  0  0  0  0  0  0  0  0  0
   -8.9088   -3.3516  -23.7827 C   0  0  0  0  0  0  0  0  0  0  0  0
   -9.7089   -4.4896  -23.6990 C   0  0  0  0  0  0  0  0  0  0  0  0
  -10.8248   -4.5241  -22.8658 C   0  0  0  0  0  0  0  0  0  0  0  0
  -11.0771   -3.4328  -22.0402 C   0  0  0  0  0  0  0  0  0  0  0  0
  -12.5741   -3.2914  -21.1573 Cl  0  0  0  0  0  0  0  0  0  0  0  0
  -10.1977   -2.3637  -21.9874 C   0  0  0  0  0  0  0  0  0  0  0  0
  -10.3850   -1.5355  -21.3036 H   0  0  0  0  0  0  0  0  0  0  0  0
  -11.4980   -5.3723  -22.8854 H   0  0  0  0  0  0  0  0  0  0  0  0
   -9.4843   -5.3576  -24.3169 H   0  0  0  0  0  0  0  0  0  0  0  0
   -8.0836   -3.2965  -24.4915 H   0  0  0  0  0  0  0  0  0  0  0  0
   -8.9158    0.9360  -23.9116 H   0  0  0  0  0  0  0  0  0  0  0  0
   -9.1226   -0.3634  -25.1276 H   0  0  0  0  0  0  0  0  0  0  0  0
  -11.5290    0.9468  -23.0253 C   0  0  0  0  0  0  0  0  0  0  0  0
  -10.9744    1.5050  -22.0806 O   0  0  0  0  0  0  0  0  0  0  0  0
  -12.7673    1.1747  -23.3955 N   0  0  0  0  0  0  0  0  0  0  0  0
  -13.7947    1.7486  -22.5496 C   0  0  0  0  0  0  0  0  0  0  0  0
  -13.6061    1.9983  -22.5653 C   0  0  0  0  0  0  0  0  0  0  0  0
  -14.5398    2.4935  -21.8421 H   0  0  0  0  0  0  0  0  0  0  0  0
  -13.2115    1.5850  -21.5037 H   0  0  0  0  0  0  0  0  0  0  0  0
  -14.8306    0.5811  -22.3858 H   0  0  0  0  0  0  0  0  0  0  0  0
  -14.3721    2.3143  -23.4576 H   0  0  0  0  0  0  0  0  0  0  0  0
  -12.8848    3.3801  -22.4592 H   0  0  0  0  0  0  0  0  0  0  0  0
  -13.0911    0.6646  -24.1886 H   0  0  0  0  0  0  0  0  0  0  0  0
  -12.6344   -1.1258  -24.3981 H   0  0  0  0  0  0  0  0  0  0  0  0
  -11.0269   -1.7931  -25.0226 H   0  0  0  0  0  0  0  0  0  0  0  0
  1  2  2  0
  2  3  1  0
  3  4  1  0
  4  5  1  0
  5  6  2  0
  5  7  1  0
  7  8  1  0
  8  9  2  0
  9 10  1  0
 10 11  2  0
 11 12  1  0
 12 13  2  0
 13 14  1  0
 14 15  2  0
 15 16  1  0
 16 17  2  0
 16 18  1  0
 15 19  1  0
 14 20  1  0
 13 21  1  0
 11 22  1  0
  9 23  1  0
  7 24  1  0
  4 25  1  0
 25 26  2  0
 26 27  1  0
 27 28  2  0
 28 29  1  0
 29 30  1  0
 29 31  2  0
 31 32  1  0
 28 33  1  0
 27 34  1  0
 26 35  1  0
  3 36  1  0
  3 37  1  0
  2 38  1  0
 38 39  2  0
 38 40  1  0
 40 41  1  0
 41 42  1  0
 42 43  1  0
 42 44  1  0
 42 45  1  0
 41 46  1  0
 41 47  1  0
 40 48  1  0
  1 49  1  0
  1 50  1  0
 17  8  1  0
 31 25  1  0
 17 12  1  0
M  END
>  <cnnaffinities>  (49) 
[5.30895]

>  <score>  (49) 
5.30895

>  <index>  (49) 
51

>  <Smiles>  (49) 
C(=C(C(N(C(=O)N(c1c(nc(c2c(c(c(c(c12)[H])[H])[H])[H])[H])[H])[H])c1c(c(c(c(Cl)c1[H])[H])[H])[H])([H])[H])C(=O)N(C(C([H])([H])[H])([H])[H])[H])([H])[H]

>  <h>  (49) 
<NA>

>  <Training>  (49) 
True

>  <Success>  (49) 
True

>  <enamine_searched>  (49) 
False

>  <enamine_id>  (49) 
nan

$$$$

     RDKit          3D

 57 60  0  0  0  0  0  0  0  0999 V2000
  -15.1368    3.5653  -21.1235 C   0  0  0  0  0  0  0  0  0  0  0  0
  -15.1307    3.1413  -22.5903 C   0  0  0  0  0  0  0  0  0  0  0  0
  -13.7088    3.1611  -23.0795 C   0  0  0  0  0  0  0  0  0  0  0  0
  -13.1822    4.2109  -23.3976 O   0  0  0  0  0  0  0  0  0  0  0  0
  -13.0494    1.9573  -23.0658 N   0  0  0  0  0  0  0  0  0  0  0  0
  -11.7530    1.7619  -23.5877 C   0  0  0  0  0  0  0  0  0  0  0  0
  -11.2554    2.6316  -24.5561 C   0  0  0  0  0  0  0  0  0  0  0  0
   -9.9925    2.4261  -25.0803 C   0  0  0  0  0  0  0  0  0  0  0  0
   -9.2063    1.3754  -24.6400 C   0  0  0  0  0  0  0  0  0  0  0  0
   -9.6835    0.5482  -23.6296 C   0  0  0  0  0  0  0  0  0  0  0  0
   -8.8175   -0.4605  -23.1204 N   0  0  0  0  0  0  0  0  0  0  0  0
   -8.4218   -1.5500  -24.0027 C   0  0  0  0  0  0  0  0  0  0  0  0
   -9.0185   -2.8686  -23.5621 C   0  0  0  0  0  0  0  0  0  0  0  0
  -10.4071   -2.9426  -23.4323 C   0  0  0  0  0  0  0  0  0  0  0  0
  -11.0203   -4.1423  -23.0934 C   0  0  0  0  0  0  0  0  0  0  0  0
  -10.2446   -5.2727  -22.8536 C   0  0  0  0  0  0  0  0  0  0  0  0
   -8.8578   -5.1876  -22.9021 C   0  0  0  0  0  0  0  0  0  0  0  0
   -8.2459   -3.9912  -23.2676 C   0  0  0  0  0  0  0  0  0  0  0  0
   -7.1573   -3.9460  -23.3259 H   0  0  0  0  0  0  0  0  0  0  0  0
   -8.2500   -6.0522  -22.6459 H   0  0  0  0  0  0  0  0  0  0  0  0
  -10.7134   -6.2264  -22.6512 H   0  0  0  0  0  0  0  0  0  0  0  0
  -12.1041   -4.1997  -23.0272 H   0  0  0  0  0  0  0  0  0  0  0  0
  -11.0119   -2.0548  -23.6240 H   0  0  0  0  0  0  0  0  0  0  0  0
   -8.8190   -1.2948  -24.9894 H   0  0  0  0  0  0  0  0  0  0  0  0
   -7.3272   -1.5976  -24.0966 H   0  0  0  0  0  0  0  0  0  0  0  0
   -8.4609   -0.3529  -21.7942 C   0  0  0  0  0  0  0  0  0  0  0  0
   -8.9235    0.5101  -21.0684 O   0  0  0  0  0  0  0  0  0  0  0  0
   -7.4450   -1.3633  -21.2758 C   0  0  0  0  0  0  0  0  0  0  0  0
   -6.5979   -0.8015  -20.1871 C   0  0  0  0  0  0  0  0  0  0  0  0
   -6.9104   -1.0594  -18.8816 C   0  0  0  0  0  0  0  0  0  0  0  0
   -6.2361   -0.5808  -17.8083 N   0  0  0  0  0  0  0  0  0  0  0  0
   -5.2073    0.1929  -18.0571 C   0  0  0  0  0  0  0  0  0  0  0  0
   -4.7730    0.5548  -19.3618 C   0  0  0  0  0  0  0  0  0  0  0  0
   -3.6453    1.3878  -19.5755 C   0  0  0  0  0  0  0  0  0  0  0  0
   -3.2688    1.7374  -20.8423 C   0  0  0  0  0  0  0  0  0  0  0  0
   -4.0117    1.2790  -21.9534 C   0  0  0  0  0  0  0  0  0  0  0  0
   -5.0986    0.4592  -21.7747 C   0  0  0  0  0  0  0  0  0  0  0  0
   -5.5021    0.0633  -20.4696 C   0  0  0  0  0  0  0  0  0  0  0  0
   -5.6355    0.1001  -22.6479 H   0  0  0  0  0  0  0  0  0  0  0  0
   -3.7008    1.5575  -22.9578 H   0  0  0  0  0  0  0  0  0  0  0  0
   -2.4008    2.3708  -21.0069 H   0  0  0  0  0  0  0  0  0  0  0  0
   -3.0919    1.7452  -18.7103 H   0  0  0  0  0  0  0  0  0  0  0  0
   -4.6618    0.5791  -17.1957 H   0  0  0  0  0  0  0  0  0  0  0  0
   -7.7637   -1.6995  -18.6530 H   0  0  0  0  0  0  0  0  0  0  0  0
   -8.0305   -2.2097  -20.8987 H   0  0  0  0  0  0  0  0  0  0  0  0
   -6.8315   -1.7350  -22.0986 H   0  0  0  0  0  0  0  0  0  0  0  0
  -10.9696    0.7032  -23.1219 C   0  0  0  0  0  0  0  0  0  0  0  0
  -11.3199    0.0415  -22.3299 H   0  0  0  0  0  0  0  0  0  0  0  0
   -8.2092    1.2120  -25.0383 H   0  0  0  0  0  0  0  0  0  0  0  0
   -9.6330    3.0937  -25.8543 H   0  0  0  0  0  0  0  0  0  0  0  0
  -11.8377    3.4933  -24.8432 H   0  0  0  0  0  0  0  0  0  0  0  0
  -13.5226    1.1560  -22.6780 H   0  0  0  0  0  0  0  0  0  0  0  0
  -15.6752    3.8717  -23.1958 H   0  0  0  0  0  0  0  0  0  0  0  0
  -15.5808    2.1580  -22.7451 H   0  0  0  0  0  0  0  0  0  0  0  0
  -14.4602    2.9502  -20.5211 H   0  0  0  0  0  0  0  0  0  0  0  0
  -14.7955    4.6000  -21.0486 H   0  0  0  0  0  0  0  0  0  0  0  0
  -16.1423    3.4946  -20.7083 H   0  0  0  0  0  0  0  0  0  0  0  0
  1  2  1  0
  2  3  1  0
  3  4  2  0
  3  5  1  0
  5  6  1  0
  6  7  2  0
  7  8  1  0
  8  9  2  0
  9 10  1  0
 10 11  1  0
 11 12  1  0
 12 13  1  0
 13 14  2  0
 14 15  1  0
 15 16  2  0
 16 17  1  0
 17 18  2  0
 18 19  1  0
 17 20  1  0
 16 21  1  0
 15 22  1  0
 14 23  1  0
 12 24  1  0
 12 25  1  0
 11 26  1  0
 26 27  2  0
 26 28  1  0
 28 29  1  0
 29 30  2  0
 30 31  1  0
 31 32  2  0
 32 33  1  0
 33 34  2  0
 34 35  1  0
 35 36  2  0
 36 37  1  0
 37 38  2  0
 37 39  1  0
 36 40  1  0
 35 41  1  0
 34 42  1  0
 32 43  1  0
 30 44  1  0
 28 45  1  0
 28 46  1  0
 10 47  2  0
 47 48  1  0
  9 49  1  0
  8 50  1  0
  7 51  1  0
  5 52  1  0
  2 53  1  0
  2 54  1  0
  1 55  1  0
  1 56  1  0
  1 57  1  0
 47  6  1  0
 18 13  1  0
 38 29  1  0
 38 33  1  0
M  END
>  <cnnaffinities>  (50) 
[6.00987]

>  <score>  (50) 
6.00987

>  <index>  (50) 
52

>  <Smiles>  (50) 
C(C(C(=O)N(c1c(c(c(c(N(C(c2c(c(c(c(c2[H])[H])[H])[H])[H])([H])[H])C(=O)C(c2c(nc(c3c(c(c(c(c23)[H])[H])[H])[H])[H])[H])([H])[H])c1[H])[H])[H])[H])[H])([H])[H])([H])([H])[H]

>  <h>  (50) 
<NA>

>  <Training>  (50) 
True

>  <Success>  (50) 
True

>  <enamine_searched>  (50) 
False

>  <enamine_id>  (50) 
nan

$$$$

     RDKit          3D

 59 63  0  0  0  0  0  0  0  0999 V2000
   -7.7154    4.3941  -22.3623 C   0  0  0  0  0  0  0  0  0  0  0  0
   -6.7950    3.4674  -23.1290 C   0  0  0  0  0  0  0  0  0  0  0  0
   -7.5706    2.7154  -24.0933 N   0  0  0  0  0  0  0  0  0  0  0  0
   -6.9916    1.7048  -24.7706 C   0  0  0  0  0  0  0  0  0  0  0  0
   -5.7945    1.4560  -24.6918 O   0  0  0  0  0  0  0  0  0  0  0  0
   -7.9482    0.8943  -25.6507 C   0  0  0  0  0  0  0  0  0  0  0  0
   -8.8984    0.1515  -24.8373 N   0  0  0  0  0  0  0  0  0  0  0  0
   -8.5344   -1.1771  -24.3606 C   0  0  0  0  0  0  0  0  0  0  0  0
   -9.0670   -1.4490  -22.9265 C   0  0  2  0  0  0  0  0  0  0  0  0
   -8.3280   -0.5225  -21.9295 C   0  0  0  0  0  0  0  0  0  0  0  0
   -8.4763    0.6751  -21.7755 O   0  0  0  0  0  0  0  0  0  0  0  0
   -7.4576   -1.2866  -21.1975 N   0  0  0  0  0  0  0  0  0  0  0  0
   -6.6440   -0.7478  -20.1792 C   0  0  0  0  0  0  0  0  0  0  0  0
   -6.9115   -1.0658  -18.8728 C   0  0  0  0  0  0  0  0  0  0  0  0
   -6.2161   -0.5976  -17.8127 N   0  0  0  0  0  0  0  0  0  0  0  0
   -5.1997    0.1916  -18.0678 C   0  0  0  0  0  0  0  0  0  0  0  0
   -4.7847    0.5613  -19.3779 C   0  0  0  0  0  0  0  0  0  0  0  0
   -3.6492    1.3861  -19.5936 C   0  0  0  0  0  0  0  0  0  0  0  0
   -3.2656    1.7241  -20.8618 C   0  0  0  0  0  0  0  0  0  0  0  0
   -4.0052    1.2594  -21.9724 C   0  0  0  0  0  0  0  0  0  0  0  0
   -5.0959    0.4434  -21.7919 C   0  0  0  0  0  0  0  0  0  0  0  0
   -5.5251    0.0838  -20.4830 C   0  0  0  0  0  0  0  0  0  0  0  0
   -5.6267    0.0833  -22.6684 H   0  0  0  0  0  0  0  0  0  0  0  0
   -3.7195    1.5415  -22.9821 H   0  0  0  0  0  0  0  0  0  0  0  0
   -2.3928    2.3486  -21.0249 H   0  0  0  0  0  0  0  0  0  0  0  0
   -3.1001    1.7389  -18.7263 H   0  0  0  0  0  0  0  0  0  0  0  0
   -4.6409    0.5743  -17.2145 H   0  0  0  0  0  0  0  0  0  0  0  0
   -7.7484   -1.7257  -18.6442 H   0  0  0  0  0  0  0  0  0  0  0  0
   -7.4199   -2.6795  -21.5644 C   0  0  0  0  0  0  0  0  0  0  0  0
   -8.6738   -2.8724  -22.4306 C   0  0  2  0  0  0  0  0  0  0  0  0
   -8.4608   -3.9411  -23.5012 C   0  0  0  0  0  0  0  0  0  0  0  0
   -8.2589   -4.9131  -23.0367 H   0  0  0  0  0  0  0  0  0  0  0  0
   -7.5972   -3.6952  -24.1309 H   0  0  0  0  0  0  0  0  0  0  0  0
   -9.3347   -4.0472  -24.1528 H   0  0  0  0  0  0  0  0  0  0  0  0
   -9.4643   -3.2257  -21.7669 H   0  0  0  0  0  0  0  0  0  0  0  0
   -6.5002   -2.9308  -22.1133 H   0  0  0  0  0  0  0  0  0  0  0  0
   -7.4319   -3.2990  -20.6679 H   0  0  0  0  0  0  0  0  0  0  0  0
  -10.5506   -1.1330  -22.9169 C   0  0  0  0  0  0  0  0  0  0  0  0
  -11.4613   -1.8047  -22.0983 C   0  0  0  0  0  0  0  0  0  0  0  0
  -12.8080   -1.5120  -22.1904 C   0  0  0  0  0  0  0  0  0  0  0  0
  -13.9206   -2.4121  -21.2029 Cl  0  0  0  0  0  0  0  0  0  0  0  0
  -13.2940   -0.5123  -23.0309 C   0  0  0  0  0  0  0  0  0  0  0  0
  -12.3877    0.2227  -23.7718 C   0  0  0  0  0  0  0  0  0  0  0  0
  -11.0246   -0.0675  -23.6948 C   0  0  0  0  0  0  0  0  0  0  0  0
  -10.0580    0.7636  -24.4720 C   0  0  0  0  0  0  0  0  0  0  0  0
  -10.3129    1.9348  -24.7670 O   0  0  0  0  0  0  0  0  0  0  0  0
  -12.7375    1.0054  -24.4379 H   0  0  0  0  0  0  0  0  0  0  0  0
  -14.3630   -0.3418  -23.0980 H   0  0  0  0  0  0  0  0  0  0  0  0
  -11.1390   -2.5528  -21.3823 H   0  0  0  0  0  0  0  0  0  0  0  0
   -7.4425   -1.2584  -24.3540 H   0  0  0  0  0  0  0  0  0  0  0  0
   -8.9375   -1.9263  -25.0539 H   0  0  0  0  0  0  0  0  0  0  0  0
   -7.3611    0.2221  -26.2807 H   0  0  0  0  0  0  0  0  0  0  0  0
   -8.5094    1.5595  -26.3136 H   0  0  0  0  0  0  0  0  0  0  0  0
   -8.5815    2.7812  -24.0707 H   0  0  0  0  0  0  0  0  0  0  0  0
   -6.2911    2.7645  -22.4520 H   0  0  0  0  0  0  0  0  0  0  0  0
   -6.0102    4.0095  -23.6645 H   0  0  0  0  0  0  0  0  0  0  0  0
   -8.4788    3.7887  -21.8695 H   0  0  0  0  0  0  0  0  0  0  0  0
   -8.2089    5.1070  -23.0326 H   0  0  0  0  0  0  0  0  0  0  0  0
   -7.1752    4.9566  -21.5955 H   0  0  0  0  0  0  0  0  0  0  0  0
  1  2  1  0
  2  3  1  0
  3  4  1  0
  4  5  2  0
  4  6  1  0
  6  7  1  0
  7  8  1  0
  9  8  1  6
  9 10  1  0
 10 11  2  0
 10 12  1  0
 12 13  1  0
 13 14  2  0
 14 15  1  0
 15 16  2  0
 16 17  1  0
 17 18  2  0
 18 19  1  0
 19 20  2  0
 20 21  1  0
 21 22  2  0
 21 23  1  0
 20 24  1  0
 19 25  1  0
 18 26  1  0
 16 27  1  0
 14 28  1  0
 12 29  1  0
 29 30  1  0
 30 31  1  0
 31 32  1  0
 31 33  1  0
 31 34  1  0
 30 35  1  1
 29 36  1  0
 29 37  1  0
  9 38  1  0
 38 39  2  0
 39 40  1  0
 40 41  1  0
 40 42  2  0
 42 43  1  0
 43 44  2  0
 44 45  1  0
 45 46  2  0
 43 47  1  0
 42 48  1  0
 39 49  1  0
  8 50  1  0
  8 51  1  0
  6 52  1  0
  6 53  1  0
  3 54  1  0
  2 55  1  0
  2 56  1  0
  1 57  1  0
  1 58  1  0
  1 59  1  0
 45  7  1  0
 30  9  1  0
 44 38  1  0
 22 13  1  0
 22 17  1  0
M  END
>  <cnnaffinities>  (51) 
[6.27414]

>  <score>  (51) 
6.27414

>  <index>  (51) 
53

>  <Smiles>  (51) 
C(C(N(C(=O)C(N1C([C@@]2(C(=O)N(c3c(nc(c4c(c(c(c(c34)[H])[H])[H])[H])[H])[H])C([C@@]2(C([H])([H])[H])[H])([H])[H])c2c(c(Cl)c(c(c2C1=O)[H])[H])[H])([H])[H])([H])[H])[H])([H])[H])([H])([H])[H]

>  <h>  (51) 
<NA>

>  <Training>  (51) 
True

>  <Success>  (51) 
True

>  <enamine_searched>  (51) 
False

>  <enamine_id>  (51) 
nan

$$$$

     RDKit          3D

 40 43  0  0  0  0  0  0  0  0999 V2000
  -10.3058   -2.6234  -22.7696 C   0  0  0  0  0  0  0  0  0  0  0  0
   -8.9565   -2.2295  -22.4232 N   0  0  0  0  0  0  0  0  0  0  0  0
   -7.7558   -2.6845  -22.8916 C   0  0  0  0  0  0  0  0  0  0  0  0
   -7.6558   -3.6063  -24.0485 C   0  0  0  0  0  0  0  0  0  0  0  0
   -7.9066   -5.0123  -23.5847 C   0  0  0  0  0  0  0  0  0  0  0  0
   -9.0995   -5.6635  -23.8616 C   0  0  0  0  0  0  0  0  0  0  0  0
   -9.2787   -6.9949  -23.5072 C   0  0  0  0  0  0  0  0  0  0  0  0
   -8.2302   -7.6717  -22.8870 C   0  0  0  0  0  0  0  0  0  0  0  0
   -7.0870   -6.9838  -22.4737 C   0  0  0  0  0  0  0  0  0  0  0  0
   -6.9341   -5.6506  -22.8266 C   0  0  0  0  0  0  0  0  0  0  0  0
   -6.0546   -5.0919  -22.5278 H   0  0  0  0  0  0  0  0  0  0  0  0
   -6.3228   -7.4815  -21.8772 H   0  0  0  0  0  0  0  0  0  0  0  0
   -8.2715   -8.7443  -22.7823 H   0  0  0  0  0  0  0  0  0  0  0  0
  -10.2272   -7.4941  -23.7127 H   0  0  0  0  0  0  0  0  0  0  0  0
   -9.8925   -5.1243  -24.3692 H   0  0  0  0  0  0  0  0  0  0  0  0
   -8.3526   -3.3316  -24.8440 H   0  0  0  0  0  0  0  0  0  0  0  0
   -6.6669   -3.5068  -24.4954 H   0  0  0  0  0  0  0  0  0  0  0  0
   -6.7564   -2.2658  -22.1742 N   0  0  0  0  0  0  0  0  0  0  0  0
   -7.3253   -1.4101  -21.2647 N   0  0  0  0  0  0  0  0  0  0  0  0
   -6.5972   -0.8239  -20.2056 C   0  0  0  0  0  0  0  0  0  0  0  0
   -6.9255   -1.0688  -18.8899 C   0  0  0  0  0  0  0  0  0  0  0  0
   -6.2250   -0.5864  -17.8332 N   0  0  0  0  0  0  0  0  0  0  0  0
   -5.1968    0.1828  -18.1008 C   0  0  0  0  0  0  0  0  0  0  0  0
   -4.7582    0.5157  -19.4115 C   0  0  0  0  0  0  0  0  0  0  0  0
   -3.6377    1.3595  -19.6271 C   0  0  0  0  0  0  0  0  0  0  0  0
   -3.2603    1.6949  -20.8965 C   0  0  0  0  0  0  0  0  0  0  0  0
   -3.9948    1.2149  -22.0037 C   0  0  0  0  0  0  0  0  0  0  0  0
   -5.0696    0.3801  -21.8273 C   0  0  0  0  0  0  0  0  0  0  0  0
   -5.4767    0.0034  -20.5146 C   0  0  0  0  0  0  0  0  0  0  0  0
   -5.6048   -0.0191  -22.6837 H   0  0  0  0  0  0  0  0  0  0  0  0
   -3.6808    1.4759  -23.0104 H   0  0  0  0  0  0  0  0  0  0  0  0
   -2.3888    2.3214  -21.0664 H   0  0  0  0  0  0  0  0  0  0  0  0
   -3.1000    1.7260  -18.7576 H   0  0  0  0  0  0  0  0  0  0  0  0
   -4.6466    0.5985  -17.2567 H   0  0  0  0  0  0  0  0  0  0  0  0
   -7.7773   -1.7020  -18.6421 H   0  0  0  0  0  0  0  0  0  0  0  0
   -8.6832   -1.2519  -21.4718 C   0  0  0  0  0  0  0  0  0  0  0  0
   -9.4261   -0.4259  -20.9914 O   0  0  0  0  0  0  0  0  0  0  0  0
  -10.5720   -3.6098  -22.3641 H   0  0  0  0  0  0  0  0  0  0  0  0
  -10.9571   -1.8583  -22.3408 H   0  0  0  0  0  0  0  0  0  0  0  0
  -10.4267   -2.6477  -23.8568 H   0  0  0  0  0  0  0  0  0  0  0  0
  1  2  1  0
  2  3  1  0
  3  4  1  0
  4  5  1  0
  5  6  2  0
  6  7  1  0
  7  8  2  0
  8  9  1  0
  9 10  2  0
 10 11  1  0
  9 12  1  0
  8 13  1  0
  7 14  1  0
  6 15  1  0
  4 16  1  0
  4 17  1  0
  3 18  2  0
 18 19  1  0
 19 20  1  0
 20 21  2  0
 21 22  1  0
 22 23  2  0
 23 24  1  0
 24 25  2  0
 25 26  1  0
 26 27  2  0
 27 28  1  0
 28 29  2  0
 28 30  1  0
 27 31  1  0
 26 32  1  0
 25 33  1  0
 23 34  1  0
 21 35  1  0
 19 36  1  0
 36 37  2  0
  1 38  1  0
  1 39  1  0
  1 40  1  0
 36  2  1  0
 10  5  1  0
 29 20  1  0
 29 24  1  0
M  END
>  <cnnaffinities>  (52) 
[4.60405, 4.6042, 5.00585, 4.74416, 4.74407]

>  <score>  (52) 
4.60405

>  <index>  (52) 
54

>  <Smiles>  (52) 
C(n1c(C(c2c(c(c(c(c2[H])[H])[H])[H])[H])([H])[H])nn(c2c(nc(c3c(c(c(c(c23)[H])[H])[H])[H])[H])[H])c1=O)([H])([H])[H]

>  <h>  (52) 
<NA>

>  <Training>  (52) 
True

>  <Success>  (52) 
True

>  <enamine_searched>  (52) 
False

>  <enamine_id>  (52) 
nan

$$$$

     RDKit          3D

 61 66  0  0  0  0  0  0  0  0999 V2000
   -9.1699   -4.6127  -25.7880 C   0  0  0  0  0  0  0  0  0  0  0  0
   -9.3494   -3.9720  -24.5489 O   0  0  0  0  0  0  0  0  0  0  0  0
   -8.1294   -3.6228  -23.9474 C   0  0  0  0  0  0  0  0  0  0  0  0
   -8.4089   -2.8719  -22.6552 C   0  0  1  0  0  0  0  0  0  0  0  0
   -7.0985   -2.4621  -21.9628 C   0  0  0  0  0  0  0  0  0  0  0  0
   -7.4690   -1.2803  -21.2153 N   0  0  0  0  0  0  0  0  0  0  0  0
   -6.6711   -0.7462  -20.1734 C   0  0  0  0  0  0  0  0  0  0  0  0
   -6.9700   -1.0277  -18.8651 C   0  0  0  0  0  0  0  0  0  0  0  0
   -6.2511   -0.5790  -17.8077 N   0  0  0  0  0  0  0  0  0  0  0  0
   -5.2154    0.1865  -18.0555 C   0  0  0  0  0  0  0  0  0  0  0  0
   -4.7834    0.5469  -19.3639 C   0  0  0  0  0  0  0  0  0  0  0  0
   -3.6686    1.3970  -19.5921 C   0  0  0  0  0  0  0  0  0  0  0  0
   -3.3001    1.7338  -20.8669 C   0  0  0  0  0  0  0  0  0  0  0  0
   -4.0097    1.2141  -21.9698 C   0  0  0  0  0  0  0  0  0  0  0  0
   -5.0702    0.3595  -21.7693 C   0  0  0  0  0  0  0  0  0  0  0  0
   -5.5122    0.0387  -20.4619 C   0  0  0  0  0  0  0  0  0  0  0  0
   -5.6145   -0.0309  -22.6219 H   0  0  0  0  0  0  0  0  0  0  0  0
   -3.7371    1.5158  -22.9785 H   0  0  0  0  0  0  0  0  0  0  0  0
   -2.4685    2.4109  -21.0364 H   0  0  0  0  0  0  0  0  0  0  0  0
   -3.1369    1.7911  -18.7323 H   0  0  0  0  0  0  0  0  0  0  0  0
   -4.6510    0.5621  -17.2003 H   0  0  0  0  0  0  0  0  0  0  0  0
   -7.8236   -1.6603  -18.6289 H   0  0  0  0  0  0  0  0  0  0  0  0
   -8.6916   -0.7471  -21.5677 C   0  0  0  0  0  0  0  0  0  0  0  0
   -9.2187    0.1967  -21.0191 O   0  0  0  0  0  0  0  0  0  0  0  0
   -9.2447   -1.5574  -22.7718 C   0  0  1  0  0  0  0  0  0  0  0  0
   -8.9315   -0.8031  -24.0926 C   0  0  0  0  0  0  0  0  0  0  0  0
   -9.7128    0.4134  -24.2456 N   0  0  0  0  0  0  0  0  0  0  0  0
   -9.0713    1.6293  -24.7276 C   0  0  0  0  0  0  0  0  0  0  0  0
   -8.1659    2.2363  -23.7108 C   0  0  0  0  0  0  0  0  0  0  0  0
   -6.8161    2.2633  -23.5839 C   0  0  0  0  0  0  0  0  0  0  0  0
   -6.5306    3.0476  -22.4818 N   0  0  0  0  0  4  0  0  0  0  0  0
   -7.6741    3.4602  -21.9328 C   0  0  0  0  0  0  0  0  0  0  0  0
   -8.6819    2.9663  -22.6566 N   0  0  0  0  0  0  0  0  0  0  0  0
   -9.6467    2.9445  -22.3422 H   0  0  0  0  0  0  0  0  0  0  0  0
   -7.7697    4.1387  -21.1007 H   0  0  0  0  0  0  0  0  0  0  0  0
   -5.6098    3.1483  -22.0747 H   0  0  0  0  0  0  0  0  0  0  0  0
   -6.0438    1.7301  -24.1264 H   0  0  0  0  0  0  0  0  0  0  0  0
   -8.5231    1.4373  -25.6575 H   0  0  0  0  0  0  0  0  0  0  0  0
   -9.8918    2.3166  -24.9630 H   0  0  0  0  0  0  0  0  0  0  0  0
  -11.0698    0.3962  -24.0955 C   0  0  0  0  0  0  0  0  0  0  0  0
  -11.7955    1.2969  -24.5008 O   0  0  0  0  0  0  0  0  0  0  0  0
  -11.6076   -0.7828  -23.3452 C   0  0  0  0  0  0  0  0  0  0  0  0
  -12.9967   -0.8488  -23.2236 C   0  0  0  0  0  0  0  0  0  0  0  0
  -13.5591   -1.7252  -22.3243 C   0  0  0  0  0  0  0  0  0  0  0  0
  -12.7124   -2.5425  -21.5851 C   0  0  0  0  0  0  0  0  0  0  0  0
  -13.4364   -3.3743  -20.2527 Cl  0  0  0  0  0  0  0  0  0  0  0  0
  -11.3487   -2.6153  -21.8148 C   0  0  0  0  0  0  0  0  0  0  0  0
  -10.7582   -1.6975  -22.6931 C   0  0  0  0  0  0  0  0  0  0  0  0
  -10.7584   -3.3747  -21.3079 H   0  0  0  0  0  0  0  0  0  0  0  0
  -14.6247   -1.7631  -22.1315 H   0  0  0  0  0  0  0  0  0  0  0  0
  -13.6125   -0.1615  -23.7871 H   0  0  0  0  0  0  0  0  0  0  0  0
   -9.1637   -1.4683  -24.9283 H   0  0  0  0  0  0  0  0  0  0  0  0
   -7.8655   -0.5596  -24.1429 H   0  0  0  0  0  0  0  0  0  0  0  0
   -6.3115   -2.2448  -22.7034 H   0  0  0  0  0  0  0  0  0  0  0  0
   -6.7067   -3.2365  -21.2934 H   0  0  0  0  0  0  0  0  0  0  0  0
   -8.9524   -3.5470  -21.9917 H   0  0  0  0  0  0  0  0  0  0  0  0
   -7.5283   -2.9873  -24.6209 H   0  0  0  0  0  0  0  0  0  0  0  0
   -7.5247   -4.5242  -23.7424 H   0  0  0  0  0  0  0  0  0  0  0  0
   -8.5410   -5.5119  -25.6935 H   0  0  0  0  0  0  0  0  0  0  0  0
  -10.1569   -4.9078  -26.1473 H   0  0  0  0  0  0  0  0  0  0  0  0
   -8.7080   -3.9455  -26.5337 H   0  0  0  0  0  0  0  0  0  0  0  0
  1  2  1  0
  2  3  1  0
  3  4  1  0
  4  5  1  0
  5  6  1  0
  6  7  1  0
  7  8  2  0
  8  9  1  0
  9 10  2  0
 10 11  1  0
 11 12  2  0
 12 13  1  0
 13 14  2  0
 14 15  1  0
 15 16  2  0
 15 17  1  0
 14 18  1  0
 13 19  1  0
 12 20  1  0
 10 21  1  0
  8 22  1  0
  6 23  1  0
 23 24  2  0
 23 25  1  0
 25 26  1  6
 26 27  1  0
 27 28  1  0
 28 29  1  0
 29 30  2  0
 30 31  1  0
 31 32  2  0
 32 33  1  0
 33 34  1  0
 32 35  1  0
 31 36  1  0
 30 37  1  0
 28 38  1  0
 28 39  1  0
 27 40  1  0
 40 41  2  0
 40 42  1  0
 42 43  2  0
 43 44  1  0
 44 45  2  0
 45 46  1  0
 45 47  1  0
 47 48  2  0
 47 49  1  0
 44 50  1  0
 43 51  1  0
 26 52  1  0
 26 53  1  0
  5 54  1  0
  5 55  1  0
  4 56  1  1
  3 57  1  0
  3 58  1  0
  1 59  1  0
  1 60  1  0
  1 61  1  0
 25  4  1  0
 33 29  1  0
 48 42  1  0
 16  7  1  0
 48 25  1  0
 16 11  1  0
M  CHG  1  31   1
M  END
>  <cnnaffinities>  (53) 
[6.55384]

>  <score>  (53) 
6.55384

>  <index>  (53) 
55

>  <Smiles>  (53) 
C(OC([C@]1(C(N(c2c(nc(c3c(c(c(c(c23)[H])[H])[H])[H])[H])[H])C(=O)[C@]21C(N(C(c1c([n+](c(n1[H])[H])[H])[H])([H])[H])C(=O)c1c(c(c(Cl)c(c21)[H])[H])[H])([H])[H])([H])[H])[H])([H])[H])([H])([H])[H]

>  <h>  (53) 
<NA>

>  <Training>  (53) 
True

>  <Success>  (53) 
True

>  <enamine_searched>  (53) 
False

>  <enamine_id>  (53) 
nan

$$$$

     RDKit          3D

 57 62  0  0  0  0  0  0  0  0999 V2000
   -7.4431   -3.4638  -23.8147 C   0  0  0  0  0  0  0  0  0  0  0  0
   -8.3547   -2.8936  -22.7204 C   0  0  1  0  0  0  0  0  0  0  0  0
   -7.6435   -2.7325  -21.3607 C   0  0  0  0  0  0  0  0  0  0  0  0
   -7.3667   -1.3143  -21.2701 N   0  0  0  0  0  0  0  0  0  0  0  0
   -6.6029   -0.7609  -20.2182 C   0  0  0  0  0  0  0  0  0  0  0  0
   -6.8912   -1.0729  -18.9152 C   0  0  0  0  0  0  0  0  0  0  0  0
   -6.2160   -0.5977  -17.8427 N   0  0  0  0  0  0  0  0  0  0  0  0
   -5.1979    0.1960  -18.0745 C   0  0  0  0  0  0  0  0  0  0  0  0
   -4.7661    0.5704  -19.3777 C   0  0  0  0  0  0  0  0  0  0  0  0
   -3.6260    1.3954  -19.5784 C   0  0  0  0  0  0  0  0  0  0  0  0
   -3.2262    1.7275  -20.8435 C   0  0  0  0  0  0  0  0  0  0  0  0
   -3.9532    1.2621  -21.9586 C   0  0  0  0  0  0  0  0  0  0  0  0
   -5.0559    0.4605  -21.7933 C   0  0  0  0  0  0  0  0  0  0  0  0
   -5.4917    0.0945  -20.4923 C   0  0  0  0  0  0  0  0  0  0  0  0
   -5.5909    0.0999  -22.6642 H   0  0  0  0  0  0  0  0  0  0  0  0
   -3.6426    1.5353  -22.9642 H   0  0  0  0  0  0  0  0  0  0  0  0
   -2.3492    2.3471  -21.0032 H   0  0  0  0  0  0  0  0  0  0  0  0
   -3.0832    1.7491  -18.7074 H   0  0  0  0  0  0  0  0  0  0  0  0
   -4.6531    0.5760  -17.2088 H   0  0  0  0  0  0  0  0  0  0  0  0
   -7.7293   -1.7286  -18.6850 H   0  0  0  0  0  0  0  0  0  0  0  0
   -8.2511   -0.5594  -22.0127 C   0  0  0  0  0  0  0  0  0  0  0  0
   -8.4060    0.6354  -21.8919 O   0  0  0  0  0  0  0  0  0  0  0  0
   -8.9964   -1.4973  -22.9963 C   0  0  1  0  0  0  0  0  0  0  0  0
   -8.7939   -0.9946  -24.4498 C   0  0  0  0  0  0  0  0  0  0  0  0
   -9.4134    0.3013  -24.6446 N   0  0  0  0  0  0  0  0  0  0  0  0
   -8.6794    1.3969  -25.2548 C   0  0  0  0  0  0  0  0  0  0  0  0
   -8.0824    2.3624  -24.2671 C   0  0  0  0  0  0  0  0  0  0  0  0
   -6.7775    2.3039  -24.0059 N   0  0  0  0  0  0  0  0  0  0  0  0
   -6.3187    3.2892  -23.2284 C   0  0  0  0  0  0  0  0  0  0  0  0
   -7.1178    4.2967  -22.7223 C   0  0  0  0  0  0  0  0  0  0  0  0
   -8.4728    4.2144  -23.0179 C   0  0  0  0  0  0  0  0  0  0  0  0
   -8.9648    3.2365  -23.7642 N   0  0  0  0  0  0  0  0  0  0  0  0
   -9.1752    4.9740  -22.6713 H   0  0  0  0  0  0  0  0  0  0  0  0
   -6.7081    5.1198  -22.1464 H   0  0  0  0  0  0  0  0  0  0  0  0
   -5.2553    3.2658  -23.0058 H   0  0  0  0  0  0  0  0  0  0  0  0
   -9.3991    2.0073  -25.7921 H   0  0  0  0  0  0  0  0  0  0  0  0
   -7.9339    0.9982  -25.9452 H   0  0  0  0  0  0  0  0  0  0  0  0
  -10.7101    0.5245  -24.2774 C   0  0  0  0  0  0  0  0  0  0  0  0
  -11.3536    1.4807  -24.6958 O   0  0  0  0  0  0  0  0  0  0  0  0
  -11.2902   -0.4596  -23.3087 C   0  0  0  0  0  0  0  0  0  0  0  0
  -12.6578   -0.3598  -23.0396 C   0  0  0  0  0  0  0  0  0  0  0  0
  -13.2937   -1.3219  -22.2801 C   0  0  0  0  0  0  0  0  0  0  0  0
  -12.5114   -2.3309  -21.7292 C   0  0  0  0  0  0  0  0  0  0  0  0
  -13.1223   -3.2577  -20.9736 F   0  0  0  0  0  0  0  0  0  0  0  0
  -11.1475   -2.4115  -21.9183 C   0  0  0  0  0  0  0  0  0  0  0  0
  -10.5033   -1.4658  -22.7257 C   0  0  0  0  0  0  0  0  0  0  0  0
  -10.6223   -3.2282  -21.4325 H   0  0  0  0  0  0  0  0  0  0  0  0
  -14.3609   -1.3135  -22.0981 H   0  0  0  0  0  0  0  0  0  0  0  0
  -13.2113    0.4681  -23.4691 H   0  0  0  0  0  0  0  0  0  0  0  0
   -9.2292   -1.7406  -25.1341 H   0  0  0  0  0  0  0  0  0  0  0  0
   -7.7301   -0.9011  -24.6749 H   0  0  0  0  0  0  0  0  0  0  0  0
   -6.7113   -3.3001  -21.2843 H   0  0  0  0  0  0  0  0  0  0  0  0
   -8.3118   -3.0430  -20.5455 H   0  0  0  0  0  0  0  0  0  0  0  0
   -9.1501   -3.6344  -22.6217 H   0  0  0  0  0  0  0  0  0  0  0  0
   -6.5745   -2.8291  -24.0229 H   0  0  0  0  0  0  0  0  0  0  0  0
   -8.0063   -3.5941  -24.7450 H   0  0  0  0  0  0  0  0  0  0  0  0
   -7.0819   -4.4563  -23.5176 H   0  0  0  0  0  0  0  0  0  0  0  0
  1  2  1  0
  2  3  1  0
  3  4  1  0
  4  5  1  0
  5  6  2  0
  6  7  1  0
  7  8  2  0
  8  9  1  0
  9 10  2  0
 10 11  1  0
 11 12  2  0
 12 13  1  0
 13 14  2  0
 13 15  1  0
 12 16  1  0
 11 17  1  0
 10 18  1  0
  8 19  1  0
  6 20  1  0
  4 21  1  0
 21 22  2  0
 21 23  1  0
 23 24  1  6
 24 25  1  0
 25 26  1  0
 26 27  1  0
 27 28  2  0
 28 29  1  0
 29 30  2  0
 30 31  1  0
 31 32  2  0
 31 33  1  0
 30 34  1  0
 29 35  1  0
 26 36  1  0
 26 37  1  0
 25 38  1  0
 38 39  2  0
 38 40  1  0
 40 41  2  0
 41 42  1  0
 42 43  2  0
 43 44  1  0
 43 45  1  0
 45 46  2  0
 45 47  1  0
 42 48  1  0
 41 49  1  0
 24 50  1  0
 24 51  1  0
  3 52  1  0
  3 53  1  0
  2 54  1  1
  1 55  1  0
  1 56  1  0
  1 57  1  0
 23  2  1  0
 32 27  1  0
 46 40  1  0
 14  5  1  0
 46 23  1  0
 14  9  1  0
M  END
>  <cnnaffinities>  (54) 
[6.33327]

>  <score>  (54) 
6.33327

>  <index>  (54) 
56

>  <Smiles>  (54) 
C([C@]1(C(N(c2c(nc(c3c(c(c(c(c23)[H])[H])[H])[H])[H])[H])C(=O)[C@]21C(N(C(c1nc(c(c(n1)[H])[H])[H])([H])[H])C(=O)c1c(c(c(F)c(c21)[H])[H])[H])([H])[H])([H])[H])[H])([H])([H])[H]

>  <h>  (54) 
<NA>

>  <Training>  (54) 
True

>  <Success>  (54) 
True

>  <enamine_searched>  (54) 
False

>  <enamine_id>  (54) 
nan

$$$$

     RDKit          3D

 59 63  0  0  0  0  0  0  0  0999 V2000
   -7.3784    3.3250  -21.9649 C   0  0  0  0  0  0  0  0  0  0  0  0
   -8.2648    2.8502  -23.0156 N   0  0  0  0  0  0  0  0  0  0  0  0
   -7.6955    2.1343  -24.0307 C   0  0  0  0  0  0  0  0  0  0  0  0
   -6.4895    1.9732  -24.1343 O   0  0  0  0  0  0  0  0  0  0  0  0
   -8.6696    1.5396  -25.0377 C   0  0  0  0  0  0  0  0  0  0  0  0
   -9.3777    0.4254  -24.4435 N   0  0  0  0  0  0  0  0  0  0  0  0
   -8.6548   -0.8123  -24.1836 C   0  0  0  0  0  0  0  0  0  0  0  0
   -9.1012   -1.5148  -22.8654 C   0  0  2  0  0  0  0  0  0  0  0  0
   -8.5523   -0.7419  -21.6390 C   0  0  0  0  0  0  0  0  0  0  0  0
   -9.0113    0.2735  -21.1462 O   0  0  0  0  0  0  0  0  0  0  0  0
   -7.4192   -1.3732  -21.1901 N   0  0  0  0  0  0  0  0  0  0  0  0
   -6.6173   -0.8006  -20.1689 C   0  0  0  0  0  0  0  0  0  0  0  0
   -6.9273   -1.0475  -18.8586 C   0  0  0  0  0  0  0  0  0  0  0  0
   -6.2235   -0.5705  -17.8049 N   0  0  0  0  0  0  0  0  0  0  0  0
   -5.1944    0.1977  -18.0682 C   0  0  0  0  0  0  0  0  0  0  0  0
   -4.7692    0.5463  -19.3810 C   0  0  0  0  0  0  0  0  0  0  0  0
   -3.6413    1.3754  -19.6175 C   0  0  0  0  0  0  0  0  0  0  0  0
   -3.2742    1.7051  -20.8921 C   0  0  0  0  0  0  0  0  0  0  0  0
   -4.0209    1.2300  -21.9925 C   0  0  0  0  0  0  0  0  0  0  0  0
   -5.1028    0.4044  -21.7929 C   0  0  0  0  0  0  0  0  0  0  0  0
   -5.5030    0.0366  -20.4802 C   0  0  0  0  0  0  0  0  0  0  0  0
   -5.6605    0.0422  -22.6517 H   0  0  0  0  0  0  0  0  0  0  0  0
   -3.7349    1.4985  -23.0040 H   0  0  0  0  0  0  0  0  0  0  0  0
   -2.4028    2.3285  -21.0677 H   0  0  0  0  0  0  0  0  0  0  0  0
   -3.0859    1.7431  -18.7593 H   0  0  0  0  0  0  0  0  0  0  0  0
   -4.6268    0.5820  -17.2197 H   0  0  0  0  0  0  0  0  0  0  0  0
   -7.7873   -1.6697  -18.6222 H   0  0  0  0  0  0  0  0  0  0  0  0
   -7.0678   -2.5632  -21.9322 C   0  0  0  0  0  0  0  0  0  0  0  0
   -8.3647   -2.9329  -22.7152 C   0  0  0  0  0  0  0  0  0  0  0  0
   -7.9748   -3.6209  -24.0383 C   0  0  0  0  0  0  0  0  0  0  0  0
   -7.4951   -4.5847  -23.8246 H   0  0  0  0  0  0  0  0  0  0  0  0
   -7.2609   -3.0334  -24.6261 H   0  0  0  0  0  0  0  0  0  0  0  0
   -8.8542   -3.8210  -24.6621 H   0  0  0  0  0  0  0  0  0  0  0  0
   -9.1525   -3.9867  -21.9149 C   0  0  0  0  0  0  0  0  0  0  0  0
   -9.3167   -3.6804  -20.8784 H   0  0  0  0  0  0  0  0  0  0  0  0
   -8.5931   -4.9303  -21.8863 H   0  0  0  0  0  0  0  0  0  0  0  0
  -10.1203   -4.1924  -22.3811 H   0  0  0  0  0  0  0  0  0  0  0  0
   -6.2218   -2.3821  -22.6190 H   0  0  0  0  0  0  0  0  0  0  0  0
   -6.7544   -3.3616  -21.2480 H   0  0  0  0  0  0  0  0  0  0  0  0
  -10.6202   -1.4425  -22.8186 C   0  0  0  0  0  0  0  0  0  0  0  0
  -11.3147   -2.0315  -21.7712 C   0  0  0  0  0  0  0  0  0  0  0  0
  -12.6899   -2.1527  -21.8203 C   0  0  0  0  0  0  0  0  0  0  0  0
  -13.5023   -3.0314  -20.5601 Cl  0  0  0  0  0  0  0  0  0  0  0  0
  -13.4447   -1.5417  -22.8203 C   0  0  0  0  0  0  0  0  0  0  0  0
  -12.7720   -0.7555  -23.7290 C   0  0  0  0  0  0  0  0  0  0  0  0
  -11.3862   -0.6389  -23.6704 C   0  0  0  0  0  0  0  0  0  0  0  0
  -10.7405    0.4875  -24.3976 C   0  0  0  0  0  0  0  0  0  0  0  0
  -11.3857    1.4238  -24.8488 O   0  0  0  0  0  0  0  0  0  0  0  0
  -13.3015   -0.1771  -24.4754 H   0  0  0  0  0  0  0  0  0  0  0  0
  -14.5251   -1.6257  -22.8185 H   0  0  0  0  0  0  0  0  0  0  0  0
  -10.7651   -2.3893  -20.9224 H   0  0  0  0  0  0  0  0  0  0  0  0
   -7.5886   -0.5750  -24.1270 H   0  0  0  0  0  0  0  0  0  0  0  0
   -8.8320   -1.5100  -25.0108 H   0  0  0  0  0  0  0  0  0  0  0  0
   -9.4284    2.2711  -25.3329 H   0  0  0  0  0  0  0  0  0  0  0  0
   -8.1105    1.2243  -25.9252 H   0  0  0  0  0  0  0  0  0  0  0  0
   -9.2307    2.6749  -22.7660 H   0  0  0  0  0  0  0  0  0  0  0  0
   -7.9554    3.8360  -21.1918 H   0  0  0  0  0  0  0  0  0  0  0  0
   -6.8198    2.4865  -21.5216 H   0  0  0  0  0  0  0  0  0  0  0  0
   -6.6636    4.0392  -22.3851 H   0  0  0  0  0  0  0  0  0  0  0  0
  1  2  1  0
  2  3  1  0
  3  4  2  0
  3  5  1  0
  5  6  1  0
  6  7  1  0
  8  7  1  6
  8  9  1  0
  9 10  2  0
  9 11  1  0
 11 12  1  0
 12 13  2  0
 13 14  1  0
 14 15  2  0
 15 16  1  0
 16 17  2  0
 17 18  1  0
 18 19  2  0
 19 20  1  0
 20 21  2  0
 20 22  1  0
 19 23  1  0
 18 24  1  0
 17 25  1  0
 15 26  1  0
 13 27  1  0
 11 28  1  0
 28 29  1  0
 29 30  1  0
 30 31  1  0
 30 32  1  0
 30 33  1  0
 29 34  1  0
 34 35  1  0
 34 36  1  0
 34 37  1  0
 28 38  1  0
 28 39  1  0
  8 40  1  0
 40 41  2  0
 41 42  1  0
 42 43  1  0
 42 44  2  0
 44 45  1  0
 45 46  2  0
 46 47  1  0
 47 48  2  0
 45 49  1  0
 44 50  1  0
 41 51  1  0
  7 52  1  0
  7 53  1  0
  5 54  1  0
  5 55  1  0
  2 56  1  0
  1 57  1  0
  1 58  1  0
  1 59  1  0
 47  6  1  0
 29  8  1  0
 46 40  1  0
 21 12  1  0
 21 16  1  0
M  END
>  <cnnaffinities>  (55) 
[6.42639, 6.44181, 5.84581, 5.83559]

>  <score>  (55) 
6.42639

>  <index>  (55) 
57

>  <Smiles>  (55) 
C(N(C(=O)C(N1C([C@@]2(C(=O)N(c3c(nc(c4c(c(c(c(c34)[H])[H])[H])[H])[H])[H])C(C2(C([H])([H])[H])C([H])([H])[H])([H])[H])c2c(c(Cl)c(c(c2C1=O)[H])[H])[H])([H])[H])([H])[H])[H])([H])([H])[H]

>  <h>  (55) 
<NA>

>  <Training>  (55) 
True

>  <Success>  (55) 
True

>  <enamine_searched>  (55) 
False

>  <enamine_id>  (55) 
nan

$$$$

     RDKit          3D

 42 45  0  0  0  0  0  0  0  0999 V2000
  -10.9708   -5.0737  -23.5540 C   0  0  0  0  0  0  0  0  0  0  0  0
  -10.0646   -3.9314  -23.6515 N   0  0  0  0  0  0  0  0  0  0  0  0
   -9.4210   -3.4035  -22.4522 C   0  0  0  0  0  0  0  0  0  0  0  0
   -9.4103   -1.8686  -22.5090 C   0  0  1  0  0  0  0  0  0  0  0  0
   -8.6521   -1.1453  -21.3933 C   0  0  0  0  0  0  0  0  0  0  0  0
   -9.1671   -0.2240  -20.7843 O   0  0  0  0  0  0  0  0  0  0  0  0
   -7.3260   -1.4710  -21.1989 N   0  0  0  0  0  0  0  0  0  0  0  0
   -6.5699   -0.8515  -20.1773 C   0  0  0  0  0  0  0  0  0  0  0  0
   -6.9003   -1.0631  -18.8646 C   0  0  0  0  0  0  0  0  0  0  0  0
   -6.2101   -0.5560  -17.8163 N   0  0  0  0  0  0  0  0  0  0  0  0
   -5.1757    0.2045  -18.0828 C   0  0  0  0  0  0  0  0  0  0  0  0
   -4.7382    0.5300  -19.3968 C   0  0  0  0  0  0  0  0  0  0  0  0
   -3.6175    1.3684  -19.6317 C   0  0  0  0  0  0  0  0  0  0  0  0
   -3.2465    1.6815  -20.9107 C   0  0  0  0  0  0  0  0  0  0  0  0
   -3.9936    1.1877  -22.0052 C   0  0  0  0  0  0  0  0  0  0  0  0
   -5.0764    0.3643  -21.8028 C   0  0  0  0  0  0  0  0  0  0  0  0
   -5.4631    0.0017  -20.4869 C   0  0  0  0  0  0  0  0  0  0  0  0
   -5.6227   -0.0366  -22.6542 H   0  0  0  0  0  0  0  0  0  0  0  0
   -3.6753    1.4125  -23.0186 H   0  0  0  0  0  0  0  0  0  0  0  0
   -2.3767    2.3074  -21.0931 H   0  0  0  0  0  0  0  0  0  0  0  0
   -3.0740    1.7563  -18.7750 H   0  0  0  0  0  0  0  0  0  0  0  0
   -4.6299    0.6099  -17.2324 H   0  0  0  0  0  0  0  0  0  0  0  0
   -7.7586   -1.6818  -18.6135 H   0  0  0  0  0  0  0  0  0  0  0  0
   -6.8149   -1.9108  -21.9520 H   0  0  0  0  0  0  0  0  0  0  0  0
   -8.9017   -1.3855  -23.8527 C   0  0  0  0  0  0  0  0  0  0  0  0
   -8.3627   -0.1019  -23.9720 C   0  0  0  0  0  0  0  0  0  0  0  0
   -7.8885    0.3321  -25.1970 C   0  0  0  0  0  0  0  0  0  0  0  0
   -7.1324    1.9006  -25.3032 Cl  0  0  0  0  0  0  0  0  0  0  0  0
   -7.9867   -0.4730  -26.3282 C   0  0  0  0  0  0  0  0  0  0  0  0
   -8.5587   -1.7308  -26.2158 C   0  0  0  0  0  0  0  0  0  0  0  0
   -8.9933   -2.2041  -24.9768 C   0  0  0  0  0  0  0  0  0  0  0  0
   -9.5622   -3.5924  -24.8877 C   0  0  0  0  0  0  0  0  0  0  0  0
   -9.6215   -4.3415  -25.8513 O   0  0  0  0  0  0  0  0  0  0  0  0
   -8.6787   -2.3764  -27.0804 H   0  0  0  0  0  0  0  0  0  0  0  0
   -7.6089   -0.1054  -27.2745 H   0  0  0  0  0  0  0  0  0  0  0  0
   -8.2940    0.5469  -23.1046 H   0  0  0  0  0  0  0  0  0  0  0  0
  -10.4476   -1.5310  -22.3858 H   0  0  0  0  0  0  0  0  0  0  0  0
   -8.4043   -3.8153  -22.3358 H   0  0  0  0  0  0  0  0  0  0  0  0
  -10.0209   -3.7277  -21.5978 H   0  0  0  0  0  0  0  0  0  0  0  0
  -11.9684   -4.8512  -23.9574 H   0  0  0  0  0  0  0  0  0  0  0  0
  -10.5893   -5.9474  -24.0935 H   0  0  0  0  0  0  0  0  0  0  0  0
  -11.0847   -5.3251  -22.4979 H   0  0  0  0  0  0  0  0  0  0  0  0
  1  2  1  0
  2  3  1  0
  3  4  1  0
  4  5  1  0
  5  6  2  0
  5  7  1  0
  7  8  1  0
  8  9  2  0
  9 10  1  0
 10 11  2  0
 11 12  1  0
 12 13  2  0
 13 14  1  0
 14 15  2  0
 15 16  1  0
 16 17  2  0
 16 18  1  0
 15 19  1  0
 14 20  1  0
 13 21  1  0
 11 22  1  0
  9 23  1  0
  7 24  1  0
  4 25  1  0
 25 26  2  0
 26 27  1  0
 27 28  1  0
 27 29  2  0
 29 30  1  0
 30 31  2  0
 31 32  1  0
 32 33  2  0
 30 34  1  0
 29 35  1  0
 26 36  1  0
  4 37  1  6
  3 38  1  0
  3 39  1  0
  1 40  1  0
  1 41  1  0
  1 42  1  0
 32  2  1  0
 17  8  1  0
 31 25  1  0
 17 12  1  0
M  END
>  <cnnaffinities>  (56) 
[4.77333, 5.27568]

>  <score>  (56) 
4.77333

>  <index>  (56) 
58

>  <Smiles>  (56) 
C(N1C([C@@](C(=O)N(c2c(nc(c3c(c(c(c(c23)[H])[H])[H])[H])[H])[H])[H])(c2c(c(Cl)c(c(c2C1=O)[H])[H])[H])[H])([H])[H])([H])([H])[H]

>  <h>  (56) 
<NA>

>  <Training>  (56) 
True

>  <Success>  (56) 
True

>  <enamine_searched>  (56) 
False

>  <enamine_id>  (56) 
nan

$$$$

     RDKit          3D

 60 65  0  0  0  0  0  0  0  0999 V2000
   -7.0895    3.4424  -22.7434 C   0  0  0  0  0  0  0  0  0  0  0  0
   -7.8032    2.7507  -23.7962 N   0  0  0  0  0  0  0  0  0  0  0  0
   -7.1457    1.8546  -24.5626 C   0  0  0  0  0  0  0  0  0  0  0  0
   -5.9321    1.6899  -24.5075 O   0  0  0  0  0  0  0  0  0  0  0  0
   -8.0369    1.0506  -25.5102 C   0  0  0  0  0  0  0  0  0  0  0  0
   -8.9400    0.1992  -24.7664 N   0  0  0  0  0  0  0  0  0  0  0  0
   -8.4799   -1.1102  -24.3341 C   0  0  0  0  0  0  0  0  0  0  0  0
   -9.0127   -1.4865  -22.9295 C   0  0  2  0  0  0  0  0  0  0  0  0
   -8.3308   -0.6028  -21.8653 C   0  0  0  0  0  0  0  0  0  0  0  0
   -8.5270    0.5782  -21.6351 O   0  0  0  0  0  0  0  0  0  0  0  0
   -7.4135   -1.3709  -21.1947 N   0  0  0  0  0  0  0  0  0  0  0  0
   -6.6122   -0.8113  -20.1785 C   0  0  0  0  0  0  0  0  0  0  0  0
   -6.9018   -1.0910  -18.8684 C   0  0  0  0  0  0  0  0  0  0  0  0
   -6.2192   -0.6008  -17.8100 N   0  0  0  0  0  0  0  0  0  0  0  0
   -5.2067    0.1915  -18.0742 C   0  0  0  0  0  0  0  0  0  0  0  0
   -4.7907    0.5528  -19.3875 C   0  0  0  0  0  0  0  0  0  0  0  0
   -3.6542    1.3747  -19.6069 C   0  0  0  0  0  0  0  0  0  0  0  0
   -3.2757    1.7103  -20.8785 C   0  0  0  0  0  0  0  0  0  0  0  0
   -4.0195    1.2502  -21.9840 C   0  0  0  0  0  0  0  0  0  0  0  0
   -5.1043    0.4268  -21.7996 C   0  0  0  0  0  0  0  0  0  0  0  0
   -5.5204    0.0542  -20.4885 C   0  0  0  0  0  0  0  0  0  0  0  0
   -5.6311    0.0565  -22.6720 H   0  0  0  0  0  0  0  0  0  0  0  0
   -3.7350    1.5301  -22.9937 H   0  0  0  0  0  0  0  0  0  0  0  0
   -2.3918    2.3188  -21.0397 H   0  0  0  0  0  0  0  0  0  0  0  0
   -3.1035    1.7273  -18.7410 H   0  0  0  0  0  0  0  0  0  0  0  0
   -4.6485    0.5784  -17.2240 H   0  0  0  0  0  0  0  0  0  0  0  0
   -7.7456   -1.7396  -18.6406 H   0  0  0  0  0  0  0  0  0  0  0  0
   -7.2979   -2.7316  -21.6664 C   0  0  0  0  0  0  0  0  0  0  0  0
   -8.5626   -2.9196  -22.5158 C   0  0  2  0  0  0  0  0  0  0  0  0
   -8.3422   -3.9423  -23.6455 C   0  0  0  0  0  0  0  0  0  0  0  0
   -8.0568   -5.2918  -23.0745 C   0  0  0  0  0  0  0  0  0  0  0  0
   -6.8381   -5.7791  -22.8783 N   0  0  0  0  0  0  0  0  0  0  0  0
   -7.0331   -6.9569  -22.2904 N   0  0  0  0  0  0  0  0  0  0  0  0
   -8.3173   -7.1624  -22.1480 N   0  0  0  0  0  2  0  0  0  0  0  0
   -8.9894   -6.1241  -22.6349 N   0  0  0  0  0  0  0  0  0  0  0  0
   -7.4862   -3.6614  -24.2642 H   0  0  0  0  0  0  0  0  0  0  0  0
   -9.2261   -4.0187  -24.2835 H   0  0  0  0  0  0  0  0  0  0  0  0
   -9.3362   -3.3467  -21.8711 H   0  0  0  0  0  0  0  0  0  0  0  0
   -6.3861   -2.8965  -22.2649 H   0  0  0  0  0  0  0  0  0  0  0  0
   -7.2503   -3.4389  -20.8362 H   0  0  0  0  0  0  0  0  0  0  0  0
  -10.5028   -1.2430  -22.9196 C   0  0  0  0  0  0  0  0  0  0  0  0
  -11.3470   -1.9366  -22.0555 C   0  0  0  0  0  0  0  0  0  0  0  0
  -12.7105   -1.7329  -22.1171 C   0  0  0  0  0  0  0  0  0  0  0  0
  -13.7026   -2.6651  -21.0374 Cl  0  0  0  0  0  0  0  0  0  0  0  0
  -13.2922   -0.8125  -22.9860 C   0  0  0  0  0  0  0  0  0  0  0  0
  -12.4438   -0.0588  -23.7738 C   0  0  0  0  0  0  0  0  0  0  0  0
  -11.0646   -0.2308  -23.7055 C   0  0  0  0  0  0  0  0  0  0  0  0
  -10.1727    0.6886  -24.4659 C   0  0  0  0  0  0  0  0  0  0  0  0
  -10.5114    1.8363  -24.7609 O   0  0  0  0  0  0  0  0  0  0  0  0
  -12.8252    0.6900  -24.4530 H   0  0  0  0  0  0  0  0  0  0  0  0
  -14.3687   -0.6702  -23.0078 H   0  0  0  0  0  0  0  0  0  0  0  0
  -10.9754   -2.6220  -21.3032 H   0  0  0  0  0  0  0  0  0  0  0  0
   -7.3828   -1.1149  -24.3157 H   0  0  0  0  0  0  0  0  0  0  0  0
   -8.8250   -1.8652  -25.0503 H   0  0  0  0  0  0  0  0  0  0  0  0
   -8.6592    1.7256  -26.1013 H   0  0  0  0  0  0  0  0  0  0  0  0
   -7.4227    0.4483  -26.1829 H   0  0  0  0  0  0  0  0  0  0  0  0
   -8.8167    2.7336  -23.7822 H   0  0  0  0  0  0  0  0  0  0  0  0
   -7.7913    4.0702  -22.1931 H   0  0  0  0  0  0  0  0  0  0  0  0
   -6.3137    4.0816  -23.1782 H   0  0  0  0  0  0  0  0  0  0  0  0
   -6.6275    2.7267  -22.0462 H   0  0  0  0  0  0  0  0  0  0  0  0
  1  2  1  0
  2  3  1  0
  3  4  2  0
  3  5  1  0
  5  6  1  0
  6  7  1  0
  8  7  1  6
  8  9  1  0
  9 10  2  0
  9 11  1  0
 11 12  1  0
 12 13  2  0
 13 14  1  0
 14 15  2  0
 15 16  1  0
 16 17  2  0
 17 18  1  0
 18 19  2  0
 19 20  1  0
 20 21  2  0
 20 22  1  0
 19 23  1  0
 18 24  1  0
 17 25  1  0
 15 26  1  0
 13 27  1  0
 11 28  1  0
 28 29  1  0
 29 30  1  0
 30 31  1  0
 31 32  1  0
 32 33  2  0
 33 34  1  0
 34 35  1  0
 30 36  1  0
 30 37  1  0
 29 38  1  1
 28 39  1  0
 28 40  1  0
  8 41  1  0
 41 42  2  0
 42 43  1  0
 43 44  1  0
 43 45  2  0
 45 46  1  0
 46 47  2  0
 47 48  1  0
 48 49  2  0
 46 50  1  0
 45 51  1  0
 42 52  1  0
  7 53  1  0
  7 54  1  0
  5 55  1  0
  5 56  1  0
  2 57  1  0
  1 58  1  0
  1 59  1  0
  1 60  1  0
 48  6  1  0
 29  8  1  0
 35 31  2  0
 47 41  1  0
 21 12  1  0
 21 16  1  0
M  CHG  1  34  -1
M  END
>  <cnnaffinities>  (57) 
[6.71254]

>  <score>  (57) 
6.71254

>  <index>  (57) 
59

>  <Smiles>  (57) 
C(N(C(=O)C(N1C([C@@]2(C(=O)N(c3c(nc(c4c(c(c(c(c34)[H])[H])[H])[H])[H])[H])C([C@@]2(C(c2nn[n-]n2)([H])[H])[H])([H])[H])c2c(c(Cl)c(c(c2C1=O)[H])[H])[H])([H])[H])([H])[H])[H])([H])([H])[H]

>  <h>  (57) 
<NA>

>  <Training>  (57) 
True

>  <Success>  (57) 
True

>  <enamine_searched>  (57) 
False

>  <enamine_id>  (57) 
nan

$$$$

     RDKit          3D

 62 67  0  0  0  0  0  0  0  0999 V2000
  -11.6806    3.3356  -22.5712 C   0  0  0  0  0  0  0  0  0  0  0  0
  -10.8786    2.0731  -22.2418 C   0  0  0  0  0  0  0  0  0  0  0  0
   -9.5055    2.0739  -22.7329 N   0  0  0  0  0  0  0  0  0  0  0  0
   -8.5844    2.6567  -21.9570 N   0  0  0  0  0  0  0  0  0  0  0  0
   -7.4709    2.7007  -22.6646 C   0  0  0  0  0  0  0  0  0  0  0  0
   -7.6522    2.0978  -23.9241 C   0  0  0  0  0  0  0  0  0  0  0  0
   -8.9714    1.6901  -23.9204 C   0  0  0  0  0  0  0  0  0  0  0  0
   -9.7590    0.9576  -24.9463 C   0  0  0  0  0  0  0  0  0  0  0  0
  -10.2698   -0.3225  -24.4974 N   0  0  0  0  0  0  0  0  0  0  0  0
   -9.3264   -1.3779  -24.1994 C   0  0  0  0  0  0  0  0  0  0  0  0
   -9.5010   -1.9940  -22.7897 C   0  0  2  0  0  0  0  0  0  0  0  0
   -8.9483   -1.0716  -21.6695 C   0  0  0  0  0  0  0  0  0  0  0  0
   -9.5757   -0.2461  -21.0448 O   0  0  0  0  0  0  0  0  0  0  0  0
   -7.6098   -1.3463  -21.4800 N   0  0  0  0  0  0  0  0  0  0  0  0
   -6.9041   -0.8414  -20.3665 C   0  0  0  0  0  0  0  0  0  0  0  0
   -7.3090   -1.1249  -19.0851 C   0  0  0  0  0  0  0  0  0  0  0  0
   -6.6413   -0.7186  -17.9799 N   0  0  0  0  0  0  0  0  0  0  0  0
   -5.5734    0.0217  -18.1490 C   0  0  0  0  0  0  0  0  0  0  0  0
   -5.0723    0.4214  -19.4186 C   0  0  0  0  0  0  0  0  0  0  0  0
   -3.9616    1.2962  -19.5540 C   0  0  0  0  0  0  0  0  0  0  0  0
   -3.5011    1.6452  -20.7943 C   0  0  0  0  0  0  0  0  0  0  0  0
   -4.1164    1.1210  -21.9538 C   0  0  0  0  0  0  0  0  0  0  0  0
   -5.1747    0.2473  -21.8421 C   0  0  0  0  0  0  0  0  0  0  0  0
   -5.7174   -0.0743  -20.5713 C   0  0  0  0  0  0  0  0  0  0  0  0
   -5.5844   -0.2207  -22.7317 H   0  0  0  0  0  0  0  0  0  0  0  0
   -3.7313    1.3798  -22.9387 H   0  0  0  0  0  0  0  0  0  0  0  0
   -2.6563    2.3218  -20.8994 H   0  0  0  0  0  0  0  0  0  0  0  0
   -3.5092    1.6919  -18.6487 H   0  0  0  0  0  0  0  0  0  0  0  0
   -5.0456    0.3444  -17.2516 H   0  0  0  0  0  0  0  0  0  0  0  0
   -8.2088   -1.7126  -18.9094 H   0  0  0  0  0  0  0  0  0  0  0  0
   -7.1813   -2.5454  -22.1746 C   0  0  0  0  0  0  0  0  0  0  0  0
   -8.5170   -3.1903  -22.5926 C   0  0  2  0  0  0  0  0  0  0  0  0
   -8.3346   -4.1397  -23.7639 C   0  0  0  0  0  0  0  0  0  0  0  0
   -9.2935   -4.5382  -24.1095 H   0  0  0  0  0  0  0  0  0  0  0  0
   -7.6771   -4.9727  -23.4912 H   0  0  0  0  0  0  0  0  0  0  0  0
   -7.8567   -3.6138  -24.6003 H   0  0  0  0  0  0  0  0  0  0  0  0
   -8.8718   -3.7360  -21.7117 H   0  0  0  0  0  0  0  0  0  0  0  0
   -6.5504   -2.3027  -23.0455 H   0  0  0  0  0  0  0  0  0  0  0  0
   -6.5883   -3.1933  -21.5174 H   0  0  0  0  0  0  0  0  0  0  0  0
  -10.9863   -2.2283  -22.5750 C   0  0  0  0  0  0  0  0  0  0  0  0
  -11.4308   -3.0849  -21.5660 C   0  0  0  0  0  0  0  0  0  0  0  0
  -12.7374   -2.9947  -21.1172 C   0  0  0  0  0  0  0  0  0  0  0  0
  -13.1103   -3.7003  -20.0396 F   0  0  0  0  0  0  0  0  0  0  0  0
  -13.6941   -2.1699  -21.6948 C   0  0  0  0  0  0  0  0  0  0  0  0
  -13.2874   -1.4055  -22.7681 C   0  0  0  0  0  0  0  0  0  0  0  0
  -11.9600   -1.4269  -23.1949 C   0  0  0  0  0  0  0  0  0  0  0  0
  -11.5985   -0.4211  -24.2297 C   0  0  0  0  0  0  0  0  0  0  0  0
  -12.4460    0.3200  -24.7129 O   0  0  0  0  0  0  0  0  0  0  0  0
  -13.9727   -0.7490  -23.2914 H   0  0  0  0  0  0  0  0  0  0  0  0
  -14.6975   -2.1219  -21.2806 H   0  0  0  0  0  0  0  0  0  0  0  0
  -10.7450   -3.7800  -21.0887 H   0  0  0  0  0  0  0  0  0  0  0  0
   -9.4227   -2.1821  -24.9419 H   0  0  0  0  0  0  0  0  0  0  0  0
   -8.3358   -0.9312  -24.2853 H   0  0  0  0  0  0  0  0  0  0  0  0
   -9.1292    0.7844  -25.8187 H   0  0  0  0  0  0  0  0  0  0  0  0
  -10.6424    1.5311  -25.2269 H   0  0  0  0  0  0  0  0  0  0  0  0
   -6.9274    1.9279  -24.7087 H   0  0  0  0  0  0  0  0  0  0  0  0
   -6.5959    3.1541  -22.2214 H   0  0  0  0  0  0  0  0  0  0  0  0
  -11.4099    1.1966  -22.6142 H   0  0  0  0  0  0  0  0  0  0  0  0
  -10.7559    1.9279  -21.1687 H   0  0  0  0  0  0  0  0  0  0  0  0
  -11.9788    3.3617  -23.6275 H   0  0  0  0  0  0  0  0  0  0  0  0
  -11.1233    4.2504  -22.3450 H   0  0  0  0  0  0  0  0  0  0  0  0
  -12.6001    3.3463  -21.9739 H   0  0  0  0  0  0  0  0  0  0  0  0
  1  2  1  0
  2  3  1  0
  3  4  1  0
  4  5  2  0
  5  6  1  0
  6  7  2  0
  7  8  1  0
  8  9  1  0
  9 10  1  0
 11 10  1  6
 11 12  1  0
 12 13  2  0
 12 14  1  0
 14 15  1  0
 15 16  2  0
 16 17  1  0
 17 18  2  0
 18 19  1  0
 19 20  2  0
 20 21  1  0
 21 22  2  0
 22 23  1  0
 23 24  2  0
 23 25  1  0
 22 26  1  0
 21 27  1  0
 20 28  1  0
 18 29  1  0
 16 30  1  0
 14 31  1  0
 31 32  1  0
 32 33  1  0
 33 34  1  0
 33 35  1  0
 33 36  1  0
 32 37  1  1
 31 38  1  0
 31 39  1  0
 11 40  1  0
 40 41  2  0
 41 42  1  0
 42 43  1  0
 42 44  2  0
 44 45  1  0
 45 46  2  0
 46 47  1  0
 47 48  2  0
 45 49  1  0
 44 50  1  0
 41 51  1  0
 10 52  1  0
 10 53  1  0
  8 54  1  0
  8 55  1  0
  6 56  1  0
  5 57  1  0
  2 58  1  0
  2 59  1  0
  1 60  1  0
  1 61  1  0
  1 62  1  0
  7  3  1  0
 47  9  1  0
 32 11  1  0
 46 40  1  0
 24 15  1  0
 24 19  1  0
M  END
>  <cnnaffinities>  (58) 
[6.60507, 5.93529]

>  <score>  (58) 
6.60507

>  <index>  (58) 
60

>  <Smiles>  (58) 
C(C(n1nc(c(c1C(N1C([C@@]2(C(=O)N(c3c(nc(c4c(c(c(c(c34)[H])[H])[H])[H])[H])[H])C([C@@]2(C([H])([H])[H])[H])([H])[H])c2c(c(F)c(c(c2C1=O)[H])[H])[H])([H])[H])([H])[H])[H])[H])([H])[H])([H])([H])[H]

>  <h>  (58) 
<NA>

>  <Training>  (58) 
True

>  <Success>  (58) 
True

>  <enamine_searched>  (58) 
False

>  <enamine_id>  (58) 
nan

$$$$

     RDKit          3D

 44 47  0  0  0  0  0  0  0  0999 V2000
   -8.6216   -3.4093  -21.2094 O   0  0  0  0  0  0  0  0  0  0  0  0
   -7.5273   -2.9063  -21.4334 C   0  0  0  0  0  0  0  0  0  0  0  0
   -7.3943   -1.3766  -21.3044 C   0  0  0  0  0  0  0  0  0  0  0  0
   -6.5249   -0.8231  -20.2013 C   0  0  0  0  0  0  0  0  0  0  0  0
   -6.8512   -1.0522  -18.8894 C   0  0  0  0  0  0  0  0  0  0  0  0
   -6.1847   -0.5518  -17.8223 N   0  0  0  0  0  0  0  0  0  0  0  0
   -5.1488    0.2220  -18.0568 C   0  0  0  0  0  0  0  0  0  0  0  0
   -4.7042    0.5658  -19.3622 C   0  0  0  0  0  0  0  0  0  0  0  0
   -3.5747    1.3958  -19.5899 C   0  0  0  0  0  0  0  0  0  0  0  0
   -3.1849    1.7076  -20.8690 C   0  0  0  0  0  0  0  0  0  0  0  0
   -3.9175    1.2198  -21.9699 C   0  0  0  0  0  0  0  0  0  0  0  0
   -5.0024    0.4025  -21.7685 C   0  0  0  0  0  0  0  0  0  0  0  0
   -5.4239    0.0453  -20.4652 C   0  0  0  0  0  0  0  0  0  0  0  0
   -5.5052   -0.0298  -22.6290 H   0  0  0  0  0  0  0  0  0  0  0  0
   -3.5958    1.4356  -22.9856 H   0  0  0  0  0  0  0  0  0  0  0  0
   -2.3128    2.3254  -21.0481 H   0  0  0  0  0  0  0  0  0  0  0  0
   -3.0275    1.7755  -18.7314 H   0  0  0  0  0  0  0  0  0  0  0  0
   -4.6120    0.6152  -17.1891 H   0  0  0  0  0  0  0  0  0  0  0  0
   -7.7195   -1.6629  -18.6497 H   0  0  0  0  0  0  0  0  0  0  0  0
   -7.0911   -0.9394  -22.2557 H   0  0  0  0  0  0  0  0  0  0  0  0
   -8.4273   -1.0520  -21.1526 H   0  0  0  0  0  0  0  0  0  0  0  0
   -6.4682   -3.6635  -21.8629 N   0  0  0  0  0  0  0  0  0  0  0  0
   -5.2110   -3.0863  -22.3447 C   0  0  0  0  0  0  0  0  0  0  0  0
   -4.2155   -4.1746  -22.7428 C   0  0  0  0  0  0  0  0  0  0  0  0
   -4.7358   -5.1592  -23.7956 C   0  0  0  0  0  0  0  0  0  0  0  0
   -4.4204   -4.7622  -25.2684 C   0  0  0  0  0  0  0  0  0  0  0  0
   -3.4924   -5.9897  -25.4351 C   0  0  0  0  0  0  0  0  0  0  0  0
   -3.8023   -6.3975  -23.9744 C   0  0  0  0  0  0  0  0  0  0  0  0
   -4.3051   -7.3622  -23.8517 H   0  0  0  0  0  0  0  0  0  0  0  0
   -2.9354   -6.3941  -23.3057 H   0  0  0  0  0  0  0  0  0  0  0  0
   -2.4420   -5.7585  -25.6406 H   0  0  0  0  0  0  0  0  0  0  0  0
   -3.8087   -6.7087  -26.1976 H   0  0  0  0  0  0  0  0  0  0  0  0
   -3.9364   -3.7849  -25.3665 H   0  0  0  0  0  0  0  0  0  0  0  0
   -5.3026   -4.7641  -25.9161 H   0  0  0  0  0  0  0  0  0  0  0  0
   -6.2244   -5.4649  -23.5356 C   0  0  0  0  0  0  0  0  0  0  0  0
   -6.6870   -5.0889  -22.1236 C   0  0  0  0  0  0  0  0  0  0  0  0
   -6.1484   -5.6778  -21.3678 H   0  0  0  0  0  0  0  0  0  0  0  0
   -7.7560   -5.2680  -21.9805 H   0  0  0  0  0  0  0  0  0  0  0  0
   -6.4207   -6.5297  -23.7108 H   0  0  0  0  0  0  0  0  0  0  0  0
   -6.8344   -4.8947  -24.2533 H   0  0  0  0  0  0  0  0  0  0  0  0
   -3.9332   -4.7497  -21.8527 H   0  0  0  0  0  0  0  0  0  0  0  0
   -3.3100   -3.6883  -23.1179 H   0  0  0  0  0  0  0  0  0  0  0  0
   -5.4157   -2.4333  -23.2029 H   0  0  0  0  0  0  0  0  0  0  0  0
   -4.7817   -2.4662  -21.5504 H   0  0  0  0  0  0  0  0  0  0  0  0
  1  2  2  0
  2  3  1  0
  3  4  1  0
  4  5  2  0
  5  6  1  0
  6  7  2  0
  7  8  1  0
  8  9  2  0
  9 10  1  0
 10 11  2  0
 11 12  1  0
 12 13  2  0
 12 14  1  0
 11 15  1  0
 10 16  1  0
  9 17  1  0
  7 18  1  0
  5 19  1  0
  3 20  1  0
  3 21  1  0
  2 22  1  0
 22 23  1  0
 23 24  1  0
 24 25  1  0
 25 26  1  0
 26 27  1  0
 27 28  1  0
 28 29  1  0
 28 30  1  0
 27 31  1  0
 27 32  1  0
 26 33  1  0
 26 34  1  0
 25 35  1  0
 35 36  1  0
 36 37  1  0
 36 38  1  0
 35 39  1  0
 35 40  1  0
 24 41  1  0
 24 42  1  0
 23 43  1  0
 23 44  1  0
 13  4  1  0
 36 22  1  0
 13  8  1  0
 28 25  1  0
M  END
>  <cnnaffinities>  (59) 
[4.44756, 4.63566, 4.63483, 4.63367, 4.93163, 5.19703, 5.19697, 5.19708, 5.19707, 4.60027, 4.60002, 4.6002, 4.60004, 4.58596, 4.69915, 4.69913, 4.69913]

>  <score>  (59) 
4.44756

>  <index>  (59) 
61

>  <Smiles>  (59) 
O=C(C(c1c(nc(c2c(c(c(c(c12)[H])[H])[H])[H])[H])[H])([H])[H])N1C(C(C2(C(C(C2([H])[H])([H])[H])([H])[H])C(C1([H])[H])([H])[H])([H])[H])([H])[H]

>  <h>  (59) 
<NA>

>  <Training>  (59) 
True

>  <Success>  (59) 
True

>  <enamine_searched>  (59) 
False

>  <enamine_id>  (59) 
nan

$$$$

     RDKit          3D

 44 47  0  0  0  0  0  0  0  0999 V2000
   -8.6132    0.7126  -21.2890 O   0  0  0  0  0  0  0  0  0  0  0  0
   -8.5678   -0.4354  -21.7016 C   0  0  0  0  0  0  0  0  0  0  0  0
   -7.4831   -1.4156  -21.2598 C   0  0  0  0  0  0  0  0  0  0  0  0
   -6.6243   -0.8274  -20.1907 C   0  0  0  0  0  0  0  0  0  0  0  0
   -6.9267   -1.0756  -18.8805 C   0  0  0  0  0  0  0  0  0  0  0  0
   -6.2560   -0.5886  -17.8089 N   0  0  0  0  0  0  0  0  0  0  0  0
   -5.2356    0.1941  -18.0656 C   0  0  0  0  0  0  0  0  0  0  0  0
   -4.8129    0.5543  -19.3747 C   0  0  0  0  0  0  0  0  0  0  0  0
   -3.6806    1.3726  -19.5947 C   0  0  0  0  0  0  0  0  0  0  0  0
   -3.3091    1.7184  -20.8645 C   0  0  0  0  0  0  0  0  0  0  0  0
   -4.0679    1.2685  -21.9657 C   0  0  0  0  0  0  0  0  0  0  0  0
   -5.1582    0.4582  -21.7822 C   0  0  0  0  0  0  0  0  0  0  0  0
   -5.5483    0.0601  -20.4762 C   0  0  0  0  0  0  0  0  0  0  0  0
   -5.7095    0.0949  -22.6445 H   0  0  0  0  0  0  0  0  0  0  0  0
   -3.7541    1.5371  -22.9705 H   0  0  0  0  0  0  0  0  0  0  0  0
   -2.4355    2.3400  -21.0307 H   0  0  0  0  0  0  0  0  0  0  0  0
   -3.1198    1.7203  -18.7318 H   0  0  0  0  0  0  0  0  0  0  0  0
   -4.6801    0.5726  -17.2093 H   0  0  0  0  0  0  0  0  0  0  0  0
   -7.7728   -1.7194  -18.6431 H   0  0  0  0  0  0  0  0  0  0  0  0
   -7.9885   -2.3095  -20.8650 H   0  0  0  0  0  0  0  0  0  0  0  0
   -6.8851   -1.7207  -22.1300 H   0  0  0  0  0  0  0  0  0  0  0  0
   -9.4989   -0.9213  -22.5713 N   0  0  0  0  0  0  0  0  0  0  0  0
   -9.5361   -2.2407  -23.1853 C   0  0  0  0  0  0  0  0  0  0  0  0
  -10.8198   -2.9663  -22.7677 C   0  0  0  0  0  0  0  0  0  0  0  0
  -12.0329   -2.0032  -22.7766 C   0  0  0  0  0  0  0  0  0  0  0  0
  -13.2918   -2.6681  -23.3011 C   0  0  0  0  0  0  0  0  0  0  0  0
  -14.6823   -2.1985  -22.9711 C   0  0  0  0  0  0  0  0  0  0  0  0
  -14.1669   -3.4922  -22.4097 C   0  0  0  0  0  0  0  0  0  0  0  0
  -13.9203   -3.4862  -21.3525 H   0  0  0  0  0  0  0  0  0  0  0  0
  -14.5285   -4.4436  -22.7808 H   0  0  0  0  0  0  0  0  0  0  0  0
  -14.8406   -1.3639  -22.2871 H   0  0  0  0  0  0  0  0  0  0  0  0
  -15.3684   -2.2160  -23.8114 H   0  0  0  0  0  0  0  0  0  0  0  0
  -13.2199   -3.0203  -24.3299 H   0  0  0  0  0  0  0  0  0  0  0  0
  -11.7265   -0.7181  -23.5647 C   0  0  0  0  0  0  0  0  0  0  0  0
  -10.4879    0.0301  -23.0596 C   0  0  0  0  0  0  0  0  0  0  0  0
  -10.0541    0.6131  -23.8867 H   0  0  0  0  0  0  0  0  0  0  0  0
  -10.7059    0.7410  -22.2526 H   0  0  0  0  0  0  0  0  0  0  0  0
  -12.5827   -0.0431  -23.4988 H   0  0  0  0  0  0  0  0  0  0  0  0
  -11.6030   -0.9424  -24.6357 H   0  0  0  0  0  0  0  0  0  0  0  0
  -12.2070   -1.7146  -21.7287 H   0  0  0  0  0  0  0  0  0  0  0  0
  -10.7041   -3.3806  -21.7591 H   0  0  0  0  0  0  0  0  0  0  0  0
  -10.9708   -3.8293  -23.4233 H   0  0  0  0  0  0  0  0  0  0  0  0
   -9.5344   -2.1102  -24.2774 H   0  0  0  0  0  0  0  0  0  0  0  0
   -8.6481   -2.8265  -22.9352 H   0  0  0  0  0  0  0  0  0  0  0  0
  1  2  2  0
  2  3  1  0
  3  4  1  0
  4  5  2  0
  5  6  1  0
  6  7  2  0
  7  8  1  0
  8  9  2  0
  9 10  1  0
 10 11  2  0
 11 12  1  0
 12 13  2  0
 12 14  1  0
 11 15  1  0
 10 16  1  0
  9 17  1  0
  7 18  1  0
  5 19  1  0
  3 20  1  0
  3 21  1  0
  2 22  1  0
 22 23  1  0
 23 24  1  0
 24 25  1  0
 25 26  1  0
 26 27  1  0
 27 28  1  0
 28 29  1  0
 28 30  1  0
 27 31  1  0
 27 32  1  0
 26 33  1  0
 25 34  1  0
 34 35  1  0
 35 36  1  0
 35 37  1  0
 34 38  1  0
 34 39  1  0
 25 40  1  0
 24 41  1  0
 24 42  1  0
 23 43  1  0
 23 44  1  0
 13  4  1  0
 35 22  1  0
 13  8  1  0
 28 26  1  0
M  END
>  <cnnaffinities>  (60) 
[4.89508, 4.94038, 5.10357]

>  <score>  (60) 
4.89508

>  <index>  (60) 
62

>  <Smiles>  (60) 
O=C(C(c1c(nc(c2c(c(c(c(c12)[H])[H])[H])[H])[H])[H])([H])[H])N1C(C(C(C2(C(C2([H])[H])([H])[H])[H])(C(C1([H])[H])([H])[H])[H])([H])[H])([H])[H]

>  <h>  (60) 
<NA>

>  <Training>  (60) 
True

>  <Success>  (60) 
True

>  <enamine_searched>  (60) 
False

>  <enamine_id>  (60) 
nan

$$$$

     RDKit          3D

 57 61  0  0  0  0  0  0  0  0999 V2000
   -7.3399    3.4283  -21.8555 C   0  0  0  0  0  0  0  0  0  0  0  0
   -8.1810    2.9569  -22.9405 N   0  0  0  0  0  0  0  0  0  0  0  0
   -7.6064    2.2549  -23.9454 C   0  0  0  0  0  0  0  0  0  0  0  0
   -6.3931    2.1356  -24.0508 O   0  0  0  0  0  0  0  0  0  0  0  0
   -8.5631    1.6333  -24.9744 C   0  0  0  0  0  0  0  0  0  0  0  0
   -9.3051    0.4912  -24.4740 N   0  0  0  0  0  0  0  0  0  0  0  0
   -8.6023   -0.7667  -24.2896 C   0  0  0  0  0  0  0  0  0  0  0  0
   -9.0123   -1.4771  -22.9696 C   0  0  2  0  0  0  0  0  0  0  0  0
   -8.4610   -0.6876  -21.7507 C   0  0  0  0  0  0  0  0  0  0  0  0
   -8.8699    0.3662  -21.3176 O   0  0  0  0  0  0  0  0  0  0  0  0
   -7.4053   -1.3855  -21.2069 N   0  0  0  0  0  0  0  0  0  0  0  0
   -6.6082   -0.8090  -20.1772 C   0  0  0  0  0  0  0  0  0  0  0  0
   -6.9079   -1.0472  -18.8619 C   0  0  0  0  0  0  0  0  0  0  0  0
   -6.2019   -0.5582  -17.8114 N   0  0  0  0  0  0  0  0  0  0  0  0
   -5.1683    0.2046  -18.0750 C   0  0  0  0  0  0  0  0  0  0  0  0
   -4.7364    0.5392  -19.3889 C   0  0  0  0  0  0  0  0  0  0  0  0
   -3.6083    1.3731  -19.6315 C   0  0  0  0  0  0  0  0  0  0  0  0
   -3.2308    1.6811  -20.9098 C   0  0  0  0  0  0  0  0  0  0  0  0
   -3.9710    1.1765  -22.0017 C   0  0  0  0  0  0  0  0  0  0  0  0
   -5.0595    0.3616  -21.7925 C   0  0  0  0  0  0  0  0  0  0  0  0
   -5.4808    0.0230  -20.4801 C   0  0  0  0  0  0  0  0  0  0  0  0
   -5.5845   -0.0599  -22.6454 H   0  0  0  0  0  0  0  0  0  0  0  0
   -3.6639    1.3905  -23.0191 H   0  0  0  0  0  0  0  0  0  0  0  0
   -2.3604    2.3042  -21.0944 H   0  0  0  0  0  0  0  0  0  0  0  0
   -3.0672    1.7677  -18.7752 H   0  0  0  0  0  0  0  0  0  0  0  0
   -4.6223    0.6103  -17.2229 H   0  0  0  0  0  0  0  0  0  0  0  0
   -7.7599   -1.6704  -18.6020 H   0  0  0  0  0  0  0  0  0  0  0  0
   -7.0767   -2.6153  -21.9027 C   0  0  0  0  0  0  0  0  0  0  0  0
   -8.3069   -2.8618  -22.8112 C   0  0  2  0  0  0  0  0  0  0  0  0
   -7.9362   -3.5870  -24.1070 C   0  0  0  0  0  0  0  0  0  0  0  0
   -7.4263   -4.8609  -23.7602 O   0  0  0  0  0  0  0  0  0  0  0  0
   -7.2018   -5.3291  -24.5756 H   0  0  0  0  0  0  0  0  0  0  0  0
   -7.1771   -3.0040  -24.6538 H   0  0  0  0  0  0  0  0  0  0  0  0
   -8.8206   -3.6821  -24.7570 H   0  0  0  0  0  0  0  0  0  0  0  0
   -8.9926   -3.5259  -22.2806 H   0  0  0  0  0  0  0  0  0  0  0  0
   -6.9096   -3.4284  -21.1869 H   0  0  0  0  0  0  0  0  0  0  0  0
   -6.1493   -2.5041  -22.4882 H   0  0  0  0  0  0  0  0  0  0  0  0
  -10.5338   -1.4945  -22.9042 C   0  0  0  0  0  0  0  0  0  0  0  0
  -11.1882   -2.3213  -21.9800 C   0  0  0  0  0  0  0  0  0  0  0  0
  -12.5659   -2.2738  -21.8689 C   0  0  0  0  0  0  0  0  0  0  0  0
  -13.3936   -3.1363  -20.6052 Cl  0  0  0  0  0  0  0  0  0  0  0  0
  -13.3340   -1.4583  -22.6974 C   0  0  0  0  0  0  0  0  0  0  0  0
  -12.6976   -0.5835  -23.5508 C   0  0  0  0  0  0  0  0  0  0  0  0
  -11.3043   -0.5660  -23.6201 C   0  0  0  0  0  0  0  0  0  0  0  0
  -10.6686    0.5552  -24.3840 C   0  0  0  0  0  0  0  0  0  0  0  0
  -11.3352    1.4716  -24.8431 O   0  0  0  0  0  0  0  0  0  0  0  0
  -13.2456    0.1495  -24.1355 H   0  0  0  0  0  0  0  0  0  0  0  0
  -14.4118   -1.4807  -22.6047 H   0  0  0  0  0  0  0  0  0  0  0  0
  -10.6263   -2.9614  -21.3091 H   0  0  0  0  0  0  0  0  0  0  0  0
   -7.5335   -0.5301  -24.2606 H   0  0  0  0  0  0  0  0  0  0  0  0
   -8.7986   -1.4418  -25.1382 H   0  0  0  0  0  0  0  0  0  0  0  0
   -7.9281    1.3455  -25.8198 H   0  0  0  0  0  0  0  0  0  0  0  0
   -9.3218    2.3419  -25.3209 H   0  0  0  0  0  0  0  0  0  0  0  0
   -9.1832    2.9044  -22.8105 H   0  0  0  0  0  0  0  0  0  0  0  0
   -6.6232    4.1794  -22.2135 H   0  0  0  0  0  0  0  0  0  0  0  0
   -7.9856    3.8921  -21.1073 H   0  0  0  0  0  0  0  0  0  0  0  0
   -6.7663    2.5901  -21.4215 H   0  0  0  0  0  0  0  0  0  0  0  0
  1  2  1  0
  2  3  1  0
  3  4  2  0
  3  5  1  0
  5  6  1  0
  6  7  1  0
  8  7  1  6
  8  9  1  0
  9 10  2  0
  9 11  1  0
 11 12  1  0
 12 13  2  0
 13 14  1  0
 14 15  2  0
 15 16  1  0
 16 17  2  0
 17 18  1  0
 18 19  2  0
 19 20  1  0
 20 21  2  0
 20 22  1  0
 19 23  1  0
 18 24  1  0
 17 25  1  0
 15 26  1  0
 13 27  1  0
 11 28  1  0
 28 29  1  0
 29 30  1  0
 30 31  1  0
 31 32  1  0
 30 33  1  0
 30 34  1  0
 29 35  1  1
 28 36  1  0
 28 37  1  0
  8 38  1  0
 38 39  2  0
 39 40  1  0
 40 41  1  0
 40 42  2  0
 42 43  1  0
 43 44  2  0
 44 45  1  0
 45 46  2  0
 43 47  1  0
 42 48  1  0
 39 49  1  0
  7 50  1  0
  7 51  1  0
  5 52  1  0
  5 53  1  0
  2 54  1  0
  1 55  1  0
  1 56  1  0
  1 57  1  0
 45  6  1  0
 29  8  1  0
 44 38  1  0
 21 12  1  0
 21 16  1  0
M  END
>  <cnnaffinities>  (61) 
[5.96379]

>  <score>  (61) 
5.96379

>  <index>  (61) 
63

>  <Smiles>  (61) 
C(N(C(=O)C(N1C([C@@]2(C(=O)N(c3c(nc(c4c(c(c(c(c34)[H])[H])[H])[H])[H])[H])C([C@@]2(C(O[H])([H])[H])[H])([H])[H])c2c(c(Cl)c(c(c2C1=O)[H])[H])[H])([H])[H])([H])[H])[H])([H])([H])[H]

>  <h>  (61) 
<NA>

>  <Training>  (61) 
True

>  <Success>  (61) 
True

>  <enamine_searched>  (61) 
False

>  <enamine_id>  (61) 
nan

$$$$

     RDKit          3D

 55 60  0  0  0  0  0  0  0  0999 V2000
   -7.8972   -3.6538  -24.0570 C   0  0  0  0  0  0  0  0  0  0  0  0
   -8.3014   -2.8576  -22.8094 C   0  0  1  0  0  0  0  0  0  0  0  0
   -7.1122   -2.6379  -21.8492 C   0  0  0  0  0  0  0  0  0  0  0  0
   -7.4114   -1.3792  -21.1951 N   0  0  0  0  0  0  0  0  0  0  0  0
   -6.6056   -0.8058  -20.1710 C   0  0  0  0  0  0  0  0  0  0  0  0
   -6.9017   -1.0511  -18.8570 C   0  0  0  0  0  0  0  0  0  0  0  0
   -6.1955   -0.5614  -17.8076 N   0  0  0  0  0  0  0  0  0  0  0  0
   -5.1671    0.2068  -18.0719 C   0  0  0  0  0  0  0  0  0  0  0  0
   -4.7364    0.5417  -19.3875 C   0  0  0  0  0  0  0  0  0  0  0  0
   -3.6076    1.3748  -19.6283 C   0  0  0  0  0  0  0  0  0  0  0  0
   -3.2209    1.6708  -20.9049 C   0  0  0  0  0  0  0  0  0  0  0  0
   -3.9489    1.1498  -21.9955 C   0  0  0  0  0  0  0  0  0  0  0  0
   -5.0352    0.3294  -21.7885 C   0  0  0  0  0  0  0  0  0  0  0  0
   -5.4731    0.0187  -20.4763 C   0  0  0  0  0  0  0  0  0  0  0  0
   -5.5610   -0.0835  -22.6453 H   0  0  0  0  0  0  0  0  0  0  0  0
   -3.6340    1.3627  -23.0115 H   0  0  0  0  0  0  0  0  0  0  0  0
   -2.3522    2.2965  -21.0921 H   0  0  0  0  0  0  0  0  0  0  0  0
   -3.0679    1.7709  -18.7717 H   0  0  0  0  0  0  0  0  0  0  0  0
   -4.6196    0.6131  -17.2198 H   0  0  0  0  0  0  0  0  0  0  0  0
   -7.7528   -1.6752  -18.5952 H   0  0  0  0  0  0  0  0  0  0  0  0
   -8.3811   -0.6309  -21.8246 C   0  0  0  0  0  0  0  0  0  0  0  0
   -8.7229    0.4719  -21.4576 O   0  0  0  0  0  0  0  0  0  0  0  0
   -8.9294   -1.4405  -23.0347 C   0  0  1  0  0  0  0  0  0  0  0  0
   -8.4375   -0.8089  -24.3651 C   0  0  0  0  0  0  0  0  0  0  0  0
   -9.0688    0.4679  -24.6429 N   0  0  0  0  0  0  0  0  0  0  0  0
   -8.2624    1.6315  -24.9869 C   0  0  0  0  0  0  0  0  0  0  0  0
   -7.9992    2.5362  -23.8134 C   0  0  0  0  0  0  0  0  0  0  0  0
   -6.8046    2.5734  -23.1536 N   0  0  0  0  0  0  0  0  0  0  0  0
   -7.0365    3.4329  -22.1796 C   0  0  0  0  0  0  0  0  0  0  0  0
   -8.2838    3.9214  -22.2884 N   0  0  0  0  0  0  0  0  0  0  0  0
   -8.9160    3.3486  -23.3315 N   0  0  0  0  0  0  0  0  0  0  0  0
   -8.8041    4.4965  -21.6433 H   0  0  0  0  0  0  0  0  0  0  0  0
   -6.3592    3.7112  -21.3866 H   0  0  0  0  0  0  0  0  0  0  0  0
   -8.8006    2.1806  -25.7665 H   0  0  0  0  0  0  0  0  0  0  0  0
   -7.2948    1.2896  -25.3646 H   0  0  0  0  0  0  0  0  0  0  0  0
  -10.4228    0.6352  -24.5357 C   0  0  0  0  0  0  0  0  0  0  0  0
  -11.0020    1.6254  -24.9650 O   0  0  0  0  0  0  0  0  0  0  0  0
  -11.1474   -0.4431  -23.7909 C   0  0  0  0  0  0  0  0  0  0  0  0
  -12.5414   -0.3866  -23.7706 C   0  0  0  0  0  0  0  0  0  0  0  0
  -13.2634   -1.2237  -22.9454 C   0  0  0  0  0  0  0  0  0  0  0  0
  -12.5592   -2.0924  -22.1200 C   0  0  0  0  0  0  0  0  0  0  0  0
  -13.2516   -2.8677  -21.2705 F   0  0  0  0  0  0  0  0  0  0  0  0
  -11.1830   -2.1799  -22.1326 C   0  0  0  0  0  0  0  0  0  0  0  0
  -10.4501   -1.3896  -23.0259 C   0  0  0  0  0  0  0  0  0  0  0  0
  -10.7087   -2.8387  -21.4138 H   0  0  0  0  0  0  0  0  0  0  0  0
  -14.3448   -1.1952  -22.8941 H   0  0  0  0  0  0  0  0  0  0  0  0
  -13.0250    0.3571  -24.3944 H   0  0  0  0  0  0  0  0  0  0  0  0
   -7.3580   -0.6378  -24.2898 H   0  0  0  0  0  0  0  0  0  0  0  0
   -8.6338   -1.5123  -25.1892 H   0  0  0  0  0  0  0  0  0  0  0  0
   -6.1608   -2.5889  -22.4025 H   0  0  0  0  0  0  0  0  0  0  0  0
   -7.0136   -3.4395  -21.1089 H   0  0  0  0  0  0  0  0  0  0  0  0
   -9.0580   -3.4360  -22.2752 H   0  0  0  0  0  0  0  0  0  0  0  0
   -7.0877   -3.1559  -24.6035 H   0  0  0  0  0  0  0  0  0  0  0  0
   -8.7330   -3.7882  -24.7523 H   0  0  0  0  0  0  0  0  0  0  0  0
   -7.5344   -4.6498  -23.7804 H   0  0  0  0  0  0  0  0  0  0  0  0
  1  2  1  0
  2  3  1  0
  3  4  1  0
  4  5  1  0
  5  6  2  0
  6  7  1  0
  7  8  2  0
  8  9  1  0
  9 10  2  0
 10 11  1  0
 11 12  2  0
 12 13  1  0
 13 14  2  0
 13 15  1  0
 12 16  1  0
 11 17  1  0
 10 18  1  0
  8 19  1  0
  6 20  1  0
  4 21  1  0
 21 22  2  0
 21 23  1  0
 23 24  1  6
 24 25  1  0
 25 26  1  0
 26 27  1  0
 27 28  1  0
 28 29  2  0
 29 30  1  0
 30 31  1  0
 30 32  1  0
 29 33  1  0
 26 34  1  0
 26 35  1  0
 25 36  1  0
 36 37  2  0
 36 38  1  0
 38 39  2  0
 39 40  1  0
 40 41  2  0
 41 42  1  0
 41 43  1  0
 43 44  2  0
 43 45  1  0
 40 46  1  0
 39 47  1  0
 24 48  1  0
 24 49  1  0
  3 50  1  0
  3 51  1  0
  2 52  1  1
  1 53  1  0
  1 54  1  0
  1 55  1  0
 23  2  1  0
 31 27  2  0
 44 38  1  0
 14  5  1  0
 44 23  1  0
 14  9  1  0
M  END
>  <cnnaffinities>  (62) 
[6.31688, 6.20174]

>  <score>  (62) 
6.31688

>  <index>  (62) 
64

>  <Smiles>  (62) 
C([C@]1(C(N(c2c(nc(c3c(c(c(c(c23)[H])[H])[H])[H])[H])[H])C(=O)[C@]21C(N(C(c1nc(n(n1)[H])[H])([H])[H])C(=O)c1c(c(c(F)c(c21)[H])[H])[H])([H])[H])([H])[H])[H])([H])([H])[H]

>  <h>  (62) 
<NA>

>  <Training>  (62) 
True

>  <Success>  (62) 
True

>  <enamine_searched>  (62) 
False

>  <enamine_id>  (62) 
nan

$$$$

     RDKit          3D

 55 60  0  0  0  0  0  0  0  0999 V2000
   -7.8774   -3.5915  -24.1081 C   0  0  0  0  0  0  0  0  0  0  0  0
   -8.2838   -2.8472  -22.8285 C   0  0  1  0  0  0  0  0  0  0  0  0
   -7.0802   -2.6103  -21.8891 C   0  0  0  0  0  0  0  0  0  0  0  0
   -7.4067   -1.3793  -21.1977 N   0  0  0  0  0  0  0  0  0  0  0  0
   -6.6039   -0.8069  -20.1711 C   0  0  0  0  0  0  0  0  0  0  0  0
   -6.9050   -1.0485  -18.8576 C   0  0  0  0  0  0  0  0  0  0  0  0
   -6.1985   -0.5601  -17.8080 N   0  0  0  0  0  0  0  0  0  0  0  0
   -5.1694    0.2066  -18.0735 C   0  0  0  0  0  0  0  0  0  0  0  0
   -4.7389    0.5437  -19.3887 C   0  0  0  0  0  0  0  0  0  0  0  0
   -3.6106    1.3779  -19.6291 C   0  0  0  0  0  0  0  0  0  0  0  0
   -3.2261    1.6753  -20.9055 C   0  0  0  0  0  0  0  0  0  0  0  0
   -3.9544    1.1545  -21.9959 C   0  0  0  0  0  0  0  0  0  0  0  0
   -5.0384    0.3310  -21.7901 C   0  0  0  0  0  0  0  0  0  0  0  0
   -5.4727    0.0171  -20.4775 C   0  0  0  0  0  0  0  0  0  0  0  0
   -5.5661   -0.0762  -22.6483 H   0  0  0  0  0  0  0  0  0  0  0  0
   -3.6401    1.3723  -23.0115 H   0  0  0  0  0  0  0  0  0  0  0  0
   -2.3589    2.3036  -21.0930 H   0  0  0  0  0  0  0  0  0  0  0  0
   -3.0699    1.7708  -18.7715 H   0  0  0  0  0  0  0  0  0  0  0  0
   -4.6210    0.6123  -17.2218 H   0  0  0  0  0  0  0  0  0  0  0  0
   -7.7591   -1.6706  -18.6004 H   0  0  0  0  0  0  0  0  0  0  0  0
   -8.4306   -0.6592  -21.7701 C   0  0  0  0  0  0  0  0  0  0  0  0
   -8.8232    0.4049  -21.3421 O   0  0  0  0  0  0  0  0  0  0  0  0
   -8.9698   -1.4482  -22.9994 C   0  0  1  0  0  0  0  0  0  0  0  0
   -8.5225   -0.7738  -24.3242 C   0  0  0  0  0  0  0  0  0  0  0  0
   -9.2095    0.4747  -24.5801 N   0  0  0  0  0  0  0  0  0  0  0  0
   -8.4414    1.6662  -24.9110 C   0  0  0  0  0  0  0  0  0  0  0  0
   -8.1379    2.5225  -23.7151 C   0  0  0  0  0  0  0  0  0  0  0  0
   -8.9552    3.3786  -23.0694 C   0  0  0  0  0  0  0  0  0  0  0  0
   -8.2700    3.9274  -22.0339 O   0  0  0  0  0  0  0  0  0  0  0  0
   -7.0634    3.3403  -22.0781 C   0  0  0  0  0  0  0  0  0  0  0  0
   -6.9082    2.5152  -23.0631 N   0  0  0  0  0  0  0  0  0  0  0  0
   -6.3948    3.5857  -21.2606 H   0  0  0  0  0  0  0  0  0  0  0  0
   -9.9880    3.6677  -23.1766 H   0  0  0  0  0  0  0  0  0  0  0  0
   -9.0358    2.2274  -25.6383 H   0  0  0  0  0  0  0  0  0  0  0  0
   -7.4986    1.3587  -25.3746 H   0  0  0  0  0  0  0  0  0  0  0  0
  -10.5633    0.6018  -24.4346 C   0  0  0  0  0  0  0  0  0  0  0  0
  -11.1834    1.5789  -24.8422 O   0  0  0  0  0  0  0  0  0  0  0  0
  -11.2374   -0.5107  -23.6879 C   0  0  0  0  0  0  0  0  0  0  0  0
  -12.6322   -0.5102  -23.6365 C   0  0  0  0  0  0  0  0  0  0  0  0
  -13.3014   -1.3998  -22.8210 C   0  0  0  0  0  0  0  0  0  0  0  0
  -12.5493   -2.2626  -22.0328 C   0  0  0  0  0  0  0  0  0  0  0  0
  -13.1941   -3.0788  -21.1840 F   0  0  0  0  0  0  0  0  0  0  0  0
  -11.1720   -2.2973  -22.0791 C   0  0  0  0  0  0  0  0  0  0  0  0
  -10.4901   -1.4513  -22.9622 C   0  0  0  0  0  0  0  0  0  0  0  0
  -10.6565   -2.9612  -21.3943 H   0  0  0  0  0  0  0  0  0  0  0  0
  -14.3811   -1.4201  -22.7470 H   0  0  0  0  0  0  0  0  0  0  0  0
  -13.1573    0.2294  -24.2315 H   0  0  0  0  0  0  0  0  0  0  0  0
   -8.6994   -1.4721  -25.1573 H   0  0  0  0  0  0  0  0  0  0  0  0
   -7.4522   -0.5506  -24.2537 H   0  0  0  0  0  0  0  0  0  0  0  0
   -6.1429   -2.5107  -22.4594 H   0  0  0  0  0  0  0  0  0  0  0  0
   -6.9386   -3.4270  -21.1711 H   0  0  0  0  0  0  0  0  0  0  0  0
   -9.0051   -3.4700  -22.2950 H   0  0  0  0  0  0  0  0  0  0  0  0
   -8.7231   -3.7365  -24.7901 H   0  0  0  0  0  0  0  0  0  0  0  0
   -7.0986   -3.0461  -24.6556 H   0  0  0  0  0  0  0  0  0  0  0  0
   -7.4712   -4.5810  -23.8696 H   0  0  0  0  0  0  0  0  0  0  0  0
  1  2  1  0
  2  3  1  0
  3  4  1  0
  4  5  1  0
  5  6  2  0
  6  7  1  0
  7  8  2  0
  8  9  1  0
  9 10  2  0
 10 11  1  0
 11 12  2  0
 12 13  1  0
 13 14  2  0
 13 15  1  0
 12 16  1  0
 11 17  1  0
 10 18  1  0
  8 19  1  0
  6 20  1  0
  4 21  1  0
 21 22  2  0
 21 23  1  0
 23 24  1  6
 24 25  1  0
 25 26  1  0
 26 27  1  0
 27 28  2  0
 28 29  1  0
 29 30  1  0
 30 31  2  0
 30 32  1  0
 28 33  1  0
 26 34  1  0
 26 35  1  0
 25 36  1  0
 36 37  2  0
 36 38  1  0
 38 39  2  0
 39 40  1  0
 40 41  2  0
 41 42  1  0
 41 43  1  0
 43 44  2  0
 43 45  1  0
 40 46  1  0
 39 47  1  0
 24 48  1  0
 24 49  1  0
  3 50  1  0
  3 51  1  0
  2 52  1  1
  1 53  1  0
  1 54  1  0
  1 55  1  0
 23  2  1  0
 31 27  1  0
 44 38  1  0
 14  5  1  0
 44 23  1  0
 14  9  1  0
M  END
>  <cnnaffinities>  (63) 
[6.15752]

>  <score>  (63) 
6.15752

>  <index>  (63) 
65

>  <Smiles>  (63) 
C([C@]1(C(N(c2c(nc(c3c(c(c(c(c23)[H])[H])[H])[H])[H])[H])C(=O)[C@]21C(N(C(c1c(oc(n1)[H])[H])([H])[H])C(=O)c1c(c(c(F)c(c21)[H])[H])[H])([H])[H])([H])[H])[H])([H])([H])[H]

>  <h>  (63) 
<NA>

>  <Training>  (63) 
True

>  <Success>  (63) 
True

>  <enamine_searched>  (63) 
False

>  <enamine_id>  (63) 
nan

$$$$

     RDKit          3D

 44 47  0  0  0  0  0  0  0  0999 V2000
   -9.7971    1.4337  -24.4041 C   0  0  0  0  0  0  0  0  0  0  0  0
  -10.9336    0.5044  -24.0003 C   0  0  0  0  0  0  0  0  0  0  0  0
  -10.7721   -0.1460  -22.6195 C   0  0  1  0  0  0  0  0  0  0  0  0
  -11.9923   -0.9471  -22.2909 C   0  0  0  0  0  0  0  0  0  0  0  0
  -13.3037   -0.4070  -22.1329 C   0  0  0  0  0  0  0  0  0  0  0  0
  -14.2003   -1.3525  -21.7519 C   0  0  0  0  0  0  0  0  0  0  0  0
  -13.4858   -2.9108  -21.6705 S   0  0  0  0  0  0  0  0  0  0  0  0
  -11.9364   -2.2897  -22.0893 C   0  0  0  0  0  0  0  0  0  0  0  0
  -10.7101   -3.1413  -22.2551 C   0  0  0  0  0  0  0  0  0  0  0  0
   -9.6610   -2.3188  -23.0062 C   0  0  0  0  0  0  0  0  0  0  0  0
   -9.5680   -0.9623  -22.4702 N   0  0  0  0  0  0  0  0  0  0  0  0
   -8.5369   -0.4263  -21.7354 C   0  0  0  0  0  0  0  0  0  0  0  0
   -8.4951    0.7542  -21.4345 O   0  0  0  0  0  0  0  0  0  0  0  0
   -7.4609   -1.4037  -21.2631 C   0  0  0  0  0  0  0  0  0  0  0  0
   -6.6067   -0.8132  -20.1817 C   0  0  0  0  0  0  0  0  0  0  0  0
   -6.9042   -1.0618  -18.8701 C   0  0  0  0  0  0  0  0  0  0  0  0
   -6.2239   -0.5757  -17.7998 N   0  0  0  0  0  0  0  0  0  0  0  0
   -5.2016    0.2059  -18.0597 C   0  0  0  0  0  0  0  0  0  0  0  0
   -4.7835    0.5594  -19.3696 C   0  0  0  0  0  0  0  0  0  0  0  0
   -3.6507    1.3778  -19.5982 C   0  0  0  0  0  0  0  0  0  0  0  0
   -3.2728    1.7060  -20.8730 C   0  0  0  0  0  0  0  0  0  0  0  0
   -4.0226    1.2326  -21.9735 C   0  0  0  0  0  0  0  0  0  0  0  0
   -5.1113    0.4215  -21.7812 C   0  0  0  0  0  0  0  0  0  0  0  0
   -5.5118    0.0496  -20.4704 C   0  0  0  0  0  0  0  0  0  0  0  0
   -5.6676    0.0516  -22.6389 H   0  0  0  0  0  0  0  0  0  0  0  0
   -3.7115    1.4905  -22.9830 H   0  0  0  0  0  0  0  0  0  0  0  0
   -2.4008    2.3279  -21.0499 H   0  0  0  0  0  0  0  0  0  0  0  0
   -3.0869    1.7348  -18.7406 H   0  0  0  0  0  0  0  0  0  0  0  0
   -4.6376    0.6003  -17.2128 H   0  0  0  0  0  0  0  0  0  0  0  0
   -7.7504   -1.7019  -18.6175 H   0  0  0  0  0  0  0  0  0  0  0  0
   -7.9874   -2.2856  -20.8731 H   0  0  0  0  0  0  0  0  0  0  0  0
   -6.8755   -1.7340  -22.1333 H   0  0  0  0  0  0  0  0  0  0  0  0
   -8.6787   -2.8014  -23.0490 H   0  0  0  0  0  0  0  0  0  0  0  0
  -10.0058   -2.2334  -24.0428 H   0  0  0  0  0  0  0  0  0  0  0  0
  -10.3296   -3.4696  -21.2816 H   0  0  0  0  0  0  0  0  0  0  0  0
  -10.9356   -4.0639  -22.8011 H   0  0  0  0  0  0  0  0  0  0  0  0
  -15.2291   -1.2023  -21.4720 H   0  0  0  0  0  0  0  0  0  0  0  0
  -13.5687    0.6341  -22.2908 H   0  0  0  0  0  0  0  0  0  0  0  0
  -10.6514    0.6780  -21.9068 H   0  0  0  0  0  0  0  0  0  0  0  0
  -11.8708    1.0700  -23.9432 H   0  0  0  0  0  0  0  0  0  0  0  0
  -11.1082   -0.2656  -24.7577 H   0  0  0  0  0  0  0  0  0  0  0  0
   -8.8606    0.8891  -24.5768 H   0  0  0  0  0  0  0  0  0  0  0  0
  -10.0426    1.9807  -25.3238 H   0  0  0  0  0  0  0  0  0  0  0  0
   -9.6294    2.1666  -23.6076 H   0  0  0  0  0  0  0  0  0  0  0  0
  1  2  1  0
  2  3  1  0
  3  4  1  0
  4  5  1  0
  5  6  2  0
  6  7  1  0
  7  8  1  0
  8  9  1  0
  9 10  1  0
 10 11  1  0
 11 12  1  0
 12 13  2  0
 12 14  1  0
 14 15  1  0
 15 16  2  0
 16 17  1  0
 17 18  2  0
 18 19  1  0
 19 20  2  0
 20 21  1  0
 21 22  2  0
 22 23  1  0
 23 24  2  0
 23 25  1  0
 22 26  1  0
 21 27  1  0
 20 28  1  0
 18 29  1  0
 16 30  1  0
 14 31  1  0
 14 32  1  0
 10 33  1  0
 10 34  1  0
  9 35  1  0
  9 36  1  0
  6 37  1  0
  5 38  1  0
  3 39  1  1
  2 40  1  0
  2 41  1  0
  1 42  1  0
  1 43  1  0
  1 44  1  0
 11  3  1  0
 24 15  1  0
  8  4  2  0
 24 19  1  0
M  END
>  <cnnaffinities>  (64) 
[4.94615]

>  <score>  (64) 
4.94615

>  <index>  (64) 
66

>  <Smiles>  (64) 
C(C([C@]1(c2c(c(sc2C(C(N1C(=O)C(c1c(nc(c2c(c(c(c(c12)[H])[H])[H])[H])[H])[H])([H])[H])([H])[H])([H])[H])[H])[H])[H])([H])[H])([H])([H])[H]

>  <h>  (64) 
<NA>

>  <Training>  (64) 
True

>  <Success>  (64) 
True

>  <enamine_searched>  (64) 
False

>  <enamine_id>  (64) 
nan

$$$$

     RDKit          3D

 58 63  0  0  0  0  0  0  0  0999 V2000
   -5.6123    4.1689  -22.2279 C   0  0  0  0  0  0  0  0  0  0  0  0
   -6.6874    3.5600  -23.0717 C   0  0  0  0  0  0  0  0  0  0  0  0
   -6.6077    2.4343  -23.9437 C   0  0  0  0  0  0  0  0  0  0  0  0
   -7.8754    2.2921  -24.4115 C   0  0  0  0  0  0  0  0  0  0  0  0
   -8.5992    1.3899  -25.3619 C   0  0  0  0  0  0  0  0  0  0  0  0
   -9.3449    0.3288  -24.7011 N   0  0  0  0  0  0  0  0  0  0  0  0
   -8.7466   -0.9749  -24.4794 C   0  0  0  0  0  0  0  0  0  0  0  0
   -8.9746   -1.4606  -23.0242 C   0  0  2  0  0  0  0  0  0  0  0  0
   -8.2457   -0.5382  -22.0122 C   0  0  0  0  0  0  0  0  0  0  0  0
   -8.4170    0.6493  -21.8495 O   0  0  0  0  0  0  0  0  0  0  0  0
   -7.3726   -1.3106  -21.2702 N   0  0  0  0  0  0  0  0  0  0  0  0
   -6.6083   -0.7691  -20.2126 C   0  0  0  0  0  0  0  0  0  0  0  0
   -6.8954   -1.0763  -18.9075 C   0  0  0  0  0  0  0  0  0  0  0  0
   -6.2215   -0.5953  -17.8365 N   0  0  0  0  0  0  0  0  0  0  0  0
   -5.2024    0.1973  -18.0755 C   0  0  0  0  0  0  0  0  0  0  0  0
   -4.7716    0.5707  -19.3800 C   0  0  0  0  0  0  0  0  0  0  0  0
   -3.6361    1.3981  -19.5875 C   0  0  0  0  0  0  0  0  0  0  0  0
   -3.2355    1.7177  -20.8583 C   0  0  0  0  0  0  0  0  0  0  0  0
   -3.9638    1.2487  -21.9698 C   0  0  0  0  0  0  0  0  0  0  0  0
   -5.0624    0.4423  -21.7946 C   0  0  0  0  0  0  0  0  0  0  0  0
   -5.4982    0.0885  -20.4895 C   0  0  0  0  0  0  0  0  0  0  0  0
   -5.5938    0.0435  -22.6507 H   0  0  0  0  0  0  0  0  0  0  0  0
   -3.6303    1.5109  -22.9718 H   0  0  0  0  0  0  0  0  0  0  0  0
   -2.3597    2.3415  -21.0136 H   0  0  0  0  0  0  0  0  0  0  0  0
   -3.0956    1.7587  -18.7193 H   0  0  0  0  0  0  0  0  0  0  0  0
   -4.6604    0.5841  -17.2134 H   0  0  0  0  0  0  0  0  0  0  0  0
   -7.7327   -1.7323  -18.6761 H   0  0  0  0  0  0  0  0  0  0  0  0
   -7.6619   -2.7265  -21.3736 C   0  0  0  0  0  0  0  0  0  0  0  0
   -8.3570   -2.8696  -22.7437 C   0  0  2  0  0  0  0  0  0  0  0  0
   -7.4300   -3.4396  -23.8242 C   0  0  0  0  0  0  0  0  0  0  0  0
   -7.0884   -4.4353  -23.5208 H   0  0  0  0  0  0  0  0  0  0  0  0
   -6.5510   -2.8121  -24.0103 H   0  0  0  0  0  0  0  0  0  0  0  0
   -7.9751   -3.5574  -24.7661 H   0  0  0  0  0  0  0  0  0  0  0  0
   -9.1688   -3.5959  -22.6695 H   0  0  0  0  0  0  0  0  0  0  0  0
   -8.3413   -3.0404  -20.5673 H   0  0  0  0  0  0  0  0  0  0  0  0
   -6.7349   -3.3050  -21.2970 H   0  0  0  0  0  0  0  0  0  0  0  0
  -10.4811   -1.3935  -22.7754 C   0  0  0  0  0  0  0  0  0  0  0  0
  -11.1411   -2.3248  -21.9617 C   0  0  0  0  0  0  0  0  0  0  0  0
  -12.5055   -2.2342  -21.7955 C   0  0  0  0  0  0  0  0  0  0  0  0
  -13.1241   -3.1719  -21.0579 F   0  0  0  0  0  0  0  0  0  0  0  0
  -13.2661   -1.2053  -22.3365 C   0  0  0  0  0  0  0  0  0  0  0  0
  -12.6076   -0.2475  -23.0878 C   0  0  0  0  0  0  0  0  0  0  0  0
  -11.2404   -0.3633  -23.3486 C   0  0  0  0  0  0  0  0  0  0  0  0
  -10.6192    0.6179  -24.2977 C   0  0  0  0  0  0  0  0  0  0  0  0
  -11.2360    1.5923  -24.7069 O   0  0  0  0  0  0  0  0  0  0  0  0
  -13.1409    0.5952  -23.5151 H   0  0  0  0  0  0  0  0  0  0  0  0
  -14.3383   -1.1868  -22.1813 H   0  0  0  0  0  0  0  0  0  0  0  0
  -10.6354   -3.1485  -21.4729 H   0  0  0  0  0  0  0  0  0  0  0  0
   -7.6801   -0.8924  -24.6930 H   0  0  0  0  0  0  0  0  0  0  0  0
   -9.1822   -1.7292  -25.1575 H   0  0  0  0  0  0  0  0  0  0  0  0
   -9.3224    2.0427  -25.8491 H   0  0  0  0  0  0  0  0  0  0  0  0
   -7.9203    0.9459  -26.0949 H   0  0  0  0  0  0  0  0  0  0  0  0
   -8.6511    3.2453  -23.8785 O   0  0  0  0  0  0  0  0  0  0  0  0
   -7.9084    4.0422  -23.0500 N   0  0  0  0  0  0  0  0  0  0  0  0
   -5.7501    1.8097  -24.1212 H   0  0  0  0  0  0  0  0  0  0  0  0
   -5.5234    3.6226  -21.2798 H   0  0  0  0  0  0  0  0  0  0  0  0
   -4.6423    4.0879  -22.7275 H   0  0  0  0  0  0  0  0  0  0  0  0
   -5.8313    5.2199  -22.0243 H   0  0  0  0  0  0  0  0  0  0  0  0
  1  2  1  0
  2  3  1  0
  3  4  2  0
  4  5  1  0
  5  6  1  0
  6  7  1  0
  8  7  1  6
  8  9  1  0
  9 10  2  0
  9 11  1  0
 11 12  1  0
 12 13  2  0
 13 14  1  0
 14 15  2  0
 15 16  1  0
 16 17  2  0
 17 18  1  0
 18 19  2  0
 19 20  1  0
 20 21  2  0
 20 22  1  0
 19 23  1  0
 18 24  1  0
 17 25  1  0
 15 26  1  0
 13 27  1  0
 11 28  1  0
 28 29  1  0
 29 30  1  0
 30 31  1  0
 30 32  1  0
 30 33  1  0
 29 34  1  1
 28 35  1  0
 28 36  1  0
  8 37  1  0
 37 38  2  0
 38 39  1  0
 39 40  1  0
 39 41  2  0
 41 42  1  0
 42 43  2  0
 43 44  1  0
 44 45  2  0
 42 46  1  0
 41 47  1  0
 38 48  1  0
  7 49  1  0
  7 50  1  0
  5 51  1  0
  5 52  1  0
  4 53  1  0
 53 54  1  0
  3 55  1  0
  1 56  1  0
  1 57  1  0
  1 58  1  0
 54  2  2  0
 44  6  1  0
 29  8  1  0
 43 37  1  0
 21 12  1  0
 21 16  1  0
M  END
>  <cnnaffinities>  (65) 
[6.36764]

>  <score>  (65) 
6.36764

>  <index>  (65) 
67

>  <Smiles>  (65) 
C(c1c(c(C(N2C([C@@]3(C(=O)N(c4c(nc(c5c(c(c(c(c45)[H])[H])[H])[H])[H])[H])C([C@@]3(C([H])([H])[H])[H])([H])[H])c3c(c(F)c(c(c3C2=O)[H])[H])[H])([H])[H])([H])[H])on1)[H])([H])([H])[H]

>  <h>  (65) 
<NA>

>  <Training>  (65) 
True

>  <Success>  (65) 
True

>  <enamine_searched>  (65) 
False

>  <enamine_id>  (65) 
nan

$$$$

     RDKit          3D

 65 70  0  0  0  0  0  0  0  0999 V2000
   -5.6757   -3.2291  -21.2692 O   0  0  0  0  0  0  0  0  0  0  0  0
   -6.6168   -2.7386  -21.8723 C   0  0  0  0  0  0  0  0  0  0  0  0
   -7.3349   -1.5084  -21.3065 C   0  0  0  0  0  0  0  0  0  0  0  0
   -6.5783   -0.8289  -20.2010 C   0  0  0  0  0  0  0  0  0  0  0  0
   -6.8840   -1.0780  -18.8922 C   0  0  0  0  0  0  0  0  0  0  0  0
   -6.2184   -0.5840  -17.8125 N   0  0  0  0  0  0  0  0  0  0  0  0
   -5.1973    0.2011  -18.0614 C   0  0  0  0  0  0  0  0  0  0  0  0
   -4.7563    0.5470  -19.3663 C   0  0  0  0  0  0  0  0  0  0  0  0
   -3.6250    1.3762  -19.5882 C   0  0  0  0  0  0  0  0  0  0  0  0
   -3.2419    1.7001  -20.8618 C   0  0  0  0  0  0  0  0  0  0  0  0
   -3.9786    1.2256  -21.9667 C   0  0  0  0  0  0  0  0  0  0  0  0
   -5.0599    0.3983  -21.7800 C   0  0  0  0  0  0  0  0  0  0  0  0
   -5.4752    0.0316  -20.4733 C   0  0  0  0  0  0  0  0  0  0  0  0
   -5.5916    0.0039  -22.6406 H   0  0  0  0  0  0  0  0  0  0  0  0
   -3.6752    1.4902  -22.9773 H   0  0  0  0  0  0  0  0  0  0  0  0
   -2.3688    2.3258  -21.0324 H   0  0  0  0  0  0  0  0  0  0  0  0
   -3.0731    1.7387  -18.7237 H   0  0  0  0  0  0  0  0  0  0  0  0
   -4.6567    0.6045  -17.2018 H   0  0  0  0  0  0  0  0  0  0  0  0
   -7.7315   -1.7226  -18.6525 H   0  0  0  0  0  0  0  0  0  0  0  0
   -8.2967   -1.8721  -20.9187 H   0  0  0  0  0  0  0  0  0  0  0  0
   -7.5728   -0.8113  -22.1131 H   0  0  0  0  0  0  0  0  0  0  0  0
   -7.1377   -3.2777  -23.0433 N   0  0  0  0  0  0  0  0  0  0  0  0
   -7.8214   -2.4639  -24.0521 C   0  0  0  0  0  0  0  0  0  0  0  0
   -9.2882   -2.1412  -23.7870 C   0  0  0  0  0  0  0  0  0  0  0  0
   -9.8757   -1.0269  -24.3942 C   0  0  0  0  0  0  0  0  0  0  0  0
  -11.2040   -0.7012  -24.1361 C   0  0  0  0  0  0  0  0  0  0  0  0
  -11.9631   -1.4541  -23.2491 C   0  0  0  0  0  0  0  0  0  0  0  0
  -11.3622   -2.5294  -22.6122 C   0  0  0  0  0  0  0  0  0  0  0  0
  -12.2502   -3.3583  -21.3702 Cl  0  0  0  0  0  0  0  0  0  0  0  0
  -10.0567   -2.9080  -22.9088 C   0  0  0  0  0  0  0  0  0  0  0  0
   -9.6336   -3.7808  -22.4272 H   0  0  0  0  0  0  0  0  0  0  0  0
  -12.9995   -1.2096  -23.0374 H   0  0  0  0  0  0  0  0  0  0  0  0
  -11.6441    0.1757  -24.6042 H   0  0  0  0  0  0  0  0  0  0  0  0
   -9.2886   -0.3844  -25.0527 H   0  0  0  0  0  0  0  0  0  0  0  0
   -7.7251   -2.9678  -25.0175 H   0  0  0  0  0  0  0  0  0  0  0  0
   -7.2674   -1.5245  -24.1807 H   0  0  0  0  0  0  0  0  0  0  0  0
   -6.7950   -4.6661  -23.3654 C   0  0  2  0  0  0  0  0  0  0  0  0
   -7.7041   -5.3380  -24.4191 C   0  0  0  0  0  0  0  0  0  0  0  0
   -7.4909   -6.8541  -24.1928 C   0  0  0  0  0  0  0  0  0  0  0  0
   -6.4687   -6.8672  -23.0618 C   0  0  2  0  0  0  0  0  0  0  0  0
   -6.8892   -5.6786  -22.2105 C   0  0  0  0  0  0  0  0  0  0  0  0
   -6.2153   -5.4431  -21.3847 H   0  0  0  0  0  0  0  0  0  0  0  0
   -7.9146   -5.7598  -21.8321 H   0  0  0  0  0  0  0  0  0  0  0  0
   -5.1297   -6.4031  -23.6891 N   0  0  2  0  0  4  0  0  0  0  0  0
   -3.9315   -6.7547  -22.8514 C   0  0  0  0  0  0  0  0  0  0  0  0
   -3.1015   -7.9412  -23.3530 C   0  0  0  0  0  0  0  0  0  0  0  0
   -3.8086   -9.0516  -24.1329 C   0  0  0  0  0  0  0  0  0  0  0  0
   -3.4903   -8.4218  -25.3823 O   0  0  0  0  0  0  0  0  0  0  0  0
   -2.4352   -7.6952  -24.7177 C   0  0  0  0  0  0  0  0  0  0  0  0
   -2.4154   -6.6506  -25.0509 H   0  0  0  0  0  0  0  0  0  0  0  0
   -1.4381   -8.1705  -24.8262 H   0  0  0  0  0  0  0  0  0  0  0  0
   -3.2424   -9.9867  -24.0031 H   0  0  0  0  0  0  0  0  0  0  0  0
   -4.8867   -9.2173  -24.0264 H   0  0  0  0  0  0  0  0  0  0  0  0
   -2.4654   -8.2823  -22.5356 H   0  0  0  0  0  0  0  0  0  0  0  0
   -3.2727   -5.8770  -22.8240 H   0  0  0  0  0  0  0  0  0  0  0  0
   -4.2744   -6.9235  -21.8246 H   0  0  0  0  0  0  0  0  0  0  0  0
   -5.3511   -4.8929  -23.8632 C   0  0  0  0  0  0  0  0  0  0  0  0
   -4.6363   -4.3528  -23.2444 H   0  0  0  0  0  0  0  0  0  0  0  0
   -5.1998   -4.6270  -24.9133 H   0  0  0  0  0  0  0  0  0  0  0  0
   -5.0098   -6.8425  -24.6153 H   0  0  0  0  0  0  0  0  0  0  0  0
   -6.3240   -7.8148  -22.5459 H   0  0  0  0  0  0  0  0  0  0  0  0
   -8.4196   -7.3508  -23.8949 H   0  0  0  0  0  0  0  0  0  0  0  0
   -7.0857   -7.3734  -25.0685 H   0  0  0  0  0  0  0  0  0  0  0  0
   -7.4297   -5.0384  -25.4343 H   0  0  0  0  0  0  0  0  0  0  0  0
   -8.7412   -5.0473  -24.2359 H   0  0  0  0  0  0  0  0  0  0  0  0
  1  2  2  0
  2  3  1  0
  3  4  1  0
  4  5  2  0
  5  6  1  0
  6  7  2  0
  7  8  1  0
  8  9  2  0
  9 10  1  0
 10 11  2  0
 11 12  1  0
 12 13  2  0
 12 14  1  0
 11 15  1  0
 10 16  1  0
  9 17  1  0
  7 18  1  0
  5 19  1  0
  3 20  1  0
  3 21  1  0
  2 22  1  0
 22 23  1  0
 23 24  1  0
 24 25  2  0
 25 26  1  0
 26 27  2  0
 27 28  1  0
 28 29  1  0
 28 30  2  0
 30 31  1  0
 27 32  1  0
 26 33  1  0
 25 34  1  0
 23 35  1  0
 23 36  1  0
 37 22  1  1
 37 38  1  0
 38 39  1  0
 39 40  1  0
 40 41  1  0
 41 42  1  0
 41 43  1  0
 40 44  1  0
 44 45  1  0
 45 46  1  0
 46 47  1  0
 47 48  1  0
 48 49  1  0
 49 50  1  0
 49 51  1  0
 47 52  1  0
 47 53  1  0
 46 54  1  0
 45 55  1  0
 45 56  1  0
 44 57  1  0
 57 58  1  0
 57 59  1  0
 44 60  1  6
 40 61  1  1
 39 62  1  0
 39 63  1  0
 38 64  1  0
 38 65  1  0
 13  4  1  0
 30 24  1  0
 41 37  1  0
 49 46  1  0
 13  8  1  0
 57 37  1  0
M  CHG  1  44   1
M  END
>  <cnnaffinities>  (66) 
[5.5934]

>  <score>  (66) 
5.5934

>  <index>  (66) 
68

>  <Smiles>  (66) 
O=C(C(c1c(nc(c2c(c(c(c(c12)[H])[H])[H])[H])[H])[H])([H])[H])N(C(c1c(c(c(c(Cl)c1[H])[H])[H])[H])([H])[H])[C@]12C(C([C@](C1([H])[H])([N@+](C(C1(C(OC1([H])[H])([H])[H])[H])([H])[H])(C2([H])[H])[H])[H])([H])[H])([H])[H]

>  <h>  (66) 
<NA>

>  <Training>  (66) 
True

>  <Success>  (66) 
True

>  <enamine_searched>  (66) 
False

>  <enamine_id>  (66) 
nan

$$$$

     RDKit          3D

 63 67  0  0  0  0  0  0  0  0999 V2000
  -12.2245    6.4675  -23.8474 C   0  0  0  0  0  0  0  0  0  0  0  0
  -11.4363    5.4033  -23.7919 C   0  0  0  0  0  0  0  0  0  0  0  0
  -10.5927    5.0547  -24.9668 C   0  0  0  0  0  0  0  0  0  0  0  0
  -10.4433    5.8091  -25.9140 O   0  0  0  0  0  0  0  0  0  0  0  0
   -9.8880    3.8647  -24.8918 N   0  0  0  0  0  0  0  0  0  0  0  0
   -8.5704    3.8682  -25.5036 C   0  0  0  0  0  0  0  0  0  0  0  0
   -7.6068    3.1947  -24.5498 C   0  0  0  0  0  0  0  0  0  0  0  0
   -8.0408    1.7508  -24.3660 C   0  0  0  0  0  0  0  0  0  0  0  0
   -9.5205    1.6219  -24.0570 C   0  0  0  0  0  0  0  0  0  0  0  0
  -10.4110    2.6541  -24.4028 C   0  0  0  0  0  0  0  0  0  0  0  0
  -11.7968    2.4618  -24.3003 C   0  0  0  0  0  0  0  0  0  0  0  0
  -12.2978    1.2803  -23.7833 C   0  0  0  0  0  0  0  0  0  0  0  0
  -11.4220    0.2822  -23.3544 C   0  0  0  0  0  0  0  0  0  0  0  0
  -10.0476    0.4646  -23.4847 C   0  0  0  0  0  0  0  0  0  0  0  0
   -9.1254   -0.6615  -23.0164 N   0  0  1  0  0  4  0  0  0  0  0  0
   -8.3028   -1.3508  -24.2114 C   0  0  0  0  0  0  0  0  0  0  0  0
   -8.3562   -2.8617  -24.1545 C   0  0  0  0  0  0  0  0  0  0  0  0
   -7.1953   -3.6413  -24.1120 C   0  0  0  0  0  0  0  0  0  0  0  0
   -7.2766   -5.0277  -24.1555 C   0  0  0  0  0  0  0  0  0  0  0  0
   -8.5060   -5.6584  -24.2680 C   0  0  0  0  0  0  0  0  0  0  0  0
   -9.6550   -4.8850  -24.3127 C   0  0  0  0  0  0  0  0  0  0  0  0
  -11.1866   -5.6896  -24.4967 Cl  0  0  0  0  0  0  0  0  0  0  0  0
   -9.5964   -3.5053  -24.2116 C   0  0  0  0  0  0  0  0  0  0  0  0
  -10.5197   -2.9356  -24.1923 H   0  0  0  0  0  0  0  0  0  0  0  0
   -8.5916   -6.7348  -24.3221 H   0  0  0  0  0  0  0  0  0  0  0  0
   -6.3760   -5.6263  -24.0849 H   0  0  0  0  0  0  0  0  0  0  0  0
   -6.2148   -3.1715  -24.0490 H   0  0  0  0  0  0  0  0  0  0  0  0
   -7.2726   -0.9783  -24.2162 H   0  0  0  0  0  0  0  0  0  0  0  0
   -8.7868   -0.9759  -25.1164 H   0  0  0  0  0  0  0  0  0  0  0  0
   -8.3789   -0.3171  -21.7507 C   0  0  0  0  0  0  0  0  0  0  0  0
   -8.5572    0.7314  -21.1948 O   0  0  0  0  0  0  0  0  0  0  0  0
   -7.4415   -1.4052  -21.2298 C   0  0  0  0  0  0  0  0  0  0  0  0
   -6.5622   -0.8507  -20.1460 C   0  0  0  0  0  0  0  0  0  0  0  0
   -6.8653   -1.0630  -18.8290 C   0  0  0  0  0  0  0  0  0  0  0  0
   -6.1798   -0.5583  -17.7695 N   0  0  0  0  0  0  0  0  0  0  0  0
   -5.1611    0.2200  -18.0452 C   0  0  0  0  0  0  0  0  0  0  0  0
   -4.7424    0.5458  -19.3627 C   0  0  0  0  0  0  0  0  0  0  0  0
   -3.6279    1.3867  -19.6055 C   0  0  0  0  0  0  0  0  0  0  0  0
   -3.2561    1.7021  -20.8836 C   0  0  0  0  0  0  0  0  0  0  0  0
   -3.9976    1.2018  -21.9783 C   0  0  0  0  0  0  0  0  0  0  0  0
   -5.0719    0.3693  -21.7699 C   0  0  0  0  0  0  0  0  0  0  0  0
   -5.4703    0.0102  -20.4532 C   0  0  0  0  0  0  0  0  0  0  0  0
   -5.6128   -0.0281  -22.6274 H   0  0  0  0  0  0  0  0  0  0  0  0
   -3.6864    1.4403  -22.9926 H   0  0  0  0  0  0  0  0  0  0  0  0
   -2.3869    2.3274  -21.0692 H   0  0  0  0  0  0  0  0  0  0  0  0
   -3.0757    1.7672  -18.7486 H   0  0  0  0  0  0  0  0  0  0  0  0
   -4.6065    0.6398  -17.2026 H   0  0  0  0  0  0  0  0  0  0  0  0
   -7.7224   -1.6844  -18.5660 H   0  0  0  0  0  0  0  0  0  0  0  0
   -8.0571   -2.2287  -20.8375 H   0  0  0  0  0  0  0  0  0  0  0  0
   -6.8646   -1.7982  -22.0724 H   0  0  0  0  0  0  0  0  0  0  0  0
   -9.7755   -1.4276  -22.7453 H   0  0  0  0  0  0  0  0  0  0  0  0
  -11.8098   -0.6371  -22.9221 H   0  0  0  0  0  0  0  0  0  0  0  0
  -13.3738    1.1449  -23.6911 H   0  0  0  0  0  0  0  0  0  0  0  0
  -12.4753    3.2444  -24.6221 H   0  0  0  0  0  0  0  0  0  0  0  0
   -7.8240    1.2053  -25.2972 H   0  0  0  0  0  0  0  0  0  0  0  0
   -7.4459    1.2847  -23.5752 H   0  0  0  0  0  0  0  0  0  0  0  0
   -6.5786    3.2467  -24.9237 H   0  0  0  0  0  0  0  0  0  0  0  0
   -7.6403    3.7152  -23.5864 H   0  0  0  0  0  0  0  0  0  0  0  0
   -8.6162    3.3578  -26.4732 H   0  0  0  0  0  0  0  0  0  0  0  0
   -8.3184    4.9120  -25.6874 H   0  0  0  0  0  0  0  0  0  0  0  0
  -11.3470    4.7771  -22.9083 H   0  0  0  0  0  0  0  0  0  0  0  0
  -12.2152    7.0760  -24.7465 H   0  0  0  0  0  0  0  0  0  0  0  0
  -12.8709    6.7469  -23.0212 H   0  0  0  0  0  0  0  0  0  0  0  0
  1  2  2  0
  2  3  1  0
  3  4  2  0
  3  5  1  0
  5  6  1  0
  6  7  1  0
  7  8  1  0
  8  9  1  0
  9 10  2  0
 10 11  1  0
 11 12  2  0
 12 13  1  0
 13 14  2  0
 14 15  1  0
 15 16  1  0
 16 17  1  0
 17 18  2  0
 18 19  1  0
 19 20  2  0
 20 21  1  0
 21 22  1  0
 21 23  2  0
 23 24  1  0
 20 25  1  0
 19 26  1  0
 18 27  1  0
 16 28  1  0
 16 29  1  0
 15 30  1  0
 30 31  2  0
 30 32  1  0
 32 33  1  0
 33 34  2  0
 34 35  1  0
 35 36  2  0
 36 37  1  0
 37 38  2  0
 38 39  1  0
 39 40  2  0
 40 41  1  0
 41 42  2  0
 41 43  1  0
 40 44  1  0
 39 45  1  0
 38 46  1  0
 36 47  1  0
 34 48  1  0
 32 49  1  0
 32 50  1  0
 15 51  1  1
 13 52  1  0
 12 53  1  0
 11 54  1  0
  8 55  1  0
  8 56  1  0
  7 57  1  0
  7 58  1  0
  6 59  1  0
  6 60  1  0
  2 61  1  0
  1 62  1  0
  1 63  1  0
 10  5  1  0
 23 17  1  0
 42 33  1  0
 14  9  1  0
 42 37  1  0
M  CHG  1  15   1
M  END
>  <cnnaffinities>  (67) 
[6.05178]

>  <score>  (67) 
6.05178

>  <index>  (67) 
69

>  <Smiles>  (67) 
C(=C(C(=O)N1C(C(C(c2c1c(c(c(c2[N@@+](C(c1c(c(c(c(Cl)c1[H])[H])[H])[H])([H])[H])(C(=O)C(c1c(nc(c2c(c(c(c(c12)[H])[H])[H])[H])[H])[H])([H])[H])[H])[H])[H])[H])([H])[H])([H])[H])([H])[H])[H])([H])[H]

>  <h>  (67) 
<NA>

>  <Training>  (67) 
True

>  <Success>  (67) 
True

>  <enamine_searched>  (67) 
False

>  <enamine_id>  (67) 
nan

$$$$

     RDKit          3D

 52 54  0  0  0  0  0  0  0  0999 V2000
   -9.4119   -5.2498  -27.2094 C   0  0  0  0  0  0  0  0  0  0  0  0
   -8.9491   -6.5639  -26.5861 C   0  0  0  0  0  0  0  0  0  0  0  0
   -8.0399   -7.3055  -27.5691 C   0  0  0  0  0  0  0  0  0  0  0  0
   -7.1331   -6.7290  -27.7833 H   0  0  0  0  0  0  0  0  0  0  0  0
   -7.7330   -8.2836  -27.1846 H   0  0  0  0  0  0  0  0  0  0  0  0
   -8.5479   -7.4749  -28.5254 H   0  0  0  0  0  0  0  0  0  0  0  0
   -8.2369   -6.3989  -25.2314 C   0  0  0  0  0  0  0  0  0  0  0  0
   -9.0181   -5.8285  -24.0149 C   0  0  0  0  0  0  0  0  0  0  0  0
  -10.3837   -6.5196  -23.9071 C   0  0  0  0  0  0  0  0  0  0  0  0
  -11.0412   -6.2941  -24.7538 H   0  0  0  0  0  0  0  0  0  0  0  0
  -10.9074   -6.1803  -23.0103 H   0  0  0  0  0  0  0  0  0  0  0  0
  -10.2838   -7.6101  -23.8495 H   0  0  0  0  0  0  0  0  0  0  0  0
   -8.2337   -6.1139  -22.7107 C   0  0  0  0  0  0  0  0  0  0  0  0
   -7.1087   -5.1176  -22.4361 C   0  0  0  0  0  0  0  0  0  0  0  0
   -7.6172   -3.7458  -22.3272 N   0  0  0  0  0  0  0  0  0  0  0  0
   -6.7935   -2.7926  -21.7837 C   0  0  0  0  0  0  0  0  0  0  0  0
   -5.5945   -2.9847  -21.6786 O   0  0  0  0  0  0  0  0  0  0  0  0
   -7.4237   -1.4818  -21.2546 C   0  0  0  0  0  0  0  0  0  0  0  0
   -6.5816   -0.8271  -20.1809 C   0  0  0  0  0  0  0  0  0  0  0  0
   -6.8728   -1.0439  -18.8578 C   0  0  0  0  0  0  0  0  0  0  0  0
   -6.1869   -0.5455  -17.7975 N   0  0  0  0  0  0  0  0  0  0  0  0
   -5.1562    0.2231  -18.0620 C   0  0  0  0  0  0  0  0  0  0  0  0
   -4.7212    0.5343  -19.3798 C   0  0  0  0  0  0  0  0  0  0  0  0
   -3.5914    1.3616  -19.6154 C   0  0  0  0  0  0  0  0  0  0  0  0
   -3.1949    1.6478  -20.8961 C   0  0  0  0  0  0  0  0  0  0  0  0
   -3.9284    1.1352  -21.9850 C   0  0  0  0  0  0  0  0  0  0  0  0
   -5.0167    0.3170  -21.7814 C   0  0  0  0  0  0  0  0  0  0  0  0
   -5.4476   -0.0049  -20.4694 C   0  0  0  0  0  0  0  0  0  0  0  0
   -5.5144   -0.1321  -22.6338 H   0  0  0  0  0  0  0  0  0  0  0  0
   -3.5786    1.3161  -22.9969 H   0  0  0  0  0  0  0  0  0  0  0  0
   -2.3251    2.2712  -21.0838 H   0  0  0  0  0  0  0  0  0  0  0  0
   -3.0512    1.7739  -18.7672 H   0  0  0  0  0  0  0  0  0  0  0  0
   -4.6002    0.6289  -17.2158 H   0  0  0  0  0  0  0  0  0  0  0  0
   -7.7199   -1.6707  -18.5864 H   0  0  0  0  0  0  0  0  0  0  0  0
   -7.5712   -0.7844  -22.0906 H   0  0  0  0  0  0  0  0  0  0  0  0
   -8.4229   -1.6890  -20.8440 H   0  0  0  0  0  0  0  0  0  0  0  0
   -8.9565   -3.5074  -22.8398 C   0  0  0  0  0  0  0  0  0  0  0  0
   -9.1960   -4.2945  -24.1261 C   0  0  0  0  0  0  0  0  0  0  0  0
   -8.5515   -3.8784  -24.9089 H   0  0  0  0  0  0  0  0  0  0  0  0
  -10.2045   -4.0706  -24.4457 H   0  0  0  0  0  0  0  0  0  0  0  0
   -9.0804   -2.4426  -23.0529 H   0  0  0  0  0  0  0  0  0  0  0  0
   -9.7190   -3.7657  -22.0930 H   0  0  0  0  0  0  0  0  0  0  0  0
   -6.6182   -5.3836  -21.4963 H   0  0  0  0  0  0  0  0  0  0  0  0
   -6.3357   -5.1966  -23.2106 H   0  0  0  0  0  0  0  0  0  0  0  0
   -8.9144   -6.1125  -21.8499 H   0  0  0  0  0  0  0  0  0  0  0  0
   -7.8330   -7.1332  -22.7418 H   0  0  0  0  0  0  0  0  0  0  0  0
   -7.3385   -5.7842  -25.3861 H   0  0  0  0  0  0  0  0  0  0  0  0
   -7.8578   -7.3895  -24.9485 H   0  0  0  0  0  0  0  0  0  0  0  0
   -9.8306   -7.1981  -26.4402 H   0  0  0  0  0  0  0  0  0  0  0  0
   -9.7725   -5.4031  -28.2326 H   0  0  0  0  0  0  0  0  0  0  0  0
  -10.2244   -4.7848  -26.6478 H   0  0  0  0  0  0  0  0  0  0  0  0
   -8.5897   -4.5278  -27.2654 H   0  0  0  0  0  0  0  0  0  0  0  0
  1  2  1  0
  2  3  1  0
  3  4  1  0
  3  5  1  0
  3  6  1  0
  2  7  1  0
  7  8  1  0
  8  9  1  0
  9 10  1  0
  9 11  1  0
  9 12  1  0
  8 13  1  0
 13 14  1  0
 14 15  1  0
 15 16  1  0
 16 17  2  0
 16 18  1  0
 18 19  1  0
 19 20  2  0
 20 21  1  0
 21 22  2  0
 22 23  1  0
 23 24  2  0
 24 25  1  0
 25 26  2  0
 26 27  1  0
 27 28  2  0
 27 29  1  0
 26 30  1  0
 25 31  1  0
 24 32  1  0
 22 33  1  0
 20 34  1  0
 18 35  1  0
 18 36  1  0
 15 37  1  0
 37 38  1  0
 38 39  1  0
 38 40  1  0
 37 41  1  0
 37 42  1  0
 14 43  1  0
 14 44  1  0
 13 45  1  0
 13 46  1  0
  7 47  1  0
  7 48  1  0
  2 49  1  0
  1 50  1  0
  1 51  1  0
  1 52  1  0
 38  8  1  0
 28 19  1  0
 28 23  1  0
M  END
>  <cnnaffinities>  (68) 
[5.0568, 5.05768, 5.05445]

>  <score>  (68) 
5.0568

>  <index>  (68) 
70

>  <Smiles>  (68) 
C(C(C([H])([H])[H])(C(C1(C([H])([H])[H])C(C(N(C(=O)C(c2c(nc(c3c(c(c(c(c23)[H])[H])[H])[H])[H])[H])([H])[H])C(C1([H])[H])([H])[H])([H])[H])([H])[H])([H])[H])[H])([H])([H])[H]

>  <h>  (68) 
<NA>

>  <Training>  (68) 
True

>  <Success>  (68) 
True

>  <enamine_searched>  (68) 
False

>  <enamine_id>  (68) 
nan

$$$$

     RDKit          3D

 50 54  0  0  0  0  0  0  0  0999 V2000
  -10.5102   -2.5325  -22.6388 C   0  0  0  0  0  0  0  0  0  0  0  0
   -9.0970   -1.9669  -22.6554 C   0  0  1  0  0  0  0  0  0  0  0  0
   -8.7513   -1.3788  -21.2833 C   0  0  0  0  0  0  0  0  0  0  0  0
   -7.3041   -1.4178  -21.2612 N   0  0  0  0  0  0  0  0  0  0  0  0
   -6.5655   -0.8373  -20.2124 C   0  0  0  0  0  0  0  0  0  0  0  0
   -6.9199   -1.0658  -18.9091 C   0  0  0  0  0  0  0  0  0  0  0  0
   -6.2548   -0.5752  -17.8378 N   0  0  0  0  0  0  0  0  0  0  0  0
   -5.2142    0.1901  -18.0677 C   0  0  0  0  0  0  0  0  0  0  0  0
   -4.7674    0.5415  -19.3727 C   0  0  0  0  0  0  0  0  0  0  0  0
   -3.6434    1.3866  -19.5807 C   0  0  0  0  0  0  0  0  0  0  0  0
   -3.2835    1.7581  -20.8459 C   0  0  0  0  0  0  0  0  0  0  0  0
   -4.0270    1.3098  -21.9633 C   0  0  0  0  0  0  0  0  0  0  0  0
   -5.0978    0.4667  -21.7917 C   0  0  0  0  0  0  0  0  0  0  0  0
   -5.4729    0.0403  -20.4877 C   0  0  0  0  0  0  0  0  0  0  0  0
   -5.6495    0.0892  -22.6498 H   0  0  0  0  0  0  0  0  0  0  0  0
   -3.7347    1.6110  -22.9645 H   0  0  0  0  0  0  0  0  0  0  0  0
   -2.4291    2.4128  -21.0076 H   0  0  0  0  0  0  0  0  0  0  0  0
   -3.0961    1.7446  -18.7108 H   0  0  0  0  0  0  0  0  0  0  0  0
   -4.6748    0.5858  -17.2042 H   0  0  0  0  0  0  0  0  0  0  0  0
   -7.7661   -1.7101  -18.6721 H   0  0  0  0  0  0  0  0  0  0  0  0
   -6.7847   -2.3655  -22.1270 C   0  0  0  0  0  0  0  0  0  0  0  0
   -5.6253   -2.7251  -22.1571 O   0  0  0  0  0  0  0  0  0  0  0  0
   -7.9166   -2.9497  -22.9871 C   0  0  1  0  0  0  0  0  0  0  0  0
   -8.1389   -4.3863  -22.4358 C   0  0  0  0  0  0  0  0  0  0  0  0
   -8.9464   -5.2160  -23.2966 N   0  0  0  0  0  0  0  0  0  0  0  0
   -9.7554   -6.2668  -22.7297 C   0  0  0  0  0  0  0  0  0  0  0  0
   -9.3142   -7.6021  -23.1703 C   0  0  0  0  0  0  0  0  0  0  0  0
   -8.9948   -8.6486  -23.5399 N   0  0  0  0  0  0  0  0  0  0  0  0
   -9.6704   -6.1862  -21.6447 H   0  0  0  0  0  0  0  0  0  0  0  0
  -10.7987   -6.1263  -23.0295 H   0  0  0  0  0  0  0  0  0  0  0  0
   -8.9120   -5.1455  -24.6534 C   0  0  0  0  0  0  0  0  0  0  0  0
   -9.5942   -5.8955  -25.3434 O   0  0  0  0  0  0  0  0  0  0  0  0
   -8.0208   -4.1072  -25.2389 C   0  0  0  0  0  0  0  0  0  0  0  0
   -7.7430   -4.2197  -26.5997 C   0  0  0  0  0  0  0  0  0  0  0  0
   -6.9780   -3.2697  -27.2382 C   0  0  0  0  0  0  0  0  0  0  0  0
   -6.5110   -2.2054  -26.4777 C   0  0  0  0  0  0  0  0  0  0  0  0
   -5.7775   -1.2680  -27.0984 F   0  0  0  0  0  0  0  0  0  0  0  0
   -6.7594   -2.0687  -25.1230 C   0  0  0  0  0  0  0  0  0  0  0  0
   -7.5452   -3.0360  -24.4674 C   0  0  0  0  0  0  0  0  0  0  0  0
   -6.3114   -1.2190  -24.6115 H   0  0  0  0  0  0  0  0  0  0  0  0
   -6.7664   -3.3408  -28.2988 H   0  0  0  0  0  0  0  0  0  0  0  0
   -8.1421   -5.0728  -27.1411 H   0  0  0  0  0  0  0  0  0  0  0  0
   -7.1570   -4.8369  -22.2453 H   0  0  0  0  0  0  0  0  0  0  0  0
   -8.6503   -4.3235  -21.4718 H   0  0  0  0  0  0  0  0  0  0  0  0
   -9.1895   -1.9855  -20.4777 H   0  0  0  0  0  0  0  0  0  0  0  0
   -9.1269   -0.3600  -21.1507 H   0  0  0  0  0  0  0  0  0  0  0  0
   -9.0233   -1.1575  -23.3920 H   0  0  0  0  0  0  0  0  0  0  0  0
  -10.6225   -3.2455  -21.8160 H   0  0  0  0  0  0  0  0  0  0  0  0
  -11.2455   -1.7370  -22.4772 H   0  0  0  0  0  0  0  0  0  0  0  0
  -10.7594   -3.0547  -23.5627 H   0  0  0  0  0  0  0  0  0  0  0  0
  1  2  1  0
  2  3  1  0
  3  4  1  0
  4  5  1  0
  5  6  2  0
  6  7  1  0
  7  8  2  0
  8  9  1  0
  9 10  2  0
 10 11  1  0
 11 12  2  0
 12 13  1  0
 13 14  2  0
 13 15  1  0
 12 16  1  0
 11 17  1  0
 10 18  1  0
  8 19  1  0
  6 20  1  0
  4 21  1  0
 21 22  2  0
 21 23  1  0
 23 24  1  1
 24 25  1  0
 25 26  1  0
 26 27  1  0
 27 28  3  0
 26 29  1  0
 26 30  1  0
 25 31  1  0
 31 32  2  0
 31 33  1  0
 33 34  2  0
 34 35  1  0
 35 36  2  0
 36 37  1  0
 36 38  1  0
 38 39  2  0
 38 40  1  0
 35 41  1  0
 34 42  1  0
 24 43  1  0
 24 44  1  0
  3 45  1  0
  3 46  1  0
  2 47  1  6
  1 48  1  0
  1 49  1  0
  1 50  1  0
 23  2  1  0
 39 33  1  0
 14  5  1  0
 39 23  1  0
 14  9  1  0
M  END
>  <cnnaffinities>  (69) 
[5.8048, 5.44128]

>  <score>  (69) 
5.8048

>  <index>  (69) 
71

>  <Smiles>  (69) 
C([C@]1(C(N(c2c(nc(c3c(c(c(c(c23)[H])[H])[H])[H])[H])[H])C(=O)[C@]21C(N(C(C#N)([H])[H])C(=O)c1c(c(c(F)c(c21)[H])[H])[H])([H])[H])([H])[H])[H])([H])([H])[H]

>  <h>  (69) 
<NA>

>  <Training>  (69) 
True

>  <Success>  (69) 
True

>  <enamine_searched>  (69) 
False

>  <enamine_id>  (69) 
nan

$$$$

     RDKit          3D

 41 44  0  0  0  0  0  0  0  0999 V2000
   -8.6837    0.7153  -21.2775 O   0  0  0  0  0  0  0  0  0  0  0  0
   -8.6462   -0.4292  -21.7031 C   0  0  0  0  0  0  0  0  0  0  0  0
   -7.5187   -1.3818  -21.2871 C   0  0  0  0  0  0  0  0  0  0  0  0
   -6.6582   -0.8083  -20.1958 C   0  0  0  0  0  0  0  0  0  0  0  0
   -6.9437   -1.0764  -18.8873 C   0  0  0  0  0  0  0  0  0  0  0  0
   -6.2645   -0.6002  -17.8103 N   0  0  0  0  0  0  0  0  0  0  0  0
   -5.2429    0.1864  -18.0593 C   0  0  0  0  0  0  0  0  0  0  0  0
   -4.8229    0.5552  -19.3654 C   0  0  0  0  0  0  0  0  0  0  0  0
   -3.6894    1.3773  -19.5816 C   0  0  0  0  0  0  0  0  0  0  0  0
   -3.3210    1.7289  -20.8532 C   0  0  0  0  0  0  0  0  0  0  0  0
   -4.0829    1.2846  -21.9555 C   0  0  0  0  0  0  0  0  0  0  0  0
   -5.1770    0.4795  -21.7727 C   0  0  0  0  0  0  0  0  0  0  0  0
   -5.5695    0.0744  -20.4695 C   0  0  0  0  0  0  0  0  0  0  0  0
   -5.7400    0.1350  -22.6353 H   0  0  0  0  0  0  0  0  0  0  0  0
   -3.7789    1.5707  -22.9590 H   0  0  0  0  0  0  0  0  0  0  0  0
   -2.4499    2.3527  -21.0164 H   0  0  0  0  0  0  0  0  0  0  0  0
   -3.1221    1.7185  -18.7194 H   0  0  0  0  0  0  0  0  0  0  0  0
   -4.6888    0.5625  -17.1986 H   0  0  0  0  0  0  0  0  0  0  0  0
   -7.7814   -1.7323  -18.6455 H   0  0  0  0  0  0  0  0  0  0  0  0
   -7.9688   -2.3230  -20.9378 H   0  0  0  0  0  0  0  0  0  0  0  0
   -6.9086   -1.6296  -22.1643 H   0  0  0  0  0  0  0  0  0  0  0  0
   -9.6144   -0.9308  -22.5382 N   0  0  0  0  0  0  0  0  0  0  0  0
   -9.5725   -2.2412  -23.1998 C   0  0  0  0  0  0  0  0  0  0  0  0
  -10.3116   -3.3367  -22.4165 C   0  0  0  0  0  0  0  0  0  0  0  0
  -11.5428   -2.7597  -21.6908 C   0  0  0  0  0  0  0  0  0  0  0  0
  -12.4304   -1.8255  -22.4910 C   0  0  0  0  0  0  0  0  0  0  0  0
  -14.1398   -2.0879  -22.6649 S   0  0  0  0  0  0  0  0  0  0  0  0
  -14.3539   -0.5657  -23.4426 C   0  0  0  0  0  0  0  0  0  0  0  0
  -13.1809    0.1092  -23.5587 C   0  0  0  0  0  0  0  0  0  0  0  0
  -12.0621   -0.6108  -23.0069 C   0  0  0  0  0  0  0  0  0  0  0  0
  -10.6727   -0.0057  -22.9320 C   0  0  0  0  0  0  0  0  0  0  0  0
  -10.4058    0.4599  -23.8961 H   0  0  0  0  0  0  0  0  0  0  0  0
  -10.6815    0.8138  -22.2030 H   0  0  0  0  0  0  0  0  0  0  0  0
  -13.1405    1.0973  -24.0137 H   0  0  0  0  0  0  0  0  0  0  0  0
  -15.3386   -0.1952  -23.6933 H   0  0  0  0  0  0  0  0  0  0  0  0
  -12.1388   -3.5412  -21.2104 H   0  0  0  0  0  0  0  0  0  0  0  0
  -11.1246   -2.1311  -20.8959 H   0  0  0  0  0  0  0  0  0  0  0  0
   -9.6564   -3.7887  -21.6613 H   0  0  0  0  0  0  0  0  0  0  0  0
  -10.5697   -4.1551  -23.1017 H   0  0  0  0  0  0  0  0  0  0  0  0
  -10.1028   -2.1312  -24.1535 H   0  0  0  0  0  0  0  0  0  0  0  0
   -8.5389   -2.5447  -23.4195 H   0  0  0  0  0  0  0  0  0  0  0  0
  1  2  2  0
  2  3  1  0
  3  4  1  0
  4  5  2  0
  5  6  1  0
  6  7  2  0
  7  8  1  0
  8  9  2  0
  9 10  1  0
 10 11  2  0
 11 12  1  0
 12 13  2  0
 12 14  1  0
 11 15  1  0
 10 16  1  0
  9 17  1  0
  7 18  1  0
  5 19  1  0
  3 20  1  0
  3 21  1  0
  2 22  1  0
 22 23  1  0
 23 24  1  0
 24 25  1  0
 25 26  1  0
 26 27  1  0
 27 28  1  0
 28 29  2  0
 29 30  1  0
 30 31  1  0
 31 32  1  0
 31 33  1  0
 29 34  1  0
 28 35  1  0
 25 36  1  0
 25 37  1  0
 24 38  1  0
 24 39  1  0
 23 40  1  0
 23 41  1  0
 13  4  1  0
 31 22  1  0
 13  8  1  0
 30 26  2  0
M  END
>  <cnnaffinities>  (70) 
[5.12024]

>  <score>  (70) 
5.12024

>  <index>  (70) 
72

>  <Smiles>  (70) 
O=C(C(c1c(nc(c2c(c(c(c(c12)[H])[H])[H])[H])[H])[H])([H])[H])N1C(C(C(c2sc(c(c2C1([H])[H])[H])[H])([H])[H])([H])[H])([H])[H]

>  <h>  (70) 
<NA>

>  <Training>  (70) 
True

>  <Success>  (70) 
True

>  <enamine_searched>  (70) 
False

>  <enamine_id>  (70) 
nan

$$$$

     RDKit          3D

 50 53  0  0  0  0  0  0  0  0999 V2000
   -5.5898   -3.0363  -21.5673 O   0  0  0  0  0  0  0  0  0  0  0  0
   -6.7438   -2.7572  -21.8484 C   0  0  0  0  0  0  0  0  0  0  0  0
   -7.4098   -1.4782  -21.2679 C   0  0  0  0  0  0  0  0  0  0  0  0
   -6.5770   -0.8321  -20.1816 C   0  0  0  0  0  0  0  0  0  0  0  0
   -6.8739   -1.0496  -18.8648 C   0  0  0  0  0  0  0  0  0  0  0  0
   -6.1888   -0.5473  -17.8038 N   0  0  0  0  0  0  0  0  0  0  0  0
   -5.1576    0.2177  -18.0672 C   0  0  0  0  0  0  0  0  0  0  0  0
   -4.7233    0.5333  -19.3778 C   0  0  0  0  0  0  0  0  0  0  0  0
   -3.5954    1.3585  -19.6165 C   0  0  0  0  0  0  0  0  0  0  0  0
   -3.2048    1.6545  -20.8937 C   0  0  0  0  0  0  0  0  0  0  0  0
   -3.9395    1.1432  -21.9834 C   0  0  0  0  0  0  0  0  0  0  0  0
   -5.0270    0.3270  -21.7807 C   0  0  0  0  0  0  0  0  0  0  0  0
   -5.4526   -0.0017  -20.4718 C   0  0  0  0  0  0  0  0  0  0  0  0
   -5.5243   -0.1250  -22.6331 H   0  0  0  0  0  0  0  0  0  0  0  0
   -3.5912    1.3266  -22.9964 H   0  0  0  0  0  0  0  0  0  0  0  0
   -2.3261    2.2712  -21.0819 H   0  0  0  0  0  0  0  0  0  0  0  0
   -3.0575    1.7668  -18.7630 H   0  0  0  0  0  0  0  0  0  0  0  0
   -4.6079    0.6266  -17.2151 H   0  0  0  0  0  0  0  0  0  0  0  0
   -7.7238   -1.6728  -18.5849 H   0  0  0  0  0  0  0  0  0  0  0  0
   -7.6138   -0.7537  -22.0722 H   0  0  0  0  0  0  0  0  0  0  0  0
   -8.3934   -1.7519  -20.8529 H   0  0  0  0  0  0  0  0  0  0  0  0
   -7.4961   -3.5813  -22.6634 N   0  0  0  0  0  0  0  0  0  0  0  0
   -8.6412   -3.1263  -23.4323 C   0  0  0  0  0  0  0  0  0  0  0  0
   -9.7006   -4.2133  -23.5096 C   0  0  0  0  0  0  0  0  0  0  0  0
   -9.1491   -5.5098  -24.0940 C   0  0  0  0  0  0  0  0  0  0  0  0
   -7.9700   -5.9483  -23.2349 C   0  0  0  0  0  0  0  0  0  0  0  0
   -6.9023   -4.8568  -23.0982 C   0  0  1  0  0  0  0  0  0  0  0  0
   -6.0435   -4.6944  -24.3703 C   0  0  0  0  0  0  0  0  0  0  0  0
   -5.2112   -5.9207  -24.6851 C   0  0  0  0  0  0  0  0  0  0  0  0
   -4.0473   -6.1887  -23.9580 C   0  0  0  0  0  0  0  0  0  0  0  0
   -3.2848   -7.3215  -24.2205 C   0  0  0  0  0  0  0  0  0  0  0  0
   -3.6712   -8.2127  -25.2183 C   0  0  0  0  0  0  0  0  0  0  0  0
   -4.8285   -7.9609  -25.9506 C   0  0  0  0  0  0  0  0  0  0  0  0
   -5.5872   -6.8238  -25.6832 C   0  0  0  0  0  0  0  0  0  0  0  0
   -6.4959   -6.6383  -26.2541 H   0  0  0  0  0  0  0  0  0  0  0  0
   -5.1369   -8.6466  -26.7365 H   0  0  0  0  0  0  0  0  0  0  0  0
   -3.0698   -9.0945  -25.4258 H   0  0  0  0  0  0  0  0  0  0  0  0
   -2.3833   -7.5100  -23.6428 H   0  0  0  0  0  0  0  0  0  0  0  0
   -3.7447   -5.4986  -23.1731 H   0  0  0  0  0  0  0  0  0  0  0  0
   -6.6892   -4.4555  -25.2270 H   0  0  0  0  0  0  0  0  0  0  0  0
   -5.3818   -3.8338  -24.2111 H   0  0  0  0  0  0  0  0  0  0  0  0
   -6.2342   -5.1460  -22.2891 H   0  0  0  0  0  0  0  0  0  0  0  0
   -8.3471   -6.1905  -22.2354 H   0  0  0  0  0  0  0  0  0  0  0  0
   -7.5186   -6.8614  -23.6368 H   0  0  0  0  0  0  0  0  0  0  0  0
   -9.9319   -6.2822  -24.1145 H   0  0  0  0  0  0  0  0  0  0  0  0
   -8.8378   -5.3701  -25.1431 H   0  0  0  0  0  0  0  0  0  0  0  0
  -10.1287   -4.3993  -22.5145 H   0  0  0  0  0  0  0  0  0  0  0  0
  -10.5029   -3.8208  -24.1153 H   0  0  0  0  0  0  0  0  0  0  0  0
   -9.0752   -2.2323  -22.9791 H   0  0  0  0  0  0  0  0  0  0  0  0
   -8.3481   -2.8393  -24.4578 H   0  0  0  0  0  0  0  0  0  0  0  0
  1  2  2  0
  2  3  1  0
  3  4  1  0
  4  5  2  0
  5  6  1  0
  6  7  2  0
  7  8  1  0
  8  9  2  0
  9 10  1  0
 10 11  2  0
 11 12  1  0
 12 13  2  0
 12 14  1  0
 11 15  1  0
 10 16  1  0
  9 17  1  0
  7 18  1  0
  5 19  1  0
  3 20  1  0
  3 21  1  0
  2 22  1  0
 22 23  1  0
 23 24  1  0
 24 25  1  0
 25 26  1  0
 26 27  1  0
 27 28  1  0
 28 29  1  0
 29 30  2  0
 30 31  1  0
 31 32  2  0
 32 33  1  0
 33 34  2  0
 34 35  1  0
 33 36  1  0
 32 37  1  0
 31 38  1  0
 30 39  1  0
 28 40  1  0
 28 41  1  0
 27 42  1  1
 26 43  1  0
 26 44  1  0
 25 45  1  0
 25 46  1  0
 24 47  1  0
 24 48  1  0
 23 49  1  0
 23 50  1  0
 13  4  1  0
 27 22  1  0
 34 29  1  0
 13  8  1  0
M  END
>  <cnnaffinities>  (71) 
[5.60399, 4.74609, 4.74617]

>  <score>  (71) 
5.60399

>  <index>  (71) 
73

>  <Smiles>  (71) 
O=C(C(c1c(nc(c2c(c(c(c(c12)[H])[H])[H])[H])[H])[H])([H])[H])N1C(C(C(C([C@]1(C(c1c(c(c(c(c1[H])[H])[H])[H])[H])([H])[H])[H])([H])[H])([H])[H])([H])[H])([H])[H]

>  <h>  (71) 
<NA>

>  <Training>  (71) 
True

>  <Success>  (71) 
True

>  <enamine_searched>  (71) 
False

>  <enamine_id>  (71) 
nan

$$$$

     RDKit          3D

 43 47  0  0  0  0  0  0  0  0999 V2000
   -9.0727    0.1685  -21.0793 O   0  0  0  0  0  0  0  0  0  0  0  0
   -8.6609   -0.8998  -21.4751 C   0  0  0  0  0  0  0  0  0  0  0  0
   -9.2809   -1.8056  -22.2875 N   0  0  0  0  0  0  0  0  0  0  0  0
   -8.5949   -3.0781  -22.3425 C   0  0  1  0  0  0  0  0  0  0  0  0
   -9.3981   -4.3261  -21.9134 C   0  0  0  0  0  0  0  0  0  0  0  0
   -9.3120   -4.8928  -23.3584 C   0  0  2  0  0  0  0  0  0  0  0  0
   -8.6389   -6.2355  -23.3799 C   0  0  0  0  0  0  0  0  0  0  0  0
   -7.3762   -6.4195  -22.7951 C   0  0  0  0  0  0  0  0  0  0  0  0
   -6.7781   -7.6692  -22.6917 C   0  0  0  0  0  0  0  0  0  0  0  0
   -7.4643   -8.7780  -23.1754 C   0  0  0  0  0  0  0  0  0  0  0  0
   -8.6961   -8.6197  -23.7912 C   0  0  0  0  0  0  0  0  0  0  0  0
   -9.2568   -7.3586  -23.9125 C   0  0  0  0  0  0  0  0  0  0  0  0
  -10.7579   -7.2029  -24.7678 Cl  0  0  0  0  0  0  0  0  0  0  0  0
   -9.1978   -9.4789  -24.2165 H   0  0  0  0  0  0  0  0  0  0  0  0
   -7.0671   -9.7817  -23.0750 H   0  0  0  0  0  0  0  0  0  0  0  0
   -5.7960   -7.7580  -22.2272 H   0  0  0  0  0  0  0  0  0  0  0  0
   -6.8380   -5.5615  -22.3989 H   0  0  0  0  0  0  0  0  0  0  0  0
   -8.3929   -3.6988  -23.7498 C   0  0  0  0  0  0  0  0  0  0  0  0
   -8.7636   -3.0409  -24.5416 H   0  0  0  0  0  0  0  0  0  0  0  0
   -7.3636   -4.0134  -23.9629 H   0  0  0  0  0  0  0  0  0  0  0  0
  -10.2637   -4.8779  -23.8922 H   0  0  0  0  0  0  0  0  0  0  0  0
   -8.7962   -4.9724  -21.2914 H   0  0  0  0  0  0  0  0  0  0  0  0
  -10.3721   -4.1726  -21.4342 H   0  0  0  0  0  0  0  0  0  0  0  0
   -7.3216   -2.7887  -21.5589 C   0  0  0  0  0  0  0  0  0  0  0  0
   -6.4224   -3.5533  -21.2964 O   0  0  0  0  0  0  0  0  0  0  0  0
   -7.4027   -1.4483  -21.1723 N   0  0  0  0  0  0  0  0  0  0  0  0
   -6.5982   -0.8681  -20.1594 C   0  0  0  0  0  0  0  0  0  0  0  0
   -6.9108   -1.0985  -18.8456 C   0  0  0  0  0  0  0  0  0  0  0  0
   -6.2243   -0.5849  -17.7971 N   0  0  0  0  0  0  0  0  0  0  0  0
   -5.2102    0.1971  -18.0699 C   0  0  0  0  0  0  0  0  0  0  0  0
   -4.7998    0.5329  -19.3896 C   0  0  0  0  0  0  0  0  0  0  0  0
   -3.6765    1.3562  -19.6200 C   0  0  0  0  0  0  0  0  0  0  0  0
   -3.3081    1.6786  -20.8928 C   0  0  0  0  0  0  0  0  0  0  0  0
   -4.0500    1.1998  -21.9907 C   0  0  0  0  0  0  0  0  0  0  0  0
   -5.1296    0.3733  -21.8022 C   0  0  0  0  0  0  0  0  0  0  0  0
   -5.5184    0.0072  -20.4844 C   0  0  0  0  0  0  0  0  0  0  0  0
   -5.6656   -0.0143  -22.6627 H   0  0  0  0  0  0  0  0  0  0  0  0
   -3.7394    1.4651  -22.9961 H   0  0  0  0  0  0  0  0  0  0  0  0
   -2.4394    2.3012  -21.0687 H   0  0  0  0  0  0  0  0  0  0  0  0
   -3.1248    1.7149  -18.7606 H   0  0  0  0  0  0  0  0  0  0  0  0
   -4.6391    0.6023  -17.2314 H   0  0  0  0  0  0  0  0  0  0  0  0
   -7.7582   -1.7300  -18.5869 H   0  0  0  0  0  0  0  0  0  0  0  0
  -10.2741   -1.7114  -22.4497 H   0  0  0  0  0  0  0  0  0  0  0  0
  1  2  2  0
  2  3  1  0
  4  3  1  6
  4  5  1  0
  5  6  1  0
  6  7  1  0
  7  8  2  0
  8  9  1  0
  9 10  2  0
 10 11  1  0
 11 12  2  0
 12 13  1  0
 11 14  1  0
 10 15  1  0
  9 16  1  0
  8 17  1  0
  6 18  1  0
 18 19  1  0
 18 20  1  0
  6 21  1  6
  5 22  1  0
  5 23  1  0
  4 24  1  0
 24 25  2  0
 24 26  1  0
 26 27  1  0
 27 28  2  0
 28 29  1  0
 29 30  2  0
 30 31  1  0
 31 32  2  0
 32 33  1  0
 33 34  2  0
 34 35  1  0
 35 36  2  0
 35 37  1  0
 34 38  1  0
 33 39  1  0
 32 40  1  0
 30 41  1  0
 28 42  1  0
  3 43  1  0
 26  2  1  0
 36 27  1  0
 18  4  1  0
 36 31  1  0
 12  7  1  0
M  END
>  <cnnaffinities>  (72) 
[5.29236, 5.6878]

>  <score>  (72) 
5.29236

>  <index>  (72) 
74

>  <Smiles>  (72) 
O=C1N([C@]2(C([C@](c3c(c(c(c(c3Cl)[H])[H])[H])[H])(C2([H])[H])[H])([H])[H])C(=O)N1c1c(nc(c2c(c(c(c(c12)[H])[H])[H])[H])[H])[H])[H]

>  <h>  (72) 
<NA>

>  <Training>  (72) 
True

>  <Success>  (72) 
True

>  <enamine_searched>  (72) 
False

>  <enamine_id>  (72) 
nan

$$$$

     RDKit          3D

 66 71  0  0  0  0  0  0  0  0999 V2000
   -7.3512    3.3890  -21.9266 C   0  0  0  0  0  0  0  0  0  0  0  0
   -8.2943    2.8775  -22.9091 N   0  0  0  0  0  0  0  0  0  0  0  0
   -7.7805    2.1728  -23.9592 C   0  0  0  0  0  0  0  0  0  0  0  0
   -6.5765    2.0173  -24.1039 O   0  0  0  0  0  0  0  0  0  0  0  0
   -8.7835    1.5666  -24.9402 C   0  0  0  0  0  0  0  0  0  0  0  0
   -9.4356    0.4193  -24.3411 N   0  0  0  0  0  0  0  0  0  0  0  0
   -8.6881   -0.8192  -24.1638 C   0  0  0  0  0  0  0  0  0  0  0  0
   -9.0837   -1.5545  -22.8570 C   0  0  2  0  0  0  0  0  0  0  0  0
   -8.5706   -0.7719  -21.6249 C   0  0  0  0  0  0  0  0  0  0  0  0
   -9.0727    0.2071  -21.1068 O   0  0  0  0  0  0  0  0  0  0  0  0
   -7.4126   -1.3669  -21.1939 N   0  0  0  0  0  0  0  0  0  0  0  0
   -6.6320   -0.7872  -20.1700 C   0  0  0  0  0  0  0  0  0  0  0  0
   -6.9398   -1.0447  -18.8596 C   0  0  0  0  0  0  0  0  0  0  0  0
   -6.2383   -0.5740  -17.8021 N   0  0  0  0  0  0  0  0  0  0  0  0
   -5.2011    0.1874  -18.0592 C   0  0  0  0  0  0  0  0  0  0  0  0
   -4.7767    0.5425  -19.3727 C   0  0  0  0  0  0  0  0  0  0  0  0
   -3.6485    1.3757  -19.6026 C   0  0  0  0  0  0  0  0  0  0  0  0
   -3.2878    1.7216  -20.8775 C   0  0  0  0  0  0  0  0  0  0  0  0
   -4.0434    1.2672  -21.9796 C   0  0  0  0  0  0  0  0  0  0  0  0
   -5.1292    0.4439  -21.7863 C   0  0  0  0  0  0  0  0  0  0  0  0
   -5.5185    0.0540  -20.4735 C   0  0  0  0  0  0  0  0  0  0  0  0
   -5.7013    0.1092  -22.6456 H   0  0  0  0  0  0  0  0  0  0  0  0
   -3.7664    1.5584  -22.9891 H   0  0  0  0  0  0  0  0  0  0  0  0
   -2.4187    2.3508  -21.0480 H   0  0  0  0  0  0  0  0  0  0  0  0
   -3.0903    1.7323  -18.7421 H   0  0  0  0  0  0  0  0  0  0  0  0
   -4.6352    0.5657  -17.2066 H   0  0  0  0  0  0  0  0  0  0  0  0
   -7.7996   -1.6688  -18.6294 H   0  0  0  0  0  0  0  0  0  0  0  0
   -7.0278   -2.5472  -21.9319 C   0  0  0  0  0  0  0  0  0  0  0  0
   -8.3141   -2.9104  -22.6932 C   0  0  2  0  0  0  0  0  0  0  0  0
   -8.0140   -3.7046  -23.9784 C   0  0  0  0  0  0  0  0  0  0  0  0
   -7.5128   -5.0473  -23.7528 N   0  0  0  0  0  0  0  0  0  0  0  0
   -6.2086   -5.3797  -23.4789 C   0  0  0  0  0  0  0  0  0  0  0  0
   -5.0951   -4.5963  -23.8694 C   0  0  0  0  0  0  0  0  0  0  0  0
   -3.8478   -4.9575  -23.6021 N   0  0  0  0  0  0  0  0  0  0  0  0
   -3.6744   -6.1034  -22.9412 C   0  0  0  0  0  0  0  0  0  0  0  0
   -4.7592   -6.8794  -22.5674 C   0  0  0  0  0  0  0  0  0  0  0  0
   -6.0180   -6.5365  -22.8391 N   0  0  0  0  0  0  0  0  0  0  0  0
   -4.6169   -7.8119  -22.0249 H   0  0  0  0  0  0  0  0  0  0  0  0
   -2.6525   -6.3978  -22.7104 H   0  0  0  0  0  0  0  0  0  0  0  0
   -5.2171   -3.6632  -24.4159 H   0  0  0  0  0  0  0  0  0  0  0  0
   -8.1586   -5.7238  -23.3655 H   0  0  0  0  0  0  0  0  0  0  0  0
   -7.2735   -3.1633  -24.5793 H   0  0  0  0  0  0  0  0  0  0  0  0
   -8.9235   -3.7820  -24.5846 H   0  0  0  0  0  0  0  0  0  0  0  0
   -8.9125   -3.5482  -22.0315 H   0  0  0  0  0  0  0  0  0  0  0  0
   -6.6864   -3.3358  -21.2550 H   0  0  0  0  0  0  0  0  0  0  0  0
   -6.1925   -2.3332  -22.6178 H   0  0  0  0  0  0  0  0  0  0  0  0
  -10.5960   -1.6126  -22.7994 C   0  0  0  0  0  0  0  0  0  0  0  0
  -11.2362   -2.4541  -21.8810 C   0  0  0  0  0  0  0  0  0  0  0  0
  -12.6145   -2.3971  -21.7378 C   0  0  0  0  0  0  0  0  0  0  0  0
  -13.3965   -3.1883  -20.4032 Cl  0  0  0  0  0  0  0  0  0  0  0  0
  -13.4092   -1.5991  -22.5630 C   0  0  0  0  0  0  0  0  0  0  0  0
  -12.7824   -0.7580  -23.4545 C   0  0  0  0  0  0  0  0  0  0  0  0
  -11.3925   -0.7130  -23.5249 C   0  0  0  0  0  0  0  0  0  0  0  0
  -10.7966    0.4388  -24.2664 C   0  0  0  0  0  0  0  0  0  0  0  0
  -11.4788    1.3533  -24.7122 O   0  0  0  0  0  0  0  0  0  0  0  0
  -13.3396   -0.0727  -24.0833 H   0  0  0  0  0  0  0  0  0  0  0  0
  -14.4899   -1.5845  -22.4295 H   0  0  0  0  0  0  0  0  0  0  0  0
  -10.6609   -3.1308  -21.2571 H   0  0  0  0  0  0  0  0  0  0  0  0
   -8.8684   -1.4924  -25.0119 H   0  0  0  0  0  0  0  0  0  0  0  0
   -7.6223   -0.5799  -24.1604 H   0  0  0  0  0  0  0  0  0  0  0  0
   -8.2512    1.2861  -25.8567 H   0  0  0  0  0  0  0  0  0  0  0  0
   -9.5787    2.2714  -25.2064 H   0  0  0  0  0  0  0  0  0  0  0  0
   -9.2208    2.6505  -22.5740 H   0  0  0  0  0  0  0  0  0  0  0  0
   -6.7880    2.5577  -21.4811 H   0  0  0  0  0  0  0  0  0  0  0  0
   -6.6452    4.0684  -22.4107 H   0  0  0  0  0  0  0  0  0  0  0  0
   -7.8821    3.9551  -21.1577 H   0  0  0  0  0  0  0  0  0  0  0  0
  1  2  1  0
  2  3  1  0
  3  4  2  0
  3  5  1  0
  5  6  1  0
  6  7  1  0
  8  7  1  6
  8  9  1  0
  9 10  2  0
  9 11  1  0
 11 12  1  0
 12 13  2  0
 13 14  1  0
 14 15  2  0
 15 16  1  0
 16 17  2  0
 17 18  1  0
 18 19  2  0
 19 20  1  0
 20 21  2  0
 20 22  1  0
 19 23  1  0
 18 24  1  0
 17 25  1  0
 15 26  1  0
 13 27  1  0
 11 28  1  0
 28 29  1  0
 29 30  1  0
 30 31  1  0
 31 32  1  0
 32 33  2  0
 33 34  1  0
 34 35  2  0
 35 36  1  0
 36 37  2  0
 36 38  1  0
 35 39  1  0
 33 40  1  0
 31 41  1  0
 30 42  1  0
 30 43  1  0
 29 44  1  1
 28 45  1  0
 28 46  1  0
  8 47  1  0
 47 48  2  0
 48 49  1  0
 49 50  1  0
 49 51  2  0
 51 52  1  0
 52 53  2  0
 53 54  1  0
 54 55  2  0
 52 56  1  0
 51 57  1  0
 48 58  1  0
  7 59  1  0
  7 60  1  0
  5 61  1  0
  5 62  1  0
  2 63  1  0
  1 64  1  0
  1 65  1  0
  1 66  1  0
 54  6  1  0
 29  8  1  0
 37 32  1  0
 53 47  1  0
 21 12  1  0
 21 16  1  0
M  END
>  <cnnaffinities>  (73) 
[7.0792, 6.47889, 6.55995]

>  <score>  (73) 
7.0792

>  <index>  (73) 
75

>  <Smiles>  (73) 
C(N(C(=O)C(N1C([C@@]2(C(=O)N(c3c(nc(c4c(c(c(c(c34)[H])[H])[H])[H])[H])[H])C([C@@]2(C(N(c2c(nc(c(n2)[H])[H])[H])[H])([H])[H])[H])([H])[H])c2c(c(Cl)c(c(c2C1=O)[H])[H])[H])([H])[H])([H])[H])[H])([H])([H])[H]

>  <h>  (73) 
<NA>

>  <Training>  (73) 
True

>  <Success>  (73) 
True

>  <enamine_searched>  (73) 
False

>  <enamine_id>  (73) 
nan

$$$$

     RDKit          3D

 66 71  0  0  0  0  0  0  0  0999 V2000
   -8.1958   -3.4700  -24.1016 C   0  0  0  0  0  0  0  0  0  0  0  0
   -8.4654   -2.7339  -22.7827 C   0  0  1  0  0  0  0  0  0  0  0  0
   -7.1826   -2.5228  -21.9492 C   0  0  0  0  0  0  0  0  0  0  0  0
   -7.4576   -1.3163  -21.1894 N   0  0  0  0  0  0  0  0  0  0  0  0
   -6.6197   -0.7907  -20.1652 C   0  0  0  0  0  0  0  0  0  0  0  0
   -6.9130   -1.0437  -18.8517 C   0  0  0  0  0  0  0  0  0  0  0  0
   -6.1986   -0.5657  -17.8039 N   0  0  0  0  0  0  0  0  0  0  0  0
   -5.1712    0.2028  -18.0746 C   0  0  0  0  0  0  0  0  0  0  0  0
   -4.7480    0.5486  -19.3894 C   0  0  0  0  0  0  0  0  0  0  0  0
   -3.6285    1.3932  -19.6339 C   0  0  0  0  0  0  0  0  0  0  0  0
   -3.2581    1.7077  -20.9133 C   0  0  0  0  0  0  0  0  0  0  0  0
   -3.9877    1.1944  -22.0049 C   0  0  0  0  0  0  0  0  0  0  0  0
   -5.0652    0.3621  -21.7957 C   0  0  0  0  0  0  0  0  0  0  0  0
   -5.4900    0.0296  -20.4799 C   0  0  0  0  0  0  0  0  0  0  0  0
   -5.5686   -0.0773  -22.6515 H   0  0  0  0  0  0  0  0  0  0  0  0
   -3.6688    1.4157  -23.0198 H   0  0  0  0  0  0  0  0  0  0  0  0
   -2.3969    2.3484  -21.0970 H   0  0  0  0  0  0  0  0  0  0  0  0
   -3.0852    1.7847  -18.7780 H   0  0  0  0  0  0  0  0  0  0  0  0
   -4.6196    0.6076  -17.2238 H   0  0  0  0  0  0  0  0  0  0  0  0
   -7.7706   -1.6639  -18.5974 H   0  0  0  0  0  0  0  0  0  0  0  0
   -8.5330   -0.5950  -21.6478 C   0  0  0  0  0  0  0  0  0  0  0  0
   -8.9230    0.4485  -21.1550 O   0  0  0  0  0  0  0  0  0  0  0  0
   -9.1332   -1.3221  -22.8766 C   0  0  1  0  0  0  0  0  0  0  0  0
   -8.7118   -0.5857  -24.1703 C   0  0  0  0  0  0  0  0  0  0  0  0
   -9.3139    0.7294  -24.2652 N   0  0  0  0  0  0  0  0  0  0  0  0
   -8.5180    1.7854  -24.8632 C   0  0  0  0  0  0  0  0  0  0  0  0
   -7.5555    2.4185  -23.8687 C   0  0  0  0  0  0  0  0  0  0  0  0
   -8.2809    3.2266  -22.8367 N   0  0  0  0  0  4  0  0  0  0  0  0
   -7.4916    3.3302  -21.5795 C   0  0  0  0  0  0  0  0  0  0  0  0
   -6.3349    4.3084  -21.6368 C   0  0  0  0  0  0  0  0  0  0  0  0
   -6.8022    5.6001  -21.9557 O   0  0  0  0  0  0  0  0  0  0  0  0
   -7.4384    5.5939  -23.2145 C   0  0  0  0  0  0  0  0  0  0  0  0
   -8.6440    4.6468  -23.2542 C   0  0  0  0  0  0  0  0  0  0  0  0
   -9.4025    5.0026  -22.5516 H   0  0  0  0  0  0  0  0  0  0  0  0
   -9.0683    4.6197  -24.2595 H   0  0  0  0  0  0  0  0  0  0  0  0
   -6.7126    5.3070  -23.9889 H   0  0  0  0  0  0  0  0  0  0  0  0
   -7.7626    6.6211  -23.3967 H   0  0  0  0  0  0  0  0  0  0  0  0
   -5.8832    4.3737  -20.6451 H   0  0  0  0  0  0  0  0  0  0  0  0
   -5.5692    3.9740  -22.3574 H   0  0  0  0  0  0  0  0  0  0  0  0
   -7.1444    2.3257  -21.3194 H   0  0  0  0  0  0  0  0  0  0  0  0
   -8.1753    3.6911  -20.8077 H   0  0  0  0  0  0  0  0  0  0  0  0
   -9.1396    2.7016  -22.5771 H   0  0  0  0  0  0  0  0  0  0  0  0
   -6.9923    1.6467  -23.3300 H   0  0  0  0  0  0  0  0  0  0  0  0
   -6.8341    3.0536  -24.3849 H   0  0  0  0  0  0  0  0  0  0  0  0
   -7.9413    1.3744  -25.6975 H   0  0  0  0  0  0  0  0  0  0  0  0
   -9.2181    2.5287  -25.2408 H   0  0  0  0  0  0  0  0  0  0  0  0
  -10.6605    0.8884  -24.1087 C   0  0  0  0  0  0  0  0  0  0  0  0
  -11.2703    1.8895  -24.4707 O   0  0  0  0  0  0  0  0  0  0  0  0
  -11.3640   -0.2366  -23.4043 C   0  0  0  0  0  0  0  0  0  0  0  0
  -12.7524   -0.1631  -23.3110 C   0  0  0  0  0  0  0  0  0  0  0  0
  -13.4427   -1.0965  -22.5678 C   0  0  0  0  0  0  0  0  0  0  0  0
  -12.7334   -2.0836  -21.8869 C   0  0  0  0  0  0  0  0  0  0  0  0
  -13.6211   -3.1087  -20.7996 Cl  0  0  0  0  0  0  0  0  0  0  0  0
  -11.3584   -2.1928  -21.9975 C   0  0  0  0  0  0  0  0  0  0  0  0
  -10.6521   -1.2859  -22.7988 C   0  0  0  0  0  0  0  0  0  0  0  0
  -10.8444   -2.9533  -21.4192 H   0  0  0  0  0  0  0  0  0  0  0  0
  -14.5184   -1.0524  -22.4580 H   0  0  0  0  0  0  0  0  0  0  0  0
  -13.2508    0.6672  -23.8023 H   0  0  0  0  0  0  0  0  0  0  0  0
   -7.6254   -0.4571  -24.1817 H   0  0  0  0  0  0  0  0  0  0  0  0
   -9.0060   -1.2045  -25.0333 H   0  0  0  0  0  0  0  0  0  0  0  0
   -6.9741   -3.3627  -21.2766 H   0  0  0  0  0  0  0  0  0  0  0  0
   -6.3029   -2.3980  -22.5994 H   0  0  0  0  0  0  0  0  0  0  0  0
   -9.1433   -3.3468  -22.1842 H   0  0  0  0  0  0  0  0  0  0  0  0
   -9.1012   -3.5774  -24.7105 H   0  0  0  0  0  0  0  0  0  0  0  0
   -7.4489   -2.9407  -24.7066 H   0  0  0  0  0  0  0  0  0  0  0  0
   -7.8026   -4.4760  -23.9146 H   0  0  0  0  0  0  0  0  0  0  0  0
  1  2  1  0
  2  3  1  0
  3  4  1  0
  4  5  1  0
  5  6  2  0
  6  7  1  0
  7  8  2  0
  8  9  1  0
  9 10  2  0
 10 11  1  0
 11 12  2  0
 12 13  1  0
 13 14  2  0
 13 15  1  0
 12 16  1  0
 11 17  1  0
 10 18  1  0
  8 19  1  0
  6 20  1  0
  4 21  1  0
 21 22  2  0
 21 23  1  0
 23 24  1  6
 24 25  1  0
 25 26  1  0
 26 27  1  0
 27 28  1  0
 28 29  1  0
 29 30  1  0
 30 31  1  0
 31 32  1  0
 32 33  1  0
 33 34  1  0
 33 35  1  0
 32 36  1  0
 32 37  1  0
 30 38  1  0
 30 39  1  0
 29 40  1  0
 29 41  1  0
 28 42  1  0
 27 43  1  0
 27 44  1  0
 26 45  1  0
 26 46  1  0
 25 47  1  0
 47 48  2  0
 47 49  1  0
 49 50  2  0
 50 51  1  0
 51 52  2  0
 52 53  1  0
 52 54  1  0
 54 55  2  0
 54 56  1  0
 51 57  1  0
 50 58  1  0
 24 59  1  0
 24 60  1  0
  3 61  1  0
  3 62  1  0
  2 63  1  1
  1 64  1  0
  1 65  1  0
  1 66  1  0
 23  2  1  0
 33 28  1  0
 55 49  1  0
 14  5  1  0
 55 23  1  0
 14  9  1  0
M  CHG  1  28   1
M  END
>  <cnnaffinities>  (74) 
[6.41993]

>  <score>  (74) 
6.41993

>  <index>  (74) 
76

>  <Smiles>  (74) 
C([C@]1(C(N(c2c(nc(c3c(c(c(c(c23)[H])[H])[H])[H])[H])[H])C(=O)[C@]21C(N(C(C([N+]1(C(C(OC(C1([H])[H])([H])[H])([H])[H])([H])[H])[H])([H])[H])([H])[H])C(=O)c1c(c(c(Cl)c(c21)[H])[H])[H])([H])[H])([H])[H])[H])([H])([H])[H]

>  <h>  (74) 
<NA>

>  <Training>  (74) 
True

>  <Success>  (74) 
True

>  <enamine_searched>  (74) 
False

>  <enamine_id>  (74) 
nan

$$$$

     RDKit          3D

 55 60  0  0  0  0  0  0  0  0999 V2000
   -7.8774   -3.5915  -24.1081 C   0  0  0  0  0  0  0  0  0  0  0  0
   -8.2838   -2.8472  -22.8285 C   0  0  1  0  0  0  0  0  0  0  0  0
   -7.0802   -2.6103  -21.8891 C   0  0  0  0  0  0  0  0  0  0  0  0
   -7.4067   -1.3793  -21.1977 N   0  0  0  0  0  0  0  0  0  0  0  0
   -6.6039   -0.8069  -20.1711 C   0  0  0  0  0  0  0  0  0  0  0  0
   -6.9050   -1.0484  -18.8576 C   0  0  0  0  0  0  0  0  0  0  0  0
   -6.1985   -0.5600  -17.8080 N   0  0  0  0  0  0  0  0  0  0  0  0
   -5.1694    0.2066  -18.0735 C   0  0  0  0  0  0  0  0  0  0  0  0
   -4.7389    0.5437  -19.3887 C   0  0  0  0  0  0  0  0  0  0  0  0
   -3.6106    1.3779  -19.6291 C   0  0  0  0  0  0  0  0  0  0  0  0
   -3.2261    1.6753  -20.9055 C   0  0  0  0  0  0  0  0  0  0  0  0
   -3.9544    1.1545  -21.9959 C   0  0  0  0  0  0  0  0  0  0  0  0
   -5.0384    0.3310  -21.7901 C   0  0  0  0  0  0  0  0  0  0  0  0
   -5.4727    0.0171  -20.4775 C   0  0  0  0  0  0  0  0  0  0  0  0
   -5.5661   -0.0762  -22.6483 H   0  0  0  0  0  0  0  0  0  0  0  0
   -3.6401    1.3723  -23.0115 H   0  0  0  0  0  0  0  0  0  0  0  0
   -2.3589    2.3036  -21.0930 H   0  0  0  0  0  0  0  0  0  0  0  0
   -3.0699    1.7708  -18.7715 H   0  0  0  0  0  0  0  0  0  0  0  0
   -4.6210    0.6123  -17.2218 H   0  0  0  0  0  0  0  0  0  0  0  0
   -7.7591   -1.6706  -18.6003 H   0  0  0  0  0  0  0  0  0  0  0  0
   -8.4306   -0.6592  -21.7701 C   0  0  0  0  0  0  0  0  0  0  0  0
   -8.8232    0.4049  -21.3421 O   0  0  0  0  0  0  0  0  0  0  0  0
   -8.9698   -1.4482  -22.9994 C   0  0  1  0  0  0  0  0  0  0  0  0
   -8.5225   -0.7738  -24.3242 C   0  0  0  0  0  0  0  0  0  0  0  0
   -9.2095    0.4747  -24.5801 N   0  0  0  0  0  0  0  0  0  0  0  0
   -8.4414    1.6662  -24.9110 C   0  0  0  0  0  0  0  0  0  0  0  0
   -8.1379    2.5225  -23.7151 C   0  0  0  0  0  0  0  0  0  0  0  0
   -8.9552    3.3786  -23.0694 C   0  0  0  0  0  0  0  0  0  0  0  0
   -8.2700    3.9274  -22.0339 O   0  0  0  0  0  0  0  0  0  0  0  0
   -7.0634    3.3403  -22.0781 C   0  0  0  0  0  0  0  0  0  0  0  0
   -6.9082    2.5152  -23.0631 N   0  0  0  0  0  0  0  0  0  0  0  0
   -6.3948    3.5857  -21.2606 H   0  0  0  0  0  0  0  0  0  0  0  0
   -9.9880    3.6677  -23.1766 H   0  0  0  0  0  0  0  0  0  0  0  0
   -9.0358    2.2275  -25.6383 H   0  0  0  0  0  0  0  0  0  0  0  0
   -7.4986    1.3587  -25.3746 H   0  0  0  0  0  0  0  0  0  0  0  0
  -10.5633    0.6018  -24.4346 C   0  0  0  0  0  0  0  0  0  0  0  0
  -11.1834    1.5789  -24.8422 O   0  0  0  0  0  0  0  0  0  0  0  0
  -11.2374   -0.5107  -23.6879 C   0  0  0  0  0  0  0  0  0  0  0  0
  -12.6322   -0.5102  -23.6365 C   0  0  0  0  0  0  0  0  0  0  0  0
  -13.3014   -1.3998  -22.8210 C   0  0  0  0  0  0  0  0  0  0  0  0
  -12.5493   -2.2626  -22.0328 C   0  0  0  0  0  0  0  0  0  0  0  0
  -13.1941   -3.0788  -21.1840 F   0  0  0  0  0  0  0  0  0  0  0  0
  -11.1720   -2.2973  -22.0791 C   0  0  0  0  0  0  0  0  0  0  0  0
  -10.4901   -1.4513  -22.9622 C   0  0  0  0  0  0  0  0  0  0  0  0
  -10.6565   -2.9612  -21.3943 H   0  0  0  0  0  0  0  0  0  0  0  0
  -14.3811   -1.4201  -22.7470 H   0  0  0  0  0  0  0  0  0  0  0  0
  -13.1573    0.2294  -24.2315 H   0  0  0  0  0  0  0  0  0  0  0  0
   -8.6994   -1.4721  -25.1573 H   0  0  0  0  0  0  0  0  0  0  0  0
   -7.4522   -0.5506  -24.2537 H   0  0  0  0  0  0  0  0  0  0  0  0
   -6.1429   -2.5108  -22.4594 H   0  0  0  0  0  0  0  0  0  0  0  0
   -6.9387   -3.4270  -21.1711 H   0  0  0  0  0  0  0  0  0  0  0  0
   -9.0051   -3.4700  -22.2950 H   0  0  0  0  0  0  0  0  0  0  0  0
   -8.7231   -3.7365  -24.7901 H   0  0  0  0  0  0  0  0  0  0  0  0
   -7.0986   -3.0461  -24.6556 H   0  0  0  0  0  0  0  0  0  0  0  0
   -7.4712   -4.5810  -23.8696 H   0  0  0  0  0  0  0  0  0  0  0  0
  1  2  1  0
  2  3  1  0
  3  4  1  0
  4  5  1  0
  5  6  2  0
  6  7  1  0
  7  8  2  0
  8  9  1  0
  9 10  2  0
 10 11  1  0
 11 12  2  0
 12 13  1  0
 13 14  2  0
 13 15  1  0
 12 16  1  0
 11 17  1  0
 10 18  1  0
  8 19  1  0
  6 20  1  0
  4 21  1  0
 21 22  2  0
 21 23  1  0
 23 24  1  6
 24 25  1  0
 25 26  1  0
 26 27  1  0
 27 28  2  0
 28 29  1  0
 29 30  1  0
 30 31  2  0
 30 32  1  0
 28 33  1  0
 26 34  1  0
 26 35  1  0
 25 36  1  0
 36 37  2  0
 36 38  1  0
 38 39  2  0
 39 40  1  0
 40 41  2  0
 41 42  1  0
 41 43  1  0
 43 44  2  0
 43 45  1  0
 40 46  1  0
 39 47  1  0
 24 48  1  0
 24 49  1  0
  3 50  1  0
  3 51  1  0
  2 52  1  1
  1 53  1  0
  1 54  1  0
  1 55  1  0
 23  2  1  0
 31 27  1  0
 44 38  1  0
 14  5  1  0
 44 23  1  0
 14  9  1  0
M  END
>  <cnnaffinities>  (75) 
[6.15753]

>  <score>  (75) 
6.15753

>  <index>  (75) 
77

>  <Smiles>  (75) 
C([C@]1(C(N(c2c(nc(c3c(c(c(c(c23)[H])[H])[H])[H])[H])[H])C(=O)[C@]21C(N(C(c1c(oc(n1)[H])[H])([H])[H])C(=O)c1c(c(c(F)c(c21)[H])[H])[H])([H])[H])([H])[H])[H])([H])([H])[H]

>  <h>  (75) 
<NA>

>  <Training>  (75) 
True

>  <Success>  (75) 
True

>  <enamine_searched>  (75) 
False

>  <enamine_id>  (75) 
nan

$$$$

     RDKit          3D

 56 60  0  0  0  0  0  0  0  0999 V2000
   -7.3104    3.4463  -21.8845 C   0  0  0  0  0  0  0  0  0  0  0  0
   -8.1460    2.9735  -22.9744 N   0  0  0  0  0  0  0  0  0  0  0  0
   -7.5741    2.2629  -23.9743 C   0  0  0  0  0  0  0  0  0  0  0  0
   -6.3621    2.1338  -24.0760 O   0  0  0  0  0  0  0  0  0  0  0  0
   -8.5352    1.6435  -25.0032 C   0  0  0  0  0  0  0  0  0  0  0  0
   -9.2803    0.5016  -24.5037 N   0  0  0  0  0  0  0  0  0  0  0  0
   -8.5779   -0.7551  -24.3103 C   0  0  0  0  0  0  0  0  0  0  0  0
   -8.9898   -1.4555  -22.9892 C   0  0  2  0  0  0  0  0  0  0  0  0
   -8.4427   -0.6649  -21.7681 C   0  0  0  0  0  0  0  0  0  0  0  0
   -8.8378    0.4006  -21.3488 O   0  0  0  0  0  0  0  0  0  0  0  0
   -7.4114   -1.3769  -21.2004 N   0  0  0  0  0  0  0  0  0  0  0  0
   -6.6098   -0.8027  -20.1742 C   0  0  0  0  0  0  0  0  0  0  0  0
   -6.9060   -1.0457  -18.8593 C   0  0  0  0  0  0  0  0  0  0  0  0
   -6.1992   -0.5585  -17.8098 N   0  0  0  0  0  0  0  0  0  0  0  0
   -5.1670    0.2058  -18.0736 C   0  0  0  0  0  0  0  0  0  0  0  0
   -4.7356    0.5402  -19.3884 C   0  0  0  0  0  0  0  0  0  0  0  0
   -3.6068    1.3732  -19.6311 C   0  0  0  0  0  0  0  0  0  0  0  0
   -3.2288    1.6801  -20.9099 C   0  0  0  0  0  0  0  0  0  0  0  0
   -3.9688    1.1747  -22.0013 C   0  0  0  0  0  0  0  0  0  0  0  0
   -5.0577    0.3607  -21.7918 C   0  0  0  0  0  0  0  0  0  0  0  0
   -5.4806    0.0254  -20.4785 C   0  0  0  0  0  0  0  0  0  0  0  0
   -5.5800   -0.0645  -22.6443 H   0  0  0  0  0  0  0  0  0  0  0  0
   -3.6604    1.3861  -23.0193 H   0  0  0  0  0  0  0  0  0  0  0  0
   -2.3578    2.3024  -21.0949 H   0  0  0  0  0  0  0  0  0  0  0  0
   -3.0663    1.7689  -18.7751 H   0  0  0  0  0  0  0  0  0  0  0  0
   -4.6213    0.6117  -17.2218 H   0  0  0  0  0  0  0  0  0  0  0  0
   -7.7571   -1.6708  -18.6003 H   0  0  0  0  0  0  0  0  0  0  0  0
   -7.0881   -2.6123  -21.8850 C   0  0  0  0  0  0  0  0  0  0  0  0
   -8.2925   -2.8487  -22.8269 C   0  0  2  0  0  0  0  0  0  0  0  0
   -7.8794   -3.5866  -24.1090 C   0  0  0  0  0  0  0  0  0  0  0  0
   -7.4619   -4.5733  -23.8722 H   0  0  0  0  0  0  0  0  0  0  0  0
   -7.1089   -3.0320  -24.6597 H   0  0  0  0  0  0  0  0  0  0  0  0
   -8.7268   -3.7402  -24.7870 H   0  0  0  0  0  0  0  0  0  0  0  0
   -9.0090   -3.4827  -22.2993 H   0  0  0  0  0  0  0  0  0  0  0  0
   -6.1472   -2.5225  -22.4529 H   0  0  0  0  0  0  0  0  0  0  0  0
   -6.9501   -3.4277  -21.1633 H   0  0  0  0  0  0  0  0  0  0  0  0
  -10.5107   -1.4722  -22.9230 C   0  0  0  0  0  0  0  0  0  0  0  0
  -11.1657   -2.2966  -21.9972 C   0  0  0  0  0  0  0  0  0  0  0  0
  -12.5436   -2.2532  -21.8909 C   0  0  0  0  0  0  0  0  0  0  0  0
  -13.3700   -3.1315  -20.6383 Cl  0  0  0  0  0  0  0  0  0  0  0  0
  -13.3127   -1.4356  -22.7160 C   0  0  0  0  0  0  0  0  0  0  0  0
  -12.6742   -0.5639  -23.5706 C   0  0  0  0  0  0  0  0  0  0  0  0
  -11.2813   -0.5480  -23.6417 C   0  0  0  0  0  0  0  0  0  0  0  0
  -10.6432    0.5697  -24.4096 C   0  0  0  0  0  0  0  0  0  0  0  0
  -11.3074    1.4882  -24.8678 O   0  0  0  0  0  0  0  0  0  0  0  0
  -13.2236    0.1645  -24.1577 H   0  0  0  0  0  0  0  0  0  0  0  0
  -14.3910   -1.4563  -22.6205 H   0  0  0  0  0  0  0  0  0  0  0  0
  -10.6064   -2.9323  -21.3198 H   0  0  0  0  0  0  0  0  0  0  0  0
   -7.5097   -0.5229  -24.2792 H   0  0  0  0  0  0  0  0  0  0  0  0
   -8.7699   -1.4407  -25.1522 H   0  0  0  0  0  0  0  0  0  0  0  0
   -7.9019    1.3547  -25.8481 H   0  0  0  0  0  0  0  0  0  0  0  0
   -9.2920    2.3534  -25.3531 H   0  0  0  0  0  0  0  0  0  0  0  0
   -9.1498    2.9338  -22.8516 H   0  0  0  0  0  0  0  0  0  0  0  0
   -7.9612    3.9190  -21.1464 H   0  0  0  0  0  0  0  0  0  0  0  0
   -6.7461    2.6100  -21.4356 H   0  0  0  0  0  0  0  0  0  0  0  0
   -6.5860    4.1890  -22.2433 H   0  0  0  0  0  0  0  0  0  0  0  0
  1  2  1  0
  2  3  1  0
  3  4  2  0
  3  5  1  0
  5  6  1  0
  6  7  1  0
  8  7  1  6
  8  9  1  0
  9 10  2  0
  9 11  1  0
 11 12  1  0
 12 13  2  0
 13 14  1  0
 14 15  2  0
 15 16  1  0
 16 17  2  0
 17 18  1  0
 18 19  2  0
 19 20  1  0
 20 21  2  0
 20 22  1  0
 19 23  1  0
 18 24  1  0
 17 25  1  0
 15 26  1  0
 13 27  1  0
 11 28  1  0
 28 29  1  0
 29 30  1  0
 30 31  1  0
 30 32  1  0
 30 33  1  0
 29 34  1  1
 28 35  1  0
 28 36  1  0
  8 37  1  0
 37 38  2  0
 38 39  1  0
 39 40  1  0
 39 41  2  0
 41 42  1  0
 42 43  2  0
 43 44  1  0
 44 45  2  0
 42 46  1  0
 41 47  1  0
 38 48  1  0
  7 49  1  0
  7 50  1  0
  5 51  1  0
  5 52  1  0
  2 53  1  0
  1 54  1  0
  1 55  1  0
  1 56  1  0
 44  6  1  0
 29  8  1  0
 43 37  1  0
 21 12  1  0
 21 16  1  0
M  END
>  <cnnaffinities>  (76) 
[6.26862]

>  <score>  (76) 
6.26862

>  <index>  (76) 
78

>  <Smiles>  (76) 
C(N(C(=O)C(N1C([C@@]2(C(=O)N(c3c(nc(c4c(c(c(c(c34)[H])[H])[H])[H])[H])[H])C([C@@]2(C([H])([H])[H])[H])([H])[H])c2c(c(Cl)c(c(c2C1=O)[H])[H])[H])([H])[H])([H])[H])[H])([H])([H])[H]

>  <h>  (76) 
<NA>

>  <Training>  (76) 
True

>  <Success>  (76) 
True

>  <enamine_searched>  (76) 
False

>  <enamine_id>  (76) 
nan

$$$$

     RDKit          3D

 45 49  0  0  0  0  0  0  0  0999 V2000
  -10.5633   -2.6323  -22.5255 C   0  0  0  0  0  0  0  0  0  0  0  0
   -9.1642   -2.4271  -22.1937 N   0  0  0  0  0  0  0  0  0  0  0  0
   -8.7509   -1.3814  -21.4132 C   0  0  0  0  0  0  0  0  0  0  0  0
   -9.4300   -0.4586  -21.0164 O   0  0  0  0  0  0  0  0  0  0  0  0
   -7.3616   -1.5446  -21.2145 N   0  0  0  0  0  0  0  0  0  0  0  0
   -6.5993   -0.8692  -20.2019 C   0  0  0  0  0  0  0  0  0  0  0  0
   -6.9120   -1.0679  -18.8787 C   0  0  0  0  0  0  0  0  0  0  0  0
   -6.2164   -0.5555  -17.8316 N   0  0  0  0  0  0  0  0  0  0  0  0
   -5.1827    0.2028  -18.0963 C   0  0  0  0  0  0  0  0  0  0  0  0
   -4.7553    0.5274  -19.4122 C   0  0  0  0  0  0  0  0  0  0  0  0
   -3.6238    1.3639  -19.6324 C   0  0  0  0  0  0  0  0  0  0  0  0
   -3.2411    1.6855  -20.9046 C   0  0  0  0  0  0  0  0  0  0  0  0
   -3.9887    1.1966  -21.9973 C   0  0  0  0  0  0  0  0  0  0  0  0
   -5.0764    0.3770  -21.8086 C   0  0  0  0  0  0  0  0  0  0  0  0
   -5.4898   -0.0004  -20.5023 C   0  0  0  0  0  0  0  0  0  0  0  0
   -5.5983   -0.0330  -22.6661 H   0  0  0  0  0  0  0  0  0  0  0  0
   -3.6647    1.4197  -23.0083 H   0  0  0  0  0  0  0  0  0  0  0  0
   -2.3688    2.3091  -21.0845 H   0  0  0  0  0  0  0  0  0  0  0  0
   -3.0816    1.7462  -18.7706 H   0  0  0  0  0  0  0  0  0  0  0  0
   -4.6309    0.6061  -17.2453 H   0  0  0  0  0  0  0  0  0  0  0  0
   -7.7606   -1.6869  -18.6026 H   0  0  0  0  0  0  0  0  0  0  0  0
   -6.8640   -2.5382  -22.0604 C   0  0  0  0  0  0  0  0  0  0  0  0
   -5.7033   -2.8245  -22.2230 O   0  0  0  0  0  0  0  0  0  0  0  0
   -8.0645   -3.1717  -22.7504 C   0  0  0  0  0  0  0  0  0  0  0  0
   -7.9662   -3.2941  -24.2938 C   0  0  0  0  0  0  0  0  0  0  0  0
   -7.8805   -4.7891  -24.1655 N   0  0  0  0  0  0  0  0  0  0  0  0
   -9.0245   -5.6549  -25.0568 S   0  0  0  0  0  0  0  0  0  0  0  0
  -10.3187   -5.5190  -24.3938 O   0  0  0  0  0  0  0  0  0  0  0  0
   -8.8561   -5.2456  -26.4357 O   0  0  0  0  0  0  0  0  0  0  0  0
   -8.5590   -7.3610  -24.8954 C   0  0  0  0  0  0  0  0  0  0  0  0
   -9.1028   -8.1254  -23.7169 C   0  0  0  0  0  0  0  0  0  0  0  0
   -9.6935   -8.3407  -25.0728 C   0  0  0  0  0  0  0  0  0  0  0  0
  -10.6519   -7.8837  -25.2954 H   0  0  0  0  0  0  0  0  0  0  0  0
   -9.4998   -9.2747  -25.5939 H   0  0  0  0  0  0  0  0  0  0  0  0
   -8.4590   -8.8948  -23.3066 H   0  0  0  0  0  0  0  0  0  0  0  0
   -9.6838   -7.5721  -22.9824 H   0  0  0  0  0  0  0  0  0  0  0  0
   -7.5781   -7.5676  -25.3114 H   0  0  0  0  0  0  0  0  0  0  0  0
   -8.0785   -4.7156  -22.6973 C   0  0  0  0  0  0  0  0  0  0  0  0
   -7.2236   -5.1429  -22.1734 H   0  0  0  0  0  0  0  0  0  0  0  0
   -9.0153   -5.1488  -22.3366 H   0  0  0  0  0  0  0  0  0  0  0  0
   -8.8479   -2.9371  -24.8412 H   0  0  0  0  0  0  0  0  0  0  0  0
   -7.0668   -2.8702  -24.7415 H   0  0  0  0  0  0  0  0  0  0  0  0
  -10.9932   -1.6640  -22.7917 H   0  0  0  0  0  0  0  0  0  0  0  0
  -11.1164   -3.0290  -21.6650 H   0  0  0  0  0  0  0  0  0  0  0  0
  -10.6531   -3.3317  -23.3631 H   0  0  0  0  0  0  0  0  0  0  0  0
  1  2  1  0
  2  3  1  0
  3  4  2  0
  3  5  1  0
  5  6  1  0
  6  7  2  0
  7  8  1  0
  8  9  2  0
  9 10  1  0
 10 11  2  0
 11 12  1  0
 12 13  2  0
 13 14  1  0
 14 15  2  0
 14 16  1  0
 13 17  1  0
 12 18  1  0
 11 19  1  0
  9 20  1  0
  7 21  1  0
  5 22  1  0
 22 23  2  0
 22 24  1  0
 24 25  1  0
 25 26  1  0
 26 27  1  0
 27 28  2  0
 27 29  2  0
 27 30  1  0
 30 31  1  0
 31 32  1  0
 32 33  1  0
 32 34  1  0
 31 35  1  0
 31 36  1  0
 30 37  1  0
 26 38  1  0
 38 39  1  0
 38 40  1  0
 25 41  1  0
 25 42  1  0
  1 43  1  0
  1 44  1  0
  1 45  1  0
 24  2  1  0
 32 30  1  0
 15  6  1  0
 38 24  1  0
 15 10  1  0
M  END
>  <cnnaffinities>  (77) 
[5.02171, 4.6048, 4.61012]

>  <score>  (77) 
5.02171

>  <index>  (77) 
79

>  <Smiles>  (77) 
C(N1C(=O)N(c2c(nc(c3c(c(c(c(c23)[H])[H])[H])[H])[H])[H])C(=O)C21C(N(S(=O)(=O)C1(C(C1([H])[H])([H])[H])[H])C2([H])[H])([H])[H])([H])([H])[H]

>  <h>  (77) 
<NA>

>  <Training>  (77) 
True

>  <Success>  (77) 
True

>  <enamine_searched>  (77) 
False

>  <enamine_id>  (77) 
nan

$$$$

     RDKit          3D

 60 65  0  0  0  0  0  0  0  0999 V2000
   -8.7257   -8.1778  -25.9864 C   0  0  0  0  0  0  0  0  0  0  0  0
   -7.9711   -7.1751  -25.2499 N   0  0  0  0  0  0  0  0  0  0  0  0
   -7.2074   -7.3628  -24.1453 C   0  0  0  0  0  0  0  0  0  0  0  0
   -7.0126   -8.4377  -23.6012 O   0  0  0  0  0  0  0  0  0  0  0  0
   -6.5183   -6.1407  -23.5539 C   0  0  0  0  0  0  0  0  0  0  0  0
   -6.8989   -4.8328  -23.9884 N   0  0  0  0  0  0  0  0  0  0  0  0
   -8.0525   -4.2028  -23.3778 C   0  0  0  0  0  0  0  0  0  0  0  0
   -7.8544   -2.6857  -23.1697 C   0  0  2  0  0  0  0  0  0  0  0  0
   -6.8299   -2.4133  -22.0489 C   0  0  0  0  0  0  0  0  0  0  0  0
   -5.7321   -2.9234  -21.9170 O   0  0  0  0  0  0  0  0  0  0  0  0
   -7.3455   -1.4606  -21.2066 N   0  0  0  0  0  0  0  0  0  0  0  0
   -6.5697   -0.8561  -20.1853 C   0  0  0  0  0  0  0  0  0  0  0  0
   -6.9006   -1.0611  -18.8690 C   0  0  0  0  0  0  0  0  0  0  0  0
   -6.2168   -0.5510  -17.8178 N   0  0  0  0  0  0  0  0  0  0  0  0
   -5.1794    0.2073  -18.0847 C   0  0  0  0  0  0  0  0  0  0  0  0
   -4.7431    0.5279  -19.4031 C   0  0  0  0  0  0  0  0  0  0  0  0
   -3.6213    1.3702  -19.6284 C   0  0  0  0  0  0  0  0  0  0  0  0
   -3.2478    1.6954  -20.9037 C   0  0  0  0  0  0  0  0  0  0  0  0
   -3.9910    1.2100  -22.0033 C   0  0  0  0  0  0  0  0  0  0  0  0
   -5.0715    0.3812  -21.8149 C   0  0  0  0  0  0  0  0  0  0  0  0
   -5.4659    0.0038  -20.4971 C   0  0  0  0  0  0  0  0  0  0  0  0
   -5.6016   -0.0174  -22.6799 H   0  0  0  0  0  0  0  0  0  0  0  0
   -3.6687    1.4454  -23.0126 H   0  0  0  0  0  0  0  0  0  0  0  0
   -2.3753    2.3179  -21.0818 H   0  0  0  0  0  0  0  0  0  0  0  0
   -3.0774    1.7482  -18.7669 H   0  0  0  0  0  0  0  0  0  0  0  0
   -4.6294    0.6112  -17.2352 H   0  0  0  0  0  0  0  0  0  0  0  0
   -7.7575   -1.6842  -18.6169 H   0  0  0  0  0  0  0  0  0  0  0  0
   -8.6719   -1.0014  -21.5590 C   0  0  0  0  0  0  0  0  0  0  0  0
   -9.1522   -1.9674  -22.6633 C   0  0  2  0  0  0  0  0  0  0  0  0
  -10.2644   -2.8836  -22.1241 C   0  0  0  0  0  0  0  0  0  0  0  0
  -11.1046   -2.2796  -21.7668 H   0  0  0  0  0  0  0  0  0  0  0  0
  -10.6562   -3.5499  -22.8974 H   0  0  0  0  0  0  0  0  0  0  0  0
   -9.9176   -3.4966  -21.2846 H   0  0  0  0  0  0  0  0  0  0  0  0
   -9.5872   -1.4126  -23.5039 H   0  0  0  0  0  0  0  0  0  0  0  0
   -9.3350   -1.0535  -20.6976 H   0  0  0  0  0  0  0  0  0  0  0  0
   -8.6475    0.0476  -21.8855 H   0  0  0  0  0  0  0  0  0  0  0  0
   -7.3185   -2.0935  -24.4733 C   0  0  0  0  0  0  0  0  0  0  0  0
   -7.4698   -0.7267  -24.7503 C   0  0  0  0  0  0  0  0  0  0  0  0
   -6.9327   -0.1907  -25.9090 C   0  0  0  0  0  0  0  0  0  0  0  0
   -7.1204    1.5106  -26.2373 Cl  0  0  0  0  0  0  0  0  0  0  0  0
   -6.2311   -0.9796  -26.8195 C   0  0  0  0  0  0  0  0  0  0  0  0
   -6.0501   -2.3206  -26.5408 C   0  0  0  0  0  0  0  0  0  0  0  0
   -6.5761   -2.8720  -25.3716 C   0  0  0  0  0  0  0  0  0  0  0  0
   -6.2659   -4.2998  -25.0838 C   0  0  0  0  0  0  0  0  0  0  0  0
   -5.4951   -4.9630  -25.7685 O   0  0  0  0  0  0  0  0  0  0  0  0
   -5.4856   -2.9799  -27.1956 H   0  0  0  0  0  0  0  0  0  0  0  0
   -5.8225   -0.5309  -27.7165 H   0  0  0  0  0  0  0  0  0  0  0  0
   -7.9911   -0.0583  -24.0710 H   0  0  0  0  0  0  0  0  0  0  0  0
   -8.2060   -4.6887  -22.4159 H   0  0  0  0  0  0  0  0  0  0  0  0
   -8.9432   -4.3469  -24.0094 H   0  0  0  0  0  0  0  0  0  0  0  0
   -6.1569   -6.3019  -22.0901 C   0  0  0  0  0  0  0  0  0  0  0  0
   -5.0861   -6.3578  -23.1204 C   0  0  0  0  0  0  0  0  0  0  0  0
   -4.6571   -7.3227  -23.3705 H   0  0  0  0  0  0  0  0  0  0  0  0
   -4.4173   -5.5065  -23.2081 H   0  0  0  0  0  0  0  0  0  0  0  0
   -6.2274   -5.4044  -21.4815 H   0  0  0  0  0  0  0  0  0  0  0  0
   -6.4706   -7.2420  -21.6488 H   0  0  0  0  0  0  0  0  0  0  0  0
   -8.0629   -6.2377  -25.5959 H   0  0  0  0  0  0  0  0  0  0  0  0
   -8.0983   -8.7764  -26.6643 H   0  0  0  0  0  0  0  0  0  0  0  0
   -9.2351   -8.8811  -25.3226 H   0  0  0  0  0  0  0  0  0  0  0  0
   -9.4860   -7.6565  -26.5781 H   0  0  0  0  0  0  0  0  0  0  0  0
  1  2  1  0
  2  3  1  0
  3  4  2  0
  3  5  1  0
  5  6  1  0
  6  7  1  0
  8  7  1  6
  8  9  1  0
  9 10  2  0
  9 11  1  0
 11 12  1  0
 12 13  2  0
 13 14  1  0
 14 15  2  0
 15 16  1  0
 16 17  2  0
 17 18  1  0
 18 19  2  0
 19 20  1  0
 20 21  2  0
 20 22  1  0
 19 23  1  0
 18 24  1  0
 17 25  1  0
 15 26  1  0
 13 27  1  0
 11 28  1  0
 28 29  1  0
 29 30  1  0
 30 31  1  0
 30 32  1  0
 30 33  1  0
 29 34  1  6
 28 35  1  0
 28 36  1  0
  8 37  1  0
 37 38  2  0
 38 39  1  0
 39 40  1  0
 39 41  2  0
 41 42  1  0
 42 43  2  0
 43 44  1  0
 44 45  2  0
 42 46  1  0
 41 47  1  0
 38 48  1  0
  7 49  1  0
  7 50  1  0
  5 51  1  0
 51 52  1  0
 52 53  1  0
 52 54  1  0
 51 55  1  0
 51 56  1  0
  2 57  1  0
  1 58  1  0
  1 59  1  0
  1 60  1  0
 52  5  1  0
 44  6  1  0
 29  8  1  0
 43 37  1  0
 21 12  1  0
 21 16  1  0
M  END
>  <cnnaffinities>  (78) 
[5.79143]

>  <score>  (78) 
5.79143

>  <index>  (78) 
80

>  <Smiles>  (78) 
C(N(C(=O)C1(N2C([C@@]3(C(=O)N(c4c(nc(c5c(c(c(c(c45)[H])[H])[H])[H])[H])[H])C([C@@]3(C([H])([H])[H])[H])([H])[H])c3c(c(Cl)c(c(c3C2=O)[H])[H])[H])([H])[H])C(C1([H])[H])([H])[H])[H])([H])([H])[H]

>  <h>  (78) 
<NA>

>  <Training>  (78) 
True

>  <Success>  (78) 
True

>  <enamine_searched>  (78) 
False

>  <enamine_id>  (78) 
nan

$$$$

     RDKit          3D

 36 38  0  0  0  0  0  0  0  0999 V2000
   -8.5081    0.7110  -21.4644 O   0  0  0  0  0  0  0  0  0  0  0  0
   -8.3854   -0.4014  -21.9344 C   0  0  0  0  0  0  0  0  0  0  0  0
   -7.4384   -1.4326  -21.2764 C   0  0  0  0  0  0  0  0  0  0  0  0
   -6.5825   -0.8280  -20.1847 C   0  0  0  0  0  0  0  0  0  0  0  0
   -6.8787   -1.0409  -18.8633 C   0  0  0  0  0  0  0  0  0  0  0  0
   -6.1923   -0.5409  -17.8006 N   0  0  0  0  0  0  0  0  0  0  0  0
   -5.1575    0.2203  -18.0638 C   0  0  0  0  0  0  0  0  0  0  0  0
   -4.7261    0.5366  -19.3797 C   0  0  0  0  0  0  0  0  0  0  0  0
   -3.5995    1.3672  -19.6178 C   0  0  0  0  0  0  0  0  0  0  0  0
   -3.2171    1.6727  -20.8971 C   0  0  0  0  0  0  0  0  0  0  0  0
   -3.9610    1.1712  -21.9866 C   0  0  0  0  0  0  0  0  0  0  0  0
   -5.0469    0.3518  -21.7821 C   0  0  0  0  0  0  0  0  0  0  0  0
   -5.4600    0.0081  -20.4704 C   0  0  0  0  0  0  0  0  0  0  0  0
   -5.5739   -0.0634  -22.6343 H   0  0  0  0  0  0  0  0  0  0  0  0
   -3.6301    1.3777  -22.9991 H   0  0  0  0  0  0  0  0  0  0  0  0
   -2.3511    2.3022  -21.0857 H   0  0  0  0  0  0  0  0  0  0  0  0
   -3.0563    1.7724  -18.7679 H   0  0  0  0  0  0  0  0  0  0  0  0
   -4.6034    0.6263  -17.2152 H   0  0  0  0  0  0  0  0  0  0  0  0
   -7.7288   -1.6600  -18.5853 H   0  0  0  0  0  0  0  0  0  0  0  0
   -6.8018   -1.8991  -22.0409 H   0  0  0  0  0  0  0  0  0  0  0  0
   -8.0406   -2.2447  -20.8452 H   0  0  0  0  0  0  0  0  0  0  0  0
   -9.0620   -0.7718  -23.0896 N   0  0  0  0  0  0  0  0  0  0  0  0
  -10.0066    0.1956  -23.6429 C   0  0  0  0  0  0  0  0  0  0  0  0
  -11.3809    0.2145  -23.0218 C   0  0  0  0  0  0  0  0  0  0  0  0
  -12.0216   -0.7919  -22.4178 C   0  0  0  0  0  0  0  0  0  0  0  0
  -11.5711   -2.1757  -22.1570 C   0  0  0  0  0  0  0  0  0  0  0  0
  -10.4477   -2.7811  -22.5524 C   0  0  0  0  0  0  0  0  0  0  0  0
   -9.3678   -2.1604  -23.4043 C   0  0  0  0  0  0  0  0  0  0  0  0
   -8.4499   -2.7531  -23.3592 H   0  0  0  0  0  0  0  0  0  0  0  0
   -9.6833   -2.1751  -24.4538 H   0  0  0  0  0  0  0  0  0  0  0  0
  -10.2820   -3.8155  -22.2472 H   0  0  0  0  0  0  0  0  0  0  0  0
  -12.2764   -2.7631  -21.5726 H   0  0  0  0  0  0  0  0  0  0  0  0
  -13.0198   -0.5789  -22.0381 H   0  0  0  0  0  0  0  0  0  0  0  0
  -11.8919    1.1787  -23.0820 H   0  0  0  0  0  0  0  0  0  0  0  0
  -10.1122   -0.0399  -24.7085 H   0  0  0  0  0  0  0  0  0  0  0  0
   -9.5581    1.1913  -23.5952 H   0  0  0  0  0  0  0  0  0  0  0  0
  1  2  2  0
  2  3  1  0
  3  4  1  0
  4  5  2  0
  5  6  1  0
  6  7  2  0
  7  8  1  0
  8  9  2  0
  9 10  1  0
 10 11  2  0
 11 12  1  0
 12 13  2  0
 12 14  1  0
 11 15  1  0
 10 16  1  0
  9 17  1  0
  7 18  1  0
  5 19  1  0
  3 20  1  0
  3 21  1  0
  2 22  1  0
 22 23  1  0
 23 24  1  0
 24 25  2  0
 25 26  1  0
 26 27  2  0
 27 28  1  0
 28 29  1  0
 28 30  1  0
 27 31  1  0
 26 32  1  0
 25 33  1  0
 24 34  1  0
 23 35  1  0
 23 36  1  0
 13  4  1  0
 28 22  1  0
 13  8  1  0
M  END
>  <cnnaffinities>  (79) 
[4.39732, 4.39735, 4.51088, 4.50733, 4.07735, 4.07803]

>  <score>  (79) 
4.39732

>  <index>  (79) 
81

>  <Smiles>  (79) 
O=C(C(c1c(nc(c2c(c(c(c(c12)[H])[H])[H])[H])[H])[H])([H])[H])N1C(C(=C(C(=C(C1([H])[H])[H])[H])[H])[H])([H])[H]

>  <h>  (79) 
<NA>

>  <Training>  (79) 
True

>  <Success>  (79) 
True

>  <enamine_searched>  (79) 
False

>  <enamine_id>  (79) 
nan

$$$$

     RDKit          3D

 54 57  0  0  0  0  0  0  0  0999 V2000
   -9.4405    1.4483  -24.5531 C   0  0  0  0  0  0  0  0  0  0  0  0
   -8.8994    0.1541  -24.4442 O   0  0  0  0  0  0  0  0  0  0  0  0
   -7.6145   -0.0552  -24.8353 C   0  0  0  0  0  0  0  0  0  0  0  0
   -6.8007    0.9389  -25.3807 C   0  0  0  0  0  0  0  0  0  0  0  0
   -5.4946    0.6316  -25.7576 C   0  0  0  0  0  0  0  0  0  0  0  0
   -5.0115   -0.6621  -25.5976 C   0  0  0  0  0  0  0  0  0  0  0  0
   -5.8304   -1.6415  -25.0409 C   0  0  0  0  0  0  0  0  0  0  0  0
   -7.1246   -1.3570  -24.6342 C   0  0  0  0  0  0  0  0  0  0  0  0
   -8.0054   -2.4555  -24.0321 C   0  0  1  0  0  0  0  0  0  0  0  0
   -8.5382   -3.3671  -25.1487 C   0  0  0  0  0  0  0  0  0  0  0  0
   -9.2393   -4.6070  -24.5849 C   0  0  1  0  0  0  0  0  0  0  0  0
   -9.8531   -5.4698  -25.6904 C   0  0  0  0  0  0  0  0  0  0  0  0
  -10.5598   -4.9006  -26.2930 H   0  0  0  0  0  0  0  0  0  0  0  0
   -9.0834   -5.8460  -26.3753 H   0  0  0  0  0  0  0  0  0  0  0  0
  -10.3831   -6.3326  -25.2737 H   0  0  0  0  0  0  0  0  0  0  0  0
   -8.2658   -5.4349  -23.7171 C   0  0  0  0  0  0  0  0  0  0  0  0
   -6.9988   -4.6540  -23.3488 C   0  0  0  0  0  0  0  0  0  0  0  0
   -7.3104   -3.2632  -23.0273 N   0  0  0  0  0  0  0  0  0  0  0  0
   -6.7433   -2.7408  -21.8863 C   0  0  0  0  0  0  0  0  0  0  0  0
   -5.8240   -3.3069  -21.3161 O   0  0  0  0  0  0  0  0  0  0  0  0
   -7.3862   -1.4717  -21.2931 C   0  0  0  0  0  0  0  0  0  0  0  0
   -6.5738   -0.8372  -20.1959 C   0  0  0  0  0  0  0  0  0  0  0  0
   -6.8714   -1.0641  -18.8761 C   0  0  0  0  0  0  0  0  0  0  0  0
   -6.1920   -0.5588  -17.8116 N   0  0  0  0  0  0  0  0  0  0  0  0
   -5.1648    0.2092  -18.0734 C   0  0  0  0  0  0  0  0  0  0  0  0
   -4.7307    0.5370  -19.3877 C   0  0  0  0  0  0  0  0  0  0  0  0
   -3.6073    1.3688  -19.6154 C   0  0  0  0  0  0  0  0  0  0  0  0
   -3.2239    1.6720  -20.8908 C   0  0  0  0  0  0  0  0  0  0  0  0
   -3.9596    1.1671  -21.9872 C   0  0  0  0  0  0  0  0  0  0  0  0
   -5.0415    0.3441  -21.7994 C   0  0  0  0  0  0  0  0  0  0  0  0
   -5.4590    0.0091  -20.4830 C   0  0  0  0  0  0  0  0  0  0  0  0
   -5.5353   -0.0918  -22.6690 H   0  0  0  0  0  0  0  0  0  0  0  0
   -3.6278    1.3736  -23.0006 H   0  0  0  0  0  0  0  0  0  0  0  0
   -2.3481    2.2837  -21.0760 H   0  0  0  0  0  0  0  0  0  0  0  0
   -3.0682    1.7548  -18.7527 H   0  0  0  0  0  0  0  0  0  0  0  0
   -4.6207    0.6212  -17.2213 H   0  0  0  0  0  0  0  0  0  0  0  0
   -7.7251   -1.6829  -18.6021 H   0  0  0  0  0  0  0  0  0  0  0  0
   -7.6278   -0.7466  -22.0770 H   0  0  0  0  0  0  0  0  0  0  0  0
   -8.3526   -1.7851  -20.8747 H   0  0  0  0  0  0  0  0  0  0  0  0
   -6.2740   -4.7057  -24.1754 H   0  0  0  0  0  0  0  0  0  0  0  0
   -6.5125   -5.0686  -22.4655 H   0  0  0  0  0  0  0  0  0  0  0  0
   -7.9662   -6.3410  -24.2612 H   0  0  0  0  0  0  0  0  0  0  0  0
   -8.7836   -5.7638  -22.8070 H   0  0  0  0  0  0  0  0  0  0  0  0
  -10.0473   -4.2490  -23.9294 H   0  0  0  0  0  0  0  0  0  0  0  0
   -9.2379   -2.7670  -25.7440 H   0  0  0  0  0  0  0  0  0  0  0  0
   -7.7114   -3.6660  -25.8163 H   0  0  0  0  0  0  0  0  0  0  0  0
   -8.8614   -1.9641  -23.5553 H   0  0  0  0  0  0  0  0  0  0  0  0
   -5.4483   -2.6569  -24.9281 H   0  0  0  0  0  0  0  0  0  0  0  0
   -4.0032   -0.9245  -25.8992 H   0  0  0  0  0  0  0  0  0  0  0  0
   -4.8561    1.4092  -26.1730 H   0  0  0  0  0  0  0  0  0  0  0  0
   -7.1756    1.9479  -25.5039 H   0  0  0  0  0  0  0  0  0  0  0  0
   -9.4200    1.8168  -25.5848 H   0  0  0  0  0  0  0  0  0  0  0  0
   -8.8989    2.1668  -23.9230 H   0  0  0  0  0  0  0  0  0  0  0  0
  -10.4699    1.3361  -24.2094 H   0  0  0  0  0  0  0  0  0  0  0  0
  1  2  1  0
  2  3  1  0
  3  4  2  0
  4  5  1  0
  5  6  2  0
  6  7  1  0
  7  8  2  0
  8  9  1  0
  9 10  1  0
 10 11  1  0
 11 12  1  0
 12 13  1  0
 12 14  1  0
 12 15  1  0
 11 16  1  0
 16 17  1  0
 17 18  1  0
 18 19  1  0
 19 20  2  0
 19 21  1  0
 21 22  1  0
 22 23  2  0
 23 24  1  0
 24 25  2  0
 25 26  1  0
 26 27  2  0
 27 28  1  0
 28 29  2  0
 29 30  1  0
 30 31  2  0
 30 32  1  0
 29 33  1  0
 28 34  1  0
 27 35  1  0
 25 36  1  0
 23 37  1  0
 21 38  1  0
 21 39  1  0
 17 40  1  0
 17 41  1  0
 16 42  1  0
 16 43  1  0
 11 44  1  1
 10 45  1  0
 10 46  1  0
  9 47  1  1
  7 48  1  0
  6 49  1  0
  5 50  1  0
  4 51  1  0
  1 52  1  0
  1 53  1  0
  1 54  1  0
  8  3  1  0
 18  9  1  0
 31 22  1  0
 31 26  1  0
M  END
>  <cnnaffinities>  (80) 
[5.39102, 5.10803]

>  <score>  (80) 
5.39102

>  <index>  (80) 
82

>  <Smiles>  (80) 
C(Oc1c(c(c(c(c1[C@]1(C([C@@](C([H])([H])[H])(C(C(N1C(=O)C(c1c(nc(c2c(c(c(c(c12)[H])[H])[H])[H])[H])[H])([H])[H])([H])[H])([H])[H])[H])([H])[H])[H])[H])[H])[H])[H])([H])([H])[H]

>  <h>  (80) 
<NA>

>  <Training>  (80) 
True

>  <Success>  (80) 
True

>  <enamine_searched>  (80) 
False

>  <enamine_id>  (80) 
nan

$$$$

     RDKit          3D

 46 50  0  0  0  0  0  0  0  0999 V2000
   -3.6222   -1.0698  -25.3525 N   0  0  0  0  0  0  0  0  0  0  0  0
   -4.5233   -2.0093  -26.3679 S   0  0  0  0  0  0  0  0  0  0  0  0
   -4.3113   -3.3692  -25.9118 O   0  0  0  0  0  0  0  0  0  0  0  0
   -4.1944   -1.5688  -27.7094 O   0  0  0  0  0  0  0  0  0  0  0  0
   -6.2274   -1.5846  -26.0854 C   0  0  0  0  0  0  0  0  0  0  0  0
   -6.9760   -0.9871  -27.0992 C   0  0  0  0  0  0  0  0  0  0  0  0
   -8.2861   -0.6287  -26.8446 C   0  0  0  0  0  0  0  0  0  0  0  0
   -8.8398   -0.8497  -25.5795 C   0  0  0  0  0  0  0  0  0  0  0  0
   -8.0959   -1.4545  -24.5659 C   0  0  0  0  0  0  0  0  0  0  0  0
   -6.7783   -1.8140  -24.8330 C   0  0  0  0  0  0  0  0  0  0  0  0
   -6.1783   -2.2869  -24.0595 H   0  0  0  0  0  0  0  0  0  0  0  0
   -8.6917   -1.6762  -23.1872 C   0  0  1  0  0  0  0  0  0  0  0  0
  -10.2233   -1.5925  -23.2494 C   0  0  0  0  0  0  0  0  0  0  0  0
  -10.6614   -0.4089  -24.0952 C   0  0  0  0  0  0  0  0  0  0  0  0
  -10.1328   -0.4882  -25.4170 O   0  0  0  0  0  0  0  0  0  0  0  0
  -10.3560    0.5341  -23.6221 H   0  0  0  0  0  0  0  0  0  0  0  0
  -11.7458   -0.4169  -24.2405 H   0  0  0  0  0  0  0  0  0  0  0  0
  -10.5985   -1.5142  -22.2272 H   0  0  0  0  0  0  0  0  0  0  0  0
  -10.6106   -2.5232  -23.6845 H   0  0  0  0  0  0  0  0  0  0  0  0
   -8.2732   -2.9113  -22.5662 N   0  0  0  0  0  0  0  0  0  0  0  0
   -7.4162   -2.7611  -21.5235 C   0  0  0  0  0  0  0  0  0  0  0  0
   -6.7398   -3.6026  -20.9812 O   0  0  0  0  0  0  0  0  0  0  0  0
   -7.4165   -1.3815  -21.2206 N   0  0  0  0  0  0  0  0  0  0  0  0
   -6.6027   -0.8166  -20.1968 C   0  0  0  0  0  0  0  0  0  0  0  0
   -6.9035   -1.0716  -18.8841 C   0  0  0  0  0  0  0  0  0  0  0  0
   -6.2139   -0.5612  -17.8350 N   0  0  0  0  0  0  0  0  0  0  0  0
   -5.1839    0.2026  -18.0977 C   0  0  0  0  0  0  0  0  0  0  0  0
   -4.7384    0.5261  -19.4071 C   0  0  0  0  0  0  0  0  0  0  0  0
   -3.6044    1.3536  -19.6309 C   0  0  0  0  0  0  0  0  0  0  0  0
   -3.2051    1.6460  -20.9036 C   0  0  0  0  0  0  0  0  0  0  0  0
   -3.9313    1.1312  -21.9999 C   0  0  0  0  0  0  0  0  0  0  0  0
   -5.0185    0.3162  -21.8120 C   0  0  0  0  0  0  0  0  0  0  0  0
   -5.4656    0.0036  -20.4990 C   0  0  0  0  0  0  0  0  0  0  0  0
   -5.5202   -0.1415  -22.6649 H   0  0  0  0  0  0  0  0  0  0  0  0
   -3.5737    1.3095  -23.0091 H   0  0  0  0  0  0  0  0  0  0  0  0
   -2.3226    2.2531  -21.0801 H   0  0  0  0  0  0  0  0  0  0  0  0
   -3.0762    1.7475  -18.7681 H   0  0  0  0  0  0  0  0  0  0  0  0
   -4.6423    0.6066  -17.2445 H   0  0  0  0  0  0  0  0  0  0  0  0
   -7.7535   -1.6973  -18.6232 H   0  0  0  0  0  0  0  0  0  0  0  0
   -8.1125   -0.6514  -22.1869 C   0  0  0  0  0  0  0  0  0  0  0  0
   -8.2220    0.5474  -22.2301 O   0  0  0  0  0  0  0  0  0  0  0  0
   -8.4295   -3.8139  -22.9842 H   0  0  0  0  0  0  0  0  0  0  0  0
   -8.9079   -0.1822  -27.6119 H   0  0  0  0  0  0  0  0  0  0  0  0
   -6.5219   -0.8156  -28.0706 H   0  0  0  0  0  0  0  0  0  0  0  0
   -3.7501   -0.0827  -25.5442 H   0  0  0  0  0  0  0  0  0  0  0  0
   -3.7103   -1.3520  -24.3802 H   0  0  0  0  0  0  0  0  0  0  0  0
  1  2  1  0
  2  3  2  0
  2  4  2  0
  2  5  1  0
  5  6  2  0
  6  7  1  0
  7  8  2  0
  8  9  1  0
  9 10  2  0
 10 11  1  0
  9 12  1  0
 12 13  1  0
 13 14  1  0
 14 15  1  0
 14 16  1  0
 14 17  1  0
 13 18  1  0
 13 19  1  0
 12 20  1  1
 20 21  1  0
 21 22  2  0
 21 23  1  0
 23 24  1  0
 24 25  2  0
 25 26  1  0
 26 27  2  0
 27 28  1  0
 28 29  2  0
 29 30  1  0
 30 31  2  0
 31 32  1  0
 32 33  2  0
 32 34  1  0
 31 35  1  0
 30 36  1  0
 29 37  1  0
 27 38  1  0
 25 39  1  0
 23 40  1  0
 40 41  2  0
 20 42  1  0
  7 43  1  0
  6 44  1  0
  1 45  1  0
  1 46  1  0
 10  5  1  0
 40 12  1  0
 15  8  1  0
 33 24  1  0
 33 28  1  0
M  END
>  <cnnaffinities>  (81) 
[5.34966]

>  <score>  (81) 
5.34966

>  <index>  (81) 
83

>  <Smiles>  (81) 
N(S(=O)(=O)c1c(c(c2c(c1[H])[C@@]1(C(C(O2)([H])[H])([H])[H])N(C(=O)N(c2c(nc(c3c(c(c(c(c23)[H])[H])[H])[H])[H])[H])C1=O)[H])[H])[H])([H])[H]

>  <h>  (81) 
<NA>

>  <Training>  (81) 
True

>  <Success>  (81) 
True

>  <enamine_searched>  (81) 
False

>  <enamine_id>  (81) 
nan

$$$$

     RDKit          3D

 63 68  0  0  0  0  0  0  0  0999 V2000
   -7.9558   -3.4602  -24.1277 C   0  0  0  0  0  0  0  0  0  0  0  0
   -8.3120   -2.7650  -22.8134 C   0  0  1  0  0  0  0  0  0  0  0  0
   -7.0746   -2.5118  -21.9314 C   0  0  0  0  0  0  0  0  0  0  0  0
   -7.4368   -1.3368  -21.1708 N   0  0  0  0  0  0  0  0  0  0  0  0
   -6.6301   -0.7788  -20.1451 C   0  0  0  0  0  0  0  0  0  0  0  0
   -6.9303   -1.0387  -18.8349 C   0  0  0  0  0  0  0  0  0  0  0  0
   -6.2183   -0.5710  -17.7806 N   0  0  0  0  0  0  0  0  0  0  0  0
   -5.1867    0.1983  -18.0387 C   0  0  0  0  0  0  0  0  0  0  0  0
   -4.7633    0.5529  -19.3525 C   0  0  0  0  0  0  0  0  0  0  0  0
   -3.6398    1.3907  -19.5945 C   0  0  0  0  0  0  0  0  0  0  0  0
   -3.2850    1.7300  -20.8731 C   0  0  0  0  0  0  0  0  0  0  0  0
   -4.0390    1.2544  -21.9698 C   0  0  0  0  0  0  0  0  0  0  0  0
   -5.1199    0.4312  -21.7620 C   0  0  0  0  0  0  0  0  0  0  0  0
   -5.5098    0.0560  -20.4479 C   0  0  0  0  0  0  0  0  0  0  0  0
   -5.6891    0.0807  -22.6165 H   0  0  0  0  0  0  0  0  0  0  0  0
   -3.7760    1.5342  -22.9861 H   0  0  0  0  0  0  0  0  0  0  0  0
   -2.4290    2.3744  -21.0551 H   0  0  0  0  0  0  0  0  0  0  0  0
   -3.0831    1.7623  -18.7379 H   0  0  0  0  0  0  0  0  0  0  0  0
   -4.6207    0.5813  -17.1878 H   0  0  0  0  0  0  0  0  0  0  0  0
   -7.7937   -1.6563  -18.5930 H   0  0  0  0  0  0  0  0  0  0  0  0
   -8.4877   -0.6241  -21.7013 C   0  0  0  0  0  0  0  0  0  0  0  0
   -8.8695    0.4438  -21.2682 O   0  0  0  0  0  0  0  0  0  0  0  0
   -9.0518   -1.3920  -22.9192 C   0  0  1  0  0  0  0  0  0  0  0  0
   -8.6735   -0.6435  -24.2231 C   0  0  0  0  0  0  0  0  0  0  0  0
   -9.4314    0.5797  -24.4085 N   0  0  0  0  0  0  0  0  0  0  0  0
   -8.7290    1.7527  -24.8995 C   0  0  0  0  0  0  0  0  0  0  0  0
   -7.6822    2.2254  -23.8832 C   0  0  0  0  0  0  0  0  0  0  0  0
   -6.5073    1.9015  -23.9812 O   0  0  0  0  0  0  0  0  0  0  0  0
   -8.1740    3.0037  -22.8786 N   0  0  0  0  0  0  0  0  0  0  0  0
   -7.3059    3.5491  -21.8565 C   0  0  0  0  0  0  0  0  0  0  0  0
   -6.6014    4.8006  -22.3106 C   0  0  0  0  0  0  0  0  0  0  0  0
   -5.8776    4.6323  -23.4630 F   0  0  0  0  0  0  0  0  0  0  0  0
   -7.2538    6.1346  -22.1476 C   0  0  0  0  0  0  0  0  0  0  0  0
   -6.0401    5.7468  -21.3220 C   0  0  0  0  0  0  0  0  0  0  0  0
   -6.1957    5.5034  -20.2784 H   0  0  0  0  0  0  0  0  0  0  0  0
   -5.0679    6.1793  -21.5371 H   0  0  0  0  0  0  0  0  0  0  0  0
   -7.1323    6.8150  -22.9886 H   0  0  0  0  0  0  0  0  0  0  0  0
   -8.2223    6.1626  -21.6454 H   0  0  0  0  0  0  0  0  0  0  0  0
   -7.9022    3.8340  -20.9854 H   0  0  0  0  0  0  0  0  0  0  0  0
   -6.5952    2.7803  -21.5359 H   0  0  0  0  0  0  0  0  0  0  0  0
   -9.1710    3.0308  -22.7177 H   0  0  0  0  0  0  0  0  0  0  0  0
   -9.4874    2.5185  -25.0893 H   0  0  0  0  0  0  0  0  0  0  0  0
   -8.1980    1.5250  -25.8338 H   0  0  0  0  0  0  0  0  0  0  0  0
  -10.7907    0.6133  -24.2703 C   0  0  0  0  0  0  0  0  0  0  0  0
  -11.4786    1.5265  -24.7024 O   0  0  0  0  0  0  0  0  0  0  0  0
  -11.3822   -0.5303  -23.4981 C   0  0  0  0  0  0  0  0  0  0  0  0
  -12.7739   -0.5802  -23.4018 C   0  0  0  0  0  0  0  0  0  0  0  0
  -13.3871   -1.5058  -22.5849 C   0  0  0  0  0  0  0  0  0  0  0  0
  -12.5709   -2.3651  -21.8588 C   0  0  0  0  0  0  0  0  0  0  0  0
  -13.1546   -3.2063  -20.9920 F   0  0  0  0  0  0  0  0  0  0  0  0
  -11.1946   -2.3659  -21.9644 C   0  0  0  0  0  0  0  0  0  0  0  0
  -10.5694   -1.4578  -22.8274 C   0  0  0  0  0  0  0  0  0  0  0  0
  -10.6328   -3.0604  -21.3479 H   0  0  0  0  0  0  0  0  0  0  0  0
  -14.4637   -1.5555  -22.4625 H   0  0  0  0  0  0  0  0  0  0  0  0
  -13.3493    0.1472  -23.9633 H   0  0  0  0  0  0  0  0  0  0  0  0
   -7.6139   -0.3745  -24.1968 H   0  0  0  0  0  0  0  0  0  0  0  0
   -8.8469   -1.3016  -25.0834 H   0  0  0  0  0  0  0  0  0  0  0  0
   -6.8582   -3.3500  -21.2601 H   0  0  0  0  0  0  0  0  0  0  0  0
   -6.1737   -2.3348  -22.5411 H   0  0  0  0  0  0  0  0  0  0  0  0
   -8.9736   -3.4292  -22.2554 H   0  0  0  0  0  0  0  0  0  0  0  0
   -7.2274   -2.8730  -24.6990 H   0  0  0  0  0  0  0  0  0  0  0  0
   -7.5047   -4.4410  -23.9445 H   0  0  0  0  0  0  0  0  0  0  0  0
   -8.8348   -3.6125  -24.7632 H   0  0  0  0  0  0  0  0  0  0  0  0
  1  2  1  0
  2  3  1  0
  3  4  1  0
  4  5  1  0
  5  6  2  0
  6  7  1  0
  7  8  2  0
  8  9  1  0
  9 10  2  0
 10 11  1  0
 11 12  2  0
 12 13  1  0
 13 14  2  0
 13 15  1  0
 12 16  1  0
 11 17  1  0
 10 18  1  0
  8 19  1  0
  6 20  1  0
  4 21  1  0
 21 22  2  0
 21 23  1  0
 23 24  1  6
 24 25  1  0
 25 26  1  0
 26 27  1  0
 27 28  2  0
 27 29  1  0
 29 30  1  0
 30 31  1  0
 31 32  1  0
 31 33  1  0
 33 34  1  0
 34 35  1  0
 34 36  1  0
 33 37  1  0
 33 38  1  0
 30 39  1  0
 30 40  1  0
 29 41  1  0
 26 42  1  0
 26 43  1  0
 25 44  1  0
 44 45  2  0
 44 46  1  0
 46 47  2  0
 47 48  1  0
 48 49  2  0
 49 50  1  0
 49 51  1  0
 51 52  2  0
 51 53  1  0
 48 54  1  0
 47 55  1  0
 24 56  1  0
 24 57  1  0
  3 58  1  0
  3 59  1  0
  2 60  1  1
  1 61  1  0
  1 62  1  0
  1 63  1  0
 23  2  1  0
 34 31  1  0
 52 46  1  0
 14  5  1  0
 52 23  1  0
 14  9  1  0
M  END
>  <cnnaffinities>  (82) 
[6.40524]

>  <score>  (82) 
6.40524

>  <index>  (82) 
84

>  <Smiles>  (82) 
C([C@]1(C(N(c2c(nc(c3c(c(c(c(c23)[H])[H])[H])[H])[H])[H])C(=O)[C@]21C(N(C(C(=O)N(C(C1(F)C(C1([H])[H])([H])[H])([H])[H])[H])([H])[H])C(=O)c1c(c(c(F)c(c21)[H])[H])[H])([H])[H])([H])[H])[H])([H])([H])[H]

>  <h>  (82) 
<NA>

>  <Training>  (82) 
True

>  <Success>  (82) 
True

>  <enamine_searched>  (82) 
False

>  <enamine_id>  (82) 
nan

$$$$

     RDKit          3D

 57 62  0  0  0  0  0  0  0  0999 V2000
   -6.4303    3.5319  -22.9183 C   0  0  0  0  0  0  0  0  0  0  0  0
   -6.8060    2.5000  -23.8657 N   0  0  0  0  0  0  0  0  0  0  0  0
   -8.0926    2.5371  -24.3083 C   0  0  0  0  0  0  0  0  0  0  0  0
   -8.8386    3.4596  -24.0353 O   0  0  0  0  0  0  0  0  0  0  0  0
   -8.5352    1.4279  -25.2563 C   0  0  0  0  0  0  0  0  0  0  0  0
   -9.3033    0.3622  -24.6384 N   0  0  0  0  0  0  0  0  0  0  0  0
   -8.7498   -0.9760  -24.4569 C   0  0  0  0  0  0  0  0  0  0  0  0
   -8.9961   -1.4798  -23.0082 C   0  0  2  0  0  0  0  0  0  0  0  0
   -8.2505   -0.5486  -22.0141 C   0  0  0  0  0  0  0  0  0  0  0  0
   -8.3861    0.6505  -21.8769 O   0  0  0  0  0  0  0  0  0  0  0  0
   -7.3668   -1.3127  -21.2782 N   0  0  0  0  0  0  0  0  0  0  0  0
   -6.6078   -0.7669  -20.2189 C   0  0  0  0  0  0  0  0  0  0  0  0
   -6.9012   -1.0775  -18.9165 C   0  0  0  0  0  0  0  0  0  0  0  0
   -6.2272   -0.5957  -17.8457 N   0  0  0  0  0  0  0  0  0  0  0  0
   -5.2091    0.1971  -18.0877 C   0  0  0  0  0  0  0  0  0  0  0  0
   -4.7811    0.5779  -19.3912 C   0  0  0  0  0  0  0  0  0  0  0  0
   -3.6473    1.4067  -19.6013 C   0  0  0  0  0  0  0  0  0  0  0  0
   -3.2533    1.7347  -20.8707 C   0  0  0  0  0  0  0  0  0  0  0  0
   -3.9664    1.2456  -21.9867 C   0  0  0  0  0  0  0  0  0  0  0  0
   -5.0530    0.4225  -21.8083 C   0  0  0  0  0  0  0  0  0  0  0  0
   -5.5019    0.0875  -20.5022 C   0  0  0  0  0  0  0  0  0  0  0  0
   -5.5396   -0.0234  -22.6687 H   0  0  0  0  0  0  0  0  0  0  0  0
   -3.6384    1.5156  -22.9879 H   0  0  0  0  0  0  0  0  0  0  0  0
   -2.3791    2.3574  -21.0276 H   0  0  0  0  0  0  0  0  0  0  0  0
   -3.1016    1.7615  -18.7323 H   0  0  0  0  0  0  0  0  0  0  0  0
   -4.6637    0.5776  -17.2251 H   0  0  0  0  0  0  0  0  0  0  0  0
   -7.7420   -1.7321  -18.6914 H   0  0  0  0  0  0  0  0  0  0  0  0
   -7.4952   -2.7372  -21.4728 C   0  0  0  0  0  0  0  0  0  0  0  0
   -8.3610   -2.8568  -22.7184 C   0  0  0  0  0  0  0  0  0  0  0  0
   -7.9022   -3.7856  -23.8149 C   0  0  0  0  0  0  0  0  0  0  0  0
   -9.0961   -4.1386  -22.9849 C   0  0  0  0  0  0  0  0  0  0  0  0
  -10.0719   -4.0432  -23.4502 H   0  0  0  0  0  0  0  0  0  0  0  0
   -9.0175   -4.9381  -22.2469 H   0  0  0  0  0  0  0  0  0  0  0  0
   -8.0704   -3.4954  -24.8480 H   0  0  0  0  0  0  0  0  0  0  0  0
   -6.9919   -4.3568  -23.6526 H   0  0  0  0  0  0  0  0  0  0  0  0
   -6.5104   -3.2083  -21.5954 H   0  0  0  0  0  0  0  0  0  0  0  0
   -8.0012   -3.1955  -20.6192 H   0  0  0  0  0  0  0  0  0  0  0  0
  -10.5075   -1.3919  -22.7892 C   0  0  0  0  0  0  0  0  0  0  0  0
  -11.1870   -2.2711  -21.9416 C   0  0  0  0  0  0  0  0  0  0  0  0
  -12.5508   -2.1570  -21.7643 C   0  0  0  0  0  0  0  0  0  0  0  0
  -13.3398   -3.2268  -20.6542 Cl  0  0  0  0  0  0  0  0  0  0  0  0
  -13.2976   -1.1577  -22.3779 C   0  0  0  0  0  0  0  0  0  0  0  0
  -12.6319   -0.2547  -23.1817 C   0  0  0  0  0  0  0  0  0  0  0  0
  -11.2582   -0.3742  -23.3950 C   0  0  0  0  0  0  0  0  0  0  0  0
  -10.6229    0.6017  -24.3442 C   0  0  0  0  0  0  0  0  0  0  0  0
  -11.2695    1.5168  -24.8302 O   0  0  0  0  0  0  0  0  0  0  0  0
  -13.1393    0.5807  -23.6534 H   0  0  0  0  0  0  0  0  0  0  0  0
  -14.3695   -1.0980  -22.2224 H   0  0  0  0  0  0  0  0  0  0  0  0
  -10.6770   -3.0679  -21.4198 H   0  0  0  0  0  0  0  0  0  0  0  0
   -7.6744   -0.9565  -24.6533 H   0  0  0  0  0  0  0  0  0  0  0  0
   -9.2322   -1.6788  -25.1592 H   0  0  0  0  0  0  0  0  0  0  0  0
   -7.6888    0.9880  -25.7947 H   0  0  0  0  0  0  0  0  0  0  0  0
   -9.1997    1.9624  -25.9311 H   0  0  0  0  0  0  0  0  0  0  0  0
   -6.3464    1.6028  -23.8127 H   0  0  0  0  0  0  0  0  0  0  0  0
   -5.4191    3.3533  -22.5539 H   0  0  0  0  0  0  0  0  0  0  0  0
   -7.1347    3.5347  -22.0814 H   0  0  0  0  0  0  0  0  0  0  0  0
   -6.4825    4.5084  -23.4096 H   0  0  0  0  0  0  0  0  0  0  0  0
  1  2  1  0
  2  3  1  0
  3  4  2  0
  3  5  1  0
  5  6  1  0
  6  7  1  0
  8  7  1  6
  8  9  1  0
  9 10  2  0
  9 11  1  0
 11 12  1  0
 12 13  2  0
 13 14  1  0
 14 15  2  0
 15 16  1  0
 16 17  2  0
 17 18  1  0
 18 19  2  0
 19 20  1  0
 20 21  2  0
 20 22  1  0
 19 23  1  0
 18 24  1  0
 17 25  1  0
 15 26  1  0
 13 27  1  0
 11 28  1  0
 28 29  1  0
 29 30  1  0
 30 31  1  0
 31 32  1  0
 31 33  1  0
 30 34  1  0
 30 35  1  0
 28 36  1  0
 28 37  1  0
  8 38  1  0
 38 39  2  0
 39 40  1  0
 40 41  1  0
 40 42  2  0
 42 43  1  0
 43 44  2  0
 44 45  1  0
 45 46  2  0
 43 47  1  0
 42 48  1  0
 39 49  1  0
  7 50  1  0
  7 51  1  0
  5 52  1  0
  5 53  1  0
  2 54  1  0
  1 55  1  0
  1 56  1  0
  1 57  1  0
 45  6  1  0
 29  8  1  0
 44 38  1  0
 21 12  1  0
 31 29  1  0
 21 16  1  0
M  END
>  <cnnaffinities>  (83) 
[6.01391, 5.5613]

>  <score>  (83) 
6.01391

>  <index>  (83) 
85

>  <Smiles>  (83) 
C(N(C(=O)C(N1C([C@@]2(C(=O)N(c3c(nc(c4c(c(c(c(c34)[H])[H])[H])[H])[H])[H])C(C32C(C3([H])[H])([H])[H])([H])[H])c2c(c(Cl)c(c(c2C1=O)[H])[H])[H])([H])[H])([H])[H])[H])([H])([H])[H]

>  <h>  (83) 
<NA>

>  <Training>  (83) 
True

>  <Success>  (83) 
True

>  <enamine_searched>  (83) 
False

>  <enamine_id>  (83) 
nan

$$$$

     RDKit          3D

 43 45  0  0  0  0  0  0  0  0999 V2000
  -10.5309   -6.0792  -24.0045 C   0  0  0  0  0  0  0  0  0  0  0  0
   -9.6028   -5.0780  -23.3223 C   0  0  1  0  0  0  0  0  0  0  0  0
   -8.3414   -5.7805  -22.7828 C   0  0  0  0  0  0  0  0  0  0  0  0
   -7.0934   -4.8959  -22.8897 C   0  0  0  0  0  0  0  0  0  0  0  0
   -7.4183   -3.4913  -22.6816 N   0  0  0  0  0  0  0  0  0  0  0  0
   -6.6930   -2.7778  -21.7685 C   0  0  0  0  0  0  0  0  0  0  0  0
   -5.6208   -3.1643  -21.3293 O   0  0  0  0  0  0  0  0  0  0  0  0
   -7.3591   -1.4949  -21.2665 C   0  0  0  0  0  0  0  0  0  0  0  0
   -6.5862   -0.8192  -20.1794 C   0  0  0  0  0  0  0  0  0  0  0  0
   -6.8857   -1.0653  -18.8682 C   0  0  0  0  0  0  0  0  0  0  0  0
   -6.2078   -0.5781  -17.7961 N   0  0  0  0  0  0  0  0  0  0  0  0
   -5.1833    0.2037  -18.0568 C   0  0  0  0  0  0  0  0  0  0  0  0
   -4.7550    0.5445  -19.3681 C   0  0  0  0  0  0  0  0  0  0  0  0
   -3.6255    1.3762  -19.5967 C   0  0  0  0  0  0  0  0  0  0  0  0
   -3.2412    1.6851  -20.8755 C   0  0  0  0  0  0  0  0  0  0  0  0
   -3.9732    1.1932  -21.9772 C   0  0  0  0  0  0  0  0  0  0  0  0
   -5.0530    0.3637  -21.7813 C   0  0  0  0  0  0  0  0  0  0  0  0
   -5.4733    0.0237  -20.4667 C   0  0  0  0  0  0  0  0  0  0  0  0
   -5.5712   -0.0584  -22.6370 H   0  0  0  0  0  0  0  0  0  0  0  0
   -3.6604    1.4395  -22.9908 H   0  0  0  0  0  0  0  0  0  0  0  0
   -2.3674    2.3079  -21.0520 H   0  0  0  0  0  0  0  0  0  0  0  0
   -3.0739    1.7433  -18.7348 H   0  0  0  0  0  0  0  0  0  0  0  0
   -4.6317    0.6076  -17.2071 H   0  0  0  0  0  0  0  0  0  0  0  0
   -7.7384   -1.7026  -18.6229 H   0  0  0  0  0  0  0  0  0  0  0  0
   -8.3438   -1.7908  -20.8815 H   0  0  0  0  0  0  0  0  0  0  0  0
   -7.5401   -0.8334  -22.1205 H   0  0  0  0  0  0  0  0  0  0  0  0
   -8.3689   -2.8785  -23.6083 C   0  0  1  0  0  0  0  0  0  0  0  0
   -7.7425   -2.0411  -24.7319 C   0  0  0  0  0  0  0  0  0  0  0  0
   -7.0770   -2.6493  -25.3572 H   0  0  0  0  0  0  0  0  0  0  0  0
   -8.5604   -1.6853  -25.3690 H   0  0  0  0  0  0  0  0  0  0  0  0
   -7.1687   -1.1691  -24.4085 H   0  0  0  0  0  0  0  0  0  0  0  0
   -9.1958   -3.9692  -24.2763 C   0  0  0  0  0  0  0  0  0  0  0  0
   -8.6295   -4.3941  -25.1124 H   0  0  0  0  0  0  0  0  0  0  0  0
  -10.0390   -3.4780  -24.7520 H   0  0  0  0  0  0  0  0  0  0  0  0
   -9.0516   -2.2421  -23.0256 H   0  0  0  0  0  0  0  0  0  0  0  0
   -6.3208   -5.1582  -22.1659 H   0  0  0  0  0  0  0  0  0  0  0  0
   -6.6609   -5.0025  -23.8896 H   0  0  0  0  0  0  0  0  0  0  0  0
   -8.1586   -6.7017  -23.3518 H   0  0  0  0  0  0  0  0  0  0  0  0
   -8.5264   -6.0918  -21.7507 H   0  0  0  0  0  0  0  0  0  0  0  0
  -10.1439   -4.6174  -22.4859 H   0  0  0  0  0  0  0  0  0  0  0  0
  -11.5242   -5.6532  -24.1728 H   0  0  0  0  0  0  0  0  0  0  0  0
  -10.1280   -6.3673  -24.9824 H   0  0  0  0  0  0  0  0  0  0  0  0
  -10.6502   -6.9927  -23.4165 H   0  0  0  0  0  0  0  0  0  0  0  0
  1  2  1  0
  2  3  1  0
  3  4  1  0
  4  5  1  0
  5  6  1  0
  6  7  2  0
  6  8  1  0
  8  9  1  0
  9 10  2  0
 10 11  1  0
 11 12  2  0
 12 13  1  0
 13 14  2  0
 14 15  1  0
 15 16  2  0
 16 17  1  0
 17 18  2  0
 17 19  1  0
 16 20  1  0
 15 21  1  0
 14 22  1  0
 12 23  1  0
 10 24  1  0
  8 25  1  0
  8 26  1  0
  5 27  1  0
 27 28  1  0
 28 29  1  0
 28 30  1  0
 28 31  1  0
 27 32  1  0
 32 33  1  0
 32 34  1  0
 27 35  1  1
  4 36  1  0
  4 37  1  0
  3 38  1  0
  3 39  1  0
  2 40  1  1
  1 41  1  0
  1 42  1  0
  1 43  1  0
 32  2  1  0
 18  9  1  0
 18 13  1  0
M  END
>  <cnnaffinities>  (84) 
[4.55253, 5.1208, 4.97927, 4.7987, 4.81265]

>  <score>  (84) 
4.55253

>  <index>  (84) 
86

>  <Smiles>  (84) 
C([C@]1(C(C(N(C(=O)C(c2c(nc(c3c(c(c(c(c23)[H])[H])[H])[H])[H])[H])([H])[H])[C@@](C([H])([H])[H])(C1([H])[H])[H])([H])[H])([H])[H])[H])([H])([H])[H]

>  <h>  (84) 
<NA>

>  <Training>  (84) 
True

>  <Success>  (84) 
True

>  <enamine_searched>  (84) 
False

>  <enamine_id>  (84) 
nan

$$$$

     RDKit          3D

 59 64  0  0  0  0  0  0  0  0999 V2000
   -8.2668   -4.0822  -23.6821 C   0  0  0  0  0  0  0  0  0  0  0  0
   -8.4811   -3.1284  -22.5066 C   0  0  1  0  0  0  0  0  0  0  0  0
   -7.1517   -2.4887  -22.0596 C   0  0  0  0  0  0  0  0  0  0  0  0
   -7.5733   -1.3170  -21.3181 N   0  0  0  0  0  0  0  0  0  0  0  0
   -6.8330   -0.7558  -20.2492 C   0  0  0  0  0  0  0  0  0  0  0  0
   -7.1349   -1.0849  -18.9515 C   0  0  0  0  0  0  0  0  0  0  0  0
   -6.4104   -0.6921  -17.8749 N   0  0  0  0  0  0  0  0  0  0  0  0
   -5.3685    0.0755  -18.0779 C   0  0  0  0  0  0  0  0  0  0  0  0
   -4.9515    0.5098  -19.3665 C   0  0  0  0  0  0  0  0  0  0  0  0
   -3.8251    1.3570  -19.5454 C   0  0  0  0  0  0  0  0  0  0  0  0
   -3.4603    1.7647  -20.7991 C   0  0  0  0  0  0  0  0  0  0  0  0
   -4.1915    1.3314  -21.9282 C   0  0  0  0  0  0  0  0  0  0  0  0
   -5.2810    0.5067  -21.7804 C   0  0  0  0  0  0  0  0  0  0  0  0
   -5.6959    0.0804  -20.4924 C   0  0  0  0  0  0  0  0  0  0  0  0
   -5.8274    0.1574  -22.6515 H   0  0  0  0  0  0  0  0  0  0  0  0
   -3.8687    1.6338  -22.9214 H   0  0  0  0  0  0  0  0  0  0  0  0
   -2.6058    2.4209  -20.9359 H   0  0  0  0  0  0  0  0  0  0  0  0
   -3.2732    1.6813  -18.6664 H   0  0  0  0  0  0  0  0  0  0  0  0
   -4.7917    0.3875  -17.2026 H   0  0  0  0  0  0  0  0  0  0  0  0
   -7.9907   -1.7188  -18.7301 H   0  0  0  0  0  0  0  0  0  0  0  0
   -8.8751   -0.9625  -21.5786 C   0  0  0  0  0  0  0  0  0  0  0  0
   -9.4725   -0.0616  -21.0236 O   0  0  0  0  0  0  0  0  0  0  0  0
   -9.4235   -1.8963  -22.6967 C   0  0  1  0  0  0  0  0  0  0  0  0
   -9.1952   -1.2395  -24.0761 C   0  0  0  0  0  0  0  0  0  0  0  0
  -10.0394   -0.0804  -24.2710 N   0  0  0  0  0  0  0  0  0  0  0  0
   -9.4780    1.0590  -24.9597 C   0  0  0  0  0  0  0  0  0  0  0  0
   -8.6491    1.9276  -24.0615 C   0  0  0  0  0  0  0  0  0  0  0  0
   -8.9897    2.6106  -22.9151 C   0  0  0  0  0  0  0  0  0  0  0  0
   -7.8411    3.3710  -22.5952 C   0  0  0  0  0  0  0  0  0  0  0  0
   -6.8683    3.1591  -23.4750 N   0  0  0  0  0  0  0  0  0  0  0  0
   -7.3702    2.2730  -24.3501 N   0  0  0  0  0  0  0  0  0  0  0  0
   -6.5120    1.6396  -25.3300 C   0  0  0  0  0  0  0  0  0  0  0  0
   -5.4814    1.8932  -25.0823 H   0  0  0  0  0  0  0  0  0  0  0  0
   -6.6293    0.5497  -25.2800 H   0  0  0  0  0  0  0  0  0  0  0  0
   -6.7524    1.9844  -26.3418 H   0  0  0  0  0  0  0  0  0  0  0  0
   -7.6675    4.0439  -21.7583 H   0  0  0  0  0  0  0  0  0  0  0  0
   -9.9183    2.5200  -22.3656 H   0  0  0  0  0  0  0  0  0  0  0  0
  -10.3390    1.6242  -25.3194 H   0  0  0  0  0  0  0  0  0  0  0  0
   -8.9042    0.7128  -25.8313 H   0  0  0  0  0  0  0  0  0  0  0  0
  -11.3826   -0.1261  -24.0432 C   0  0  0  0  0  0  0  0  0  0  0  0
  -12.1724    0.6713  -24.5390 O   0  0  0  0  0  0  0  0  0  0  0  0
  -11.8293   -1.1670  -23.0741 C   0  0  0  0  0  0  0  0  0  0  0  0
  -13.1555   -1.0853  -22.6446 C   0  0  0  0  0  0  0  0  0  0  0  0
  -13.6283   -1.9308  -21.6685 C   0  0  0  0  0  0  0  0  0  0  0  0
  -12.7441   -2.8874  -21.1850 C   0  0  0  0  0  0  0  0  0  0  0  0
  -13.1686   -3.6361  -20.1573 F   0  0  0  0  0  0  0  0  0  0  0  0
  -11.4404   -3.0342  -21.6310 C   0  0  0  0  0  0  0  0  0  0  0  0
  -10.9208   -2.0840  -22.5149 C   0  0  0  0  0  0  0  0  0  0  0  0
  -10.8304   -3.8375  -21.2226 H   0  0  0  0  0  0  0  0  0  0  0  0
  -14.6309   -1.8512  -21.2489 H   0  0  0  0  0  0  0  0  0  0  0  0
  -13.7807   -0.3179  -23.0849 H   0  0  0  0  0  0  0  0  0  0  0  0
   -9.3811   -1.9852  -24.8605 H   0  0  0  0  0  0  0  0  0  0  0  0
   -8.1570   -0.9141  -24.1730 H   0  0  0  0  0  0  0  0  0  0  0  0
   -6.5379   -3.1384  -21.4296 H   0  0  0  0  0  0  0  0  0  0  0  0
   -6.5497   -2.2071  -22.9398 H   0  0  0  0  0  0  0  0  0  0  0  0
   -8.8612   -3.7017  -21.6524 H   0  0  0  0  0  0  0  0  0  0  0  0
   -7.8052   -3.5637  -24.5321 H   0  0  0  0  0  0  0  0  0  0  0  0
   -9.2007   -4.5360  -24.0285 H   0  0  0  0  0  0  0  0  0  0  0  0
   -7.5840   -4.8918  -23.3920 H   0  0  0  0  0  0  0  0  0  0  0  0
  1  2  1  0
  2  3  1  0
  3  4  1  0
  4  5  1  0
  5  6  2  0
  6  7  1  0
  7  8  2  0
  8  9  1  0
  9 10  2  0
 10 11  1  0
 11 12  2  0
 12 13  1  0
 13 14  2  0
 13 15  1  0
 12 16  1  0
 11 17  1  0
 10 18  1  0
  8 19  1  0
  6 20  1  0
  4 21  1  0
 21 22  2  0
 21 23  1  0
 23 24  1  6
 24 25  1  0
 25 26  1  0
 26 27  1  0
 27 28  2  0
 28 29  1  0
 29 30  2  0
 30 31  1  0
 31 32  1  0
 32 33  1  0
 32 34  1  0
 32 35  1  0
 29 36  1  0
 28 37  1  0
 26 38  1  0
 26 39  1  0
 25 40  1  0
 40 41  2  0
 40 42  1  0
 42 43  2  0
 43 44  1  0
 44 45  2  0
 45 46  1  0
 45 47  1  0
 47 48  2  0
 47 49  1  0
 44 50  1  0
 43 51  1  0
 24 52  1  0
 24 53  1  0
  3 54  1  0
  3 55  1  0
  2 56  1  1
  1 57  1  0
  1 58  1  0
  1 59  1  0
 23  2  1  0
 31 27  1  0
 48 42  1  0
 14  5  1  0
 48 23  1  0
 14  9  1  0
M  END
>  <cnnaffinities>  (85) 
[6.57612, 6.46721]

>  <score>  (85) 
6.57612

>  <index>  (85) 
87

>  <Smiles>  (85) 
C([C@]1(C(N(c2c(nc(c3c(c(c(c(c23)[H])[H])[H])[H])[H])[H])C(=O)[C@]21C(N(C(c1c(c(nn1C([H])([H])[H])[H])[H])([H])[H])C(=O)c1c(c(c(F)c(c21)[H])[H])[H])([H])[H])([H])[H])[H])([H])([H])[H]

>  <h>  (85) 
<NA>

>  <Training>  (85) 
True

>  <Success>  (85) 
True

>  <enamine_searched>  (85) 
False

>  <enamine_id>  (85) 
nan

$$$$

     RDKit          3D

 40 42  0  0  0  0  0  0  0  0999 V2000
   -5.5065   -2.9807  -21.3312 O   0  0  0  0  0  0  0  0  0  0  0  0
   -6.6726   -2.7721  -21.6384 C   0  0  0  0  0  0  0  0  0  0  0  0
   -7.3847   -1.4796  -21.2380 C   0  0  0  0  0  0  0  0  0  0  0  0
   -6.6250   -0.7915  -20.1568 C   0  0  0  0  0  0  0  0  0  0  0  0
   -6.9138   -1.0706  -18.8487 C   0  0  0  0  0  0  0  0  0  0  0  0
   -6.2375   -0.5863  -17.7779 N   0  0  0  0  0  0  0  0  0  0  0  0
   -5.2103    0.1877  -18.0345 C   0  0  0  0  0  0  0  0  0  0  0  0
   -4.7749    0.5363  -19.3427 C   0  0  0  0  0  0  0  0  0  0  0  0
   -3.6555    1.3771  -19.5715 C   0  0  0  0  0  0  0  0  0  0  0  0
   -3.3001    1.7281  -20.8447 C   0  0  0  0  0  0  0  0  0  0  0  0
   -4.0424    1.2512  -21.9480 C   0  0  0  0  0  0  0  0  0  0  0  0
   -5.1118    0.4110  -21.7563 C   0  0  0  0  0  0  0  0  0  0  0  0
   -5.5116    0.0442  -20.4443 C   0  0  0  0  0  0  0  0  0  0  0  0
   -5.6343    0.0021  -22.6163 H   0  0  0  0  0  0  0  0  0  0  0  0
   -3.7507    1.5347  -22.9549 H   0  0  0  0  0  0  0  0  0  0  0  0
   -2.4506    2.3835  -21.0166 H   0  0  0  0  0  0  0  0  0  0  0  0
   -3.1065    1.7520  -18.7109 H   0  0  0  0  0  0  0  0  0  0  0  0
   -4.6661    0.5797  -17.1746 H   0  0  0  0  0  0  0  0  0  0  0  0
   -7.7412   -1.7420  -18.6170 H   0  0  0  0  0  0  0  0  0  0  0  0
   -8.3906   -1.7255  -20.8752 H   0  0  0  0  0  0  0  0  0  0  0  0
   -7.5057   -0.8409  -22.1214 H   0  0  0  0  0  0  0  0  0  0  0  0
   -7.4068   -3.6816  -22.3344 N   0  0  0  0  0  0  0  0  0  0  0  0
   -6.8220   -5.0073  -22.5041 C   0  0  0  0  0  0  0  0  0  0  0  0
   -7.9514   -5.9969  -22.6935 C   0  0  0  0  0  0  0  0  0  0  0  0
   -8.7262   -5.7082  -23.9921 C   0  0  0  0  0  0  0  0  0  0  0  0
  -10.0279   -6.4813  -23.9818 C   0  0  0  0  0  0  0  0  0  0  0  0
   -9.8368   -7.7786  -23.6129 F   0  0  0  0  0  0  0  0  0  0  0  0
  -10.8375   -5.9010  -23.0450 F   0  0  0  0  0  0  0  0  0  0  0  0
  -10.5798   -6.4904  -24.9299 H   0  0  0  0  0  0  0  0  0  0  0  0
   -8.9990   -4.1947  -24.1427 C   0  0  0  0  0  0  0  0  0  0  0  0
   -8.7739   -3.4699  -22.8135 C   0  0  0  0  0  0  0  0  0  0  0  0
   -8.9622   -2.4010  -22.9324 H   0  0  0  0  0  0  0  0  0  0  0  0
   -9.5094   -3.8272  -22.0792 H   0  0  0  0  0  0  0  0  0  0  0  0
   -8.3458   -3.7630  -24.9127 H   0  0  0  0  0  0  0  0  0  0  0  0
  -10.0342   -4.0290  -24.4627 H   0  0  0  0  0  0  0  0  0  0  0  0
   -8.1532   -6.0520  -24.8620 H   0  0  0  0  0  0  0  0  0  0  0  0
   -8.6027   -5.8868  -21.8140 H   0  0  0  0  0  0  0  0  0  0  0  0
   -7.5846   -7.0245  -22.7031 H   0  0  0  0  0  0  0  0  0  0  0  0
   -6.2557   -5.2561  -21.6048 H   0  0  0  0  0  0  0  0  0  0  0  0
   -6.0918   -5.0021  -23.3242 H   0  0  0  0  0  0  0  0  0  0  0  0
  1  2  2  0
  2  3  1  0
  3  4  1  0
  4  5  2  0
  5  6  1  0
  6  7  2  0
  7  8  1  0
  8  9  2  0
  9 10  1  0
 10 11  2  0
 11 12  1  0
 12 13  2  0
 12 14  1  0
 11 15  1  0
 10 16  1  0
  9 17  1  0
  7 18  1  0
  5 19  1  0
  3 20  1  0
  3 21  1  0
  2 22  1  0
 22 23  1  0
 23 24  1  0
 24 25  1  0
 25 26  1  0
 26 27  1  0
 26 28  1  0
 26 29  1  0
 25 30  1  0
 30 31  1  0
 31 32  1  0
 31 33  1  0
 30 34  1  0
 30 35  1  0
 25 36  1  0
 24 37  1  0
 24 38  1  0
 23 39  1  0
 23 40  1  0
 13  4  1  0
 31 22  1  0
 13  8  1  0
M  END
>  <cnnaffinities>  (86) 
[4.20067, 4.22308, 4.22489, 4.80023, 4.79677, 4.60423, 4.385, 4.96537, 4.55238, 4.55157]

>  <score>  (86) 
4.20067

>  <index>  (86) 
88

>  <Smiles>  (86) 
O=C(C(c1c(nc(c2c(c(c(c(c12)[H])[H])[H])[H])[H])[H])([H])[H])N1C(C(C(C(F)(F)[H])(C(C1([H])[H])([H])[H])[H])([H])[H])([H])[H]

>  <h>  (86) 
<NA>

>  <Training>  (86) 
True

>  <Success>  (86) 
True

>  <enamine_searched>  (86) 
False

>  <enamine_id>  (86) 
nan

$$$$

     RDKit          3D

 43 45  0  0  0  0  0  0  0  0999 V2000
   -6.1707   -4.4176  -27.1881 C   0  0  0  0  0  0  0  0  0  0  0  0
   -6.0043   -3.3826  -26.0696 C   0  0  0  0  0  0  0  0  0  0  0  0
   -5.3449   -2.1323  -26.6649 C   0  0  0  0  0  0  0  0  0  0  0  0
   -4.3651   -2.3749  -27.0893 H   0  0  0  0  0  0  0  0  0  0  0  0
   -5.9593   -1.7188  -27.4716 H   0  0  0  0  0  0  0  0  0  0  0  0
   -5.1942   -1.3360  -25.9319 H   0  0  0  0  0  0  0  0  0  0  0  0
   -5.1432   -3.9823  -24.9517 C   0  0  0  0  0  0  0  0  0  0  0  0
   -5.0886   -3.1172  -23.7003 C   0  0  0  0  0  0  0  0  0  0  0  0
   -6.4213   -2.7550  -23.2318 N   0  0  0  0  0  0  0  0  0  0  0  0
   -6.6298   -2.6883  -21.8591 C   0  0  0  0  0  0  0  0  0  0  0  0
   -6.1989   -3.5431  -21.1115 O   0  0  0  0  0  0  0  0  0  0  0  0
   -7.3880   -1.4735  -21.2782 C   0  0  0  0  0  0  0  0  0  0  0  0
   -6.5811   -0.8197  -20.1756 C   0  0  0  0  0  0  0  0  0  0  0  0
   -6.8731   -1.0466  -18.8566 C   0  0  0  0  0  0  0  0  0  0  0  0
   -6.1860   -0.5449  -17.7945 N   0  0  0  0  0  0  0  0  0  0  0  0
   -5.1568    0.2219  -18.0625 C   0  0  0  0  0  0  0  0  0  0  0  0
   -4.7228    0.5373  -19.3776 C   0  0  0  0  0  0  0  0  0  0  0  0
   -3.5920    1.3596  -19.6168 C   0  0  0  0  0  0  0  0  0  0  0  0
   -3.2015    1.6555  -20.8945 C   0  0  0  0  0  0  0  0  0  0  0  0
   -3.9433    1.1512  -21.9848 C   0  0  0  0  0  0  0  0  0  0  0  0
   -5.0322    0.3373  -21.7814 C   0  0  0  0  0  0  0  0  0  0  0  0
   -5.4545    0.0074  -20.4684 C   0  0  0  0  0  0  0  0  0  0  0  0
   -5.5403   -0.0964  -22.6397 H   0  0  0  0  0  0  0  0  0  0  0  0
   -3.5980    1.3376  -22.9966 H   0  0  0  0  0  0  0  0  0  0  0  0
   -2.3266    2.2723  -21.0831 H   0  0  0  0  0  0  0  0  0  0  0  0
   -3.0529    1.7656  -18.7647 H   0  0  0  0  0  0  0  0  0  0  0  0
   -4.6040    0.6280  -17.2135 H   0  0  0  0  0  0  0  0  0  0  0  0
   -7.7213   -1.6715  -18.5824 H   0  0  0  0  0  0  0  0  0  0  0  0
   -8.3238   -1.8511  -20.8485 H   0  0  0  0  0  0  0  0  0  0  0  0
   -7.6513   -0.7410  -22.0521 H   0  0  0  0  0  0  0  0  0  0  0  0
   -7.3106   -2.1747  -24.2198 C   0  0  0  0  0  0  0  0  0  0  0  0
   -7.3768   -3.0469  -25.4773 C   0  0  0  0  0  0  0  0  0  0  0  0
   -7.9866   -2.5461  -26.2343 H   0  0  0  0  0  0  0  0  0  0  0  0
   -7.8970   -3.9803  -25.2367 H   0  0  0  0  0  0  0  0  0  0  0  0
   -7.0186   -1.1465  -24.4911 H   0  0  0  0  0  0  0  0  0  0  0  0
   -8.3046   -2.1146  -23.7794 H   0  0  0  0  0  0  0  0  0  0  0  0
   -4.6024   -3.6511  -22.8858 H   0  0  0  0  0  0  0  0  0  0  0  0
   -4.4834   -2.2137  -23.8912 H   0  0  0  0  0  0  0  0  0  0  0  0
   -4.1290   -4.1536  -25.3285 H   0  0  0  0  0  0  0  0  0  0  0  0
   -5.5405   -4.9671  -24.6836 H   0  0  0  0  0  0  0  0  0  0  0  0
   -5.2021   -4.6905  -27.6227 H   0  0  0  0  0  0  0  0  0  0  0  0
   -6.6377   -5.3374  -26.8188 H   0  0  0  0  0  0  0  0  0  0  0  0
   -6.7991   -4.0298  -27.9980 H   0  0  0  0  0  0  0  0  0  0  0  0
  1  2  1  0
  2  3  1  0
  3  4  1  0
  3  5  1  0
  3  6  1  0
  2  7  1  0
  7  8  1  0
  8  9  1  0
  9 10  1  0
 10 11  2  0
 10 12  1  0
 12 13  1  0
 13 14  2  0
 14 15  1  0
 15 16  2  0
 16 17  1  0
 17 18  2  0
 18 19  1  0
 19 20  2  0
 20 21  1  0
 21 22  2  0
 21 23  1  0
 20 24  1  0
 19 25  1  0
 18 26  1  0
 16 27  1  0
 14 28  1  0
 12 29  1  0
 12 30  1  0
  9 31  1  0
 31 32  1  0
 32 33  1  0
 32 34  1  0
 31 35  1  0
 31 36  1  0
  8 37  1  0
  8 38  1  0
  7 39  1  0
  7 40  1  0
  1 41  1  0
  1 42  1  0
  1 43  1  0
 32  2  1  0
 22 13  1  0
 22 17  1  0
M  END
>  <cnnaffinities>  (87) 
[4.47914, 4.45449, 4.45448, 4.45447, 4.88237, 4.88231, 4.8822, 4.42438, 4.60252, 4.6023, 4.60226, 4.60253]

>  <score>  (87) 
4.47914

>  <index>  (87) 
89

>  <Smiles>  (87) 
C(C1(C([H])([H])[H])C(C(N(C(=O)C(c2c(nc(c3c(c(c(c(c23)[H])[H])[H])[H])[H])[H])([H])[H])C(C1([H])[H])([H])[H])([H])[H])([H])[H])([H])([H])[H]

>  <h>  (87) 
<NA>

>  <Training>  (87) 
True

>  <Success>  (87) 
True

>  <enamine_searched>  (87) 
False

>  <enamine_id>  (87) 
nan

$$$$

     RDKit          3D

 64 68  0  0  0  0  0  0  0  0999 V2000
   -6.8818    3.3946  -23.2092 C   0  0  0  0  0  0  0  0  0  0  0  0
   -7.5459    2.6069  -24.2236 N   0  0  0  0  0  0  0  0  0  0  0  0
   -6.9256    1.5808  -24.8378 C   0  0  0  0  0  0  0  0  0  0  0  0
   -5.7285    1.3419  -24.7277 O   0  0  0  0  0  0  0  0  0  0  0  0
   -7.8575    0.7154  -25.7009 C   0  0  0  0  0  0  0  0  0  0  0  0
   -8.8527    0.0246  -24.8895 N   0  0  0  0  0  0  0  0  0  0  0  0
   -8.5410   -1.2920  -24.3518 C   0  0  0  0  0  0  0  0  0  0  0  0
   -9.0907   -1.4956  -22.9057 C   0  0  2  0  0  0  0  0  0  0  0  0
   -8.3519   -0.5492  -21.9172 C   0  0  0  0  0  0  0  0  0  0  0  0
   -8.5220    0.6407  -21.7486 O   0  0  0  0  0  0  0  0  0  0  0  0
   -7.4318   -1.2979  -21.2188 N   0  0  0  0  0  0  0  0  0  0  0  0
   -6.6396   -0.7556  -20.1849 C   0  0  0  0  0  0  0  0  0  0  0  0
   -6.9196   -1.0753  -18.8813 C   0  0  0  0  0  0  0  0  0  0  0  0
   -6.2288   -0.6087  -17.8165 N   0  0  0  0  0  0  0  0  0  0  0  0
   -5.2120    0.1843  -18.0591 C   0  0  0  0  0  0  0  0  0  0  0  0
   -4.7955    0.5680  -19.3654 C   0  0  0  0  0  0  0  0  0  0  0  0
   -3.6618    1.3965  -19.5799 C   0  0  0  0  0  0  0  0  0  0  0  0
   -3.2880    1.7538  -20.8469 C   0  0  0  0  0  0  0  0  0  0  0  0
   -4.0360    1.3067  -21.9583 C   0  0  0  0  0  0  0  0  0  0  0  0
   -5.1287    0.4946  -21.7778 C   0  0  0  0  0  0  0  0  0  0  0  0
   -5.5361    0.1001  -20.4734 C   0  0  0  0  0  0  0  0  0  0  0  0
   -5.6839    0.1695  -22.6523 H   0  0  0  0  0  0  0  0  0  0  0  0
   -3.7664    1.5985  -22.9694 H   0  0  0  0  0  0  0  0  0  0  0  0
   -2.4207    2.3879  -21.0068 H   0  0  0  0  0  0  0  0  0  0  0  0
   -3.1074    1.7400  -18.7123 H   0  0  0  0  0  0  0  0  0  0  0  0
   -4.6570    0.5615  -17.1994 H   0  0  0  0  0  0  0  0  0  0  0  0
   -7.7607   -1.7315  -18.6548 H   0  0  0  0  0  0  0  0  0  0  0  0
   -7.3704   -2.6853  -21.5952 C   0  0  0  0  0  0  0  0  0  0  0  0
   -8.6972   -2.8893  -22.3440 C   0  0  2  0  0  0  0  0  0  0  0  0
   -8.6280   -4.0237  -23.3697 C   0  0  0  0  0  0  0  0  0  0  0  0
   -8.4944   -5.5970  -22.5532 S   0  0  0  0  0  0  0  0  0  0  0  0
   -9.6437   -5.7090  -21.6690 O   0  0  0  0  0  0  0  0  0  0  0  0
   -7.1488   -5.7567  -22.0228 O   0  0  0  0  0  0  0  0  0  0  0  0
   -8.5896   -6.6605  -23.8279 N   0  0  0  0  0  0  0  0  0  0  0  0
   -9.8761   -6.9473  -24.4532 C   0  0  0  0  0  0  0  0  0  0  0  0
   -9.7550   -7.8524  -25.0527 H   0  0  0  0  0  0  0  0  0  0  0  0
  -10.6891   -7.0964  -23.7363 H   0  0  0  0  0  0  0  0  0  0  0  0
  -10.1473   -6.1370  -25.1354 H   0  0  0  0  0  0  0  0  0  0  0  0
   -8.0368   -7.4747  -23.5900 H   0  0  0  0  0  0  0  0  0  0  0  0
   -7.7468   -3.9386  -24.0131 H   0  0  0  0  0  0  0  0  0  0  0  0
   -9.5315   -4.0532  -23.9886 H   0  0  0  0  0  0  0  0  0  0  0  0
   -9.4458   -3.1504  -21.5922 H   0  0  0  0  0  0  0  0  0  0  0  0
   -7.2915   -3.3199  -20.7141 H   0  0  0  0  0  0  0  0  0  0  0  0
   -6.4945   -2.9036  -22.2262 H   0  0  0  0  0  0  0  0  0  0  0  0
  -10.5828   -1.1925  -22.9562 C   0  0  0  0  0  0  0  0  0  0  0  0
  -11.5513   -1.8528  -22.1775 C   0  0  0  0  0  0  0  0  0  0  0  0
  -12.8774   -1.4727  -22.3007 C   0  0  0  0  0  0  0  0  0  0  0  0
  -13.8068   -2.0787  -21.5395 F   0  0  0  0  0  0  0  0  0  0  0  0
  -13.3076   -0.4868  -23.1763 C   0  0  0  0  0  0  0  0  0  0  0  0
  -12.3483    0.2198  -23.8782 C   0  0  0  0  0  0  0  0  0  0  0  0
  -11.0014   -0.1302  -23.7712 C   0  0  0  0  0  0  0  0  0  0  0  0
  -10.0077    0.6611  -24.5651 C   0  0  0  0  0  0  0  0  0  0  0  0
  -10.2331    1.8328  -24.8883 O   0  0  0  0  0  0  0  0  0  0  0  0
  -12.6277    1.0505  -24.5127 H   0  0  0  0  0  0  0  0  0  0  0  0
  -14.3700   -0.2871  -23.2746 H   0  0  0  0  0  0  0  0  0  0  0  0
  -11.2928   -2.6244  -21.4597 H   0  0  0  0  0  0  0  0  0  0  0  0
   -8.9870   -2.0487  -25.0105 H   0  0  0  0  0  0  0  0  0  0  0  0
   -7.4517   -1.4095  -24.3533 H   0  0  0  0  0  0  0  0  0  0  0  0
   -7.2413   -0.0103  -26.2384 H   0  0  0  0  0  0  0  0  0  0  0  0
   -8.3844    1.3450  -26.4256 H   0  0  0  0  0  0  0  0  0  0  0  0
   -8.5455    2.6934  -24.3629 H   0  0  0  0  0  0  0  0  0  0  0  0
   -6.5215    2.7605  -22.3885 H   0  0  0  0  0  0  0  0  0  0  0  0
   -6.0241    3.9238  -23.6322 H   0  0  0  0  0  0  0  0  0  0  0  0
   -7.5951    4.1161  -22.8052 H   0  0  0  0  0  0  0  0  0  0  0  0
  1  2  1  0
  2  3  1  0
  3  4  2  0
  3  5  1  0
  5  6  1  0
  6  7  1  0
  8  7  1  6
  8  9  1  0
  9 10  2  0
  9 11  1  0
 11 12  1  0
 12 13  2  0
 13 14  1  0
 14 15  2  0
 15 16  1  0
 16 17  2  0
 17 18  1  0
 18 19  2  0
 19 20  1  0
 20 21  2  0
 20 22  1  0
 19 23  1  0
 18 24  1  0
 17 25  1  0
 15 26  1  0
 13 27  1  0
 11 28  1  0
 28 29  1  0
 29 30  1  0
 30 31  1  0
 31 32  2  0
 31 33  2  0
 31 34  1  0
 34 35  1  0
 35 36  1  0
 35 37  1  0
 35 38  1  0
 34 39  1  0
 30 40  1  0
 30 41  1  0
 29 42  1  1
 28 43  1  0
 28 44  1  0
  8 45  1  0
 45 46  2  0
 46 47  1  0
 47 48  1  0
 47 49  2  0
 49 50  1  0
 50 51  2  0
 51 52  1  0
 52 53  2  0
 50 54  1  0
 49 55  1  0
 46 56  1  0
  7 57  1  0
  7 58  1  0
  5 59  1  0
  5 60  1  0
  2 61  1  0
  1 62  1  0
  1 63  1  0
  1 64  1  0
 52  6  1  0
 29  8  1  0
 51 45  1  0
 21 12  1  0
 21 16  1  0
M  END
>  <cnnaffinities>  (88) 
[6.68075, 6.65289]

>  <score>  (88) 
6.68075

>  <index>  (88) 
90

>  <Smiles>  (88) 
C(N(C(=O)C(N1C([C@@]2(C(=O)N(c3c(nc(c4c(c(c(c(c34)[H])[H])[H])[H])[H])[H])C([C@@]2(C(S(=O)(=O)N(C([H])([H])[H])[H])([H])[H])[H])([H])[H])c2c(c(F)c(c(c2C1=O)[H])[H])[H])([H])[H])([H])[H])[H])([H])([H])[H]

>  <h>  (88) 
<NA>

>  <Training>  (88) 
True

>  <Success>  (88) 
True

>  <enamine_searched>  (88) 
False

>  <enamine_id>  (88) 
nan

$$$$

     RDKit          3D

 66 71  0  0  0  0  0  0  0  0999 V2000
   -7.3521    3.3887  -21.9255 C   0  0  0  0  0  0  0  0  0  0  0  0
   -8.2950    2.8777  -22.9082 N   0  0  0  0  0  0  0  0  0  0  0  0
   -7.7809    2.1731  -23.9583 C   0  0  0  0  0  0  0  0  0  0  0  0
   -6.5768    2.0176  -24.1026 O   0  0  0  0  0  0  0  0  0  0  0  0
   -8.7836    1.5666  -24.9396 C   0  0  0  0  0  0  0  0  0  0  0  0
   -9.4358    0.4191  -24.3407 N   0  0  0  0  0  0  0  0  0  0  0  0
   -8.6881   -0.8193  -24.1640 C   0  0  0  0  0  0  0  0  0  0  0  0
   -9.0838   -1.5546  -22.8572 C   0  0  2  0  0  0  0  0  0  0  0  0
   -8.5707   -0.7722  -21.6252 C   0  0  0  0  0  0  0  0  0  0  0  0
   -9.0723    0.2072  -21.1071 O   0  0  0  0  0  0  0  0  0  0  0  0
   -7.4125   -1.3671  -21.1940 N   0  0  0  0  0  0  0  0  0  0  0  0
   -6.6317   -0.7874  -20.1700 C   0  0  0  0  0  0  0  0  0  0  0  0
   -6.9396   -1.0447  -18.8596 C   0  0  0  0  0  0  0  0  0  0  0  0
   -6.2381   -0.5739  -17.8021 N   0  0  0  0  0  0  0  0  0  0  0  0
   -5.2009    0.1875  -18.0594 C   0  0  0  0  0  0  0  0  0  0  0  0
   -4.7765    0.5425  -19.3728 C   0  0  0  0  0  0  0  0  0  0  0  0
   -3.6483    1.3757  -19.6029 C   0  0  0  0  0  0  0  0  0  0  0  0
   -3.2875    1.7213  -20.8778 C   0  0  0  0  0  0  0  0  0  0  0  0
   -4.0430    1.2666  -21.9798 C   0  0  0  0  0  0  0  0  0  0  0  0
   -5.1288    0.4433  -21.7865 C   0  0  0  0  0  0  0  0  0  0  0  0
   -5.5182    0.0538  -20.4736 C   0  0  0  0  0  0  0  0  0  0  0  0
   -5.7006    0.1082  -22.6458 H   0  0  0  0  0  0  0  0  0  0  0  0
   -3.7658    1.5574  -22.9894 H   0  0  0  0  0  0  0  0  0  0  0  0
   -2.4183    2.3505  -21.0483 H   0  0  0  0  0  0  0  0  0  0  0  0
   -3.0902    1.7324  -18.7423 H   0  0  0  0  0  0  0  0  0  0  0  0
   -4.6351    0.5659  -17.2068 H   0  0  0  0  0  0  0  0  0  0  0  0
   -7.7994   -1.6688  -18.6294 H   0  0  0  0  0  0  0  0  0  0  0  0
   -7.0277   -2.5475  -21.9319 C   0  0  0  0  0  0  0  0  0  0  0  0
   -8.3142   -2.9105  -22.6934 C   0  0  2  0  0  0  0  0  0  0  0  0
   -8.0139   -3.7048  -23.9786 C   0  0  0  0  0  0  0  0  0  0  0  0
   -7.5125   -5.0475  -23.7530 N   0  0  0  0  0  0  0  0  0  0  0  0
   -6.2084   -5.3798  -23.4791 C   0  0  0  0  0  0  0  0  0  0  0  0
   -5.0948   -4.5965  -23.8697 C   0  0  0  0  0  0  0  0  0  0  0  0
   -3.8475   -4.9578  -23.6024 N   0  0  0  0  0  0  0  0  0  0  0  0
   -3.6743   -6.1035  -22.9412 C   0  0  0  0  0  0  0  0  0  0  0  0
   -4.7590   -6.8793  -22.5673 C   0  0  0  0  0  0  0  0  0  0  0  0
   -6.0178   -6.5365  -22.8391 N   0  0  0  0  0  0  0  0  0  0  0  0
   -4.6169   -7.8116  -22.0246 H   0  0  0  0  0  0  0  0  0  0  0  0
   -2.6523   -6.3979  -22.7104 H   0  0  0  0  0  0  0  0  0  0  0  0
   -5.2169   -3.6636  -24.4164 H   0  0  0  0  0  0  0  0  0  0  0  0
   -8.1583   -5.7244  -23.3663 H   0  0  0  0  0  0  0  0  0  0  0  0
   -7.2734   -3.1635  -24.5795 H   0  0  0  0  0  0  0  0  0  0  0  0
   -8.9232   -3.7825  -24.5850 H   0  0  0  0  0  0  0  0  0  0  0  0
   -8.9126   -3.5485  -22.0318 H   0  0  0  0  0  0  0  0  0  0  0  0
   -6.6865   -3.3362  -21.2548 H   0  0  0  0  0  0  0  0  0  0  0  0
   -6.1923   -2.3336  -22.6178 H   0  0  0  0  0  0  0  0  0  0  0  0
  -10.5961   -1.6124  -22.7993 C   0  0  0  0  0  0  0  0  0  0  0  0
  -11.2360   -2.4545  -21.8812 C   0  0  0  0  0  0  0  0  0  0  0  0
  -12.6143   -2.3977  -21.7385 C   0  0  0  0  0  0  0  0  0  0  0  0
  -13.3961   -3.1885  -20.4033 Cl  0  0  0  0  0  0  0  0  0  0  0  0
  -13.4090   -1.5993  -22.5632 C   0  0  0  0  0  0  0  0  0  0  0  0
  -12.7825   -0.7582  -23.4544 C   0  0  0  0  0  0  0  0  0  0  0  0
  -11.3927   -0.7129  -23.5243 C   0  0  0  0  0  0  0  0  0  0  0  0
  -10.7970    0.4390  -24.2656 C   0  0  0  0  0  0  0  0  0  0  0  0
  -11.4788    1.3532  -24.7118 O   0  0  0  0  0  0  0  0  0  0  0  0
  -13.3394   -0.0730  -24.0829 H   0  0  0  0  0  0  0  0  0  0  0  0
  -14.4897   -1.5854  -22.4298 H   0  0  0  0  0  0  0  0  0  0  0  0
  -10.6608   -3.1312  -21.2572 H   0  0  0  0  0  0  0  0  0  0  0  0
   -8.8687   -1.4927  -25.0120 H   0  0  0  0  0  0  0  0  0  0  0  0
   -7.6222   -0.5801  -24.1608 H   0  0  0  0  0  0  0  0  0  0  0  0
   -8.2505    1.2862  -25.8557 H   0  0  0  0  0  0  0  0  0  0  0  0
   -9.5787    2.2714  -25.2060 H   0  0  0  0  0  0  0  0  0  0  0  0
   -9.2218    2.6513  -22.5738 H   0  0  0  0  0  0  0  0  0  0  0  0
   -6.7887    2.5571  -21.4808 H   0  0  0  0  0  0  0  0  0  0  0  0
   -6.6462    4.0688  -22.4089 H   0  0  0  0  0  0  0  0  0  0  0  0
   -7.8832    3.9540  -21.1561 H   0  0  0  0  0  0  0  0  0  0  0  0
  1  2  1  0
  2  3  1  0
  3  4  2  0
  3  5  1  0
  5  6  1  0
  6  7  1  0
  8  7  1  6
  8  9  1  0
  9 10  2  0
  9 11  1  0
 11 12  1  0
 12 13  2  0
 13 14  1  0
 14 15  2  0
 15 16  1  0
 16 17  2  0
 17 18  1  0
 18 19  2  0
 19 20  1  0
 20 21  2  0
 20 22  1  0
 19 23  1  0
 18 24  1  0
 17 25  1  0
 15 26  1  0
 13 27  1  0
 11 28  1  0
 28 29  1  0
 29 30  1  0
 30 31  1  0
 31 32  1  0
 32 33  2  0
 33 34  1  0
 34 35  2  0
 35 36  1  0
 36 37  2  0
 36 38  1  0
 35 39  1  0
 33 40  1  0
 31 41  1  0
 30 42  1  0
 30 43  1  0
 29 44  1  1
 28 45  1  0
 28 46  1  0
  8 47  1  0
 47 48  2  0
 48 49  1  0
 49 50  1  0
 49 51  2  0
 51 52  1  0
 52 53  2  0
 53 54  1  0
 54 55  2  0
 52 56  1  0
 51 57  1  0
 48 58  1  0
  7 59  1  0
  7 60  1  0
  5 61  1  0
  5 62  1  0
  2 63  1  0
  1 64  1  0
  1 65  1  0
  1 66  1  0
 54  6  1  0
 29  8  1  0
 37 32  1  0
 53 47  1  0
 21 12  1  0
 21 16  1  0
M  END
>  <cnnaffinities>  (89) 
[7.07867, 6.47883, 6.55995]

>  <score>  (89) 
7.07867

>  <index>  (89) 
91

>  <Smiles>  (89) 
C(N(C(=O)C(N1C([C@@]2(C(=O)N(c3c(nc(c4c(c(c(c(c34)[H])[H])[H])[H])[H])[H])C([C@@]2(C(N(c2c(nc(c(n2)[H])[H])[H])[H])([H])[H])[H])([H])[H])c2c(c(Cl)c(c(c2C1=O)[H])[H])[H])([H])[H])([H])[H])[H])([H])([H])[H]

>  <h>  (89) 
<NA>

>  <Training>  (89) 
True

>  <Success>  (89) 
True

>  <enamine_searched>  (89) 
False

>  <enamine_id>  (89) 
nan

$$$$

     RDKit          3D

 60 65  0  0  0  0  0  0  0  0999 V2000
   -6.7838   -3.4361  -26.0925 C   0  0  0  0  0  0  0  0  0  0  0  0
   -7.0246   -2.8862  -24.8214 O   0  0  0  0  0  0  0  0  0  0  0  0
   -8.0006   -3.5927  -24.0836 C   0  0  0  0  0  0  0  0  0  0  0  0
   -8.3151   -2.8737  -22.7705 C   0  0  1  0  0  0  0  0  0  0  0  0
   -7.0420   -2.5359  -21.9747 C   0  0  0  0  0  0  0  0  0  0  0  0
   -7.3965   -1.3340  -21.2446 N   0  0  0  0  0  0  0  0  0  0  0  0
   -6.6167   -0.7889  -20.1915 C   0  0  0  0  0  0  0  0  0  0  0  0
   -6.9288   -1.0505  -18.8812 C   0  0  0  0  0  0  0  0  0  0  0  0
   -6.2297   -0.5749  -17.8205 N   0  0  0  0  0  0  0  0  0  0  0  0
   -5.2028    0.2013  -18.0720 C   0  0  0  0  0  0  0  0  0  0  0  0
   -4.7749    0.5633  -19.3823 C   0  0  0  0  0  0  0  0  0  0  0  0
   -3.6529    1.4032  -19.6119 C   0  0  0  0  0  0  0  0  0  0  0  0
   -3.2804    1.7281  -20.8881 C   0  0  0  0  0  0  0  0  0  0  0  0
   -3.9997    1.2270  -21.9917 C   0  0  0  0  0  0  0  0  0  0  0  0
   -5.0588    0.3691  -21.7925 C   0  0  0  0  0  0  0  0  0  0  0  0
   -5.4887    0.0366  -20.4820 C   0  0  0  0  0  0  0  0  0  0  0  0
   -5.5629   -0.0707  -22.6483 H   0  0  0  0  0  0  0  0  0  0  0  0
   -3.6821    1.4902  -22.9978 H   0  0  0  0  0  0  0  0  0  0  0  0
   -2.4101    2.3528  -21.0616 H   0  0  0  0  0  0  0  0  0  0  0  0
   -3.0956    1.7655  -18.7535 H   0  0  0  0  0  0  0  0  0  0  0  0
   -4.6365    0.5807  -17.2197 H   0  0  0  0  0  0  0  0  0  0  0  0
   -7.7901   -1.6722  -18.6473 H   0  0  0  0  0  0  0  0  0  0  0  0
   -8.6186   -0.7992  -21.5874 C   0  0  0  0  0  0  0  0  0  0  0  0
   -9.1793    0.0871  -20.9784 O   0  0  0  0  0  0  0  0  0  0  0  0
   -9.1541   -1.5554  -22.8289 C   0  0  1  0  0  0  0  0  0  0  0  0
   -8.8765   -0.7786  -24.1410 C   0  0  0  0  0  0  0  0  0  0  0  0
   -9.7204    0.3947  -24.2827 N   0  0  0  0  0  0  0  0  0  0  0  0
   -9.1277    1.6281  -24.7766 C   0  0  0  0  0  0  0  0  0  0  0  0
   -8.3424    2.3934  -23.7325 C   0  0  0  0  0  0  0  0  0  0  0  0
   -8.8647    3.3106  -22.7881 C   0  0  0  0  0  0  0  0  0  0  0  0
   -7.9279    3.7963  -21.9696 N   0  0  0  0  0  0  0  0  0  0  0  0
   -6.8080    3.2030  -22.3928 N   0  0  0  0  0  0  0  0  0  0  0  0
   -6.9981    2.3628  -23.4354 C   0  0  0  0  0  0  0  0  0  0  0  0
   -6.1496    1.7979  -23.8034 H   0  0  0  0  0  0  0  0  0  0  0  0
   -5.9203    3.3265  -21.9257 H   0  0  0  0  0  0  0  0  0  0  0  0
   -9.8910    3.6473  -22.6903 H   0  0  0  0  0  0  0  0  0  0  0  0
   -8.5288    1.3727  -25.6600 H   0  0  0  0  0  0  0  0  0  0  0  0
   -9.9683    2.2337  -25.1242 H   0  0  0  0  0  0  0  0  0  0  0  0
  -11.0747    0.3378  -24.1152 C   0  0  0  0  0  0  0  0  0  0  0  0
  -11.8430    1.1921  -24.5396 O   0  0  0  0  0  0  0  0  0  0  0  0
  -11.5556   -0.8366  -23.3361 C   0  0  0  0  0  0  0  0  0  0  0  0
  -12.9360   -0.9380  -23.1743 C   0  0  0  0  0  0  0  0  0  0  0  0
  -13.4558   -1.8286  -22.2661 C   0  0  0  0  0  0  0  0  0  0  0  0
  -12.5679   -2.6143  -21.5376 C   0  0  0  0  0  0  0  0  0  0  0  0
  -13.2211   -3.4573  -20.1798 Cl  0  0  0  0  0  0  0  0  0  0  0  0
  -11.2005   -2.5925  -21.7565 C   0  0  0  0  0  0  0  0  0  0  0  0
  -10.6627   -1.7056  -22.6933 C   0  0  0  0  0  0  0  0  0  0  0  0
  -10.5530   -3.2446  -21.1829 H   0  0  0  0  0  0  0  0  0  0  0  0
  -14.5189   -1.9002  -22.0635 H   0  0  0  0  0  0  0  0  0  0  0  0
  -13.5668   -0.2564  -23.7328 H   0  0  0  0  0  0  0  0  0  0  0  0
   -9.0494   -1.4779  -24.9685 H   0  0  0  0  0  0  0  0  0  0  0  0
   -7.8331   -0.4575  -24.1883 H   0  0  0  0  0  0  0  0  0  0  0  0
   -6.1919   -2.3644  -22.6447 H   0  0  0  0  0  0  0  0  0  0  0  0
   -6.7739   -3.3449  -21.2852 H   0  0  0  0  0  0  0  0  0  0  0  0
   -8.8999   -3.5883  -22.1853 H   0  0  0  0  0  0  0  0  0  0  0  0
   -7.6244   -4.6021  -23.8550 H   0  0  0  0  0  0  0  0  0  0  0  0
   -8.9221   -3.7091  -24.6798 H   0  0  0  0  0  0  0  0  0  0  0  0
   -6.0202   -2.8250  -26.5808 H   0  0  0  0  0  0  0  0  0  0  0  0
   -6.4116   -4.4699  -26.0252 H   0  0  0  0  0  0  0  0  0  0  0  0
   -7.6914   -3.4218  -26.7158 H   0  0  0  0  0  0  0  0  0  0  0  0
  1  2  1  0
  2  3  1  0
  3  4  1  0
  4  5  1  0
  5  6  1  0
  6  7  1  0
  7  8  2  0
  8  9  1  0
  9 10  2  0
 10 11  1  0
 11 12  2  0
 12 13  1  0
 13 14  2  0
 14 15  1  0
 15 16  2  0
 15 17  1  0
 14 18  1  0
 13 19  1  0
 12 20  1  0
 10 21  1  0
  8 22  1  0
  6 23  1  0
 23 24  2  0
 23 25  1  0
 25 26  1  6
 26 27  1  0
 27 28  1  0
 28 29  1  0
 29 30  1  0
 30 31  2  0
 31 32  1  0
 32 33  1  0
 33 34  1  0
 32 35  1  0
 30 36  1  0
 28 37  1  0
 28 38  1  0
 27 39  1  0
 39 40  2  0
 39 41  1  0
 41 42  2  0
 42 43  1  0
 43 44  2  0
 44 45  1  0
 44 46  1  0
 46 47  2  0
 46 48  1  0
 43 49  1  0
 42 50  1  0
 26 51  1  0
 26 52  1  0
  5 53  1  0
  5 54  1  0
  4 55  1  1
  3 56  1  0
  3 57  1  0
  1 58  1  0
  1 59  1  0
  1 60  1  0
 25  4  1  0
 33 29  2  0
 47 41  1  0
 16  7  1  0
 47 25  1  0
 16 11  1  0
M  END
>  <cnnaffinities>  (90) 
[6.43891, 6.21583, 6.46863]

>  <score>  (90) 
6.43891

>  <index>  (90) 
92

>  <Smiles>  (90) 
C(OC([C@]1(C(N(c2c(nc(c3c(c(c(c(c23)[H])[H])[H])[H])[H])[H])C(=O)[C@]21C(N(C(c1c(nn(c1[H])[H])[H])([H])[H])C(=O)c1c(c(c(Cl)c(c21)[H])[H])[H])([H])[H])([H])[H])[H])([H])[H])([H])([H])[H]

>  <h>  (90) 
<NA>

>  <Training>  (90) 
True

>  <Success>  (90) 
True

>  <enamine_searched>  (90) 
False

>  <enamine_id>  (90) 
nan

$$$$

     RDKit          3D

 62 67  0  0  0  0  0  0  0  0999 V2000
  -11.6814    3.3079  -22.6188 C   0  0  0  0  0  0  0  0  0  0  0  0
  -10.8489    2.0685  -22.2855 C   0  0  0  0  0  0  0  0  0  0  0  0
   -9.4768    2.1312  -22.7715 N   0  0  0  0  0  0  0  0  0  0  0  0
   -8.5703    2.7507  -22.0058 N   0  0  0  0  0  0  0  0  0  0  0  0
   -7.4517    2.7746  -22.7060 C   0  0  0  0  0  0  0  0  0  0  0  0
   -7.6177    2.1141  -23.9393 C   0  0  0  0  0  0  0  0  0  0  0  0
   -8.9384    1.7148  -23.9476 C   0  0  0  0  0  0  0  0  0  0  0  0
   -9.7125    0.9790  -24.9917 C   0  0  0  0  0  0  0  0  0  0  0  0
  -10.2339   -0.3010  -24.5287 N   0  0  0  0  0  0  0  0  0  0  0  0
   -9.3073   -1.3825  -24.2343 C   0  0  0  0  0  0  0  0  0  0  0  0
   -9.5161   -1.9935  -22.8222 C   0  0  2  0  0  0  0  0  0  0  0  0
   -8.9622   -1.0597  -21.7088 C   0  0  0  0  0  0  0  0  0  0  0  0
   -9.5821   -0.2398  -21.0673 O   0  0  0  0  0  0  0  0  0  0  0  0
   -7.6274   -1.3408  -21.5122 N   0  0  0  0  0  0  0  0  0  0  0  0
   -6.9290   -0.8381  -20.3909 C   0  0  0  0  0  0  0  0  0  0  0  0
   -7.3488   -1.1270  -19.1162 C   0  0  0  0  0  0  0  0  0  0  0  0
   -6.6954   -0.7299  -17.9985 N   0  0  0  0  0  0  0  0  0  0  0  0
   -5.6254    0.0124  -18.1481 C   0  0  0  0  0  0  0  0  0  0  0  0
   -5.1028    0.4116  -19.4110 C   0  0  0  0  0  0  0  0  0  0  0  0
   -3.9976    1.2924  -19.5394 C   0  0  0  0  0  0  0  0  0  0  0  0
   -3.5305    1.6400  -20.7764 C   0  0  0  0  0  0  0  0  0  0  0  0
   -4.1283    1.1114  -21.9399 C   0  0  0  0  0  0  0  0  0  0  0  0
   -5.1910    0.2455  -21.8427 C   0  0  0  0  0  0  0  0  0  0  0  0
   -5.7376   -0.0734  -20.5753 C   0  0  0  0  0  0  0  0  0  0  0  0
   -5.6045   -0.2177  -22.7337 H   0  0  0  0  0  0  0  0  0  0  0  0
   -3.7350    1.3706  -22.9173 H   0  0  0  0  0  0  0  0  0  0  0  0
   -2.6868    2.3162  -20.8738 H   0  0  0  0  0  0  0  0  0  0  0  0
   -3.5494    1.6952  -18.6371 H   0  0  0  0  0  0  0  0  0  0  0  0
   -5.1082    0.3326  -17.2427 H   0  0  0  0  0  0  0  0  0  0  0  0
   -8.2547   -1.7091  -18.9526 H   0  0  0  0  0  0  0  0  0  0  0  0
   -7.2080   -2.5522  -22.1918 C   0  0  0  0  0  0  0  0  0  0  0  0
   -8.5479   -3.1984  -22.6032 C   0  0  2  0  0  0  0  0  0  0  0  0
   -8.3857   -4.1782  -23.7555 C   0  0  0  0  0  0  0  0  0  0  0  0
   -9.3500   -4.5656  -24.0992 H   0  0  0  0  0  0  0  0  0  0  0  0
   -7.7510   -5.0239  -23.4690 H   0  0  0  0  0  0  0  0  0  0  0  0
   -7.8973   -3.6858  -24.6046 H   0  0  0  0  0  0  0  0  0  0  0  0
   -8.9106   -3.7206  -21.7128 H   0  0  0  0  0  0  0  0  0  0  0  0
   -6.5811   -2.3283  -23.0714 H   0  0  0  0  0  0  0  0  0  0  0  0
   -6.6208   -3.1845  -21.5154 H   0  0  0  0  0  0  0  0  0  0  0  0
  -11.0063   -2.2053  -22.6004 C   0  0  0  0  0  0  0  0  0  0  0  0
  -11.4734   -3.0452  -21.5885 C   0  0  0  0  0  0  0  0  0  0  0  0
  -12.7815   -2.9330  -21.1601 C   0  0  0  0  0  0  0  0  0  0  0  0
  -13.1627   -3.6294  -20.0819 F   0  0  0  0  0  0  0  0  0  0  0  0
  -13.7239   -2.1062  -21.7560 C   0  0  0  0  0  0  0  0  0  0  0  0
  -13.2960   -1.3497  -22.8274 C   0  0  0  0  0  0  0  0  0  0  0  0
  -11.9619   -1.3879  -23.2316 C   0  0  0  0  0  0  0  0  0  0  0  0
  -11.5683   -0.3799  -24.2620 C   0  0  0  0  0  0  0  0  0  0  0  0
  -12.3898    0.4018  -24.7303 O   0  0  0  0  0  0  0  0  0  0  0  0
  -13.9679   -0.6939  -23.3694 H   0  0  0  0  0  0  0  0  0  0  0  0
  -14.7243   -2.0382  -21.3445 H   0  0  0  0  0  0  0  0  0  0  0  0
  -10.8121   -3.7483  -21.0918 H   0  0  0  0  0  0  0  0  0  0  0  0
   -9.4273   -2.1779  -24.9839 H   0  0  0  0  0  0  0  0  0  0  0  0
   -8.2921   -0.9796  -24.3270 H   0  0  0  0  0  0  0  0  0  0  0  0
   -9.0576    0.8300  -25.8591 H   0  0  0  0  0  0  0  0  0  0  0  0
  -10.5790    1.5775  -25.2918 H   0  0  0  0  0  0  0  0  0  0  0  0
   -6.8759    1.9737  -24.7110 H   0  0  0  0  0  0  0  0  0  0  0  0
   -6.6009    3.2939  -22.2925 H   0  0  0  0  0  0  0  0  0  0  0  0
  -11.3342    1.1679  -22.6631 H   0  0  0  0  0  0  0  0  0  0  0  0
  -10.7311    1.9278  -21.2119 H   0  0  0  0  0  0  0  0  0  0  0  0
  -11.9775    3.3302  -23.6766 H   0  0  0  0  0  0  0  0  0  0  0  0
  -11.1165    4.2190  -22.3957 H   0  0  0  0  0  0  0  0  0  0  0  0
  -12.5987    3.3133  -22.0163 H   0  0  0  0  0  0  0  0  0  0  0  0
  1  2  1  0
  2  3  1  0
  3  4  1  0
  4  5  2  0
  5  6  1  0
  6  7  2  0
  7  8  1  0
  8  9  1  0
  9 10  1  0
 11 10  1  6
 11 12  1  0
 12 13  2  0
 12 14  1  0
 14 15  1  0
 15 16  2  0
 16 17  1  0
 17 18  2  0
 18 19  1  0
 19 20  2  0
 20 21  1  0
 21 22  2  0
 22 23  1  0
 23 24  2  0
 23 25  1  0
 22 26  1  0
 21 27  1  0
 20 28  1  0
 18 29  1  0
 16 30  1  0
 14 31  1  0
 31 32  1  0
 32 33  1  0
 33 34  1  0
 33 35  1  0
 33 36  1  0
 32 37  1  1
 31 38  1  0
 31 39  1  0
 11 40  1  0
 40 41  2  0
 41 42  1  0
 42 43  1  0
 42 44  2  0
 44 45  1  0
 45 46  2  0
 46 47  1  0
 47 48  2  0
 45 49  1  0
 44 50  1  0
 41 51  1  0
 10 52  1  0
 10 53  1  0
  8 54  1  0
  8 55  1  0
  6 56  1  0
  5 57  1  0
  2 58  1  0
  2 59  1  0
  1 60  1  0
  1 61  1  0
  1 62  1  0
  7  3  1  0
 47  9  1  0
 32 11  1  0
 46 40  1  0
 24 15  1  0
 24 19  1  0
M  END
>  <cnnaffinities>  (91) 
[6.64389]

>  <score>  (91) 
6.64389

>  <index>  (91) 
93

>  <Smiles>  (91) 
C(C(n1nc(c(c1C(N1C([C@@]2(C(=O)N(c3c(nc(c4c(c(c(c(c34)[H])[H])[H])[H])[H])[H])C([C@@]2(C([H])([H])[H])[H])([H])[H])c2c(c(F)c(c(c2C1=O)[H])[H])[H])([H])[H])([H])[H])[H])[H])([H])[H])([H])([H])[H]

>  <h>  (91) 
<NA>

>  <Training>  (91) 
True

>  <Success>  (91) 
True

>  <enamine_searched>  (91) 
False

>  <enamine_id>  (91) 
nan

$$$$

     RDKit          3D

 66 71  0  0  0  0  0  0  0  0999 V2000
   -8.5147    2.7956  -28.3791 C   0  0  0  0  0  0  0  0  0  0  0  0
   -8.6058    2.7625  -26.9304 N   0  0  0  0  0  0  0  0  0  0  0  0
   -7.8738    1.8275  -26.2477 C   0  0  0  0  0  0  0  0  0  0  0  0
   -7.0458    1.0941  -26.7585 O   0  0  0  0  0  0  0  0  0  0  0  0
   -8.1641    1.8147  -24.7431 C   0  0  0  0  0  0  0  0  0  0  0  0
   -9.0210    0.7156  -24.3491 N   0  0  0  0  0  0  0  0  0  0  0  0
   -8.4623   -0.6156  -24.1887 C   0  0  0  0  0  0  0  0  0  0  0  0
   -9.0537   -1.3163  -22.9321 C   0  0  2  0  0  0  0  0  0  0  0  0
   -8.5352   -0.5989  -21.6625 C   0  0  0  0  0  0  0  0  0  0  0  0
   -8.9942    0.3759  -21.1112 O   0  0  0  0  0  0  0  0  0  0  0  0
   -7.4152   -1.2715  -21.2406 N   0  0  0  0  0  0  0  0  0  0  0  0
   -6.6321   -0.7650  -20.1808 C   0  0  0  0  0  0  0  0  0  0  0  0
   -6.9453   -1.0708  -18.8837 C   0  0  0  0  0  0  0  0  0  0  0  0
   -6.2429   -0.6345  -17.8093 N   0  0  0  0  0  0  0  0  0  0  0  0
   -5.2126    0.1442  -18.0384 C   0  0  0  0  0  0  0  0  0  0  0  0
   -4.7838    0.5439  -19.3385 C   0  0  0  0  0  0  0  0  0  0  0  0
   -3.6710    1.4006  -19.5469 C   0  0  0  0  0  0  0  0  0  0  0  0
   -3.3159    1.7801  -20.8127 C   0  0  0  0  0  0  0  0  0  0  0  0
   -4.0516    1.3278  -21.9302 C   0  0  0  0  0  0  0  0  0  0  0  0
   -5.1240    0.4899  -21.7567 C   0  0  0  0  0  0  0  0  0  0  0  0
   -5.5139    0.0792  -20.4518 C   0  0  0  0  0  0  0  0  0  0  0  0
   -5.6777    0.1350  -22.6216 H   0  0  0  0  0  0  0  0  0  0  0  0
   -3.7633    1.6329  -22.9313 H   0  0  0  0  0  0  0  0  0  0  0  0
   -2.4678    2.4392  -20.9707 H   0  0  0  0  0  0  0  0  0  0  0  0
   -3.1233    1.7541  -18.6782 H   0  0  0  0  0  0  0  0  0  0  0  0
   -4.6617    0.5056  -17.1698 H   0  0  0  0  0  0  0  0  0  0  0  0
   -7.8089   -1.6999  -18.6751 H   0  0  0  0  0  0  0  0  0  0  0  0
   -7.0879   -2.4448  -22.0223 C   0  0  0  0  0  0  0  0  0  0  0  0
   -8.4530   -2.7626  -22.7063 C   0  0  2  0  0  0  0  0  0  0  0  0
   -8.3453   -3.6852  -23.9600 C   0  0  0  0  0  0  0  0  0  0  0  0
   -7.6332   -4.9177  -23.7849 N   0  0  0  0  0  0  0  0  0  0  0  0
   -8.3104   -6.1064  -23.7624 C   0  0  0  0  0  0  0  0  0  0  0  0
   -9.8343   -6.0679  -23.9764 C   0  0  0  0  0  0  0  0  0  0  0  0
   -9.6742   -5.8609  -24.0172 C   0  0  0  0  0  0  0  0  0  0  0  0
   -9.5130   -8.5875  -23.6023 N   0  0  0  0  0  0  0  0  0  0  0  0
   -8.2970   -8.3871  -23.4213 C   0  0  0  0  0  0  0  0  0  0  0  0
   -7.5747   -7.1287  -23.4707 N   0  0  0  0  0  0  0  0  0  0  0  0
   -7.6068   -9.2112  -23.1719 H   0  0  0  0  0  0  0  0  0  0  0  0
  -10.4320   -5.4454  -24.7995 H   0  0  0  0  0  0  0  0  0  0  0  0
  -10.3609   -5.2524  -23.2621 H   0  0  0  0  0  0  0  0  0  0  0  0
   -6.7052   -4.8963  -23.3890 H   0  0  0  0  0  0  0  0  0  0  0  0
   -7.7294   -3.0748  -24.6632 H   0  0  0  0  0  0  0  0  0  0  0  0
   -9.2854   -3.8214  -24.4724 H   0  0  0  0  0  0  0  0  0  0  0  0
   -9.0609   -3.2417  -21.9305 H   0  0  0  0  0  0  0  0  0  0  0  0
   -6.2954   -2.2378  -22.7642 H   0  0  0  0  0  0  0  0  0  0  0  0
   -6.6997   -3.2061  -21.3350 H   0  0  0  0  0  0  0  0  0  0  0  0
  -10.5625   -1.1923  -23.0065 C   0  0  0  0  0  0  0  0  0  0  0  0
  -11.3813   -1.9959  -22.2050 C   0  0  0  0  0  0  0  0  0  0  0  0
  -12.7568   -1.8701  -22.2659 C   0  0  0  0  0  0  0  0  0  0  0  0
  -13.7523   -2.8843  -21.2593 Cl  0  0  0  0  0  0  0  0  0  0  0  0
  -13.3691   -0.9303  -23.0920 C   0  0  0  0  0  0  0  0  0  0  0  0
  -12.5668   -0.0853  -23.8332 C   0  0  0  0  0  0  0  0  0  0  0  0
  -11.1779   -0.1870  -23.7694 C   0  0  0  0  0  0  0  0  0  0  0  0
  -10.3698    0.8855  -24.4346 C   0  0  0  0  0  0  0  0  0  0  0  0
  -10.8813    1.8692  -24.9665 O   0  0  0  0  0  0  0  0  0  0  0  0
  -12.9918    0.7020  -24.4456 H   0  0  0  0  0  0  0  0  0  0  0  0
  -14.4504   -0.8405  -23.1001 H   0  0  0  0  0  0  0  0  0  0  0  0
  -10.9580   -2.7417  -21.5402 H   0  0  0  0  0  0  0  0  0  0  0  0
   -8.6918   -1.2065  -25.0854 H   0  0  0  0  0  0  0  0  0  0  0  0
   -7.3729   -0.5131  -24.1300 H   0  0  0  0  0  0  0  0  0  0  0  0
   -8.6472    2.7485  -24.4421 H   0  0  0  0  0  0  0  0  0  0  0  0
   -7.2133    1.7243  -24.2081 H   0  0  0  0  0  0  0  0  0  0  0  0
   -9.5383    2.8750  -26.5438 H   0  0  0  0  0  0  0  0  0  0  0  0
   -7.4936    3.0501  -28.6705 H   0  0  0  0  0  0  0  0  0  0  0  0
   -9.1950    3.5670  -28.7492 H   0  0  0  0  0  0  0  0  0  0  0  0
   -8.7698    1.8347  -28.8457 H   0  0  0  0  0  0  0  0  0  0  0  0
  1  2  1  0
  2  3  1  0
  3  4  2  0
  3  5  1  0
  5  6  1  0
  6  7  1  0
  8  7  1  6
  8  9  1  0
  9 10  2  0
  9 11  1  0
 11 12  1  0
 12 13  2  0
 13 14  1  0
 14 15  2  0
 15 16  1  0
 16 17  2  0
 17 18  1  0
 18 19  2  0
 19 20  1  0
 20 21  2  0
 20 22  1  0
 19 23  1  0
 18 24  1  0
 17 25  1  0
 15 26  1  0
 13 27  1  0
 11 28  1  0
 28 29  1  0
 29 30  1  0
 30 31  1  0
 31 32  1  0
 32 33  2  0
 33 34  1  0
 34 35  2  0
 35 36  1  0
 36 37  2  0
 36 38  1  0
 34 39  1  0
 33 40  1  0
 31 41  1  0
 30 42  1  0
 30 43  1  0
 29 44  1  1
 28 45  1  0
 28 46  1  0
  8 47  1  0
 47 48  2  0
 48 49  1  0
 49 50  1  0
 49 51  2  0
 51 52  1  0
 52 53  2  0
 53 54  1  0
 54 55  2  0
 52 56  1  0
 51 57  1  0
 48 58  1  0
  7 59  1  0
  7 60  1  0
  5 61  1  0
  5 62  1  0
  2 63  1  0
  1 64  1  0
  1 65  1  0
  1 66  1  0
 54  6  1  0
 29  8  1  0
 37 32  1  0
 53 47  1  0
 21 12  1  0
 21 16  1  0
M  END
>  <cnnaffinities>  (92) 
[6.89699]

>  <score>  (92) 
6.89699

>  <index>  (92) 
95

>  <Smiles>  (92) 
C(N(C(=O)C(N1C([C@@]2(C(=O)N(c3c(nc(c4c(c(c(c(c34)[H])[H])[H])[H])[H])[H])C([C@@]2(C(N(c2c(c(nc(n2)[H])[H])[H])[H])([H])[H])[H])([H])[H])c2c(c(Cl)c(c(c2C1=O)[H])[H])[H])([H])[H])([H])[H])[H])([H])([H])[H]

>  <h>  (92) 
<NA>

>  <Training>  (92) 
True

>  <Success>  (92) 
True

>  <enamine_searched>  (92) 
False

>  <enamine_id>  (92) 
nan

$$$$

     RDKit          3D

 66 70  0  0  0  0  0  0  0  0999 V2000
   -7.3531    3.4230  -21.9026 C   0  0  0  0  0  0  0  0  0  0  0  0
   -8.3086    2.9293  -22.8827 N   0  0  0  0  0  0  0  0  0  0  0  0
   -7.8009    2.2311  -23.9389 C   0  0  0  0  0  0  0  0  0  0  0  0
   -6.6010    2.0612  -24.0783 O   0  0  0  0  0  0  0  0  0  0  0  0
   -8.8136    1.6476  -24.9264 C   0  0  0  0  0  0  0  0  0  0  0  0
   -9.4629    0.4865  -24.3435 N   0  0  0  0  0  0  0  0  0  0  0  0
   -8.6979   -0.7412  -24.1623 C   0  0  0  0  0  0  0  0  0  0  0  0
   -9.0955   -1.4984  -22.8675 C   0  0  2  0  0  0  0  0  0  0  0  0
   -8.5728   -0.7451  -21.6215 C   0  0  0  0  0  0  0  0  0  0  0  0
   -9.0525    0.2360  -21.0892 O   0  0  0  0  0  0  0  0  0  0  0  0
   -7.4200   -1.3621  -21.1946 N   0  0  0  0  0  0  0  0  0  0  0  0
   -6.6311   -0.7879  -20.1674 C   0  0  0  0  0  0  0  0  0  0  0  0
   -6.9369   -1.0409  -18.8553 C   0  0  0  0  0  0  0  0  0  0  0  0
   -6.2322   -0.5706  -17.7989 N   0  0  0  0  0  0  0  0  0  0  0  0
   -5.1950    0.1895  -18.0588 C   0  0  0  0  0  0  0  0  0  0  0  0
   -4.7719    0.5420  -19.3730 C   0  0  0  0  0  0  0  0  0  0  0  0
   -3.6446    1.3746  -19.6059 C   0  0  0  0  0  0  0  0  0  0  0  0
   -3.2840    1.7178  -20.8809 C   0  0  0  0  0  0  0  0  0  0  0  0
   -4.0396    1.2580  -21.9823 C   0  0  0  0  0  0  0  0  0  0  0  0
   -5.1256    0.4362  -21.7854 C   0  0  0  0  0  0  0  0  0  0  0  0
   -5.5158    0.0508  -20.4729 C   0  0  0  0  0  0  0  0  0  0  0  0
   -5.6925    0.0901  -22.6443 H   0  0  0  0  0  0  0  0  0  0  0  0
   -3.7579    1.5399  -22.9923 H   0  0  0  0  0  0  0  0  0  0  0  0
   -2.4148    2.3456  -21.0545 H   0  0  0  0  0  0  0  0  0  0  0  0
   -3.0881    1.7366  -18.7458 H   0  0  0  0  0  0  0  0  0  0  0  0
   -4.6302    0.5722  -17.2078 H   0  0  0  0  0  0  0  0  0  0  0  0
   -7.7959   -1.6645  -18.6219 H   0  0  0  0  0  0  0  0  0  0  0  0
   -7.0470   -2.5354  -21.9589 C   0  0  0  0  0  0  0  0  0  0  0  0
   -8.3315   -2.8581  -22.7378 C   0  0  2  0  0  0  0  0  0  0  0  0
   -8.0644   -3.6440  -24.0214 C   0  0  0  0  0  0  0  0  0  0  0  0
   -9.2724   -4.1196  -24.5816 O   0  0  0  0  0  0  0  0  0  0  0  0
   -9.5467   -5.5041  -24.3594 C   0  0  0  0  0  0  0  0  0  0  0  0
  -11.0531   -5.7010  -24.3417 C   0  0  0  0  0  0  0  0  0  0  0  0
  -11.2976   -6.7106  -23.9868 H   0  0  0  0  0  0  0  0  0  0  0  0
  -11.5442   -4.9800  -23.6799 H   0  0  0  0  0  0  0  0  0  0  0  0
  -11.4525   -5.5950  -25.3546 H   0  0  0  0  0  0  0  0  0  0  0  0
   -8.9102   -6.3650  -25.4485 C   0  0  0  0  0  0  0  0  0  0  0  0
   -9.2948   -7.3892  -25.3766 H   0  0  0  0  0  0  0  0  0  0  0  0
   -7.8174   -6.3993  -25.3778 H   0  0  0  0  0  0  0  0  0  0  0  0
   -9.1862   -5.9647  -26.4302 H   0  0  0  0  0  0  0  0  0  0  0  0
   -9.1600   -5.7942  -23.3696 H   0  0  0  0  0  0  0  0  0  0  0  0
   -7.3557   -4.4666  -23.8199 H   0  0  0  0  0  0  0  0  0  0  0  0
   -7.5825   -2.9968  -24.7650 H   0  0  0  0  0  0  0  0  0  0  0  0
   -8.9425   -3.4997  -22.0988 H   0  0  0  0  0  0  0  0  0  0  0  0
   -6.1970   -2.3310  -22.6308 H   0  0  0  0  0  0  0  0  0  0  0  0
   -6.7467   -3.3520  -21.2908 H   0  0  0  0  0  0  0  0  0  0  0  0
  -10.6088   -1.5804  -22.8231 C   0  0  0  0  0  0  0  0  0  0  0  0
  -11.2352   -2.4371  -21.9063 C   0  0  0  0  0  0  0  0  0  0  0  0
  -12.6129   -2.4074  -21.7621 C   0  0  0  0  0  0  0  0  0  0  0  0
  -13.3839   -3.2449  -20.4460 Cl  0  0  0  0  0  0  0  0  0  0  0  0
  -13.4103   -1.6240  -22.5962 C   0  0  0  0  0  0  0  0  0  0  0  0
  -12.7987   -0.7733  -23.4930 C   0  0  0  0  0  0  0  0  0  0  0  0
  -11.4110   -0.6910  -23.5526 C   0  0  0  0  0  0  0  0  0  0  0  0
  -10.8276    0.4795  -24.2823 C   0  0  0  0  0  0  0  0  0  0  0  0
  -11.5192    1.3797  -24.7437 O   0  0  0  0  0  0  0  0  0  0  0  0
  -13.3649   -0.0932  -24.1163 H   0  0  0  0  0  0  0  0  0  0  0  0
  -14.4867   -1.6294  -22.4773 H   0  0  0  0  0  0  0  0  0  0  0  0
  -10.6494   -3.0965  -21.2766 H   0  0  0  0  0  0  0  0  0  0  0  0
   -8.8687   -1.4221  -25.0077 H   0  0  0  0  0  0  0  0  0  0  0  0
   -7.6334   -0.4885  -24.1497 H   0  0  0  0  0  0  0  0  0  0  0  0
   -9.6097    2.3544  -25.1855 H   0  0  0  0  0  0  0  0  0  0  0  0
   -8.2806    1.3832  -25.8473 H   0  0  0  0  0  0  0  0  0  0  0  0
   -9.2445    2.7260  -22.5585 H   0  0  0  0  0  0  0  0  0  0  0  0
   -6.7860    2.5813  -21.4792 H   0  0  0  0  0  0  0  0  0  0  0  0
   -6.6543    4.1179  -22.3767 H   0  0  0  0  0  0  0  0  0  0  0  0
   -7.8784    3.9817  -21.1265 H   0  0  0  0  0  0  0  0  0  0  0  0
  1  2  1  0
  2  3  1  0
  3  4  2  0
  3  5  1  0
  5  6  1  0
  6  7  1  0
  8  7  1  6
  8  9  1  0
  9 10  2  0
  9 11  1  0
 11 12  1  0
 12 13  2  0
 13 14  1  0
 14 15  2  0
 15 16  1  0
 16 17  2  0
 17 18  1  0
 18 19  2  0
 19 20  1  0
 20 21  2  0
 20 22  1  0
 19 23  1  0
 18 24  1  0
 17 25  1  0
 15 26  1  0
 13 27  1  0
 11 28  1  0
 28 29  1  0
 29 30  1  0
 30 31  1  0
 31 32  1  0
 32 33  1  0
 33 34  1  0
 33 35  1  0
 33 36  1  0
 32 37  1  0
 37 38  1  0
 37 39  1  0
 37 40  1  0
 32 41  1  0
 30 42  1  0
 30 43  1  0
 29 44  1  1
 28 45  1  0
 28 46  1  0
  8 47  1  0
 47 48  2  0
 48 49  1  0
 49 50  1  0
 49 51  2  0
 51 52  1  0
 52 53  2  0
 53 54  1  0
 54 55  2  0
 52 56  1  0
 51 57  1  0
 48 58  1  0
  7 59  1  0
  7 60  1  0
  5 61  1  0
  5 62  1  0
  2 63  1  0
  1 64  1  0
  1 65  1  0
  1 66  1  0
 54  6  1  0
 29  8  1  0
 53 47  1  0
 21 12  1  0
 21 16  1  0
M  END
>  <cnnaffinities>  (93) 
[6.45795, 6.15147, 6.66598]

>  <score>  (93) 
6.45795

>  <index>  (93) 
96

>  <Smiles>  (93) 
C(N(C(=O)C(N1C([C@@]2(C(=O)N(c3c(nc(c4c(c(c(c(c34)[H])[H])[H])[H])[H])[H])C([C@@]2(C(OC(C([H])([H])[H])(C([H])([H])[H])[H])([H])[H])[H])([H])[H])c2c(c(Cl)c(c(c2C1=O)[H])[H])[H])([H])[H])([H])[H])[H])([H])([H])[H]

>  <h>  (93) 
<NA>

>  <Training>  (93) 
True

>  <Success>  (93) 
True

>  <enamine_searched>  (93) 
False

>  <enamine_id>  (93) 
nan

$$$$

     RDKit          3D

 40 43  0  0  0  0  0  0  0  0999 V2000
   -8.7555   -6.1155  -24.3479 C   0  0  0  0  0  0  0  0  0  0  0  0
   -9.0402   -5.0577  -23.2941 C   0  0  2  0  0  0  0  0  0  0  0  0
  -10.5548   -5.0242  -23.0532 C   0  0  0  0  0  0  0  0  0  0  0  0
  -11.0133   -3.7965  -22.5134 O   0  0  0  0  0  0  0  0  0  0  0  0
  -10.0650   -3.2193  -21.6527 C   0  0  0  0  0  0  0  0  0  0  0  0
   -8.8493   -2.7107  -22.4666 C   0  0  1  0  0  0  0  0  0  0  0  0
   -8.5890   -3.6482  -23.6539 C   0  0  0  0  0  0  0  0  0  0  0  0
   -9.1251   -3.2734  -24.5349 H   0  0  0  0  0  0  0  0  0  0  0  0
   -7.5230   -3.6277  -23.8997 H   0  0  0  0  0  0  0  0  0  0  0  0
   -9.0061   -1.3173  -22.8878 N   0  0  0  0  0  0  0  0  0  0  0  0
   -8.3576   -0.4402  -22.0447 C   0  0  0  0  0  0  0  0  0  0  0  0
   -8.4379    0.7615  -21.9732 O   0  0  0  0  0  0  0  0  0  0  0  0
   -7.5185   -1.2348  -21.2387 N   0  0  0  0  0  0  0  0  0  0  0  0
   -6.6774   -0.7358  -20.2068 C   0  0  0  0  0  0  0  0  0  0  0  0
   -6.9375   -1.0571  -18.8981 C   0  0  0  0  0  0  0  0  0  0  0  0
   -6.2409   -0.5876  -17.8344 N   0  0  0  0  0  0  0  0  0  0  0  0
   -5.2341    0.2084  -18.0927 C   0  0  0  0  0  0  0  0  0  0  0  0
   -4.8376    0.5989  -19.3986 C   0  0  0  0  0  0  0  0  0  0  0  0
   -3.6867    1.4010  -19.5907 C   0  0  0  0  0  0  0  0  0  0  0  0
   -3.2899    1.7304  -20.8530 C   0  0  0  0  0  0  0  0  0  0  0  0
   -4.0239    1.2726  -21.9652 C   0  0  0  0  0  0  0  0  0  0  0  0
   -5.1284    0.4758  -21.8034 C   0  0  0  0  0  0  0  0  0  0  0  0
   -5.5741    0.1238  -20.5013 C   0  0  0  0  0  0  0  0  0  0  0  0
   -5.6406    0.0891  -22.6754 H   0  0  0  0  0  0  0  0  0  0  0  0
   -3.6760    1.5106  -22.9627 H   0  0  0  0  0  0  0  0  0  0  0  0
   -2.3970    2.3235  -21.0056 H   0  0  0  0  0  0  0  0  0  0  0  0
   -3.1229    1.7123  -18.7168 H   0  0  0  0  0  0  0  0  0  0  0  0
   -4.6491    0.5504  -17.2437 H   0  0  0  0  0  0  0  0  0  0  0  0
   -7.7646   -1.7172  -18.6534 H   0  0  0  0  0  0  0  0  0  0  0  0
   -7.6245   -2.5784  -21.5629 C   0  0  0  0  0  0  0  0  0  0  0  0
   -6.8549   -3.4391  -21.2170 O   0  0  0  0  0  0  0  0  0  0  0  0
   -9.8883   -1.0172  -23.2753 H   0  0  0  0  0  0  0  0  0  0  0  0
  -10.5352   -2.3766  -21.1345 H   0  0  0  0  0  0  0  0  0  0  0  0
   -9.7512   -3.9483  -20.8958 H   0  0  0  0  0  0  0  0  0  0  0  0
  -11.0665   -5.1632  -24.0173 H   0  0  0  0  0  0  0  0  0  0  0  0
  -10.8428   -5.8512  -22.3950 H   0  0  0  0  0  0  0  0  0  0  0  0
   -8.5088   -5.3487  -22.3774 H   0  0  0  0  0  0  0  0  0  0  0  0
   -9.2547   -5.8505  -25.2844 H   0  0  0  0  0  0  0  0  0  0  0  0
   -9.1429   -7.0881  -24.0241 H   0  0  0  0  0  0  0  0  0  0  0  0
   -7.6913   -6.2354  -24.5665 H   0  0  0  0  0  0  0  0  0  0  0  0
  1  2  1  0
  2  3  1  0
  3  4  1  0
  4  5  1  0
  5  6  1  0
  6  7  1  0
  7  8  1  0
  7  9  1  0
  6 10  1  6
 10 11  1  0
 11 12  2  0
 11 13  1  0
 13 14  1  0
 14 15  2  0
 15 16  1  0
 16 17  2  0
 17 18  1  0
 18 19  2  0
 19 20  1  0
 20 21  2  0
 21 22  1  0
 22 23  2  0
 22 24  1  0
 21 25  1  0
 20 26  1  0
 19 27  1  0
 17 28  1  0
 15 29  1  0
 13 30  1  0
 30 31  2  0
 10 32  1  0
  5 33  1  0
  5 34  1  0
  3 35  1  0
  3 36  1  0
  2 37  1  1
  1 38  1  0
  1 39  1  0
  1 40  1  0
  7  2  1  0
 23 14  1  0
 30  6  1  0
 23 18  1  0
M  END
>  <cnnaffinities>  (94) 
[4.98527, 4.63112]

>  <score>  (94) 
4.98527

>  <index>  (94) 
97

>  <Smiles>  (94) 
C([C@@]1(C(OC([C@@]2(C1([H])[H])N(C(=O)N(c1c(nc(c3c(c(c(c(c13)[H])[H])[H])[H])[H])[H])C2=O)[H])([H])[H])([H])[H])[H])([H])([H])[H]

>  <h>  (94) 
<NA>

>  <Training>  (94) 
True

>  <Success>  (94) 
True

>  <enamine_searched>  (94) 
False

>  <enamine_id>  (94) 
nan

$$$$
