
     RDKit          3D

 66 71  0  0  0  0  0  0  0  0999 V2000
   -7.4690    3.2937  -21.6963 C   0  0  0  0  0  0  0  0  0  0  0  0
   -8.3550    2.8489  -22.7529 N   0  0  0  0  0  0  0  0  0  0  0  0
   -7.7999    2.2016  -23.7965 C   0  0  0  0  0  0  0  0  0  0  0  0
   -6.5860    2.1235  -23.9390 O   0  0  0  0  0  0  0  0  0  0  0  0
   -8.7582    1.5803  -24.8202 C   0  0  0  0  0  0  0  0  0  0  0  0
   -9.4613    0.4096  -24.3287 N   0  0  0  0  0  0  0  0  0  0  0  0
   -8.7247   -0.8354  -24.1922 C   0  0  0  0  0  0  0  0  0  0  0  0
   -9.0837   -1.5716  -22.8752 C   0  0  2  0  0  0  0  0  0  0  0  0
   -8.5443   -0.7708  -21.6553 C   0  0  0  0  0  0  0  0  0  0  0  0
   -9.0270    0.2269  -21.1592 O   0  0  0  0  0  0  0  0  0  0  0  0
   -7.3982   -1.3822  -21.2041 N   0  0  0  0  0  0  0  0  0  0  0  0
   -6.6051   -0.8075  -20.1771 C   0  0  0  0  0  0  0  0  0  0  0  0
   -6.9072   -1.0421  -18.8601 C   0  0  0  0  0  0  0  0  0  0  0  0
   -6.1988   -0.5474  -17.8178 N   0  0  0  0  0  0  0  0  0  0  0  0
   -5.1651    0.2094  -18.0816 C   0  0  0  0  0  0  0  0  0  0  0  0
   -4.7280    0.5320  -19.3974 C   0  0  0  0  0  0  0  0  0  0  0  0
   -3.6020    1.3668  -19.6422 C   0  0  0  0  0  0  0  0  0  0  0  0
   -3.2182    1.6609  -20.9210 C   0  0  0  0  0  0  0  0  0  0  0  0
   -3.9430    1.1335  -22.0133 C   0  0  0  0  0  0  0  0  0  0  0  0
   -5.0344    0.3248  -21.8016 C   0  0  0  0  0  0  0  0  0  0  0  0
   -5.4638    0.0025  -20.4862 C   0  0  0  0  0  0  0  0  0  0  0  0
   -5.5948   -0.0542  -22.6515 H   0  0  0  0  0  0  0  0  0  0  0  0
   -3.6557    1.3747  -23.0306 H   0  0  0  0  0  0  0  0  0  0  0  0
   -2.3675    2.3131  -21.1012 H   0  0  0  0  0  0  0  0  0  0  0  0
   -3.0708    1.7726  -18.7847 H   0  0  0  0  0  0  0  0  0  0  0  0
   -4.6171    0.6121  -17.2292 H   0  0  0  0  0  0  0  0  0  0  0  0
   -7.7563   -1.6684  -18.5982 H   0  0  0  0  0  0  0  0  0  0  0  0
   -7.0299   -2.5753  -21.9343 C   0  0  0  0  0  0  0  0  0  0  0  0
   -8.3052   -2.9224  -22.7296 C   0  0  2  0  0  0  0  0  0  0  0  0
   -7.9947   -3.7282  -24.0182 C   0  0  0  0  0  0  0  0  0  0  0  0
   -7.4779   -5.0646  -23.7795 N   0  0  0  0  0  0  0  0  0  0  0  0
   -6.1883   -5.3892  -23.5147 C   0  0  0  0  0  0  0  0  0  0  0  0
   -5.0981   -4.6011  -23.9355 C   0  0  0  0  0  0  0  0  0  0  0  0
   -3.8413   -5.0617  -23.5908 C   0  0  0  0  0  0  0  0  0  0  0  0
   -3.6404   -6.1827  -22.8822 N   0  0  0  0  0  0  0  0  0  0  0  0
   -4.7423   -6.8529  -22.5603 C   0  0  0  0  0  0  0  0  0  0  0  0
   -6.0017   -6.5417  -22.8445 N   0  0  0  0  0  0  0  0  0  0  0  0
   -4.5854   -7.7765  -21.9885 H   0  0  0  0  0  0  0  0  0  0  0  0
   -2.9409   -4.5114  -23.8921 H   0  0  0  0  0  0  0  0  0  0  0  0
   -5.2448   -3.6909  -24.5170 H   0  0  0  0  0  0  0  0  0  0  0  0
   -8.1232   -5.7906  -23.5087 H   0  0  0  0  0  0  0  0  0  0  0  0
   -7.2735   -3.1766  -24.6387 H   0  0  0  0  0  0  0  0  0  0  0  0
   -8.9097   -3.8577  -24.6059 H   0  0  0  0  0  0  0  0  0  0  0  0
   -8.9319   -3.5615  -22.1023 H   0  0  0  0  0  0  0  0  0  0  0  0
   -6.1755   -2.3809  -22.6031 H   0  0  0  0  0  0  0  0  0  0  0  0
   -6.7273   -3.3738  -21.2492 H   0  0  0  0  0  0  0  0  0  0  0  0
  -10.6003   -1.6473  -22.7884 C   0  0  0  0  0  0  0  0  0  0  0  0
  -11.2175   -2.5586  -21.9233 C   0  0  0  0  0  0  0  0  0  0  0  0
  -12.5954   -2.5967  -21.8207 C   0  0  0  0  0  0  0  0  0  0  0  0
  -13.3469   -3.7327  -20.7397 Cl  0  0  0  0  0  0  0  0  0  0  0  0
  -13.4064   -1.7314  -22.5535 C   0  0  0  0  0  0  0  0  0  0  0  0
  -12.8054   -0.7843  -23.3568 C   0  0  0  0  0  0  0  0  0  0  0  0
  -11.4154   -0.7173  -23.4531 C   0  0  0  0  0  0  0  0  0  0  0  0
  -10.8253    0.4341  -24.2162 C   0  0  0  0  0  0  0  0  0  0  0  0
  -11.5162    1.3354  -24.6653 O   0  0  0  0  0  0  0  0  0  0  0  0
  -13.3855   -0.0544  -23.9119 H   0  0  0  0  0  0  0  0  0  0  0  0
  -14.4845   -1.7958  -22.4634 H   0  0  0  0  0  0  0  0  0  0  0  0
  -10.6351   -3.2288  -21.3026 H   0  0  0  0  0  0  0  0  0  0  0  0
   -7.6622   -0.5758  -24.1947 H   0  0  0  0  0  0  0  0  0  0  0  0
   -8.9352   -1.5002  -25.0463 H   0  0  0  0  0  0  0  0  0  0  0  0
   -9.5395    2.2805  -25.1293 H   0  0  0  0  0  0  0  0  0  0  0  0
   -8.1271    1.3277  -25.6801 H   0  0  0  0  0  0  0  0  0  0  0  0
   -9.3484    2.7711  -22.5846 H   0  0  0  0  0  0  0  0  0  0  0  0
   -6.8464    2.4602  -21.3445 H   0  0  0  0  0  0  0  0  0  0  0  0
   -8.0756    3.6743  -20.8886 H   0  0  0  0  0  0  0  0  0  0  0  0
   -6.8100    4.0913  -22.0533 H   0  0  0  0  0  0  0  0  0  0  0  0
  1  2  1  0
  2  3  1  0
  3  4  2  0
  3  5  1  0
  5  6  1  0
  6  7  1  0
  8  7  1  6
  8  9  1  0
  9 10  2  0
  9 11  1  0
 11 12  1  0
 12 13  2  0
 13 14  1  0
 14 15  2  0
 15 16  1  0
 16 17  2  0
 17 18  1  0
 18 19  2  0
 19 20  1  0
 20 21  2  0
 20 22  1  0
 19 23  1  0
 18 24  1  0
 17 25  1  0
 15 26  1  0
 13 27  1  0
 11 28  1  0
 28 29  1  0
 29 30  1  0
 30 31  1  0
 31 32  1  0
 32 33  2  0
 33 34  1  0
 34 35  2  0
 35 36  1  0
 36 37  2  0
 36 38  1  0
 34 39  1  0
 33 40  1  0
 31 41  1  0
 30 42  1  0
 30 43  1  0
 29 44  1  1
 28 45  1  0
 28 46  1  0
  8 47  1  0
 47 48  2  0
 48 49  1  0
 49 50  1  0
 49 51  2  0
 51 52  1  0
 52 53  2  0
 53 54  1  0
 54 55  2  0
 52 56  1  0
 51 57  1  0
 48 58  1  0
  7 59  1  0
  7 60  1  0
  5 61  1  0
  5 62  1  0
  2 63  1  0
  1 64  1  0
  1 65  1  0
  1 66  1  0
 54  6  1  0
 29  8  1  0
 37 32  1  0
 53 47  1  0
 21 12  1  0
 21 16  1  0
M  END
>  <cnnaffinities>  (1) 
[7.09377, 6.9793]

>  <score>  (1) 
7.09377

>  <index>  (1) 
0

>  <Smiles>  (1) 
C(N(C(=O)C(N1C([C@@]2(C(=O)N(c3c(nc(c4c(c(c(c(c34)[H])[H])[H])[H])[H])[H])C([C@@]2(C(N(c2c(c(nc(n2)[H])[H])[H])[H])([H])[H])[H])([H])[H])c2c(c(Cl)c(c(c2C1=O)[H])[H])[H])([H])[H])([H])[H])[H])([H])([H])[H]

>  <h>  (1) 
<NA>

>  <Training>  (1) 
True

>  <Success>  (1) 
True

>  <enamine_searched>  (1) 
False

>  <enamine_id>  (1) 
nan

$$$$

     RDKit          3D

 68 73  0  0  0  0  0  0  0  0999 V2000
   -7.5308    3.2019  -21.6343 C   0  0  0  0  0  0  0  0  0  0  0  0
   -8.5159    2.8317  -22.6211 N   0  0  0  0  0  0  0  0  0  0  0  0
   -8.0428    2.1703  -23.7059 C   0  0  0  0  0  0  0  0  0  0  0  0
   -6.8395    2.0466  -23.8971 O   0  0  0  0  0  0  0  0  0  0  0  0
   -9.0415    1.5782  -24.6790 C   0  0  0  0  0  0  0  0  0  0  0  0
   -9.6597    0.3768  -24.1653 N   0  0  0  0  0  0  0  0  0  0  0  0
   -8.8715   -0.8400  -24.0862 C   0  0  0  0  0  0  0  0  0  0  0  0
   -9.1546   -1.6203  -22.7792 C   0  0  2  0  0  0  0  0  0  0  0  0
   -8.5998   -0.8282  -21.5727 C   0  0  0  0  0  0  0  0  0  0  0  0
   -9.1092    0.1342  -21.0349 O   0  0  0  0  0  0  0  0  0  0  0  0
   -7.4003   -1.3893  -21.1976 N   0  0  0  0  0  0  0  0  0  0  0  0
   -6.6013   -0.8172  -20.1750 C   0  0  0  0  0  0  0  0  0  0  0  0
   -6.9117   -1.0452  -18.8550 C   0  0  0  0  0  0  0  0  0  0  0  0
   -6.2064   -0.5480  -17.8134 N   0  0  0  0  0  0  0  0  0  0  0  0
   -5.1704    0.2085  -18.0817 C   0  0  0  0  0  0  0  0  0  0  0  0
   -4.7363    0.5273  -19.4003 C   0  0  0  0  0  0  0  0  0  0  0  0
   -3.6157    1.3673  -19.6408 C   0  0  0  0  0  0  0  0  0  0  0  0
   -3.2340    1.6683  -20.9219 C   0  0  0  0  0  0  0  0  0  0  0  0
   -3.9552    1.1439  -22.0166 C   0  0  0  0  0  0  0  0  0  0  0  0
   -5.0455    0.3284  -21.8097 C   0  0  0  0  0  0  0  0  0  0  0  0
   -5.4652   -0.0038  -20.4907 C   0  0  0  0  0  0  0  0  0  0  0  0
   -5.6069   -0.0328  -22.6658 H   0  0  0  0  0  0  0  0  0  0  0  0
   -3.6618    1.3911  -23.0327 H   0  0  0  0  0  0  0  0  0  0  0  0
   -2.3843    2.3222  -21.1010 H   0  0  0  0  0  0  0  0  0  0  0  0
   -3.0796    1.7672  -18.7855 H   0  0  0  0  0  0  0  0  0  0  0  0
   -4.6097    0.6073  -17.2365 H   0  0  0  0  0  0  0  0  0  0  0  0
   -7.7716   -1.6634  -18.6024 H   0  0  0  0  0  0  0  0  0  0  0  0
   -7.0317   -2.5675  -21.9557 C   0  0  0  0  0  0  0  0  0  0  0  0
   -8.3236   -2.9413  -22.7067 C   0  0  2  0  0  0  0  0  0  0  0  0
   -8.0601   -3.6595  -24.0424 C   0  0  0  0  0  0  0  0  0  0  0  0
   -7.4504   -4.9554  -23.8576 N   0  0  0  0  0  0  0  0  0  0  0  0
   -7.1042   -5.7575  -24.9368 C   0  0  0  0  0  0  0  0  0  0  0  0
   -6.4694   -7.0307  -24.9086 C   0  0  0  0  0  0  0  0  0  0  0  0
   -6.2824   -7.5069  -26.1327 N   0  0  0  0  0  0  0  0  0  0  0  0
   -6.7941   -6.5872  -26.9493 N   0  0  0  0  0  0  0  0  0  0  0  0
   -6.7353   -6.7646  -28.3773 C   0  0  0  0  0  0  0  0  0  0  0  0
   -5.8845   -6.2244  -28.8088 H   0  0  0  0  0  0  0  0  0  0  0  0
   -6.6211   -7.8322  -28.5708 H   0  0  0  0  0  0  0  0  0  0  0  0
   -7.6638   -6.4006  -28.8281 H   0  0  0  0  0  0  0  0  0  0  0  0
   -7.2913   -5.5120  -26.2822 C   0  0  0  0  0  0  0  0  0  0  0  0
   -7.7371   -4.6872  -26.8298 H   0  0  0  0  0  0  0  0  0  0  0  0
   -6.1301   -7.6204  -24.0662 H   0  0  0  0  0  0  0  0  0  0  0  0
   -7.2010   -5.2758  -22.9381 H   0  0  0  0  0  0  0  0  0  0  0  0
   -9.0027   -3.7790  -24.5981 H   0  0  0  0  0  0  0  0  0  0  0  0
   -7.4128   -3.0272  -24.6707 H   0  0  0  0  0  0  0  0  0  0  0  0
   -8.8810   -3.6387  -22.0787 H   0  0  0  0  0  0  0  0  0  0  0  0
   -6.2128   -2.3391  -22.6545 H   0  0  0  0  0  0  0  0  0  0  0  0
   -6.6895   -3.3608  -21.2812 H   0  0  0  0  0  0  0  0  0  0  0  0
  -10.6641   -1.7622  -22.6486 C   0  0  0  0  0  0  0  0  0  0  0  0
  -11.2207   -2.7352  -21.8106 C   0  0  0  0  0  0  0  0  0  0  0  0
  -12.5939   -2.8010  -21.6443 C   0  0  0  0  0  0  0  0  0  0  0  0
  -13.2731   -3.9556  -20.5314 Cl  0  0  0  0  0  0  0  0  0  0  0  0
  -13.4567   -1.9340  -22.3154 C   0  0  0  0  0  0  0  0  0  0  0  0
  -12.9205   -0.9410  -23.1107 C   0  0  0  0  0  0  0  0  0  0  0  0
  -11.5360   -0.8375  -23.2473 C   0  0  0  0  0  0  0  0  0  0  0  0
  -11.0172    0.3521  -23.9915 C   0  0  0  0  0  0  0  0  0  0  0  0
  -11.7595    1.2436  -24.3828 O   0  0  0  0  0  0  0  0  0  0  0  0
  -13.5408   -0.2059  -23.6191 H   0  0  0  0  0  0  0  0  0  0  0  0
  -14.5262   -2.0373  -22.1795 H   0  0  0  0  0  0  0  0  0  0  0  0
  -10.5903   -3.4284  -21.2652 H   0  0  0  0  0  0  0  0  0  0  0  0
   -9.1167   -1.4890  -24.9384 H   0  0  0  0  0  0  0  0  0  0  0  0
   -7.8140   -0.5611  -24.1450 H   0  0  0  0  0  0  0  0  0  0  0  0
   -8.4575    1.3588  -25.5776 H   0  0  0  0  0  0  0  0  0  0  0  0
   -9.8579    2.2693  -24.8937 H   0  0  0  0  0  0  0  0  0  0  0  0
   -9.4690    2.7438  -22.3069 H   0  0  0  0  0  0  0  0  0  0  0  0
   -8.0169    3.4518  -20.7038 H   0  0  0  0  0  0  0  0  0  0  0  0
   -6.8470    2.3757  -21.4501 H   0  0  0  0  0  0  0  0  0  0  0  0
   -6.9282    4.0341  -21.9869 H   0  0  0  0  0  0  0  0  0  0  0  0
  1  2  1  0
  2  3  1  0
  3  4  2  0
  3  5  1  0
  5  6  1  0
  6  7  1  0
  8  7  1  6
  8  9  1  0
  9 10  2  0
  9 11  1  0
 11 12  1  0
 12 13  2  0
 13 14  1  0
 14 15  2  0
 15 16  1  0
 16 17  2  0
 17 18  1  0
 18 19  2  0
 19 20  1  0
 20 21  2  0
 20 22  1  0
 19 23  1  0
 18 24  1  0
 17 25  1  0
 15 26  1  0
 13 27  1  0
 11 28  1  0
 28 29  1  0
 29 30  1  0
 30 31  1  0
 31 32  1  0
 32 33  1  0
 33 34  2  0
 34 35  1  0
 35 36  1  0
 36 37  1  0
 36 38  1  0
 36 39  1  0
 35 40  1  0
 40 41  1  0
 33 42  1  0
 31 43  1  0
 30 44  1  0
 30 45  1  0
 29 46  1  1
 28 47  1  0
 28 48  1  0
  8 49  1  0
 49 50  2  0
 50 51  1  0
 51 52  1  0
 51 53  2  0
 53 54  1  0
 54 55  2  0
 55 56  1  0
 56 57  2  0
 54 58  1  0
 53 59  1  0
 50 60  1  0
  7 61  1  0
  7 62  1  0
  5 63  1  0
  5 64  1  0
  2 65  1  0
  1 66  1  0
  1 67  1  0
  1 68  1  0
 56  6  1  0
 29  8  1  0
 40 32  2  0
 55 49  1  0
 21 12  1  0
 21 16  1  0
M  END
>  <cnnaffinities>  (2) 
[7.14906, 6.94567, 7.14345, 7.02145]

>  <score>  (2) 
7.14906

>  <index>  (2) 
1

>  <Smiles>  (2) 
C(N(C(=O)C(N1C([C@@]2(C(=O)N(c3c(nc(c4c(c(c(c(c34)[H])[H])[H])[H])[H])[H])C([C@@]2(C(N(c2c(nn(C([H])([H])[H])c2[H])[H])[H])([H])[H])[H])([H])[H])c2c(c(Cl)c(c(c2C1=O)[H])[H])[H])([H])[H])([H])[H])[H])([H])([H])[H]

>  <h>  (2) 
<NA>

>  <Training>  (2) 
True

>  <Success>  (2) 
True

>  <enamine_searched>  (2) 
False

>  <enamine_id>  (2) 
nan

$$$$

     RDKit          3D

 60 65  0  0  0  0  0  0  0  0999 V2000
   -9.4309    0.2178  -31.1552 C   0  0  0  0  0  0  0  0  0  0  0  0
   -9.2112    0.4370  -29.6918 C   0  0  0  0  0  0  0  0  0  0  0  0
   -9.9987    1.3438  -28.9761 C   0  0  0  0  0  0  0  0  0  0  0  0
   -9.8127    1.5566  -27.6816 N   0  0  0  0  0  0  0  0  0  0  0  0
   -8.8269    0.8794  -27.0838 C   0  0  0  0  0  0  0  0  0  0  0  0
   -8.6273    1.1513  -25.6152 C   0  0  0  0  0  0  0  0  0  0  0  0
   -9.3620    0.2251  -24.7790 N   0  0  0  0  0  0  0  0  0  0  0  0
   -8.7744   -1.0675  -24.4872 C   0  0  0  0  0  0  0  0  0  0  0  0
   -8.9768   -1.4730  -23.0084 C   0  0  2  0  0  0  0  0  0  0  0  0
   -8.1520   -0.5535  -22.0796 C   0  0  0  0  0  0  0  0  0  0  0  0
   -8.1494    0.6545  -22.0794 O   0  0  0  0  0  0  0  0  0  0  0  0
   -7.3807   -1.3382  -21.2446 N   0  0  0  0  0  0  0  0  0  0  0  0
   -6.5886   -0.8039  -20.2044 C   0  0  0  0  0  0  0  0  0  0  0  0
   -6.8871   -1.0666  -18.8894 C   0  0  0  0  0  0  0  0  0  0  0  0
   -6.2037   -0.5608  -17.8341 N   0  0  0  0  0  0  0  0  0  0  0  0
   -5.1758    0.2090  -18.0913 C   0  0  0  0  0  0  0  0  0  0  0  0
   -4.7317    0.5218  -19.4078 C   0  0  0  0  0  0  0  0  0  0  0  0
   -3.6018    1.3506  -19.6316 C   0  0  0  0  0  0  0  0  0  0  0  0
   -3.1809    1.6209  -20.9048 C   0  0  0  0  0  0  0  0  0  0  0  0
   -3.8619    1.0690  -22.0118 C   0  0  0  0  0  0  0  0  0  0  0  0
   -4.9574    0.2654  -21.8220 C   0  0  0  0  0  0  0  0  0  0  0  0
   -5.4377   -0.0083  -20.5081 C   0  0  0  0  0  0  0  0  0  0  0  0
   -5.4686   -0.1553  -22.6823 H   0  0  0  0  0  0  0  0  0  0  0  0
   -3.5198    1.2825  -23.0211 H   0  0  0  0  0  0  0  0  0  0  0  0
   -2.3240    2.2660  -21.0741 H   0  0  0  0  0  0  0  0  0  0  0  0
   -3.0879    1.7626  -18.7683 H   0  0  0  0  0  0  0  0  0  0  0  0
   -4.6251    0.6182  -17.2426 H   0  0  0  0  0  0  0  0  0  0  0  0
   -7.7482   -1.6885  -18.6421 H   0  0  0  0  0  0  0  0  0  0  0  0
   -7.6988   -2.7430  -21.3222 C   0  0  0  0  0  0  0  0  0  0  0  0
   -8.4302   -2.8980  -22.6713 C   0  0  2  0  0  0  0  0  0  0  0  0
   -7.5595   -3.5747  -23.7323 C   0  0  0  0  0  0  0  0  0  0  0  0
   -7.2611   -4.5726  -23.3898 H   0  0  0  0  0  0  0  0  0  0  0  0
   -6.6523   -3.0071  -23.9597 H   0  0  0  0  0  0  0  0  0  0  0  0
   -8.1230   -3.7177  -24.6592 H   0  0  0  0  0  0  0  0  0  0  0  0
   -9.2740   -3.5780  -22.5520 H   0  0  0  0  0  0  0  0  0  0  0  0
   -8.3511   -3.0334  -20.4911 H   0  0  0  0  0  0  0  0  0  0  0  0
   -6.7818   -3.3384  -21.2536 H   0  0  0  0  0  0  0  0  0  0  0  0
  -10.4704   -1.3296  -22.7339 C   0  0  0  0  0  0  0  0  0  0  0  0
  -11.1045   -2.1575  -21.8035 C   0  0  0  0  0  0  0  0  0  0  0  0
  -12.4676   -2.0395  -21.6271 C   0  0  0  0  0  0  0  0  0  0  0  0
  -13.0819   -2.9164  -20.8126 F   0  0  0  0  0  0  0  0  0  0  0  0
  -13.2263   -1.0308  -22.2130 C   0  0  0  0  0  0  0  0  0  0  0  0
  -12.5818   -0.1667  -23.0786 C   0  0  0  0  0  0  0  0  0  0  0  0
  -11.2391   -0.3596  -23.3909 C   0  0  0  0  0  0  0  0  0  0  0  0
  -10.6347    0.5507  -24.4071 C   0  0  0  0  0  0  0  0  0  0  0  0
  -11.2201    1.5373  -24.8391 O   0  0  0  0  0  0  0  0  0  0  0  0
  -13.0717    0.6802  -23.5431 H   0  0  0  0  0  0  0  0  0  0  0  0
  -14.2826   -0.9503  -21.9831 H   0  0  0  0  0  0  0  0  0  0  0  0
  -10.5623   -2.9058  -21.2309 H   0  0  0  0  0  0  0  0  0  0  0  0
   -9.2460   -1.8382  -25.1100 H   0  0  0  0  0  0  0  0  0  0  0  0
   -7.7108   -1.0330  -24.7449 H   0  0  0  0  0  0  0  0  0  0  0  0
   -9.0184    2.1476  -25.3964 H   0  0  0  0  0  0  0  0  0  0  0  0
   -7.5682    1.0910  -25.3208 H   0  0  0  0  0  0  0  0  0  0  0  0
   -8.0555   -0.0379  -27.7911 C   0  0  0  0  0  0  0  0  0  0  0  0
   -8.2395   -0.2556  -29.0954 N   0  0  0  0  0  0  0  0  0  0  0  0
   -7.2414   -0.5822  -27.3048 H   0  0  0  0  0  0  0  0  0  0  0  0
  -10.7886    1.9218  -29.4633 H   0  0  0  0  0  0  0  0  0  0  0  0
  -10.2541   -0.4824  -31.3327 H   0  0  0  0  0  0  0  0  0  0  0  0
   -9.6789    1.1590  -31.6513 H   0  0  0  0  0  0  0  0  0  0  0  0
   -8.5315   -0.2016  -31.6073 H   0  0  0  0  0  0  0  0  0  0  0  0
  1  2  1  0
  2  3  2  0
  3  4  1  0
  4  5  2  0
  5  6  1  0
  6  7  1  0
  7  8  1  0
  9  8  1  6
  9 10  1  0
 10 11  2  0
 10 12  1  0
 12 13  1  0
 13 14  2  0
 14 15  1  0
 15 16  2  0
 16 17  1  0
 17 18  2  0
 18 19  1  0
 19 20  2  0
 20 21  1  0
 21 22  2  0
 21 23  1  0
 20 24  1  0
 19 25  1  0
 18 26  1  0
 16 27  1  0
 14 28  1  0
 12 29  1  0
 29 30  1  0
 30 31  1  0
 31 32  1  0
 31 33  1  0
 31 34  1  0
 30 35  1  1
 29 36  1  0
 29 37  1  0
  9 38  1  0
 38 39  2  0
 39 40  1  0
 40 41  1  0
 40 42  2  0
 42 43  1  0
 43 44  2  0
 44 45  1  0
 45 46  2  0
 43 47  1  0
 42 48  1  0
 39 49  1  0
  8 50  1  0
  8 51  1  0
  6 52  1  0
  6 53  1  0
  5 54  1  0
 54 55  2  0
 54 56  1  0
  3 57  1  0
  1 58  1  0
  1 59  1  0
  1 60  1  0
 55  2  1  0
 45  7  1  0
 30  9  1  0
 44 38  1  0
 22 13  1  0
 22 17  1  0
M  END
>  <cnnaffinities>  (3) 
[5.84535, 6.65533]

>  <score>  (3) 
5.84535

>  <index>  (3) 
2

>  <Smiles>  (3) 
C(c1c(nc(C(N2C([C@@]3(C(=O)N(c4c(nc(c5c(c(c(c(c45)[H])[H])[H])[H])[H])[H])C([C@@]3(C([H])([H])[H])[H])([H])[H])c3c(c(F)c(c(c3C2=O)[H])[H])[H])([H])[H])([H])[H])c(n1)[H])[H])([H])([H])[H]

>  <h>  (3) 
<NA>

>  <Training>  (3) 
True

>  <Success>  (3) 
True

>  <enamine_searched>  (3) 
False

>  <enamine_id>  (3) 
nan

$$$$

     RDKit          3D

 66 70  0  0  0  0  0  0  0  0999 V2000
   -7.4415    3.2931  -21.6890 C   0  0  0  0  0  0  0  0  0  0  0  0
   -8.3500    2.9009  -22.7431 N   0  0  0  0  0  0  0  0  0  0  0  0
   -7.8192    2.2420  -23.7967 C   0  0  0  0  0  0  0  0  0  0  0  0
   -6.6131    2.1315  -23.9457 O   0  0  0  0  0  0  0  0  0  0  0  0
   -8.7853    1.6436  -24.8117 C   0  0  0  0  0  0  0  0  0  0  0  0
   -9.4665    0.4627  -24.3242 N   0  0  0  0  0  0  0  0  0  0  0  0
   -8.7050   -0.7639  -24.1764 C   0  0  0  0  0  0  0  0  0  0  0  0
   -9.0683   -1.5191  -22.8767 C   0  0  2  0  0  0  0  0  0  0  0  0
   -8.5389   -0.7509  -21.6428 C   0  0  0  0  0  0  0  0  0  0  0  0
   -9.0181    0.2391  -21.1278 O   0  0  0  0  0  0  0  0  0  0  0  0
   -7.4019   -1.3792  -21.1974 N   0  0  0  0  0  0  0  0  0  0  0  0
   -6.6021   -0.8091  -20.1738 C   0  0  0  0  0  0  0  0  0  0  0  0
   -6.9122   -1.0404  -18.8569 C   0  0  0  0  0  0  0  0  0  0  0  0
   -6.2061   -0.5455  -17.8147 N   0  0  0  0  0  0  0  0  0  0  0  0
   -5.1700    0.2091  -18.0816 C   0  0  0  0  0  0  0  0  0  0  0  0
   -4.7343    0.5303  -19.3998 C   0  0  0  0  0  0  0  0  0  0  0  0
   -3.6077    1.3634  -19.6425 C   0  0  0  0  0  0  0  0  0  0  0  0
   -3.2209    1.6577  -20.9224 C   0  0  0  0  0  0  0  0  0  0  0  0
   -3.9456    1.1348  -22.0178 C   0  0  0  0  0  0  0  0  0  0  0  0
   -5.0395    0.3270  -21.8079 C   0  0  0  0  0  0  0  0  0  0  0  0
   -5.4661    0.0026  -20.4895 C   0  0  0  0  0  0  0  0  0  0  0  0
   -5.5984   -0.0446  -22.6619 H   0  0  0  0  0  0  0  0  0  0  0  0
   -3.6559    1.3791  -23.0350 H   0  0  0  0  0  0  0  0  0  0  0  0
   -2.3685    2.3089  -21.1000 H   0  0  0  0  0  0  0  0  0  0  0  0
   -3.0744    1.7644  -18.7848 H   0  0  0  0  0  0  0  0  0  0  0  0
   -4.6131    0.6070  -17.2330 H   0  0  0  0  0  0  0  0  0  0  0  0
   -7.7699   -1.6607  -18.6035 H   0  0  0  0  0  0  0  0  0  0  0  0
   -7.0421   -2.5683  -21.9431 C   0  0  0  0  0  0  0  0  0  0  0  0
   -8.3040   -2.8752  -22.7690 C   0  0  2  0  0  0  0  0  0  0  0  0
   -7.9721   -3.6134  -24.0738 C   0  0  0  0  0  0  0  0  0  0  0  0
   -9.1146   -3.9439  -24.8314 O   0  0  0  0  0  0  0  0  0  0  0  0
   -9.6955   -5.2129  -24.5490 C   0  0  0  0  0  0  0  0  0  0  0  0
  -11.1896   -5.0660  -24.7530 C   0  0  0  0  0  0  0  0  0  0  0  0
  -11.6929   -6.0166  -24.5534 H   0  0  0  0  0  0  0  0  0  0  0  0
  -11.5963   -4.3023  -24.0841 H   0  0  0  0  0  0  0  0  0  0  0  0
  -11.3993   -4.7585  -25.7805 H   0  0  0  0  0  0  0  0  0  0  0  0
   -9.0745   -6.3011  -25.4175 C   0  0  0  0  0  0  0  0  0  0  0  0
   -9.5085   -7.2752  -25.1824 H   0  0  0  0  0  0  0  0  0  0  0  0
   -7.9978   -6.3841  -25.2542 H   0  0  0  0  0  0  0  0  0  0  0  0
   -9.2347   -6.1127  -26.4767 H   0  0  0  0  0  0  0  0  0  0  0  0
   -9.5019   -5.4566  -23.4964 H   0  0  0  0  0  0  0  0  0  0  0  0
   -7.3948   -4.5217  -23.8468 H   0  0  0  0  0  0  0  0  0  0  0  0
   -7.3378   -2.9810  -24.7086 H   0  0  0  0  0  0  0  0  0  0  0  0
   -8.9541   -3.5319  -22.1876 H   0  0  0  0  0  0  0  0  0  0  0  0
   -6.1749   -2.3740  -22.5917 H   0  0  0  0  0  0  0  0  0  0  0  0
   -6.7698   -3.3824  -21.2629 H   0  0  0  0  0  0  0  0  0  0  0  0
  -10.5822   -1.6139  -22.8121 C   0  0  0  0  0  0  0  0  0  0  0  0
  -11.1898   -2.5300  -21.9445 C   0  0  0  0  0  0  0  0  0  0  0  0
  -12.5683   -2.5799  -21.8430 C   0  0  0  0  0  0  0  0  0  0  0  0
  -13.3071   -3.7131  -20.7418 Cl  0  0  0  0  0  0  0  0  0  0  0  0
  -13.3858   -1.7334  -22.5946 C   0  0  0  0  0  0  0  0  0  0  0  0
  -12.7982   -0.7851  -23.4105 C   0  0  0  0  0  0  0  0  0  0  0  0
  -11.4083   -0.7046  -23.4909 C   0  0  0  0  0  0  0  0  0  0  0  0
  -10.8319    0.4553  -24.2437 C   0  0  0  0  0  0  0  0  0  0  0  0
  -11.5396    1.3426  -24.7081 O   0  0  0  0  0  0  0  0  0  0  0  0
  -13.3776   -0.0617  -23.9810 H   0  0  0  0  0  0  0  0  0  0  0  0
  -14.4623   -1.8109  -22.5036 H   0  0  0  0  0  0  0  0  0  0  0  0
  -10.5929   -3.1767  -21.3112 H   0  0  0  0  0  0  0  0  0  0  0  0
   -8.9080   -1.4389  -25.0201 H   0  0  0  0  0  0  0  0  0  0  0  0
   -7.6461   -0.4897  -24.1681 H   0  0  0  0  0  0  0  0  0  0  0  0
   -9.5829    2.3409  -25.0714 H   0  0  0  0  0  0  0  0  0  0  0  0
   -8.1713    1.4044  -25.6870 H   0  0  0  0  0  0  0  0  0  0  0  0
   -9.3243    2.7833  -22.5211 H   0  0  0  0  0  0  0  0  0  0  0  0
   -6.7984    2.4540  -21.4175 H   0  0  0  0  0  0  0  0  0  0  0  0
   -6.7968    4.1021  -22.0274 H   0  0  0  0  0  0  0  0  0  0  0  0
   -8.0154    3.6021  -20.8286 H   0  0  0  0  0  0  0  0  0  0  0  0
  1  2  1  0
  2  3  1  0
  3  4  2  0
  3  5  1  0
  5  6  1  0
  6  7  1  0
  8  7  1  6
  8  9  1  0
  9 10  2  0
  9 11  1  0
 11 12  1  0
 12 13  2  0
 13 14  1  0
 14 15  2  0
 15 16  1  0
 16 17  2  0
 17 18  1  0
 18 19  2  0
 19 20  1  0
 20 21  2  0
 20 22  1  0
 19 23  1  0
 18 24  1  0
 17 25  1  0
 15 26  1  0
 13 27  1  0
 11 28  1  0
 28 29  1  0
 29 30  1  0
 30 31  1  0
 31 32  1  0
 32 33  1  0
 33 34  1  0
 33 35  1  0
 33 36  1  0
 32 37  1  0
 37 38  1  0
 37 39  1  0
 37 40  1  0
 32 41  1  0
 30 42  1  0
 30 43  1  0
 29 44  1  1
 28 45  1  0
 28 46  1  0
  8 47  1  0
 47 48  2  0
 48 49  1  0
 49 50  1  0
 49 51  2  0
 51 52  1  0
 52 53  2  0
 53 54  1  0
 54 55  2  0
 52 56  1  0
 51 57  1  0
 48 58  1  0
  7 59  1  0
  7 60  1  0
  5 61  1  0
  5 62  1  0
  2 63  1  0
  1 64  1  0
  1 65  1  0
  1 66  1  0
 54  6  1  0
 29  8  1  0
 53 47  1  0
 21 12  1  0
 21 16  1  0
M  END
>  <cnnaffinities>  (4) 
[6.48436, 6.39103, 6.35692, 6.37703, 6.61472]

>  <score>  (4) 
6.48436

>  <index>  (4) 
3

>  <Smiles>  (4) 
C(N(C(=O)C(N1C([C@@]2(C(=O)N(c3c(nc(c4c(c(c(c(c34)[H])[H])[H])[H])[H])[H])C([C@@]2(C(OC(C([H])([H])[H])(C([H])([H])[H])[H])([H])[H])[H])([H])[H])c2c(c(Cl)c(c(c2C1=O)[H])[H])[H])([H])[H])([H])[H])[H])([H])([H])[H]

>  <h>  (4) 
<NA>

>  <Training>  (4) 
True

>  <Success>  (4) 
True

>  <enamine_searched>  (4) 
False

>  <enamine_id>  (4) 
nan

$$$$

     RDKit          3D

 59 64  0  0  0  0  0  0  0  0999 V2000
   -8.0731   -3.8366  -23.8631 C   0  0  0  0  0  0  0  0  0  0  0  0
   -8.4152   -2.8529  -22.7346 C   0  0  1  0  0  0  0  0  0  0  0  0
   -7.2611   -2.7005  -21.7210 C   0  0  0  0  0  0  0  0  0  0  0  0
   -7.4330   -1.3581  -21.1974 N   0  0  0  0  0  0  0  0  0  0  0  0
   -6.6117   -0.7988  -20.1829 C   0  0  0  0  0  0  0  0  0  0  0  0
   -6.8957   -1.0493  -18.8647 C   0  0  0  0  0  0  0  0  0  0  0  0
   -6.1878   -0.5556  -17.8225 N   0  0  0  0  0  0  0  0  0  0  0  0
   -5.1602    0.2114  -18.0884 C   0  0  0  0  0  0  0  0  0  0  0  0
   -4.7340    0.5343  -19.4074 C   0  0  0  0  0  0  0  0  0  0  0  0
   -3.6004    1.3602  -19.6449 C   0  0  0  0  0  0  0  0  0  0  0  0
   -3.2016    1.6395  -20.9247 C   0  0  0  0  0  0  0  0  0  0  0  0
   -3.9119    1.0958  -22.0203 C   0  0  0  0  0  0  0  0  0  0  0  0
   -5.0098    0.2968  -21.8144 C   0  0  0  0  0  0  0  0  0  0  0  0
   -5.4675    0.0098  -20.4945 C   0  0  0  0  0  0  0  0  0  0  0  0
   -5.5389   -0.1191  -22.6676 H   0  0  0  0  0  0  0  0  0  0  0  0
   -3.6069    1.3147  -23.0397 H   0  0  0  0  0  0  0  0  0  0  0  0
   -2.3471    2.2882  -21.0977 H   0  0  0  0  0  0  0  0  0  0  0  0
   -3.0729    1.7693  -18.7877 H   0  0  0  0  0  0  0  0  0  0  0  0
   -4.6169    0.6147  -17.2343 H   0  0  0  0  0  0  0  0  0  0  0  0
   -7.7430   -1.6777  -18.5984 H   0  0  0  0  0  0  0  0  0  0  0  0
   -8.2407   -0.5598  -21.9730 C   0  0  0  0  0  0  0  0  0  0  0  0
   -8.4379    0.6205  -21.7503 O   0  0  0  0  0  0  0  0  0  0  0  0
   -8.7928   -1.3928  -23.1525 C   0  0  1  0  0  0  0  0  0  0  0  0
   -8.0682   -0.9688  -24.4553 C   0  0  0  0  0  0  0  0  0  0  0  0
   -8.4356    0.3707  -24.8665 N   0  0  0  0  0  0  0  0  0  0  0  0
   -7.3865    1.3710  -25.0200 C   0  0  0  0  0  0  0  0  0  0  0  0
   -6.2953    0.9680  -25.9722 C   0  0  0  0  0  0  0  0  0  0  0  0
   -5.0446    0.7301  -25.6281 N   0  0  0  0  0  0  0  0  0  0  0  0
   -4.4146    0.3488  -26.7844 C   0  0  0  0  0  0  0  0  0  0  0  0
   -5.2915    0.3655  -27.8301 C   0  0  0  0  0  0  0  0  0  0  0  0
   -6.5004    0.7709  -27.3052 N   0  0  0  0  0  0  0  0  0  0  0  0
   -7.7495    0.9192  -28.0285 C   0  0  0  0  0  0  0  0  0  0  0  0
   -8.4592    0.1319  -27.7536 H   0  0  0  0  0  0  0  0  0  0  0  0
   -8.2045    1.8954  -27.8263 H   0  0  0  0  0  0  0  0  0  0  0  0
   -7.5261    0.8460  -29.0962 H   0  0  0  0  0  0  0  0  0  0  0  0
   -5.1927    0.1266  -28.8804 H   0  0  0  0  0  0  0  0  0  0  0  0
   -3.3641    0.0708  -26.7789 H   0  0  0  0  0  0  0  0  0  0  0  0
   -7.8930    2.2863  -25.3421 H   0  0  0  0  0  0  0  0  0  0  0  0
   -6.9084    1.5534  -24.0466 H   0  0  0  0  0  0  0  0  0  0  0  0
   -9.7524    0.7119  -25.0085 C   0  0  0  0  0  0  0  0  0  0  0  0
  -10.1246    1.6640  -25.6854 O   0  0  0  0  0  0  0  0  0  0  0  0
  -10.7230   -0.1445  -24.2444 C   0  0  0  0  0  0  0  0  0  0  0  0
  -12.0854    0.1234  -24.3931 C   0  0  0  0  0  0  0  0  0  0  0  0
  -13.0218   -0.5301  -23.6178 C   0  0  0  0  0  0  0  0  0  0  0  0
  -12.5631   -1.4211  -22.6567 C   0  0  0  0  0  0  0  0  0  0  0  0
  -13.4604   -2.0156  -21.8527 F   0  0  0  0  0  0  0  0  0  0  0  0
  -11.2231   -1.7102  -22.4875 C   0  0  0  0  0  0  0  0  0  0  0  0
  -10.2768   -1.1117  -23.3303 C   0  0  0  0  0  0  0  0  0  0  0  0
  -10.9483   -2.3755  -21.6769 H   0  0  0  0  0  0  0  0  0  0  0  0
  -14.0861   -0.3437  -23.7107 H   0  0  0  0  0  0  0  0  0  0  0  0
  -12.3741    0.8845  -25.1055 H   0  0  0  0  0  0  0  0  0  0  0  0
   -6.9865   -0.9775  -24.3020 H   0  0  0  0  0  0  0  0  0  0  0  0
   -8.3194   -1.6784  -25.2577 H   0  0  0  0  0  0  0  0  0  0  0  0
   -7.3057   -3.4327  -20.9088 H   0  0  0  0  0  0  0  0  0  0  0  0
   -6.2827   -2.8237  -22.2143 H   0  0  0  0  0  0  0  0  0  0  0  0
   -9.2790   -3.2478  -22.1933 H   0  0  0  0  0  0  0  0  0  0  0  0
   -7.9021   -4.8455  -23.4670 H   0  0  0  0  0  0  0  0  0  0  0  0
   -8.8749   -3.9024  -24.6082 H   0  0  0  0  0  0  0  0  0  0  0  0
   -7.1577   -3.5354  -24.3898 H   0  0  0  0  0  0  0  0  0  0  0  0
  1  2  1  0
  2  3  1  0
  3  4  1  0
  4  5  1  0
  5  6  2  0
  6  7  1  0
  7  8  2  0
  8  9  1  0
  9 10  2  0
 10 11  1  0
 11 12  2  0
 12 13  1  0
 13 14  2  0
 13 15  1  0
 12 16  1  0
 11 17  1  0
 10 18  1  0
  8 19  1  0
  6 20  1  0
  4 21  1  0
 21 22  2  0
 21 23  1  0
 23 24  1  6
 24 25  1  0
 25 26  1  0
 26 27  1  0
 27 28  2  0
 28 29  1  0
 29 30  2  0
 30 31  1  0
 31 32  1  0
 32 33  1  0
 32 34  1  0
 32 35  1  0
 30 36  1  0
 29 37  1  0
 26 38  1  0
 26 39  1  0
 25 40  1  0
 40 41  2  0
 40 42  1  0
 42 43  2  0
 43 44  1  0
 44 45  2  0
 45 46  1  0
 45 47  1  0
 47 48  2  0
 47 49  1  0
 44 50  1  0
 43 51  1  0
 24 52  1  0
 24 53  1  0
  3 54  1  0
  3 55  1  0
  2 56  1  1
  1 57  1  0
  1 58  1  0
  1 59  1  0
 23  2  1  0
 31 27  1  0
 48 42  1  0
 14  5  1  0
 48 23  1  0
 14  9  1  0
M  END
>  <cnnaffinities>  (5) 
[6.52297, 5.6876, 6.50743]

>  <score>  (5) 
6.52297

>  <index>  (5) 
4

>  <Smiles>  (5) 
C([C@]1(C(N(c2c(nc(c3c(c(c(c(c23)[H])[H])[H])[H])[H])[H])C(=O)[C@]21C(N(C(c1nc(c(n1C([H])([H])[H])[H])[H])([H])[H])C(=O)c1c(c(c(F)c(c21)[H])[H])[H])([H])[H])([H])[H])[H])([H])([H])[H]

>  <h>  (5) 
<NA>

>  <Training>  (5) 
True

>  <Success>  (5) 
True

>  <enamine_searched>  (5) 
False

>  <enamine_id>  (5) 
nan

$$$$

     RDKit          3D

 58 61  0  0  0  0  0  0  0  0999 V2000
   -8.0280   -4.6477  -21.9792 C   0  0  0  0  0  0  0  0  0  0  0  0
   -7.0116   -3.8606  -21.6438 C   0  0  0  0  0  0  0  0  0  0  0  0
   -6.7306   -2.4502  -22.0458 C   0  0  0  0  0  0  0  0  0  0  0  0
   -7.3756   -1.3991  -21.2493 N   0  0  0  0  0  0  0  0  0  0  0  0
   -8.6098   -0.7995  -21.4915 C   0  0  0  0  0  0  0  0  0  0  0  0
   -9.0696    0.0040  -20.7053 O   0  0  0  0  0  0  0  0  0  0  0  0
   -9.3269   -1.1107  -22.8053 C   0  0  2  0  0  0  0  0  0  0  0  0
   -8.7233   -0.2413  -23.9198 C   0  0  0  0  0  0  0  0  0  0  0  0
   -9.0566    1.1523  -23.6694 N   0  0  0  0  0  0  0  0  0  0  0  0
   -8.0122    2.1566  -23.7155 C   0  0  0  0  0  0  0  0  0  0  0  0
   -7.5015    2.3298  -25.1425 C   0  0  0  0  0  0  0  0  0  0  0  0
   -6.4475    1.8433  -25.5323 O   0  0  0  0  0  0  0  0  0  0  0  0
   -8.3386    3.0182  -25.9553 N   0  0  0  0  0  0  0  0  0  0  0  0
   -7.9768    3.2133  -27.3439 C   0  0  0  0  0  0  0  0  0  0  0  0
   -7.0260    3.7512  -27.4132 H   0  0  0  0  0  0  0  0  0  0  0  0
   -7.8502    2.2538  -27.8580 H   0  0  0  0  0  0  0  0  0  0  0  0
   -8.7577    3.7926  -27.8411 H   0  0  0  0  0  0  0  0  0  0  0  0
   -9.2521    3.2843  -25.6135 H   0  0  0  0  0  0  0  0  0  0  0  0
   -7.1767    1.8610  -23.0702 H   0  0  0  0  0  0  0  0  0  0  0  0
   -8.4518    3.0858  -23.3386 H   0  0  0  0  0  0  0  0  0  0  0  0
  -10.3548    1.5485  -23.5209 C   0  0  0  0  0  0  0  0  0  0  0  0
  -10.7204    2.6943  -23.7809 O   0  0  0  0  0  0  0  0  0  0  0  0
  -11.2792    0.4887  -23.0083 C   0  0  0  0  0  0  0  0  0  0  0  0
  -12.6291    0.7998  -22.8411 C   0  0  0  0  0  0  0  0  0  0  0  0
  -13.5175   -0.1668  -22.4051 C   0  0  0  0  0  0  0  0  0  0  0  0
  -13.0396   -1.4427  -22.1077 C   0  0  0  0  0  0  0  0  0  0  0  0
  -14.1573   -2.6608  -21.5629 Cl  0  0  0  0  0  0  0  0  0  0  0  0
  -11.6916   -1.7487  -22.2312 C   0  0  0  0  0  0  0  0  0  0  0  0
  -10.7971   -0.7835  -22.6950 C   0  0  0  0  0  0  0  0  0  0  0  0
  -11.3348   -2.7391  -21.9593 H   0  0  0  0  0  0  0  0  0  0  0  0
  -14.5729    0.0575  -22.2850 H   0  0  0  0  0  0  0  0  0  0  0  0
  -12.9591    1.8102  -23.0602 H   0  0  0  0  0  0  0  0  0  0  0  0
   -9.1159   -0.5652  -24.8924 H   0  0  0  0  0  0  0  0  0  0  0  0
   -7.6334   -0.3134  -23.9685 H   0  0  0  0  0  0  0  0  0  0  0  0
   -9.2097   -2.1744  -23.0225 H   0  0  0  0  0  0  0  0  0  0  0  0
   -6.6078   -0.8165  -20.2033 C   0  0  0  0  0  0  0  0  0  0  0  0
   -6.9403   -1.0377  -18.8949 C   0  0  0  0  0  0  0  0  0  0  0  0
   -6.2379   -0.5531  -17.8453 N   0  0  0  0  0  0  0  0  0  0  0  0
   -5.1814    0.1822  -18.0947 C   0  0  0  0  0  0  0  0  0  0  0  0
   -4.7299    0.5022  -19.4079 C   0  0  0  0  0  0  0  0  0  0  0  0
   -3.5968    1.3293  -19.6471 C   0  0  0  0  0  0  0  0  0  0  0  0
   -3.2070    1.6301  -20.9237 C   0  0  0  0  0  0  0  0  0  0  0  0
   -3.9324    1.1198  -22.0231 C   0  0  0  0  0  0  0  0  0  0  0  0
   -5.0372    0.3302  -21.8167 C   0  0  0  0  0  0  0  0  0  0  0  0
   -5.4597   -0.0123  -20.5012 C   0  0  0  0  0  0  0  0  0  0  0  0
   -5.5926   -0.0338  -22.6762 H   0  0  0  0  0  0  0  0  0  0  0  0
   -3.6258    1.3537  -23.0375 H   0  0  0  0  0  0  0  0  0  0  0  0
   -2.3553    2.2821  -21.0997 H   0  0  0  0  0  0  0  0  0  0  0  0
   -3.0677    1.7360  -18.7904 H   0  0  0  0  0  0  0  0  0  0  0  0
   -4.6324    0.5633  -17.2320 H   0  0  0  0  0  0  0  0  0  0  0  0
   -7.8263   -1.6231  -18.6530 H   0  0  0  0  0  0  0  0  0  0  0  0
   -6.8872   -2.2675  -23.1166 H   0  0  0  0  0  0  0  0  0  0  0  0
   -5.6656   -2.4444  -21.7621 H   0  0  0  0  0  0  0  0  0  0  0  0
   -5.7669   -4.3365  -20.8379 C   0  0  0  0  0  0  0  0  0  0  0  0
   -4.8968   -3.4442  -20.7023 O   0  0  0  0  0  0  0  0  0  0  0  0
   -5.6659   -5.4823  -20.3778 O   0  0  0  0  0  1  0  0  0  0  0  0
   -8.7931   -4.2893  -22.6658 H   0  0  0  0  0  0  0  0  0  0  0  0
   -8.1495   -5.6581  -21.6064 H   0  0  0  0  0  0  0  0  0  0  0  0
  1  2  2  0
  2  3  1  0
  3  4  1  0
  4  5  1  0
  5  6  2  0
  5  7  1  0
  7  8  1  0
  8  9  1  0
  9 10  1  0
 10 11  1  0
 11 12  2  0
 11 13  1  0
 13 14  1  0
 14 15  1  0
 14 16  1  0
 14 17  1  0
 13 18  1  0
 10 19  1  0
 10 20  1  0
  9 21  1  0
 21 22  2  0
 21 23  1  0
 23 24  2  0
 24 25  1  0
 25 26  2  0
 26 27  1  0
 26 28  1  0
 28 29  2  0
 28 30  1  0
 25 31  1  0
 24 32  1  0
  8 33  1  0
  8 34  1  0
  7 35  1  6
  4 36  1  0
 36 37  2  0
 37 38  1  0
 38 39  2  0
 39 40  1  0
 40 41  2  0
 41 42  1  0
 42 43  2  0
 43 44  1  0
 44 45  2  0
 44 46  1  0
 43 47  1  0
 42 48  1  0
 41 49  1  0
 39 50  1  0
 37 51  1  0
  3 52  1  0
  3 53  1  0
  2 54  1  0
 54 55  2  0
 54 56  1  0
  1 57  1  0
  1 58  1  0
 29  7  1  0
 45 36  1  0
 29 23  1  0
 45 40  1  0
M  CHG  1  56  -1
M  END
>  <cnnaffinities>  (6) 
[6.13503]

>  <score>  (6) 
6.13503

>  <index>  (6) 
5

>  <Smiles>  (6) 
C(=C(C(N(C(=O)[C@@]1(C(N(C(C(=O)N(C([H])([H])[H])[H])([H])[H])C(=O)c2c(c(c(Cl)c(c12)[H])[H])[H])([H])[H])[H])c1c(nc(c2c(c(c(c(c12)[H])[H])[H])[H])[H])[H])([H])[H])C(=O)[O-])([H])[H]

>  <h>  (6) 
<NA>

>  <Training>  (6) 
True

>  <Success>  (6) 
True

>  <enamine_searched>  (6) 
False

>  <enamine_id>  (6) 
nan

$$$$

     RDKit          3D

 43 45  0  0  0  0  0  0  0  0999 V2000
   -9.2653   -8.1563  -25.0164 C   0  0  0  0  0  0  0  0  0  0  0  0
   -9.3265   -6.6220  -25.1493 C   0  0  0  0  0  0  0  0  0  0  0  0
   -8.9942   -5.8152  -23.8797 C   0  0  0  0  0  0  0  0  0  0  0  0
   -7.5423   -5.9841  -23.4275 C   0  0  0  0  0  0  0  0  0  0  0  0
   -7.2585   -5.1635  -22.1751 C   0  0  0  0  0  0  0  0  0  0  0  0
   -7.6208   -3.7587  -22.3213 N   0  0  0  0  0  0  0  0  0  0  0  0
   -6.7865   -2.8182  -21.7622 C   0  0  0  0  0  0  0  0  0  0  0  0
   -5.5903   -3.0297  -21.6337 O   0  0  0  0  0  0  0  0  0  0  0  0
   -7.4103   -1.4934  -21.2633 C   0  0  0  0  0  0  0  0  0  0  0  0
   -6.5808   -0.8318  -20.1859 C   0  0  0  0  0  0  0  0  0  0  0  0
   -6.8753   -1.0459  -18.8646 C   0  0  0  0  0  0  0  0  0  0  0  0
   -6.1863   -0.5391  -17.8111 N   0  0  0  0  0  0  0  0  0  0  0  0
   -5.1537    0.2202  -18.0742 C   0  0  0  0  0  0  0  0  0  0  0  0
   -4.7195    0.5290  -19.3905 C   0  0  0  0  0  0  0  0  0  0  0  0
   -3.5915    1.3556  -19.6233 C   0  0  0  0  0  0  0  0  0  0  0  0
   -3.1877    1.6321  -20.9031 C   0  0  0  0  0  0  0  0  0  0  0  0
   -3.9002    1.0842  -21.9949 C   0  0  0  0  0  0  0  0  0  0  0  0
   -4.9935    0.2800  -21.7911 C   0  0  0  0  0  0  0  0  0  0  0  0
   -5.4429   -0.0147  -20.4769 C   0  0  0  0  0  0  0  0  0  0  0  0
   -5.5176   -0.1516  -22.6375 H   0  0  0  0  0  0  0  0  0  0  0  0
   -3.5804    1.3054  -23.0084 H   0  0  0  0  0  0  0  0  0  0  0  0
   -2.3324    2.2735  -21.0808 H   0  0  0  0  0  0  0  0  0  0  0  0
   -3.0704    1.7662  -18.7635 H   0  0  0  0  0  0  0  0  0  0  0  0
   -4.6105    0.6262  -17.2209 H   0  0  0  0  0  0  0  0  0  0  0  0
   -7.7225   -1.6676  -18.5781 H   0  0  0  0  0  0  0  0  0  0  0  0
   -7.5600   -0.8126  -22.1135 H   0  0  0  0  0  0  0  0  0  0  0  0
   -8.4109   -1.7071  -20.8629 H   0  0  0  0  0  0  0  0  0  0  0  0
   -8.9713   -3.5060  -22.7978 C   0  0  0  0  0  0  0  0  0  0  0  0
   -9.2633   -4.3152  -24.0680 C   0  0  0  0  0  0  0  0  0  0  0  0
   -8.6462   -3.9412  -24.9004 H   0  0  0  0  0  0  0  0  0  0  0  0
  -10.3136   -4.1616  -24.3444 H   0  0  0  0  0  0  0  0  0  0  0  0
   -9.7150   -3.7719  -22.0243 H   0  0  0  0  0  0  0  0  0  0  0  0
   -9.0683   -2.4364  -23.0047 H   0  0  0  0  0  0  0  0  0  0  0  0
   -7.8364   -5.6187  -21.3552 H   0  0  0  0  0  0  0  0  0  0  0  0
   -6.2022   -5.1738  -21.9047 H   0  0  0  0  0  0  0  0  0  0  0  0
   -6.8636   -5.6870  -24.2419 H   0  0  0  0  0  0  0  0  0  0  0  0
   -7.3476   -7.0387  -23.1959 H   0  0  0  0  0  0  0  0  0  0  0  0
   -9.6470   -6.1612  -23.0637 H   0  0  0  0  0  0  0  0  0  0  0  0
  -10.3088   -6.2907  -25.5113 H   0  0  0  0  0  0  0  0  0  0  0  0
   -8.6126   -6.3088  -25.9300 H   0  0  0  0  0  0  0  0  0  0  0  0
   -9.8674   -8.5920  -24.2104 H   0  0  0  0  0  0  0  0  0  0  0  0
   -8.2328   -8.4598  -24.8351 H   0  0  0  0  0  0  0  0  0  0  0  0
   -9.5910   -8.6352  -25.9470 H   0  0  0  0  0  0  0  0  0  0  0  0
  1  2  1  0
  2  3  1  0
  3  4  1  0
  4  5  1  0
  5  6  1  0
  6  7  1  0
  7  8  2  0
  7  9  1  0
  9 10  1  0
 10 11  2  0
 11 12  1  0
 12 13  2  0
 13 14  1  0
 14 15  2  0
 15 16  1  0
 16 17  2  0
 17 18  1  0
 18 19  2  0
 18 20  1  0
 17 21  1  0
 16 22  1  0
 15 23  1  0
 13 24  1  0
 11 25  1  0
  9 26  1  0
  9 27  1  0
  6 28  1  0
 28 29  1  0
 29 30  1  0
 29 31  1  0
 28 32  1  0
 28 33  1  0
  5 34  1  0
  5 35  1  0
  4 36  1  0
  4 37  1  0
  3 38  1  0
  2 39  1  0
  2 40  1  0
  1 41  1  0
  1 42  1  0
  1 43  1  0
 29  3  1  0
 19 10  1  0
 19 14  1  0
M  END
>  <cnnaffinities>  (7) 
[4.59626, 4.59433]

>  <score>  (7) 
4.59626

>  <index>  (7) 
6

>  <Smiles>  (7) 
C(C(C1(C(C(N(C(=O)C(c2c(nc(c3c(c(c(c(c23)[H])[H])[H])[H])[H])[H])([H])[H])C(C1([H])[H])([H])[H])([H])[H])([H])[H])[H])([H])[H])([H])([H])[H]

>  <h>  (7) 
<NA>

>  <Training>  (7) 
True

>  <Success>  (7) 
True

>  <enamine_searched>  (7) 
False

>  <enamine_id>  (7) 
nan

$$$$

     RDKit          3D

 44 47  0  0  0  0  0  0  0  0999 V2000
  -13.9399   -2.1662  -24.3901 C   0  0  0  0  0  0  0  0  0  0  0  0
  -12.9076   -3.1237  -24.9734 C   0  0  0  0  0  0  0  0  0  0  0  0
  -12.0906   -4.0824  -23.7157 S   0  0  0  0  0  0  0  0  0  0  0  0
  -13.1338   -4.5685  -22.8325 O   0  0  0  0  0  0  0  0  0  0  0  0
  -11.1969   -5.0117  -24.3941 O   0  0  0  0  0  0  0  0  0  0  0  0
  -11.1733   -2.9570  -22.8575 N   0  0  0  0  0  0  0  0  0  0  0  0
  -10.1677   -2.0791  -23.5038 C   0  0  0  0  0  0  0  0  0  0  0  0
   -9.1133   -2.4858  -22.4441 C   0  0  0  0  0  0  0  0  0  0  0  0
  -10.1603   -3.5086  -21.9279 C   0  0  0  0  0  0  0  0  0  0  0  0
  -10.3969   -3.4435  -20.8811 H   0  0  0  0  0  0  0  0  0  0  0  0
   -9.8962   -4.5481  -22.1384 H   0  0  0  0  0  0  0  0  0  0  0  0
   -8.6894   -1.3785  -21.4865 C   0  0  0  0  0  0  0  0  0  0  0  0
   -9.3499   -0.4572  -21.0700 O   0  0  0  0  0  0  0  0  0  0  0  0
   -7.3300   -1.5809  -21.2285 N   0  0  0  0  0  0  0  0  0  0  0  0
   -6.5892   -0.9039  -20.2174 C   0  0  0  0  0  0  0  0  0  0  0  0
   -6.9370   -1.0844  -18.8985 C   0  0  0  0  0  0  0  0  0  0  0  0
   -6.2527   -0.5581  -17.8555 N   0  0  0  0  0  0  0  0  0  0  0  0
   -5.2119    0.1849  -18.1266 C   0  0  0  0  0  0  0  0  0  0  0  0
   -4.7723    0.4874  -19.4434 C   0  0  0  0  0  0  0  0  0  0  0  0
   -3.6507    1.3287  -19.6540 C   0  0  0  0  0  0  0  0  0  0  0  0
   -3.2516    1.6461  -20.9219 C   0  0  0  0  0  0  0  0  0  0  0  0
   -3.9647    1.1345  -22.0296 C   0  0  0  0  0  0  0  0  0  0  0  0
   -5.0536    0.3134  -21.8535 C   0  0  0  0  0  0  0  0  0  0  0  0
   -5.4785   -0.0525  -20.5390 C   0  0  0  0  0  0  0  0  0  0  0  0
   -5.5880   -0.0540  -22.7260 H   0  0  0  0  0  0  0  0  0  0  0  0
   -3.6470    1.3959  -23.0356 H   0  0  0  0  0  0  0  0  0  0  0  0
   -2.3930    2.2938  -21.0838 H   0  0  0  0  0  0  0  0  0  0  0  0
   -3.1355    1.7142  -18.7809 H   0  0  0  0  0  0  0  0  0  0  0  0
   -4.6502    0.5999  -17.2896 H   0  0  0  0  0  0  0  0  0  0  0  0
   -7.8003   -1.6934  -18.6345 H   0  0  0  0  0  0  0  0  0  0  0  0
   -6.7875   -2.5609  -22.0810 C   0  0  0  0  0  0  0  0  0  0  0  0
   -5.6315   -2.9168  -22.1393 O   0  0  0  0  0  0  0  0  0  0  0  0
   -7.8337   -3.0267  -22.8286 N   0  0  0  0  0  0  0  0  0  0  0  0
   -7.6957   -4.1494  -23.7262 C   0  0  0  0  0  0  0  0  0  0  0  0
   -7.2628   -5.0074  -23.2045 H   0  0  0  0  0  0  0  0  0  0  0  0
   -8.6851   -4.4175  -24.1012 H   0  0  0  0  0  0  0  0  0  0  0  0
   -7.0489   -3.8838  -24.5634 H   0  0  0  0  0  0  0  0  0  0  0  0
  -10.4811   -1.0431  -23.4027 H   0  0  0  0  0  0  0  0  0  0  0  0
   -9.9237   -2.2872  -24.5488 H   0  0  0  0  0  0  0  0  0  0  0  0
  -13.3824   -3.9138  -25.5628 H   0  0  0  0  0  0  0  0  0  0  0  0
  -12.1463   -2.6527  -25.6059 H   0  0  0  0  0  0  0  0  0  0  0  0
  -13.4682   -1.4009  -23.7633 H   0  0  0  0  0  0  0  0  0  0  0  0
  -14.6308   -2.7357  -23.7632 H   0  0  0  0  0  0  0  0  0  0  0  0
  -14.5089   -1.6713  -25.1865 H   0  0  0  0  0  0  0  0  0  0  0  0
  1  2  1  0
  2  3  1  0
  3  4  2  0
  3  5  2  0
  3  6  1  0
  6  7  1  0
  7  8  1  0
  8  9  1  0
  9 10  1  0
  9 11  1  0
  8 12  1  0
 12 13  2  0
 12 14  1  0
 14 15  1  0
 15 16  2  0
 16 17  1  0
 17 18  2  0
 18 19  1  0
 19 20  2  0
 20 21  1  0
 21 22  2  0
 22 23  1  0
 23 24  2  0
 23 25  1  0
 22 26  1  0
 21 27  1  0
 20 28  1  0
 18 29  1  0
 16 30  1  0
 14 31  1  0
 31 32  2  0
 31 33  1  0
 33 34  1  0
 34 35  1  0
 34 36  1  0
 34 37  1  0
  7 38  1  0
  7 39  1  0
  2 40  1  0
  2 41  1  0
  1 42  1  0
  1 43  1  0
  1 44  1  0
  9  6  1  0
 24 15  1  0
 33  8  1  0
 24 19  1  0
M  END
>  <cnnaffinities>  (8) 
[5.93325, 5.7922, 4.93568, 4.93612, 4.95907, 4.95584]

>  <score>  (8) 
5.93325

>  <index>  (8) 
7

>  <Smiles>  (8) 
C(C(S(=O)(=O)N1C(C2(C1([H])[H])C(=O)N(c1c(nc(c3c(c(c(c(c13)[H])[H])[H])[H])[H])[H])C(=O)N2C([H])([H])[H])([H])[H])([H])[H])([H])([H])[H]

>  <h>  (8) 
<NA>

>  <Training>  (8) 
True

>  <Success>  (8) 
True

>  <enamine_searched>  (8) 
False

>  <enamine_id>  (8) 
nan

$$$$

     RDKit          3D

 60 64  0  0  0  0  0  0  0  0999 V2000
  -14.9030   -2.1104  -23.9537 C   0  0  0  0  0  0  0  0  0  0  0  0
  -13.9667   -3.0380  -23.3744 N   0  0  0  0  0  0  0  0  0  0  0  0
  -13.1994   -2.6984  -22.3043 C   0  0  0  0  0  0  0  0  0  0  0  0
  -13.1410   -1.5670  -21.8434 O   0  0  0  0  0  0  0  0  0  0  0  0
  -12.3984   -3.8693  -21.7575 C   0  0  0  0  0  0  0  0  0  0  0  0
  -11.0534   -3.8976  -22.3025 N   0  0  0  0  0  0  0  0  0  0  0  0
   -9.9309   -3.3573  -21.5398 C   0  0  0  0  0  0  0  0  0  0  0  0
   -8.7444   -2.8865  -22.4145 C   0  0  2  0  0  0  0  0  0  0  0  0
   -7.5419   -2.6737  -21.4801 C   0  0  0  0  0  0  0  0  0  0  0  0
   -6.8113   -3.5238  -21.0073 O   0  0  0  0  0  0  0  0  0  0  0  0
   -7.3952   -1.3235  -21.2464 N   0  0  0  0  0  0  0  0  0  0  0  0
   -6.5779   -0.8421  -20.1990 C   0  0  0  0  0  0  0  0  0  0  0  0
   -6.8847   -1.1109  -18.8899 C   0  0  0  0  0  0  0  0  0  0  0  0
   -6.2116   -0.5803  -17.8401 N   0  0  0  0  0  0  0  0  0  0  0  0
   -5.2008    0.2102  -18.0979 C   0  0  0  0  0  0  0  0  0  0  0  0
   -4.7519    0.5328  -19.4111 C   0  0  0  0  0  0  0  0  0  0  0  0
   -3.6261    1.3612  -19.6500 C   0  0  0  0  0  0  0  0  0  0  0  0
   -3.2234    1.6223  -20.9310 C   0  0  0  0  0  0  0  0  0  0  0  0
   -3.9200    1.0680  -22.0293 C   0  0  0  0  0  0  0  0  0  0  0  0
   -5.0140    0.2642  -21.8252 C   0  0  0  0  0  0  0  0  0  0  0  0
   -5.4563   -0.0123  -20.5041 C   0  0  0  0  0  0  0  0  0  0  0  0
   -5.5412   -0.1813  -22.6644 H   0  0  0  0  0  0  0  0  0  0  0  0
   -3.5869    1.2732  -23.0420 H   0  0  0  0  0  0  0  0  0  0  0  0
   -2.3622    2.2581  -21.1133 H   0  0  0  0  0  0  0  0  0  0  0  0
   -3.0987    1.7712  -18.7941 H   0  0  0  0  0  0  0  0  0  0  0  0
   -4.6708    0.6322  -17.2441 H   0  0  0  0  0  0  0  0  0  0  0  0
   -7.7177   -1.7664  -18.6392 H   0  0  0  0  0  0  0  0  0  0  0  0
   -8.3951   -0.4954  -21.8968 C   0  0  0  0  0  0  0  0  0  0  0  0
   -8.9606   -1.4367  -22.9726 C   0  0  2  0  0  0  0  0  0  0  0  0
  -10.3994   -1.1168  -23.3376 C   0  0  0  0  0  0  0  0  0  0  0  0
  -10.5063    0.1466  -23.9504 O   0  0  0  0  0  0  0  0  0  0  0  0
  -11.8617    0.3594  -24.2778 C   0  0  0  0  0  0  0  0  0  0  0  0
  -12.4973    0.3318  -23.3793 H   0  0  0  0  0  0  0  0  0  0  0  0
  -12.2101   -0.4327  -24.9597 H   0  0  0  0  0  0  0  0  0  0  0  0
  -11.9560    1.3251  -24.7782 H   0  0  0  0  0  0  0  0  0  0  0  0
  -10.7706   -1.8925  -24.0248 H   0  0  0  0  0  0  0  0  0  0  0  0
  -11.0388   -1.1271  -22.4412 H   0  0  0  0  0  0  0  0  0  0  0  0
   -8.3444   -1.3468  -23.8754 H   0  0  0  0  0  0  0  0  0  0  0  0
   -9.1673   -0.1640  -21.1822 H   0  0  0  0  0  0  0  0  0  0  0  0
   -7.9490    0.4107  -22.3192 H   0  0  0  0  0  0  0  0  0  0  0  0
   -8.4763   -3.9334  -23.4732 C   0  0  0  0  0  0  0  0  0  0  0  0
   -7.2028   -4.0899  -24.0351 C   0  0  0  0  0  0  0  0  0  0  0  0
   -6.9944   -5.0490  -25.0117 C   0  0  0  0  0  0  0  0  0  0  0  0
   -5.4061   -5.2299  -25.7055 Cl  0  0  0  0  0  0  0  0  0  0  0  0
   -8.0199   -5.8977  -25.4295 C   0  0  0  0  0  0  0  0  0  0  0  0
   -9.2855   -5.7227  -24.9067 C   0  0  0  0  0  0  0  0  0  0  0  0
   -9.5143   -4.7391  -23.9528 C   0  0  0  0  0  0  0  0  0  0  0  0
  -10.9083   -4.5656  -23.4756 C   0  0  0  0  0  0  0  0  0  0  0  0
  -11.8804   -5.0090  -24.0929 O   0  0  0  0  0  0  0  0  0  0  0  0
  -10.1263   -6.3353  -25.2196 H   0  0  0  0  0  0  0  0  0  0  0  0
   -7.8228   -6.6822  -26.1485 H   0  0  0  0  0  0  0  0  0  0  0  0
   -6.3656   -3.4992  -23.6794 H   0  0  0  0  0  0  0  0  0  0  0  0
   -9.5618   -4.1081  -20.8439 H   0  0  0  0  0  0  0  0  0  0  0  0
  -10.2541   -2.4996  -20.9392 H   0  0  0  0  0  0  0  0  0  0  0  0
  -12.9347   -4.7547  -22.0888 H   0  0  0  0  0  0  0  0  0  0  0  0
  -12.3529   -3.8429  -20.6732 H   0  0  0  0  0  0  0  0  0  0  0  0
  -13.6676   -3.8184  -23.9423 H   0  0  0  0  0  0  0  0  0  0  0  0
  -15.4353   -1.5975  -23.1516 H   0  0  0  0  0  0  0  0  0  0  0  0
  -15.6110   -2.6596  -24.5787 H   0  0  0  0  0  0  0  0  0  0  0  0
  -14.4165   -1.3421  -24.5616 H   0  0  0  0  0  0  0  0  0  0  0  0
  1  2  1  0
  2  3  1  0
  3  4  2  0
  3  5  1  0
  5  6  1  0
  6  7  1  0
  8  7  1  1
  8  9  1  0
  9 10  2  0
  9 11  1  0
 11 12  1  0
 12 13  2  0
 13 14  1  0
 14 15  2  0
 15 16  1  0
 16 17  2  0
 17 18  1  0
 18 19  2  0
 19 20  1  0
 20 21  2  0
 20 22  1  0
 19 23  1  0
 18 24  1  0
 17 25  1  0
 15 26  1  0
 13 27  1  0
 11 28  1  0
 28 29  1  0
 29 30  1  0
 30 31  1  0
 31 32  1  0
 32 33  1  0
 32 34  1  0
 32 35  1  0
 30 36  1  0
 30 37  1  0
 29 38  1  6
 28 39  1  0
 28 40  1  0
  8 41  1  0
 41 42  2  0
 42 43  1  0
 43 44  1  0
 43 45  2  0
 45 46  1  0
 46 47  2  0
 47 48  1  0
 48 49  2  0
 46 50  1  0
 45 51  1  0
 42 52  1  0
  7 53  1  0
  7 54  1  0
  5 55  1  0
  5 56  1  0
  2 57  1  0
  1 58  1  0
  1 59  1  0
  1 60  1  0
 48  6  1  0
 29  8  1  0
 47 41  1  0
 21 12  1  0
 21 16  1  0
M  END
>  <cnnaffinities>  (9) 
[6.61965]

>  <score>  (9) 
6.61965

>  <index>  (9) 
8

>  <Smiles>  (9) 
C(N(C(=O)C(N1C([C@@]2(C(=O)N(c3c(nc(c4c(c(c(c(c34)[H])[H])[H])[H])[H])[H])C([C@@]2(C(OC([H])([H])[H])([H])[H])[H])([H])[H])c2c(c(Cl)c(c(c2C1=O)[H])[H])[H])([H])[H])([H])[H])[H])([H])([H])[H]

>  <h>  (9) 
<NA>

>  <Training>  (9) 
True

>  <Success>  (9) 
True

>  <enamine_searched>  (9) 
False

>  <enamine_id>  (9) 
nan

$$$$

     RDKit          3D

 41 43  0  0  0  0  0  0  0  0999 V2000
  -13.1789   -2.9269  -22.9032 C   0  0  0  0  0  0  0  0  0  0  0  0
  -11.9701   -2.0481  -23.2191 C   0  0  1  0  0  0  0  0  0  0  0  0
  -12.1571   -0.6587  -22.6470 C   0  0  0  0  0  0  0  0  0  0  0  0
  -11.3192    0.3570  -22.8372 C   0  0  0  0  0  0  0  0  0  0  0  0
  -10.0221    0.2183  -23.6043 C   0  0  0  0  0  0  0  0  0  0  0  0
   -9.0918   -0.7822  -23.0590 N   0  0  0  0  0  0  0  0  0  0  0  0
   -8.3788   -0.4053  -21.9311 C   0  0  0  0  0  0  0  0  0  0  0  0
   -8.4784    0.7175  -21.4714 O   0  0  0  0  0  0  0  0  0  0  0  0
   -7.4317   -1.4336  -21.2730 C   0  0  0  0  0  0  0  0  0  0  0  0
   -6.5790   -0.8285  -20.1821 C   0  0  0  0  0  0  0  0  0  0  0  0
   -6.8774   -1.0389  -18.8619 C   0  0  0  0  0  0  0  0  0  0  0  0
   -6.1883   -0.5330  -17.8050 N   0  0  0  0  0  0  0  0  0  0  0  0
   -5.1540    0.2228  -18.0676 C   0  0  0  0  0  0  0  0  0  0  0  0
   -4.7218    0.5369  -19.3829 C   0  0  0  0  0  0  0  0  0  0  0  0
   -3.5967    1.3673  -19.6226 C   0  0  0  0  0  0  0  0  0  0  0  0
   -3.2090    1.6591  -20.9019 C   0  0  0  0  0  0  0  0  0  0  0  0
   -3.9333    1.1304  -21.9932 C   0  0  0  0  0  0  0  0  0  0  0  0
   -5.0255    0.3232  -21.7868 C   0  0  0  0  0  0  0  0  0  0  0  0
   -5.4532    0.0017  -20.4728 C   0  0  0  0  0  0  0  0  0  0  0  0
   -5.5740   -0.0672  -22.6379 H   0  0  0  0  0  0  0  0  0  0  0  0
   -3.6238    1.3694  -23.0062 H   0  0  0  0  0  0  0  0  0  0  0  0
   -2.3531    2.3037  -21.0878 H   0  0  0  0  0  0  0  0  0  0  0  0
   -3.0557    1.7749  -18.7715 H   0  0  0  0  0  0  0  0  0  0  0  0
   -4.6005    0.6272  -17.2166 H   0  0  0  0  0  0  0  0  0  0  0  0
   -7.7284   -1.6593  -18.5829 H   0  0  0  0  0  0  0  0  0  0  0  0
   -6.7957   -1.8990  -22.0377 H   0  0  0  0  0  0  0  0  0  0  0  0
   -8.0411   -2.2444  -20.8450 H   0  0  0  0  0  0  0  0  0  0  0  0
   -9.3948   -2.1693  -23.3980 C   0  0  0  0  0  0  0  0  0  0  0  0
  -10.6666   -2.7289  -22.7528 C   0  0  0  0  0  0  0  0  0  0  0  0
  -10.5870   -2.6363  -21.6641 H   0  0  0  0  0  0  0  0  0  0  0  0
  -10.7248   -3.8065  -22.9658 H   0  0  0  0  0  0  0  0  0  0  0  0
   -8.5306   -2.7931  -23.1569 H   0  0  0  0  0  0  0  0  0  0  0  0
   -9.5111   -2.2202  -24.4863 H   0  0  0  0  0  0  0  0  0  0  0  0
  -10.2465   -0.0766  -24.6365 H   0  0  0  0  0  0  0  0  0  0  0  0
   -9.5083    1.1795  -23.6538 H   0  0  0  0  0  0  0  0  0  0  0  0
  -11.5318    1.3280  -22.3883 H   0  0  0  0  0  0  0  0  0  0  0  0
  -13.0290   -0.4949  -22.0121 H   0  0  0  0  0  0  0  0  0  0  0  0
  -11.9080   -1.9520  -24.3138 H   0  0  0  0  0  0  0  0  0  0  0  0
  -13.0971   -3.9087  -23.3851 H   0  0  0  0  0  0  0  0  0  0  0  0
  -13.2635   -3.0899  -21.8217 H   0  0  0  0  0  0  0  0  0  0  0  0
  -14.1063   -2.4564  -23.2508 H   0  0  0  0  0  0  0  0  0  0  0  0
  1  2  1  0
  2  3  1  0
  3  4  2  0
  4  5  1  0
  5  6  1  0
  6  7  1  0
  7  8  2  0
  7  9  1  0
  9 10  1  0
 10 11  2  0
 11 12  1  0
 12 13  2  0
 13 14  1  0
 14 15  2  0
 15 16  1  0
 16 17  2  0
 17 18  1  0
 18 19  2  0
 18 20  1  0
 17 21  1  0
 16 22  1  0
 15 23  1  0
 13 24  1  0
 11 25  1  0
  9 26  1  0
  9 27  1  0
  6 28  1  0
 28 29  1  0
 29 30  1  0
 29 31  1  0
 28 32  1  0
 28 33  1  0
  5 34  1  0
  5 35  1  0
  4 36  1  0
  3 37  1  0
  2 38  1  6
  1 39  1  0
  1 40  1  0
  1 41  1  0
 29  2  1  0
 19 10  1  0
 19 14  1  0
M  END
>  <cnnaffinities>  (10) 
[4.9938, 5.4666]

>  <score>  (10) 
4.9938

>  <index>  (10) 
9

>  <Smiles>  (10) 
C([C@]1(C(=C(C(N(C(=O)C(c2c(nc(c3c(c(c(c(c23)[H])[H])[H])[H])[H])[H])([H])[H])C(C1([H])[H])([H])[H])([H])[H])[H])[H])[H])([H])([H])[H]

>  <h>  (10) 
<NA>

>  <Training>  (10) 
True

>  <Success>  (10) 
True

>  <enamine_searched>  (10) 
False

>  <enamine_id>  (10) 
nan

$$$$

     RDKit          3D

 57 62  0  0  0  0  0  0  0  0999 V2000
  -10.4442   -1.1605  -23.2801 C   0  0  0  0  0  0  0  0  0  0  0  0
   -9.0012   -1.4946  -22.9377 C   0  0  1  0  0  0  0  0  0  0  0  0
   -8.3846   -0.5379  -21.9090 C   0  0  0  0  0  0  0  0  0  0  0  0
   -7.3941   -1.3576  -21.2345 N   0  0  0  0  0  0  0  0  0  0  0  0
   -6.5786   -0.8512  -20.1934 C   0  0  0  0  0  0  0  0  0  0  0  0
   -6.8865   -1.0904  -18.8784 C   0  0  0  0  0  0  0  0  0  0  0  0
   -6.2091   -0.5612  -17.8288 N   0  0  0  0  0  0  0  0  0  0  0  0
   -5.1868    0.2145  -18.0886 C   0  0  0  0  0  0  0  0  0  0  0  0
   -4.7445    0.5238  -19.4066 C   0  0  0  0  0  0  0  0  0  0  0  0
   -3.6172    1.3499  -19.6436 C   0  0  0  0  0  0  0  0  0  0  0  0
   -3.2152    1.6153  -20.9245 C   0  0  0  0  0  0  0  0  0  0  0  0
   -3.9156    1.0676  -22.0204 C   0  0  0  0  0  0  0  0  0  0  0  0
   -5.0116    0.2654  -21.8181 C   0  0  0  0  0  0  0  0  0  0  0  0
   -5.4568   -0.0183  -20.4989 C   0  0  0  0  0  0  0  0  0  0  0  0
   -5.5331   -0.1674  -22.6654 H   0  0  0  0  0  0  0  0  0  0  0  0
   -3.5872    1.2841  -23.0324 H   0  0  0  0  0  0  0  0  0  0  0  0
   -2.3607    2.2587  -21.1058 H   0  0  0  0  0  0  0  0  0  0  0  0
   -3.0909    1.7645  -18.7897 H   0  0  0  0  0  0  0  0  0  0  0  0
   -4.6450    0.6377  -17.2403 H   0  0  0  0  0  0  0  0  0  0  0  0
   -7.7289   -1.7307  -18.6264 H   0  0  0  0  0  0  0  0  0  0  0  0
   -7.5650   -2.7113  -21.4390 C   0  0  0  0  0  0  0  0  0  0  0  0
   -6.8268   -3.5699  -21.0001 O   0  0  0  0  0  0  0  0  0  0  0  0
   -8.7853   -2.9282  -22.3421 C   0  0  1  0  0  0  0  0  0  0  0  0
   -9.9779   -3.3982  -21.4777 C   0  0  0  0  0  0  0  0  0  0  0  0
  -11.1001   -3.8932  -22.2641 N   0  0  0  0  0  0  0  0  0  0  0  0
  -12.4504   -3.9137  -21.6891 C   0  0  0  0  0  0  0  0  0  0  0  0
  -13.3529   -2.7751  -22.0816 C   0  0  0  0  0  0  0  0  0  0  0  0
  -13.9527   -1.7367  -21.4424 C   0  0  0  0  0  0  0  0  0  0  0  0
  -14.6537   -1.0267  -22.3984 N   0  0  0  0  0  4  0  0  0  0  0  0
  -14.5338   -1.6484  -23.5754 C   0  0  0  0  0  0  0  0  0  0  0  0
  -13.7547   -2.7190  -23.4081 N   0  0  0  0  0  0  0  0  0  0  0  0
  -13.4670   -3.4131  -24.0967 H   0  0  0  0  0  0  0  0  0  0  0  0
  -15.0028   -1.3471  -24.4915 H   0  0  0  0  0  0  0  0  0  0  0  0
  -15.1507   -0.1640  -22.2275 H   0  0  0  0  0  0  0  0  0  0  0  0
  -13.9857   -1.4216  -20.4076 H   0  0  0  0  0  0  0  0  0  0  0  0
  -12.9115   -4.7669  -22.1824 H   0  0  0  0  0  0  0  0  0  0  0  0
  -12.4177   -4.1081  -20.6099 H   0  0  0  0  0  0  0  0  0  0  0  0
  -10.9311   -4.5870  -23.4292 C   0  0  0  0  0  0  0  0  0  0  0  0
  -11.8925   -4.9953  -24.0795 O   0  0  0  0  0  0  0  0  0  0  0  0
   -9.5257   -4.7898  -23.8853 C   0  0  0  0  0  0  0  0  0  0  0  0
   -9.2600   -5.7561  -24.8571 C   0  0  0  0  0  0  0  0  0  0  0  0
   -8.0005   -5.8885  -25.4084 C   0  0  0  0  0  0  0  0  0  0  0  0
   -7.0122   -5.0280  -24.9485 C   0  0  0  0  0  0  0  0  0  0  0  0
   -5.7992   -5.0934  -25.5176 F   0  0  0  0  0  0  0  0  0  0  0  0
   -7.2297   -4.0960  -23.9523 C   0  0  0  0  0  0  0  0  0  0  0  0
   -8.5043   -3.9746  -23.3934 C   0  0  0  0  0  0  0  0  0  0  0  0
   -6.4078   -3.4716  -23.6192 H   0  0  0  0  0  0  0  0  0  0  0  0
   -7.7745   -6.6122  -26.1897 H   0  0  0  0  0  0  0  0  0  0  0  0
  -10.0595   -6.4085  -25.1789 H   0  0  0  0  0  0  0  0  0  0  0  0
   -9.6578   -4.1911  -20.8003 H   0  0  0  0  0  0  0  0  0  0  0  0
  -10.3209   -2.5540  -20.8744 H   0  0  0  0  0  0  0  0  0  0  0  0
   -7.9219    0.3354  -22.3823 H   0  0  0  0  0  0  0  0  0  0  0  0
   -9.1410   -0.1657  -21.2004 H   0  0  0  0  0  0  0  0  0  0  0  0
   -8.3928   -1.4513  -23.8518 H   0  0  0  0  0  0  0  0  0  0  0  0
  -11.0534   -1.1501  -22.3702 H   0  0  0  0  0  0  0  0  0  0  0  0
  -10.8505   -1.9267  -23.9442 H   0  0  0  0  0  0  0  0  0  0  0  0
  -10.5242   -0.1857  -23.7664 H   0  0  0  0  0  0  0  0  0  0  0  0
  1  2  1  0
  2  3  1  0
  3  4  1  0
  4  5  1  0
  5  6  2  0
  6  7  1  0
  7  8  2  0
  8  9  1  0
  9 10  2  0
 10 11  1  0
 11 12  2  0
 12 13  1  0
 13 14  2  0
 13 15  1  0
 12 16  1  0
 11 17  1  0
 10 18  1  0
  8 19  1  0
  6 20  1  0
  4 21  1  0
 21 22  2  0
 21 23  1  0
 23 24  1  1
 24 25  1  0
 25 26  1  0
 26 27  1  0
 27 28  2  0
 28 29  1  0
 29 30  2  0
 30 31  1  0
 31 32  1  0
 30 33  1  0
 29 34  1  0
 28 35  1  0
 26 36  1  0
 26 37  1  0
 25 38  1  0
 38 39  2  0
 38 40  1  0
 40 41  2  0
 41 42  1  0
 42 43  2  0
 43 44  1  0
 43 45  1  0
 45 46  2  0
 45 47  1  0
 42 48  1  0
 41 49  1  0
 24 50  1  0
 24 51  1  0
  3 52  1  0
  3 53  1  0
  2 54  1  6
  1 55  1  0
  1 56  1  0
  1 57  1  0
 23  2  1  0
 31 27  1  0
 46 40  1  0
 14  5  1  0
 46 23  1  0
 14  9  1  0
M  CHG  1  29   1
M  END
>  <cnnaffinities>  (11) 
[6.89662, 6.86956]

>  <score>  (11) 
6.89662

>  <index>  (11) 
10

>  <Smiles>  (11) 
C([C@]1(C(N(c2c(nc(c3c(c(c(c(c23)[H])[H])[H])[H])[H])[H])C(=O)[C@]21C(N(C(c1c([n+](c(n1[H])[H])[H])[H])([H])[H])C(=O)c1c(c(c(F)c(c21)[H])[H])[H])([H])[H])([H])[H])[H])([H])([H])[H]

>  <h>  (11) 
<NA>

>  <Training>  (11) 
True

>  <Success>  (11) 
True

>  <enamine_searched>  (11) 
False

>  <enamine_id>  (11) 
nan

$$$$

     RDKit          3D

 48 52  0  0  0  0  0  0  0  0999 V2000
  -10.1092   -0.8772  -23.6410 C   0  0  0  0  0  0  0  0  0  0  0  0
   -9.1117   -1.3719  -22.7026 N   0  0  0  0  0  0  0  0  0  0  0  0
   -8.3067   -0.5191  -22.0033 C   0  0  0  0  0  0  0  0  0  0  0  0
   -8.3205    0.6932  -22.0213 O   0  0  0  0  0  0  0  0  0  0  0  0
   -7.4416   -1.3131  -21.2386 N   0  0  0  0  0  0  0  0  0  0  0  0
   -6.6158   -0.7967  -20.2123 C   0  0  0  0  0  0  0  0  0  0  0  0
   -6.9317   -1.0479  -18.9023 C   0  0  0  0  0  0  0  0  0  0  0  0
   -6.2387   -0.5494  -17.8542 N   0  0  0  0  0  0  0  0  0  0  0  0
   -5.2069    0.2100  -18.1194 C   0  0  0  0  0  0  0  0  0  0  0  0
   -4.7712    0.5378  -19.4333 C   0  0  0  0  0  0  0  0  0  0  0  0
   -3.6330    1.3541  -19.6528 C   0  0  0  0  0  0  0  0  0  0  0  0
   -3.2099    1.6111  -20.9272 C   0  0  0  0  0  0  0  0  0  0  0  0
   -3.9045    1.0643  -22.0321 C   0  0  0  0  0  0  0  0  0  0  0  0
   -5.0179    0.2832  -21.8472 C   0  0  0  0  0  0  0  0  0  0  0  0
   -5.4839    0.0100  -20.5291 C   0  0  0  0  0  0  0  0  0  0  0  0
   -5.5485   -0.1296  -22.7028 H   0  0  0  0  0  0  0  0  0  0  0  0
   -3.5473    1.2544  -23.0401 H   0  0  0  0  0  0  0  0  0  0  0  0
   -2.3292    2.2247  -21.0976 H   0  0  0  0  0  0  0  0  0  0  0  0
   -3.1100    1.7452  -18.7844 H   0  0  0  0  0  0  0  0  0  0  0  0
   -4.6483    0.6033  -17.2709 H   0  0  0  0  0  0  0  0  0  0  0  0
   -7.7862   -1.6755  -18.6577 H   0  0  0  0  0  0  0  0  0  0  0  0
   -7.6610   -2.6629  -21.4499 C   0  0  0  0  0  0  0  0  0  0  0  0
   -6.9565   -3.5639  -21.0518 O   0  0  0  0  0  0  0  0  0  0  0  0
   -8.8784   -2.7514  -22.3458 C   0  0  0  0  0  0  0  0  0  0  0  0
   -8.7372   -3.8135  -23.4456 C   0  0  0  0  0  0  0  0  0  0  0  0
  -10.0028   -4.4526  -23.0060 N   0  0  0  0  0  0  0  0  0  0  0  0
  -11.2882   -4.4257  -24.0987 S   0  0  0  0  0  0  0  0  0  0  0  0
  -12.5195   -4.7318  -23.3971 O   0  0  0  0  0  0  0  0  0  0  0  0
  -11.2209   -3.2167  -24.9085 O   0  0  0  0  0  0  0  0  0  0  0  0
  -10.8108   -5.7734  -25.1476 C   0  0  0  0  0  0  0  0  0  0  0  0
  -11.4409   -5.8080  -26.3826 C   0  0  0  0  0  0  0  0  0  0  0  0
  -11.0221   -6.7153  -27.3492 C   0  0  0  0  0  0  0  0  0  0  0  0
   -9.9801   -7.5914  -27.0450 C   0  0  0  0  0  0  0  0  0  0  0  0
   -9.4003   -7.6008  -25.7812 C   0  0  0  0  0  0  0  0  0  0  0  0
   -9.8226   -6.6957  -24.8164 C   0  0  0  0  0  0  0  0  0  0  0  0
   -9.3935   -6.6918  -23.8193 H   0  0  0  0  0  0  0  0  0  0  0  0
   -8.5937   -8.2995  -25.5648 H   0  0  0  0  0  0  0  0  0  0  0  0
   -9.5924   -8.2814  -27.7869 H   0  0  0  0  0  0  0  0  0  0  0  0
  -11.4678   -6.7066  -28.3431 H   0  0  0  0  0  0  0  0  0  0  0  0
  -12.2331   -5.0948  -26.5652 H   0  0  0  0  0  0  0  0  0  0  0  0
  -10.0951   -3.5525  -21.8253 C   0  0  0  0  0  0  0  0  0  0  0  0
   -9.8891   -4.1020  -20.9077 H   0  0  0  0  0  0  0  0  0  0  0  0
  -11.0229   -2.9841  -21.7363 H   0  0  0  0  0  0  0  0  0  0  0  0
   -8.6888   -3.4519  -24.4753 H   0  0  0  0  0  0  0  0  0  0  0  0
   -7.8956   -4.4721  -23.2159 H   0  0  0  0  0  0  0  0  0  0  0  0
  -11.1312   -1.0336  -23.2815 H   0  0  0  0  0  0  0  0  0  0  0  0
  -10.0194   -1.3680  -24.6101 H   0  0  0  0  0  0  0  0  0  0  0  0
   -9.9491    0.1953  -23.7508 H   0  0  0  0  0  0  0  0  0  0  0  0
  1  2  1  0
  2  3  1  0
  3  4  2  0
  3  5  1  0
  5  6  1  0
  6  7  2  0
  7  8  1  0
  8  9  2  0
  9 10  1  0
 10 11  2  0
 11 12  1  0
 12 13  2  0
 13 14  1  0
 14 15  2  0
 14 16  1  0
 13 17  1  0
 12 18  1  0
 11 19  1  0
  9 20  1  0
  7 21  1  0
  5 22  1  0
 22 23  2  0
 22 24  1  0
 24 25  1  0
 25 26  1  0
 26 27  1  0
 27 28  2  0
 27 29  2  0
 27 30  1  0
 30 31  2  0
 31 32  1  0
 32 33  2  0
 33 34  1  0
 34 35  2  0
 35 36  1  0
 34 37  1  0
 33 38  1  0
 32 39  1  0
 31 40  1  0
 26 41  1  0
 41 42  1  0
 41 43  1  0
 25 44  1  0
 25 45  1  0
  1 46  1  0
  1 47  1  0
  1 48  1  0
 24  2  1  0
 35 30  1  0
 15  6  1  0
 41 24  1  0
 15 10  1  0
M  END
>  <cnnaffinities>  (12) 
[5.99168, 5.99334, 5.98504]

>  <score>  (12) 
5.99168

>  <index>  (12) 
11

>  <Smiles>  (12) 
C(N1C(=O)N(c2c(nc(c3c(c(c(c(c23)[H])[H])[H])[H])[H])[H])C(=O)C21C(N(S(=O)(=O)c1c(c(c(c(c1[H])[H])[H])[H])[H])C2([H])[H])([H])[H])([H])([H])[H]

>  <h>  (12) 
<NA>

>  <Training>  (12) 
True

>  <Success>  (12) 
True

>  <enamine_searched>  (12) 
False

>  <enamine_id>  (12) 
nan

$$$$

     RDKit          3D

 76 82  0  0  0  0  0  0  0  0999 V2000
  -11.3158    1.5646  -24.7903 O   0  0  0  0  0  0  0  0  0  0  0  0
  -10.7186    0.5660  -24.3937 C   0  0  0  0  0  0  0  0  0  0  0  0
  -11.3295   -0.3833  -23.4051 C   0  0  0  0  0  0  0  0  0  0  0  0
  -12.6838   -0.2288  -23.1143 C   0  0  0  0  0  0  0  0  0  0  0  0
  -13.3265   -1.1127  -22.2703 C   0  0  0  0  0  0  0  0  0  0  0  0
  -12.5841   -2.1471  -21.7055 C   0  0  0  0  0  0  0  0  0  0  0  0
  -13.3881   -3.2764  -20.6555 Cl  0  0  0  0  0  0  0  0  0  0  0  0
  -11.2264   -2.2840  -21.9388 C   0  0  0  0  0  0  0  0  0  0  0  0
  -10.5681   -1.3982  -22.8031 C   0  0  0  0  0  0  0  0  0  0  0  0
   -9.0639   -1.4818  -23.0823 C   0  0  1  0  0  0  0  0  0  0  0  0
   -8.8752   -1.0522  -24.5574 C   0  0  0  0  0  0  0  0  0  0  0  0
   -9.4802    0.2318  -24.8528 N   0  0  0  0  0  0  0  0  0  0  0  0
   -8.6590    1.2498  -25.4925 C   0  0  0  0  0  0  0  0  0  0  0  0
   -8.3469    0.9051  -26.9465 C   0  0  0  0  0  0  0  0  0  0  0  0
   -9.6236    0.6301  -27.6968 N   0  0  0  0  0  4  0  0  0  0  0  0
   -9.4561   -0.2454  -28.9086 C   0  0  0  0  0  0  0  0  0  0  0  0
   -8.9103    0.5331  -30.1028 C   0  0  0  0  0  0  0  0  0  0  0  0
   -9.6947    1.6736  -30.4001 O   0  0  0  0  0  0  0  0  0  0  0  0
   -9.7395    2.5636  -29.3013 C   0  0  0  0  0  0  0  0  0  0  0  0
  -10.3720    1.8878  -28.0943 C   0  0  0  0  0  0  0  0  0  0  0  0
  -10.4262    2.5557  -27.2326 H   0  0  0  0  0  0  0  0  0  0  0  0
  -11.3888    1.5975  -28.3665 H   0  0  0  0  0  0  0  0  0  0  0  0
   -8.7305    2.9335  -29.0617 H   0  0  0  0  0  0  0  0  0  0  0  0
  -10.3511    3.4152  -29.6106 H   0  0  0  0  0  0  0  0  0  0  0  0
   -8.9319   -0.0978  -30.9954 H   0  0  0  0  0  0  0  0  0  0  0  0
   -7.8660    0.8285  -29.9109 H   0  0  0  0  0  0  0  0  0  0  0  0
   -8.7926   -1.0775  -28.6566 H   0  0  0  0  0  0  0  0  0  0  0  0
  -10.4301   -0.6639  -29.1646 H   0  0  0  0  0  0  0  0  0  0  0  0
  -10.2117    0.1042  -27.0256 H   0  0  0  0  0  0  0  0  0  0  0  0
   -7.7941    1.7214  -27.4162 H   0  0  0  0  0  0  0  0  0  0  0  0
   -7.7182    0.0090  -27.0042 H   0  0  0  0  0  0  0  0  0  0  0  0
   -7.7319    1.3740  -24.9195 H   0  0  0  0  0  0  0  0  0  0  0  0
   -9.2292    2.1773  -25.4342 H   0  0  0  0  0  0  0  0  0  0  0  0
   -9.3261   -1.8238  -25.1999 H   0  0  0  0  0  0  0  0  0  0  0  0
   -7.8126   -0.9732  -24.7941 H   0  0  0  0  0  0  0  0  0  0  0  0
   -8.2571   -0.5469  -22.1441 C   0  0  0  0  0  0  0  0  0  0  0  0
   -8.2954    0.6660  -22.1167 O   0  0  0  0  0  0  0  0  0  0  0  0
   -7.4654   -1.3228  -21.3179 N   0  0  0  0  0  0  0  0  0  0  0  0
   -6.6578   -0.7870  -20.2854 C   0  0  0  0  0  0  0  0  0  0  0  0
   -6.9637   -1.0550  -18.9736 C   0  0  0  0  0  0  0  0  0  0  0  0
   -6.2875   -0.5665  -17.9072 N   0  0  0  0  0  0  0  0  0  0  0  0
   -5.2524    0.1973  -18.1443 C   0  0  0  0  0  0  0  0  0  0  0  0
   -4.7902    0.5195  -19.4503 C   0  0  0  0  0  0  0  0  0  0  0  0
   -3.6460    1.3370  -19.6426 C   0  0  0  0  0  0  0  0  0  0  0  0
   -3.1897    1.6029  -20.9040 C   0  0  0  0  0  0  0  0  0  0  0  0
   -3.8545    1.0593  -22.0246 C   0  0  0  0  0  0  0  0  0  0  0  0
   -4.9706    0.2750  -21.8645 C   0  0  0  0  0  0  0  0  0  0  0  0
   -5.4867    0.0005  -20.5655 C   0  0  0  0  0  0  0  0  0  0  0  0
   -5.4682   -0.1376  -22.7369 H   0  0  0  0  0  0  0  0  0  0  0  0
   -3.4826    1.2656  -23.0237 H   0  0  0  0  0  0  0  0  0  0  0  0
   -2.3187    2.2353  -21.0514 H   0  0  0  0  0  0  0  0  0  0  0  0
   -3.1507    1.7432  -18.7659 H   0  0  0  0  0  0  0  0  0  0  0  0
   -4.7155    0.5932  -17.2826 H   0  0  0  0  0  0  0  0  0  0  0  0
   -7.8249   -1.6780  -18.7340 H   0  0  0  0  0  0  0  0  0  0  0  0
   -7.8312   -2.7251  -21.3727 C   0  0  0  0  0  0  0  0  0  0  0  0
   -8.4423   -2.8726  -22.7775 C   0  0  2  0  0  0  0  0  0  0  0  0
   -7.3962   -3.3598  -23.7951 C   0  0  0  0  0  0  0  0  0  0  0  0
   -7.0308   -4.7437  -23.5769 N   0  0  0  0  0  0  0  0  0  0  0  0
   -7.8939   -5.7450  -23.7902 C   0  0  0  0  0  0  0  0  0  0  0  0
  -10.2839   -5.6857  -24.7671 N   0  0  0  0  0  0  0  0  0  0  0  0
   -9.1472   -5.5639  -24.3811 C   0  0  0  0  0  0  0  0  0  0  0  0
   -8.6138   -7.7645  -23.7686 C   0  0  0  0  0  0  0  0  0  0  0  0
   -8.5263   -7.8399  -23.7300 C   0  0  0  0  0  0  0  0  0  0  0  0
   -7.4964   -6.9951  -23.3650 N   0  0  0  0  0  0  0  0  0  0  0  0
   -8.3524   -8.9643  -23.2651 H   0  0  0  0  0  0  0  0  0  0  0  0
   -8.7674   -7.8696  -24.9319 H   0  0  0  0  0  0  0  0  0  0  0  0
  -10.3612   -6.7198  -24.5833 H   0  0  0  0  0  0  0  0  0  0  0  0
   -6.3092   -4.9644  -22.9085 H   0  0  0  0  0  0  0  0  0  0  0  0
   -7.7820   -3.2878  -24.8165 H   0  0  0  0  0  0  0  0  0  0  0  0
   -6.4833   -2.7594  -23.7545 H   0  0  0  0  0  0  0  0  0  0  0  0
   -9.2132   -3.6424  -22.7836 H   0  0  0  0  0  0  0  0  0  0  0  0
   -8.5745   -2.9724  -20.6008 H   0  0  0  0  0  0  0  0  0  0  0  0
   -6.9481   -3.3467  -21.1988 H   0  0  0  0  0  0  0  0  0  0  0  0
  -10.6969   -3.0872  -21.4390 H   0  0  0  0  0  0  0  0  0  0  0  0
  -14.3804   -1.0058  -22.0408 H   0  0  0  0  0  0  0  0  0  0  0  0
  -13.2142    0.5962  -23.5779 H   0  0  0  0  0  0  0  0  0  0  0  0
  1  2  2  0
  2  3  1  0
  3  4  2  0
  4  5  1  0
  5  6  2  0
  6  7  1  0
  6  8  1  0
  8  9  2  0
  9 10  1  0
 10 11  1  6
 11 12  1  0
 12 13  1  0
 13 14  1  0
 14 15  1  0
 15 16  1  0
 16 17  1  0
 17 18  1  0
 18 19  1  0
 19 20  1  0
 20 21  1  0
 20 22  1  0
 19 23  1  0
 19 24  1  0
 17 25  1  0
 17 26  1  0
 16 27  1  0
 16 28  1  0
 15 29  1  0
 14 30  1  0
 14 31  1  0
 13 32  1  0
 13 33  1  0
 11 34  1  0
 11 35  1  0
 10 36  1  0
 36 37  2  0
 36 38  1  0
 38 39  1  0
 39 40  2  0
 40 41  1  0
 41 42  2  0
 42 43  1  0
 43 44  2  0
 44 45  1  0
 45 46  2  0
 46 47  1  0
 47 48  2  0
 47 49  1  0
 46 50  1  0
 45 51  1  0
 44 52  1  0
 42 53  1  0
 40 54  1  0
 38 55  1  0
 55 56  1  0
 56 57  1  0
 57 58  1  0
 58 59  1  0
 59 60  2  0
 60 61  1  0
 61 62  2  0
 62 63  1  0
 63 64  2  0
 63 65  1  0
 62 66  1  0
 61 67  1  0
 58 68  1  0
 57 69  1  0
 57 70  1  0
 56 71  1  1
 55 72  1  0
 55 73  1  0
  8 74  1  0
  5 75  1  0
  4 76  1  0
 12  2  1  0
 20 15  1  0
 48 39  1  0
 64 59  1  0
  9  3  1  0
 56 10  1  0
 48 43  1  0
M  CHG  1  15   1
M  END
>  <cnnaffinities>  (13) 
[6.09126]

>  <score>  (13) 
6.09126

>  <index>  (13) 
12

>  <Smiles>  (13) 
O=C1c2c(c(c(Cl)c(c2[C@@]2(C(N1C(C([N+]1(C(C(OC(C1([H])[H])([H])[H])([H])[H])([H])[H])[H])([H])[H])([H])[H])([H])[H])C(=O)N(c1c(nc(c3c(c(c(c(c13)[H])[H])[H])[H])[H])[H])C([C@@]2(C(N(c1nc(c(c(n1)[H])[H])[H])[H])([H])[H])[H])([H])[H])[H])[H])[H]

>  <h>  (13) 
<NA>

>  <Training>  (13) 
True

>  <Success>  (13) 
True

>  <enamine_searched>  (13) 
False

>  <enamine_id>  (13) 
nan

$$$$

     RDKit          3D

 69 74  0  0  0  0  0  0  0  0999 V2000
   -7.3700    3.2728  -21.7922 C   0  0  0  0  0  0  0  0  0  0  0  0
   -8.2910    2.8449  -22.8356 N   0  0  0  0  0  0  0  0  0  0  0  0
   -7.7489    2.1725  -23.8905 C   0  0  0  0  0  0  0  0  0  0  0  0
   -6.5405    2.0463  -24.0396 O   0  0  0  0  0  0  0  0  0  0  0  0
   -8.7311    1.5719  -24.8941 C   0  0  0  0  0  0  0  0  0  0  0  0
   -9.4075    0.4202  -24.3345 N   0  0  0  0  0  0  0  0  0  0  0  0
   -8.6665   -0.8218  -24.1777 C   0  0  0  0  0  0  0  0  0  0  0  0
   -9.0583   -1.5509  -22.8682 C   0  0  2  0  0  0  0  0  0  0  0  0
   -8.5431   -0.7603  -21.6431 C   0  0  0  0  0  0  0  0  0  0  0  0
   -9.0342    0.2328  -21.1428 O   0  0  0  0  0  0  0  0  0  0  0  0
   -7.3985   -1.3718  -21.1941 N   0  0  0  0  0  0  0  0  0  0  0  0
   -6.6031   -0.8021  -20.1762 C   0  0  0  0  0  0  0  0  0  0  0  0
   -6.9192   -1.0316  -18.8629 C   0  0  0  0  0  0  0  0  0  0  0  0
   -6.2161   -0.5423  -17.8171 N   0  0  0  0  0  0  0  0  0  0  0  0
   -5.1742    0.2057  -18.0835 C   0  0  0  0  0  0  0  0  0  0  0  0
   -4.7381    0.5270  -19.4010 C   0  0  0  0  0  0  0  0  0  0  0  0
   -3.6122    1.3583  -19.6425 C   0  0  0  0  0  0  0  0  0  0  0  0
   -3.2296    1.6557  -20.9222 C   0  0  0  0  0  0  0  0  0  0  0  0
   -3.9509    1.1393  -22.0202 C   0  0  0  0  0  0  0  0  0  0  0  0
   -5.0437    0.3305  -21.8132 C   0  0  0  0  0  0  0  0  0  0  0  0
   -5.4660    0.0021  -20.4936 C   0  0  0  0  0  0  0  0  0  0  0  0
   -5.6065   -0.0270  -22.6699 H   0  0  0  0  0  0  0  0  0  0  0  0
   -3.6557    1.3890  -23.0345 H   0  0  0  0  0  0  0  0  0  0  0  0
   -2.3727    2.2977  -21.0976 H   0  0  0  0  0  0  0  0  0  0  0  0
   -3.0766    1.7560  -18.7858 H   0  0  0  0  0  0  0  0  0  0  0  0
   -4.6135    0.6006  -17.2359 H   0  0  0  0  0  0  0  0  0  0  0  0
   -7.7840   -1.6463  -18.6251 H   0  0  0  0  0  0  0  0  0  0  0  0
   -7.0209   -2.5582  -21.9237 C   0  0  0  0  0  0  0  0  0  0  0  0
   -8.3000   -2.9058  -22.7090 C   0  0  2  0  0  0  0  0  0  0  0  0
   -8.0169   -3.6994  -24.0038 C   0  0  0  0  0  0  0  0  0  0  0  0
   -7.4945   -5.0366  -23.7907 N   0  0  0  0  0  0  0  0  0  0  0  0
   -6.1906   -5.3121  -23.5008 C   0  0  0  0  0  0  0  0  0  0  0  0
   -5.0934   -4.5414  -23.9365 C   0  0  0  0  0  0  0  0  0  0  0  0
   -3.8443   -4.9805  -23.5346 C   0  0  0  0  0  0  0  0  0  0  0  0
   -3.6470   -6.0398  -22.7450 N   0  0  0  0  0  0  0  0  0  0  0  0
   -4.7549   -6.7119  -22.4146 C   0  0  0  0  0  0  0  0  0  0  0  0
   -4.5886   -7.9041  -21.5184 C   0  0  0  0  0  0  0  0  0  0  0  0
   -3.5795   -8.3163  -21.6431 H   0  0  0  0  0  0  0  0  0  0  0  0
   -5.3794   -8.6378  -21.7205 H   0  0  0  0  0  0  0  0  0  0  0  0
   -4.7065   -7.5961  -20.4742 H   0  0  0  0  0  0  0  0  0  0  0  0
   -6.0025   -6.4195  -22.7744 N   0  0  0  0  0  0  0  0  0  0  0  0
   -2.9422   -4.4577  -23.8618 H   0  0  0  0  0  0  0  0  0  0  0  0
   -5.2096   -3.6494  -24.5474 H   0  0  0  0  0  0  0  0  0  0  0  0
   -8.1156   -5.7378  -23.4096 H   0  0  0  0  0  0  0  0  0  0  0  0
   -7.2842   -3.1609  -24.6133 H   0  0  0  0  0  0  0  0  0  0  0  0
   -8.9269   -3.7944  -24.6076 H   0  0  0  0  0  0  0  0  0  0  0  0
   -8.9109   -3.5437  -22.0617 H   0  0  0  0  0  0  0  0  0  0  0  0
   -6.1649   -2.3632  -22.5918 H   0  0  0  0  0  0  0  0  0  0  0  0
   -6.7219   -3.3450  -21.2251 H   0  0  0  0  0  0  0  0  0  0  0  0
  -10.5686   -1.6279  -22.8169 C   0  0  0  0  0  0  0  0  0  0  0  0
  -11.1996   -2.5430  -21.9716 C   0  0  0  0  0  0  0  0  0  0  0  0
  -12.5775   -2.5631  -21.8825 C   0  0  0  0  0  0  0  0  0  0  0  0
  -13.3250   -3.6918  -20.7969 Cl  0  0  0  0  0  0  0  0  0  0  0  0
  -13.3807   -1.6942  -22.6190 C   0  0  0  0  0  0  0  0  0  0  0  0
  -12.7609   -0.7579  -23.4179 C   0  0  0  0  0  0  0  0  0  0  0  0
  -11.3723   -0.7001  -23.4904 C   0  0  0  0  0  0  0  0  0  0  0  0
  -10.7717    0.4370  -24.2507 C   0  0  0  0  0  0  0  0  0  0  0  0
  -11.4533    1.3350  -24.7280 O   0  0  0  0  0  0  0  0  0  0  0  0
  -13.3210   -0.0288  -23.9890 H   0  0  0  0  0  0  0  0  0  0  0  0
  -14.4608   -1.7414  -22.5389 H   0  0  0  0  0  0  0  0  0  0  0  0
  -10.6323   -3.2351  -21.3613 H   0  0  0  0  0  0  0  0  0  0  0  0
   -7.5947   -0.5887  -24.1896 H   0  0  0  0  0  0  0  0  0  0  0  0
   -8.8805   -1.4877  -25.0251 H   0  0  0  0  0  0  0  0  0  0  0  0
   -8.1551    1.2842  -25.7818 H   0  0  0  0  0  0  0  0  0  0  0  0
   -9.5100    2.2871  -25.1797 H   0  0  0  0  0  0  0  0  0  0  0  0
   -9.2536    2.6720  -22.5677 H   0  0  0  0  0  0  0  0  0  0  0  0
   -6.7219    4.0764  -22.1626 H   0  0  0  0  0  0  0  0  0  0  0  0
   -7.9519    3.6348  -20.9488 H   0  0  0  0  0  0  0  0  0  0  0  0
   -6.7459    2.4289  -21.4645 H   0  0  0  0  0  0  0  0  0  0  0  0
  1  2  1  0
  2  3  1  0
  3  4  2  0
  3  5  1  0
  5  6  1  0
  6  7  1  0
  8  7  1  6
  8  9  1  0
  9 10  2  0
  9 11  1  0
 11 12  1  0
 12 13  2  0
 13 14  1  0
 14 15  2  0
 15 16  1  0
 16 17  2  0
 17 18  1  0
 18 19  2  0
 19 20  1  0
 20 21  2  0
 20 22  1  0
 19 23  1  0
 18 24  1  0
 17 25  1  0
 15 26  1  0
 13 27  1  0
 11 28  1  0
 28 29  1  0
 29 30  1  0
 30 31  1  0
 31 32  1  0
 32 33  2  0
 33 34  1  0
 34 35  2  0
 35 36  1  0
 36 37  1  0
 37 38  1  0
 37 39  1  0
 37 40  1  0
 36 41  2  0
 34 42  1  0
 33 43  1  0
 31 44  1  0
 30 45  1  0
 30 46  1  0
 29 47  1  1
 28 48  1  0
 28 49  1  0
  8 50  1  0
 50 51  2  0
 51 52  1  0
 52 53  1  0
 52 54  2  0
 54 55  1  0
 55 56  2  0
 56 57  1  0
 57 58  2  0
 55 59  1  0
 54 60  1  0
 51 61  1  0
  7 62  1  0
  7 63  1  0
  5 64  1  0
  5 65  1  0
  2 66  1  0
  1 67  1  0
  1 68  1  0
  1 69  1  0
 57  6  1  0
 29  8  1  0
 41 32  1  0
 56 50  1  0
 21 12  1  0
 21 16  1  0
M  END
>  <cnnaffinities>  (14) 
[6.7495]

>  <score>  (14) 
6.7495

>  <index>  (14) 
13

>  <Smiles>  (14) 
C(N(C(=O)C(N1C([C@@]2(C(=O)N(c3c(nc(c4c(c(c(c(c34)[H])[H])[H])[H])[H])[H])C([C@@]2(C(N(c2c(c(nc(C([H])([H])[H])n2)[H])[H])[H])([H])[H])[H])([H])[H])c2c(c(Cl)c(c(c2C1=O)[H])[H])[H])([H])[H])([H])[H])[H])([H])([H])[H]

>  <h>  (14) 
<NA>

>  <Training>  (14) 
True

>  <Success>  (14) 
True

>  <enamine_searched>  (14) 
False

>  <enamine_id>  (14) 
nan

$$$$

     RDKit          3D

 73 78  0  0  0  0  0  0  0  0999 V2000
   -7.9436   -3.7504  -24.0048 C   0  0  0  0  0  0  0  0  0  0  0  0
   -8.2978   -2.8749  -22.7987 C   0  0  1  0  0  0  0  0  0  0  0  0
   -7.0998   -2.6534  -21.8499 C   0  0  0  0  0  0  0  0  0  0  0  0
   -7.4058   -1.3925  -21.1996 N   0  0  0  0  0  0  0  0  0  0  0  0
   -6.6031   -0.8125  -20.1776 C   0  0  0  0  0  0  0  0  0  0  0  0
   -6.8988   -1.0491  -18.8603 C   0  0  0  0  0  0  0  0  0  0  0  0
   -6.1919   -0.5502  -17.8176 N   0  0  0  0  0  0  0  0  0  0  0  0
   -5.1635    0.2133  -18.0831 C   0  0  0  0  0  0  0  0  0  0  0  0
   -4.7342    0.5410  -19.4014 C   0  0  0  0  0  0  0  0  0  0  0  0
   -3.6069    1.3744  -19.6438 C   0  0  0  0  0  0  0  0  0  0  0  0
   -3.2172    1.6636  -20.9237 C   0  0  0  0  0  0  0  0  0  0  0  0
   -3.9343    1.1293  -22.0168 C   0  0  0  0  0  0  0  0  0  0  0  0
   -5.0285    0.3236  -21.8055 C   0  0  0  0  0  0  0  0  0  0  0  0
   -5.4694    0.0093  -20.4884 C   0  0  0  0  0  0  0  0  0  0  0  0
   -5.5600   -0.0888  -22.6568 H   0  0  0  0  0  0  0  0  0  0  0  0
   -3.6367    1.3712  -23.0336 H   0  0  0  0  0  0  0  0  0  0  0  0
   -2.3659    2.3140  -21.1022 H   0  0  0  0  0  0  0  0  0  0  0  0
   -3.0748    1.7801  -18.7881 H   0  0  0  0  0  0  0  0  0  0  0  0
   -4.6143    0.6171  -17.2318 H   0  0  0  0  0  0  0  0  0  0  0  0
   -7.7501   -1.6724  -18.5960 H   0  0  0  0  0  0  0  0  0  0  0  0
   -8.3894   -0.6643  -21.8323 C   0  0  0  0  0  0  0  0  0  0  0  0
   -8.8034    0.4051  -21.4364 O   0  0  0  0  0  0  0  0  0  0  0  0
   -8.8396   -1.4409  -23.1001 C   0  0  1  0  0  0  0  0  0  0  0  0
   -8.1528   -0.8414  -24.3594 C   0  0  0  0  0  0  0  0  0  0  0  0
   -8.5976    0.5091  -24.6292 N   0  0  0  0  0  0  0  0  0  0  0  0
   -7.6375    1.5710  -24.8904 C   0  0  0  0  0  0  0  0  0  0  0  0
   -7.5128    2.5179  -23.6949 C   0  0  0  0  0  0  0  0  0  0  0  0
   -6.4209    3.5546  -23.8641 N   0  0  0  0  0  4  0  0  0  0  0  0
   -6.7546    4.6752  -24.8434 C   0  0  0  0  0  0  0  0  0  0  0  0
   -7.7620    5.6765  -24.2712 C   0  0  0  0  0  0  0  0  0  0  0  0
   -7.3568    6.1619  -22.9544 N   0  0  0  0  0  0  0  0  0  0  0  0
   -6.5536    7.6059  -22.8371 S   0  0  0  0  0  0  0  0  0  0  0  0
   -6.0479    7.6921  -21.4802 O   0  0  0  0  0  0  0  0  0  0  0  0
   -7.4129    8.6297  -23.3997 O   0  0  0  0  0  0  0  0  0  0  0  0
   -5.1439    7.5258  -23.9319 C   0  0  0  0  0  0  0  0  0  0  0  0
   -5.5112    7.4996  -24.9624 H   0  0  0  0  0  0  0  0  0  0  0  0
   -4.5134    6.6675  -23.6889 H   0  0  0  0  0  0  0  0  0  0  0  0
   -4.6058    8.4632  -23.7587 H   0  0  0  0  0  0  0  0  0  0  0  0
   -7.0282    5.1115  -21.9926 C   0  0  0  0  0  0  0  0  0  0  0  0
   -5.9820    4.1543  -22.5433 C   0  0  0  0  0  0  0  0  0  0  0  0
   -5.0497    4.6979  -22.7145 H   0  0  0  0  0  0  0  0  0  0  0  0
   -5.7815    3.3394  -21.8420 H   0  0  0  0  0  0  0  0  0  0  0  0
   -7.9573    4.5755  -21.7694 H   0  0  0  0  0  0  0  0  0  0  0  0
   -6.6648    5.6160  -21.1016 H   0  0  0  0  0  0  0  0  0  0  0  0
   -8.7389    5.2009  -24.1401 H   0  0  0  0  0  0  0  0  0  0  0  0
   -7.8972    6.5356  -24.9325 H   0  0  0  0  0  0  0  0  0  0  0  0
   -7.1477    4.2400  -25.7605 H   0  0  0  0  0  0  0  0  0  0  0  0
   -5.8173    5.1840  -25.0808 H   0  0  0  0  0  0  0  0  0  0  0  0
   -5.5896    3.0492  -24.2257 H   0  0  0  0  0  0  0  0  0  0  0  0
   -7.2838    1.9431  -22.7927 H   0  0  0  0  0  0  0  0  0  0  0  0
   -8.4704    3.0199  -23.5398 H   0  0  0  0  0  0  0  0  0  0  0  0
   -6.6647    1.1087  -25.0947 H   0  0  0  0  0  0  0  0  0  0  0  0
   -7.9574    2.1128  -25.7841 H   0  0  0  0  0  0  0  0  0  0  0  0
   -9.9307    0.7961  -24.6780 C   0  0  0  0  0  0  0  0  0  0  0  0
  -10.3669    1.8316  -25.1710 O   0  0  0  0  0  0  0  0  0  0  0  0
  -10.8480   -0.2261  -24.0539 C   0  0  0  0  0  0  0  0  0  0  0  0
  -12.2247   -0.0484  -24.1977 C   0  0  0  0  0  0  0  0  0  0  0  0
  -13.1145   -0.8979  -23.5690 C   0  0  0  0  0  0  0  0  0  0  0  0
  -12.6110   -1.9162  -22.7614 C   0  0  0  0  0  0  0  0  0  0  0  0
  -13.7263   -2.9500  -21.9146 Cl  0  0  0  0  0  0  0  0  0  0  0  0
  -11.2500   -2.1115  -22.6064 C   0  0  0  0  0  0  0  0  0  0  0  0
  -10.3412   -1.2904  -23.2879 C   0  0  0  0  0  0  0  0  0  0  0  0
  -10.9184   -2.8911  -21.9286 H   0  0  0  0  0  0  0  0  0  0  0  0
  -14.1861   -0.7701  -23.6745 H   0  0  0  0  0  0  0  0  0  0  0  0
  -12.5690    0.7861  -24.7990 H   0  0  0  0  0  0  0  0  0  0  0  0
   -8.3807   -1.4919  -25.2190 H   0  0  0  0  0  0  0  0  0  0  0  0
   -7.0669   -0.8215  -24.2122 H   0  0  0  0  0  0  0  0  0  0  0  0
   -6.1524   -2.6023  -22.4114 H   0  0  0  0  0  0  0  0  0  0  0  0
   -6.9958   -3.4525  -21.1078 H   0  0  0  0  0  0  0  0  0  0  0  0
   -9.0730   -3.3825  -22.2182 H   0  0  0  0  0  0  0  0  0  0  0  0
   -7.0901   -3.3392  -24.5575 H   0  0  0  0  0  0  0  0  0  0  0  0
   -7.6640   -4.7603  -23.6861 H   0  0  0  0  0  0  0  0  0  0  0  0
   -8.7815   -3.8405  -24.7050 H   0  0  0  0  0  0  0  0  0  0  0  0
  1  2  1  0
  2  3  1  0
  3  4  1  0
  4  5  1  0
  5  6  2  0
  6  7  1  0
  7  8  2  0
  8  9  1  0
  9 10  2  0
 10 11  1  0
 11 12  2  0
 12 13  1  0
 13 14  2  0
 13 15  1  0
 12 16  1  0
 11 17  1  0
 10 18  1  0
  8 19  1  0
  6 20  1  0
  4 21  1  0
 21 22  2  0
 21 23  1  0
 23 24  1  6
 24 25  1  0
 25 26  1  0
 26 27  1  0
 27 28  1  0
 28 29  1  0
 29 30  1  0
 30 31  1  0
 31 32  1  0
 32 33  2  0
 32 34  2  0
 32 35  1  0
 35 36  1  0
 35 37  1  0
 35 38  1  0
 31 39  1  0
 39 40  1  0
 40 41  1  0
 40 42  1  0
 39 43  1  0
 39 44  1  0
 30 45  1  0
 30 46  1  0
 29 47  1  0
 29 48  1  0
 28 49  1  0
 27 50  1  0
 27 51  1  0
 26 52  1  0
 26 53  1  0
 25 54  1  0
 54 55  2  0
 54 56  1  0
 56 57  2  0
 57 58  1  0
 58 59  2  0
 59 60  1  0
 59 61  1  0
 61 62  2  0
 61 63  1  0
 58 64  1  0
 57 65  1  0
 24 66  1  0
 24 67  1  0
  3 68  1  0
  3 69  1  0
  2 70  1  1
  1 71  1  0
  1 72  1  0
  1 73  1  0
 23  2  1  0
 40 28  1  0
 62 56  1  0
 14  5  1  0
 62 23  1  0
 14  9  1  0
M  CHG  1  28   1
M  END
>  <cnnaffinities>  (15) 
[6.7609]

>  <score>  (15) 
6.7609

>  <index>  (15) 
14

>  <Smiles>  (15) 
C([C@]1(C(N(c2c(nc(c3c(c(c(c(c23)[H])[H])[H])[H])[H])[H])C(=O)[C@]21C(N(C(C([N+]1(C(C(N(S(=O)(=O)C([H])([H])[H])C(C1([H])[H])([H])[H])([H])[H])([H])[H])[H])([H])[H])([H])[H])C(=O)c1c(c(c(Cl)c(c21)[H])[H])[H])([H])[H])([H])[H])[H])([H])([H])[H]

>  <h>  (15) 
<NA>

>  <Training>  (15) 
True

>  <Success>  (15) 
True

>  <enamine_searched>  (15) 
False

>  <enamine_id>  (15) 
nan

$$$$

     RDKit          3D

 63 68  0  0  0  0  0  0  0  0999 V2000
   -7.4943    3.2825  -21.6642 C   0  0  0  0  0  0  0  0  0  0  0  0
   -8.4125    2.8474  -22.6990 N   0  0  0  0  0  0  0  0  0  0  0  0
   -7.8785    2.2068  -23.7579 C   0  0  0  0  0  0  0  0  0  0  0  0
   -6.6689    2.1240  -23.9233 O   0  0  0  0  0  0  0  0  0  0  0  0
   -8.8492    1.5937  -24.7743 C   0  0  0  0  0  0  0  0  0  0  0  0
   -9.5254    0.4042  -24.2899 N   0  0  0  0  0  0  0  0  0  0  0  0
   -8.7631   -0.8285  -24.1753 C   0  0  0  0  0  0  0  0  0  0  0  0
   -9.0915   -1.5822  -22.8598 C   0  0  2  0  0  0  0  0  0  0  0  0
   -8.5475   -0.7866  -21.6421 C   0  0  0  0  0  0  0  0  0  0  0  0
   -9.0373    0.2012  -21.1339 O   0  0  0  0  0  0  0  0  0  0  0  0
   -7.3884   -1.3890  -21.2083 N   0  0  0  0  0  0  0  0  0  0  0  0
   -6.5998   -0.8132  -20.1765 C   0  0  0  0  0  0  0  0  0  0  0  0
   -6.9055   -1.0446  -18.8590 C   0  0  0  0  0  0  0  0  0  0  0  0
   -6.1990   -0.5479  -17.8166 N   0  0  0  0  0  0  0  0  0  0  0  0
   -5.1654    0.2091  -18.0814 C   0  0  0  0  0  0  0  0  0  0  0  0
   -4.7290    0.5331  -19.3976 C   0  0  0  0  0  0  0  0  0  0  0  0
   -3.6051    1.3706  -19.6426 C   0  0  0  0  0  0  0  0  0  0  0  0
   -3.2251    1.6675  -20.9223 C   0  0  0  0  0  0  0  0  0  0  0  0
   -3.9501    1.1411  -22.0140 C   0  0  0  0  0  0  0  0  0  0  0  0
   -5.0385    0.3280  -21.8028 C   0  0  0  0  0  0  0  0  0  0  0  0
   -5.4630    0.0020  -20.4859 C   0  0  0  0  0  0  0  0  0  0  0  0
   -5.5997   -0.0519  -22.6520 H   0  0  0  0  0  0  0  0  0  0  0  0
   -3.6637    1.3853  -23.0316 H   0  0  0  0  0  0  0  0  0  0  0  0
   -2.3758    2.3221  -21.1024 H   0  0  0  0  0  0  0  0  0  0  0  0
   -3.0726    1.7750  -18.7855 H   0  0  0  0  0  0  0  0  0  0  0  0
   -4.6166    0.6121  -17.2299 H   0  0  0  0  0  0  0  0  0  0  0  0
   -7.7563   -1.6699  -18.5986 H   0  0  0  0  0  0  0  0  0  0  0  0
   -7.0233   -2.5863  -21.9375 C   0  0  0  0  0  0  0  0  0  0  0  0
   -8.2955   -2.9206  -22.7410 C   0  0  2  0  0  0  0  0  0  0  0  0
   -7.9704   -3.6679  -24.0520 C   0  0  0  0  0  0  0  0  0  0  0  0
   -7.3958   -4.9857  -23.8137 N   0  0  0  0  0  0  0  0  0  0  0  0
   -8.0723   -6.1189  -23.5160 C   0  0  0  0  0  0  0  0  0  0  0  0
   -7.1357   -7.1013  -23.2847 C   0  0  0  0  0  0  0  0  0  0  0  0
   -5.8993   -6.4444  -23.4769 C   0  0  0  0  0  0  0  0  0  0  0  0
   -6.0671   -5.1651  -23.7900 N   0  0  0  0  0  0  0  0  0  0  0  0
   -4.8869   -6.8303  -23.4048 H   0  0  0  0  0  0  0  0  0  0  0  0
   -7.3166   -8.1373  -23.0223 H   0  0  0  0  0  0  0  0  0  0  0  0
   -9.1569   -6.1159  -23.5007 H   0  0  0  0  0  0  0  0  0  0  0  0
   -7.2306   -3.1224  -24.6485 H   0  0  0  0  0  0  0  0  0  0  0  0
   -8.8813   -3.8162  -24.6452 H   0  0  0  0  0  0  0  0  0  0  0  0
   -8.9134   -3.5931  -22.1421 H   0  0  0  0  0  0  0  0  0  0  0  0
   -6.1641   -2.4053  -22.6035 H   0  0  0  0  0  0  0  0  0  0  0  0
   -6.7352   -3.3867  -21.2472 H   0  0  0  0  0  0  0  0  0  0  0  0
  -10.6058   -1.6842  -22.7521 C   0  0  0  0  0  0  0  0  0  0  0  0
  -11.1921   -2.6136  -21.8837 C   0  0  0  0  0  0  0  0  0  0  0  0
  -12.5675   -2.6721  -21.7549 C   0  0  0  0  0  0  0  0  0  0  0  0
  -13.2866   -3.8174  -20.6619 Cl  0  0  0  0  0  0  0  0  0  0  0  0
  -13.4036   -1.8153  -22.4690 C   0  0  0  0  0  0  0  0  0  0  0  0
  -12.8347   -0.8533  -23.2783 C   0  0  0  0  0  0  0  0  0  0  0  0
  -11.4476   -0.7641  -23.3967 C   0  0  0  0  0  0  0  0  0  0  0  0
  -10.8877    0.4011  -24.1607 C   0  0  0  0  0  0  0  0  0  0  0  0
  -11.6042    1.2919  -24.5970 O   0  0  0  0  0  0  0  0  0  0  0  0
  -13.4357   -0.1283  -23.8192 H   0  0  0  0  0  0  0  0  0  0  0  0
  -14.4782   -1.8975  -22.3589 H   0  0  0  0  0  0  0  0  0  0  0  0
  -10.5857   -3.2781  -21.2803 H   0  0  0  0  0  0  0  0  0  0  0  0
   -8.9769   -1.4906  -25.0307 H   0  0  0  0  0  0  0  0  0  0  0  0
   -7.7047   -0.5519  -24.1906 H   0  0  0  0  0  0  0  0  0  0  0  0
   -9.6465    2.2892  -25.0494 H   0  0  0  0  0  0  0  0  0  0  0  0
   -8.2345    1.3647  -25.6540 H   0  0  0  0  0  0  0  0  0  0  0  0
   -9.3987    2.7586  -22.5000 H   0  0  0  0  0  0  0  0  0  0  0  0
   -6.8434    2.4507  -21.3685 H   0  0  0  0  0  0  0  0  0  0  0  0
   -8.0725    3.6207  -20.8178 H   0  0  0  0  0  0  0  0  0  0  0  0
   -6.8638    4.0981  -22.0313 H   0  0  0  0  0  0  0  0  0  0  0  0
  1  2  1  0
  2  3  1  0
  3  4  2  0
  3  5  1  0
  5  6  1  0
  6  7  1  0
  8  7  1  6
  8  9  1  0
  9 10  2  0
  9 11  1  0
 11 12  1  0
 12 13  2  0
 13 14  1  0
 14 15  2  0
 15 16  1  0
 16 17  2  0
 17 18  1  0
 18 19  2  0
 19 20  1  0
 20 21  2  0
 20 22  1  0
 19 23  1  0
 18 24  1  0
 17 25  1  0
 15 26  1  0
 13 27  1  0
 11 28  1  0
 28 29  1  0
 29 30  1  0
 30 31  1  0
 31 32  1  0
 32 33  2  0
 33 34  1  0
 34 35  2  0
 34 36  1  0
 33 37  1  0
 32 38  1  0
 30 39  1  0
 30 40  1  0
 29 41  1  1
 28 42  1  0
 28 43  1  0
  8 44  1  0
 44 45  2  0
 45 46  1  0
 46 47  1  0
 46 48  2  0
 48 49  1  0
 49 50  2  0
 50 51  1  0
 51 52  2  0
 49 53  1  0
 48 54  1  0
 45 55  1  0
  7 56  1  0
  7 57  1  0
  5 58  1  0
  5 59  1  0
  2 60  1  0
  1 61  1  0
  1 62  1  0
  1 63  1  0
 51  6  1  0
 29  8  1  0
 35 31  1  0
 50 44  1  0
 21 12  1  0
 21 16  1  0
M  END
>  <cnnaffinities>  (16) 
[6.77184, 6.79058, 6.80564]

>  <score>  (16) 
6.77184

>  <index>  (16) 
15

>  <Smiles>  (16) 
C(N(C(=O)C(N1C([C@@]2(C(=O)N(c3c(nc(c4c(c(c(c(c34)[H])[H])[H])[H])[H])[H])C([C@@]2(C(n2c(c(c(n2)[H])[H])[H])([H])[H])[H])([H])[H])c2c(c(Cl)c(c(c2C1=O)[H])[H])[H])([H])[H])([H])[H])[H])([H])([H])[H]

>  <h>  (16) 
<NA>

>  <Training>  (16) 
True

>  <Success>  (16) 
True

>  <enamine_searched>  (16) 
False

>  <enamine_id>  (16) 
nan

$$$$

     RDKit          3D

 61 66  0  0  0  0  0  0  0  0999 V2000
   -7.3865    3.3811  -21.7957 C   0  0  0  0  0  0  0  0  0  0  0  0
   -8.2195    2.9117  -22.8873 N   0  0  0  0  0  0  0  0  0  0  0  0
   -7.6482    2.2358  -23.9082 C   0  0  0  0  0  0  0  0  0  0  0  0
   -6.4347    2.1298  -24.0290 O   0  0  0  0  0  0  0  0  0  0  0  0
   -8.6064    1.6193  -24.9379 C   0  0  0  0  0  0  0  0  0  0  0  0
   -9.3413    0.4706  -24.4365 N   0  0  0  0  0  0  0  0  0  0  0  0
   -8.6309   -0.7859  -24.2608 C   0  0  0  0  0  0  0  0  0  0  0  0
   -9.0331   -1.4940  -22.9395 C   0  0  2  0  0  0  0  0  0  0  0  0
   -8.4826   -0.7051  -21.7238 C   0  0  0  0  0  0  0  0  0  0  0  0
   -8.9111    0.3387  -21.2701 O   0  0  0  0  0  0  0  0  0  0  0  0
   -7.4003   -1.3806  -21.2077 N   0  0  0  0  0  0  0  0  0  0  0  0
   -6.6018   -0.8100  -20.1785 C   0  0  0  0  0  0  0  0  0  0  0  0
   -6.9056   -1.0419  -18.8611 C   0  0  0  0  0  0  0  0  0  0  0  0
   -6.1993   -0.5468  -17.8175 N   0  0  0  0  0  0  0  0  0  0  0  0
   -5.1642    0.2099  -18.0804 C   0  0  0  0  0  0  0  0  0  0  0  0
   -4.7272    0.5322  -19.3963 C   0  0  0  0  0  0  0  0  0  0  0  0
   -3.6004    1.3657  -19.6408 C   0  0  0  0  0  0  0  0  0  0  0  0
   -3.2141    1.6542  -20.9217 C   0  0  0  0  0  0  0  0  0  0  0  0
   -3.9358    1.1231  -22.0132 C   0  0  0  0  0  0  0  0  0  0  0  0
   -5.0293    0.3171  -21.8017 C   0  0  0  0  0  0  0  0  0  0  0  0
   -5.4629    0.0037  -20.4849 C   0  0  0  0  0  0  0  0  0  0  0  0
   -5.5834   -0.0739  -22.6503 H   0  0  0  0  0  0  0  0  0  0  0  0
   -3.6456    1.3606  -23.0311 H   0  0  0  0  0  0  0  0  0  0  0  0
   -2.3617    2.3048  -21.1021 H   0  0  0  0  0  0  0  0  0  0  0  0
   -3.0695    1.7739  -18.7850 H   0  0  0  0  0  0  0  0  0  0  0  0
   -4.6166    0.6128  -17.2286 H   0  0  0  0  0  0  0  0  0  0  0  0
   -7.7576   -1.6658  -18.6010 H   0  0  0  0  0  0  0  0  0  0  0  0
   -7.0708   -2.6041  -21.9086 C   0  0  0  0  0  0  0  0  0  0  0  0
   -8.3139   -2.8711  -22.7774 C   0  0  2  0  0  0  0  0  0  0  0  0
   -7.9528   -3.6326  -24.0712 C   0  0  0  0  0  0  0  0  0  0  0  0
   -7.4240   -4.9612  -23.7775 N   0  0  0  0  0  0  0  0  0  0  0  0
   -6.1346   -5.2363  -23.6751 N   0  0  0  0  0  0  0  0  0  0  0  0
   -6.1677   -6.5202  -23.3516 C   0  0  0  0  0  0  0  0  0  0  0  0
   -7.4267   -6.9964  -23.2620 N   0  0  0  0  0  0  0  0  0  0  0  0
   -8.2080   -5.9899  -23.5379 N   0  0  0  0  0  0  0  0  0  0  0  0
   -5.2834   -7.1170  -23.1716 H   0  0  0  0  0  0  0  0  0  0  0  0
   -7.1689   -3.1187  -24.6358 H   0  0  0  0  0  0  0  0  0  0  0  0
   -8.8319   -3.7832  -24.7062 H   0  0  0  0  0  0  0  0  0  0  0  0
   -8.9883   -3.5234  -22.2178 H   0  0  0  0  0  0  0  0  0  0  0  0
   -6.1675   -2.4793  -22.5272 H   0  0  0  0  0  0  0  0  0  0  0  0
   -6.8728   -3.4205  -21.2057 H   0  0  0  0  0  0  0  0  0  0  0  0
  -10.5513   -1.5223  -22.8653 C   0  0  0  0  0  0  0  0  0  0  0  0
  -11.1941   -2.3832  -21.9670 C   0  0  0  0  0  0  0  0  0  0  0  0
  -12.5740   -2.3925  -21.8791 C   0  0  0  0  0  0  0  0  0  0  0  0
  -13.3574   -3.4774  -20.7669 Cl  0  0  0  0  0  0  0  0  0  0  0  0
  -13.3573   -1.5385  -22.6545 C   0  0  0  0  0  0  0  0  0  0  0  0
  -12.7294   -0.6338  -23.4870 C   0  0  0  0  0  0  0  0  0  0  0  0
  -11.3370   -0.5985  -23.5706 C   0  0  0  0  0  0  0  0  0  0  0  0
  -10.7084    0.5159  -24.3553 C   0  0  0  0  0  0  0  0  0  0  0  0
  -11.3780    1.4177  -24.8470 O   0  0  0  0  0  0  0  0  0  0  0  0
  -13.2897    0.0872  -24.0732 H   0  0  0  0  0  0  0  0  0  0  0  0
  -14.4374   -1.5734  -22.5734 H   0  0  0  0  0  0  0  0  0  0  0  0
  -10.6291   -3.0306  -21.3076 H   0  0  0  0  0  0  0  0  0  0  0  0
   -8.8338   -1.4614  -25.1086 H   0  0  0  0  0  0  0  0  0  0  0  0
   -7.5621   -0.5504  -24.2409 H   0  0  0  0  0  0  0  0  0  0  0  0
   -7.9745    1.3410  -25.7892 H   0  0  0  0  0  0  0  0  0  0  0  0
   -9.3678    2.3330  -25.2666 H   0  0  0  0  0  0  0  0  0  0  0  0
   -9.2183    2.8635  -22.7519 H   0  0  0  0  0  0  0  0  0  0  0  0
   -6.6869    4.1502  -22.1403 H   0  0  0  0  0  0  0  0  0  0  0  0
   -6.8056    2.5551  -21.3600 H   0  0  0  0  0  0  0  0  0  0  0  0
   -8.0499    3.8128  -21.0544 H   0  0  0  0  0  0  0  0  0  0  0  0
  1  2  1  0
  2  3  1  0
  3  4  2  0
  3  5  1  0
  5  6  1  0
  6  7  1  0
  8  7  1  6
  8  9  1  0
  9 10  2  0
  9 11  1  0
 11 12  1  0
 12 13  2  0
 13 14  1  0
 14 15  2  0
 15 16  1  0
 16 17  2  0
 17 18  1  0
 18 19  2  0
 19 20  1  0
 20 21  2  0
 20 22  1  0
 19 23  1  0
 18 24  1  0
 17 25  1  0
 15 26  1  0
 13 27  1  0
 11 28  1  0
 28 29  1  0
 29 30  1  0
 30 31  1  0
 31 32  1  0
 32 33  2  0
 33 34  1  0
 34 35  2  0
 33 36  1  0
 30 37  1  0
 30 38  1  0
 29 39  1  1
 28 40  1  0
 28 41  1  0
  8 42  1  0
 42 43  2  0
 43 44  1  0
 44 45  1  0
 44 46  2  0
 46 47  1  0
 47 48  2  0
 48 49  1  0
 49 50  2  0
 47 51  1  0
 46 52  1  0
 43 53  1  0
  7 54  1  0
  7 55  1  0
  5 56  1  0
  5 57  1  0
  2 58  1  0
  1 59  1  0
  1 60  1  0
  1 61  1  0
 49  6  1  0
 29  8  1  0
 35 31  1  0
 48 42  1  0
 21 12  1  0
 21 16  1  0
M  END
>  <cnnaffinities>  (17) 
[6.67662, 6.65463]

>  <score>  (17) 
6.67662

>  <index>  (17) 
16

>  <Smiles>  (17) 
C(N(C(=O)C(N1C([C@@]2(C(=O)N(c3c(nc(c4c(c(c(c(c34)[H])[H])[H])[H])[H])[H])C([C@@]2(C(n2nc(nn2)[H])([H])[H])[H])([H])[H])c2c(c(Cl)c(c(c2C1=O)[H])[H])[H])([H])[H])([H])[H])[H])([H])([H])[H]

>  <h>  (17) 
<NA>

>  <Training>  (17) 
True

>  <Success>  (17) 
True

>  <enamine_searched>  (17) 
False

>  <enamine_id>  (17) 
nan

$$$$

     RDKit          3D

 38 41  0  0  0  0  0  0  0  0999 V2000
  -11.8749   -3.4274  -24.6649 C   0  0  0  0  0  0  0  0  0  0  0  0
  -10.4618   -2.9816  -24.2831 C   0  0  2  0  0  0  0  0  0  0  0  0
   -9.4909   -4.1590  -24.3114 C   0  0  0  0  0  0  0  0  0  0  0  0
   -8.0536   -3.7126  -24.0338 C   0  0  0  0  0  0  0  0  0  0  0  0
   -7.9931   -2.8092  -22.8874 C   0  0  0  0  0  0  0  0  0  0  0  0
   -6.8420   -2.4285  -22.1221 C   0  0  0  0  0  0  0  0  0  0  0  0
   -5.6909   -2.7977  -22.2058 O   0  0  0  0  0  1  0  0  0  0  0  0
   -7.3505   -1.4695  -21.1998 N   0  0  0  0  0  0  0  0  0  0  0  0
   -6.5786   -0.8417  -20.1830 C   0  0  0  0  0  0  0  0  0  0  0  0
   -6.8894   -1.0510  -18.8640 C   0  0  0  0  0  0  0  0  0  0  0  0
   -6.1874   -0.5388  -17.8213 N   0  0  0  0  0  0  0  0  0  0  0  0
   -5.1559    0.2173  -18.0790 C   0  0  0  0  0  0  0  0  0  0  0  0
   -4.7254    0.5364  -19.3941 C   0  0  0  0  0  0  0  0  0  0  0  0
   -3.5972    1.3686  -19.6297 C   0  0  0  0  0  0  0  0  0  0  0  0
   -3.2179    1.6708  -20.9070 C   0  0  0  0  0  0  0  0  0  0  0  0
   -3.9514    1.1588  -22.0010 C   0  0  0  0  0  0  0  0  0  0  0  0
   -5.0456    0.3586  -21.7961 C   0  0  0  0  0  0  0  0  0  0  0  0
   -5.4591    0.0062  -20.4846 C   0  0  0  0  0  0  0  0  0  0  0  0
   -5.6071   -0.0262  -22.6402 H   0  0  0  0  0  0  0  0  0  0  0  0
   -3.6546    1.4052  -23.0162 H   0  0  0  0  0  0  0  0  0  0  0  0
   -2.3646    2.3182  -21.0943 H   0  0  0  0  0  0  0  0  0  0  0  0
   -3.0581    1.7708  -18.7745 H   0  0  0  0  0  0  0  0  0  0  0  0
   -4.6079    0.6208  -17.2223 H   0  0  0  0  0  0  0  0  0  0  0  0
   -7.7350   -1.6723  -18.5861 H   0  0  0  0  0  0  0  0  0  0  0  0
   -8.7139   -1.2159  -21.4492 C   0  0  0  0  0  0  0  0  0  0  0  0
   -9.4138   -0.3730  -20.9419 O   0  0  0  0  0  0  0  0  0  0  0  0
   -9.0660   -2.1152  -22.4421 N   0  0  0  0  0  0  0  0  0  0  0  0
  -10.4314   -2.3146  -22.9069 C   0  0  0  0  0  0  0  0  0  0  0  0
  -10.9287   -1.3495  -22.9276 H   0  0  0  0  0  0  0  0  0  0  0  0
  -10.9890   -2.9181  -22.1872 H   0  0  0  0  0  0  0  0  0  0  0  0
   -7.6305   -3.2139  -24.9193 H   0  0  0  0  0  0  0  0  0  0  0  0
   -7.3937   -4.5619  -23.8362 H   0  0  0  0  0  0  0  0  0  0  0  0
   -9.8011   -4.8869  -23.5538 H   0  0  0  0  0  0  0  0  0  0  0  0
   -9.5407   -4.6651  -25.2809 H   0  0  0  0  0  0  0  0  0  0  0  0
  -10.1330   -2.2427  -25.0229 H   0  0  0  0  0  0  0  0  0  0  0  0
  -12.2546   -4.1872  -23.9714 H   0  0  0  0  0  0  0  0  0  0  0  0
  -12.5873   -2.5953  -24.6690 H   0  0  0  0  0  0  0  0  0  0  0  0
  -11.8961   -3.8766  -25.6647 H   0  0  0  0  0  0  0  0  0  0  0  0
  1  2  1  0
  2  3  1  0
  3  4  1  0
  4  5  1  0
  5  6  2  0
  6  7  1  0
  6  8  1  0
  8  9  1  0
  9 10  2  0
 10 11  1  0
 11 12  2  0
 12 13  1  0
 13 14  2  0
 14 15  1  0
 15 16  2  0
 16 17  1  0
 17 18  2  0
 17 19  1  0
 16 20  1  0
 15 21  1  0
 14 22  1  0
 12 23  1  0
 10 24  1  0
  8 25  1  0
 25 26  2  0
 25 27  1  0
 27 28  1  0
 28 29  1  0
 28 30  1  0
  4 31  1  0
  4 32  1  0
  3 33  1  0
  3 34  1  0
  2 35  1  6
  1 36  1  0
  1 37  1  0
  1 38  1  0
 28  2  1  0
 27  5  1  0
 18  9  1  0
 18 13  1  0
M  CHG  1   7  -1
M  END
>  <cnnaffinities>  (18) 
[5.07334, 4.92146]

>  <score>  (18) 
5.07334

>  <index>  (18) 
17

>  <Smiles>  (18) 
C([C@@]1(C(C(c2c([O-])n(c3c(nc(c4c(c(c(c(c34)[H])[H])[H])[H])[H])[H])c(=O)n2C1([H])[H])([H])[H])([H])[H])[H])([H])([H])[H]

>  <h>  (18) 
<NA>

>  <Training>  (18) 
True

>  <Success>  (18) 
True

>  <enamine_searched>  (18) 
False

>  <enamine_id>  (18) 
nan

$$$$

     RDKit          3D

 56 61  0  0  0  0  0  0  0  0999 V2000
  -10.4439   -1.1272  -23.2872 C   0  0  0  0  0  0  0  0  0  0  0  0
   -9.0000   -1.4679  -22.9479 C   0  0  1  0  0  0  0  0  0  0  0  0
   -8.3894   -0.5185  -21.9053 C   0  0  0  0  0  0  0  0  0  0  0  0
   -7.3908   -1.3445  -21.2447 N   0  0  0  0  0  0  0  0  0  0  0  0
   -6.5727   -0.8522  -20.1991 C   0  0  0  0  0  0  0  0  0  0  0  0
   -6.8807   -1.0981  -18.8869 C   0  0  0  0  0  0  0  0  0  0  0  0
   -6.2079   -0.5650  -17.8370 N   0  0  0  0  0  0  0  0  0  0  0  0
   -5.1920    0.2160  -18.0956 C   0  0  0  0  0  0  0  0  0  0  0  0
   -4.7449    0.5295  -19.4094 C   0  0  0  0  0  0  0  0  0  0  0  0
   -3.6166    1.3536  -19.6457 C   0  0  0  0  0  0  0  0  0  0  0  0
   -3.2140    1.6169  -20.9243 C   0  0  0  0  0  0  0  0  0  0  0  0
   -3.9166    1.0687  -22.0210 C   0  0  0  0  0  0  0  0  0  0  0  0
   -5.0112    0.2682  -21.8192 C   0  0  0  0  0  0  0  0  0  0  0  0
   -5.4561   -0.0151  -20.5028 C   0  0  0  0  0  0  0  0  0  0  0  0
   -5.5334   -0.1730  -22.6632 H   0  0  0  0  0  0  0  0  0  0  0  0
   -3.5854    1.2807  -23.0324 H   0  0  0  0  0  0  0  0  0  0  0  0
   -2.3581    2.2589  -21.1071 H   0  0  0  0  0  0  0  0  0  0  0  0
   -3.0877    1.7668  -18.7905 H   0  0  0  0  0  0  0  0  0  0  0  0
   -4.6553    0.6328  -17.2418 H   0  0  0  0  0  0  0  0  0  0  0  0
   -7.7228   -1.7379  -18.6322 H   0  0  0  0  0  0  0  0  0  0  0  0
   -7.5563   -2.6966  -21.4570 C   0  0  0  0  0  0  0  0  0  0  0  0
   -6.8273   -3.5610  -21.0135 O   0  0  0  0  0  0  0  0  0  0  0  0
   -8.7743   -2.9074  -22.3622 C   0  0  1  0  0  0  0  0  0  0  0  0
   -9.9631   -3.3684  -21.4855 C   0  0  0  0  0  0  0  0  0  0  0  0
  -11.0876   -3.8727  -22.2630 N   0  0  0  0  0  0  0  0  0  0  0  0
  -12.4523   -3.8371  -21.7402 C   0  0  0  0  0  0  0  0  0  0  0  0
  -13.2942   -2.7101  -22.2700 C   0  0  0  0  0  0  0  0  0  0  0  0
  -13.9345   -2.7255  -23.5331 C   0  0  0  0  0  0  0  0  0  0  0  0
  -14.6546   -1.5589  -23.5628 C   0  0  0  0  0  0  0  0  0  0  0  0
  -14.4059   -0.9252  -22.3961 N   0  0  0  0  0  0  0  0  0  0  0  0
  -13.5762   -1.6102  -21.5877 N   0  0  0  0  0  0  0  0  0  0  0  0
  -14.8565   -0.0907  -22.0512 H   0  0  0  0  0  0  0  0  0  0  0  0
  -15.3052   -1.1573  -24.3239 H   0  0  0  0  0  0  0  0  0  0  0  0
  -13.8469   -3.4981  -24.2875 H   0  0  0  0  0  0  0  0  0  0  0  0
  -12.9150   -4.7356  -22.1508 H   0  0  0  0  0  0  0  0  0  0  0  0
  -12.4564   -3.8977  -20.6460 H   0  0  0  0  0  0  0  0  0  0  0  0
  -10.9201   -4.5967  -23.4106 C   0  0  0  0  0  0  0  0  0  0  0  0
  -11.8658   -5.0643  -24.0377 O   0  0  0  0  0  0  0  0  0  0  0  0
   -9.5218   -4.7810  -23.8810 C   0  0  0  0  0  0  0  0  0  0  0  0
   -9.2747   -5.7560  -24.8464 C   0  0  0  0  0  0  0  0  0  0  0  0
   -8.0224   -5.9038  -25.4055 C   0  0  0  0  0  0  0  0  0  0  0  0
   -7.0259   -5.0436  -24.9600 C   0  0  0  0  0  0  0  0  0  0  0  0
   -5.8083   -5.1501  -25.5117 F   0  0  0  0  0  0  0  0  0  0  0  0
   -7.2292   -4.0963  -23.9764 C   0  0  0  0  0  0  0  0  0  0  0  0
   -8.4992   -3.9573  -23.4095 C   0  0  0  0  0  0  0  0  0  0  0  0
   -6.3889   -3.4992  -23.6404 H   0  0  0  0  0  0  0  0  0  0  0  0
   -7.8088   -6.6597  -26.1579 H   0  0  0  0  0  0  0  0  0  0  0  0
  -10.0908   -6.3950  -25.1589 H   0  0  0  0  0  0  0  0  0  0  0  0
   -9.6382   -4.1511  -20.7927 H   0  0  0  0  0  0  0  0  0  0  0  0
  -10.2964   -2.4913  -20.9218 H   0  0  0  0  0  0  0  0  0  0  0  0
   -9.1521   -0.1514  -21.1953 H   0  0  0  0  0  0  0  0  0  0  0  0
   -7.9263    0.3610  -22.3649 H   0  0  0  0  0  0  0  0  0  0  0  0
   -8.3891   -1.4316  -23.8604 H   0  0  0  0  0  0  0  0  0  0  0  0
  -10.8740   -1.9092  -23.9192 H   0  0  0  0  0  0  0  0  0  0  0  0
  -11.0427   -1.0816  -22.3722 H   0  0  0  0  0  0  0  0  0  0  0  0
  -10.5249   -0.1659  -23.8033 H   0  0  0  0  0  0  0  0  0  0  0  0
  1  2  1  0
  2  3  1  0
  3  4  1  0
  4  5  1  0
  5  6  2  0
  6  7  1  0
  7  8  2  0
  8  9  1  0
  9 10  2  0
 10 11  1  0
 11 12  2  0
 12 13  1  0
 13 14  2  0
 13 15  1  0
 12 16  1  0
 11 17  1  0
 10 18  1  0
  8 19  1  0
  6 20  1  0
  4 21  1  0
 21 22  2  0
 21 23  1  0
 23 24  1  1
 24 25  1  0
 25 26  1  0
 26 27  1  0
 27 28  1  0
 28 29  2  0
 29 30  1  0
 30 31  1  0
 30 32  1  0
 29 33  1  0
 28 34  1  0
 26 35  1  0
 26 36  1  0
 25 37  1  0
 37 38  2  0
 37 39  1  0
 39 40  2  0
 40 41  1  0
 41 42  2  0
 42 43  1  0
 42 44  1  0
 44 45  2  0
 44 46  1  0
 41 47  1  0
 40 48  1  0
 24 49  1  0
 24 50  1  0
  3 51  1  0
  3 52  1  0
  2 53  1  6
  1 54  1  0
  1 55  1  0
  1 56  1  0
 23  2  1  0
 31 27  2  0
 45 39  1  0
 14  5  1  0
 45 23  1  0
 14  9  1  0
M  END
>  <cnnaffinities>  (19) 
[6.83425]

>  <score>  (19) 
6.83425

>  <index>  (19) 
18

>  <Smiles>  (19) 
C([C@]1(C(N(c2c(nc(c3c(c(c(c(c23)[H])[H])[H])[H])[H])[H])C(=O)[C@]21C(N(C(c1c(c(n(n1)[H])[H])[H])([H])[H])C(=O)c1c(c(c(F)c(c21)[H])[H])[H])([H])[H])([H])[H])[H])([H])([H])[H]

>  <h>  (19) 
<NA>

>  <Training>  (19) 
True

>  <Success>  (19) 
True

>  <enamine_searched>  (19) 
False

>  <enamine_id>  (19) 
nan

$$$$

     RDKit          3D

 42 45  0  0  0  0  0  0  0  0999 V2000
   -9.1447   -0.0629  -20.7253 O   0  0  0  0  0  0  0  0  0  0  0  0
   -8.6544   -0.9068  -21.4506 C   0  0  0  0  0  0  0  0  0  0  0  0
   -9.3670   -1.5024  -22.6770 C   0  0  1  0  0  0  0  0  0  0  0  0
  -10.4390   -0.5574  -23.1875 C   0  0  0  0  0  0  0  0  0  0  0  0
  -10.1012    0.7542  -23.5119 C   0  0  0  0  0  0  0  0  0  0  0  0
  -11.0719    1.6267  -23.9696 C   0  0  0  0  0  0  0  0  0  0  0  0
  -12.3997    1.2396  -24.0851 C   0  0  0  0  0  0  0  0  0  0  0  0
  -13.5481    2.5027  -24.3776 Cl  0  0  0  0  0  0  0  0  0  0  0  0
  -12.7285   -0.0988  -23.8617 C   0  0  0  0  0  0  0  0  0  0  0  0
  -14.3315   -0.6912  -24.1120 Cl  0  0  0  0  0  0  0  0  0  0  0  0
  -11.7488   -0.9846  -23.4037 C   0  0  0  0  0  0  0  0  0  0  0  0
  -12.0453   -2.0123  -23.1890 H   0  0  0  0  0  0  0  0  0  0  0  0
  -10.8341    2.6527  -24.2063 H   0  0  0  0  0  0  0  0  0  0  0  0
   -9.0893    1.1206  -23.3399 H   0  0  0  0  0  0  0  0  0  0  0  0
   -8.3348   -1.7873  -23.7763 C   0  0  0  0  0  0  0  0  0  0  0  0
   -7.2407   -2.7558  -23.3384 C   0  0  2  0  0  0  0  0  0  0  0  0
   -7.5385   -4.1076  -23.6566 O   0  0  0  0  0  0  0  0  0  0  0  0
   -8.3981   -4.3161  -23.2677 H   0  0  0  0  0  0  0  0  0  0  0  0
   -6.9333   -2.6359  -21.8361 C   0  0  0  0  0  0  0  0  0  0  0  0
   -7.3746   -1.3761  -21.2549 N   0  0  0  0  0  0  0  0  0  0  0  0
   -6.6069   -0.8068  -20.1944 C   0  0  0  0  0  0  0  0  0  0  0  0
   -6.9069   -1.0508  -18.8787 C   0  0  0  0  0  0  0  0  0  0  0  0
   -6.1944   -0.5580  -17.8356 N   0  0  0  0  0  0  0  0  0  0  0  0
   -5.1631    0.2056  -18.0859 C   0  0  0  0  0  0  0  0  0  0  0  0
   -4.7237    0.5283  -19.3996 C   0  0  0  0  0  0  0  0  0  0  0  0
   -3.5961    1.3581  -19.6399 C   0  0  0  0  0  0  0  0  0  0  0  0
   -3.2103    1.6428  -20.9207 C   0  0  0  0  0  0  0  0  0  0  0  0
   -3.9319    1.1058  -22.0119 C   0  0  0  0  0  0  0  0  0  0  0  0
   -5.0225    0.3019  -21.8004 C   0  0  0  0  0  0  0  0  0  0  0  0
   -5.4546   -0.0026  -20.4857 C   0  0  0  0  0  0  0  0  0  0  0  0
   -5.5835   -0.0987  -22.6377 H   0  0  0  0  0  0  0  0  0  0  0  0
   -3.6304    1.3424  -23.0268 H   0  0  0  0  0  0  0  0  0  0  0  0
   -2.3592    2.2914  -21.1078 H   0  0  0  0  0  0  0  0  0  0  0  0
   -3.0637    1.7687  -18.7857 H   0  0  0  0  0  0  0  0  0  0  0  0
   -4.6208    0.6117  -17.2293 H   0  0  0  0  0  0  0  0  0  0  0  0
   -7.7540   -1.6694  -18.5925 H   0  0  0  0  0  0  0  0  0  0  0  0
   -7.3918   -3.5095  -21.3374 H   0  0  0  0  0  0  0  0  0  0  0  0
   -5.8583   -2.6952  -21.6672 H   0  0  0  0  0  0  0  0  0  0  0  0
   -6.3398   -2.5453  -23.9206 H   0  0  0  0  0  0  0  0  0  0  0  0
   -7.8965   -0.8302  -24.0871 H   0  0  0  0  0  0  0  0  0  0  0  0
   -8.8264   -2.2059  -24.6604 H   0  0  0  0  0  0  0  0  0  0  0  0
   -9.8480   -2.4443  -22.3769 H   0  0  0  0  0  0  0  0  0  0  0  0
  1  2  2  0
  2  3  1  0
  3  4  1  0
  4  5  2  0
  5  6  1  0
  6  7  2  0
  7  8  1  0
  7  9  1  0
  9 10  1  0
  9 11  2  0
 11 12  1  0
  6 13  1  0
  5 14  1  0
  3 15  1  0
 15 16  1  0
 16 17  1  0
 17 18  1  0
 16 19  1  0
 19 20  1  0
 20 21  1  0
 21 22  2  0
 22 23  1  0
 23 24  2  0
 24 25  1  0
 25 26  2  0
 26 27  1  0
 27 28  2  0
 28 29  1  0
 29 30  2  0
 29 31  1  0
 28 32  1  0
 27 33  1  0
 26 34  1  0
 24 35  1  0
 22 36  1  0
 19 37  1  0
 19 38  1  0
 16 39  1  6
 15 40  1  0
 15 41  1  0
  3 42  1  1
 20  2  1  0
 30 21  1  0
 11  4  1  0
 30 25  1  0
M  END
>  <cnnaffinities>  (20) 
[5.69605, 5.77141]

>  <score>  (20) 
5.69605

>  <index>  (20) 
19

>  <Smiles>  (20) 
O=C1[C@@](c2c(c(c(Cl)c(Cl)c2[H])[H])[H])(C([C@](O[H])(C(N1c1c(nc(c2c(c(c(c(c12)[H])[H])[H])[H])[H])[H])([H])[H])[H])([H])[H])[H]

>  <h>  (20) 
<NA>

>  <Training>  (20) 
True

>  <Success>  (20) 
True

>  <enamine_searched>  (20) 
False

>  <enamine_id>  (20) 
nan

$$$$

     RDKit          3D

 66 71  0  0  0  0  0  0  0  0999 V2000
   -7.4395    3.3251  -21.7330 C   0  0  0  0  0  0  0  0  0  0  0  0
   -8.3068    2.8722  -22.8040 N   0  0  0  0  0  0  0  0  0  0  0  0
   -7.7446    2.2111  -23.8395 C   0  0  0  0  0  0  0  0  0  0  0  0
   -6.5304    2.1195  -23.9743 O   0  0  0  0  0  0  0  0  0  0  0  0
   -8.7007    1.5930  -24.8644 C   0  0  0  0  0  0  0  0  0  0  0  0
   -9.4197    0.4368  -24.3645 N   0  0  0  0  0  0  0  0  0  0  0  0
   -8.6945   -0.8094  -24.2068 C   0  0  0  0  0  0  0  0  0  0  0  0
   -9.0736   -1.5291  -22.8879 C   0  0  2  0  0  0  0  0  0  0  0  0
   -8.5248   -0.7421  -21.6694 C   0  0  0  0  0  0  0  0  0  0  0  0
   -8.9855    0.2714  -21.1806 O   0  0  0  0  0  0  0  0  0  0  0  0
   -7.3987   -1.3818  -21.2039 N   0  0  0  0  0  0  0  0  0  0  0  0
   -6.6016   -0.8106  -20.1756 C   0  0  0  0  0  0  0  0  0  0  0  0
   -6.9077   -1.0418  -18.8593 C   0  0  0  0  0  0  0  0  0  0  0  0
   -6.2001   -0.5465  -17.8162 N   0  0  0  0  0  0  0  0  0  0  0  0
   -5.1654    0.2088  -18.0821 C   0  0  0  0  0  0  0  0  0  0  0  0
   -4.7286    0.5321  -19.3970 C   0  0  0  0  0  0  0  0  0  0  0  0
   -3.6024    1.3659  -19.6427 C   0  0  0  0  0  0  0  0  0  0  0  0
   -3.2171    1.6576  -20.9219 C   0  0  0  0  0  0  0  0  0  0  0  0
   -3.9408    1.1284  -22.0144 C   0  0  0  0  0  0  0  0  0  0  0  0
   -5.0331    0.3205  -21.8022 C   0  0  0  0  0  0  0  0  0  0  0  0
   -5.4640    0.0020  -20.4868 C   0  0  0  0  0  0  0  0  0  0  0  0
   -5.5903   -0.0647  -22.6520 H   0  0  0  0  0  0  0  0  0  0  0  0
   -3.6522    1.3690  -23.0318 H   0  0  0  0  0  0  0  0  0  0  0  0
   -2.3660    2.3099  -21.1016 H   0  0  0  0  0  0  0  0  0  0  0  0
   -3.0716    1.7725  -18.7849 H   0  0  0  0  0  0  0  0  0  0  0  0
   -4.6167    0.6115  -17.2293 H   0  0  0  0  0  0  0  0  0  0  0  0
   -7.7592   -1.6655  -18.5988 H   0  0  0  0  0  0  0  0  0  0  0  0
   -7.0550   -2.5870  -21.9321 C   0  0  0  0  0  0  0  0  0  0  0  0
   -8.3249   -2.8941  -22.7511 C   0  0  2  0  0  0  0  0  0  0  0  0
   -8.0184   -3.6737  -24.0490 C   0  0  0  0  0  0  0  0  0  0  0  0
   -7.4766   -5.0622  -23.7777 C   0  0  0  0  0  0  0  0  0  0  0  0
   -8.3519   -6.1165  -23.5010 C   0  0  0  0  0  0  0  0  0  0  0  0
   -7.8738   -7.3921  -23.2109 C   0  0  0  0  0  0  0  0  0  0  0  0
   -6.5022   -7.6354  -23.1913 C   0  0  0  0  0  0  0  0  0  0  0  0
   -5.6173   -6.5960  -23.4689 C   0  0  0  0  0  0  0  0  0  0  0  0
   -6.1026   -5.3213  -23.7571 C   0  0  0  0  0  0  0  0  0  0  0  0
   -5.4033   -4.5119  -23.9682 H   0  0  0  0  0  0  0  0  0  0  0  0
   -4.5442   -6.7806  -23.4617 H   0  0  0  0  0  0  0  0  0  0  0  0
   -6.1236   -8.6310  -22.9648 H   0  0  0  0  0  0  0  0  0  0  0  0
   -8.5766   -8.1969  -23.0019 H   0  0  0  0  0  0  0  0  0  0  0  0
   -9.4250   -5.9264  -23.5140 H   0  0  0  0  0  0  0  0  0  0  0  0
   -8.9365   -3.7518  -24.6491 H   0  0  0  0  0  0  0  0  0  0  0  0
   -7.2899   -3.1129  -24.6511 H   0  0  0  0  0  0  0  0  0  0  0  0
   -8.9703   -3.5342  -22.1436 H   0  0  0  0  0  0  0  0  0  0  0  0
   -6.7948   -3.4018  -21.2456 H   0  0  0  0  0  0  0  0  0  0  0  0
   -6.1807   -2.4237  -22.5839 H   0  0  0  0  0  0  0  0  0  0  0  0
  -10.5903   -1.5903  -22.8102 C   0  0  0  0  0  0  0  0  0  0  0  0
  -11.2160   -2.4904  -21.9390 C   0  0  0  0  0  0  0  0  0  0  0  0
  -12.5951   -2.5172  -21.8435 C   0  0  0  0  0  0  0  0  0  0  0  0
  -13.3608   -3.6345  -20.7518 Cl  0  0  0  0  0  0  0  0  0  0  0  0
  -13.3928   -1.6536  -22.5943 C   0  0  0  0  0  0  0  0  0  0  0  0
  -12.7832   -0.7211  -23.4092 C   0  0  0  0  0  0  0  0  0  0  0  0
  -11.3925   -0.6653  -23.4951 C   0  0  0  0  0  0  0  0  0  0  0  0
  -10.7858    0.4690  -24.2668 C   0  0  0  0  0  0  0  0  0  0  0  0
  -11.4694    1.3715  -24.7361 O   0  0  0  0  0  0  0  0  0  0  0  0
  -13.3507    0.0071  -23.9810 H   0  0  0  0  0  0  0  0  0  0  0  0
  -14.4715   -1.7060  -22.5095 H   0  0  0  0  0  0  0  0  0  0  0  0
  -10.6371   -3.1576  -21.3109 H   0  0  0  0  0  0  0  0  0  0  0  0
   -8.9046   -1.4837  -25.0538 H   0  0  0  0  0  0  0  0  0  0  0  0
   -7.6290   -0.5599  -24.2007 H   0  0  0  0  0  0  0  0  0  0  0  0
   -9.4770    2.2952  -25.1782 H   0  0  0  0  0  0  0  0  0  0  0  0
   -8.0686    1.3229  -25.7193 H   0  0  0  0  0  0  0  0  0  0  0  0
   -9.2995    2.7939  -22.6462 H   0  0  0  0  0  0  0  0  0  0  0  0
   -6.7645    4.1096  -22.0878 H   0  0  0  0  0  0  0  0  0  0  0  0
   -8.0691    3.7257  -20.9501 H   0  0  0  0  0  0  0  0  0  0  0  0
   -6.8335    2.4922  -21.3537 H   0  0  0  0  0  0  0  0  0  0  0  0
  1  2  1  0
  2  3  1  0
  3  4  2  0
  3  5  1  0
  5  6  1  0
  6  7  1  0
  8  7  1  6
  8  9  1  0
  9 10  2  0
  9 11  1  0
 11 12  1  0
 12 13  2  0
 13 14  1  0
 14 15  2  0
 15 16  1  0
 16 17  2  0
 17 18  1  0
 18 19  2  0
 19 20  1  0
 20 21  2  0
 20 22  1  0
 19 23  1  0
 18 24  1  0
 17 25  1  0
 15 26  1  0
 13 27  1  0
 11 28  1  0
 28 29  1  0
 29 30  1  0
 30 31  1  0
 31 32  2  0
 32 33  1  0
 33 34  2  0
 34 35  1  0
 35 36  2  0
 36 37  1  0
 35 38  1  0
 34 39  1  0
 33 40  1  0
 32 41  1  0
 30 42  1  0
 30 43  1  0
 29 44  1  1
 28 45  1  0
 28 46  1  0
  8 47  1  0
 47 48  2  0
 48 49  1  0
 49 50  1  0
 49 51  2  0
 51 52  1  0
 52 53  2  0
 53 54  1  0
 54 55  2  0
 52 56  1  0
 51 57  1  0
 48 58  1  0
  7 59  1  0
  7 60  1  0
  5 61  1  0
  5 62  1  0
  2 63  1  0
  1 64  1  0
  1 65  1  0
  1 66  1  0
 54  6  1  0
 29  8  1  0
 36 31  1  0
 53 47  1  0
 21 12  1  0
 21 16  1  0
M  END
>  <cnnaffinities>  (21) 
[6.923, 6.90806]

>  <score>  (21) 
6.923

>  <index>  (21) 
20

>  <Smiles>  (21) 
C(N(C(=O)C(N1C([C@@]2(C(=O)N(c3c(nc(c4c(c(c(c(c34)[H])[H])[H])[H])[H])[H])C([C@@]2(C(c2c(c(c(c(c2[H])[H])[H])[H])[H])([H])[H])[H])([H])[H])c2c(c(Cl)c(c(c2C1=O)[H])[H])[H])([H])[H])([H])[H])[H])([H])([H])[H]

>  <h>  (21) 
<NA>

>  <Training>  (21) 
True

>  <Success>  (21) 
True

>  <enamine_searched>  (21) 
False

>  <enamine_id>  (21) 
nan

$$$$

     RDKit          3D

 63 68  0  0  0  0  0  0  0  0999 V2000
  -10.4031   -1.0349  -23.3859 C   0  0  0  0  0  0  0  0  0  0  0  0
   -8.9820   -1.4084  -22.9843 C   0  0  1  0  0  0  0  0  0  0  0  0
   -8.3955   -0.4862  -21.9026 C   0  0  0  0  0  0  0  0  0  0  0  0
   -7.4103   -1.3268  -21.2510 N   0  0  0  0  0  0  0  0  0  0  0  0
   -6.5809   -0.8506  -20.2074 C   0  0  0  0  0  0  0  0  0  0  0  0
   -6.8842   -1.1140  -18.8964 C   0  0  0  0  0  0  0  0  0  0  0  0
   -6.2091   -0.5832  -17.8470 N   0  0  0  0  0  0  0  0  0  0  0  0
   -5.1988    0.2096  -18.0991 C   0  0  0  0  0  0  0  0  0  0  0  0
   -4.7506    0.5333  -19.4123 C   0  0  0  0  0  0  0  0  0  0  0  0
   -3.6242    1.3653  -19.6490 C   0  0  0  0  0  0  0  0  0  0  0  0
   -3.2192    1.6282  -20.9294 C   0  0  0  0  0  0  0  0  0  0  0  0
   -3.9151    1.0710  -22.0275 C   0  0  0  0  0  0  0  0  0  0  0  0
   -5.0085    0.2651  -21.8235 C   0  0  0  0  0  0  0  0  0  0  0  0
   -5.4568   -0.0153  -20.5062 C   0  0  0  0  0  0  0  0  0  0  0  0
   -5.5345   -0.1826  -22.6615 H   0  0  0  0  0  0  0  0  0  0  0  0
   -3.5825    1.2754  -23.0410 H   0  0  0  0  0  0  0  0  0  0  0  0
   -2.3573    2.2639  -21.1129 H   0  0  0  0  0  0  0  0  0  0  0  0
   -3.0947    1.7777  -18.7936 H   0  0  0  0  0  0  0  0  0  0  0  0
   -4.6712    0.6337  -17.2423 H   0  0  0  0  0  0  0  0  0  0  0  0
   -7.7144   -1.7697  -18.6393 H   0  0  0  0  0  0  0  0  0  0  0  0
   -7.6013   -2.6726  -21.4756 C   0  0  0  0  0  0  0  0  0  0  0  0
   -6.8921   -3.5401  -21.0045 O   0  0  0  0  0  0  0  0  0  0  0  0
   -8.7971   -2.8653  -22.4274 C   0  0  1  0  0  0  0  0  0  0  0  0
  -10.0237   -3.3138  -21.5934 C   0  0  0  0  0  0  0  0  0  0  0  0
  -11.1334   -3.8226  -22.3922 N   0  0  0  0  0  0  0  0  0  0  0  0
  -12.4905   -3.8674  -21.8640 C   0  0  0  0  0  0  0  0  0  0  0  0
  -13.3737   -2.8127  -22.5130 C   0  0  0  0  0  0  0  0  0  0  0  0
  -13.5587   -2.8403  -23.7213 O   0  0  0  0  0  0  0  0  0  0  0  0
  -13.9869   -1.8806  -21.7353 N   0  0  0  0  0  0  0  0  0  0  0  0
  -14.8015   -0.8760  -22.4029 C   0  0  0  0  0  0  0  0  0  0  0  0
  -14.0085    0.1079  -23.2409 C   0  0  0  0  0  0  0  0  0  0  0  0
  -14.3673    1.5703  -23.2772 C   0  0  0  0  0  0  0  0  0  0  0  0
  -13.0888    1.1246  -22.6224 C   0  0  0  0  0  0  0  0  0  0  0  0
  -12.1608    1.3295  -23.1520 H   0  0  0  0  0  0  0  0  0  0  0  0
  -12.9913    1.1869  -21.5383 H   0  0  0  0  0  0  0  0  0  0  0  0
  -15.1818    1.8986  -22.6293 H   0  0  0  0  0  0  0  0  0  0  0  0
  -14.3040    2.1373  -24.2058 H   0  0  0  0  0  0  0  0  0  0  0  0
  -13.6391   -0.3585  -24.1542 H   0  0  0  0  0  0  0  0  0  0  0  0
  -15.4705   -1.4339  -23.0546 H   0  0  0  0  0  0  0  0  0  0  0  0
  -15.4090   -0.3640  -21.6542 H   0  0  0  0  0  0  0  0  0  0  0  0
  -13.6321   -1.6888  -20.8160 H   0  0  0  0  0  0  0  0  0  0  0  0
  -12.5175   -3.9017  -20.7669 H   0  0  0  0  0  0  0  0  0  0  0  0
  -12.9256   -4.7851  -22.2713 H   0  0  0  0  0  0  0  0  0  0  0  0
  -10.9135   -4.6370  -23.4715 C   0  0  0  0  0  0  0  0  0  0  0  0
  -11.8092   -5.2646  -24.0152 O   0  0  0  0  0  0  0  0  0  0  0  0
   -9.5145   -4.7450  -23.9526 C   0  0  0  0  0  0  0  0  0  0  0  0
   -9.2783   -5.7302  -24.9073 C   0  0  0  0  0  0  0  0  0  0  0  0
   -8.0183   -5.9106  -25.4330 C   0  0  0  0  0  0  0  0  0  0  0  0
   -7.0088   -5.0648  -24.9855 C   0  0  0  0  0  0  0  0  0  0  0  0
   -5.7747   -5.2204  -25.4916 F   0  0  0  0  0  0  0  0  0  0  0  0
   -7.2113   -4.0927  -24.0217 C   0  0  0  0  0  0  0  0  0  0  0  0
   -8.4948   -3.9153  -23.4812 C   0  0  0  0  0  0  0  0  0  0  0  0
   -6.3561   -3.5257  -23.6666 H   0  0  0  0  0  0  0  0  0  0  0  0
   -7.8115   -6.6871  -26.1612 H   0  0  0  0  0  0  0  0  0  0  0  0
  -10.1130   -6.3555  -25.2061 H   0  0  0  0  0  0  0  0  0  0  0  0
   -9.7055   -4.0811  -20.8892 H   0  0  0  0  0  0  0  0  0  0  0  0
  -10.3491   -2.4559  -21.0012 H   0  0  0  0  0  0  0  0  0  0  0  0
   -9.1634   -0.1475  -21.1899 H   0  0  0  0  0  0  0  0  0  0  0  0
   -7.9361    0.4205  -22.3102 H   0  0  0  0  0  0  0  0  0  0  0  0
   -8.3328   -1.3502  -23.8655 H   0  0  0  0  0  0  0  0  0  0  0  0
  -10.8299   -1.7973  -24.0407 H   0  0  0  0  0  0  0  0  0  0  0  0
  -10.4449   -0.0737  -23.9055 H   0  0  0  0  0  0  0  0  0  0  0  0
  -11.0536   -0.9500  -22.5094 H   0  0  0  0  0  0  0  0  0  0  0  0
  1  2  1  0
  2  3  1  0
  3  4  1  0
  4  5  1  0
  5  6  2  0
  6  7  1  0
  7  8  2  0
  8  9  1  0
  9 10  2  0
 10 11  1  0
 11 12  2  0
 12 13  1  0
 13 14  2  0
 13 15  1  0
 12 16  1  0
 11 17  1  0
 10 18  1  0
  8 19  1  0
  6 20  1  0
  4 21  1  0
 21 22  2  0
 21 23  1  0
 23 24  1  1
 24 25  1  0
 25 26  1  0
 26 27  1  0
 27 28  2  0
 27 29  1  0
 29 30  1  0
 30 31  1  0
 31 32  1  0
 32 33  1  0
 33 34  1  0
 33 35  1  0
 32 36  1  0
 32 37  1  0
 31 38  1  0
 30 39  1  0
 30 40  1  0
 29 41  1  0
 26 42  1  0
 26 43  1  0
 25 44  1  0
 44 45  2  0
 44 46  1  0
 46 47  2  0
 47 48  1  0
 48 49  2  0
 49 50  1  0
 49 51  1  0
 51 52  2  0
 51 53  1  0
 48 54  1  0
 47 55  1  0
 24 56  1  0
 24 57  1  0
  3 58  1  0
  3 59  1  0
  2 60  1  6
  1 61  1  0
  1 62  1  0
  1 63  1  0
 23  2  1  0
 33 31  1  0
 52 46  1  0
 14  5  1  0
 52 23  1  0
 14  9  1  0
M  END
>  <cnnaffinities>  (22) 
[6.85944, 6.3686]

>  <score>  (22) 
6.85944

>  <index>  (22) 
21

>  <Smiles>  (22) 
C([C@]1(C(N(c2c(nc(c3c(c(c(c(c23)[H])[H])[H])[H])[H])[H])C(=O)[C@]21C(N(C(C(=O)N(C(C1(C(C1([H])[H])([H])[H])[H])([H])[H])[H])([H])[H])C(=O)c1c(c(c(F)c(c21)[H])[H])[H])([H])[H])([H])[H])[H])([H])([H])[H]

>  <h>  (22) 
<NA>

>  <Training>  (22) 
True

>  <Success>  (22) 
True

>  <enamine_searched>  (22) 
False

>  <enamine_id>  (22) 
nan

$$$$

     RDKit          3D

 68 73  0  0  0  0  0  0  0  0999 V2000
   -7.3414    3.4130  -21.7990 C   0  0  0  0  0  0  0  0  0  0  0  0
   -8.1312    2.9265  -22.9103 N   0  0  0  0  0  0  0  0  0  0  0  0
   -7.5206    2.2710  -23.9214 C   0  0  0  0  0  0  0  0  0  0  0  0
   -6.3029    2.2057  -24.0192 O   0  0  0  0  0  0  0  0  0  0  0  0
   -8.4469    1.6320  -24.9670 C   0  0  0  0  0  0  0  0  0  0  0  0
   -9.2443    0.5291  -24.4584 N   0  0  0  0  0  0  0  0  0  0  0  0
   -8.6005   -0.7594  -24.2630 C   0  0  0  0  0  0  0  0  0  0  0  0
   -9.0503   -1.4378  -22.9416 C   0  0  2  0  0  0  0  0  0  0  0  0
   -8.4866   -0.6549  -21.7220 C   0  0  0  0  0  0  0  0  0  0  0  0
   -8.8890    0.3948  -21.2705 O   0  0  0  0  0  0  0  0  0  0  0  0
   -7.4191   -1.3554  -21.2053 N   0  0  0  0  0  0  0  0  0  0  0  0
   -6.6088   -0.7997  -20.1784 C   0  0  0  0  0  0  0  0  0  0  0  0
   -6.9069   -1.0384  -18.8620 C   0  0  0  0  0  0  0  0  0  0  0  0
   -6.1958   -0.5481  -17.8176 N   0  0  0  0  0  0  0  0  0  0  0  0
   -5.1621    0.2090  -18.0803 C   0  0  0  0  0  0  0  0  0  0  0  0
   -4.7259    0.5327  -19.3946 C   0  0  0  0  0  0  0  0  0  0  0  0
   -3.5968    1.3628  -19.6400 C   0  0  0  0  0  0  0  0  0  0  0  0
   -3.2066    1.6489  -20.9193 C   0  0  0  0  0  0  0  0  0  0  0  0
   -3.9280    1.1155  -22.0123 C   0  0  0  0  0  0  0  0  0  0  0  0
   -5.0247    0.3154  -21.7995 C   0  0  0  0  0  0  0  0  0  0  0  0
   -5.4641    0.0067  -20.4847 C   0  0  0  0  0  0  0  0  0  0  0  0
   -5.5772   -0.0767  -22.6489 H   0  0  0  0  0  0  0  0  0  0  0  0
   -3.6376    1.3514  -23.0295 H   0  0  0  0  0  0  0  0  0  0  0  0
   -2.3542    2.2975  -21.1006 H   0  0  0  0  0  0  0  0  0  0  0  0
   -3.0674    1.7729  -18.7835 H   0  0  0  0  0  0  0  0  0  0  0  0
   -4.6156    0.6123  -17.2270 H   0  0  0  0  0  0  0  0  0  0  0  0
   -7.7570   -1.6628  -18.5991 H   0  0  0  0  0  0  0  0  0  0  0  0
   -7.1119   -2.5797  -21.9137 C   0  0  0  0  0  0  0  0  0  0  0  0
   -8.3801   -2.8418  -22.7498 C   0  0  2  0  0  0  0  0  0  0  0  0
   -8.0839   -3.6801  -24.0258 C   0  0  0  0  0  0  0  0  0  0  0  0
   -7.6916   -5.0604  -23.7950 N   0  0  0  0  0  0  0  0  0  0  0  0
   -6.4445   -5.4665  -23.3398 C   0  0  0  0  0  0  0  0  0  0  0  0
   -6.3288   -6.5795  -22.4881 C   0  0  0  0  0  0  0  0  0  0  0  0
   -5.0835   -7.0147  -22.0554 C   0  0  0  0  0  0  0  0  0  0  0  0
   -3.9215   -6.3662  -22.4655 C   0  0  0  0  0  0  0  0  0  0  0  0
   -4.0266   -5.2678  -23.3119 C   0  0  0  0  0  0  0  0  0  0  0  0
   -5.2691   -4.8178  -23.7443 C   0  0  0  0  0  0  0  0  0  0  0  0
   -5.3298   -3.9651  -24.4187 H   0  0  0  0  0  0  0  0  0  0  0  0
   -3.1323   -4.7497  -23.6534 H   0  0  0  0  0  0  0  0  0  0  0  0
   -2.9446   -6.7169  -22.1522 H   0  0  0  0  0  0  0  0  0  0  0  0
   -5.0218   -7.8829  -21.4012 H   0  0  0  0  0  0  0  0  0  0  0  0
   -7.2264   -7.1036  -22.1641 H   0  0  0  0  0  0  0  0  0  0  0  0
   -8.4426   -5.6912  -23.5647 H   0  0  0  0  0  0  0  0  0  0  0  0
   -8.9864   -3.7182  -24.6475 H   0  0  0  0  0  0  0  0  0  0  0  0
   -7.2983   -3.1835  -24.6159 H   0  0  0  0  0  0  0  0  0  0  0  0
   -9.0748   -3.4192  -22.1333 H   0  0  0  0  0  0  0  0  0  0  0  0
   -6.8895   -3.3974  -21.2193 H   0  0  0  0  0  0  0  0  0  0  0  0
   -6.2215   -2.4576  -22.5530 H   0  0  0  0  0  0  0  0  0  0  0  0
  -10.5703   -1.4025  -22.8911 C   0  0  0  0  0  0  0  0  0  0  0  0
  -11.2726   -2.2411  -22.0164 C   0  0  0  0  0  0  0  0  0  0  0  0
  -12.6524   -2.1849  -21.9552 C   0  0  0  0  0  0  0  0  0  0  0  0
  -13.5060   -3.2435  -20.8692 Cl  0  0  0  0  0  0  0  0  0  0  0  0
  -13.3807   -1.2847  -22.7317 C   0  0  0  0  0  0  0  0  0  0  0  0
  -12.6921   -0.4038  -23.5404 C   0  0  0  0  0  0  0  0  0  0  0  0
  -11.2985   -0.4354  -23.6022 C   0  0  0  0  0  0  0  0  0  0  0  0
  -10.6059    0.6517  -24.3742 C   0  0  0  0  0  0  0  0  0  0  0  0
  -11.2193    1.5946  -24.8542 O   0  0  0  0  0  0  0  0  0  0  0  0
  -13.2075    0.3487  -24.1264 H   0  0  0  0  0  0  0  0  0  0  0  0
  -14.4627   -1.2666  -22.6695 H   0  0  0  0  0  0  0  0  0  0  0  0
  -10.7582   -2.9254  -21.3514 H   0  0  0  0  0  0  0  0  0  0  0  0
   -7.5215   -0.5750  -24.2317 H   0  0  0  0  0  0  0  0  0  0  0  0
   -8.8222   -1.4296  -25.1097 H   0  0  0  0  0  0  0  0  0  0  0  0
   -7.7782    1.2966  -25.7668 H   0  0  0  0  0  0  0  0  0  0  0  0
   -9.1650    2.3541  -25.3704 H   0  0  0  0  0  0  0  0  0  0  0  0
   -9.1356    2.8698  -22.8091 H   0  0  0  0  0  0  0  0  0  0  0  0
   -6.6492    4.2006  -22.1217 H   0  0  0  0  0  0  0  0  0  0  0  0
   -6.7527    2.6014  -21.3419 H   0  0  0  0  0  0  0  0  0  0  0  0
   -8.0419    3.8275  -21.0805 H   0  0  0  0  0  0  0  0  0  0  0  0
  1  2  1  0
  2  3  1  0
  3  4  2  0
  3  5  1  0
  5  6  1  0
  6  7  1  0
  8  7  1  6
  8  9  1  0
  9 10  2  0
  9 11  1  0
 11 12  1  0
 12 13  2  0
 13 14  1  0
 14 15  2  0
 15 16  1  0
 16 17  2  0
 17 18  1  0
 18 19  2  0
 19 20  1  0
 20 21  2  0
 20 22  1  0
 19 23  1  0
 18 24  1  0
 17 25  1  0
 15 26  1  0
 13 27  1  0
 11 28  1  0
 28 29  1  0
 29 30  1  0
 30 31  1  0
 31 32  1  0
 32 33  2  0
 33 34  1  0
 34 35  2  0
 35 36  1  0
 36 37  2  0
 37 38  1  0
 36 39  1  0
 35 40  1  0
 34 41  1  0
 33 42  1  0
 31 43  1  0
 30 44  1  0
 30 45  1  0
 29 46  1  1
 28 47  1  0
 28 48  1  0
  8 49  1  0
 49 50  2  0
 50 51  1  0
 51 52  1  0
 51 53  2  0
 53 54  1  0
 54 55  2  0
 55 56  1  0
 56 57  2  0
 54 58  1  0
 53 59  1  0
 50 60  1  0
  7 61  1  0
  7 62  1  0
  5 63  1  0
  5 64  1  0
  2 65  1  0
  1 66  1  0
  1 67  1  0
  1 68  1  0
 56  6  1  0
 29  8  1  0
 37 32  1  0
 55 49  1  0
 21 12  1  0
 21 16  1  0
M  END
>  <cnnaffinities>  (23) 
[6.97413, 6.93113, 7.0566, 6.72627]

>  <score>  (23) 
6.97413

>  <index>  (23) 
23

>  <Smiles>  (23) 
C(N(C(=O)C(N1C([C@@]2(C(=O)N(c3c(nc(c4c(c(c(c(c34)[H])[H])[H])[H])[H])[H])C([C@@]2(C(N(c2c(c(c(c(c2[H])[H])[H])[H])[H])[H])([H])[H])[H])([H])[H])c2c(c(Cl)c(c(c2C1=O)[H])[H])[H])([H])[H])([H])[H])[H])([H])([H])[H]

>  <h>  (23) 
<NA>

>  <Training>  (23) 
True

>  <Success>  (23) 
True

>  <enamine_searched>  (23) 
False

>  <enamine_id>  (23) 
nan

$$$$

     RDKit          3D

 65 70  0  0  0  0  0  0  0  0999 V2000
   -9.2404    2.2468  -26.2374 O   0  0  0  0  0  0  0  0  0  0  0  0
   -9.2851    1.2124  -26.8860 C   0  0  0  0  0  0  0  0  0  0  0  0
   -8.5879   -0.0398  -26.3779 C   0  0  0  0  0  0  0  0  0  0  0  0
   -9.1838   -0.4503  -25.0948 N   0  0  1  0  0  4  0  0  0  0  0  0
  -10.6366   -0.7814  -25.2871 C   0  0  0  0  0  0  0  0  0  0  0  0
  -11.2696   -1.2977  -24.0226 C   0  0  0  0  0  0  0  0  0  0  0  0
  -12.6587   -1.3301  -23.9143 C   0  0  0  0  0  0  0  0  0  0  0  0
  -13.2781   -1.9794  -22.8599 C   0  0  0  0  0  0  0  0  0  0  0  0
  -12.4876   -2.5472  -21.8711 C   0  0  0  0  0  0  0  0  0  0  0  0
  -13.2641   -3.4444  -20.6029 Cl  0  0  0  0  0  0  0  0  0  0  0  0
  -11.1060   -2.4575  -21.9172 C   0  0  0  0  0  0  0  0  0  0  0  0
  -10.4791   -1.8663  -23.0157 C   0  0  0  0  0  0  0  0  0  0  0  0
   -8.9594   -1.8855  -23.1209 C   0  0  2  0  0  0  0  0  0  0  0  0
   -8.2684   -3.1436  -22.5709 C   0  0  0  0  0  0  0  0  0  0  0  0
   -7.4700   -2.7155  -21.3396 C   0  0  0  0  0  0  0  0  0  0  0  0
   -7.4864   -1.2623  -21.3630 N   0  0  0  0  0  0  0  0  0  0  0  0
   -6.7096   -0.6348  -20.3505 C   0  0  0  0  0  0  0  0  0  0  0  0
   -6.9823   -0.9615  -19.0420 C   0  0  0  0  0  0  0  0  0  0  0  0
   -6.3009   -0.5173  -17.9644 N   0  0  0  0  0  0  0  0  0  0  0  0
   -5.2568    0.2402  -18.1814 C   0  0  0  0  0  0  0  0  0  0  0  0
   -4.7896    0.5859  -19.4803 C   0  0  0  0  0  0  0  0  0  0  0  0
   -3.6141    1.3632  -19.6618 C   0  0  0  0  0  0  0  0  0  0  0  0
   -3.1468    1.6253  -20.9205 C   0  0  0  0  0  0  0  0  0  0  0  0
   -3.8183    1.1062  -22.0482 C   0  0  0  0  0  0  0  0  0  0  0  0
   -4.9645    0.3609  -21.8979 C   0  0  0  0  0  0  0  0  0  0  0  0
   -5.5070    0.1108  -20.6089 C   0  0  0  0  0  0  0  0  0  0  0  0
   -5.4550   -0.0529  -22.7717 H   0  0  0  0  0  0  0  0  0  0  0  0
   -3.4274    1.2989  -23.0432 H   0  0  0  0  0  0  0  0  0  0  0  0
   -2.2572    2.2343  -21.0563 H   0  0  0  0  0  0  0  0  0  0  0  0
   -3.0999    1.7325  -18.7773 H   0  0  0  0  0  0  0  0  0  0  0  0
   -4.7131    0.5946  -17.3061 H   0  0  0  0  0  0  0  0  0  0  0  0
   -7.8112   -1.6309  -18.8177 H   0  0  0  0  0  0  0  0  0  0  0  0
   -8.3017   -0.7348  -22.3370 C   0  0  0  0  0  0  0  0  0  0  0  0
   -8.4217    0.4383  -22.6666 O   0  0  0  0  0  0  0  0  0  0  0  0
   -7.9056   -3.0742  -20.4068 H   0  0  0  0  0  0  0  0  0  0  0  0
   -6.4274   -3.0526  -21.3700 H   0  0  0  0  0  0  0  0  0  0  0  0
   -7.5758   -3.5315  -23.3237 H   0  0  0  0  0  0  0  0  0  0  0  0
   -8.9715   -3.9488  -22.3504 H   0  0  0  0  0  0  0  0  0  0  0  0
   -8.5122   -1.6639  -24.5716 C   0  0  0  0  0  0  0  0  0  0  0  0
   -8.7559   -2.5362  -25.1977 H   0  0  0  0  0  0  0  0  0  0  0  0
   -7.4259   -1.5182  -24.5884 H   0  0  0  0  0  0  0  0  0  0  0  0
  -10.4990   -2.8699  -21.1203 H   0  0  0  0  0  0  0  0  0  0  0  0
  -14.3553   -2.0837  -22.8040 H   0  0  0  0  0  0  0  0  0  0  0  0
  -13.2847   -0.8881  -24.6831 H   0  0  0  0  0  0  0  0  0  0  0  0
  -10.6919   -1.5615  -26.0640 H   0  0  0  0  0  0  0  0  0  0  0  0
  -11.1635    0.0953  -25.6683 H   0  0  0  0  0  0  0  0  0  0  0  0
   -9.0622    0.3089  -24.3775 H   0  0  0  0  0  0  0  0  0  0  0  0
   -7.5256    0.1677  -26.2397 H   0  0  0  0  0  0  0  0  0  0  0  0
   -8.6778   -0.8743  -27.0827 H   0  0  0  0  0  0  0  0  0  0  0  0
   -9.9848    1.0600  -28.0458 N   0  0  0  0  0  0  0  0  0  0  0  0
  -10.7640    2.1302  -28.6370 C   0  0  0  0  0  0  0  0  0  0  0  0
  -10.0532    2.7702  -29.8215 C   0  0  1  0  0  0  0  0  0  0  0  0
   -9.9292    1.8737  -31.0870 C   0  0  0  0  0  0  0  0  0  0  0  0
  -10.6986    2.9332  -31.8995 C   0  0  1  0  0  0  0  0  0  0  0  0
  -11.8841    2.4441  -32.4307 F   0  0  0  0  0  0  0  0  0  0  0  0
  -10.9001    3.7880  -30.6309 C   0  0  0  0  0  0  0  0  0  0  0  0
  -10.5092    4.8120  -30.6723 H   0  0  0  0  0  0  0  0  0  0  0  0
  -11.9518    3.8393  -30.3242 H   0  0  0  0  0  0  0  0  0  0  0  0
  -10.1576    3.4177  -32.7225 H   0  0  0  0  0  0  0  0  0  0  0  0
  -10.5047    0.9406  -31.0314 H   0  0  0  0  0  0  0  0  0  0  0  0
   -8.9116    1.6329  -31.4185 H   0  0  0  0  0  0  0  0  0  0  0  0
   -9.0922    3.1791  -29.4918 H   0  0  0  0  0  0  0  0  0  0  0  0
  -10.9685    2.8789  -27.8629 H   0  0  0  0  0  0  0  0  0  0  0  0
  -11.7176    1.7326  -29.0023 H   0  0  0  0  0  0  0  0  0  0  0  0
  -10.0602    0.1366  -28.4508 H   0  0  0  0  0  0  0  0  0  0  0  0
  1  2  2  0
  2  3  1  0
  3  4  1  0
  4  5  1  0
  5  6  1  0
  6  7  2  0
  7  8  1  0
  8  9  2  0
  9 10  1  0
  9 11  1  0
 11 12  2  0
 12 13  1  0
 13 14  1  1
 14 15  1  0
 15 16  1  0
 16 17  1  0
 17 18  2  0
 18 19  1  0
 19 20  2  0
 20 21  1  0
 21 22  2  0
 22 23  1  0
 23 24  2  0
 24 25  1  0
 25 26  2  0
 25 27  1  0
 24 28  1  0
 23 29  1  0
 22 30  1  0
 20 31  1  0
 18 32  1  0
 16 33  1  0
 33 34  2  0
 15 35  1  0
 15 36  1  0
 14 37  1  0
 14 38  1  0
 13 39  1  0
 39 40  1  0
 39 41  1  0
 11 42  1  0
  8 43  1  0
  7 44  1  0
  5 45  1  0
  5 46  1  0
  4 47  1  1
  3 48  1  0
  3 49  1  0
  2 50  1  0
 50 51  1  0
 51 52  1  0
 52 53  1  0
 53 54  1  0
 54 55  1  0
 54 56  1  0
 56 57  1  0
 56 58  1  0
 54 59  1  6
 53 60  1  0
 53 61  1  0
 52 62  1  1
 51 63  1  0
 51 64  1  0
 50 65  1  0
 39  4  1  0
 56 52  1  0
 12  6  1  0
 33 13  1  0
 26 17  1  0
 26 21  1  0
M  CHG  1   4   1
M  END
>  <cnnaffinities>  (24) 
[5.69613]

>  <score>  (24) 
5.69613

>  <index>  (24) 
24

>  <Smiles>  (24) 
O=C(C([N@+]1(C(c2c(c(c(Cl)c(c2[C@@]2(C(C(N(c3c(nc(c4c(c(c(c(c34)[H])[H])[H])[H])[H])[H])C2=O)([H])[H])([H])[H])C1([H])[H])[H])[H])[H])([H])[H])[H])([H])[H])N(C([C@]1(C([C@@](F)(C1([H])[H])[H])([H])[H])[H])([H])[H])[H]

>  <h>  (24) 
<NA>

>  <Training>  (24) 
True

>  <Success>  (24) 
True

>  <enamine_searched>  (24) 
False

>  <enamine_id>  (24) 
nan

$$$$

     RDKit          3D

 70 75  0  0  0  0  0  0  0  0999 V2000
   -5.7806   -7.7699  -25.5504 O   0  0  0  0  0  0  0  0  0  0  0  0
   -5.6681   -7.1687  -24.4960 C   0  0  0  0  0  0  0  0  0  0  0  0
   -6.8487   -6.4182  -23.8689 C   0  0  0  0  0  0  0  0  0  0  0  0
   -6.7826   -4.9117  -23.9724 N   0  0  1  0  0  4  0  0  0  0  0  0
   -6.7628   -4.5230  -25.4509 C   0  0  0  0  0  0  0  0  0  0  0  0
   -6.7688   -3.0270  -25.6398 C   0  0  0  0  0  0  0  0  0  0  0  0
   -6.2819   -2.4796  -26.8288 C   0  0  0  0  0  0  0  0  0  0  0  0
   -6.2996   -1.1091  -27.0498 C   0  0  0  0  0  0  0  0  0  0  0  0
   -6.8115   -0.2776  -26.0604 C   0  0  0  0  0  0  0  0  0  0  0  0
   -6.8459    1.4473  -26.3167 Cl  0  0  0  0  0  0  0  0  0  0  0  0
   -7.3011   -0.8055  -24.8744 C   0  0  0  0  0  0  0  0  0  0  0  0
   -7.2938   -2.1851  -24.6588 C   0  0  0  0  0  0  0  0  0  0  0  0
   -7.8077   -2.7009  -23.3249 C   0  0  2  0  0  0  0  0  0  0  0  0
   -6.8337   -2.3351  -22.2095 C   0  0  0  0  0  0  0  0  0  0  0  0
   -5.7244   -2.8467  -22.1923 O   0  0  0  0  0  0  0  0  0  0  0  0
   -7.3082   -1.4342  -21.2725 N   0  0  0  0  0  0  0  0  0  0  0  0
   -6.5546   -0.8568  -20.2170 C   0  0  0  0  0  0  0  0  0  0  0  0
   -6.8929   -1.0593  -18.8969 C   0  0  0  0  0  0  0  0  0  0  0  0
   -6.2074   -0.5519  -17.8437 N   0  0  0  0  0  0  0  0  0  0  0  0
   -5.1693    0.2035  -18.0914 C   0  0  0  0  0  0  0  0  0  0  0  0
   -4.7299    0.5254  -19.4052 C   0  0  0  0  0  0  0  0  0  0  0  0
   -3.6106    1.3718  -19.6296 C   0  0  0  0  0  0  0  0  0  0  0  0
   -3.2382    1.6965  -20.9055 C   0  0  0  0  0  0  0  0  0  0  0  0
   -3.9715    1.2006  -22.0095 C   0  0  0  0  0  0  0  0  0  0  0  0
   -5.0535    0.3776  -21.8168 C   0  0  0  0  0  0  0  0  0  0  0  0
   -5.4466    0.0006  -20.5017 C   0  0  0  0  0  0  0  0  0  0  0  0
   -5.6160    0.0079  -22.6680 H   0  0  0  0  0  0  0  0  0  0  0  0
   -3.6789    1.4655  -23.0211 H   0  0  0  0  0  0  0  0  0  0  0  0
   -2.3872    2.3498  -21.0792 H   0  0  0  0  0  0  0  0  0  0  0  0
   -3.0771    1.7558  -18.7631 H   0  0  0  0  0  0  0  0  0  0  0  0
   -4.6229    0.5999  -17.2346 H   0  0  0  0  0  0  0  0  0  0  0  0
   -7.7491   -1.6753  -18.6228 H   0  0  0  0  0  0  0  0  0  0  0  0
   -8.3128   -1.3757  -21.1709 H   0  0  0  0  0  0  0  0  0  0  0  0
   -7.9866   -4.2222  -23.3149 C   0  0  0  0  0  0  0  0  0  0  0  0
   -8.8868   -4.4938  -23.8745 H   0  0  0  0  0  0  0  0  0  0  0  0
   -8.0822   -4.5742  -22.2853 H   0  0  0  0  0  0  0  0  0  0  0  0
   -8.7637   -2.2199  -23.1052 H   0  0  0  0  0  0  0  0  0  0  0  0
   -7.6897   -0.1405  -24.1084 H   0  0  0  0  0  0  0  0  0  0  0  0
   -5.9237   -0.6797  -27.9731 H   0  0  0  0  0  0  0  0  0  0  0  0
   -5.8799   -3.1366  -27.5980 H   0  0  0  0  0  0  0  0  0  0  0  0
   -7.6471   -4.9722  -25.9274 H   0  0  0  0  0  0  0  0  0  0  0  0
   -5.8940   -4.9755  -25.9331 H   0  0  0  0  0  0  0  0  0  0  0  0
   -5.9450   -4.4962  -23.4962 H   0  0  0  0  0  0  0  0  0  0  0  0
   -7.7275   -6.7796  -24.4087 H   0  0  0  0  0  0  0  0  0  0  0  0
   -6.9738   -6.6951  -22.8209 H   0  0  0  0  0  0  0  0  0  0  0  0
   -4.5033   -7.1165  -23.7843 N   0  0  0  0  0  0  0  0  0  0  0  0
   -3.2946   -7.7506  -24.1732 C   0  0  0  0  0  0  0  0  0  0  0  0
   -2.0720   -7.1092  -23.9614 C   0  0  0  0  0  0  0  0  0  0  0  0
   -0.8870   -7.7077  -24.3861 C   0  0  0  0  0  0  0  0  0  0  0  0
   -0.9059   -8.9502  -25.0256 C   0  0  0  0  0  0  0  0  0  0  0  0
    0.3191   -9.5452  -25.4765 N   0  0  0  0  0  0  0  0  0  0  0  0
    1.3336   -9.8744  -24.4768 C   0  0  0  0  0  0  0  0  0  0  0  0
    2.6528  -10.2403  -25.1421 C   0  0  0  0  0  0  0  0  0  0  0  0
    2.4253  -11.1938  -26.1510 O   0  0  0  0  0  0  0  0  0  0  0  0
    1.7035  -10.6244  -27.2099 C   0  0  0  0  0  0  0  0  0  0  0  0
    0.4040   -9.9431  -26.7878 C   0  0  0  0  0  0  0  0  0  0  0  0
   -0.4693   -9.7270  -27.6086 O   0  0  0  0  0  0  0  0  0  0  0  0
    2.3119   -9.8663  -27.7327 H   0  0  0  0  0  0  0  0  0  0  0  0
    1.4534  -11.4277  -27.9063 H   0  0  0  0  0  0  0  0  0  0  0  0
    3.1444   -9.3541  -25.5712 H   0  0  0  0  0  0  0  0  0  0  0  0
    3.3360  -10.6978  -24.4185 H   0  0  0  0  0  0  0  0  0  0  0  0
    1.4735   -9.0105  -23.8193 H   0  0  0  0  0  0  0  0  0  0  0  0
    0.9798  -10.7223  -23.8758 H   0  0  0  0  0  0  0  0  0  0  0  0
   -2.1293   -9.6066  -25.1956 C   0  0  0  0  0  0  0  0  0  0  0  0
   -3.3124   -9.0093  -24.7737 C   0  0  0  0  0  0  0  0  0  0  0  0
   -4.2642   -9.5026  -24.9307 H   0  0  0  0  0  0  0  0  0  0  0  0
   -2.1641  -10.5781  -25.6886 H   0  0  0  0  0  0  0  0  0  0  0  0
    0.0598   -7.1896  -24.2333 H   0  0  0  0  0  0  0  0  0  0  0  0
   -2.0420   -6.1408  -23.4678 H   0  0  0  0  0  0  0  0  0  0  0  0
   -4.4974   -6.5231  -22.9718 H   0  0  0  0  0  0  0  0  0  0  0  0
  1  2  2  0
  2  3  1  0
  3  4  1  0
  4  5  1  0
  5  6  1  0
  6  7  2  0
  7  8  1  0
  8  9  2  0
  9 10  1  0
  9 11  1  0
 11 12  2  0
 12 13  1  0
 13 14  1  0
 14 15  2  0
 14 16  1  0
 16 17  1  0
 17 18  2  0
 18 19  1  0
 19 20  2  0
 20 21  1  0
 21 22  2  0
 22 23  1  0
 23 24  2  0
 24 25  1  0
 25 26  2  0
 25 27  1  0
 24 28  1  0
 23 29  1  0
 22 30  1  0
 20 31  1  0
 18 32  1  0
 16 33  1  0
 13 34  1  0
 34 35  1  0
 34 36  1  0
 13 37  1  1
 11 38  1  0
  8 39  1  0
  7 40  1  0
  5 41  1  0
  5 42  1  0
  4 43  1  1
  3 44  1  0
  3 45  1  0
  2 46  1  0
 46 47  1  0
 47 48  2  0
 48 49  1  0
 49 50  2  0
 50 51  1  0
 51 52  1  0
 52 53  1  0
 53 54  1  0
 54 55  1  0
 55 56  1  0
 56 57  2  0
 55 58  1  0
 55 59  1  0
 53 60  1  0
 53 61  1  0
 52 62  1  0
 52 63  1  0
 50 64  1  0
 64 65  2  0
 65 66  1  0
 64 67  1  0
 49 68  1  0
 48 69  1  0
 46 70  1  0
 34  4  1  0
 65 47  1  0
 12  6  1  0
 26 17  1  0
 56 51  1  0
 26 21  1  0
M  CHG  1   4   1
M  END
>  <cnnaffinities>  (25) 
[6.1786, 6.27912, 6.47243]

>  <score>  (25) 
6.1786

>  <index>  (25) 
25

>  <Smiles>  (25) 
O=C(C([N@+]1(C(c2c(c(c(Cl)c(c2[C@](C(=O)N(c2c(nc(c3c(c(c(c(c23)[H])[H])[H])[H])[H])[H])[H])(C1([H])[H])[H])[H])[H])[H])([H])[H])[H])([H])[H])N(c1c(c(c(N2C(C(OC(C2=O)([H])[H])([H])[H])([H])[H])c(c1[H])[H])[H])[H])[H]

>  <h>  (25) 
<NA>

>  <Training>  (25) 
True

>  <Success>  (25) 
True

>  <enamine_searched>  (25) 
False

>  <enamine_id>  (25) 
nan

$$$$

     RDKit          3D

 55 60  0  0  0  0  0  0  0  0999 V2000
  -10.4368   -1.0352  -23.3550 C   0  0  0  0  0  0  0  0  0  0  0  0
   -8.9949   -1.3937  -22.9972 C   0  0  1  0  0  0  0  0  0  0  0  0
   -8.3964   -0.4788  -21.9123 C   0  0  0  0  0  0  0  0  0  0  0  0
   -7.3991   -1.3173  -21.2734 N   0  0  0  0  0  0  0  0  0  0  0  0
   -6.5806   -0.8448  -20.2178 C   0  0  0  0  0  0  0  0  0  0  0  0
   -6.8853   -1.1172  -18.9081 C   0  0  0  0  0  0  0  0  0  0  0  0
   -6.2141   -0.5884  -17.8543 N   0  0  0  0  0  0  0  0  0  0  0  0
   -5.2041    0.2065  -18.1037 C   0  0  0  0  0  0  0  0  0  0  0  0
   -4.7506    0.5334  -19.4152 C   0  0  0  0  0  0  0  0  0  0  0  0
   -3.6263    1.3678  -19.6522 C   0  0  0  0  0  0  0  0  0  0  0  0
   -3.2197    1.6294  -20.9329 C   0  0  0  0  0  0  0  0  0  0  0  0
   -3.9122    1.0732  -22.0324 C   0  0  0  0  0  0  0  0  0  0  0  0
   -5.0049    0.2668  -21.8286 C   0  0  0  0  0  0  0  0  0  0  0  0
   -5.4541   -0.0120  -20.5109 C   0  0  0  0  0  0  0  0  0  0  0  0
   -5.5314   -0.1788  -22.6668 H   0  0  0  0  0  0  0  0  0  0  0  0
   -3.5770    1.2784  -23.0455 H   0  0  0  0  0  0  0  0  0  0  0  0
   -2.3564    2.2645  -21.1131 H   0  0  0  0  0  0  0  0  0  0  0  0
   -3.0987    1.7788  -18.7953 H   0  0  0  0  0  0  0  0  0  0  0  0
   -4.6818    0.6316  -17.2453 H   0  0  0  0  0  0  0  0  0  0  0  0
   -7.7125   -1.7803  -18.6582 H   0  0  0  0  0  0  0  0  0  0  0  0
   -7.5815   -2.6621  -21.5028 C   0  0  0  0  0  0  0  0  0  0  0  0
   -6.8742   -3.5285  -21.0240 O   0  0  0  0  0  0  0  0  0  0  0  0
   -8.7784   -2.8512  -22.4500 C   0  0  1  0  0  0  0  0  0  0  0  0
   -9.9878   -3.3015  -21.5913 C   0  0  0  0  0  0  0  0  0  0  0  0
  -11.1145   -3.7937  -22.3811 N   0  0  0  0  0  0  0  0  0  0  0  0
  -12.4875   -3.7638  -21.8727 C   0  0  0  0  0  0  0  0  0  0  0  0
  -13.3501   -2.6528  -22.4119 C   0  0  0  0  0  0  0  0  0  0  0  0
  -14.0208   -2.5515  -23.6431 C   0  0  0  0  0  0  0  0  0  0  0  0
  -14.7154   -1.4169  -23.6700 N   0  0  0  0  0  0  0  0  0  0  0  0
  -14.4296   -0.8751  -22.5029 N   0  0  0  0  0  0  0  0  0  0  0  0
  -13.6393   -1.5661  -21.7017 N   0  0  0  0  0  0  0  0  0  0  0  0
  -14.8948   -0.0464  -22.1531 H   0  0  0  0  0  0  0  0  0  0  0  0
  -14.0848   -3.2574  -24.4642 H   0  0  0  0  0  0  0  0  0  0  0  0
  -12.4904   -3.7166  -20.7842 H   0  0  0  0  0  0  0  0  0  0  0  0
  -12.9558   -4.6972  -22.1946 H   0  0  0  0  0  0  0  0  0  0  0  0
  -10.9361   -4.5329  -23.5179 C   0  0  0  0  0  0  0  0  0  0  0  0
  -11.8873   -5.0317  -24.1147 O   0  0  0  0  0  0  0  0  0  0  0  0
   -9.5324   -4.7086  -23.9816 C   0  0  0  0  0  0  0  0  0  0  0  0
   -9.2959   -5.7073  -24.9207 C   0  0  0  0  0  0  0  0  0  0  0  0
   -8.0303   -5.9114  -25.4308 C   0  0  0  0  0  0  0  0  0  0  0  0
   -7.0096   -5.0749  -24.9941 C   0  0  0  0  0  0  0  0  0  0  0  0
   -5.7786   -5.2449  -25.5053 F   0  0  0  0  0  0  0  0  0  0  0  0
   -7.2085   -4.0887  -24.0457 C   0  0  0  0  0  0  0  0  0  0  0  0
   -8.4925   -3.9025  -23.5059 C   0  0  0  0  0  0  0  0  0  0  0  0
   -6.3485   -3.5188  -23.7050 H   0  0  0  0  0  0  0  0  0  0  0  0
   -7.8202   -6.7046  -26.1396 H   0  0  0  0  0  0  0  0  0  0  0  0
  -10.1374   -6.3186  -25.2286 H   0  0  0  0  0  0  0  0  0  0  0  0
  -10.3055   -2.4513  -20.9782 H   0  0  0  0  0  0  0  0  0  0  0  0
   -9.6503   -4.0697  -20.8947 H   0  0  0  0  0  0  0  0  0  0  0  0
   -9.1575   -0.1583  -21.1835 H   0  0  0  0  0  0  0  0  0  0  0  0
   -7.9443    0.4337  -22.3166 H   0  0  0  0  0  0  0  0  0  0  0  0
   -8.3655   -1.3121  -23.8925 H   0  0  0  0  0  0  0  0  0  0  0  0
  -10.5030   -0.0685  -23.8591 H   0  0  0  0  0  0  0  0  0  0  0  0
  -10.8745   -1.7950  -24.0095 H   0  0  0  0  0  0  0  0  0  0  0  0
  -11.0666   -0.9722  -22.4620 H   0  0  0  0  0  0  0  0  0  0  0  0
  1  2  1  0
  2  3  1  0
  3  4  1  0
  4  5  1  0
  5  6  2  0
  6  7  1  0
  7  8  2  0
  8  9  1  0
  9 10  2  0
 10 11  1  0
 11 12  2  0
 12 13  1  0
 13 14  2  0
 13 15  1  0
 12 16  1  0
 11 17  1  0
 10 18  1  0
  8 19  1  0
  6 20  1  0
  4 21  1  0
 21 22  2  0
 21 23  1  0
 23 24  1  1
 24 25  1  0
 25 26  1  0
 26 27  1  0
 27 28  1  0
 28 29  2  0
 29 30  1  0
 30 31  1  0
 30 32  1  0
 28 33  1  0
 26 34  1  0
 26 35  1  0
 25 36  1  0
 36 37  2  0
 36 38  1  0
 38 39  2  0
 39 40  1  0
 40 41  2  0
 41 42  1  0
 41 43  1  0
 43 44  2  0
 43 45  1  0
 40 46  1  0
 39 47  1  0
 24 48  1  0
 24 49  1  0
  3 50  1  0
  3 51  1  0
  2 52  1  6
  1 53  1  0
  1 54  1  0
  1 55  1  0
 23  2  1  0
 31 27  2  0
 44 38  1  0
 14  5  1  0
 44 23  1  0
 14  9  1  0
M  END
>  <cnnaffinities>  (26) 
[6.97344]

>  <score>  (26) 
6.97344

>  <index>  (26) 
26

>  <Smiles>  (26) 
C([C@]1(C(N(c2c(nc(c3c(c(c(c(c23)[H])[H])[H])[H])[H])[H])C(=O)[C@]21C(N(C(c1c(nn(n1)[H])[H])([H])[H])C(=O)c1c(c(c(F)c(c21)[H])[H])[H])([H])[H])([H])[H])[H])([H])([H])[H]

>  <h>  (26) 
<NA>

>  <Training>  (26) 
True

>  <Success>  (26) 
True

>  <enamine_searched>  (26) 
False

>  <enamine_id>  (26) 
nan

$$$$

     RDKit          3D

 58 62  0  0  0  0  0  0  0  0999 V2000
  -14.9132   -3.2715  -23.3789 C   0  0  0  0  0  0  0  0  0  0  0  0
  -13.6562   -2.5382  -23.1511 N   0  0  0  0  0  4  0  0  0  0  0  0
  -13.2177   -2.5727  -21.7317 C   0  0  0  0  0  0  0  0  0  0  0  0
  -12.3861   -3.8321  -21.5316 C   0  0  0  0  0  0  0  0  0  0  0  0
  -11.1039   -3.7614  -22.2225 N   0  0  0  0  0  0  0  0  0  0  0  0
   -9.9469   -3.2251  -21.5213 C   0  0  0  0  0  0  0  0  0  0  0  0
   -8.7662   -2.8069  -22.4403 C   0  0  2  0  0  0  0  0  0  0  0  0
   -7.5444   -2.6366  -21.5189 C   0  0  0  0  0  0  0  0  0  0  0  0
   -6.8354   -3.5064  -21.0542 O   0  0  0  0  0  0  0  0  0  0  0  0
   -7.3843   -1.2938  -21.2557 N   0  0  0  0  0  0  0  0  0  0  0  0
   -6.5669   -0.8312  -20.1995 C   0  0  0  0  0  0  0  0  0  0  0  0
   -6.8679   -1.1152  -18.8935 C   0  0  0  0  0  0  0  0  0  0  0  0
   -6.1992   -0.5855  -17.8398 N   0  0  0  0  0  0  0  0  0  0  0  0
   -5.1941    0.2146  -18.0929 C   0  0  0  0  0  0  0  0  0  0  0  0
   -4.7412    0.5426  -19.4040 C   0  0  0  0  0  0  0  0  0  0  0  0
   -3.6223    1.3786  -19.6481 C   0  0  0  0  0  0  0  0  0  0  0  0
   -3.2187    1.6357  -20.9299 C   0  0  0  0  0  0  0  0  0  0  0  0
   -3.9090    1.0741  -22.0272 C   0  0  0  0  0  0  0  0  0  0  0  0
   -4.9974    0.2674  -21.8176 C   0  0  0  0  0  0  0  0  0  0  0  0
   -5.4426   -0.0034  -20.4979 C   0  0  0  0  0  0  0  0  0  0  0  0
   -5.5194   -0.1848  -22.6549 H   0  0  0  0  0  0  0  0  0  0  0  0
   -3.5779    1.2776  -23.0406 H   0  0  0  0  0  0  0  0  0  0  0  0
   -2.3623    2.2757  -21.1135 H   0  0  0  0  0  0  0  0  0  0  0  0
   -3.0970    1.7964  -18.7953 H   0  0  0  0  0  0  0  0  0  0  0  0
   -4.6758    0.6405  -17.2346 H   0  0  0  0  0  0  0  0  0  0  0  0
   -7.6952   -1.7807  -18.6508 H   0  0  0  0  0  0  0  0  0  0  0  0
   -8.3674   -0.4469  -21.9069 C   0  0  0  0  0  0  0  0  0  0  0  0
   -8.9171   -1.3554  -23.0191 C   0  0  2  0  0  0  0  0  0  0  0  0
  -10.3104   -0.9545  -23.4879 C   0  0  0  0  0  0  0  0  0  0  0  0
  -11.0149   -0.9342  -22.6487 H   0  0  0  0  0  0  0  0  0  0  0  0
  -10.6904   -1.6532  -24.2424 H   0  0  0  0  0  0  0  0  0  0  0  0
  -10.3034    0.0497  -23.9220 H   0  0  0  0  0  0  0  0  0  0  0  0
   -8.2239   -1.3011  -23.8717 H   0  0  0  0  0  0  0  0  0  0  0  0
   -7.9047    0.4732  -22.2857 H   0  0  0  0  0  0  0  0  0  0  0  0
   -9.1609   -0.1493  -21.1994 H   0  0  0  0  0  0  0  0  0  0  0  0
   -8.5530   -3.8763  -23.4807 C   0  0  0  0  0  0  0  0  0  0  0  0
   -7.2890   -4.1501  -24.0159 C   0  0  0  0  0  0  0  0  0  0  0  0
   -7.1619   -5.1600  -24.9494 C   0  0  0  0  0  0  0  0  0  0  0  0
   -5.9502   -5.4000  -25.4780 F   0  0  0  0  0  0  0  0  0  0  0  0
   -8.2325   -5.9459  -25.3624 C   0  0  0  0  0  0  0  0  0  0  0  0
   -9.4840   -5.6439  -24.8554 C   0  0  0  0  0  0  0  0  0  0  0  0
   -9.6544   -4.5959  -23.9530 C   0  0  0  0  0  0  0  0  0  0  0  0
  -11.0209   -4.2352  -23.4897 C   0  0  0  0  0  0  0  0  0  0  0  0
  -12.0212   -4.3640  -24.2122 O   0  0  0  0  0  0  0  0  0  0  0  0
  -10.3464   -6.2331  -25.1430 H   0  0  0  0  0  0  0  0  0  0  0  0
   -8.0654   -6.7681  -26.0550 H   0  0  0  0  0  0  0  0  0  0  0  0
   -6.4058   -3.6149  -23.6793 H   0  0  0  0  0  0  0  0  0  0  0  0
  -10.2358   -2.3554  -20.9199 H   0  0  0  0  0  0  0  0  0  0  0  0
   -9.5630   -3.9631  -20.8175 H   0  0  0  0  0  0  0  0  0  0  0  0
  -12.9501   -4.6436  -21.9888 H   0  0  0  0  0  0  0  0  0  0  0  0
  -12.2223   -4.0749  -20.4857 H   0  0  0  0  0  0  0  0  0  0  0  0
  -12.6158   -1.6869  -21.5214 H   0  0  0  0  0  0  0  0  0  0  0  0
  -14.0817   -2.5620  -21.0585 H   0  0  0  0  0  0  0  0  0  0  0  0
  -13.7185   -1.5675  -23.4858 H   0  0  0  0  0  0  0  0  0  0  0  0
  -12.9515   -3.0150  -23.7398 H   0  0  0  0  0  0  0  0  0  0  0  0
  -15.2988   -3.0966  -24.3853 H   0  0  0  0  0  0  0  0  0  0  0  0
  -15.6579   -2.9407  -22.6610 H   0  0  0  0  0  0  0  0  0  0  0  0
  -14.7581   -4.3492  -23.2364 H   0  0  0  0  0  0  0  0  0  0  0  0
  1  2  1  0
  2  3  1  0
  3  4  1  0
  4  5  1  0
  5  6  1  0
  7  6  1  1
  7  8  1  0
  8  9  2  0
  8 10  1  0
 10 11  1  0
 11 12  2  0
 12 13  1  0
 13 14  2  0
 14 15  1  0
 15 16  2  0
 16 17  1  0
 17 18  2  0
 18 19  1  0
 19 20  2  0
 19 21  1  0
 18 22  1  0
 17 23  1  0
 16 24  1  0
 14 25  1  0
 12 26  1  0
 10 27  1  0
 27 28  1  0
 28 29  1  0
 29 30  1  0
 29 31  1  0
 29 32  1  0
 28 33  1  6
 27 34  1  0
 27 35  1  0
  7 36  1  0
 36 37  2  0
 37 38  1  0
 38 39  1  0
 38 40  2  0
 40 41  1  0
 41 42  2  0
 42 43  1  0
 43 44  2  0
 41 45  1  0
 40 46  1  0
 37 47  1  0
  6 48  1  0
  6 49  1  0
  4 50  1  0
  4 51  1  0
  3 52  1  0
  3 53  1  0
  2 54  1  0
  2 55  1  0
  1 56  1  0
  1 57  1  0
  1 58  1  0
 43  5  1  0
 28  7  1  0
 42 36  1  0
 20 11  1  0
 20 15  1  0
M  CHG  1   2   1
M  END
>  <cnnaffinities>  (27) 
[6.416]

>  <score>  (27) 
6.416

>  <index>  (27) 
27

>  <Smiles>  (27) 
C([N+](C(C(N1C([C@@]2(C(=O)N(c3c(nc(c4c(c(c(c(c34)[H])[H])[H])[H])[H])[H])C([C@@]2(C([H])([H])[H])[H])([H])[H])c2c(c(F)c(c(c2C1=O)[H])[H])[H])([H])[H])([H])[H])([H])[H])([H])[H])([H])([H])[H]

>  <h>  (27) 
<NA>

>  <Training>  (27) 
True

>  <Success>  (27) 
True

>  <enamine_searched>  (27) 
False

>  <enamine_id>  (27) 
nan

$$$$

     RDKit          3D

 64 68  0  0  0  0  0  0  0  0999 V2000
   -7.4293    3.2721  -21.7255 C   0  0  0  0  0  0  0  0  0  0  0  0
   -8.3516    2.8632  -22.7662 N   0  0  0  0  0  0  0  0  0  0  0  0
   -7.8304    2.1849  -23.8189 C   0  0  0  0  0  0  0  0  0  0  0  0
   -6.6203    2.0634  -23.9747 O   0  0  0  0  0  0  0  0  0  0  0  0
   -8.8152    1.5841  -24.8103 C   0  0  0  0  0  0  0  0  0  0  0  0
   -9.4887    0.4176  -24.2856 N   0  0  0  0  0  0  0  0  0  0  0  0
   -8.7372   -0.8179  -24.1546 C   0  0  0  0  0  0  0  0  0  0  0  0
   -9.0897   -1.5623  -22.8510 C   0  0  2  0  0  0  0  0  0  0  0  0
   -8.5521   -0.7821  -21.6296 C   0  0  0  0  0  0  0  0  0  0  0  0
   -9.0359    0.2055  -21.1130 O   0  0  0  0  0  0  0  0  0  0  0  0
   -7.3979   -1.3936  -21.2024 N   0  0  0  0  0  0  0  0  0  0  0  0
   -6.5998   -0.8190  -20.1793 C   0  0  0  0  0  0  0  0  0  0  0  0
   -6.9159   -1.0465  -18.8637 C   0  0  0  0  0  0  0  0  0  0  0  0
   -6.2125   -0.5476  -17.8198 N   0  0  0  0  0  0  0  0  0  0  0  0
   -5.1773    0.2069  -18.0866 C   0  0  0  0  0  0  0  0  0  0  0  0
   -4.7397    0.5265  -19.4019 C   0  0  0  0  0  0  0  0  0  0  0  0
   -3.6167    1.3610  -19.6451 C   0  0  0  0  0  0  0  0  0  0  0  0
   -3.2294    1.6571  -20.9229 C   0  0  0  0  0  0  0  0  0  0  0  0
   -3.9510    1.1341  -22.0217 C   0  0  0  0  0  0  0  0  0  0  0  0
   -5.0420    0.3233  -21.8131 C   0  0  0  0  0  0  0  0  0  0  0  0
   -5.4666   -0.0044  -20.4958 C   0  0  0  0  0  0  0  0  0  0  0  0
   -5.5980   -0.0478  -22.6701 H   0  0  0  0  0  0  0  0  0  0  0  0
   -3.6571    1.3792  -23.0379 H   0  0  0  0  0  0  0  0  0  0  0  0
   -2.3750    2.3069  -21.1007 H   0  0  0  0  0  0  0  0  0  0  0  0
   -3.0825    1.7615  -18.7877 H   0  0  0  0  0  0  0  0  0  0  0  0
   -4.6159    0.6035  -17.2393 H   0  0  0  0  0  0  0  0  0  0  0  0
   -7.7790   -1.6624  -18.6122 H   0  0  0  0  0  0  0  0  0  0  0  0
   -7.0418   -2.5895  -21.9344 C   0  0  0  0  0  0  0  0  0  0  0  0
   -8.3191   -2.9187  -22.7357 C   0  0  2  0  0  0  0  0  0  0  0  0
   -8.0433   -3.7006  -24.0360 C   0  0  0  0  0  0  0  0  0  0  0  0
   -7.4523   -5.3523  -23.6630 S   0  0  0  0  0  0  0  0  0  0  0  0
   -6.0973   -5.2719  -23.1378 O   0  0  0  0  0  0  0  0  0  0  0  0
   -8.4948   -6.0560  -22.9228 O   0  0  0  0  0  0  0  0  0  0  0  0
   -7.2681   -6.0150  -25.1817 N   0  0  0  0  0  0  0  0  0  0  0  0
   -8.4648   -6.3884  -25.9261 C   0  0  0  0  0  0  0  0  0  0  0  0
   -8.9946   -5.4755  -26.1901 H   0  0  0  0  0  0  0  0  0  0  0  0
   -9.1542   -7.0303  -25.3677 H   0  0  0  0  0  0  0  0  0  0  0  0
   -8.1606   -6.8908  -26.8508 H   0  0  0  0  0  0  0  0  0  0  0  0
   -6.5853   -6.7570  -25.0932 H   0  0  0  0  0  0  0  0  0  0  0  0
   -8.9592   -3.8056  -24.6330 H   0  0  0  0  0  0  0  0  0  0  0  0
   -7.2688   -3.2279  -24.6510 H   0  0  0  0  0  0  0  0  0  0  0  0
   -8.9355   -3.5768  -22.1234 H   0  0  0  0  0  0  0  0  0  0  0  0
   -6.1877   -2.4016  -22.5998 H   0  0  0  0  0  0  0  0  0  0  0  0
   -6.7596   -3.3938  -21.2488 H   0  0  0  0  0  0  0  0  0  0  0  0
  -10.6026   -1.6413  -22.7611 C   0  0  0  0  0  0  0  0  0  0  0  0
  -11.2120   -2.5634  -21.9061 C   0  0  0  0  0  0  0  0  0  0  0  0
  -12.5907   -2.5921  -21.7910 C   0  0  0  0  0  0  0  0  0  0  0  0
  -13.3208   -3.7335  -20.6948 Cl  0  0  0  0  0  0  0  0  0  0  0  0
  -13.4101   -1.7206  -22.5113 C   0  0  0  0  0  0  0  0  0  0  0  0
  -12.8166   -0.7722  -23.3191 C   0  0  0  0  0  0  0  0  0  0  0  0
  -11.4280   -0.7132  -23.4146 C   0  0  0  0  0  0  0  0  0  0  0  0
  -10.8510    0.4341  -24.1777 C   0  0  0  0  0  0  0  0  0  0  0  0
  -11.5494    1.3313  -24.6333 O   0  0  0  0  0  0  0  0  0  0  0  0
  -13.3946   -0.0400  -23.8758 H   0  0  0  0  0  0  0  0  0  0  0  0
  -14.4864   -1.7881  -22.4055 H   0  0  0  0  0  0  0  0  0  0  0  0
  -10.6155   -3.2517  -21.3160 H   0  0  0  0  0  0  0  0  0  0  0  0
   -7.6748   -0.5606  -24.1754 H   0  0  0  0  0  0  0  0  0  0  0  0
   -8.9623   -1.4752  -25.0040 H   0  0  0  0  0  0  0  0  0  0  0  0
   -9.6079    2.2896  -25.0679 H   0  0  0  0  0  0  0  0  0  0  0  0
   -8.2212    1.3234  -25.6900 H   0  0  0  0  0  0  0  0  0  0  0  0
   -9.3181    2.7369  -22.5080 H   0  0  0  0  0  0  0  0  0  0  0  0
   -6.7890    2.4363  -21.4321 H   0  0  0  0  0  0  0  0  0  0  0  0
   -6.7810    4.0720  -22.0850 H   0  0  0  0  0  0  0  0  0  0  0  0
   -7.9839    3.6103  -20.8580 H   0  0  0  0  0  0  0  0  0  0  0  0
  1  2  1  0
  2  3  1  0
  3  4  2  0
  3  5  1  0
  5  6  1  0
  6  7  1  0
  8  7  1  6
  8  9  1  0
  9 10  2  0
  9 11  1  0
 11 12  1  0
 12 13  2  0
 13 14  1  0
 14 15  2  0
 15 16  1  0
 16 17  2  0
 17 18  1  0
 18 19  2  0
 19 20  1  0
 20 21  2  0
 20 22  1  0
 19 23  1  0
 18 24  1  0
 17 25  1  0
 15 26  1  0
 13 27  1  0
 11 28  1  0
 28 29  1  0
 29 30  1  0
 30 31  1  0
 31 32  2  0
 31 33  2  0
 31 34  1  0
 34 35  1  0
 35 36  1  0
 35 37  1  0
 35 38  1  0
 34 39  1  0
 30 40  1  0
 30 41  1  0
 29 42  1  1
 28 43  1  0
 28 44  1  0
  8 45  1  0
 45 46  2  0
 46 47  1  0
 47 48  1  0
 47 49  2  0
 49 50  1  0
 50 51  2  0
 51 52  1  0
 52 53  2  0
 50 54  1  0
 49 55  1  0
 46 56  1  0
  7 57  1  0
  7 58  1  0
  5 59  1  0
  5 60  1  0
  2 61  1  0
  1 62  1  0
  1 63  1  0
  1 64  1  0
 52  6  1  0
 29  8  1  0
 51 45  1  0
 21 12  1  0
 21 16  1  0
M  END
>  <cnnaffinities>  (28) 
[6.56643, 6.7975]

>  <score>  (28) 
6.56643

>  <index>  (28) 
28

>  <Smiles>  (28) 
C(N(C(=O)C(N1C([C@@]2(C(=O)N(c3c(nc(c4c(c(c(c(c34)[H])[H])[H])[H])[H])[H])C([C@@]2(C(S(=O)(=O)N(C([H])([H])[H])[H])([H])[H])[H])([H])[H])c2c(c(Cl)c(c(c2C1=O)[H])[H])[H])([H])[H])([H])[H])[H])([H])([H])[H]

>  <h>  (28) 
<NA>

>  <Training>  (28) 
True

>  <Success>  (28) 
True

>  <enamine_searched>  (28) 
False

>  <enamine_id>  (28) 
nan

$$$$

     RDKit          3D

 55 60  0  0  0  0  0  0  0  0999 V2000
  -10.4369   -1.0360  -23.3543 C   0  0  0  0  0  0  0  0  0  0  0  0
   -8.9949   -1.3942  -22.9968 C   0  0  1  0  0  0  0  0  0  0  0  0
   -8.3963   -0.4790  -21.9122 C   0  0  0  0  0  0  0  0  0  0  0  0
   -7.3991   -1.3174  -21.2731 N   0  0  0  0  0  0  0  0  0  0  0  0
   -6.5806   -0.8448  -20.2177 C   0  0  0  0  0  0  0  0  0  0  0  0
   -6.8854   -1.1171  -18.9080 C   0  0  0  0  0  0  0  0  0  0  0  0
   -6.2141   -0.5883  -17.8543 N   0  0  0  0  0  0  0  0  0  0  0  0
   -5.2040    0.2066  -18.1036 C   0  0  0  0  0  0  0  0  0  0  0  0
   -4.7506    0.5334  -19.4152 C   0  0  0  0  0  0  0  0  0  0  0  0
   -3.6263    1.3676  -19.6521 C   0  0  0  0  0  0  0  0  0  0  0  0
   -3.2197    1.6294  -20.9328 C   0  0  0  0  0  0  0  0  0  0  0  0
   -3.9122    1.0731  -22.0323 C   0  0  0  0  0  0  0  0  0  0  0  0
   -5.0050    0.2668  -21.8286 C   0  0  0  0  0  0  0  0  0  0  0  0
   -5.4541   -0.0121  -20.5109 C   0  0  0  0  0  0  0  0  0  0  0  0
   -5.5315   -0.1788  -22.6668 H   0  0  0  0  0  0  0  0  0  0  0  0
   -3.5771    1.2784  -23.0454 H   0  0  0  0  0  0  0  0  0  0  0  0
   -2.3564    2.2644  -21.1131 H   0  0  0  0  0  0  0  0  0  0  0  0
   -3.0987    1.7786  -18.7952 H   0  0  0  0  0  0  0  0  0  0  0  0
   -4.6817    0.6317  -17.2453 H   0  0  0  0  0  0  0  0  0  0  0  0
   -7.7127   -1.7800  -18.6580 H   0  0  0  0  0  0  0  0  0  0  0  0
   -7.5814   -2.6622  -21.5027 C   0  0  0  0  0  0  0  0  0  0  0  0
   -6.8735   -3.5287  -21.0244 O   0  0  0  0  0  0  0  0  0  0  0  0
   -8.7785   -2.8517  -22.4494 C   0  0  1  0  0  0  0  0  0  0  0  0
   -9.9878   -3.3017  -21.5905 C   0  0  0  0  0  0  0  0  0  0  0  0
  -11.1143   -3.7938  -22.3804 N   0  0  0  0  0  0  0  0  0  0  0  0
  -12.4871   -3.7640  -21.8723 C   0  0  0  0  0  0  0  0  0  0  0  0
  -13.3493   -2.6530  -22.4113 C   0  0  0  0  0  0  0  0  0  0  0  0
  -14.0207   -2.5523  -23.6421 C   0  0  0  0  0  0  0  0  0  0  0  0
  -14.7156   -1.4180  -23.6697 N   0  0  0  0  0  0  0  0  0  0  0  0
  -14.4296   -0.8756  -22.5031 N   0  0  0  0  0  0  0  0  0  0  0  0
  -13.6390   -1.5659  -21.7016 N   0  0  0  0  0  0  0  0  0  0  0  0
  -14.8953   -0.0471  -22.1535 H   0  0  0  0  0  0  0  0  0  0  0  0
  -14.0842   -3.2584  -24.4628 H   0  0  0  0  0  0  0  0  0  0  0  0
  -12.4905   -3.7182  -20.7836 H   0  0  0  0  0  0  0  0  0  0  0  0
  -12.9553   -4.6971  -22.1952 H   0  0  0  0  0  0  0  0  0  0  0  0
  -10.9360   -4.5327  -23.5174 C   0  0  0  0  0  0  0  0  0  0  0  0
  -11.8873   -5.0308  -24.1146 O   0  0  0  0  0  0  0  0  0  0  0  0
   -9.5324   -4.7090  -23.9809 C   0  0  0  0  0  0  0  0  0  0  0  0
   -9.2960   -5.7077  -24.9201 C   0  0  0  0  0  0  0  0  0  0  0  0
   -8.0303   -5.9113  -25.4304 C   0  0  0  0  0  0  0  0  0  0  0  0
   -7.0096   -5.0745  -24.9942 C   0  0  0  0  0  0  0  0  0  0  0  0
   -5.7786   -5.2442  -25.5055 F   0  0  0  0  0  0  0  0  0  0  0  0
   -7.2085   -4.0887  -24.0454 C   0  0  0  0  0  0  0  0  0  0  0  0
   -8.4924   -3.9030  -23.5052 C   0  0  0  0  0  0  0  0  0  0  0  0
   -6.3487   -3.5189  -23.7044 H   0  0  0  0  0  0  0  0  0  0  0  0
   -7.8204   -6.7043  -26.1394 H   0  0  0  0  0  0  0  0  0  0  0  0
  -10.1373   -6.3193  -25.2279 H   0  0  0  0  0  0  0  0  0  0  0  0
  -10.3051   -2.4513  -20.9774 H   0  0  0  0  0  0  0  0  0  0  0  0
   -9.6504   -4.0700  -20.8941 H   0  0  0  0  0  0  0  0  0  0  0  0
   -9.1574   -0.1582  -21.1837 H   0  0  0  0  0  0  0  0  0  0  0  0
   -7.9443    0.4334  -22.3168 H   0  0  0  0  0  0  0  0  0  0  0  0
   -8.3658   -1.3128  -23.8923 H   0  0  0  0  0  0  0  0  0  0  0  0
  -10.5037   -0.0694  -23.8586 H   0  0  0  0  0  0  0  0  0  0  0  0
  -10.8746   -1.7960  -24.0085 H   0  0  0  0  0  0  0  0  0  0  0  0
  -11.0664   -0.9730  -22.4612 H   0  0  0  0  0  0  0  0  0  0  0  0
  1  2  1  0
  2  3  1  0
  3  4  1  0
  4  5  1  0
  5  6  2  0
  6  7  1  0
  7  8  2  0
  8  9  1  0
  9 10  2  0
 10 11  1  0
 11 12  2  0
 12 13  1  0
 13 14  2  0
 13 15  1  0
 12 16  1  0
 11 17  1  0
 10 18  1  0
  8 19  1  0
  6 20  1  0
  4 21  1  0
 21 22  2  0
 21 23  1  0
 23 24  1  1
 24 25  1  0
 25 26  1  0
 26 27  1  0
 27 28  1  0
 28 29  2  0
 29 30  1  0
 30 31  1  0
 30 32  1  0
 28 33  1  0
 26 34  1  0
 26 35  1  0
 25 36  1  0
 36 37  2  0
 36 38  1  0
 38 39  2  0
 39 40  1  0
 40 41  2  0
 41 42  1  0
 41 43  1  0
 43 44  2  0
 43 45  1  0
 40 46  1  0
 39 47  1  0
 24 48  1  0
 24 49  1  0
  3 50  1  0
  3 51  1  0
  2 52  1  6
  1 53  1  0
  1 54  1  0
  1 55  1  0
 23  2  1  0
 31 27  2  0
 44 38  1  0
 14  5  1  0
 44 23  1  0
 14  9  1  0
M  END
>  <cnnaffinities>  (29) 
[6.97328]

>  <score>  (29) 
6.97328

>  <index>  (29) 
29

>  <Smiles>  (29) 
C([C@]1(C(N(c2c(nc(c3c(c(c(c(c23)[H])[H])[H])[H])[H])[H])C(=O)[C@]21C(N(C(c1c(nn(n1)[H])[H])([H])[H])C(=O)c1c(c(c(F)c(c21)[H])[H])[H])([H])[H])([H])[H])[H])([H])([H])[H]

>  <h>  (29) 
<NA>

>  <Training>  (29) 
True

>  <Success>  (29) 
True

>  <enamine_searched>  (29) 
False

>  <enamine_id>  (29) 
nan

$$$$

     RDKit          3D

 58 63  0  0  0  0  0  0  0  0999 V2000
  -10.4218   -0.9856  -23.3950 C   0  0  0  0  0  0  0  0  0  0  0  0
   -8.9925   -1.3645  -23.0078 C   0  0  1  0  0  0  0  0  0  0  0  0
   -8.4012   -0.4651  -21.9065 C   0  0  0  0  0  0  0  0  0  0  0  0
   -7.4154   -1.3169  -21.2675 N   0  0  0  0  0  0  0  0  0  0  0  0
   -6.5864   -0.8558  -20.2161 C   0  0  0  0  0  0  0  0  0  0  0  0
   -6.8866   -1.1268  -18.9060 C   0  0  0  0  0  0  0  0  0  0  0  0
   -6.2160   -0.5941  -17.8540 N   0  0  0  0  0  0  0  0  0  0  0  0
   -5.2086    0.2035  -18.1051 C   0  0  0  0  0  0  0  0  0  0  0  0
   -4.7571    0.5255  -19.4175 C   0  0  0  0  0  0  0  0  0  0  0  0
   -3.6348    1.3620  -19.6532 C   0  0  0  0  0  0  0  0  0  0  0  0
   -3.2252    1.6242  -20.9330 C   0  0  0  0  0  0  0  0  0  0  0  0
   -3.9174    1.0656  -22.0316 C   0  0  0  0  0  0  0  0  0  0  0  0
   -5.0090    0.2586  -21.8278 C   0  0  0  0  0  0  0  0  0  0  0  0
   -5.4611   -0.0224  -20.5120 C   0  0  0  0  0  0  0  0  0  0  0  0
   -5.5312   -0.1861  -22.6687 H   0  0  0  0  0  0  0  0  0  0  0  0
   -3.5822    1.2736  -23.0441 H   0  0  0  0  0  0  0  0  0  0  0  0
   -2.3652    2.2631  -21.1127 H   0  0  0  0  0  0  0  0  0  0  0  0
   -3.1103    1.7777  -18.7968 H   0  0  0  0  0  0  0  0  0  0  0  0
   -4.6878    0.6322  -17.2472 H   0  0  0  0  0  0  0  0  0  0  0  0
   -7.7119   -1.7901  -18.6521 H   0  0  0  0  0  0  0  0  0  0  0  0
   -7.6164   -2.6588  -21.4948 C   0  0  0  0  0  0  0  0  0  0  0  0
   -6.9266   -3.5364  -21.0171 O   0  0  0  0  0  0  0  0  0  0  0  0
   -8.8061   -2.8273  -22.4616 C   0  0  1  0  0  0  0  0  0  0  0  0
  -10.0451   -3.2759  -21.6390 C   0  0  0  0  0  0  0  0  0  0  0  0
  -11.1587   -3.7718  -22.4616 N   0  0  0  0  0  0  0  0  0  0  0  0
  -12.5505   -3.7488  -21.9683 C   0  0  0  0  0  0  0  0  0  0  0  0
  -13.4597   -2.7461  -22.6464 C   0  0  0  0  0  0  0  0  0  0  0  0
  -13.9239   -1.6052  -22.0605 C   0  0  0  0  0  0  0  0  0  0  0  0
  -14.7214   -0.6689  -22.8203 C   0  0  0  0  0  0  0  0  0  0  0  0
  -15.2384    0.3650  -22.4432 O   0  0  0  0  0  0  0  0  0  0  0  0
  -14.8854   -1.0736  -24.1519 N   0  0  0  0  0  0  0  0  0  0  0  0
  -14.5263   -2.2967  -24.6018 C   0  0  0  0  0  0  0  0  0  0  0  0
  -13.8542   -3.1425  -23.9068 N   0  0  0  0  0  0  0  0  0  0  0  0
  -14.8024   -2.5366  -25.6212 H   0  0  0  0  0  0  0  0  0  0  0  0
  -15.4879   -0.4762  -24.6943 H   0  0  0  0  0  0  0  0  0  0  0  0
  -13.7326   -1.3715  -21.0235 H   0  0  0  0  0  0  0  0  0  0  0  0
  -12.9847   -4.7133  -22.2445 H   0  0  0  0  0  0  0  0  0  0  0  0
  -12.5583   -3.6357  -20.8807 H   0  0  0  0  0  0  0  0  0  0  0  0
  -10.9107   -4.6387  -23.4954 C   0  0  0  0  0  0  0  0  0  0  0  0
  -11.7909   -5.3088  -24.0179 O   0  0  0  0  0  0  0  0  0  0  0  0
   -9.5037   -4.7321  -23.9759 C   0  0  0  0  0  0  0  0  0  0  0  0
   -9.2398   -5.7223  -24.9201 C   0  0  0  0  0  0  0  0  0  0  0  0
   -7.9754   -5.8879  -25.4400 C   0  0  0  0  0  0  0  0  0  0  0  0
   -6.9838   -5.0309  -24.9819 C   0  0  0  0  0  0  0  0  0  0  0  0
   -5.7470   -5.1820  -25.4790 F   0  0  0  0  0  0  0  0  0  0  0  0
   -7.2088   -4.0515  -24.0329 C   0  0  0  0  0  0  0  0  0  0  0  0
   -8.4982   -3.8821  -23.5079 C   0  0  0  0  0  0  0  0  0  0  0  0
   -6.3607   -3.4725  -23.6831 H   0  0  0  0  0  0  0  0  0  0  0  0
   -7.7439   -6.6704  -26.1553 H   0  0  0  0  0  0  0  0  0  0  0  0
  -10.0624   -6.3582  -25.2233 H   0  0  0  0  0  0  0  0  0  0  0  0
   -9.7232   -4.0450  -20.9306 H   0  0  0  0  0  0  0  0  0  0  0  0
  -10.3912   -2.4253  -21.0443 H   0  0  0  0  0  0  0  0  0  0  0  0
   -9.1657   -0.1460  -21.1795 H   0  0  0  0  0  0  0  0  0  0  0  0
   -7.9282    0.4419  -22.2964 H   0  0  0  0  0  0  0  0  0  0  0  0
   -8.3451   -1.2947  -23.8909 H   0  0  0  0  0  0  0  0  0  0  0  0
  -11.0743   -0.9647  -22.5146 H   0  0  0  0  0  0  0  0  0  0  0  0
  -10.8398   -1.7181  -24.0921 H   0  0  0  0  0  0  0  0  0  0  0  0
  -10.4628    0.0062  -23.8538 H   0  0  0  0  0  0  0  0  0  0  0  0
  1  2  1  0
  2  3  1  0
  3  4  1  0
  4  5  1  0
  5  6  2  0
  6  7  1  0
  7  8  2  0
  8  9  1  0
  9 10  2  0
 10 11  1  0
 11 12  2  0
 12 13  1  0
 13 14  2  0
 13 15  1  0
 12 16  1  0
 11 17  1  0
 10 18  1  0
  8 19  1  0
  6 20  1  0
  4 21  1  0
 21 22  2  0
 21 23  1  0
 23 24  1  1
 24 25  1  0
 25 26  1  0
 26 27  1  0
 27 28  2  0
 28 29  1  0
 29 30  2  0
 29 31  1  0
 31 32  1  0
 32 33  2  0
 32 34  1  0
 31 35  1  0
 28 36  1  0
 26 37  1  0
 26 38  1  0
 25 39  1  0
 39 40  2  0
 39 41  1  0
 41 42  2  0
 42 43  1  0
 43 44  2  0
 44 45  1  0
 44 46  1  0
 46 47  2  0
 46 48  1  0
 43 49  1  0
 42 50  1  0
 24 51  1  0
 24 52  1  0
  3 53  1  0
  3 54  1  0
  2 55  1  6
  1 56  1  0
  1 57  1  0
  1 58  1  0
 23  2  1  0
 33 27  1  0
 47 41  1  0
 14  5  1  0
 47 23  1  0
 14  9  1  0
M  END
>  <cnnaffinities>  (30) 
[6.90101]

>  <score>  (30) 
6.90101

>  <index>  (30) 
30

>  <Smiles>  (30) 
C([C@]1(C(N(c2c(nc(c3c(c(c(c(c23)[H])[H])[H])[H])[H])[H])C(=O)[C@]21C(N(C(c1c(c(=O)n(c(n1)[H])[H])[H])([H])[H])C(=O)c1c(c(c(F)c(c21)[H])[H])[H])([H])[H])([H])[H])[H])([H])([H])[H]

>  <h>  (30) 
<NA>

>  <Training>  (30) 
True

>  <Success>  (30) 
True

>  <enamine_searched>  (30) 
False

>  <enamine_id>  (30) 
nan

$$$$

     RDKit          3D

 66 71  0  0  0  0  0  0  0  0999 V2000
   -7.4690    3.2937  -21.6963 C   0  0  0  0  0  0  0  0  0  0  0  0
   -8.3550    2.8489  -22.7529 N   0  0  0  0  0  0  0  0  0  0  0  0
   -7.7999    2.2016  -23.7965 C   0  0  0  0  0  0  0  0  0  0  0  0
   -6.5860    2.1235  -23.9390 O   0  0  0  0  0  0  0  0  0  0  0  0
   -8.7582    1.5803  -24.8202 C   0  0  0  0  0  0  0  0  0  0  0  0
   -9.4613    0.4096  -24.3287 N   0  0  0  0  0  0  0  0  0  0  0  0
   -8.7247   -0.8354  -24.1922 C   0  0  0  0  0  0  0  0  0  0  0  0
   -9.0837   -1.5716  -22.8752 C   0  0  2  0  0  0  0  0  0  0  0  0
   -8.5443   -0.7708  -21.6553 C   0  0  0  0  0  0  0  0  0  0  0  0
   -9.0270    0.2269  -21.1592 O   0  0  0  0  0  0  0  0  0  0  0  0
   -7.3982   -1.3822  -21.2041 N   0  0  0  0  0  0  0  0  0  0  0  0
   -6.6051   -0.8075  -20.1771 C   0  0  0  0  0  0  0  0  0  0  0  0
   -6.9072   -1.0421  -18.8601 C   0  0  0  0  0  0  0  0  0  0  0  0
   -6.1988   -0.5474  -17.8178 N   0  0  0  0  0  0  0  0  0  0  0  0
   -5.1651    0.2094  -18.0816 C   0  0  0  0  0  0  0  0  0  0  0  0
   -4.7280    0.5320  -19.3974 C   0  0  0  0  0  0  0  0  0  0  0  0
   -3.6020    1.3668  -19.6422 C   0  0  0  0  0  0  0  0  0  0  0  0
   -3.2182    1.6609  -20.9210 C   0  0  0  0  0  0  0  0  0  0  0  0
   -3.9430    1.1335  -22.0133 C   0  0  0  0  0  0  0  0  0  0  0  0
   -5.0344    0.3248  -21.8016 C   0  0  0  0  0  0  0  0  0  0  0  0
   -5.4638    0.0025  -20.4862 C   0  0  0  0  0  0  0  0  0  0  0  0
   -5.5948   -0.0542  -22.6515 H   0  0  0  0  0  0  0  0  0  0  0  0
   -3.6557    1.3747  -23.0306 H   0  0  0  0  0  0  0  0  0  0  0  0
   -2.3675    2.3131  -21.1012 H   0  0  0  0  0  0  0  0  0  0  0  0
   -3.0708    1.7727  -18.7847 H   0  0  0  0  0  0  0  0  0  0  0  0
   -4.6171    0.6121  -17.2292 H   0  0  0  0  0  0  0  0  0  0  0  0
   -7.7563   -1.6684  -18.5982 H   0  0  0  0  0  0  0  0  0  0  0  0
   -7.0299   -2.5753  -21.9343 C   0  0  0  0  0  0  0  0  0  0  0  0
   -8.3052   -2.9224  -22.7296 C   0  0  2  0  0  0  0  0  0  0  0  0
   -7.9947   -3.7282  -24.0182 C   0  0  0  0  0  0  0  0  0  0  0  0
   -7.4779   -5.0646  -23.7795 N   0  0  0  0  0  0  0  0  0  0  0  0
   -6.1883   -5.3892  -23.5147 C   0  0  0  0  0  0  0  0  0  0  0  0
   -5.0981   -4.6011  -23.9355 C   0  0  0  0  0  0  0  0  0  0  0  0
   -3.8413   -5.0617  -23.5908 C   0  0  0  0  0  0  0  0  0  0  0  0
   -3.6404   -6.1827  -22.8822 N   0  0  0  0  0  0  0  0  0  0  0  0
   -4.7423   -6.8529  -22.5603 C   0  0  0  0  0  0  0  0  0  0  0  0
   -6.0017   -6.5417  -22.8445 N   0  0  0  0  0  0  0  0  0  0  0  0
   -4.5854   -7.7765  -21.9885 H   0  0  0  0  0  0  0  0  0  0  0  0
   -2.9409   -4.5114  -23.8921 H   0  0  0  0  0  0  0  0  0  0  0  0
   -5.2448   -3.6909  -24.5170 H   0  0  0  0  0  0  0  0  0  0  0  0
   -8.1232   -5.7906  -23.5087 H   0  0  0  0  0  0  0  0  0  0  0  0
   -7.2735   -3.1766  -24.6387 H   0  0  0  0  0  0  0  0  0  0  0  0
   -8.9097   -3.8577  -24.6059 H   0  0  0  0  0  0  0  0  0  0  0  0
   -8.9319   -3.5615  -22.1023 H   0  0  0  0  0  0  0  0  0  0  0  0
   -6.1755   -2.3809  -22.6031 H   0  0  0  0  0  0  0  0  0  0  0  0
   -6.7273   -3.3739  -21.2492 H   0  0  0  0  0  0  0  0  0  0  0  0
  -10.6003   -1.6473  -22.7884 C   0  0  0  0  0  0  0  0  0  0  0  0
  -11.2175   -2.5586  -21.9233 C   0  0  0  0  0  0  0  0  0  0  0  0
  -12.5954   -2.5967  -21.8207 C   0  0  0  0  0  0  0  0  0  0  0  0
  -13.3469   -3.7327  -20.7397 Cl  0  0  0  0  0  0  0  0  0  0  0  0
  -13.4064   -1.7314  -22.5535 C   0  0  0  0  0  0  0  0  0  0  0  0
  -12.8054   -0.7843  -23.3568 C   0  0  0  0  0  0  0  0  0  0  0  0
  -11.4154   -0.7173  -23.4531 C   0  0  0  0  0  0  0  0  0  0  0  0
  -10.8253    0.4341  -24.2162 C   0  0  0  0  0  0  0  0  0  0  0  0
  -11.5162    1.3354  -24.6653 O   0  0  0  0  0  0  0  0  0  0  0  0
  -13.3855   -0.0544  -23.9119 H   0  0  0  0  0  0  0  0  0  0  0  0
  -14.4845   -1.7958  -22.4633 H   0  0  0  0  0  0  0  0  0  0  0  0
  -10.6352   -3.2288  -21.3026 H   0  0  0  0  0  0  0  0  0  0  0  0
   -7.6622   -0.5758  -24.1947 H   0  0  0  0  0  0  0  0  0  0  0  0
   -8.9352   -1.5002  -25.0463 H   0  0  0  0  0  0  0  0  0  0  0  0
   -9.5395    2.2805  -25.1293 H   0  0  0  0  0  0  0  0  0  0  0  0
   -8.1271    1.3277  -25.6801 H   0  0  0  0  0  0  0  0  0  0  0  0
   -9.3484    2.7711  -22.5846 H   0  0  0  0  0  0  0  0  0  0  0  0
   -6.8465    2.4602  -21.3445 H   0  0  0  0  0  0  0  0  0  0  0  0
   -8.0756    3.6743  -20.8886 H   0  0  0  0  0  0  0  0  0  0  0  0
   -6.8100    4.0913  -22.0533 H   0  0  0  0  0  0  0  0  0  0  0  0
  1  2  1  0
  2  3  1  0
  3  4  2  0
  3  5  1  0
  5  6  1  0
  6  7  1  0
  8  7  1  6
  8  9  1  0
  9 10  2  0
  9 11  1  0
 11 12  1  0
 12 13  2  0
 13 14  1  0
 14 15  2  0
 15 16  1  0
 16 17  2  0
 17 18  1  0
 18 19  2  0
 19 20  1  0
 20 21  2  0
 20 22  1  0
 19 23  1  0
 18 24  1  0
 17 25  1  0
 15 26  1  0
 13 27  1  0
 11 28  1  0
 28 29  1  0
 29 30  1  0
 30 31  1  0
 31 32  1  0
 32 33  2  0
 33 34  1  0
 34 35  2  0
 35 36  1  0
 36 37  2  0
 36 38  1  0
 34 39  1  0
 33 40  1  0
 31 41  1  0
 30 42  1  0
 30 43  1  0
 29 44  1  1
 28 45  1  0
 28 46  1  0
  8 47  1  0
 47 48  2  0
 48 49  1  0
 49 50  1  0
 49 51  2  0
 51 52  1  0
 52 53  2  0
 53 54  1  0
 54 55  2  0
 52 56  1  0
 51 57  1  0
 48 58  1  0
  7 59  1  0
  7 60  1  0
  5 61  1  0
  5 62  1  0
  2 63  1  0
  1 64  1  0
  1 65  1  0
  1 66  1  0
 54  6  1  0
 29  8  1  0
 37 32  1  0
 53 47  1  0
 21 12  1  0
 21 16  1  0
M  END
>  <cnnaffinities>  (31) 
[7.09377, 6.9793]

>  <score>  (31) 
7.09377

>  <index>  (31) 
31

>  <Smiles>  (31) 
C(N(C(=O)C(N1C([C@@]2(C(=O)N(c3c(nc(c4c(c(c(c(c34)[H])[H])[H])[H])[H])[H])C([C@@]2(C(N(c2c(c(nc(n2)[H])[H])[H])[H])([H])[H])[H])([H])[H])c2c(c(Cl)c(c(c2C1=O)[H])[H])[H])([H])[H])([H])[H])[H])([H])([H])[H]

>  <h>  (31) 
<NA>

>  <Training>  (31) 
True

>  <Success>  (31) 
True

>  <enamine_searched>  (31) 
False

>  <enamine_id>  (31) 
nan

$$$$

     RDKit          3D

 57 62  0  0  0  0  0  0  0  0999 V2000
   -8.1543   -4.0552  -23.7592 C   0  0  0  0  0  0  0  0  0  0  0  0
   -8.3957   -3.1950  -22.5189 C   0  0  1  0  0  0  0  0  0  0  0  0
   -7.0983   -2.4948  -22.0739 C   0  0  0  0  0  0  0  0  0  0  0  0
   -7.5409   -1.3298  -21.3350 N   0  0  0  0  0  0  0  0  0  0  0  0
   -6.7657   -0.7716  -20.2780 C   0  0  0  0  0  0  0  0  0  0  0  0
   -7.0966   -1.0045  -18.9630 C   0  0  0  0  0  0  0  0  0  0  0  0
   -6.3669   -0.5696  -17.9050 N   0  0  0  0  0  0  0  0  0  0  0  0
   -5.2891    0.1356  -18.1356 C   0  0  0  0  0  0  0  0  0  0  0  0
   -4.8283    0.4597  -19.4431 C   0  0  0  0  0  0  0  0  0  0  0  0
   -3.6829    1.2750  -19.6592 C   0  0  0  0  0  0  0  0  0  0  0  0
   -3.2491    1.5372  -20.9301 C   0  0  0  0  0  0  0  0  0  0  0  0
   -3.9169    0.9672  -22.0372 C   0  0  0  0  0  0  0  0  0  0  0  0
   -5.0277    0.1785  -21.8501 C   0  0  0  0  0  0  0  0  0  0  0  0
   -5.5498   -0.0527  -20.5501 C   0  0  0  0  0  0  0  0  0  0  0  0
   -5.5221   -0.2664  -22.7092 H   0  0  0  0  0  0  0  0  0  0  0  0
   -3.5551    1.1453  -23.0451 H   0  0  0  0  0  0  0  0  0  0  0  0
   -2.3934    2.1852  -21.0998 H   0  0  0  0  0  0  0  0  0  0  0  0
   -3.1636    1.6855  -18.7964 H   0  0  0  0  0  0  0  0  0  0  0  0
   -4.7073    0.4748  -17.2720 H   0  0  0  0  0  0  0  0  0  0  0  0
   -7.9805   -1.5850  -18.7060 H   0  0  0  0  0  0  0  0  0  0  0  0
   -8.8742   -1.0383  -21.5612 C   0  0  0  0  0  0  0  0  0  0  0  0
   -9.4848   -0.1631  -20.9907 O   0  0  0  0  0  0  0  0  0  0  0  0
   -9.4269   -2.0246  -22.6537 C   0  0  1  0  0  0  0  0  0  0  0  0
   -9.3050   -1.3962  -24.0671 C   0  0  0  0  0  0  0  0  0  0  0  0
  -10.3249   -0.4068  -24.3768 N   0  0  0  0  0  0  0  0  0  0  0  0
   -9.8815    0.8090  -25.0459 C   0  0  0  0  0  0  0  0  0  0  0  0
   -9.0866    1.6185  -24.0711 C   0  0  0  0  0  0  0  0  0  0  0  0
   -7.7764    1.7564  -24.0363 N   0  0  0  0  0  0  0  0  0  0  0  0
   -7.5008    2.3820  -22.8727 N   0  0  0  0  0  0  0  0  0  0  0  0
   -8.5811    2.6142  -22.2150 N   0  0  0  0  0  0  0  0  0  0  0  0
   -9.5992    2.1535  -22.9540 N   0  0  0  0  0  0  0  0  0  0  0  0
  -10.9567    2.3050  -22.4510 C   0  0  0  0  0  0  0  0  0  0  0  0
  -11.0912    1.6268  -21.6057 H   0  0  0  0  0  0  0  0  0  0  0  0
  -11.6742    2.0708  -23.2438 H   0  0  0  0  0  0  0  0  0  0  0  0
  -11.0905    3.3422  -22.1261 H   0  0  0  0  0  0  0  0  0  0  0  0
  -10.7661    1.3254  -25.4276 H   0  0  0  0  0  0  0  0  0  0  0  0
   -9.2295    0.5642  -25.8885 H   0  0  0  0  0  0  0  0  0  0  0  0
  -11.6384   -0.5438  -24.0305 C   0  0  0  0  0  0  0  0  0  0  0  0
  -12.5249    0.1598  -24.5035 O   0  0  0  0  0  0  0  0  0  0  0  0
  -11.9236   -1.5856  -22.9992 C   0  0  0  0  0  0  0  0  0  0  0  0
  -13.2549   -1.7112  -22.5984 C   0  0  0  0  0  0  0  0  0  0  0  0
  -13.6083   -2.6332  -21.6371 C   0  0  0  0  0  0  0  0  0  0  0  0
  -12.6145   -3.4651  -21.1488 C   0  0  0  0  0  0  0  0  0  0  0  0
  -12.9512   -4.3107  -20.1617 F   0  0  0  0  0  0  0  0  0  0  0  0
  -11.2918   -3.3762  -21.5440 C   0  0  0  0  0  0  0  0  0  0  0  0
  -10.8968   -2.3625  -22.4256 C   0  0  0  0  0  0  0  0  0  0  0  0
  -10.5764   -4.0340  -21.0663 H   0  0  0  0  0  0  0  0  0  0  0  0
  -14.6124   -2.7644  -21.2585 H   0  0  0  0  0  0  0  0  0  0  0  0
  -13.9932   -1.0467  -23.0334 H   0  0  0  0  0  0  0  0  0  0  0  0
   -8.3260   -0.9083  -24.1494 H   0  0  0  0  0  0  0  0  0  0  0  0
   -9.3748   -2.2026  -24.8057 H   0  0  0  0  0  0  0  0  0  0  0  0
   -6.5197   -2.2157  -22.9652 H   0  0  0  0  0  0  0  0  0  0  0  0
   -6.4526   -3.1147  -21.4488 H   0  0  0  0  0  0  0  0  0  0  0  0
   -8.7221   -3.8354  -21.6947 H   0  0  0  0  0  0  0  0  0  0  0  0
   -7.4660   -4.8778  -23.5455 H   0  0  0  0  0  0  0  0  0  0  0  0
   -9.0737   -4.4837  -24.1694 H   0  0  0  0  0  0  0  0  0  0  0  0
   -7.6919   -3.4558  -24.5509 H   0  0  0  0  0  0  0  0  0  0  0  0
  1  2  1  0
  2  3  1  0
  3  4  1  0
  4  5  1  0
  5  6  2  0
  6  7  1  0
  7  8  2  0
  8  9  1  0
  9 10  2  0
 10 11  1  0
 11 12  2  0
 12 13  1  0
 13 14  2  0
 13 15  1  0
 12 16  1  0
 11 17  1  0
 10 18  1  0
  8 19  1  0
  6 20  1  0
  4 21  1  0
 21 22  2  0
 21 23  1  0
 23 24  1  6
 24 25  1  0
 25 26  1  0
 26 27  1  0
 27 28  2  0
 28 29  1  0
 29 30  2  0
 30 31  1  0
 31 32  1  0
 32 33  1  0
 32 34  1  0
 32 35  1  0
 26 36  1  0
 26 37  1  0
 25 38  1  0
 38 39  2  0
 38 40  1  0
 40 41  2  0
 41 42  1  0
 42 43  2  0
 43 44  1  0
 43 45  1  0
 45 46  2  0
 45 47  1  0
 42 48  1  0
 41 49  1  0
 24 50  1  0
 24 51  1  0
  3 52  1  0
  3 53  1  0
  2 54  1  1
  1 55  1  0
  1 56  1  0
  1 57  1  0
 23  2  1  0
 31 27  1  0
 46 40  1  0
 14  5  1  0
 46 23  1  0
 14  9  1  0
M  END
>  <cnnaffinities>  (32) 
[6.70583, 6.16253]

>  <score>  (32) 
6.70583

>  <index>  (32) 
32

>  <Smiles>  (32) 
C([C@]1(C(N(c2c(nc(c3c(c(c(c(c23)[H])[H])[H])[H])[H])[H])C(=O)[C@]21C(N(C(c1nnnn1C([H])([H])[H])([H])[H])C(=O)c1c(c(c(F)c(c21)[H])[H])[H])([H])[H])([H])[H])[H])([H])([H])[H]

>  <h>  (32) 
<NA>

>  <Training>  (32) 
True

>  <Success>  (32) 
True

>  <enamine_searched>  (32) 
False

>  <enamine_id>  (32) 
nan

$$$$

     RDKit          3D

 66 70  0  0  0  0  0  0  0  0999 V2000
   -7.4415    3.2931  -21.6890 C   0  0  0  0  0  0  0  0  0  0  0  0
   -8.3500    2.9009  -22.7431 N   0  0  0  0  0  0  0  0  0  0  0  0
   -7.8192    2.2420  -23.7967 C   0  0  0  0  0  0  0  0  0  0  0  0
   -6.6131    2.1315  -23.9457 O   0  0  0  0  0  0  0  0  0  0  0  0
   -8.7853    1.6436  -24.8117 C   0  0  0  0  0  0  0  0  0  0  0  0
   -9.4665    0.4627  -24.3242 N   0  0  0  0  0  0  0  0  0  0  0  0
   -8.7050   -0.7639  -24.1764 C   0  0  0  0  0  0  0  0  0  0  0  0
   -9.0683   -1.5191  -22.8767 C   0  0  2  0  0  0  0  0  0  0  0  0
   -8.5389   -0.7509  -21.6428 C   0  0  0  0  0  0  0  0  0  0  0  0
   -9.0181    0.2391  -21.1278 O   0  0  0  0  0  0  0  0  0  0  0  0
   -7.4019   -1.3792  -21.1974 N   0  0  0  0  0  0  0  0  0  0  0  0
   -6.6021   -0.8091  -20.1738 C   0  0  0  0  0  0  0  0  0  0  0  0
   -6.9122   -1.0404  -18.8569 C   0  0  0  0  0  0  0  0  0  0  0  0
   -6.2061   -0.5455  -17.8147 N   0  0  0  0  0  0  0  0  0  0  0  0
   -5.1700    0.2091  -18.0816 C   0  0  0  0  0  0  0  0  0  0  0  0
   -4.7343    0.5303  -19.3998 C   0  0  0  0  0  0  0  0  0  0  0  0
   -3.6077    1.3634  -19.6425 C   0  0  0  0  0  0  0  0  0  0  0  0
   -3.2209    1.6577  -20.9224 C   0  0  0  0  0  0  0  0  0  0  0  0
   -3.9456    1.1348  -22.0178 C   0  0  0  0  0  0  0  0  0  0  0  0
   -5.0395    0.3270  -21.8079 C   0  0  0  0  0  0  0  0  0  0  0  0
   -5.4661    0.0026  -20.4895 C   0  0  0  0  0  0  0  0  0  0  0  0
   -5.5984   -0.0446  -22.6619 H   0  0  0  0  0  0  0  0  0  0  0  0
   -3.6559    1.3791  -23.0350 H   0  0  0  0  0  0  0  0  0  0  0  0
   -2.3685    2.3089  -21.1000 H   0  0  0  0  0  0  0  0  0  0  0  0
   -3.0744    1.7644  -18.7848 H   0  0  0  0  0  0  0  0  0  0  0  0
   -4.6131    0.6070  -17.2330 H   0  0  0  0  0  0  0  0  0  0  0  0
   -7.7699   -1.6607  -18.6035 H   0  0  0  0  0  0  0  0  0  0  0  0
   -7.0421   -2.5683  -21.9432 C   0  0  0  0  0  0  0  0  0  0  0  0
   -8.3040   -2.8752  -22.7690 C   0  0  2  0  0  0  0  0  0  0  0  0
   -7.9721   -3.6134  -24.0738 C   0  0  0  0  0  0  0  0  0  0  0  0
   -9.1146   -3.9439  -24.8314 O   0  0  0  0  0  0  0  0  0  0  0  0
   -9.6955   -5.2129  -24.5490 C   0  0  0  0  0  0  0  0  0  0  0  0
  -11.1896   -5.0660  -24.7530 C   0  0  0  0  0  0  0  0  0  0  0  0
  -11.6929   -6.0166  -24.5534 H   0  0  0  0  0  0  0  0  0  0  0  0
  -11.5963   -4.3023  -24.0841 H   0  0  0  0  0  0  0  0  0  0  0  0
  -11.3993   -4.7585  -25.7805 H   0  0  0  0  0  0  0  0  0  0  0  0
   -9.0745   -6.3011  -25.4175 C   0  0  0  0  0  0  0  0  0  0  0  0
   -9.5085   -7.2752  -25.1824 H   0  0  0  0  0  0  0  0  0  0  0  0
   -7.9978   -6.3841  -25.2542 H   0  0  0  0  0  0  0  0  0  0  0  0
   -9.2347   -6.1127  -26.4767 H   0  0  0  0  0  0  0  0  0  0  0  0
   -9.5019   -5.4566  -23.4964 H   0  0  0  0  0  0  0  0  0  0  0  0
   -7.3948   -4.5217  -23.8468 H   0  0  0  0  0  0  0  0  0  0  0  0
   -7.3378   -2.9810  -24.7086 H   0  0  0  0  0  0  0  0  0  0  0  0
   -8.9541   -3.5319  -22.1876 H   0  0  0  0  0  0  0  0  0  0  0  0
   -6.1749   -2.3740  -22.5917 H   0  0  0  0  0  0  0  0  0  0  0  0
   -6.7698   -3.3824  -21.2629 H   0  0  0  0  0  0  0  0  0  0  0  0
  -10.5822   -1.6139  -22.8121 C   0  0  0  0  0  0  0  0  0  0  0  0
  -11.1898   -2.5300  -21.9445 C   0  0  0  0  0  0  0  0  0  0  0  0
  -12.5683   -2.5799  -21.8430 C   0  0  0  0  0  0  0  0  0  0  0  0
  -13.3071   -3.7131  -20.7418 Cl  0  0  0  0  0  0  0  0  0  0  0  0
  -13.3858   -1.7334  -22.5946 C   0  0  0  0  0  0  0  0  0  0  0  0
  -12.7982   -0.7851  -23.4105 C   0  0  0  0  0  0  0  0  0  0  0  0
  -11.4083   -0.7046  -23.4909 C   0  0  0  0  0  0  0  0  0  0  0  0
  -10.8319    0.4553  -24.2437 C   0  0  0  0  0  0  0  0  0  0  0  0
  -11.5396    1.3426  -24.7081 O   0  0  0  0  0  0  0  0  0  0  0  0
  -13.3776   -0.0617  -23.9810 H   0  0  0  0  0  0  0  0  0  0  0  0
  -14.4623   -1.8109  -22.5036 H   0  0  0  0  0  0  0  0  0  0  0  0
  -10.5929   -3.1767  -21.3111 H   0  0  0  0  0  0  0  0  0  0  0  0
   -8.9080   -1.4389  -25.0201 H   0  0  0  0  0  0  0  0  0  0  0  0
   -7.6461   -0.4896  -24.1681 H   0  0  0  0  0  0  0  0  0  0  0  0
   -9.5829    2.3409  -25.0714 H   0  0  0  0  0  0  0  0  0  0  0  0
   -8.1713    1.4044  -25.6870 H   0  0  0  0  0  0  0  0  0  0  0  0
   -9.3243    2.7833  -22.5211 H   0  0  0  0  0  0  0  0  0  0  0  0
   -6.7984    2.4540  -21.4174 H   0  0  0  0  0  0  0  0  0  0  0  0
   -6.7968    4.1021  -22.0274 H   0  0  0  0  0  0  0  0  0  0  0  0
   -8.0154    3.6021  -20.8286 H   0  0  0  0  0  0  0  0  0  0  0  0
  1  2  1  0
  2  3  1  0
  3  4  2  0
  3  5  1  0
  5  6  1  0
  6  7  1  0
  8  7  1  6
  8  9  1  0
  9 10  2  0
  9 11  1  0
 11 12  1  0
 12 13  2  0
 13 14  1  0
 14 15  2  0
 15 16  1  0
 16 17  2  0
 17 18  1  0
 18 19  2  0
 19 20  1  0
 20 21  2  0
 20 22  1  0
 19 23  1  0
 18 24  1  0
 17 25  1  0
 15 26  1  0
 13 27  1  0
 11 28  1  0
 28 29  1  0
 29 30  1  0
 30 31  1  0
 31 32  1  0
 32 33  1  0
 33 34  1  0
 33 35  1  0
 33 36  1  0
 32 37  1  0
 37 38  1  0
 37 39  1  0
 37 40  1  0
 32 41  1  0
 30 42  1  0
 30 43  1  0
 29 44  1  1
 28 45  1  0
 28 46  1  0
  8 47  1  0
 47 48  2  0
 48 49  1  0
 49 50  1  0
 49 51  2  0
 51 52  1  0
 52 53  2  0
 53 54  1  0
 54 55  2  0
 52 56  1  0
 51 57  1  0
 48 58  1  0
  7 59  1  0
  7 60  1  0
  5 61  1  0
  5 62  1  0
  2 63  1  0
  1 64  1  0
  1 65  1  0
  1 66  1  0
 54  6  1  0
 29  8  1  0
 53 47  1  0
 21 12  1  0
 21 16  1  0
M  END
>  <cnnaffinities>  (33) 
[6.48436, 6.39102, 6.3569, 6.37806, 6.61473]

>  <score>  (33) 
6.48436

>  <index>  (33) 
34

>  <Smiles>  (33) 
C(N(C(=O)C(N1C([C@@]2(C(=O)N(c3c(nc(c4c(c(c(c(c34)[H])[H])[H])[H])[H])[H])C([C@@]2(C(OC(C([H])([H])[H])(C([H])([H])[H])[H])([H])[H])[H])([H])[H])c2c(c(Cl)c(c(c2C1=O)[H])[H])[H])([H])[H])([H])[H])[H])([H])([H])[H]

>  <h>  (33) 
<NA>

>  <Training>  (33) 
True

>  <Success>  (33) 
True

>  <enamine_searched>  (33) 
False

>  <enamine_id>  (33) 
nan

$$$$

     RDKit          3D

 40 42  0  0  0  0  0  0  0  0999 V2000
   -9.1323   -1.9666  -22.6574 O   0  0  0  0  0  0  0  0  0  0  0  0
   -8.2290   -1.1763  -22.4145 C   0  0  0  0  0  0  0  0  0  0  0  0
   -6.8418   -1.6558  -21.9872 C   0  0  0  0  0  0  0  0  0  0  0  0
   -6.3136   -0.9063  -20.7772 C   0  0  0  0  0  0  0  0  0  0  0  0
   -6.9893   -0.9974  -19.5853 C   0  0  0  0  0  0  0  0  0  0  0  0
   -6.6178   -0.3991  -18.4281 N   0  0  0  0  0  0  0  0  0  0  0  0
   -5.5318    0.3349  -18.4463 C   0  0  0  0  0  0  0  0  0  0  0  0
   -4.7443    0.5584  -19.6091 C   0  0  0  0  0  0  0  0  0  0  0  0
   -3.6177    1.4275  -19.6137 C   0  0  0  0  0  0  0  0  0  0  0  0
   -2.9480    1.6903  -20.7788 C   0  0  0  0  0  0  0  0  0  0  0  0
   -3.3741    1.0939  -21.9837 C   0  0  0  0  0  0  0  0  0  0  0  0
   -4.4255    0.2073  -21.9923 C   0  0  0  0  0  0  0  0  0  0  0  0
   -5.1478   -0.0818  -20.8082 C   0  0  0  0  0  0  0  0  0  0  0  0
   -4.7268   -0.2390  -22.9378 H   0  0  0  0  0  0  0  0  0  0  0  0
   -2.8793    1.3397  -22.9198 H   0  0  0  0  0  0  0  0  0  0  0  0
   -2.1001    2.3680  -20.7908 H   0  0  0  0  0  0  0  0  0  0  0  0
   -3.3221    1.9099  -18.6849 H   0  0  0  0  0  0  0  0  0  0  0  0
   -5.2275    0.7971  -17.5071 H   0  0  0  0  0  0  0  0  0  0  0  0
   -7.8895   -1.6107  -19.5172 H   0  0  0  0  0  0  0  0  0  0  0  0
   -6.9502   -2.7199  -21.7457 H   0  0  0  0  0  0  0  0  0  0  0  0
   -6.1454   -1.6009  -22.8315 H   0  0  0  0  0  0  0  0  0  0  0  0
   -8.3264    0.1939  -22.4847 N   0  0  0  0  0  0  0  0  0  0  0  0
   -9.4832    0.8719  -21.8423 C   0  0  0  0  0  0  0  0  0  0  0  0
   -9.4655    1.0222  -22.0284 C   0  0  0  0  0  0  0  0  0  0  0  0
   -9.1613    2.7436  -23.8131 C   0  0  0  0  0  0  0  0  0  0  0  0
   -8.3786    5.4228  -23.3867 C   0  0  0  0  0  0  0  0  0  0  0  0
   -7.7969    6.0996  -24.3533 F   0  0  0  0  0  0  0  0  0  0  0  0
   -9.3527    6.1144  -22.8370 F   0  0  0  0  0  0  0  0  0  0  0  0
   -7.5016    5.0368  -22.4868 F   0  0  0  0  0  0  0  0  0  0  0  0
   -7.9179    2.2826  -23.8536 C   0  0  0  0  0  0  0  0  0  0  0  0
   -7.3737    1.0026  -23.2968 C   0  0  0  0  0  0  0  0  0  0  0  0
   -7.0097    0.3931  -24.1237 H   0  0  0  0  0  0  0  0  0  0  0  0
   -6.5200    1.2690  -22.6703 H   0  0  0  0  0  0  0  0  0  0  0  0
  -10.0071    2.1012  -23.6762 H   0  0  0  0  0  0  0  0  0  0  0  0
   -7.1403    2.9045  -24.2976 H   0  0  0  0  0  0  0  0  0  0  0  0
   -9.3084    3.8096  -23.9874 H   0  0  0  0  0  0  0  0  0  0  0  0
  -10.3459    1.8190  -21.7713 H   0  0  0  0  0  0  0  0  0  0  0  0
   -8.7144    1.8572  -21.5470 H   0  0  0  0  0  0  0  0  0  0  0  0
   -9.8129    0.0698  -20.5346 H   0  0  0  0  0  0  0  0  0  0  0  0
  -10.2676    0.5151  -22.7861 H   0  0  0  0  0  0  0  0  0  0  0  0
  1  2  2  0
  2  3  1  0
  3  4  1  0
  4  5  2  0
  5  6  1  0
  6  7  2  0
  7  8  1  0
  8  9  2  0
  9 10  1  0
 10 11  2  0
 11 12  1  0
 12 13  2  0
 12 14  1  0
 11 15  1  0
 10 16  1  0
  9 17  1  0
  7 18  1  0
  5 19  1  0
  3 20  1  0
  3 21  1  0
  2 22  1  0
 22 23  1  0
 23 24  1  0
 24 25  1  0
 25 26  1  0
 26 27  1  0
 26 28  1  0
 26 29  1  0
 25 30  1  0
 30 31  1  0
 31 32  1  0
 31 33  1  0
 30 34  1  0
 30 35  1  0
 25 36  1  0
 24 37  1  0
 24 38  1  0
 23 39  1  0
 23 40  1  0
 13  4  1  0
 31 22  1  0
 13  8  1  0
M  END
>  <cnnaffinities>  (34) 
[5.08523]

>  <score>  (34) 
5.08523

>  <index>  (34) 
35

>  <Smiles>  (34) 
O=C(C(c1c(nc(c2c(c(c(c(c12)[H])[H])[H])[H])[H])[H])([H])[H])N1C(C(C(C(F)(F)F)(C(C1([H])[H])([H])[H])[H])([H])[H])([H])[H]

>  <h>  (34) 
<NA>

>  <Training>  (34) 
True

>  <Success>  (34) 
True

>  <enamine_searched>  (34) 
False

>  <enamine_id>  (34) 
nan

$$$$

     RDKit          3D

 47 50  0  0  0  0  0  0  0  0999 V2000
   -6.0893   -3.4679  -21.2139 O   0  0  0  0  0  0  0  0  0  0  0  0
   -6.6466   -2.6601  -21.9364 C   0  0  0  0  0  0  0  0  0  0  0  0
   -7.3873   -1.4621  -21.2916 C   0  0  0  0  0  0  0  0  0  0  0  0
   -6.5771   -0.8244  -20.1823 C   0  0  0  0  0  0  0  0  0  0  0  0
   -6.8715   -1.0456  -18.8615 C   0  0  0  0  0  0  0  0  0  0  0  0
   -6.1824   -0.5376  -17.8036 N   0  0  0  0  0  0  0  0  0  0  0  0
   -5.1537    0.2248  -18.0678 C   0  0  0  0  0  0  0  0  0  0  0  0
   -4.7188    0.5364  -19.3827 C   0  0  0  0  0  0  0  0  0  0  0  0
   -3.5904    1.3597  -19.6233 C   0  0  0  0  0  0  0  0  0  0  0  0
   -3.1921    1.6374  -20.9022 C   0  0  0  0  0  0  0  0  0  0  0  0
   -3.9089    1.0964  -21.9934 C   0  0  0  0  0  0  0  0  0  0  0  0
   -5.0048    0.2966  -21.7875 C   0  0  0  0  0  0  0  0  0  0  0  0
   -5.4467   -0.0030  -20.4731 C   0  0  0  0  0  0  0  0  0  0  0  0
   -5.5374   -0.1112  -22.6425 H   0  0  0  0  0  0  0  0  0  0  0  0
   -3.5917    1.3211  -23.0063 H   0  0  0  0  0  0  0  0  0  0  0  0
   -2.3334    2.2769  -21.0883 H   0  0  0  0  0  0  0  0  0  0  0  0
   -3.0554    1.7711  -18.7706 H   0  0  0  0  0  0  0  0  0  0  0  0
   -4.6022    0.6280  -17.2155 H   0  0  0  0  0  0  0  0  0  0  0  0
   -7.7192   -1.6691  -18.5816 H   0  0  0  0  0  0  0  0  0  0  0  0
   -8.3128   -1.8621  -20.8610 H   0  0  0  0  0  0  0  0  0  0  0  0
   -7.6900   -0.7093  -22.0275 H   0  0  0  0  0  0  0  0  0  0  0  0
   -6.6110   -2.7881  -23.3140 N   0  0  0  0  0  0  0  0  0  0  0  0
   -5.5562   -3.6026  -23.9118 C   0  0  0  0  0  0  0  0  0  0  0  0
   -6.0969   -4.6259  -24.9088 C   0  0  0  0  0  0  0  0  0  0  0  0
   -7.0958   -4.0161  -25.9093 C   0  0  0  0  0  0  0  0  0  0  0  0
   -7.2808   -2.5179  -25.6783 C   0  0  0  0  0  0  0  0  0  0  0  0
   -7.5709   -2.1517  -24.2126 C   0  0  1  0  0  0  0  0  0  0  0  0
   -9.0169   -2.4572  -23.8361 C   0  0  0  0  0  0  0  0  0  0  0  0
   -9.4035   -3.7238  -23.3996 C   0  0  0  0  0  0  0  0  0  0  0  0
  -10.7323   -3.9932  -23.0904 C   0  0  0  0  0  0  0  0  0  0  0  0
  -11.7015   -3.0048  -23.2252 C   0  0  0  0  0  0  0  0  0  0  0  0
  -11.3326   -1.7453  -23.6861 C   0  0  0  0  0  0  0  0  0  0  0  0
  -10.0003   -1.4782  -23.9944 C   0  0  0  0  0  0  0  0  0  0  0  0
   -9.7322   -0.4912  -24.3657 H   0  0  0  0  0  0  0  0  0  0  0  0
  -12.0837   -0.9686  -23.8003 H   0  0  0  0  0  0  0  0  0  0  0  0
  -12.7366   -3.2200  -22.9741 H   0  0  0  0  0  0  0  0  0  0  0  0
  -11.0087   -4.9796  -22.7341 H   0  0  0  0  0  0  0  0  0  0  0  0
   -8.6599   -4.5080  -23.2919 H   0  0  0  0  0  0  0  0  0  0  0  0
   -7.4415   -1.0640  -24.1375 H   0  0  0  0  0  0  0  0  0  0  0  0
   -6.4034   -1.9663  -26.0313 H   0  0  0  0  0  0  0  0  0  0  0  0
   -8.1078   -2.1559  -26.2916 H   0  0  0  0  0  0  0  0  0  0  0  0
   -8.0675   -4.5160  -25.8217 H   0  0  0  0  0  0  0  0  0  0  0  0
   -6.7648   -4.1824  -26.9400 H   0  0  0  0  0  0  0  0  0  0  0  0
   -5.2521   -5.0744  -25.4393 H   0  0  0  0  0  0  0  0  0  0  0  0
   -6.5706   -5.4443  -24.3604 H   0  0  0  0  0  0  0  0  0  0  0  0
   -4.8307   -2.9439  -24.4102 H   0  0  0  0  0  0  0  0  0  0  0  0
   -5.0286   -4.0995  -23.1009 H   0  0  0  0  0  0  0  0  0  0  0  0
  1  2  2  0
  2  3  1  0
  3  4  1  0
  4  5  2  0
  5  6  1  0
  6  7  2  0
  7  8  1  0
  8  9  2  0
  9 10  1  0
 10 11  2  0
 11 12  1  0
 12 13  2  0
 12 14  1  0
 11 15  1  0
 10 16  1  0
  9 17  1  0
  7 18  1  0
  5 19  1  0
  3 20  1  0
  3 21  1  0
  2 22  1  0
 22 23  1  0
 23 24  1  0
 24 25  1  0
 25 26  1  0
 26 27  1  0
 27 28  1  0
 28 29  2  0
 29 30  1  0
 30 31  2  0
 31 32  1  0
 32 33  2  0
 33 34  1  0
 32 35  1  0
 31 36  1  0
 30 37  1  0
 29 38  1  0
 27 39  1  6
 26 40  1  0
 26 41  1  0
 25 42  1  0
 25 43  1  0
 24 44  1  0
 24 45  1  0
 23 46  1  0
 23 47  1  0
 13  4  1  0
 27 22  1  0
 33 28  1  0
 13  8  1  0
M  END
>  <cnnaffinities>  (35) 
[5.63719, 5.63424, 4.64607, 4.64574, 5.36256, 4.72653, 4.72576, 5.38958]

>  <score>  (35) 
5.63719

>  <index>  (35) 
36

>  <Smiles>  (35) 
O=C(C(c1c(nc(c2c(c(c(c(c12)[H])[H])[H])[H])[H])[H])([H])[H])N1C(C(C(C([C@]1(c1c(c(c(c(c1[H])[H])[H])[H])[H])[H])([H])[H])([H])[H])([H])[H])([H])[H]

>  <h>  (35) 
<NA>

>  <Training>  (35) 
True

>  <Success>  (35) 
True

>  <enamine_searched>  (35) 
False

>  <enamine_id>  (35) 
nan

$$$$

     RDKit          3D

 56 60  0  0  0  0  0  0  0  0999 V2000
  -14.4952   -1.5493  -23.7643 C   0  0  0  0  0  0  0  0  0  0  0  0
  -13.7377   -2.7010  -23.3177 N   0  0  0  0  0  0  0  0  0  0  0  0
  -13.3274   -2.7251  -22.0266 C   0  0  0  0  0  0  0  0  0  0  0  0
  -13.6429   -1.8671  -21.2167 O   0  0  0  0  0  0  0  0  0  0  0  0
  -12.4528   -3.9175  -21.6855 C   0  0  0  0  0  0  0  0  0  0  0  0
  -11.1212   -3.8667  -22.2593 N   0  0  0  0  0  0  0  0  0  0  0  0
  -10.0026   -3.3615  -21.4727 C   0  0  0  0  0  0  0  0  0  0  0  0
   -8.8024   -2.9118  -22.3450 C   0  0  2  0  0  0  0  0  0  0  0  0
   -7.5672   -2.6980  -21.4527 C   0  0  0  0  0  0  0  0  0  0  0  0
   -6.8244   -3.5573  -21.0235 O   0  0  0  0  0  0  0  0  0  0  0  0
   -7.4053   -1.3463  -21.2336 N   0  0  0  0  0  0  0  0  0  0  0  0
   -6.5817   -0.8507  -20.1948 C   0  0  0  0  0  0  0  0  0  0  0  0
   -6.8891   -1.0976  -18.8811 C   0  0  0  0  0  0  0  0  0  0  0  0
   -6.2139   -0.5660  -17.8334 N   0  0  0  0  0  0  0  0  0  0  0  0
   -5.1935    0.2095  -18.0959 C   0  0  0  0  0  0  0  0  0  0  0  0
   -4.7485    0.5186  -19.4128 C   0  0  0  0  0  0  0  0  0  0  0  0
   -3.6216    1.3445  -19.6478 C   0  0  0  0  0  0  0  0  0  0  0  0
   -3.2176    1.6107  -20.9264 C   0  0  0  0  0  0  0  0  0  0  0  0
   -3.9177    1.0644  -22.0238 C   0  0  0  0  0  0  0  0  0  0  0  0
   -5.0141    0.2621  -21.8237 C   0  0  0  0  0  0  0  0  0  0  0  0
   -5.4591   -0.0227  -20.5049 C   0  0  0  0  0  0  0  0  0  0  0  0
   -5.5349   -0.1687  -22.6730 H   0  0  0  0  0  0  0  0  0  0  0  0
   -3.5883    1.2827  -23.0346 H   0  0  0  0  0  0  0  0  0  0  0  0
   -2.3632    2.2557  -21.1043 H   0  0  0  0  0  0  0  0  0  0  0  0
   -3.1008    1.7567  -18.7895 H   0  0  0  0  0  0  0  0  0  0  0  0
   -4.6534    0.6335  -17.2480 H   0  0  0  0  0  0  0  0  0  0  0  0
   -7.7302   -1.7388  -18.6264 H   0  0  0  0  0  0  0  0  0  0  0  0
   -8.3926   -0.5207  -21.9046 C   0  0  0  0  0  0  0  0  0  0  0  0
   -9.0132   -1.4729  -22.9392 C   0  0  2  0  0  0  0  0  0  0  0  0
  -10.4565   -1.1260  -23.2772 C   0  0  0  0  0  0  0  0  0  0  0  0
  -10.8787   -1.8900  -23.9347 H   0  0  0  0  0  0  0  0  0  0  0  0
  -10.5368   -0.1543  -23.7722 H   0  0  0  0  0  0  0  0  0  0  0  0
  -11.0648   -1.1013  -22.3662 H   0  0  0  0  0  0  0  0  0  0  0  0
   -8.4032   -1.4357  -23.8538 H   0  0  0  0  0  0  0  0  0  0  0  0
   -9.1509   -0.1526  -21.1943 H   0  0  0  0  0  0  0  0  0  0  0  0
   -7.9237    0.3539  -22.3710 H   0  0  0  0  0  0  0  0  0  0  0  0
   -8.5355   -3.9666  -23.3888 C   0  0  0  0  0  0  0  0  0  0  0  0
   -7.2663   -4.1140  -23.9487 C   0  0  0  0  0  0  0  0  0  0  0  0
   -7.0369   -5.0508  -24.9393 C   0  0  0  0  0  0  0  0  0  0  0  0
   -8.0584   -5.8892  -25.3769 C   0  0  0  0  0  0  0  0  0  0  0  0
   -9.3193   -5.7533  -24.8316 C   0  0  0  0  0  0  0  0  0  0  0  0
   -9.5644   -4.7727  -23.8742 C   0  0  0  0  0  0  0  0  0  0  0  0
  -10.9628   -4.5584  -23.4177 C   0  0  0  0  0  0  0  0  0  0  0  0
  -11.9339   -4.9612  -24.0593 O   0  0  0  0  0  0  0  0  0  0  0  0
  -10.1350   -6.3948  -25.1350 H   0  0  0  0  0  0  0  0  0  0  0  0
   -7.8682   -6.6276  -26.1496 H   0  0  0  0  0  0  0  0  0  0  0  0
   -6.0598   -5.1071  -25.3973 H   0  0  0  0  0  0  0  0  0  0  0  0
   -6.4493   -3.4926  -23.5963 H   0  0  0  0  0  0  0  0  0  0  0  0
  -10.3437   -2.4936  -20.8971 H   0  0  0  0  0  0  0  0  0  0  0  0
   -9.6903   -4.1531  -20.7887 H   0  0  0  0  0  0  0  0  0  0  0  0
  -12.4291   -4.0715  -20.6109 H   0  0  0  0  0  0  0  0  0  0  0  0
  -12.9358   -4.7601  -22.1749 H   0  0  0  0  0  0  0  0  0  0  0  0
  -13.4978   -3.4665  -23.9350 H   0  0  0  0  0  0  0  0  0  0  0  0
  -13.8802   -0.6410  -23.7650 H   0  0  0  0  0  0  0  0  0  0  0  0
  -15.3447   -1.3734  -23.0987 H   0  0  0  0  0  0  0  0  0  0  0  0
  -14.8638   -1.7103  -24.7779 H   0  0  0  0  0  0  0  0  0  0  0  0
  1  2  1  0
  2  3  1  0
  3  4  2  0
  3  5  1  0
  5  6  1  0
  6  7  1  0
  8  7  1  1
  8  9  1  0
  9 10  2  0
  9 11  1  0
 11 12  1  0
 12 13  2  0
 13 14  1  0
 14 15  2  0
 15 16  1  0
 16 17  2  0
 17 18  1  0
 18 19  2  0
 19 20  1  0
 20 21  2  0
 20 22  1  0
 19 23  1  0
 18 24  1  0
 17 25  1  0
 15 26  1  0
 13 27  1  0
 11 28  1  0
 28 29  1  0
 29 30  1  0
 30 31  1  0
 30 32  1  0
 30 33  1  0
 29 34  1  6
 28 35  1  0
 28 36  1  0
  8 37  1  0
 37 38  2  0
 38 39  1  0
 39 40  2  0
 40 41  1  0
 41 42  2  0
 42 43  1  0
 43 44  2  0
 41 45  1  0
 40 46  1  0
 39 47  1  0
 38 48  1  0
  7 49  1  0
  7 50  1  0
  5 51  1  0
  5 52  1  0
  2 53  1  0
  1 54  1  0
  1 55  1  0
  1 56  1  0
 43  6  1  0
 29  8  1  0
 42 37  1  0
 21 12  1  0
 21 16  1  0
M  END
>  <cnnaffinities>  (36) 
[6.51386, 6.31452]

>  <score>  (36) 
6.51386

>  <index>  (36) 
37

>  <Smiles>  (36) 
C(N(C(=O)C(N1C([C@@]2(C(=O)N(c3c(nc(c4c(c(c(c(c34)[H])[H])[H])[H])[H])[H])C([C@@]2(C([H])([H])[H])[H])([H])[H])c2c(c(c(c(c2C1=O)[H])[H])[H])[H])([H])[H])([H])[H])[H])([H])([H])[H]

>  <h>  (36) 
<NA>

>  <Training>  (36) 
True

>  <Success>  (36) 
True

>  <enamine_searched>  (36) 
False

>  <enamine_id>  (36) 
nan

$$$$

     RDKit          3D

 46 48  0  0  0  0  0  0  0  0999 V2000
   -8.0118   -4.5682  -26.4532 C   0  0  0  0  0  0  0  0  0  0  0  0
   -8.6084   -4.9228  -25.0822 C   0  0  1  0  0  0  0  0  0  0  0  0
   -7.5756   -5.5243  -24.1335 C   0  0  0  0  0  0  0  0  0  0  0  0
   -6.6089   -4.5101  -23.5245 C   0  0  1  0  0  0  0  0  0  0  0  0
   -5.4170   -4.1426  -24.4227 C   0  0  0  0  0  0  0  0  0  0  0  0
   -4.6100   -3.7198  -23.8203 H   0  0  0  0  0  0  0  0  0  0  0  0
   -5.6670   -3.4130  -25.1987 H   0  0  0  0  0  0  0  0  0  0  0  0
   -5.0366   -5.0463  -24.9143 H   0  0  0  0  0  0  0  0  0  0  0  0
   -7.3269   -3.3387  -22.9971 N   0  0  0  0  0  0  0  0  0  0  0  0
   -6.7135   -2.7161  -21.9308 C   0  0  0  0  0  0  0  0  0  0  0  0
   -5.6676   -3.1468  -21.4738 O   0  0  0  0  0  0  0  0  0  0  0  0
   -7.3962   -1.4879  -21.2919 C   0  0  0  0  0  0  0  0  0  0  0  0
   -6.5725   -0.8498  -20.2001 C   0  0  0  0  0  0  0  0  0  0  0  0
   -6.8733   -1.0586  -18.8791 C   0  0  0  0  0  0  0  0  0  0  0  0
   -6.1934   -0.5459  -17.8221 N   0  0  0  0  0  0  0  0  0  0  0  0
   -5.1610    0.2145  -18.0793 C   0  0  0  0  0  0  0  0  0  0  0  0
   -4.7203    0.5202  -19.3945 C   0  0  0  0  0  0  0  0  0  0  0  0
   -3.5948    1.3512  -19.6262 C   0  0  0  0  0  0  0  0  0  0  0  0
   -3.1930    1.6290  -20.9066 C   0  0  0  0  0  0  0  0  0  0  0  0
   -3.9018    1.0859  -21.9994 C   0  0  0  0  0  0  0  0  0  0  0  0
   -4.9950    0.2781  -21.7968 C   0  0  0  0  0  0  0  0  0  0  0  0
   -5.4386   -0.0270  -20.4840 C   0  0  0  0  0  0  0  0  0  0  0  0
   -5.5333   -0.1329  -22.6456 H   0  0  0  0  0  0  0  0  0  0  0  0
   -3.5857    1.3125  -23.0140 H   0  0  0  0  0  0  0  0  0  0  0  0
   -2.3369    2.2751  -21.0838 H   0  0  0  0  0  0  0  0  0  0  0  0
   -3.0741    1.7630  -18.7659 H   0  0  0  0  0  0  0  0  0  0  0  0
   -4.6189    0.6237  -17.2251 H   0  0  0  0  0  0  0  0  0  0  0  0
   -7.7245   -1.6769  -18.5948 H   0  0  0  0  0  0  0  0  0  0  0  0
   -7.6590   -0.7525  -22.0644 H   0  0  0  0  0  0  0  0  0  0  0  0
   -8.3527   -1.8233  -20.8659 H   0  0  0  0  0  0  0  0  0  0  0  0
   -8.4053   -2.7065  -23.7670 C   0  0  1  0  0  0  0  0  0  0  0  0
   -7.9315   -1.6629  -24.7910 C   0  0  0  0  0  0  0  0  0  0  0  0
   -7.4375   -2.0989  -25.6655 H   0  0  0  0  0  0  0  0  0  0  0  0
   -8.8015   -1.1095  -25.1634 H   0  0  0  0  0  0  0  0  0  0  0  0
   -7.2356   -0.9414  -24.3507 H   0  0  0  0  0  0  0  0  0  0  0  0
   -9.3266   -3.7647  -24.3855 C   0  0  0  0  0  0  0  0  0  0  0  0
   -9.9680   -4.1716  -23.5937 H   0  0  0  0  0  0  0  0  0  0  0  0
   -9.9803   -3.2631  -25.1107 H   0  0  0  0  0  0  0  0  0  0  0  0
   -9.0110   -2.1756  -23.0240 H   0  0  0  0  0  0  0  0  0  0  0  0
   -6.1828   -4.9784  -22.6359 H   0  0  0  0  0  0  0  0  0  0  0  0
   -8.0946   -6.0414  -23.3181 H   0  0  0  0  0  0  0  0  0  0  0  0
   -6.9894   -6.2749  -24.6754 H   0  0  0  0  0  0  0  0  0  0  0  0
   -9.3714   -5.6861  -25.2819 H   0  0  0  0  0  0  0  0  0  0  0  0
   -7.9879   -5.4469  -27.1181 H   0  0  0  0  0  0  0  0  0  0  0  0
   -8.6113   -3.7806  -26.9372 H   0  0  0  0  0  0  0  0  0  0  0  0
   -6.9941   -4.1890  -26.3809 H   0  0  0  0  0  0  0  0  0  0  0  0
  1  2  1  0
  2  3  1  0
  3  4  1  0
  4  5  1  0
  5  6  1  0
  5  7  1  0
  5  8  1  0
  4  9  1  0
  9 10  1  0
 10 11  2  0
 10 12  1  0
 12 13  1  0
 13 14  2  0
 14 15  1  0
 15 16  2  0
 16 17  1  0
 17 18  2  0
 18 19  1  0
 19 20  2  0
 20 21  1  0
 21 22  2  0
 21 23  1  0
 20 24  1  0
 19 25  1  0
 18 26  1  0
 16 27  1  0
 14 28  1  0
 12 29  1  0
 12 30  1  0
  9 31  1  0
 31 32  1  0
 32 33  1  0
 32 34  1  0
 32 35  1  0
 31 36  1  0
 36 37  1  0
 36 38  1  0
 31 39  1  1
  4 40  1  1
  3 41  1  0
  3 42  1  0
  2 43  1  6
  1 44  1  0
  1 45  1  0
  1 46  1  0
 36  2  1  0
 22 13  1  0
 22 17  1  0
M  END
>  <cnnaffinities>  (37) 
[5.33346]

>  <score>  (37) 
5.33346

>  <index>  (37) 
38

>  <Smiles>  (37) 
C([C@]1(C([C@@](C([H])([H])[H])(N(C(=O)C(c2c(nc(c3c(c(c(c(c23)[H])[H])[H])[H])[H])[H])([H])[H])[C@@](C([H])([H])[H])(C1([H])[H])[H])[H])([H])[H])[H])([H])([H])[H]

>  <h>  (37) 
<NA>

>  <Training>  (37) 
True

>  <Success>  (37) 
True

>  <enamine_searched>  (37) 
False

>  <enamine_id>  (37) 
nan

$$$$

     RDKit          3D

 40 44  0  0  0  0  0  0  0  0999 V2000
   -5.1695   -0.4459  -25.7357 C   0  0  0  0  0  0  0  0  0  0  0  0
   -6.6434   -0.3488  -25.3757 C   0  0  0  0  0  0  0  0  0  0  0  0
   -7.2410    0.7191  -25.3721 O   0  0  0  0  0  0  0  0  0  0  0  0
   -7.2808   -1.5210  -25.0853 N   0  0  0  0  0  0  0  0  0  0  0  0
   -6.6517   -2.8098  -24.7274 C   0  0  0  0  0  0  0  0  0  0  0  0
   -7.8285   -3.5188  -24.0271 C   0  0  2  0  0  0  0  0  0  0  0  0
   -9.0226   -2.9965  -24.8411 C   0  0  0  0  0  0  0  0  0  0  0  0
   -8.6708   -1.5260  -24.5547 C   0  0  1  0  0  0  0  0  0  0  0  0
   -8.5544   -1.5734  -23.0870 C   0  0  0  0  0  0  0  0  0  0  0  0
   -8.1580   -0.6217  -22.0909 C   0  0  0  0  0  0  0  0  0  0  0  0
   -8.3493    0.5659  -21.9949 O   0  0  0  0  0  1  0  0  0  0  0  0
   -7.3907   -1.3987  -21.1856 N   0  0  0  0  0  0  0  0  0  0  0  0
   -6.5765   -0.8289  -20.1726 C   0  0  0  0  0  0  0  0  0  0  0  0
   -6.8877   -1.0572  -18.8585 C   0  0  0  0  0  0  0  0  0  0  0  0
   -6.1907   -0.5397  -17.8191 N   0  0  0  0  0  0  0  0  0  0  0  0
   -5.1616    0.2188  -18.0862 C   0  0  0  0  0  0  0  0  0  0  0  0
   -4.7203    0.5301  -19.4013 C   0  0  0  0  0  0  0  0  0  0  0  0
   -3.5868    1.3547  -19.6348 C   0  0  0  0  0  0  0  0  0  0  0  0
   -3.1756    1.6248  -20.9107 C   0  0  0  0  0  0  0  0  0  0  0  0
   -3.8802    1.0686  -22.0042 C   0  0  0  0  0  0  0  0  0  0  0  0
   -4.9747    0.2667  -21.8047 C   0  0  0  0  0  0  0  0  0  0  0  0
   -5.4410   -0.0136  -20.4895 C   0  0  0  0  0  0  0  0  0  0  0  0
   -5.4957   -0.1486  -22.6653 H   0  0  0  0  0  0  0  0  0  0  0  0
   -3.5601    1.2881  -23.0183 H   0  0  0  0  0  0  0  0  0  0  0  0
   -2.3196    2.2689  -21.0930 H   0  0  0  0  0  0  0  0  0  0  0  0
   -3.0678    1.7673  -18.7737 H   0  0  0  0  0  0  0  0  0  0  0  0
   -4.6198    0.6226  -17.2300 H   0  0  0  0  0  0  0  0  0  0  0  0
   -7.7366   -1.6800  -18.5945 H   0  0  0  0  0  0  0  0  0  0  0  0
   -7.2467   -2.7215  -21.6277 C   0  0  0  0  0  0  0  0  0  0  0  0
   -6.5220   -3.5653  -21.1624 O   0  0  0  0  0  0  0  0  0  0  0  0
   -8.0673   -2.8079  -22.7489 N   0  0  0  0  0  0  0  0  0  0  0  0
   -9.2595   -0.7142  -24.9837 H   0  0  0  0  0  0  0  0  0  0  0  0
   -8.9648   -3.2414  -25.9064 H   0  0  0  0  0  0  0  0  0  0  0  0
   -9.9842   -3.3014  -24.4296 H   0  0  0  0  0  0  0  0  0  0  0  0
   -7.7192   -4.5859  -23.8799 H   0  0  0  0  0  0  0  0  0  0  0  0
   -5.8046   -2.7076  -24.0364 H   0  0  0  0  0  0  0  0  0  0  0  0
   -6.3311   -3.3495  -25.6224 H   0  0  0  0  0  0  0  0  0  0  0  0
   -4.9798   -1.1841  -26.5242 H   0  0  0  0  0  0  0  0  0  0  0  0
   -4.8805    0.5475  -26.0785 H   0  0  0  0  0  0  0  0  0  0  0  0
   -4.5386   -0.7254  -24.8809 H   0  0  0  0  0  0  0  0  0  0  0  0
  1  2  1  0
  2  3  2  0
  2  4  1  0
  4  5  1  0
  5  6  1  0
  6  7  1  0
  7  8  1  0
  8  9  1  0
  9 10  2  0
 10 11  1  0
 10 12  1  0
 12 13  1  0
 13 14  2  0
 14 15  1  0
 15 16  2  0
 16 17  1  0
 17 18  2  0
 18 19  1  0
 19 20  2  0
 20 21  1  0
 21 22  2  0
 21 23  1  0
 20 24  1  0
 19 25  1  0
 18 26  1  0
 16 27  1  0
 14 28  1  0
 12 29  1  0
 29 30  2  0
 29 31  1  0
  8 32  1  1
  7 33  1  0
  7 34  1  0
  6 35  1  1
  5 36  1  0
  5 37  1  0
  1 38  1  0
  1 39  1  0
  1 40  1  0
  8  4  1  0
 31  9  1  0
 31  6  1  0
 22 13  1  0
 22 17  1  0
M  CHG  1  11  -1
M  END
>  <cnnaffinities>  (38) 
[5.38964, 5.41963, 5.22645, 5.19803]

>  <score>  (38) 
5.38964

>  <index>  (38) 
39

>  <Smiles>  (38) 
C(C(=O)N1C([C@@]2(C([C@]1(c1c([O-])n(c3c(nc(c4c(c(c(c(c34)[H])[H])[H])[H])[H])[H])c(=O)n21)[H])([H])[H])[H])([H])[H])([H])([H])[H]

>  <h>  (38) 
<NA>

>  <Training>  (38) 
True

>  <Success>  (38) 
True

>  <enamine_searched>  (38) 
False

>  <enamine_id>  (38) 
nan

$$$$

     RDKit          3D

 40 42  0  0  0  0  0  0  0  0999 V2000
   -9.3054   -6.6306  -25.1071 C   0  0  0  0  0  0  0  0  0  0  0  0
   -8.9977   -5.8131  -23.8550 C   0  0  0  0  0  0  0  0  0  0  0  0
   -7.5561   -5.9903  -23.4027 C   0  0  0  0  0  0  0  0  0  0  0  0
   -7.2581   -5.1700  -22.1601 C   0  0  0  0  0  0  0  0  0  0  0  0
   -7.6217   -3.7628  -22.3161 N   0  0  0  0  0  0  0  0  0  0  0  0
   -6.7874   -2.8025  -21.7708 C   0  0  0  0  0  0  0  0  0  0  0  0
   -5.5891   -2.9898  -21.6702 O   0  0  0  0  0  0  0  0  0  0  0  0
   -7.4208   -1.4844  -21.2564 C   0  0  0  0  0  0  0  0  0  0  0  0
   -6.5812   -0.8260  -20.1829 C   0  0  0  0  0  0  0  0  0  0  0  0
   -6.8728   -1.0418  -18.8625 C   0  0  0  0  0  0  0  0  0  0  0  0
   -6.1825   -0.5387  -17.8076 N   0  0  0  0  0  0  0  0  0  0  0  0
   -5.1531    0.2240  -18.0703 C   0  0  0  0  0  0  0  0  0  0  0  0
   -4.7188    0.5330  -19.3843 C   0  0  0  0  0  0  0  0  0  0  0  0
   -3.5905    1.3588  -19.6215 C   0  0  0  0  0  0  0  0  0  0  0  0
   -3.1876    1.6342  -20.8998 C   0  0  0  0  0  0  0  0  0  0  0  0
   -3.8997    1.0890  -21.9913 C   0  0  0  0  0  0  0  0  0  0  0  0
   -4.9957    0.2875  -21.7862 C   0  0  0  0  0  0  0  0  0  0  0  0
   -5.4445   -0.0105  -20.4749 C   0  0  0  0  0  0  0  0  0  0  0  0
   -5.5163   -0.1419  -22.6358 H   0  0  0  0  0  0  0  0  0  0  0  0
   -3.5759    1.3068  -23.0049 H   0  0  0  0  0  0  0  0  0  0  0  0
   -2.3275    2.2737  -21.0834 H   0  0  0  0  0  0  0  0  0  0  0  0
   -3.0584    1.7722  -18.7676 H   0  0  0  0  0  0  0  0  0  0  0  0
   -4.6038    0.6272  -17.2165 H   0  0  0  0  0  0  0  0  0  0  0  0
   -7.7178   -1.6678  -18.5798 H   0  0  0  0  0  0  0  0  0  0  0  0
   -7.5634   -0.7947  -22.0995 H   0  0  0  0  0  0  0  0  0  0  0  0
   -8.4235   -1.6906  -20.8505 H   0  0  0  0  0  0  0  0  0  0  0  0
   -8.9717   -3.5137  -22.7992 C   0  0  0  0  0  0  0  0  0  0  0  0
   -9.2775   -4.3311  -24.0517 C   0  0  0  0  0  0  0  0  0  0  0  0
  -10.3247   -4.1829  -24.3331 H   0  0  0  0  0  0  0  0  0  0  0  0
   -8.6801   -3.9639  -24.8919 H   0  0  0  0  0  0  0  0  0  0  0  0
   -9.0718   -2.4529  -23.0288 H   0  0  0  0  0  0  0  0  0  0  0  0
   -9.7176   -3.7530  -22.0250 H   0  0  0  0  0  0  0  0  0  0  0  0
   -7.8198   -5.6252  -21.3340 H   0  0  0  0  0  0  0  0  0  0  0  0
   -6.2025   -5.2155  -21.8970 H   0  0  0  0  0  0  0  0  0  0  0  0
   -6.8809   -5.6979  -24.2102 H   0  0  0  0  0  0  0  0  0  0  0  0
   -7.3602   -7.0493  -23.1962 H   0  0  0  0  0  0  0  0  0  0  0  0
   -9.6422   -6.1609  -23.0445 H   0  0  0  0  0  0  0  0  0  0  0  0
   -9.1211   -7.7008  -24.9485 H   0  0  0  0  0  0  0  0  0  0  0  0
  -10.3491   -6.5112  -25.4235 H   0  0  0  0  0  0  0  0  0  0  0  0
   -8.6689   -6.3070  -25.9400 H   0  0  0  0  0  0  0  0  0  0  0  0
  1  2  1  0
  2  3  1  0
  3  4  1  0
  4  5  1  0
  5  6  1  0
  6  7  2  0
  6  8  1  0
  8  9  1  0
  9 10  2  0
 10 11  1  0
 11 12  2  0
 12 13  1  0
 13 14  2  0
 14 15  1  0
 15 16  2  0
 16 17  1  0
 17 18  2  0
 17 19  1  0
 16 20  1  0
 15 21  1  0
 14 22  1  0
 12 23  1  0
 10 24  1  0
  8 25  1  0
  8 26  1  0
  5 27  1  0
 27 28  1  0
 28 29  1  0
 28 30  1  0
 27 31  1  0
 27 32  1  0
  4 33  1  0
  4 34  1  0
  3 35  1  0
  3 36  1  0
  2 37  1  0
  1 38  1  0
  1 39  1  0
  1 40  1  0
 28  2  1  0
 18  9  1  0
 18 13  1  0
M  END
>  <cnnaffinities>  (39) 
[4.57304, 4.57246]

>  <score>  (39) 
4.57304

>  <index>  (39) 
40

>  <Smiles>  (39) 
C(C1(C(C(N(C(=O)C(c2c(nc(c3c(c(c(c(c23)[H])[H])[H])[H])[H])[H])([H])[H])C(C1([H])[H])([H])[H])([H])[H])([H])[H])[H])([H])([H])[H]

>  <h>  (39) 
<NA>

>  <Training>  (39) 
True

>  <Success>  (39) 
True

>  <enamine_searched>  (39) 
False

>  <enamine_id>  (39) 
nan

$$$$

     RDKit          3D

 67 71  0  0  0  0  0  0  0  0999 V2000
   -7.5899    2.9358  -21.7949 C   0  0  0  0  0  0  0  0  0  0  0  0
   -8.7242    2.4727  -22.5915 N   0  0  0  0  0  0  0  0  0  0  0  0
   -8.4634    1.7235  -23.7009 C   0  0  0  0  0  0  0  0  0  0  0  0
   -7.3167    1.4822  -24.0556 O   0  0  0  0  0  0  0  0  0  0  0  0
   -9.6724    1.1771  -24.4789 C   0  0  0  0  0  0  0  0  0  0  0  0
  -10.1264   -0.0704  -23.8962 N   0  0  0  0  0  0  0  0  0  0  0  0
   -9.2434   -1.2286  -23.8927 C   0  0  0  0  0  0  0  0  0  0  0  0
   -9.3111   -1.9697  -22.5262 C   0  0  2  0  0  0  0  0  0  0  0  0
   -8.7096   -1.0304  -21.4398 C   0  0  0  0  0  0  0  0  0  0  0  0
   -9.2379   -0.0608  -20.9330 O   0  0  0  0  0  0  0  0  0  0  0  0
   -7.4140   -1.4366  -21.1779 N   0  0  0  0  0  0  0  0  0  0  0  0
   -6.6253   -0.8322  -20.1671 C   0  0  0  0  0  0  0  0  0  0  0  0
   -6.9369   -1.0398  -18.8441 C   0  0  0  0  0  0  0  0  0  0  0  0
   -6.2218   -0.5425  -17.8104 N   0  0  0  0  0  0  0  0  0  0  0  0
   -5.1780    0.1949  -18.0902 C   0  0  0  0  0  0  0  0  0  0  0  0
   -4.7451    0.4966  -19.4111 C   0  0  0  0  0  0  0  0  0  0  0  0
   -3.6283    1.3387  -19.6542 C   0  0  0  0  0  0  0  0  0  0  0  0
   -3.2550    1.6408  -20.9351 C   0  0  0  0  0  0  0  0  0  0  0  0
   -3.9838    1.1206  -22.0265 C   0  0  0  0  0  0  0  0  0  0  0  0
   -5.0773    0.3072  -21.8158 C   0  0  0  0  0  0  0  0  0  0  0  0
   -5.4836   -0.0346  -20.4957 C   0  0  0  0  0  0  0  0  0  0  0  0
   -5.6762   -0.0069  -22.6655 H   0  0  0  0  0  0  0  0  0  0  0  0
   -3.6972    1.3790  -23.0409 H   0  0  0  0  0  0  0  0  0  0  0  0
   -2.4107    2.3000  -21.1176 H   0  0  0  0  0  0  0  0  0  0  0  0
   -3.0973    1.7460  -18.7983 H   0  0  0  0  0  0  0  0  0  0  0  0
   -4.6172    0.6014  -17.2482 H   0  0  0  0  0  0  0  0  0  0  0  0
   -7.7976   -1.6505  -18.5829 H   0  0  0  0  0  0  0  0  0  0  0  0
   -6.9821   -2.5704  -21.9702 C   0  0  0  0  0  0  0  0  0  0  0  0
   -8.3203   -3.1684  -22.4477 C   0  0  2  0  0  0  0  0  0  0  0  0
   -8.2153   -3.9744  -23.7391 C   0  0  0  0  0  0  0  0  0  0  0  0
   -7.2716   -5.4746  -23.5245 S   0  0  0  0  0  0  0  0  0  0  0  0
   -5.8688   -5.1116  -23.3747 O   0  0  0  0  0  0  0  0  0  0  0  0
   -7.9527   -6.2927  -22.5280 O   0  0  0  0  0  0  0  0  0  0  0  0
   -7.4308   -6.2336  -24.9894 N   0  0  0  0  0  0  0  0  0  0  0  0
   -8.6752   -6.9450  -25.2489 C   0  0  0  0  0  0  0  0  0  0  0  0
   -9.5096   -6.2902  -25.5432 H   0  0  0  0  0  0  0  0  0  0  0  0
   -8.5037   -7.6560  -26.0615 H   0  0  0  0  0  0  0  0  0  0  0  0
   -8.9555   -7.5053  -24.3547 H   0  0  0  0  0  0  0  0  0  0  0  0
   -6.7495   -5.6437  -26.1344 C   0  0  0  0  0  0  0  0  0  0  0  0
   -7.2877   -4.7940  -26.5825 H   0  0  0  0  0  0  0  0  0  0  0  0
   -6.6427   -6.4123  -26.9047 H   0  0  0  0  0  0  0  0  0  0  0  0
   -5.7495   -5.3207  -25.8358 H   0  0  0  0  0  0  0  0  0  0  0  0
   -9.2171   -4.2606  -24.0784 H   0  0  0  0  0  0  0  0  0  0  0  0
   -7.7193   -3.3860  -24.5207 H   0  0  0  0  0  0  0  0  0  0  0  0
   -8.6567   -3.8340  -21.6458 H   0  0  0  0  0  0  0  0  0  0  0  0
   -6.3502   -2.2566  -22.8149 H   0  0  0  0  0  0  0  0  0  0  0  0
   -6.3991   -3.2854  -21.3833 H   0  0  0  0  0  0  0  0  0  0  0  0
  -10.7850   -2.2912  -22.2861 C   0  0  0  0  0  0  0  0  0  0  0  0
  -11.2314   -3.4154  -21.5725 C   0  0  0  0  0  0  0  0  0  0  0  0
  -12.5583   -3.4817  -21.1766 C   0  0  0  0  0  0  0  0  0  0  0  0
  -12.9487   -4.3669  -20.2453 F   0  0  0  0  0  0  0  0  0  0  0  0
  -13.5276   -2.5976  -21.6181 C   0  0  0  0  0  0  0  0  0  0  0  0
  -13.1182   -1.5615  -22.4207 C   0  0  0  0  0  0  0  0  0  0  0  0
  -11.7679   -1.3818  -22.7108 C   0  0  0  0  0  0  0  0  0  0  0  0
  -11.4204   -0.1470  -23.4711 C   0  0  0  0  0  0  0  0  0  0  0  0
  -12.2429    0.7320  -23.6856 O   0  0  0  0  0  0  0  0  0  0  0  0
  -13.8295   -0.8608  -22.8352 H   0  0  0  0  0  0  0  0  0  0  0  0
  -14.5556   -2.7225  -21.2992 H   0  0  0  0  0  0  0  0  0  0  0  0
  -10.5591   -4.1852  -21.2131 H   0  0  0  0  0  0  0  0  0  0  0  0
   -9.5244   -1.9161  -24.7061 H   0  0  0  0  0  0  0  0  0  0  0  0
   -8.2287   -0.8668  -24.0812 H   0  0  0  0  0  0  0  0  0  0  0  0
   -9.3823    1.0269  -25.5273 H   0  0  0  0  0  0  0  0  0  0  0  0
  -10.5297    1.8591  -24.4707 H   0  0  0  0  0  0  0  0  0  0  0  0
   -9.6030    2.3298  -22.1069 H   0  0  0  0  0  0  0  0  0  0  0  0
   -7.9599    3.3510  -20.8593 H   0  0  0  0  0  0  0  0  0  0  0  0
   -6.9117    2.1052  -21.5609 H   0  0  0  0  0  0  0  0  0  0  0  0
   -7.0313    3.7255  -22.3149 H   0  0  0  0  0  0  0  0  0  0  0  0
  1  2  1  0
  2  3  1  0
  3  4  2  0
  3  5  1  0
  5  6  1  0
  6  7  1  0
  8  7  1  6
  8  9  1  0
  9 10  2  0
  9 11  1  0
 11 12  1  0
 12 13  2  0
 13 14  1  0
 14 15  2  0
 15 16  1  0
 16 17  2  0
 17 18  1  0
 18 19  2  0
 19 20  1  0
 20 21  2  0
 20 22  1  0
 19 23  1  0
 18 24  1  0
 17 25  1  0
 15 26  1  0
 13 27  1  0
 11 28  1  0
 28 29  1  0
 29 30  1  0
 30 31  1  0
 31 32  2  0
 31 33  2  0
 31 34  1  0
 34 35  1  0
 35 36  1  0
 35 37  1  0
 35 38  1  0
 34 39  1  0
 39 40  1  0
 39 41  1  0
 39 42  1  0
 30 43  1  0
 30 44  1  0
 29 45  1  1
 28 46  1  0
 28 47  1  0
  8 48  1  0
 48 49  2  0
 49 50  1  0
 50 51  1  0
 50 52  2  0
 52 53  1  0
 53 54  2  0
 54 55  1  0
 55 56  2  0
 53 57  1  0
 52 58  1  0
 49 59  1  0
  7 60  1  0
  7 61  1  0
  5 62  1  0
  5 63  1  0
  2 64  1  0
  1 65  1  0
  1 66  1  0
  1 67  1  0
 55  6  1  0
 29  8  1  0
 54 48  1  0
 21 12  1  0
 21 16  1  0
M  END
>  <cnnaffinities>  (40) 
[7.08753, 6.74429]

>  <score>  (40) 
7.08753

>  <index>  (40) 
41

>  <Smiles>  (40) 
C(N(C(=O)C(N1C([C@@]2(C(=O)N(c3c(nc(c4c(c(c(c(c34)[H])[H])[H])[H])[H])[H])C([C@@]2(C(S(=O)(=O)N(C([H])([H])[H])C([H])([H])[H])([H])[H])[H])([H])[H])c2c(c(F)c(c(c2C1=O)[H])[H])[H])([H])[H])([H])[H])[H])([H])([H])[H]

>  <h>  (40) 
<NA>

>  <Training>  (40) 
True

>  <Success>  (40) 
True

>  <enamine_searched>  (40) 
False

>  <enamine_id>  (40) 
nan

$$$$

     RDKit          3D

 67 72  0  0  0  0  0  0  0  0999 V2000
   -7.4050    3.3584  -21.7429 C   0  0  0  0  0  0  0  0  0  0  0  0
   -8.2487    2.9043  -22.8316 N   0  0  0  0  0  0  0  0  0  0  0  0
   -7.6795    2.2469  -23.8632 C   0  0  0  0  0  0  0  0  0  0  0  0
   -6.4649    2.1507  -23.9896 O   0  0  0  0  0  0  0  0  0  0  0  0
   -8.6380    1.6381  -24.8958 C   0  0  0  0  0  0  0  0  0  0  0  0
   -9.3631    0.4798  -24.4027 N   0  0  0  0  0  0  0  0  0  0  0  0
   -8.6427   -0.7717  -24.2478 C   0  0  0  0  0  0  0  0  0  0  0  0
   -9.0341   -1.5044  -22.9377 C   0  0  2  0  0  0  0  0  0  0  0  0
   -8.4961   -0.7228  -21.7091 C   0  0  0  0  0  0  0  0  0  0  0  0
   -8.9430    0.3041  -21.2409 O   0  0  0  0  0  0  0  0  0  0  0  0
   -7.3993   -1.3859  -21.2060 N   0  0  0  0  0  0  0  0  0  0  0  0
   -6.6022   -0.8107  -20.1784 C   0  0  0  0  0  0  0  0  0  0  0  0
   -6.9063   -1.0419  -18.8615 C   0  0  0  0  0  0  0  0  0  0  0  0
   -6.1995   -0.5465  -17.8181 N   0  0  0  0  0  0  0  0  0  0  0  0
   -5.1649    0.2096  -18.0813 C   0  0  0  0  0  0  0  0  0  0  0  0
   -4.7282    0.5329  -19.3967 C   0  0  0  0  0  0  0  0  0  0  0  0
   -3.6009    1.3657  -19.6413 C   0  0  0  0  0  0  0  0  0  0  0  0
   -3.2150    1.6559  -20.9209 C   0  0  0  0  0  0  0  0  0  0  0  0
   -3.9382    1.1263  -22.0131 C   0  0  0  0  0  0  0  0  0  0  0  0
   -5.0311    0.3198  -21.8016 C   0  0  0  0  0  0  0  0  0  0  0  0
   -5.4635    0.0033  -20.4858 C   0  0  0  0  0  0  0  0  0  0  0  0
   -5.5871   -0.0686  -22.6509 H   0  0  0  0  0  0  0  0  0  0  0  0
   -3.6488    1.3656  -23.0304 H   0  0  0  0  0  0  0  0  0  0  0  0
   -2.3627    2.3066  -21.1014 H   0  0  0  0  0  0  0  0  0  0  0  0
   -3.0696    1.7726  -18.7845 H   0  0  0  0  0  0  0  0  0  0  0  0
   -4.6170    0.6123  -17.2290 H   0  0  0  0  0  0  0  0  0  0  0  0
   -7.7576   -1.6667  -18.6014 H   0  0  0  0  0  0  0  0  0  0  0  0
   -7.0437   -2.5884  -21.9299 C   0  0  0  0  0  0  0  0  0  0  0  0
   -8.2893   -2.8716  -22.7936 C   0  0  2  0  0  0  0  0  0  0  0  0
   -7.9208   -3.6301  -24.0892 C   0  0  0  0  0  0  0  0  0  0  0  0
   -7.3802   -4.9377  -23.8032 N   0  0  0  0  0  0  0  0  0  0  0  0
   -6.0600   -5.2838  -23.8090 C   0  0  0  0  0  0  0  0  0  0  0  0
   -4.8011   -4.2318  -24.4222 S   0  0  0  0  0  0  0  0  0  0  0  0
   -3.6510   -5.4716  -23.9953 C   0  0  0  0  0  0  0  0  0  0  0  0
   -4.1440   -6.5384  -23.4690 N   0  0  0  0  0  0  0  0  0  0  0  0
   -5.5212   -6.4586  -23.3632 C   0  0  0  0  0  0  0  0  0  0  0  0
   -6.3048   -7.6039  -22.7840 C   0  0  0  0  0  0  0  0  0  0  0  0
   -7.0267   -8.0122  -23.5048 H   0  0  0  0  0  0  0  0  0  0  0  0
   -6.8640   -7.3001  -21.8884 H   0  0  0  0  0  0  0  0  0  0  0  0
   -5.6178   -8.4063  -22.5002 H   0  0  0  0  0  0  0  0  0  0  0  0
   -2.5925   -5.3133  -24.1812 H   0  0  0  0  0  0  0  0  0  0  0  0
   -8.0166   -5.6605  -23.5034 H   0  0  0  0  0  0  0  0  0  0  0  0
   -8.8147   -3.7740  -24.7055 H   0  0  0  0  0  0  0  0  0  0  0  0
   -7.1780   -3.0696  -24.6756 H   0  0  0  0  0  0  0  0  0  0  0  0
   -8.9560   -3.5248  -22.2215 H   0  0  0  0  0  0  0  0  0  0  0  0
   -6.1495   -2.4322  -22.5529 H   0  0  0  0  0  0  0  0  0  0  0  0
   -6.8134   -3.4116  -21.2427 H   0  0  0  0  0  0  0  0  0  0  0  0
  -10.5533   -1.5504  -22.8642 C   0  0  0  0  0  0  0  0  0  0  0  0
  -11.1908   -2.4316  -21.9817 C   0  0  0  0  0  0  0  0  0  0  0  0
  -12.5708   -2.4539  -21.8970 C   0  0  0  0  0  0  0  0  0  0  0  0
  -13.3469   -3.5642  -20.8049 Cl  0  0  0  0  0  0  0  0  0  0  0  0
  -13.3611   -1.5943  -22.6593 C   0  0  0  0  0  0  0  0  0  0  0  0
  -12.7392   -0.6703  -23.4741 C   0  0  0  0  0  0  0  0  0  0  0  0
  -11.3472   -0.6215  -23.5545 C   0  0  0  0  0  0  0  0  0  0  0  0
  -10.7306    0.5137  -24.3223 C   0  0  0  0  0  0  0  0  0  0  0  0
  -11.4055    1.4131  -24.7988 O   0  0  0  0  0  0  0  0  0  0  0  0
  -13.3045    0.0559  -24.0488 H   0  0  0  0  0  0  0  0  0  0  0  0
  -14.4409   -1.6412  -22.5814 H   0  0  0  0  0  0  0  0  0  0  0  0
  -10.6237   -3.0869  -21.3311 H   0  0  0  0  0  0  0  0  0  0  0  0
   -7.5760   -0.5271  -24.2270 H   0  0  0  0  0  0  0  0  0  0  0  0
   -8.8436   -1.4343  -25.1063 H   0  0  0  0  0  0  0  0  0  0  0  0
   -8.0065    1.3748  -25.7519 H   0  0  0  0  0  0  0  0  0  0  0  0
   -9.4059    2.3505  -25.2121 H   0  0  0  0  0  0  0  0  0  0  0  0
   -9.2479    2.8472  -22.6878 H   0  0  0  0  0  0  0  0  0  0  0  0
   -6.8095    2.5275  -21.3357 H   0  0  0  0  0  0  0  0  0  0  0  0
   -6.7198    4.1447  -22.0792 H   0  0  0  0  0  0  0  0  0  0  0  0
   -8.0594    3.7648  -20.9823 H   0  0  0  0  0  0  0  0  0  0  0  0
  1  2  1  0
  2  3  1  0
  3  4  2  0
  3  5  1  0
  5  6  1  0
  6  7  1  0
  8  7  1  6
  8  9  1  0
  9 10  2  0
  9 11  1  0
 11 12  1  0
 12 13  2  0
 13 14  1  0
 14 15  2  0
 15 16  1  0
 16 17  2  0
 17 18  1  0
 18 19  2  0
 19 20  1  0
 20 21  2  0
 20 22  1  0
 19 23  1  0
 18 24  1  0
 17 25  1  0
 15 26  1  0
 13 27  1  0
 11 28  1  0
 28 29  1  0
 29 30  1  0
 30 31  1  0
 31 32  1  0
 32 33  1  0
 33 34  1  0
 34 35  2  0
 35 36  1  0
 36 37  1  0
 37 38  1  0
 37 39  1  0
 37 40  1  0
 34 41  1  0
 31 42  1  0
 30 43  1  0
 30 44  1  0
 29 45  1  1
 28 46  1  0
 28 47  1  0
  8 48  1  0
 48 49  2  0
 49 50  1  0
 50 51  1  0
 50 52  2  0
 52 53  1  0
 53 54  2  0
 54 55  1  0
 55 56  2  0
 53 57  1  0
 52 58  1  0
 49 59  1  0
  7 60  1  0
  7 61  1  0
  5 62  1  0
  5 63  1  0
  2 64  1  0
  1 65  1  0
  1 66  1  0
  1 67  1  0
 55  6  1  0
 29  8  1  0
 36 32  2  0
 54 48  1  0
 21 12  1  0
 21 16  1  0
M  END
>  <cnnaffinities>  (41) 
[7.23493]

>  <score>  (41) 
7.23493

>  <index>  (41) 
43

>  <Smiles>  (41) 
C(N(C(=O)C(N1C([C@@]2(C(=O)N(c3c(nc(c4c(c(c(c(c34)[H])[H])[H])[H])[H])[H])C([C@@]2(C(N(c2sc(nc2C([H])([H])[H])[H])[H])([H])[H])[H])([H])[H])c2c(c(Cl)c(c(c2C1=O)[H])[H])[H])([H])[H])([H])[H])[H])([H])([H])[H]

>  <h>  (41) 
<NA>

>  <Training>  (41) 
True

>  <Success>  (41) 
True

>  <enamine_searched>  (41) 
False

>  <enamine_id>  (41) 
nan

$$$$

     RDKit          3D

 60 64  0  0  0  0  0  0  0  0999 V2000
  -14.9045   -2.1157  -23.9499 C   0  0  0  0  0  0  0  0  0  0  0  0
  -13.9697   -3.0437  -23.3680 N   0  0  0  0  0  0  0  0  0  0  0  0
  -13.2000   -2.7018  -22.3002 C   0  0  0  0  0  0  0  0  0  0  0  0
  -13.1428   -1.5696  -21.8400 O   0  0  0  0  0  0  0  0  0  0  0  0
  -12.3980   -3.8721  -21.7544 C   0  0  0  0  0  0  0  0  0  0  0  0
  -11.0537   -3.8975  -22.3005 N   0  0  0  0  0  0  0  0  0  0  0  0
   -9.9313   -3.3591  -21.5362 C   0  0  0  0  0  0  0  0  0  0  0  0
   -8.7453   -2.8885  -22.4110 C   0  0  2  0  0  0  0  0  0  0  0  0
   -7.5417   -2.6747  -21.4784 C   0  0  0  0  0  0  0  0  0  0  0  0
   -6.8108   -3.5247  -21.0060 O   0  0  0  0  0  0  0  0  0  0  0  0
   -7.3955   -1.3243  -21.2455 N   0  0  0  0  0  0  0  0  0  0  0  0
   -6.5779   -0.8425  -20.1987 C   0  0  0  0  0  0  0  0  0  0  0  0
   -6.8848   -1.1104  -18.8895 C   0  0  0  0  0  0  0  0  0  0  0  0
   -6.2116   -0.5796  -17.8400 N   0  0  0  0  0  0  0  0  0  0  0  0
   -5.2006    0.2104  -18.0980 C   0  0  0  0  0  0  0  0  0  0  0  0
   -4.7519    0.5325  -19.4112 C   0  0  0  0  0  0  0  0  0  0  0  0
   -3.6258    1.3606  -19.6497 C   0  0  0  0  0  0  0  0  0  0  0  0
   -3.2231    1.6221  -20.9306 C   0  0  0  0  0  0  0  0  0  0  0  0
   -3.9199    1.0680  -22.0289 C   0  0  0  0  0  0  0  0  0  0  0  0
   -5.0142    0.2643  -21.8252 C   0  0  0  0  0  0  0  0  0  0  0  0
   -5.4565   -0.0126  -20.5042 C   0  0  0  0  0  0  0  0  0  0  0  0
   -5.5414   -0.1811  -22.6646 H   0  0  0  0  0  0  0  0  0  0  0  0
   -3.5870    1.2734  -23.0417 H   0  0  0  0  0  0  0  0  0  0  0  0
   -2.3620    2.2580  -21.1131 H   0  0  0  0  0  0  0  0  0  0  0  0
   -3.0983    1.7706  -18.7939 H   0  0  0  0  0  0  0  0  0  0  0  0
   -4.6701    0.6320  -17.2442 H   0  0  0  0  0  0  0  0  0  0  0  0
   -7.7184   -1.7649  -18.6384 H   0  0  0  0  0  0  0  0  0  0  0  0
   -8.3954   -0.4969  -21.8968 C   0  0  0  0  0  0  0  0  0  0  0  0
   -8.9622   -1.4397  -22.9705 C   0  0  2  0  0  0  0  0  0  0  0  0
  -10.4013   -1.1202  -23.3342 C   0  0  0  0  0  0  0  0  0  0  0  0
  -10.5067    0.1425  -23.9486 O   0  0  0  0  0  0  0  0  0  0  0  0
  -11.8613    0.3571  -24.2774 C   0  0  0  0  0  0  0  0  0  0  0  0
  -12.4976    0.3309  -23.3793 H   0  0  0  0  0  0  0  0  0  0  0  0
  -12.2108   -0.4347  -24.9590 H   0  0  0  0  0  0  0  0  0  0  0  0
  -11.9530    1.3230  -24.7781 H   0  0  0  0  0  0  0  0  0  0  0  0
  -10.7735   -1.8966  -24.0202 H   0  0  0  0  0  0  0  0  0  0  0  0
  -11.0401   -1.1291  -22.4371 H   0  0  0  0  0  0  0  0  0  0  0  0
   -8.3475   -1.3508  -23.8745 H   0  0  0  0  0  0  0  0  0  0  0  0
   -9.1670   -0.1632  -21.1828 H   0  0  0  0  0  0  0  0  0  0  0  0
   -7.9494    0.4079  -22.3217 H   0  0  0  0  0  0  0  0  0  0  0  0
   -8.4777   -3.9355  -23.4693 C   0  0  0  0  0  0  0  0  0  0  0  0
   -7.2043   -4.0898  -24.0321 C   0  0  0  0  0  0  0  0  0  0  0  0
   -6.9947   -5.0472  -25.0102 C   0  0  0  0  0  0  0  0  0  0  0  0
   -5.4064   -5.2255  -25.7053 Cl  0  0  0  0  0  0  0  0  0  0  0  0
   -8.0195   -5.8972  -25.4276 C   0  0  0  0  0  0  0  0  0  0  0  0
   -9.2854   -5.7246  -24.9041 C   0  0  0  0  0  0  0  0  0  0  0  0
   -9.5151   -4.7418  -23.9494 C   0  0  0  0  0  0  0  0  0  0  0  0
  -10.9091   -4.5679  -23.4724 C   0  0  0  0  0  0  0  0  0  0  0  0
  -11.8812   -5.0122  -24.0888 O   0  0  0  0  0  0  0  0  0  0  0  0
  -10.1256   -6.3384  -25.2169 H   0  0  0  0  0  0  0  0  0  0  0  0
   -7.8227   -6.6799  -26.1485 H   0  0  0  0  0  0  0  0  0  0  0  0
   -6.3674   -3.4987  -23.6766 H   0  0  0  0  0  0  0  0  0  0  0  0
   -9.5639   -4.1117  -20.8414 H   0  0  0  0  0  0  0  0  0  0  0  0
  -10.2533   -2.5003  -20.9364 H   0  0  0  0  0  0  0  0  0  0  0  0
  -12.9347   -4.7570  -22.0884 H   0  0  0  0  0  0  0  0  0  0  0  0
  -12.3512   -3.8468  -20.6698 H   0  0  0  0  0  0  0  0  0  0  0  0
  -13.6720   -3.8246  -23.9344 H   0  0  0  0  0  0  0  0  0  0  0  0
  -15.4414   -1.6055  -23.1495 H   0  0  0  0  0  0  0  0  0  0  0  0
  -15.6082   -2.6656  -24.5797 H   0  0  0  0  0  0  0  0  0  0  0  0
  -14.4169   -1.3450  -24.5542 H   0  0  0  0  0  0  0  0  0  0  0  0
  1  2  1  0
  2  3  1  0
  3  4  2  0
  3  5  1  0
  5  6  1  0
  6  7  1  0
  8  7  1  1
  8  9  1  0
  9 10  2  0
  9 11  1  0
 11 12  1  0
 12 13  2  0
 13 14  1  0
 14 15  2  0
 15 16  1  0
 16 17  2  0
 17 18  1  0
 18 19  2  0
 19 20  1  0
 20 21  2  0
 20 22  1  0
 19 23  1  0
 18 24  1  0
 17 25  1  0
 15 26  1  0
 13 27  1  0
 11 28  1  0
 28 29  1  0
 29 30  1  0
 30 31  1  0
 31 32  1  0
 32 33  1  0
 32 34  1  0
 32 35  1  0
 30 36  1  0
 30 37  1  0
 29 38  1  6
 28 39  1  0
 28 40  1  0
  8 41  1  0
 41 42  2  0
 42 43  1  0
 43 44  1  0
 43 45  2  0
 45 46  1  0
 46 47  2  0
 47 48  1  0
 48 49  2  0
 46 50  1  0
 45 51  1  0
 42 52  1  0
  7 53  1  0
  7 54  1  0
  5 55  1  0
  5 56  1  0
  2 57  1  0
  1 58  1  0
  1 59  1  0
  1 60  1  0
 48  6  1  0
 29  8  1  0
 47 41  1  0
 21 12  1  0
 21 16  1  0
M  END
>  <cnnaffinities>  (42) 
[6.61828]

>  <score>  (42) 
6.61828

>  <index>  (42) 
44

>  <Smiles>  (42) 
C(N(C(=O)C(N1C([C@@]2(C(=O)N(c3c(nc(c4c(c(c(c(c34)[H])[H])[H])[H])[H])[H])C([C@@]2(C(OC([H])([H])[H])([H])[H])[H])([H])[H])c2c(c(Cl)c(c(c2C1=O)[H])[H])[H])([H])[H])([H])[H])[H])([H])([H])[H]

>  <h>  (42) 
<NA>

>  <Training>  (42) 
True

>  <Success>  (42) 
True

>  <enamine_searched>  (42) 
False

>  <enamine_id>  (42) 
nan

$$$$

     RDKit          3D

 66 71  0  0  0  0  0  0  0  0999 V2000
   -7.4395    3.3251  -21.7330 C   0  0  0  0  0  0  0  0  0  0  0  0
   -8.3068    2.8722  -22.8039 N   0  0  0  0  0  0  0  0  0  0  0  0
   -7.7446    2.2111  -23.8394 C   0  0  0  0  0  0  0  0  0  0  0  0
   -6.5304    2.1196  -23.9743 O   0  0  0  0  0  0  0  0  0  0  0  0
   -8.7007    1.5930  -24.8644 C   0  0  0  0  0  0  0  0  0  0  0  0
   -9.4197    0.4368  -24.3645 N   0  0  0  0  0  0  0  0  0  0  0  0
   -8.6945   -0.8095  -24.2068 C   0  0  0  0  0  0  0  0  0  0  0  0
   -9.0736   -1.5291  -22.8879 C   0  0  2  0  0  0  0  0  0  0  0  0
   -8.5248   -0.7421  -21.6694 C   0  0  0  0  0  0  0  0  0  0  0  0
   -8.9855    0.2714  -21.1806 O   0  0  0  0  0  0  0  0  0  0  0  0
   -7.3987   -1.3818  -21.2039 N   0  0  0  0  0  0  0  0  0  0  0  0
   -6.6016   -0.8106  -20.1756 C   0  0  0  0  0  0  0  0  0  0  0  0
   -6.9077   -1.0418  -18.8593 C   0  0  0  0  0  0  0  0  0  0  0  0
   -6.2001   -0.5465  -17.8162 N   0  0  0  0  0  0  0  0  0  0  0  0
   -5.1654    0.2088  -18.0821 C   0  0  0  0  0  0  0  0  0  0  0  0
   -4.7286    0.5321  -19.3969 C   0  0  0  0  0  0  0  0  0  0  0  0
   -3.6024    1.3659  -19.6427 C   0  0  0  0  0  0  0  0  0  0  0  0
   -3.2171    1.6576  -20.9219 C   0  0  0  0  0  0  0  0  0  0  0  0
   -3.9408    1.1284  -22.0144 C   0  0  0  0  0  0  0  0  0  0  0  0
   -5.0330    0.3205  -21.8022 C   0  0  0  0  0  0  0  0  0  0  0  0
   -5.4640    0.0020  -20.4868 C   0  0  0  0  0  0  0  0  0  0  0  0
   -5.5903   -0.0647  -22.6520 H   0  0  0  0  0  0  0  0  0  0  0  0
   -3.6522    1.3690  -23.0318 H   0  0  0  0  0  0  0  0  0  0  0  0
   -2.3660    2.3099  -21.1016 H   0  0  0  0  0  0  0  0  0  0  0  0
   -3.0716    1.7725  -18.7849 H   0  0  0  0  0  0  0  0  0  0  0  0
   -4.6167    0.6115  -17.2293 H   0  0  0  0  0  0  0  0  0  0  0  0
   -7.7592   -1.6655  -18.5988 H   0  0  0  0  0  0  0  0  0  0  0  0
   -7.0550   -2.5870  -21.9321 C   0  0  0  0  0  0  0  0  0  0  0  0
   -8.3249   -2.8941  -22.7511 C   0  0  2  0  0  0  0  0  0  0  0  0
   -8.0183   -3.6737  -24.0490 C   0  0  0  0  0  0  0  0  0  0  0  0
   -7.4766   -5.0622  -23.7778 C   0  0  0  0  0  0  0  0  0  0  0  0
   -8.3519   -6.1165  -23.5010 C   0  0  0  0  0  0  0  0  0  0  0  0
   -7.8738   -7.3921  -23.2109 C   0  0  0  0  0  0  0  0  0  0  0  0
   -6.5022   -7.6354  -23.1913 C   0  0  0  0  0  0  0  0  0  0  0  0
   -5.6173   -6.5960  -23.4689 C   0  0  0  0  0  0  0  0  0  0  0  0
   -6.1026   -5.3213  -23.7571 C   0  0  0  0  0  0  0  0  0  0  0  0
   -5.4033   -4.5119  -23.9682 H   0  0  0  0  0  0  0  0  0  0  0  0
   -4.5442   -6.7806  -23.4617 H   0  0  0  0  0  0  0  0  0  0  0  0
   -6.1236   -8.6310  -22.9648 H   0  0  0  0  0  0  0  0  0  0  0  0
   -8.5766   -8.1969  -23.0019 H   0  0  0  0  0  0  0  0  0  0  0  0
   -9.4250   -5.9264  -23.5140 H   0  0  0  0  0  0  0  0  0  0  0  0
   -8.9365   -3.7518  -24.6491 H   0  0  0  0  0  0  0  0  0  0  0  0
   -7.2899   -3.1129  -24.6511 H   0  0  0  0  0  0  0  0  0  0  0  0
   -8.9703   -3.5343  -22.1436 H   0  0  0  0  0  0  0  0  0  0  0  0
   -6.7948   -3.4018  -21.2456 H   0  0  0  0  0  0  0  0  0  0  0  0
   -6.1807   -2.4237  -22.5839 H   0  0  0  0  0  0  0  0  0  0  0  0
  -10.5903   -1.5903  -22.8102 C   0  0  0  0  0  0  0  0  0  0  0  0
  -11.2160   -2.4904  -21.9390 C   0  0  0  0  0  0  0  0  0  0  0  0
  -12.5951   -2.5172  -21.8435 C   0  0  0  0  0  0  0  0  0  0  0  0
  -13.3608   -3.6345  -20.7518 Cl  0  0  0  0  0  0  0  0  0  0  0  0
  -13.3928   -1.6537  -22.5943 C   0  0  0  0  0  0  0  0  0  0  0  0
  -12.7832   -0.7211  -23.4092 C   0  0  0  0  0  0  0  0  0  0  0  0
  -11.3925   -0.6654  -23.4951 C   0  0  0  0  0  0  0  0  0  0  0  0
  -10.7857    0.4690  -24.2668 C   0  0  0  0  0  0  0  0  0  0  0  0
  -11.4694    1.3715  -24.7361 O   0  0  0  0  0  0  0  0  0  0  0  0
  -13.3507    0.0071  -23.9809 H   0  0  0  0  0  0  0  0  0  0  0  0
  -14.4715   -1.7060  -22.5095 H   0  0  0  0  0  0  0  0  0  0  0  0
  -10.6371   -3.1576  -21.3109 H   0  0  0  0  0  0  0  0  0  0  0  0
   -8.9046   -1.4837  -25.0538 H   0  0  0  0  0  0  0  0  0  0  0  0
   -7.6290   -0.5599  -24.2007 H   0  0  0  0  0  0  0  0  0  0  0  0
   -9.4770    2.2952  -25.1782 H   0  0  0  0  0  0  0  0  0  0  0  0
   -8.0686    1.3230  -25.7193 H   0  0  0  0  0  0  0  0  0  0  0  0
   -9.2996    2.7939  -22.6462 H   0  0  0  0  0  0  0  0  0  0  0  0
   -6.7645    4.1096  -22.0877 H   0  0  0  0  0  0  0  0  0  0  0  0
   -8.0692    3.7257  -20.9501 H   0  0  0  0  0  0  0  0  0  0  0  0
   -6.8335    2.4922  -21.3536 H   0  0  0  0  0  0  0  0  0  0  0  0
  1  2  1  0
  2  3  1  0
  3  4  2  0
  3  5  1  0
  5  6  1  0
  6  7  1  0
  8  7  1  6
  8  9  1  0
  9 10  2  0
  9 11  1  0
 11 12  1  0
 12 13  2  0
 13 14  1  0
 14 15  2  0
 15 16  1  0
 16 17  2  0
 17 18  1  0
 18 19  2  0
 19 20  1  0
 20 21  2  0
 20 22  1  0
 19 23  1  0
 18 24  1  0
 17 25  1  0
 15 26  1  0
 13 27  1  0
 11 28  1  0
 28 29  1  0
 29 30  1  0
 30 31  1  0
 31 32  2  0
 32 33  1  0
 33 34  2  0
 34 35  1  0
 35 36  2  0
 36 37  1  0
 35 38  1  0
 34 39  1  0
 33 40  1  0
 32 41  1  0
 30 42  1  0
 30 43  1  0
 29 44  1  1
 28 45  1  0
 28 46  1  0
  8 47  1  0
 47 48  2  0
 48 49  1  0
 49 50  1  0
 49 51  2  0
 51 52  1  0
 52 53  2  0
 53 54  1  0
 54 55  2  0
 52 56  1  0
 51 57  1  0
 48 58  1  0
  7 59  1  0
  7 60  1  0
  5 61  1  0
  5 62  1  0
  2 63  1  0
  1 64  1  0
  1 65  1  0
  1 66  1  0
 54  6  1  0
 29  8  1  0
 36 31  1  0
 53 47  1  0
 21 12  1  0
 21 16  1  0
M  END
>  <cnnaffinities>  (43) 
[6.923, 6.90806]

>  <score>  (43) 
6.923

>  <index>  (43) 
45

>  <Smiles>  (43) 
C(N(C(=O)C(N1C([C@@]2(C(=O)N(c3c(nc(c4c(c(c(c(c34)[H])[H])[H])[H])[H])[H])C([C@@]2(C(c2c(c(c(c(c2[H])[H])[H])[H])[H])([H])[H])[H])([H])[H])c2c(c(Cl)c(c(c2C1=O)[H])[H])[H])([H])[H])([H])[H])[H])([H])([H])[H]

>  <h>  (43) 
<NA>

>  <Training>  (43) 
True

>  <Success>  (43) 
True

>  <enamine_searched>  (43) 
False

>  <enamine_id>  (43) 
nan

$$$$

     RDKit          3D

 50 54  0  0  0  0  0  0  0  0999 V2000
  -10.4347   -1.1173  -23.3030 C   0  0  0  0  0  0  0  0  0  0  0  0
   -8.9915   -1.4599  -22.9586 C   0  0  1  0  0  0  0  0  0  0  0  0
   -8.3907   -0.5106  -21.9089 C   0  0  0  0  0  0  0  0  0  0  0  0
   -7.3949   -1.3367  -21.2417 N   0  0  0  0  0  0  0  0  0  0  0  0
   -6.5779   -0.8437  -20.1963 C   0  0  0  0  0  0  0  0  0  0  0  0
   -6.8825   -1.0966  -18.8810 C   0  0  0  0  0  0  0  0  0  0  0  0
   -6.2082   -0.5667  -17.8314 N   0  0  0  0  0  0  0  0  0  0  0  0
   -5.1930    0.2154  -18.0955 C   0  0  0  0  0  0  0  0  0  0  0  0
   -4.7458    0.5267  -19.4116 C   0  0  0  0  0  0  0  0  0  0  0  0
   -3.6183    1.3528  -19.6460 C   0  0  0  0  0  0  0  0  0  0  0  0
   -3.2162    1.6163  -20.9262 C   0  0  0  0  0  0  0  0  0  0  0  0
   -3.9167    1.0679  -22.0241 C   0  0  0  0  0  0  0  0  0  0  0  0
   -5.0118    0.2653  -21.8224 C   0  0  0  0  0  0  0  0  0  0  0  0
   -5.4564   -0.0139  -20.5029 C   0  0  0  0  0  0  0  0  0  0  0  0
   -5.5332   -0.1718  -22.6674 H   0  0  0  0  0  0  0  0  0  0  0  0
   -3.5854    1.2810  -23.0349 H   0  0  0  0  0  0  0  0  0  0  0  0
   -2.3600    2.2576  -21.1074 H   0  0  0  0  0  0  0  0  0  0  0  0
   -3.0912    1.7649  -18.7903 H   0  0  0  0  0  0  0  0  0  0  0  0
   -4.6558    0.6340  -17.2461 H   0  0  0  0  0  0  0  0  0  0  0  0
   -7.7236   -1.7404  -18.6360 H   0  0  0  0  0  0  0  0  0  0  0  0
   -7.5556   -2.6886  -21.4661 C   0  0  0  0  0  0  0  0  0  0  0  0
   -6.8174   -3.5528  -21.0358 O   0  0  0  0  0  0  0  0  0  0  0  0
   -8.7852   -2.8971  -22.3583 C   0  0  1  0  0  0  0  0  0  0  0  0
   -9.9794   -3.3326  -21.4764 C   0  0  0  0  0  0  0  0  0  0  0  0
  -11.1210   -3.7319  -22.2938 N   0  0  0  0  0  0  0  0  0  0  0  0
  -12.4821   -3.5283  -21.8511 C   0  0  0  0  0  0  0  0  0  0  0  0
  -13.3166   -2.6928  -22.7310 C   0  0  0  0  0  0  0  0  0  0  0  0
  -14.0481   -2.0206  -23.3240 N   0  0  0  0  0  0  0  0  0  0  0  0
  -12.5046   -3.0633  -20.8690 H   0  0  0  0  0  0  0  0  0  0  0  0
  -12.9795   -4.4853  -21.7843 H   0  0  0  0  0  0  0  0  0  0  0  0
  -10.9722   -4.5574  -23.3800 C   0  0  0  0  0  0  0  0  0  0  0  0
  -11.9235   -5.0636  -23.9554 O   0  0  0  0  0  0  0  0  0  0  0  0
   -9.5754   -4.7816  -23.8467 C   0  0  0  0  0  0  0  0  0  0  0  0
   -9.3376   -5.7856  -24.7885 C   0  0  0  0  0  0  0  0  0  0  0  0
   -8.0805   -5.9430  -25.3473 C   0  0  0  0  0  0  0  0  0  0  0  0
   -7.0686   -5.0800  -24.9328 C   0  0  0  0  0  0  0  0  0  0  0  0
   -5.8501   -5.1975  -25.4903 F   0  0  0  0  0  0  0  0  0  0  0  0
   -7.2649   -4.1179  -23.9610 C   0  0  0  0  0  0  0  0  0  0  0  0
   -8.5358   -3.9679  -23.3926 C   0  0  0  0  0  0  0  0  0  0  0  0
   -6.4235   -3.5139  -23.6334 H   0  0  0  0  0  0  0  0  0  0  0  0
   -7.8702   -6.7051  -26.0954 H   0  0  0  0  0  0  0  0  0  0  0  0
  -10.1586   -6.4309  -25.0880 H   0  0  0  0  0  0  0  0  0  0  0  0
   -9.6751   -4.1667  -20.8283 H   0  0  0  0  0  0  0  0  0  0  0  0
  -10.2562   -2.4645  -20.8655 H   0  0  0  0  0  0  0  0  0  0  0  0
   -9.1618   -0.1585  -21.1999 H   0  0  0  0  0  0  0  0  0  0  0  0
   -7.9273    0.3726  -22.3645 H   0  0  0  0  0  0  0  0  0  0  0  0
   -8.3731   -1.4227  -23.8682 H   0  0  0  0  0  0  0  0  0  0  0  0
  -10.5196   -0.1410  -23.7850 H   0  0  0  0  0  0  0  0  0  0  0  0
  -11.0379   -1.1061  -22.3872 H   0  0  0  0  0  0  0  0  0  0  0  0
  -10.8517   -1.8820  -23.9639 H   0  0  0  0  0  0  0  0  0  0  0  0
  1  2  1  0
  2  3  1  0
  3  4  1  0
  4  5  1  0
  5  6  2  0
  6  7  1  0
  7  8  2  0
  8  9  1  0
  9 10  2  0
 10 11  1  0
 11 12  2  0
 12 13  1  0
 13 14  2  0
 13 15  1  0
 12 16  1  0
 11 17  1  0
 10 18  1  0
  8 19  1  0
  6 20  1  0
  4 21  1  0
 21 22  2  0
 21 23  1  0
 23 24  1  1
 24 25  1  0
 25 26  1  0
 26 27  1  0
 27 28  3  0
 26 29  1  0
 26 30  1  0
 25 31  1  0
 31 32  2  0
 31 33  1  0
 33 34  2  0
 34 35  1  0
 35 36  2  0
 36 37  1  0
 36 38  1  0
 38 39  2  0
 38 40  1  0
 35 41  1  0
 34 42  1  0
 24 43  1  0
 24 44  1  0
  3 45  1  0
  3 46  1  0
  2 47  1  6
  1 48  1  0
  1 49  1  0
  1 50  1  0
 23  2  1  0
 39 33  1  0
 14  5  1  0
 39 23  1  0
 14  9  1  0
M  END
>  <cnnaffinities>  (44) 
[6.55285]

>  <score>  (44) 
6.55285

>  <index>  (44) 
46

>  <Smiles>  (44) 
C([C@]1(C(N(c2c(nc(c3c(c(c(c(c23)[H])[H])[H])[H])[H])[H])C(=O)[C@]21C(N(C(C#N)([H])[H])C(=O)c1c(c(c(F)c(c21)[H])[H])[H])([H])[H])([H])[H])[H])([H])([H])[H]

>  <h>  (44) 
<NA>

>  <Training>  (44) 
True

>  <Success>  (44) 
True

>  <enamine_searched>  (44) 
False

>  <enamine_id>  (44) 
nan

$$$$

     RDKit          3D

 58 63  0  0  0  0  0  0  0  0999 V2000
   -9.0664    0.2936  -20.9329 O   0  0  0  0  0  0  0  0  0  0  0  0
   -8.5081   -0.4104  -21.7469 C   0  0  0  0  0  0  0  0  0  0  0  0
   -7.4367   -1.4239  -21.2729 C   0  0  0  0  0  0  0  0  0  0  0  0
   -6.5732   -0.8322  -20.1763 C   0  0  0  0  0  0  0  0  0  0  0  0
   -6.8738   -1.0414  -18.8567 C   0  0  0  0  0  0  0  0  0  0  0  0
   -6.1852   -0.5320  -17.7994 N   0  0  0  0  0  0  0  0  0  0  0  0
   -5.1529    0.2230  -18.0658 C   0  0  0  0  0  0  0  0  0  0  0  0
   -4.7171    0.5354  -19.3810 C   0  0  0  0  0  0  0  0  0  0  0  0
   -3.5866    1.3591  -19.6214 C   0  0  0  0  0  0  0  0  0  0  0  0
   -3.1859    1.6316  -20.8974 C   0  0  0  0  0  0  0  0  0  0  0  0
   -3.9001    1.0913  -21.9901 C   0  0  0  0  0  0  0  0  0  0  0  0
   -5.0131    0.3157  -21.7858 C   0  0  0  0  0  0  0  0  0  0  0  0
   -5.4485    0.0013  -20.4732 C   0  0  0  0  0  0  0  0  0  0  0  0
   -5.5640   -0.0631  -22.6411 H   0  0  0  0  0  0  0  0  0  0  0  0
   -3.5782    1.3177  -23.0060 H   0  0  0  0  0  0  0  0  0  0  0  0
   -2.3222    2.2676  -21.0805 H   0  0  0  0  0  0  0  0  0  0  0  0
   -3.0505    1.7691  -18.7682 H   0  0  0  0  0  0  0  0  0  0  0  0
   -4.5986    0.6283  -17.2161 H   0  0  0  0  0  0  0  0  0  0  0  0
   -7.7299   -1.6591  -18.5807 H   0  0  0  0  0  0  0  0  0  0  0  0
   -6.8120   -1.7798  -22.0983 H   0  0  0  0  0  0  0  0  0  0  0  0
   -7.9733   -2.2925  -20.8621 H   0  0  0  0  0  0  0  0  0  0  0  0
   -8.8003   -0.2909  -23.1068 N   0  0  0  0  0  0  0  0  0  0  0  0
   -9.1081    1.0650  -23.5845 C   0  0  0  0  0  0  0  0  0  0  0  0
   -7.8646    1.9359  -23.6165 C   0  0  0  0  0  0  0  0  0  0  0  0
   -7.5977    2.8242  -22.5774 C   0  0  0  0  0  0  0  0  0  0  0  0
   -6.4536    3.6112  -22.6004 C   0  0  0  0  0  0  0  0  0  0  0  0
   -5.5553    3.5253  -23.6566 C   0  0  0  0  0  0  0  0  0  0  0  0
   -5.8119    2.6128  -24.6722 C   0  0  0  0  0  0  0  0  0  0  0  0
   -4.6636    2.4520  -25.9725 Cl  0  0  0  0  0  0  0  0  0  0  0  0
   -6.9499    1.8180  -24.6636 C   0  0  0  0  0  0  0  0  0  0  0  0
   -7.1071    1.1246  -25.4868 H   0  0  0  0  0  0  0  0  0  0  0  0
   -4.6478    4.1232  -23.6727 H   0  0  0  0  0  0  0  0  0  0  0  0
   -6.2499    4.2979  -21.7828 H   0  0  0  0  0  0  0  0  0  0  0  0
   -8.2908    2.8985  -21.7430 H   0  0  0  0  0  0  0  0  0  0  0  0
   -9.8639    1.5088  -22.9277 H   0  0  0  0  0  0  0  0  0  0  0  0
   -9.5317    0.9889  -24.5880 H   0  0  0  0  0  0  0  0  0  0  0  0
   -9.0227   -1.4366  -23.9355 C   0  0  2  0  0  0  0  0  0  0  0  0
  -10.0743   -2.4695  -23.4652 C   0  0  0  0  0  0  0  0  0  0  0  0
   -9.9592   -3.4612  -24.5954 N   0  0  1  0  0  4  0  0  0  0  0  0
  -11.2071   -3.7995  -25.2834 C   0  0  0  0  0  0  0  0  0  0  0  0
  -12.0061   -4.9606  -24.7949 C   0  0  0  0  0  0  0  0  0  0  0  0
  -11.2447   -5.0668  -26.0812 C   0  0  0  0  0  0  0  0  0  0  0  0
  -10.3303   -5.6503  -26.0975 H   0  0  0  0  0  0  0  0  0  0  0  0
  -11.8040   -5.1082  -27.0064 H   0  0  0  0  0  0  0  0  0  0  0  0
  -11.6013   -5.4839  -23.9368 H   0  0  0  0  0  0  0  0  0  0  0  0
  -13.0879   -4.8934  -24.8539 H   0  0  0  0  0  0  0  0  0  0  0  0
  -11.7487   -2.9464  -25.6677 H   0  0  0  0  0  0  0  0  0  0  0  0
   -8.9235   -2.7729  -25.4532 C   0  0  2  0  0  0  0  0  0  0  0  0
   -7.8915   -2.3775  -24.3904 C   0  0  0  0  0  0  0  0  0  0  0  0
   -7.6112   -3.1765  -23.6917 H   0  0  0  0  0  0  0  0  0  0  0  0
   -7.0266   -1.8494  -24.7944 H   0  0  0  0  0  0  0  0  0  0  0  0
   -9.4074   -1.3186  -25.4272 C   0  0  0  0  0  0  0  0  0  0  0  0
  -10.4646   -1.1398  -25.6463 H   0  0  0  0  0  0  0  0  0  0  0  0
   -8.7654   -0.6631  -26.0083 H   0  0  0  0  0  0  0  0  0  0  0  0
   -8.6689   -3.3049  -26.3623 H   0  0  0  0  0  0  0  0  0  0  0  0
   -9.5706   -4.3492  -24.2463 H   0  0  0  0  0  0  0  0  0  0  0  0
   -9.8283   -2.9391  -22.5124 H   0  0  0  0  0  0  0  0  0  0  0  0
  -11.0877   -2.0783  -23.4380 H   0  0  0  0  0  0  0  0  0  0  0  0
  1  2  2  0
  2  3  1  0
  3  4  1  0
  4  5  2  0
  5  6  1  0
  6  7  2  0
  7  8  1  0
  8  9  2  0
  9 10  1  0
 10 11  2  0
 11 12  1  0
 12 13  2  0
 12 14  1  0
 11 15  1  0
 10 16  1  0
  9 17  1  0
  7 18  1  0
  5 19  1  0
  3 20  1  0
  3 21  1  0
  2 22  1  0
 22 23  1  0
 23 24  1  0
 24 25  2  0
 25 26  1  0
 26 27  2  0
 27 28  1  0
 28 29  1  0
 28 30  2  0
 30 31  1  0
 27 32  1  0
 26 33  1  0
 25 34  1  0
 23 35  1  0
 23 36  1  0
 37 22  1  1
 37 38  1  0
 38 39  1  0
 39 40  1  0
 40 41  1  0
 41 42  1  0
 42 43  1  0
 42 44  1  0
 41 45  1  0
 41 46  1  0
 40 47  1  0
 39 48  1  0
 48 49  1  0
 49 50  1  0
 49 51  1  0
 48 52  1  0
 52 53  1  0
 52 54  1  0
 48 55  1  6
 39 56  1  1
 38 57  1  0
 38 58  1  0
 13  4  1  0
 30 24  1  0
 49 37  1  0
 13  8  1  0
 52 37  1  0
 42 40  1  0
M  CHG  1  39   1
M  END
>  <cnnaffinities>  (45) 
[5.88076, 5.63886, 5.95792, 6.45107]

>  <score>  (45) 
5.88076

>  <index>  (45) 
47

>  <Smiles>  (45) 
O=C(C(c1c(nc(c2c(c(c(c(c12)[H])[H])[H])[H])[H])[H])([H])[H])N(C(c1c(c(c(c(Cl)c1[H])[H])[H])[H])([H])[H])[C@]12C([N@@+](C3(C(C3([H])[H])([H])[H])[H])([C@](C1([H])[H])(C2([H])[H])[H])[H])([H])[H]

>  <h>  (45) 
<NA>

>  <Training>  (45) 
True

>  <Success>  (45) 
True

>  <enamine_searched>  (45) 
False

>  <enamine_id>  (45) 
nan

$$$$

     RDKit          3D

 46 48  0  0  0  0  0  0  0  0999 V2000
  -13.6445   -2.9920  -24.5858 C   0  0  0  0  0  0  0  0  0  0  0  0
  -13.4829   -2.7383  -23.0778 C   0  0  0  0  0  0  0  0  0  0  0  0
  -13.7259   -4.0439  -22.3029 C   0  0  0  0  0  0  0  0  0  0  0  0
  -13.6390   -3.9090  -21.2151 H   0  0  0  0  0  0  0  0  0  0  0  0
  -14.7235   -4.4474  -22.5161 H   0  0  0  0  0  0  0  0  0  0  0  0
  -12.9973   -4.8018  -22.6143 H   0  0  0  0  0  0  0  0  0  0  0  0
  -12.1278   -2.0874  -22.6685 C   0  0  0  0  0  0  0  0  0  0  0  0
  -10.9074   -3.0201  -22.8512 C   0  0  0  0  0  0  0  0  0  0  0  0
   -9.6342   -2.2298  -23.2020 C   0  0  0  0  0  0  0  0  0  0  0  0
   -9.5826   -0.9425  -22.5237 N   0  0  0  0  0  0  0  0  0  0  0  0
   -8.5196   -0.4387  -21.8126 C   0  0  0  0  0  0  0  0  0  0  0  0
   -8.4315    0.7553  -21.5819 O   0  0  0  0  0  0  0  0  0  0  0  0
   -7.4645   -1.4326  -21.2737 C   0  0  0  0  0  0  0  0  0  0  0  0
   -6.5922   -0.8266  -20.1921 C   0  0  0  0  0  0  0  0  0  0  0  0
   -6.8865   -1.0411  -18.8702 C   0  0  0  0  0  0  0  0  0  0  0  0
   -6.1963   -0.5332  -17.8153 N   0  0  0  0  0  0  0  0  0  0  0  0
   -5.1625    0.2213  -18.0794 C   0  0  0  0  0  0  0  0  0  0  0  0
   -4.7290    0.5340  -19.3932 C   0  0  0  0  0  0  0  0  0  0  0  0
   -3.6017    1.3626  -19.6272 C   0  0  0  0  0  0  0  0  0  0  0  0
   -3.2127    1.6551  -20.9043 C   0  0  0  0  0  0  0  0  0  0  0  0
   -3.9376    1.1308  -21.9978 C   0  0  0  0  0  0  0  0  0  0  0  0
   -5.0351    0.3286  -21.7954 C   0  0  0  0  0  0  0  0  0  0  0  0
   -5.4627    0.0030  -20.4818 C   0  0  0  0  0  0  0  0  0  0  0  0
   -5.5934   -0.0548  -22.6429 H   0  0  0  0  0  0  0  0  0  0  0  0
   -3.6294    1.3692  -23.0115 H   0  0  0  0  0  0  0  0  0  0  0  0
   -2.3589    2.3048  -21.0818 H   0  0  0  0  0  0  0  0  0  0  0  0
   -3.0736    1.7603  -18.7635 H   0  0  0  0  0  0  0  0  0  0  0  0
   -4.6123    0.6215  -17.2258 H   0  0  0  0  0  0  0  0  0  0  0  0
   -7.7323   -1.6661  -18.5836 H   0  0  0  0  0  0  0  0  0  0  0  0
   -7.9898   -2.3042  -20.8581 H   0  0  0  0  0  0  0  0  0  0  0  0
   -6.8484   -1.8222  -22.1006 H   0  0  0  0  0  0  0  0  0  0  0  0
  -10.6330    0.0096  -22.8805 C   0  0  0  0  0  0  0  0  0  0  0  0
  -11.8880   -0.7361  -23.3661 C   0  0  0  0  0  0  0  0  0  0  0  0
  -11.8068   -0.9146  -24.4506 H   0  0  0  0  0  0  0  0  0  0  0  0
  -12.7662   -0.1017  -23.2078 H   0  0  0  0  0  0  0  0  0  0  0  0
  -10.8055    0.6315  -21.9951 H   0  0  0  0  0  0  0  0  0  0  0  0
  -10.2677    0.6961  -23.6559 H   0  0  0  0  0  0  0  0  0  0  0  0
   -9.6231   -2.0539  -24.2898 H   0  0  0  0  0  0  0  0  0  0  0  0
   -8.7462   -2.8121  -22.9493 H   0  0  0  0  0  0  0  0  0  0  0  0
  -10.7645   -3.6001  -21.9268 H   0  0  0  0  0  0  0  0  0  0  0  0
  -11.0862   -3.7451  -23.6602 H   0  0  0  0  0  0  0  0  0  0  0  0
  -12.2278   -1.8975  -21.5900 H   0  0  0  0  0  0  0  0  0  0  0  0
  -14.2686   -2.0222  -22.7835 H   0  0  0  0  0  0  0  0  0  0  0  0
  -12.8743   -3.6770  -24.9706 H   0  0  0  0  0  0  0  0  0  0  0  0
  -14.6212   -3.4564  -24.7874 H   0  0  0  0  0  0  0  0  0  0  0  0
  -13.5948   -2.0622  -25.1654 H   0  0  0  0  0  0  0  0  0  0  0  0
  1  2  1  0
  2  3  1  0
  3  4  1  0
  3  5  1  0
  3  6  1  0
  2  7  1  0
  7  8  1  0
  8  9  1  0
  9 10  1  0
 10 11  1  0
 11 12  2  0
 11 13  1  0
 13 14  1  0
 14 15  2  0
 15 16  1  0
 16 17  2  0
 17 18  1  0
 18 19  2  0
 19 20  1  0
 20 21  2  0
 21 22  1  0
 22 23  2  0
 22 24  1  0
 21 25  1  0
 20 26  1  0
 19 27  1  0
 17 28  1  0
 15 29  1  0
 13 30  1  0
 13 31  1  0
 10 32  1  0
 32 33  1  0
 33 34  1  0
 33 35  1  0
 32 36  1  0
 32 37  1  0
  9 38  1  0
  9 39  1  0
  8 40  1  0
  8 41  1  0
  7 42  1  0
  2 43  1  0
  1 44  1  0
  1 45  1  0
  1 46  1  0
 33  7  1  0
 23 14  1  0
 23 18  1  0
M  END
>  <cnnaffinities>  (46) 
[5.309, 5.01848, 5.04908, 5.04924, 5.05103, 4.74757, 4.74702, 4.74651]

>  <score>  (46) 
5.309

>  <index>  (46) 
48

>  <Smiles>  (46) 
C(C(C([H])([H])[H])(C1(C(C(N(C(=O)C(c2c(nc(c3c(c(c(c(c23)[H])[H])[H])[H])[H])[H])([H])[H])C(C1([H])[H])([H])[H])([H])[H])([H])[H])[H])[H])([H])([H])[H]

>  <h>  (46) 
<NA>

>  <Training>  (46) 
True

>  <Success>  (46) 
True

>  <enamine_searched>  (46) 
False

>  <enamine_id>  (46) 
nan

$$$$

     RDKit          3D

 67 72  0  0  0  0  0  0  0  0999 V2000
   -7.4218    3.3449  -21.7556 C   0  0  0  0  0  0  0  0  0  0  0  0
   -8.2675    2.8788  -22.8380 N   0  0  0  0  0  0  0  0  0  0  0  0
   -7.6935    2.2206  -23.8672 C   0  0  0  0  0  0  0  0  0  0  0  0
   -6.4787    2.1348  -23.9918 O   0  0  0  0  0  0  0  0  0  0  0  0
   -8.6471    1.6000  -24.8978 C   0  0  0  0  0  0  0  0  0  0  0  0
   -9.3729    0.4446  -24.4007 N   0  0  0  0  0  0  0  0  0  0  0  0
   -8.6542   -0.8069  -24.2388 C   0  0  0  0  0  0  0  0  0  0  0  0
   -9.0440   -1.5284  -22.9226 C   0  0  2  0  0  0  0  0  0  0  0  0
   -8.5028   -0.7383  -21.7000 C   0  0  0  0  0  0  0  0  0  0  0  0
   -8.9553    0.2844  -21.2282 O   0  0  0  0  0  0  0  0  0  0  0  0
   -7.3916   -1.3899  -21.2105 N   0  0  0  0  0  0  0  0  0  0  0  0
   -6.5995   -0.8132  -20.1802 C   0  0  0  0  0  0  0  0  0  0  0  0
   -6.9060   -1.0425  -18.8627 C   0  0  0  0  0  0  0  0  0  0  0  0
   -6.1999   -0.5464  -17.8193 N   0  0  0  0  0  0  0  0  0  0  0  0
   -5.1646    0.2095  -18.0815 C   0  0  0  0  0  0  0  0  0  0  0  0
   -4.7270    0.5320  -19.3969 C   0  0  0  0  0  0  0  0  0  0  0  0
   -3.6002    1.3655  -19.6409 C   0  0  0  0  0  0  0  0  0  0  0  0
   -3.2145    1.6566  -20.9209 C   0  0  0  0  0  0  0  0  0  0  0  0
   -3.9377    1.1274  -22.0131 C   0  0  0  0  0  0  0  0  0  0  0  0
   -5.0308    0.3211  -21.8017 C   0  0  0  0  0  0  0  0  0  0  0  0
   -5.4617    0.0027  -20.4859 C   0  0  0  0  0  0  0  0  0  0  0  0
   -5.5880   -0.0641  -22.6509 H   0  0  0  0  0  0  0  0  0  0  0  0
   -3.6486    1.3662  -23.0306 H   0  0  0  0  0  0  0  0  0  0  0  0
   -2.3625    2.3075  -21.1012 H   0  0  0  0  0  0  0  0  0  0  0  0
   -3.0695    1.7730  -18.7845 H   0  0  0  0  0  0  0  0  0  0  0  0
   -4.6178    0.6123  -17.2288 H   0  0  0  0  0  0  0  0  0  0  0  0
   -7.7570   -1.6669  -18.6012 H   0  0  0  0  0  0  0  0  0  0  0  0
   -7.0413   -2.5965  -21.9310 C   0  0  0  0  0  0  0  0  0  0  0  0
   -8.2989   -2.8947  -22.7694 C   0  0  2  0  0  0  0  0  0  0  0  0
   -7.9617   -3.6784  -24.0569 C   0  0  0  0  0  0  0  0  0  0  0  0
   -7.4523   -5.0032  -23.7767 N   0  0  0  0  0  0  0  0  0  0  0  0
   -6.1224   -5.3087  -23.6634 C   0  0  0  0  0  0  0  0  0  0  0  0
   -5.0170   -4.5880  -24.0110 C   0  0  0  0  0  0  0  0  0  0  0  0
   -3.7949   -5.1933  -23.7899 N   0  0  0  0  0  0  0  0  0  0  0  0
   -3.9364   -6.3779  -23.2945 C   0  0  0  0  0  0  0  0  0  0  0  0
   -2.7948   -7.2999  -22.9853 C   0  0  0  0  0  0  0  0  0  0  0  0
   -3.0206   -7.9328  -22.1251 H   0  0  0  0  0  0  0  0  0  0  0  0
   -2.5857   -7.9506  -23.8436 H   0  0  0  0  0  0  0  0  0  0  0  0
   -1.9001   -6.7036  -22.7922 H   0  0  0  0  0  0  0  0  0  0  0  0
   -5.6036   -6.8631  -23.0339 S   0  0  0  0  0  0  0  0  0  0  0  0
   -5.0498   -3.6010  -24.4591 H   0  0  0  0  0  0  0  0  0  0  0  0
   -8.1091   -5.7215  -23.5118 H   0  0  0  0  0  0  0  0  0  0  0  0
   -8.8650   -3.7898  -24.6678 H   0  0  0  0  0  0  0  0  0  0  0  0
   -7.2156   -3.1295  -24.6510 H   0  0  0  0  0  0  0  0  0  0  0  0
   -8.9561   -3.5351  -22.1742 H   0  0  0  0  0  0  0  0  0  0  0  0
   -6.1560   -2.4461  -22.5715 H   0  0  0  0  0  0  0  0  0  0  0  0
   -6.7900   -3.4167  -21.2491 H   0  0  0  0  0  0  0  0  0  0  0  0
  -10.5626   -1.5769  -22.8498 C   0  0  0  0  0  0  0  0  0  0  0  0
  -11.2007   -2.4606  -21.9703 C   0  0  0  0  0  0  0  0  0  0  0  0
  -12.5806   -2.4826  -21.8866 C   0  0  0  0  0  0  0  0  0  0  0  0
  -13.3574   -3.5920  -20.7945 Cl  0  0  0  0  0  0  0  0  0  0  0  0
  -13.3707   -1.6234  -22.6490 C   0  0  0  0  0  0  0  0  0  0  0  0
  -12.7480   -0.7003  -23.4640 C   0  0  0  0  0  0  0  0  0  0  0  0
  -11.3563   -0.6508  -23.5438 C   0  0  0  0  0  0  0  0  0  0  0  0
  -10.7395    0.4810  -24.3148 C   0  0  0  0  0  0  0  0  0  0  0  0
  -11.4141    1.3835  -24.7913 O   0  0  0  0  0  0  0  0  0  0  0  0
  -13.3123    0.0249  -24.0399 H   0  0  0  0  0  0  0  0  0  0  0  0
  -14.4506   -1.6709  -22.5718 H   0  0  0  0  0  0  0  0  0  0  0  0
  -10.6341   -3.1184  -21.3220 H   0  0  0  0  0  0  0  0  0  0  0  0
   -7.5880   -0.5629  -24.2234 H   0  0  0  0  0  0  0  0  0  0  0  0
   -8.8576   -1.4746  -25.0924 H   0  0  0  0  0  0  0  0  0  0  0  0
   -9.4152    2.3065  -25.2269 H   0  0  0  0  0  0  0  0  0  0  0  0
   -8.0098    1.3296  -25.7469 H   0  0  0  0  0  0  0  0  0  0  0  0
   -9.2667    2.8153  -22.6957 H   0  0  0  0  0  0  0  0  0  0  0  0
   -6.8234    2.5184  -21.3440 H   0  0  0  0  0  0  0  0  0  0  0  0
   -6.7390    4.1288  -22.1023 H   0  0  0  0  0  0  0  0  0  0  0  0
   -8.0708    3.7592  -20.9949 H   0  0  0  0  0  0  0  0  0  0  0  0
  1  2  1  0
  2  3  1  0
  3  4  2  0
  3  5  1  0
  5  6  1  0
  6  7  1  0
  8  7  1  6
  8  9  1  0
  9 10  2  0
  9 11  1  0
 11 12  1  0
 12 13  2  0
 13 14  1  0
 14 15  2  0
 15 16  1  0
 16 17  2  0
 17 18  1  0
 18 19  2  0
 19 20  1  0
 20 21  2  0
 20 22  1  0
 19 23  1  0
 18 24  1  0
 17 25  1  0
 15 26  1  0
 13 27  1  0
 11 28  1  0
 28 29  1  0
 29 30  1  0
 30 31  1  0
 31 32  1  0
 32 33  2  0
 33 34  1  0
 34 35  2  0
 35 36  1  0
 36 37  1  0
 36 38  1  0
 36 39  1  0
 35 40  1  0
 33 41  1  0
 31 42  1  0
 30 43  1  0
 30 44  1  0
 29 45  1  1
 28 46  1  0
 28 47  1  0
  8 48  1  0
 48 49  2  0
 49 50  1  0
 50 51  1  0
 50 52  2  0
 52 53  1  0
 53 54  2  0
 54 55  1  0
 55 56  2  0
 53 57  1  0
 52 58  1  0
 49 59  1  0
  7 60  1  0
  7 61  1  0
  5 62  1  0
  5 63  1  0
  2 64  1  0
  1 65  1  0
  1 66  1  0
  1 67  1  0
 55  6  1  0
 29  8  1  0
 40 32  1  0
 54 48  1  0
 21 12  1  0
 21 16  1  0
M  END
>  <cnnaffinities>  (47) 
[7.22659]

>  <score>  (47) 
7.22659

>  <index>  (47) 
49

>  <Smiles>  (47) 
C(N(C(=O)C(N1C([C@@]2(C(=O)N(c3c(nc(c4c(c(c(c(c34)[H])[H])[H])[H])[H])[H])C([C@@]2(C(N(c2c(nc(C([H])([H])[H])s2)[H])[H])([H])[H])[H])([H])[H])c2c(c(Cl)c(c(c2C1=O)[H])[H])[H])([H])[H])([H])[H])[H])([H])([H])[H]

>  <h>  (47) 
<NA>

>  <Training>  (47) 
True

>  <Success>  (47) 
True

>  <enamine_searched>  (47) 
False

>  <enamine_id>  (47) 
nan

$$$$

     RDKit          3D

 66 70  0  0  0  0  0  0  0  0999 V2000
   -7.4007    3.3713  -21.7905 C   0  0  0  0  0  0  0  0  0  0  0  0
   -8.2322    2.8950  -22.8778 N   0  0  0  0  0  0  0  0  0  0  0  0
   -7.6533    2.2243  -23.8965 C   0  0  0  0  0  0  0  0  0  0  0  0
   -6.4382    2.1349  -24.0124 O   0  0  0  0  0  0  0  0  0  0  0  0
   -8.6094    1.5996  -24.9244 C   0  0  0  0  0  0  0  0  0  0  0  0
   -9.3575    0.4614  -24.4195 N   0  0  0  0  0  0  0  0  0  0  0  0
   -8.6606   -0.7987  -24.2419 C   0  0  0  0  0  0  0  0  0  0  0  0
   -9.0601   -1.4967  -22.9164 C   0  0  2  0  0  0  0  0  0  0  0  0
   -8.5012   -0.7021  -21.7025 C   0  0  0  0  0  0  0  0  0  0  0  0
   -8.9254    0.3356  -21.2424 O   0  0  0  0  0  0  0  0  0  0  0  0
   -7.4075   -1.3752  -21.2037 N   0  0  0  0  0  0  0  0  0  0  0  0
   -6.6057   -0.8051  -20.1771 C   0  0  0  0  0  0  0  0  0  0  0  0
   -6.9064   -1.0394  -18.8603 C   0  0  0  0  0  0  0  0  0  0  0  0
   -6.1965   -0.5467  -17.8176 N   0  0  0  0  0  0  0  0  0  0  0  0
   -5.1626    0.2100  -18.0805 C   0  0  0  0  0  0  0  0  0  0  0  0
   -4.7261    0.5322  -19.3958 C   0  0  0  0  0  0  0  0  0  0  0  0
   -3.5994    1.3656  -19.6415 C   0  0  0  0  0  0  0  0  0  0  0  0
   -3.2131    1.6549  -20.9211 C   0  0  0  0  0  0  0  0  0  0  0  0
   -3.9357    1.1220  -22.0133 C   0  0  0  0  0  0  0  0  0  0  0  0
   -5.0285    0.3158  -21.8001 C   0  0  0  0  0  0  0  0  0  0  0  0
   -5.4634    0.0041  -20.4846 C   0  0  0  0  0  0  0  0  0  0  0  0
   -5.5837   -0.0752  -22.6482 H   0  0  0  0  0  0  0  0  0  0  0  0
   -3.6465    1.3598  -23.0304 H   0  0  0  0  0  0  0  0  0  0  0  0
   -2.3621    2.3057  -21.1027 H   0  0  0  0  0  0  0  0  0  0  0  0
   -3.0692    1.7749  -18.7852 H   0  0  0  0  0  0  0  0  0  0  0  0
   -4.6167    0.6131  -17.2273 H   0  0  0  0  0  0  0  0  0  0  0  0
   -7.7560   -1.6641  -18.5962 H   0  0  0  0  0  0  0  0  0  0  0  0
   -7.0814   -2.5989  -21.9117 C   0  0  0  0  0  0  0  0  0  0  0  0
   -8.3434   -2.8714  -22.7582 C   0  0  2  0  0  0  0  0  0  0  0  0
   -8.0173   -3.6532  -24.0379 C   0  0  0  0  0  0  0  0  0  0  0  0
   -7.4912   -4.9286  -23.7255 O   0  0  0  0  0  0  0  0  0  0  0  0
   -8.4671   -5.9675  -23.6392 C   0  0  0  0  0  0  0  0  0  0  0  0
   -8.5695   -6.6992  -24.9771 C   0  0  0  0  0  0  0  0  0  0  0  0
   -8.8667   -6.0166  -25.7815 H   0  0  0  0  0  0  0  0  0  0  0  0
   -7.5964   -7.1306  -25.2359 H   0  0  0  0  0  0  0  0  0  0  0  0
   -9.3103   -7.5061  -24.9202 H   0  0  0  0  0  0  0  0  0  0  0  0
   -8.0507   -6.9032  -22.5135 C   0  0  0  0  0  0  0  0  0  0  0  0
   -7.0753   -7.3486  -22.7327 H   0  0  0  0  0  0  0  0  0  0  0  0
   -8.7840   -7.7086  -22.3957 H   0  0  0  0  0  0  0  0  0  0  0  0
   -7.9739   -6.3532  -21.5710 H   0  0  0  0  0  0  0  0  0  0  0  0
   -9.4492   -5.5188  -23.4016 H   0  0  0  0  0  0  0  0  0  0  0  0
   -8.9107   -3.7389  -24.6808 H   0  0  0  0  0  0  0  0  0  0  0  0
   -7.2393   -3.1340  -24.6137 H   0  0  0  0  0  0  0  0  0  0  0  0
   -9.0091   -3.5070  -22.1678 H   0  0  0  0  0  0  0  0  0  0  0  0
   -6.8619   -3.4115  -21.2101 H   0  0  0  0  0  0  0  0  0  0  0  0
   -6.1879   -2.4723  -22.5437 H   0  0  0  0  0  0  0  0  0  0  0  0
  -10.5774   -1.5225  -22.8422 C   0  0  0  0  0  0  0  0  0  0  0  0
  -11.2294   -2.3904  -21.9579 C   0  0  0  0  0  0  0  0  0  0  0  0
  -12.6061   -2.3780  -21.8799 C   0  0  0  0  0  0  0  0  0  0  0  0
  -13.2161   -3.2219  -21.0319 F   0  0  0  0  0  0  0  0  0  0  0  0
  -13.3911   -1.5170  -22.6362 C   0  0  0  0  0  0  0  0  0  0  0  0
  -12.7502   -0.6129  -23.4590 C   0  0  0  0  0  0  0  0  0  0  0  0
  -11.3570   -0.5887  -23.5431 C   0  0  0  0  0  0  0  0  0  0  0  0
  -10.7219    0.5248  -24.3263 C   0  0  0  0  0  0  0  0  0  0  0  0
  -11.3800    1.4371  -24.8061 O   0  0  0  0  0  0  0  0  0  0  0  0
  -13.3025    0.1176  -24.0393 H   0  0  0  0  0  0  0  0  0  0  0  0
  -14.4702   -1.5548  -22.5435 H   0  0  0  0  0  0  0  0  0  0  0  0
  -10.6909   -3.0607  -21.2989 H   0  0  0  0  0  0  0  0  0  0  0  0
   -8.8696   -1.4765  -25.0857 H   0  0  0  0  0  0  0  0  0  0  0  0
   -7.5910   -0.5720  -24.2266 H   0  0  0  0  0  0  0  0  0  0  0  0
   -9.3639    2.3105  -25.2774 H   0  0  0  0  0  0  0  0  0  0  0  0
   -7.9675    1.3074  -25.7613 H   0  0  0  0  0  0  0  0  0  0  0  0
   -9.2341    2.8438  -22.7485 H   0  0  0  0  0  0  0  0  0  0  0  0
   -6.7078    4.1479  -22.1355 H   0  0  0  0  0  0  0  0  0  0  0  0
   -6.8123    2.5506  -21.3505 H   0  0  0  0  0  0  0  0  0  0  0  0
   -8.0673    3.8011  -21.0523 H   0  0  0  0  0  0  0  0  0  0  0  0
  1  2  1  0
  2  3  1  0
  3  4  2  0
  3  5  1  0
  5  6  1  0
  6  7  1  0
  8  7  1  6
  8  9  1  0
  9 10  2  0
  9 11  1  0
 11 12  1  0
 12 13  2  0
 13 14  1  0
 14 15  2  0
 15 16  1  0
 16 17  2  0
 17 18  1  0
 18 19  2  0
 19 20  1  0
 20 21  2  0
 20 22  1  0
 19 23  1  0
 18 24  1  0
 17 25  1  0
 15 26  1  0
 13 27  1  0
 11 28  1  0
 28 29  1  0
 29 30  1  0
 30 31  1  0
 31 32  1  0
 32 33  1  0
 33 34  1  0
 33 35  1  0
 33 36  1  0
 32 37  1  0
 37 38  1  0
 37 39  1  0
 37 40  1  0
 32 41  1  0
 30 42  1  0
 30 43  1  0
 29 44  1  1
 28 45  1  0
 28 46  1  0
  8 47  1  0
 47 48  2  0
 48 49  1  0
 49 50  1  0
 49 51  2  0
 51 52  1  0
 52 53  2  0
 53 54  1  0
 54 55  2  0
 52 56  1  0
 51 57  1  0
 48 58  1  0
  7 59  1  0
  7 60  1  0
  5 61  1  0
  5 62  1  0
  2 63  1  0
  1 64  1  0
  1 65  1  0
  1 66  1  0
 54  6  1  0
 29  8  1  0
 53 47  1  0
 21 12  1  0
 21 16  1  0
M  END
>  <cnnaffinities>  (48) 
[6.23145, 6.29916, 6.68604, 6.65465, 6.6579, 6.89161]

>  <score>  (48) 
6.23145

>  <index>  (48) 
50

>  <Smiles>  (48) 
C(N(C(=O)C(N1C([C@@]2(C(=O)N(c3c(nc(c4c(c(c(c(c34)[H])[H])[H])[H])[H])[H])C([C@@]2(C(OC(C([H])([H])[H])(C([H])([H])[H])[H])([H])[H])[H])([H])[H])c2c(c(F)c(c(c2C1=O)[H])[H])[H])([H])[H])([H])[H])[H])([H])([H])[H]

>  <h>  (48) 
<NA>

>  <Training>  (48) 
True

>  <Success>  (48) 
True

>  <enamine_searched>  (48) 
False

>  <enamine_id>  (48) 
nan

$$$$

     RDKit          3D

 50 52  0  0  0  0  0  0  0  0999 V2000
   -9.6755   -0.9908  -26.4133 C   0  0  0  0  0  0  0  0  0  0  0  0
   -9.1058   -0.3174  -25.4277 C   0  0  0  0  0  0  0  0  0  0  0  0
   -9.6277   -0.4534  -24.0147 C   0  0  0  0  0  0  0  0  0  0  0  0
   -8.7363   -1.2279  -23.1587 N   0  0  0  0  0  0  0  0  0  0  0  0
   -8.0743   -0.5213  -22.1564 C   0  0  0  0  0  0  0  0  0  0  0  0
   -8.1182    0.6966  -22.0686 O   0  0  0  0  0  0  0  0  0  0  0  0
   -7.3745   -1.3163  -21.2751 N   0  0  0  0  0  0  0  0  0  0  0  0
   -6.6000   -0.7863  -20.2199 C   0  0  0  0  0  0  0  0  0  0  0  0
   -6.9106   -1.0562  -18.9110 C   0  0  0  0  0  0  0  0  0  0  0  0
   -6.2289   -0.5534  -17.8535 N   0  0  0  0  0  0  0  0  0  0  0  0
   -5.1946    0.2127  -18.1006 C   0  0  0  0  0  0  0  0  0  0  0  0
   -4.7479    0.5349  -19.4115 C   0  0  0  0  0  0  0  0  0  0  0  0
   -3.6048    1.3487  -19.6398 C   0  0  0  0  0  0  0  0  0  0  0  0
   -3.1770    1.6050  -20.9162 C   0  0  0  0  0  0  0  0  0  0  0  0
   -3.8710    1.0607  -22.0230 C   0  0  0  0  0  0  0  0  0  0  0  0
   -4.9836    0.2820  -21.8289 C   0  0  0  0  0  0  0  0  0  0  0  0
   -5.4596    0.0156  -20.5114 C   0  0  0  0  0  0  0  0  0  0  0  0
   -5.5098   -0.1475  -22.6750 H   0  0  0  0  0  0  0  0  0  0  0  0
   -3.5313    1.2700  -23.0373 H   0  0  0  0  0  0  0  0  0  0  0  0
   -2.3084    2.2386  -21.0835 H   0  0  0  0  0  0  0  0  0  0  0  0
   -3.0822    1.7559  -18.7782 H   0  0  0  0  0  0  0  0  0  0  0  0
   -4.6421    0.6078  -17.2456 H   0  0  0  0  0  0  0  0  0  0  0  0
   -7.7692   -1.6861  -18.6706 H   0  0  0  0  0  0  0  0  0  0  0  0
   -7.6579   -2.2839  -21.2193 H   0  0  0  0  0  0  0  0  0  0  0  0
   -8.4222   -2.5614  -23.5670 C   0  0  0  0  0  0  0  0  0  0  0  0
   -7.1094   -2.9200  -23.8791 C   0  0  0  0  0  0  0  0  0  0  0  0
   -6.8288   -4.2175  -24.2861 C   0  0  0  0  0  0  0  0  0  0  0  0
   -7.8485   -5.1556  -24.4301 C   0  0  0  0  0  0  0  0  0  0  0  0
   -9.1607   -4.7631  -24.1942 C   0  0  0  0  0  0  0  0  0  0  0  0
  -10.4658   -5.8780  -24.5180 Cl  0  0  0  0  0  0  0  0  0  0  0  0
   -9.4604   -3.4787  -23.7569 C   0  0  0  0  0  0  0  0  0  0  0  0
  -10.4931   -3.2004  -23.5673 H   0  0  0  0  0  0  0  0  0  0  0  0
   -7.6311   -6.1776  -24.7227 H   0  0  0  0  0  0  0  0  0  0  0  0
   -5.8013   -4.4841  -24.5150 H   0  0  0  0  0  0  0  0  0  0  0  0
   -6.3237   -2.1669  -23.8280 H   0  0  0  0  0  0  0  0  0  0  0  0
  -10.5987   -0.9570  -24.0833 H   0  0  0  0  0  0  0  0  0  0  0  0
   -9.7826    0.5000  -23.5058 H   0  0  0  0  0  0  0  0  0  0  0  0
   -7.8739    0.4808  -25.7644 C   0  0  0  0  0  0  0  0  0  0  0  0
   -7.2020    0.2449  -26.7636 O   0  0  0  0  0  0  0  0  0  0  0  0
   -7.5562    1.4925  -24.9252 N   0  0  0  0  0  0  0  0  0  0  0  0
   -6.2363    2.0824  -25.0046 C   0  0  0  0  0  0  0  0  0  0  0  0
   -6.0554    3.1678  -23.9645 C   0  0  0  0  0  0  0  0  0  0  0  0
   -6.7545    3.9924  -24.1309 H   0  0  0  0  0  0  0  0  0  0  0  0
   -5.0329    3.5627  -23.9941 H   0  0  0  0  0  0  0  0  0  0  0  0
   -6.2464    2.7572  -22.9654 H   0  0  0  0  0  0  0  0  0  0  0  0
   -6.0995    2.4543  -26.0202 H   0  0  0  0  0  0  0  0  0  0  0  0
   -5.4852    1.2952  -24.8593 H   0  0  0  0  0  0  0  0  0  0  0  0
   -8.1224    1.6823  -24.1126 H   0  0  0  0  0  0  0  0  0  0  0  0
   -9.3029   -0.9311  -27.4327 H   0  0  0  0  0  0  0  0  0  0  0  0
  -10.5669   -1.5786  -26.2044 H   0  0  0  0  0  0  0  0  0  0  0  0
  1  2  2  0
  2  3  1  0
  3  4  1  0
  4  5  1  0
  5  6  2  0
  5  7  1  0
  7  8  1  0
  8  9  2  0
  9 10  1  0
 10 11  2  0
 11 12  1  0
 12 13  2  0
 13 14  1  0
 14 15  2  0
 15 16  1  0
 16 17  2  0
 16 18  1  0
 15 19  1  0
 14 20  1  0
 13 21  1  0
 11 22  1  0
  9 23  1  0
  7 24  1  0
  4 25  1  0
 25 26  2  0
 26 27  1  0
 27 28  2  0
 28 29  1  0
 29 30  1  0
 29 31  2  0
 31 32  1  0
 28 33  1  0
 27 34  1  0
 26 35  1  0
  3 36  1  0
  3 37  1  0
  2 38  1  0
 38 39  2  0
 38 40  1  0
 40 41  1  0
 41 42  1  0
 42 43  1  0
 42 44  1  0
 42 45  1  0
 41 46  1  0
 41 47  1  0
 40 48  1  0
  1 49  1  0
  1 50  1  0
 17  8  1  0
 31 25  1  0
 17 12  1  0
M  END
>  <cnnaffinities>  (49) 
[5.50263, 5.61038]

>  <score>  (49) 
5.50263

>  <index>  (49) 
51

>  <Smiles>  (49) 
C(=C(C(N(C(=O)N(c1c(nc(c2c(c(c(c(c12)[H])[H])[H])[H])[H])[H])[H])c1c(c(c(c(Cl)c1[H])[H])[H])[H])([H])[H])C(=O)N(C(C([H])([H])[H])([H])[H])[H])([H])[H]

>  <h>  (49) 
<NA>

>  <Training>  (49) 
True

>  <Success>  (49) 
True

>  <enamine_searched>  (49) 
False

>  <enamine_id>  (49) 
nan

$$$$

     RDKit          3D

 57 60  0  0  0  0  0  0  0  0999 V2000
  -14.0153   -1.2322  -24.1860 C   0  0  0  0  0  0  0  0  0  0  0  0
  -13.0777   -2.4471  -24.0892 C   0  0  0  0  0  0  0  0  0  0  0  0
  -11.6095   -2.0385  -23.9234 C   0  0  0  0  0  0  0  0  0  0  0  0
  -11.1342   -1.8491  -22.8209 O   0  0  0  0  0  0  0  0  0  0  0  0
  -10.8776   -1.8657  -25.0811 N   0  0  0  0  0  0  0  0  0  0  0  0
   -9.4720   -1.6613  -25.0984 C   0  0  0  0  0  0  0  0  0  0  0  0
   -8.9083   -0.8503  -26.0876 C   0  0  0  0  0  0  0  0  0  0  0  0
   -7.5339   -0.6493  -26.1068 C   0  0  0  0  0  0  0  0  0  0  0  0
   -6.7048   -1.2599  -25.1754 C   0  0  0  0  0  0  0  0  0  0  0  0
   -7.2678   -2.0736  -24.1952 C   0  0  0  0  0  0  0  0  0  0  0  0
   -6.4149   -2.6989  -23.2355 N   0  0  0  0  0  0  0  0  0  0  0  0
   -5.4294   -3.6739  -23.7156 C   0  0  0  0  0  0  0  0  0  0  0  0
   -6.0352   -5.0202  -24.0660 C   0  0  0  0  0  0  0  0  0  0  0  0
   -6.6584   -5.1937  -25.3008 C   0  0  0  0  0  0  0  0  0  0  0  0
   -7.2920   -6.3913  -25.6031 C   0  0  0  0  0  0  0  0  0  0  0  0
   -7.3119   -7.4239  -24.6761 C   0  0  0  0  0  0  0  0  0  0  0  0
   -6.6437   -7.2866  -23.4609 C   0  0  0  0  0  0  0  0  0  0  0  0
   -6.0100   -6.0827  -23.1594 C   0  0  0  0  0  0  0  0  0  0  0  0
   -5.5270   -5.9417  -22.1933 H   0  0  0  0  0  0  0  0  0  0  0  0
   -6.6266   -8.1003  -22.7366 H   0  0  0  0  0  0  0  0  0  0  0  0
   -7.8944   -8.3041  -24.9333 H   0  0  0  0  0  0  0  0  0  0  0  0
   -7.7997   -6.5324  -26.5539 H   0  0  0  0  0  0  0  0  0  0  0  0
   -6.6850   -4.3729  -26.0165 H   0  0  0  0  0  0  0  0  0  0  0  0
   -4.6743   -3.7867  -22.9347 H   0  0  0  0  0  0  0  0  0  0  0  0
   -4.9521   -3.2451  -24.6022 H   0  0  0  0  0  0  0  0  0  0  0  0
   -6.6502   -2.6794  -21.8725 C   0  0  0  0  0  0  0  0  0  0  0  0
   -6.2432   -3.5798  -21.1570 O   0  0  0  0  0  0  0  0  0  0  0  0
   -7.3845   -1.4682  -21.2760 C   0  0  0  0  0  0  0  0  0  0  0  0
   -6.5743   -0.8212  -20.1768 C   0  0  0  0  0  0  0  0  0  0  0  0
   -6.8710   -1.0443  -18.8591 C   0  0  0  0  0  0  0  0  0  0  0  0
   -6.1821   -0.5363  -17.8044 N   0  0  0  0  0  0  0  0  0  0  0  0
   -5.1532    0.2236  -18.0678 C   0  0  0  0  0  0  0  0  0  0  0  0
   -4.7188    0.5388  -19.3842 C   0  0  0  0  0  0  0  0  0  0  0  0
   -3.5885    1.3601  -19.6230 C   0  0  0  0  0  0  0  0  0  0  0  0
   -3.1908    1.6357  -20.9010 C   0  0  0  0  0  0  0  0  0  0  0  0
   -3.9068    1.0973  -21.9945 C   0  0  0  0  0  0  0  0  0  0  0  0
   -5.0049    0.2998  -21.7903 C   0  0  0  0  0  0  0  0  0  0  0  0
   -5.4446    0.0004  -20.4728 C   0  0  0  0  0  0  0  0  0  0  0  0
   -5.5377   -0.1081  -22.6488 H   0  0  0  0  0  0  0  0  0  0  0  0
   -3.5914    1.3210  -23.0083 H   0  0  0  0  0  0  0  0  0  0  0  0
   -2.3328    2.2766  -21.0848 H   0  0  0  0  0  0  0  0  0  0  0  0
   -3.0588    1.7686  -18.7665 H   0  0  0  0  0  0  0  0  0  0  0  0
   -4.6042    0.6289  -17.2156 H   0  0  0  0  0  0  0  0  0  0  0  0
   -7.7196   -1.6689  -18.5787 H   0  0  0  0  0  0  0  0  0  0  0  0
   -7.6389   -0.7500  -22.0637 H   0  0  0  0  0  0  0  0  0  0  0  0
   -8.3297   -1.8400  -20.8576 H   0  0  0  0  0  0  0  0  0  0  0  0
   -8.6467   -2.2899  -24.1653 C   0  0  0  0  0  0  0  0  0  0  0  0
   -9.0817   -2.9628  -23.4309 H   0  0  0  0  0  0  0  0  0  0  0  0
   -5.6287   -1.1024  -25.1871 H   0  0  0  0  0  0  0  0  0  0  0  0
   -7.0958   -0.0095  -26.8636 H   0  0  0  0  0  0  0  0  0  0  0  0
   -9.5376   -0.3653  -26.8304 H   0  0  0  0  0  0  0  0  0  0  0  0
  -11.3569   -1.8290  -25.9730 H   0  0  0  0  0  0  0  0  0  0  0  0
  -13.3201   -3.0129  -23.1840 H   0  0  0  0  0  0  0  0  0  0  0  0
  -13.2208   -3.1190  -24.9493 H   0  0  0  0  0  0  0  0  0  0  0  0
  -15.0666   -1.5367  -24.2702 H   0  0  0  0  0  0  0  0  0  0  0  0
  -13.9057   -0.5713  -23.3184 H   0  0  0  0  0  0  0  0  0  0  0  0
  -13.7895   -0.6384  -25.0638 H   0  0  0  0  0  0  0  0  0  0  0  0
  1  2  1  0
  2  3  1  0
  3  4  2  0
  3  5  1  0
  5  6  1  0
  6  7  2  0
  7  8  1  0
  8  9  2  0
  9 10  1  0
 10 11  1  0
 11 12  1  0
 12 13  1  0
 13 14  2  0
 14 15  1  0
 15 16  2  0
 16 17  1  0
 17 18  2  0
 18 19  1  0
 17 20  1  0
 16 21  1  0
 15 22  1  0
 14 23  1  0
 12 24  1  0
 12 25  1  0
 11 26  1  0
 26 27  2  0
 26 28  1  0
 28 29  1  0
 29 30  2  0
 30 31  1  0
 31 32  2  0
 32 33  1  0
 33 34  2  0
 34 35  1  0
 35 36  2  0
 36 37  1  0
 37 38  2  0
 37 39  1  0
 36 40  1  0
 35 41  1  0
 34 42  1  0
 32 43  1  0
 30 44  1  0
 28 45  1  0
 28 46  1  0
 10 47  2  0
 47 48  1  0
  9 49  1  0
  8 50  1  0
  7 51  1  0
  5 52  1  0
  2 53  1  0
  2 54  1  0
  1 55  1  0
  1 56  1  0
  1 57  1  0
 47  6  1  0
 18 13  1  0
 38 29  1  0
 38 33  1  0
M  END
>  <cnnaffinities>  (50) 
[6.3754, 6.174]

>  <score>  (50) 
6.3754

>  <index>  (50) 
52

>  <Smiles>  (50) 
C(C(C(=O)N(c1c(c(c(c(N(C(c2c(c(c(c(c2[H])[H])[H])[H])[H])([H])[H])C(=O)C(c2c(nc(c3c(c(c(c(c23)[H])[H])[H])[H])[H])[H])([H])[H])c1[H])[H])[H])[H])[H])([H])[H])([H])([H])[H]

>  <h>  (50) 
<NA>

>  <Training>  (50) 
True

>  <Success>  (50) 
True

>  <enamine_searched>  (50) 
False

>  <enamine_id>  (50) 
nan

$$$$

     RDKit          3D

 59 63  0  0  0  0  0  0  0  0999 V2000
  -13.9629   -1.0612  -24.5311 C   0  0  0  0  0  0  0  0  0  0  0  0
  -14.8548   -2.0957  -23.8475 C   0  0  0  0  0  0  0  0  0  0  0  0
  -14.0666   -3.1232  -23.1921 N   0  0  0  0  0  0  0  0  0  0  0  0
  -13.2904   -2.7825  -22.1195 C   0  0  0  0  0  0  0  0  0  0  0  0
  -13.3303   -1.6996  -21.5599 O   0  0  0  0  0  0  0  0  0  0  0  0
  -12.4111   -3.9359  -21.6670 C   0  0  0  0  0  0  0  0  0  0  0  0
  -11.0925   -3.8822  -22.2642 N   0  0  0  0  0  0  0  0  0  0  0  0
   -9.9726   -3.3770  -21.4792 C   0  0  0  0  0  0  0  0  0  0  0  0
   -8.7849   -2.9147  -22.3544 C   0  0  2  0  0  0  0  0  0  0  0  0
   -7.5612   -2.7013  -21.4497 C   0  0  0  0  0  0  0  0  0  0  0  0
   -6.8295   -3.5605  -21.0020 O   0  0  0  0  0  0  0  0  0  0  0  0
   -7.3990   -1.3494  -21.2384 N   0  0  0  0  0  0  0  0  0  0  0  0
   -6.5779   -0.8557  -20.1974 C   0  0  0  0  0  0  0  0  0  0  0  0
   -6.8868   -1.0990  -18.8832 C   0  0  0  0  0  0  0  0  0  0  0  0
   -6.2127   -0.5657  -17.8353 N   0  0  0  0  0  0  0  0  0  0  0  0
   -5.1936    0.2115  -18.0971 C   0  0  0  0  0  0  0  0  0  0  0  0
   -4.7473    0.5220  -19.4126 C   0  0  0  0  0  0  0  0  0  0  0  0
   -3.6195    1.3481  -19.6471 C   0  0  0  0  0  0  0  0  0  0  0  0
   -3.2162    1.6143  -20.9260 C   0  0  0  0  0  0  0  0  0  0  0  0
   -3.9186    1.0664  -22.0239 C   0  0  0  0  0  0  0  0  0  0  0  0
   -5.0138    0.2634  -21.8218 C   0  0  0  0  0  0  0  0  0  0  0  0
   -5.4585   -0.0219  -20.5046 C   0  0  0  0  0  0  0  0  0  0  0  0
   -5.5363   -0.1717  -22.6681 H   0  0  0  0  0  0  0  0  0  0  0  0
   -3.5882    1.2816  -23.0346 H   0  0  0  0  0  0  0  0  0  0  0  0
   -2.3607    2.2570  -21.1062 H   0  0  0  0  0  0  0  0  0  0  0  0
   -3.0946    1.7609  -18.7894 H   0  0  0  0  0  0  0  0  0  0  0  0
   -4.6553    0.6311  -17.2468 H   0  0  0  0  0  0  0  0  0  0  0  0
   -7.7283   -1.7373  -18.6264 H   0  0  0  0  0  0  0  0  0  0  0  0
   -8.3947   -0.5257  -21.9043 C   0  0  0  0  0  0  0  0  0  0  0  0
   -9.0071   -1.4749  -22.9441 C   0  0  2  0  0  0  0  0  0  0  0  0
  -10.4501   -1.1247  -23.2796 C   0  0  0  0  0  0  0  0  0  0  0  0
  -10.5310   -0.1587  -23.7872 H   0  0  0  0  0  0  0  0  0  0  0  0
  -11.0606   -1.0888  -22.3688 H   0  0  0  0  0  0  0  0  0  0  0  0
  -10.8802   -1.8911  -23.9319 H   0  0  0  0  0  0  0  0  0  0  0  0
   -8.3957   -1.4357  -23.8566 H   0  0  0  0  0  0  0  0  0  0  0  0
   -7.9319    0.3541  -22.3636 H   0  0  0  0  0  0  0  0  0  0  0  0
   -9.1531   -0.1632  -21.1906 H   0  0  0  0  0  0  0  0  0  0  0  0
   -8.5205   -3.9649  -23.4033 C   0  0  0  0  0  0  0  0  0  0  0  0
   -7.2476   -4.0914  -23.9620 C   0  0  0  0  0  0  0  0  0  0  0  0
   -7.0209   -5.0299  -24.9504 C   0  0  0  0  0  0  0  0  0  0  0  0
   -5.4483   -5.1270  -25.6806 Cl  0  0  0  0  0  0  0  0  0  0  0  0
   -8.0282   -5.8806  -25.4020 C   0  0  0  0  0  0  0  0  0  0  0  0
   -9.2901   -5.7471  -24.8578 C   0  0  0  0  0  0  0  0  0  0  0  0
   -9.5448   -4.7809  -23.8887 C   0  0  0  0  0  0  0  0  0  0  0  0
  -10.9424   -4.5929  -23.4177 C   0  0  0  0  0  0  0  0  0  0  0  0
  -11.9098   -5.0414  -24.0346 O   0  0  0  0  0  0  0  0  0  0  0  0
  -10.1063   -6.3858  -25.1723 H   0  0  0  0  0  0  0  0  0  0  0  0
   -7.8251   -6.6211  -26.1693 H   0  0  0  0  0  0  0  0  0  0  0  0
   -6.4266   -3.4737  -23.6152 H   0  0  0  0  0  0  0  0  0  0  0  0
   -9.6491   -4.1690  -20.7942 H   0  0  0  0  0  0  0  0  0  0  0  0
  -10.3134   -2.5022  -20.9095 H   0  0  0  0  0  0  0  0  0  0  0  0
  -12.9033   -4.8013  -22.0963 H   0  0  0  0  0  0  0  0  0  0  0  0
  -12.3554   -4.0145  -20.5787 H   0  0  0  0  0  0  0  0  0  0  0  0
  -13.6930   -3.8661  -23.7816 H   0  0  0  0  0  0  0  0  0  0  0  0
  -15.4705   -1.6191  -23.0735 H   0  0  0  0  0  0  0  0  0  0  0  0
  -15.5102   -2.6148  -24.5554 H   0  0  0  0  0  0  0  0  0  0  0  0
  -14.5518   -0.3081  -25.0582 H   0  0  0  0  0  0  0  0  0  0  0  0
  -13.2859   -1.5469  -25.2519 H   0  0  0  0  0  0  0  0  0  0  0  0
  -13.3706   -0.5615  -23.7552 H   0  0  0  0  0  0  0  0  0  0  0  0
  1  2  1  0
  2  3  1  0
  3  4  1  0
  4  5  2  0
  4  6  1  0
  6  7  1  0
  7  8  1  0
  9  8  1  1
  9 10  1  0
 10 11  2  0
 10 12  1  0
 12 13  1  0
 13 14  2  0
 14 15  1  0
 15 16  2  0
 16 17  1  0
 17 18  2  0
 18 19  1  0
 19 20  2  0
 20 21  1  0
 21 22  2  0
 21 23  1  0
 20 24  1  0
 19 25  1  0
 18 26  1  0
 16 27  1  0
 14 28  1  0
 12 29  1  0
 29 30  1  0
 30 31  1  0
 31 32  1  0
 31 33  1  0
 31 34  1  0
 30 35  1  6
 29 36  1  0
 29 37  1  0
  9 38  1  0
 38 39  2  0
 39 40  1  0
 40 41  1  0
 40 42  2  0
 42 43  1  0
 43 44  2  0
 44 45  1  0
 45 46  2  0
 43 47  1  0
 42 48  1  0
 39 49  1  0
  8 50  1  0
  8 51  1  0
  6 52  1  0
  6 53  1  0
  3 54  1  0
  2 55  1  0
  2 56  1  0
  1 57  1  0
  1 58  1  0
  1 59  1  0
 45  7  1  0
 30  9  1  0
 44 38  1  0
 22 13  1  0
 22 17  1  0
M  END
>  <cnnaffinities>  (51) 
[6.64882]

>  <score>  (51) 
6.64882

>  <index>  (51) 
53

>  <Smiles>  (51) 
C(C(N(C(=O)C(N1C([C@@]2(C(=O)N(c3c(nc(c4c(c(c(c(c34)[H])[H])[H])[H])[H])[H])C([C@@]2(C([H])([H])[H])[H])([H])[H])c2c(c(Cl)c(c(c2C1=O)[H])[H])[H])([H])[H])([H])[H])[H])([H])[H])([H])([H])[H]

>  <h>  (51) 
<NA>

>  <Training>  (51) 
True

>  <Success>  (51) 
True

>  <enamine_searched>  (51) 
False

>  <enamine_id>  (51) 
nan

$$$$

     RDKit          3D

 40 43  0  0  0  0  0  0  0  0999 V2000
  -10.3234   -2.3057  -23.0019 C   0  0  0  0  0  0  0  0  0  0  0  0
   -8.9835   -2.1728  -22.4694 N   0  0  0  0  0  0  0  0  0  0  0  0
   -7.7936   -2.6477  -22.9380 C   0  0  0  0  0  0  0  0  0  0  0  0
   -7.6689   -3.3469  -24.2485 C   0  0  0  0  0  0  0  0  0  0  0  0
   -7.6795   -2.3455  -25.3960 C   0  0  0  0  0  0  0  0  0  0  0  0
   -8.8040   -2.1589  -26.1985 C   0  0  0  0  0  0  0  0  0  0  0  0
   -8.7956   -1.2236  -27.2344 C   0  0  0  0  0  0  0  0  0  0  0  0
   -7.6606   -0.4516  -27.4642 C   0  0  0  0  0  0  0  0  0  0  0  0
   -6.5404   -0.6145  -26.6524 C   0  0  0  0  0  0  0  0  0  0  0  0
   -6.5565   -1.5519  -25.6228 C   0  0  0  0  0  0  0  0  0  0  0  0
   -5.6917   -1.6771  -24.9725 H   0  0  0  0  0  0  0  0  0  0  0  0
   -5.6501   -0.0131  -26.8231 H   0  0  0  0  0  0  0  0  0  0  0  0
   -7.6488    0.2774  -28.2719 H   0  0  0  0  0  0  0  0  0  0  0  0
   -9.6711   -1.1026  -27.8687 H   0  0  0  0  0  0  0  0  0  0  0  0
   -9.6997   -2.7495  -26.0072 H   0  0  0  0  0  0  0  0  0  0  0  0
   -6.7327   -3.9150  -24.2434 H   0  0  0  0  0  0  0  0  0  0  0  0
   -8.4912   -4.0609  -24.3789 H   0  0  0  0  0  0  0  0  0  0  0  0
   -6.7917   -2.2485  -22.2084 N   0  0  0  0  0  0  0  0  0  0  0  0
   -7.3444   -1.4591  -21.2335 N   0  0  0  0  0  0  0  0  0  0  0  0
   -6.5717   -0.8660  -20.1974 C   0  0  0  0  0  0  0  0  0  0  0  0
   -6.8965   -1.0715  -18.8772 C   0  0  0  0  0  0  0  0  0  0  0  0
   -6.2050   -0.5479  -17.8386 N   0  0  0  0  0  0  0  0  0  0  0  0
   -5.1711    0.2060  -18.1011 C   0  0  0  0  0  0  0  0  0  0  0  0
   -4.7335    0.5182  -19.4142 C   0  0  0  0  0  0  0  0  0  0  0  0
   -3.6092    1.3598  -19.6357 C   0  0  0  0  0  0  0  0  0  0  0  0
   -3.2235    1.6720  -20.9083 C   0  0  0  0  0  0  0  0  0  0  0  0
   -3.9579    1.1642  -22.0064 C   0  0  0  0  0  0  0  0  0  0  0  0
   -5.0448    0.3492  -21.8151 C   0  0  0  0  0  0  0  0  0  0  0  0
   -5.4553   -0.0231  -20.5049 C   0  0  0  0  0  0  0  0  0  0  0  0
   -5.6067   -0.0410  -22.6556 H   0  0  0  0  0  0  0  0  0  0  0  0
   -3.6509    1.4185  -23.0152 H   0  0  0  0  0  0  0  0  0  0  0  0
   -2.3670    2.3184  -21.0840 H   0  0  0  0  0  0  0  0  0  0  0  0
   -3.0797    1.7518  -18.7707 H   0  0  0  0  0  0  0  0  0  0  0  0
   -4.6260    0.6113  -17.2475 H   0  0  0  0  0  0  0  0  0  0  0  0
   -7.7540   -1.6773  -18.6017 H   0  0  0  0  0  0  0  0  0  0  0  0
   -8.6973   -1.2626  -21.4572 C   0  0  0  0  0  0  0  0  0  0  0  0
   -9.4339   -0.4340  -20.9736 O   0  0  0  0  0  0  0  0  0  0  0  0
  -10.4950   -1.5478  -23.7700 H   0  0  0  0  0  0  0  0  0  0  0  0
  -10.5082   -3.3090  -23.4009 H   0  0  0  0  0  0  0  0  0  0  0  0
  -10.9981   -2.1140  -22.1690 H   0  0  0  0  0  0  0  0  0  0  0  0
  1  2  1  0
  2  3  1  0
  3  4  1  0
  4  5  1  0
  5  6  2  0
  6  7  1  0
  7  8  2  0
  8  9  1  0
  9 10  2  0
 10 11  1  0
  9 12  1  0
  8 13  1  0
  7 14  1  0
  6 15  1  0
  4 16  1  0
  4 17  1  0
  3 18  2  0
 18 19  1  0
 19 20  1  0
 20 21  2  0
 21 22  1  0
 22 23  2  0
 23 24  1  0
 24 25  2  0
 25 26  1  0
 26 27  2  0
 27 28  1  0
 28 29  2  0
 28 30  1  0
 27 31  1  0
 26 32  1  0
 25 33  1  0
 23 34  1  0
 21 35  1  0
 19 36  1  0
 36 37  2  0
  1 38  1  0
  1 39  1  0
  1 40  1  0
 36  2  1  0
 10  5  1  0
 29 20  1  0
 29 24  1  0
M  END
>  <cnnaffinities>  (52) 
[4.78767, 4.78767, 5.1691, 5.16212]

>  <score>  (52) 
4.78767

>  <index>  (52) 
54

>  <Smiles>  (52) 
C(n1c(C(c2c(c(c(c(c2[H])[H])[H])[H])[H])([H])[H])nn(c2c(nc(c3c(c(c(c(c23)[H])[H])[H])[H])[H])[H])c1=O)([H])([H])[H]

>  <h>  (52) 
<NA>

>  <Training>  (52) 
True

>  <Success>  (52) 
True

>  <enamine_searched>  (52) 
False

>  <enamine_id>  (52) 
nan

$$$$

     RDKit          3D

 61 66  0  0  0  0  0  0  0  0999 V2000
   -7.0112   -5.4573  -25.0433 C   0  0  0  0  0  0  0  0  0  0  0  0
   -7.3441   -4.7942  -23.8494 O   0  0  0  0  0  0  0  0  0  0  0  0
   -7.9926   -3.5688  -24.0824 C   0  0  0  0  0  0  0  0  0  0  0  0
   -8.2918   -2.9114  -22.7386 C   0  0  1  0  0  0  0  0  0  0  0  0
   -7.0113   -2.5477  -21.9649 C   0  0  0  0  0  0  0  0  0  0  0  0
   -7.3898   -1.3683  -21.2124 N   0  0  0  0  0  0  0  0  0  0  0  0
   -6.5981   -0.8054  -20.1833 C   0  0  0  0  0  0  0  0  0  0  0  0
   -6.9131   -1.0385  -18.8688 C   0  0  0  0  0  0  0  0  0  0  0  0
   -6.2097   -0.5441  -17.8224 N   0  0  0  0  0  0  0  0  0  0  0  0
   -5.1767    0.2149  -18.0888 C   0  0  0  0  0  0  0  0  0  0  0  0
   -4.7443    0.5387  -19.4062 C   0  0  0  0  0  0  0  0  0  0  0  0
   -3.6248    1.3773  -19.6458 C   0  0  0  0  0  0  0  0  0  0  0  0
   -3.2384    1.6686  -20.9252 C   0  0  0  0  0  0  0  0  0  0  0  0
   -3.9362    1.1231  -22.0235 C   0  0  0  0  0  0  0  0  0  0  0  0
   -5.0127    0.2925  -21.8157 C   0  0  0  0  0  0  0  0  0  0  0  0
   -5.4575   -0.0053  -20.4977 C   0  0  0  0  0  0  0  0  0  0  0  0
   -5.5674   -0.0814  -22.6713 H   0  0  0  0  0  0  0  0  0  0  0  0
   -3.6243    1.3767  -23.0345 H   0  0  0  0  0  0  0  0  0  0  0  0
   -2.3874    2.3182  -21.1030 H   0  0  0  0  0  0  0  0  0  0  0  0
   -3.0848    1.7694  -18.7903 H   0  0  0  0  0  0  0  0  0  0  0  0
   -4.6080    0.6111  -17.2451 H   0  0  0  0  0  0  0  0  0  0  0  0
   -7.7769   -1.6541  -18.6251 H   0  0  0  0  0  0  0  0  0  0  0  0
   -8.5953   -0.8165  -21.5789 C   0  0  0  0  0  0  0  0  0  0  0  0
   -9.1165    0.1373  -21.0338 O   0  0  0  0  0  0  0  0  0  0  0  0
   -9.1378   -1.6085  -22.7874 C   0  0  1  0  0  0  0  0  0  0  0  0
   -8.8610   -0.8338  -24.0970 C   0  0  0  0  0  0  0  0  0  0  0  0
   -9.6819    0.3520  -24.2165 N   0  0  0  0  0  0  0  0  0  0  0  0
   -9.0461    1.5581  -24.7202 C   0  0  0  0  0  0  0  0  0  0  0  0
   -8.2083    2.2277  -23.6753 C   0  0  0  0  0  0  0  0  0  0  0  0
   -6.8690    2.3422  -23.4998 C   0  0  0  0  0  0  0  0  0  0  0  0
   -6.6583    3.0479  -22.3378 N   0  0  0  0  0  4  0  0  0  0  0  0
   -7.8398    3.3544  -21.8061 C   0  0  0  0  0  0  0  0  0  0  0  0
   -8.7972    2.8661  -22.5986 N   0  0  0  0  0  0  0  0  0  0  0  0
   -9.7725    2.8364  -22.3299 H   0  0  0  0  0  0  0  0  0  0  0  0
   -8.0487    3.9366  -20.9316 H   0  0  0  0  0  0  0  0  0  0  0  0
   -5.7395    3.1190  -21.9167 H   0  0  0  0  0  0  0  0  0  0  0  0
   -6.0273    1.9553  -24.0522 H   0  0  0  0  0  0  0  0  0  0  0  0
   -9.8508    2.2179  -25.0596 H   0  0  0  0  0  0  0  0  0  0  0  0
   -8.4424    1.2949  -25.5961 H   0  0  0  0  0  0  0  0  0  0  0  0
  -11.0331    0.3115  -24.0236 C   0  0  0  0  0  0  0  0  0  0  0  0
  -11.7867    1.1925  -24.4129 O   0  0  0  0  0  0  0  0  0  0  0  0
  -11.5285   -0.8830  -23.2667 C   0  0  0  0  0  0  0  0  0  0  0  0
  -12.9078   -1.0201  -23.1236 C   0  0  0  0  0  0  0  0  0  0  0  0
  -13.4290   -2.0014  -22.3079 C   0  0  0  0  0  0  0  0  0  0  0  0
  -12.5418   -2.8339  -21.6275 C   0  0  0  0  0  0  0  0  0  0  0  0
  -13.1830   -3.9635  -20.4745 Cl  0  0  0  0  0  0  0  0  0  0  0  0
  -11.1732   -2.7543  -21.8120 C   0  0  0  0  0  0  0  0  0  0  0  0
  -10.6383   -1.7820  -22.6615 C   0  0  0  0  0  0  0  0  0  0  0  0
  -10.5301   -3.4428  -21.2748 H   0  0  0  0  0  0  0  0  0  0  0  0
  -14.4973   -2.1170  -22.1607 H   0  0  0  0  0  0  0  0  0  0  0  0
  -13.5464   -0.3141  -23.6417 H   0  0  0  0  0  0  0  0  0  0  0  0
   -9.0700   -1.5010  -24.9413 H   0  0  0  0  0  0  0  0  0  0  0  0
   -7.8077   -0.5364  -24.1513 H   0  0  0  0  0  0  0  0  0  0  0  0
   -6.1735   -2.3390  -22.6459 H   0  0  0  0  0  0  0  0  0  0  0  0
   -6.7021   -3.3492  -21.2887 H   0  0  0  0  0  0  0  0  0  0  0  0
   -8.8327   -3.6529  -22.1517 H   0  0  0  0  0  0  0  0  0  0  0  0
   -8.9276   -3.7318  -24.6472 H   0  0  0  0  0  0  0  0  0  0  0  0
   -7.3477   -2.9075  -24.6893 H   0  0  0  0  0  0  0  0  0  0  0  0
   -6.5449   -6.4078  -24.7748 H   0  0  0  0  0  0  0  0  0  0  0  0
   -7.9002   -5.6687  -25.6602 H   0  0  0  0  0  0  0  0  0  0  0  0
   -6.2953   -4.8778  -25.6486 H   0  0  0  0  0  0  0  0  0  0  0  0
  1  2  1  0
  2  3  1  0
  3  4  1  0
  4  5  1  0
  5  6  1  0
  6  7  1  0
  7  8  2  0
  8  9  1  0
  9 10  2  0
 10 11  1  0
 11 12  2  0
 12 13  1  0
 13 14  2  0
 14 15  1  0
 15 16  2  0
 15 17  1  0
 14 18  1  0
 13 19  1  0
 12 20  1  0
 10 21  1  0
  8 22  1  0
  6 23  1  0
 23 24  2  0
 23 25  1  0
 25 26  1  6
 26 27  1  0
 27 28  1  0
 28 29  1  0
 29 30  2  0
 30 31  1  0
 31 32  2  0
 32 33  1  0
 33 34  1  0
 32 35  1  0
 31 36  1  0
 30 37  1  0
 28 38  1  0
 28 39  1  0
 27 40  1  0
 40 41  2  0
 40 42  1  0
 42 43  2  0
 43 44  1  0
 44 45  2  0
 45 46  1  0
 45 47  1  0
 47 48  2  0
 47 49  1  0
 44 50  1  0
 43 51  1  0
 26 52  1  0
 26 53  1  0
  5 54  1  0
  5 55  1  0
  4 56  1  1
  3 57  1  0
  3 58  1  0
  1 59  1  0
  1 60  1  0
  1 61  1  0
 25  4  1  0
 33 29  1  0
 48 42  1  0
 16  7  1  0
 48 25  1  0
 16 11  1  0
M  CHG  1  31   1
M  END
>  <cnnaffinities>  (53) 
[6.72674, 6.54377]

>  <score>  (53) 
6.72674

>  <index>  (53) 
55

>  <Smiles>  (53) 
C(OC([C@]1(C(N(c2c(nc(c3c(c(c(c(c23)[H])[H])[H])[H])[H])[H])C(=O)[C@]21C(N(C(c1c([n+](c(n1[H])[H])[H])[H])([H])[H])C(=O)c1c(c(c(Cl)c(c21)[H])[H])[H])([H])[H])([H])[H])[H])([H])[H])([H])([H])[H]

>  <h>  (53) 
<NA>

>  <Training>  (53) 
True

>  <Success>  (53) 
True

>  <enamine_searched>  (53) 
False

>  <enamine_id>  (53) 
nan

$$$$

     RDKit          3D

 57 62  0  0  0  0  0  0  0  0999 V2000
  -10.4316   -1.0415  -23.3190 C   0  0  0  0  0  0  0  0  0  0  0  0
   -8.9994   -1.4229  -22.9638 C   0  0  1  0  0  0  0  0  0  0  0  0
   -8.3886   -0.4941  -21.8993 C   0  0  0  0  0  0  0  0  0  0  0  0
   -7.3980   -1.3333  -21.2514 N   0  0  0  0  0  0  0  0  0  0  0  0
   -6.5750   -0.8523  -20.2040 C   0  0  0  0  0  0  0  0  0  0  0  0
   -6.8830   -1.1075  -18.8928 C   0  0  0  0  0  0  0  0  0  0  0  0
   -6.2085   -0.5770  -17.8438 N   0  0  0  0  0  0  0  0  0  0  0  0
   -5.1958    0.2119  -18.0973 C   0  0  0  0  0  0  0  0  0  0  0  0
   -4.7487    0.5338  -19.4101 C   0  0  0  0  0  0  0  0  0  0  0  0
   -3.6200    1.3617  -19.6458 C   0  0  0  0  0  0  0  0  0  0  0  0
   -3.2183    1.6244  -20.9271 C   0  0  0  0  0  0  0  0  0  0  0  0
   -3.9177    1.0707  -22.0239 C   0  0  0  0  0  0  0  0  0  0  0  0
   -5.0121    0.2669  -21.8209 C   0  0  0  0  0  0  0  0  0  0  0  0
   -5.4560   -0.0136  -20.5028 C   0  0  0  0  0  0  0  0  0  0  0  0
   -5.5384   -0.1811  -22.6585 H   0  0  0  0  0  0  0  0  0  0  0  0
   -3.5862    1.2755  -23.0373 H   0  0  0  0  0  0  0  0  0  0  0  0
   -2.3571    2.2602  -21.1128 H   0  0  0  0  0  0  0  0  0  0  0  0
   -3.0867    1.7744  -18.7932 H   0  0  0  0  0  0  0  0  0  0  0  0
   -4.6651    0.6300  -17.2409 H   0  0  0  0  0  0  0  0  0  0  0  0
   -7.7203   -1.7544  -18.6380 H   0  0  0  0  0  0  0  0  0  0  0  0
   -7.5942   -2.6829  -21.4649 C   0  0  0  0  0  0  0  0  0  0  0  0
   -6.8940   -3.5540  -20.9949 O   0  0  0  0  0  0  0  0  0  0  0  0
   -8.7989   -2.8794  -22.4033 C   0  0  1  0  0  0  0  0  0  0  0  0
  -10.0071   -3.3353  -21.5418 C   0  0  0  0  0  0  0  0  0  0  0  0
  -11.1200   -3.8704  -22.3247 N   0  0  0  0  0  0  0  0  0  0  0  0
  -12.4872   -3.8525  -21.8092 C   0  0  0  0  0  0  0  0  0  0  0  0
  -13.3130   -2.7805  -22.4507 C   0  0  0  0  0  0  0  0  0  0  0  0
  -13.7883   -3.0868  -23.6706 N   0  0  0  0  0  0  0  0  0  0  0  0
  -14.5247   -2.1576  -24.2545 C   0  0  0  0  0  0  0  0  0  0  0  0
  -14.7881   -0.9573  -23.6308 C   0  0  0  0  0  0  0  0  0  0  0  0
  -14.2599   -0.7487  -22.3852 C   0  0  0  0  0  0  0  0  0  0  0  0
  -13.4947   -1.6532  -21.7733 N   0  0  0  0  0  0  0  0  0  0  0  0
  -14.4691    0.1878  -21.8819 H   0  0  0  0  0  0  0  0  0  0  0  0
  -15.3723   -0.1958  -24.0838 H   0  0  0  0  0  0  0  0  0  0  0  0
  -14.9232   -2.3604  -25.2461 H   0  0  0  0  0  0  0  0  0  0  0  0
  -12.9570   -4.7718  -22.1441 H   0  0  0  0  0  0  0  0  0  0  0  0
  -12.4743   -3.7743  -20.7229 H   0  0  0  0  0  0  0  0  0  0  0  0
  -10.9036   -4.6910  -23.3969 C   0  0  0  0  0  0  0  0  0  0  0  0
  -11.8064   -5.3148  -23.9367 O   0  0  0  0  0  0  0  0  0  0  0  0
   -9.5091   -4.7830  -23.9098 C   0  0  0  0  0  0  0  0  0  0  0  0
   -9.2601   -5.7536  -24.8817 C   0  0  0  0  0  0  0  0  0  0  0  0
   -8.0007   -5.9014  -25.4270 C   0  0  0  0  0  0  0  0  0  0  0  0
   -7.0007   -5.0359  -24.9945 C   0  0  0  0  0  0  0  0  0  0  0  0
   -5.7659   -5.1752  -25.5072 F   0  0  0  0  0  0  0  0  0  0  0  0
   -7.2177   -4.0758  -24.0221 C   0  0  0  0  0  0  0  0  0  0  0  0
   -8.4971   -3.9320  -23.4573 C   0  0  0  0  0  0  0  0  0  0  0  0
   -6.3682   -3.4944  -23.6779 H   0  0  0  0  0  0  0  0  0  0  0  0
   -7.7889   -6.6768  -26.1573 H   0  0  0  0  0  0  0  0  0  0  0  0
  -10.0783   -6.3978  -25.1935 H   0  0  0  0  0  0  0  0  0  0  0  0
   -9.6570   -4.0830  -20.8254 H   0  0  0  0  0  0  0  0  0  0  0  0
  -10.3302   -2.4601  -20.9673 H   0  0  0  0  0  0  0  0  0  0  0  0
   -7.9302    0.4026  -22.3300 H   0  0  0  0  0  0  0  0  0  0  0  0
   -9.1496   -0.1373  -21.1847 H   0  0  0  0  0  0  0  0  0  0  0  0
   -8.3749   -1.3710  -23.8657 H   0  0  0  0  0  0  0  0  0  0  0  0
  -10.4830   -0.0777  -23.8349 H   0  0  0  0  0  0  0  0  0  0  0  0
  -11.0491   -0.9587  -22.4183 H   0  0  0  0  0  0  0  0  0  0  0  0
  -10.8813   -1.8018  -23.9638 H   0  0  0  0  0  0  0  0  0  0  0  0
  1  2  1  0
  2  3  1  0
  3  4  1  0
  4  5  1  0
  5  6  2  0
  6  7  1  0
  7  8  2  0
  8  9  1  0
  9 10  2  0
 10 11  1  0
 11 12  2  0
 12 13  1  0
 13 14  2  0
 13 15  1  0
 12 16  1  0
 11 17  1  0
 10 18  1  0
  8 19  1  0
  6 20  1  0
  4 21  1  0
 21 22  2  0
 21 23  1  0
 23 24  1  1
 24 25  1  0
 25 26  1  0
 26 27  1  0
 27 28  2  0
 28 29  1  0
 29 30  2  0
 30 31  1  0
 31 32  2  0
 31 33  1  0
 30 34  1  0
 29 35  1  0
 26 36  1  0
 26 37  1  0
 25 38  1  0
 38 39  2  0
 38 40  1  0
 40 41  2  0
 41 42  1  0
 42 43  2  0
 43 44  1  0
 43 45  1  0
 45 46  2  0
 45 47  1  0
 42 48  1  0
 41 49  1  0
 24 50  1  0
 24 51  1  0
  3 52  1  0
  3 53  1  0
  2 54  1  6
  1 55  1  0
  1 56  1  0
  1 57  1  0
 23  2  1  0
 32 27  1  0
 46 40  1  0
 14  5  1  0
 46 23  1  0
 14  9  1  0
M  END
>  <cnnaffinities>  (54) 
[6.88135]

>  <score>  (54) 
6.88135

>  <index>  (54) 
56

>  <Smiles>  (54) 
C([C@]1(C(N(c2c(nc(c3c(c(c(c(c23)[H])[H])[H])[H])[H])[H])C(=O)[C@]21C(N(C(c1nc(c(c(n1)[H])[H])[H])([H])[H])C(=O)c1c(c(c(F)c(c21)[H])[H])[H])([H])[H])([H])[H])[H])([H])([H])[H]

>  <h>  (54) 
<NA>

>  <Training>  (54) 
True

>  <Success>  (54) 
True

>  <enamine_searched>  (54) 
False

>  <enamine_id>  (54) 
nan

$$$$

     RDKit          3D

 59 63  0  0  0  0  0  0  0  0999 V2000
  -14.5163   -1.2717  -23.5987 C   0  0  0  0  0  0  0  0  0  0  0  0
  -13.7669   -2.4444  -23.1986 N   0  0  0  0  0  0  0  0  0  0  0  0
  -13.4776   -2.6613  -21.8876 C   0  0  0  0  0  0  0  0  0  0  0  0
  -13.9434   -1.9677  -20.9999 O   0  0  0  0  0  0  0  0  0  0  0  0
  -12.5388   -3.8418  -21.6054 C   0  0  0  0  0  0  0  0  0  0  0  0
  -11.2164   -3.7717  -22.2186 N   0  0  0  0  0  0  0  0  0  0  0  0
  -10.0668   -3.2874  -21.4540 C   0  0  0  0  0  0  0  0  0  0  0  0
   -8.8399   -2.9298  -22.3358 C   0  0  2  0  0  0  0  0  0  0  0  0
   -7.6057   -2.7066  -21.4408 C   0  0  0  0  0  0  0  0  0  0  0  0
   -6.8657   -3.5621  -20.9927 O   0  0  0  0  0  0  0  0  0  0  0  0
   -7.4075   -1.3552  -21.2633 N   0  0  0  0  0  0  0  0  0  0  0  0
   -6.5918   -0.8550  -20.2143 C   0  0  0  0  0  0  0  0  0  0  0  0
   -6.8959   -1.1038  -18.8987 C   0  0  0  0  0  0  0  0  0  0  0  0
   -6.2208   -0.5732  -17.8483 N   0  0  0  0  0  0  0  0  0  0  0  0
   -5.2062    0.2097  -18.1052 C   0  0  0  0  0  0  0  0  0  0  0  0
   -4.7588    0.5238  -19.4180 C   0  0  0  0  0  0  0  0  0  0  0  0
   -3.6280    1.3491  -19.6466 C   0  0  0  0  0  0  0  0  0  0  0  0
   -3.2190    1.6175  -20.9227 C   0  0  0  0  0  0  0  0  0  0  0  0
   -3.9187    1.0725  -22.0241 C   0  0  0  0  0  0  0  0  0  0  0  0
   -5.0180    0.2739  -21.8259 C   0  0  0  0  0  0  0  0  0  0  0  0
   -5.4701   -0.0179  -20.5135 C   0  0  0  0  0  0  0  0  0  0  0  0
   -5.5441   -0.1535  -22.6733 H   0  0  0  0  0  0  0  0  0  0  0  0
   -3.5837    1.2835  -23.0348 H   0  0  0  0  0  0  0  0  0  0  0  0
   -2.3576    2.2548  -21.1009 H   0  0  0  0  0  0  0  0  0  0  0  0
   -3.1019    1.7588  -18.7869 H   0  0  0  0  0  0  0  0  0  0  0  0
   -4.6712    0.6276  -17.2505 H   0  0  0  0  0  0  0  0  0  0  0  0
   -7.7319   -1.7495  -18.6413 H   0  0  0  0  0  0  0  0  0  0  0  0
   -8.4129   -0.5465  -21.9295 C   0  0  0  0  0  0  0  0  0  0  0  0
   -9.0121   -1.4855  -23.0081 C   0  0  0  0  0  0  0  0  0  0  0  0
  -10.4595   -1.0815  -23.3047 C   0  0  0  0  0  0  0  0  0  0  0  0
  -11.0740   -1.0702  -22.4001 H   0  0  0  0  0  0  0  0  0  0  0  0
  -10.9068   -1.7846  -24.0106 H   0  0  0  0  0  0  0  0  0  0  0  0
  -10.4994   -0.0819  -23.7493 H   0  0  0  0  0  0  0  0  0  0  0  0
   -8.2205   -1.4117  -24.3226 C   0  0  0  0  0  0  0  0  0  0  0  0
   -8.6254   -2.1362  -25.0371 H   0  0  0  0  0  0  0  0  0  0  0  0
   -8.3024   -0.4144  -24.7653 H   0  0  0  0  0  0  0  0  0  0  0  0
   -7.1608   -1.6558  -24.1851 H   0  0  0  0  0  0  0  0  0  0  0  0
   -7.9631    0.3555  -22.3557 H   0  0  0  0  0  0  0  0  0  0  0  0
   -9.1890   -0.2163  -21.2179 H   0  0  0  0  0  0  0  0  0  0  0  0
   -8.6012   -4.1003  -23.2664 C   0  0  0  0  0  0  0  0  0  0  0  0
   -7.3176   -4.4625  -23.7052 C   0  0  0  0  0  0  0  0  0  0  0  0
   -7.1612   -5.4701  -24.6421 C   0  0  0  0  0  0  0  0  0  0  0  0
   -5.5627   -5.8554  -25.2273 Cl  0  0  0  0  0  0  0  0  0  0  0  0
   -8.2497   -6.1827  -25.1422 C   0  0  0  0  0  0  0  0  0  0  0  0
   -9.5121   -5.8473  -24.6928 C   0  0  0  0  0  0  0  0  0  0  0  0
   -9.6876   -4.8159  -23.7760 C   0  0  0  0  0  0  0  0  0  0  0  0
  -11.0762   -4.4839  -23.3726 C   0  0  0  0  0  0  0  0  0  0  0  0
  -12.0562   -4.8489  -24.0234 O   0  0  0  0  0  0  0  0  0  0  0  0
  -10.3928   -6.3778  -25.0370 H   0  0  0  0  0  0  0  0  0  0  0  0
   -8.1040   -6.9809  -25.8621 H   0  0  0  0  0  0  0  0  0  0  0  0
   -6.4348   -3.9731  -23.3130 H   0  0  0  0  0  0  0  0  0  0  0  0
  -10.3520   -2.3798  -20.9177 H   0  0  0  0  0  0  0  0  0  0  0  0
   -9.7846   -4.0439  -20.7169 H   0  0  0  0  0  0  0  0  0  0  0  0
  -12.4716   -4.0218  -20.5287 H   0  0  0  0  0  0  0  0  0  0  0  0
  -13.0328   -4.6933  -22.0742 H   0  0  0  0  0  0  0  0  0  0  0  0
  -13.4604   -3.1132  -23.8946 H   0  0  0  0  0  0  0  0  0  0  0  0
  -13.9029   -0.3602  -23.5791 H   0  0  0  0  0  0  0  0  0  0  0  0
  -14.8975   -1.4440  -24.6083 H   0  0  0  0  0  0  0  0  0  0  0  0
  -15.3443   -1.0992  -22.9069 H   0  0  0  0  0  0  0  0  0  0  0  0
  1  2  1  0
  2  3  1  0
  3  4  2  0
  3  5  1  0
  5  6  1  0
  6  7  1  0
  8  7  1  1
  8  9  1  0
  9 10  2  0
  9 11  1  0
 11 12  1  0
 12 13  2  0
 13 14  1  0
 14 15  2  0
 15 16  1  0
 16 17  2  0
 17 18  1  0
 18 19  2  0
 19 20  1  0
 20 21  2  0
 20 22  1  0
 19 23  1  0
 18 24  1  0
 17 25  1  0
 15 26  1  0
 13 27  1  0
 11 28  1  0
 28 29  1  0
 29 30  1  0
 30 31  1  0
 30 32  1  0
 30 33  1  0
 29 34  1  0
 34 35  1  0
 34 36  1  0
 34 37  1  0
 28 38  1  0
 28 39  1  0
  8 40  1  0
 40 41  2  0
 41 42  1  0
 42 43  1  0
 42 44  2  0
 44 45  1  0
 45 46  2  0
 46 47  1  0
 47 48  2  0
 45 49  1  0
 44 50  1  0
 41 51  1  0
  7 52  1  0
  7 53  1  0
  5 54  1  0
  5 55  1  0
  2 56  1  0
  1 57  1  0
  1 58  1  0
  1 59  1  0
 47  6  1  0
 29  8  1  0
 46 40  1  0
 21 12  1  0
 21 16  1  0
M  END
>  <cnnaffinities>  (55) 
[6.70484]

>  <score>  (55) 
6.70484

>  <index>  (55) 
57

>  <Smiles>  (55) 
C(N(C(=O)C(N1C([C@@]2(C(=O)N(c3c(nc(c4c(c(c(c(c34)[H])[H])[H])[H])[H])[H])C(C2(C([H])([H])[H])C([H])([H])[H])([H])[H])c2c(c(Cl)c(c(c2C1=O)[H])[H])[H])([H])[H])([H])[H])[H])([H])([H])[H]

>  <h>  (55) 
<NA>

>  <Training>  (55) 
True

>  <Success>  (55) 
True

>  <enamine_searched>  (55) 
False

>  <enamine_id>  (55) 
nan

$$$$

     RDKit          3D

 42 45  0  0  0  0  0  0  0  0999 V2000
  -12.0200   -4.1678  -22.9366 C   0  0  0  0  0  0  0  0  0  0  0  0
  -10.5927   -4.4399  -22.9128 N   0  0  0  0  0  0  0  0  0  0  0  0
   -9.7405   -3.9731  -21.8412 C   0  0  0  0  0  0  0  0  0  0  0  0
   -8.6036   -3.1077  -22.4238 C   0  0  1  0  0  0  0  0  0  0  0  0
   -7.5943   -2.6501  -21.3739 C   0  0  0  0  0  0  0  0  0  0  0  0
   -6.9002   -3.4248  -20.7499 O   0  0  0  0  0  0  0  0  0  0  0  0
   -7.4601   -1.2827  -21.2176 N   0  0  0  0  0  0  0  0  0  0  0  0
   -6.6204   -0.7680  -20.2016 C   0  0  0  0  0  0  0  0  0  0  0  0
   -6.9088   -1.0379  -18.8888 C   0  0  0  0  0  0  0  0  0  0  0  0
   -6.2117   -0.5434  -17.8398 N   0  0  0  0  0  0  0  0  0  0  0  0
   -5.1782    0.2183  -18.0972 C   0  0  0  0  0  0  0  0  0  0  0  0
   -4.7488    0.5540  -19.4126 C   0  0  0  0  0  0  0  0  0  0  0  0
   -3.6054    1.3560  -19.6447 C   0  0  0  0  0  0  0  0  0  0  0  0
   -3.1908    1.6224  -20.9228 C   0  0  0  0  0  0  0  0  0  0  0  0
   -3.8973    1.0801  -22.0207 C   0  0  0  0  0  0  0  0  0  0  0  0
   -5.0101    0.3053  -21.8240 C   0  0  0  0  0  0  0  0  0  0  0  0
   -5.4786    0.0395  -20.5091 C   0  0  0  0  0  0  0  0  0  0  0  0
   -5.5209   -0.1292  -22.6808 H   0  0  0  0  0  0  0  0  0  0  0  0
   -3.5567    1.2920  -23.0310 H   0  0  0  0  0  0  0  0  0  0  0  0
   -2.3320    2.2605  -21.0987 H   0  0  0  0  0  0  0  0  0  0  0  0
   -3.0735    1.7549  -18.7876 H   0  0  0  0  0  0  0  0  0  0  0  0
   -4.6184    0.6060  -17.2440 H   0  0  0  0  0  0  0  0  0  0  0  0
   -7.7492   -1.6895  -18.6535 H   0  0  0  0  0  0  0  0  0  0  0  0
   -7.7754   -0.6473  -21.9383 H   0  0  0  0  0  0  0  0  0  0  0  0
   -7.8942   -3.9298  -23.4759 C   0  0  0  0  0  0  0  0  0  0  0  0
   -6.5485   -3.7185  -23.7519 C   0  0  0  0  0  0  0  0  0  0  0  0
   -5.9297   -4.4470  -24.7490 C   0  0  0  0  0  0  0  0  0  0  0  0
   -4.2610   -4.1303  -25.1024 Cl  0  0  0  0  0  0  0  0  0  0  0  0
   -6.6117   -5.4207  -25.4749 C   0  0  0  0  0  0  0  0  0  0  0  0
   -7.9459   -5.6482  -25.1812 C   0  0  0  0  0  0  0  0  0  0  0  0
   -8.5846   -4.9101  -24.1861 C   0  0  0  0  0  0  0  0  0  0  0  0
  -10.0502   -5.1321  -23.9618 C   0  0  0  0  0  0  0  0  0  0  0  0
  -10.7063   -5.8595  -24.6927 O   0  0  0  0  0  0  0  0  0  0  0  0
   -8.5260   -6.3962  -25.7118 H   0  0  0  0  0  0  0  0  0  0  0  0
   -6.1058   -5.9813  -26.2533 H   0  0  0  0  0  0  0  0  0  0  0  0
   -5.9847   -2.9897  -23.1802 H   0  0  0  0  0  0  0  0  0  0  0  0
   -9.0570   -2.2100  -22.8705 H   0  0  0  0  0  0  0  0  0  0  0  0
  -10.3491   -3.3924  -21.1507 H   0  0  0  0  0  0  0  0  0  0  0  0
   -9.3345   -4.8295  -21.2852 H   0  0  0  0  0  0  0  0  0  0  0  0
  -12.3791   -3.9667  -21.9186 H   0  0  0  0  0  0  0  0  0  0  0  0
  -12.2310   -3.3088  -23.5881 H   0  0  0  0  0  0  0  0  0  0  0  0
  -12.5124   -5.0476  -23.3483 H   0  0  0  0  0  0  0  0  0  0  0  0
  1  2  1  0
  2  3  1  0
  3  4  1  0
  4  5  1  0
  5  6  2  0
  5  7  1  0
  7  8  1  0
  8  9  2  0
  9 10  1  0
 10 11  2  0
 11 12  1  0
 12 13  2  0
 13 14  1  0
 14 15  2  0
 15 16  1  0
 16 17  2  0
 16 18  1  0
 15 19  1  0
 14 20  1  0
 13 21  1  0
 11 22  1  0
  9 23  1  0
  7 24  1  0
  4 25  1  0
 25 26  2  0
 26 27  1  0
 27 28  1  0
 27 29  2  0
 29 30  1  0
 30 31  2  0
 31 32  1  0
 32 33  2  0
 30 34  1  0
 29 35  1  0
 26 36  1  0
  4 37  1  6
  3 38  1  0
  3 39  1  0
  1 40  1  0
  1 41  1  0
  1 42  1  0
 32  2  1  0
 17  8  1  0
 31 25  1  0
 17 12  1  0
M  END
>  <cnnaffinities>  (56) 
[5.61393, 5.41304, 5.45169, 5.2264]

>  <score>  (56) 
5.61393

>  <index>  (56) 
58

>  <Smiles>  (56) 
C(N1C([C@@](C(=O)N(c2c(nc(c3c(c(c(c(c23)[H])[H])[H])[H])[H])[H])[H])(c2c(c(Cl)c(c(c2C1=O)[H])[H])[H])[H])([H])[H])([H])([H])[H]

>  <h>  (56) 
<NA>

>  <Training>  (56) 
True

>  <Success>  (56) 
True

>  <enamine_searched>  (56) 
False

>  <enamine_id>  (56) 
nan

$$$$

     RDKit          3D

 60 65  0  0  0  0  0  0  0  0999 V2000
   -7.0858    3.4614  -22.7548 C   0  0  0  0  0  0  0  0  0  0  0  0
   -7.7967    2.7614  -23.8071 N   0  0  0  0  0  0  0  0  0  0  0  0
   -7.1410    1.8563  -24.5771 C   0  0  0  0  0  0  0  0  0  0  0  0
   -5.9255    1.7301  -24.5568 O   0  0  0  0  0  0  0  0  0  0  0  0
   -8.0154    1.0265  -25.5186 C   0  0  0  0  0  0  0  0  0  0  0  0
   -8.9288    0.1509  -24.8244 N   0  0  0  0  0  0  0  0  0  0  0  0
   -8.4496   -1.1329  -24.3549 C   0  0  0  0  0  0  0  0  0  0  0  0
   -8.9900   -1.4899  -22.9555 C   0  0  2  0  0  0  0  0  0  0  0  0
   -8.3073   -0.6104  -21.8917 C   0  0  0  0  0  0  0  0  0  0  0  0
   -8.5014    0.5677  -21.6776 O   0  0  0  0  0  0  0  0  0  0  0  0
   -7.4066   -1.3782  -21.1995 N   0  0  0  0  0  0  0  0  0  0  0  0
   -6.5963   -0.8222  -20.1833 C   0  0  0  0  0  0  0  0  0  0  0  0
   -6.8958   -1.0700  -18.8669 C   0  0  0  0  0  0  0  0  0  0  0  0
   -6.2037   -0.5593  -17.8226 N   0  0  0  0  0  0  0  0  0  0  0  0
   -5.1776    0.2108  -18.0891 C   0  0  0  0  0  0  0  0  0  0  0  0
   -4.7459    0.5264  -19.4086 C   0  0  0  0  0  0  0  0  0  0  0  0
   -3.6132    1.3496  -19.6443 C   0  0  0  0  0  0  0  0  0  0  0  0
   -3.2052    1.6246  -20.9227 C   0  0  0  0  0  0  0  0  0  0  0  0
   -3.9166    1.0936  -22.0231 C   0  0  0  0  0  0  0  0  0  0  0  0
   -5.0183    0.2966  -21.8203 C   0  0  0  0  0  0  0  0  0  0  0  0
   -5.4675   -0.0039  -20.5009 C   0  0  0  0  0  0  0  0  0  0  0  0
   -5.5394   -0.1126  -22.6801 H   0  0  0  0  0  0  0  0  0  0  0  0
   -3.6124    1.3228  -23.0410 H   0  0  0  0  0  0  0  0  0  0  0  0
   -2.3381    2.2572  -21.0968 H   0  0  0  0  0  0  0  0  0  0  0  0
   -3.0838    1.7534  -18.7874 H   0  0  0  0  0  0  0  0  0  0  0  0
   -4.6165    0.6132  -17.2449 H   0  0  0  0  0  0  0  0  0  0  0  0
   -7.7539   -1.6937  -18.6121 H   0  0  0  0  0  0  0  0  0  0  0  0
   -7.3144   -2.7426  -21.6544 C   0  0  0  0  0  0  0  0  0  0  0  0
   -8.5538   -2.9266  -22.5385 C   0  0  2  0  0  0  0  0  0  0  0  0
   -8.3038   -3.9538  -23.6649 C   0  0  0  0  0  0  0  0  0  0  0  0
   -8.0104   -5.3065  -23.1135 C   0  0  0  0  0  0  0  0  0  0  0  0
   -6.7943   -5.7777  -22.8616 N   0  0  0  0  0  0  0  0  0  0  0  0
   -7.0022   -6.9782  -22.3287 N   0  0  0  0  0  0  0  0  0  0  0  0
   -8.2879   -7.2114  -22.2697 N   0  0  0  0  0  2  0  0  0  0  0  0
   -8.9490   -6.1704  -22.7616 N   0  0  0  0  0  0  0  0  0  0  0  0
   -7.4505   -3.6555  -24.2781 H   0  0  0  0  0  0  0  0  0  0  0  0
   -9.1803   -4.0445  -24.3118 H   0  0  0  0  0  0  0  0  0  0  0  0
   -9.3586   -3.3402  -21.9293 H   0  0  0  0  0  0  0  0  0  0  0  0
   -6.3991   -2.9113  -22.2375 H   0  0  0  0  0  0  0  0  0  0  0  0
   -7.2942   -3.4361  -20.8130 H   0  0  0  0  0  0  0  0  0  0  0  0
  -10.4879   -1.2423  -22.9518 C   0  0  0  0  0  0  0  0  0  0  0  0
  -11.3145   -1.8423  -21.9972 C   0  0  0  0  0  0  0  0  0  0  0  0
  -12.6826   -1.6325  -22.0352 C   0  0  0  0  0  0  0  0  0  0  0  0
  -13.6961   -2.5230  -20.9301 Cl  0  0  0  0  0  0  0  0  0  0  0  0
  -13.2682   -0.7409  -22.9362 C   0  0  0  0  0  0  0  0  0  0  0  0
  -12.4521   -0.0869  -23.8388 C   0  0  0  0  0  0  0  0  0  0  0  0
  -11.0774   -0.3245  -23.8313 C   0  0  0  0  0  0  0  0  0  0  0  0
  -10.2430    0.5113  -24.7404 C   0  0  0  0  0  0  0  0  0  0  0  0
  -10.7026    1.4807  -25.3292 O   0  0  0  0  0  0  0  0  0  0  0  0
  -12.8437    0.6281  -24.5588 H   0  0  0  0  0  0  0  0  0  0  0  0
  -14.3335   -0.5410  -22.8777 H   0  0  0  0  0  0  0  0  0  0  0  0
  -10.8980   -2.4326  -21.1891 H   0  0  0  0  0  0  0  0  0  0  0  0
   -7.3568   -1.1011  -24.3318 H   0  0  0  0  0  0  0  0  0  0  0  0
   -8.7643   -1.9175  -25.0504 H   0  0  0  0  0  0  0  0  0  0  0  0
   -8.6372    1.6874  -26.1275 H   0  0  0  0  0  0  0  0  0  0  0  0
   -7.3343    0.4492  -26.1477 H   0  0  0  0  0  0  0  0  0  0  0  0
   -8.7993    2.7093  -23.7292 H   0  0  0  0  0  0  0  0  0  0  0  0
   -7.7791    4.0839  -22.1862 H   0  0  0  0  0  0  0  0  0  0  0  0
   -6.3133    4.1028  -23.1782 H   0  0  0  0  0  0  0  0  0  0  0  0
   -6.5964    2.7569  -22.0751 H   0  0  0  0  0  0  0  0  0  0  0  0
  1  2  1  0
  2  3  1  0
  3  4  2  0
  3  5  1  0
  5  6  1  0
  6  7  1  0
  8  7  1  6
  8  9  1  0
  9 10  2  0
  9 11  1  0
 11 12  1  0
 12 13  2  0
 13 14  1  0
 14 15  2  0
 15 16  1  0
 16 17  2  0
 17 18  1  0
 18 19  2  0
 19 20  1  0
 20 21  2  0
 20 22  1  0
 19 23  1  0
 18 24  1  0
 17 25  1  0
 15 26  1  0
 13 27  1  0
 11 28  1  0
 28 29  1  0
 29 30  1  0
 30 31  1  0
 31 32  1  0
 32 33  2  0
 33 34  1  0
 34 35  1  0
 30 36  1  0
 30 37  1  0
 29 38  1  1
 28 39  1  0
 28 40  1  0
  8 41  1  0
 41 42  2  0
 42 43  1  0
 43 44  1  0
 43 45  2  0
 45 46  1  0
 46 47  2  0
 47 48  1  0
 48 49  2  0
 46 50  1  0
 45 51  1  0
 42 52  1  0
  7 53  1  0
  7 54  1  0
  5 55  1  0
  5 56  1  0
  2 57  1  0
  1 58  1  0
  1 59  1  0
  1 60  1  0
 48  6  1  0
 29  8  1  0
 35 31  2  0
 47 41  1  0
 21 12  1  0
 21 16  1  0
M  CHG  1  34  -1
M  END
>  <cnnaffinities>  (57) 
[6.79695, 6.72045, 6.70973]

>  <score>  (57) 
6.79695

>  <index>  (57) 
59

>  <Smiles>  (57) 
C(N(C(=O)C(N1C([C@@]2(C(=O)N(c3c(nc(c4c(c(c(c(c34)[H])[H])[H])[H])[H])[H])C([C@@]2(C(c2nn[n-]n2)([H])[H])[H])([H])[H])c2c(c(Cl)c(c(c2C1=O)[H])[H])[H])([H])[H])([H])[H])[H])([H])([H])[H]

>  <h>  (57) 
<NA>

>  <Training>  (57) 
True

>  <Success>  (57) 
True

>  <enamine_searched>  (57) 
False

>  <enamine_id>  (57) 
nan

$$$$

     RDKit          3D

 62 67  0  0  0  0  0  0  0  0999 V2000
  -11.3178    4.3027  -25.2304 C   0  0  0  0  0  0  0  0  0  0  0  0
   -9.8241    4.1722  -25.5272 C   0  0  0  0  0  0  0  0  0  0  0  0
   -9.0690    3.5907  -24.4244 N   0  0  0  0  0  0  0  0  0  0  0  0
   -8.4885    4.4137  -23.5371 N   0  0  0  0  0  0  0  0  0  0  0  0
   -7.9032    3.6204  -22.6503 C   0  0  0  0  0  0  0  0  0  0  0  0
   -8.1109    2.2654  -22.9711 C   0  0  0  0  0  0  0  0  0  0  0  0
   -8.8904    2.2772  -24.1053 C   0  0  0  0  0  0  0  0  0  0  0  0
   -9.3904    1.1046  -24.9076 C   0  0  0  0  0  0  0  0  0  0  0  0
   -9.8514    0.0035  -24.0835 N   0  0  0  0  0  0  0  0  0  0  0  0
   -9.0394   -1.1942  -23.9798 C   0  0  0  0  0  0  0  0  0  0  0  0
   -9.2253   -1.9120  -22.6162 C   0  0  2  0  0  0  0  0  0  0  0  0
   -8.6617   -1.0277  -21.4696 C   0  0  0  0  0  0  0  0  0  0  0  0
   -9.2269   -0.1060  -20.9098 O   0  0  0  0  0  0  0  0  0  0  0  0
   -7.3763   -1.4349  -21.1929 N   0  0  0  0  0  0  0  0  0  0  0  0
   -6.5993   -0.8246  -20.1692 C   0  0  0  0  0  0  0  0  0  0  0  0
   -6.9053   -1.0473  -18.8495 C   0  0  0  0  0  0  0  0  0  0  0  0
   -6.1941   -0.5447  -17.8123 N   0  0  0  0  0  0  0  0  0  0  0  0
   -5.1626    0.2087  -18.0836 C   0  0  0  0  0  0  0  0  0  0  0  0
   -4.7297    0.5287  -19.4001 C   0  0  0  0  0  0  0  0  0  0  0  0
   -3.6060    1.3643  -19.6428 C   0  0  0  0  0  0  0  0  0  0  0  0
   -3.2262    1.6629  -20.9196 C   0  0  0  0  0  0  0  0  0  0  0  0
   -3.9546    1.1370  -22.0117 C   0  0  0  0  0  0  0  0  0  0  0  0
   -5.0470    0.3262  -21.8012 C   0  0  0  0  0  0  0  0  0  0  0  0
   -5.4658   -0.0043  -20.4870 C   0  0  0  0  0  0  0  0  0  0  0  0
   -5.5976   -0.0642  -22.6532 H   0  0  0  0  0  0  0  0  0  0  0  0
   -3.6572    1.3824  -23.0257 H   0  0  0  0  0  0  0  0  0  0  0  0
   -2.3765    2.3162  -21.1035 H   0  0  0  0  0  0  0  0  0  0  0  0
   -3.0732    1.7693  -18.7846 H   0  0  0  0  0  0  0  0  0  0  0  0
   -4.6135    0.6157  -17.2322 H   0  0  0  0  0  0  0  0  0  0  0  0
   -7.7524   -1.6722  -18.5780 H   0  0  0  0  0  0  0  0  0  0  0  0
   -6.9629   -2.6134  -21.9356 C   0  0  0  0  0  0  0  0  0  0  0  0
   -8.2915   -3.1589  -22.5105 C   0  0  2  0  0  0  0  0  0  0  0  0
   -8.0941   -3.9857  -23.7846 C   0  0  0  0  0  0  0  0  0  0  0  0
   -7.5543   -3.4106  -24.5484 H   0  0  0  0  0  0  0  0  0  0  0  0
   -7.5058   -4.8893  -23.5818 H   0  0  0  0  0  0  0  0  0  0  0  0
   -9.0503   -4.2982  -24.2211 H   0  0  0  0  0  0  0  0  0  0  0  0
   -8.7280   -3.7972  -21.7358 H   0  0  0  0  0  0  0  0  0  0  0  0
   -6.4621   -3.3256  -21.2701 H   0  0  0  0  0  0  0  0  0  0  0  0
   -6.2531   -2.3610  -22.7395 H   0  0  0  0  0  0  0  0  0  0  0  0
  -10.7170   -2.1435  -22.4341 C   0  0  0  0  0  0  0  0  0  0  0  0
  -11.2333   -3.2192  -21.6995 C   0  0  0  0  0  0  0  0  0  0  0  0
  -12.5883   -3.2661  -21.4376 C   0  0  0  0  0  0  0  0  0  0  0  0
  -13.0871   -4.1975  -20.6096 F   0  0  0  0  0  0  0  0  0  0  0  0
  -13.4839   -2.3356  -21.9437 C   0  0  0  0  0  0  0  0  0  0  0  0
  -12.9871   -1.2692  -22.6587 C   0  0  0  0  0  0  0  0  0  0  0  0
  -11.6168   -1.1644  -22.8928 C   0  0  0  0  0  0  0  0  0  0  0  0
  -11.1425    0.0424  -23.6464 C   0  0  0  0  0  0  0  0  0  0  0  0
  -11.8782    0.9936  -23.8701 O   0  0  0  0  0  0  0  0  0  0  0  0
  -13.6341   -0.4796  -23.0255 H   0  0  0  0  0  0  0  0  0  0  0  0
  -14.5349   -2.4728  -21.7247 H   0  0  0  0  0  0  0  0  0  0  0  0
  -10.6022   -3.9849  -21.2623 H   0  0  0  0  0  0  0  0  0  0  0  0
   -9.2985   -1.9061  -24.7821 H   0  0  0  0  0  0  0  0  0  0  0  0
   -7.9934   -0.8945  -24.0906 H   0  0  0  0  0  0  0  0  0  0  0  0
  -10.2045    1.4067  -25.5762 H   0  0  0  0  0  0  0  0  0  0  0  0
   -8.5746    0.7052  -25.5176 H   0  0  0  0  0  0  0  0  0  0  0  0
   -7.7788    1.3715  -22.4635 H   0  0  0  0  0  0  0  0  0  0  0  0
   -7.3643    4.0664  -21.8195 H   0  0  0  0  0  0  0  0  0  0  0  0
   -9.3663    5.1519  -25.7081 H   0  0  0  0  0  0  0  0  0  0  0  0
   -9.6516    3.5480  -26.4133 H   0  0  0  0  0  0  0  0  0  0  0  0
  -11.7704    3.3212  -25.0409 H   0  0  0  0  0  0  0  0  0  0  0  0
  -11.4844    4.9448  -24.3583 H   0  0  0  0  0  0  0  0  0  0  0  0
  -11.8197    4.7598  -26.0897 H   0  0  0  0  0  0  0  0  0  0  0  0
  1  2  1  0
  2  3  1  0
  3  4  1  0
  4  5  2  0
  5  6  1  0
  6  7  2  0
  7  8  1  0
  8  9  1  0
  9 10  1  0
 11 10  1  6
 11 12  1  0
 12 13  2  0
 12 14  1  0
 14 15  1  0
 15 16  2  0
 16 17  1  0
 17 18  2  0
 18 19  1  0
 19 20  2  0
 20 21  1  0
 21 22  2  0
 22 23  1  0
 23 24  2  0
 23 25  1  0
 22 26  1  0
 21 27  1  0
 20 28  1  0
 18 29  1  0
 16 30  1  0
 14 31  1  0
 31 32  1  0
 32 33  1  0
 33 34  1  0
 33 35  1  0
 33 36  1  0
 32 37  1  1
 31 38  1  0
 31 39  1  0
 11 40  1  0
 40 41  2  0
 41 42  1  0
 42 43  1  0
 42 44  2  0
 44 45  1  0
 45 46  2  0
 46 47  1  0
 47 48  2  0
 45 49  1  0
 44 50  1  0
 41 51  1  0
 10 52  1  0
 10 53  1  0
  8 54  1  0
  8 55  1  0
  6 56  1  0
  5 57  1  0
  2 58  1  0
  2 59  1  0
  1 60  1  0
  1 61  1  0
  1 62  1  0
  7  3  1  0
 47  9  1  0
 32 11  1  0
 46 40  1  0
 24 15  1  0
 24 19  1  0
M  END
>  <cnnaffinities>  (58) 
[6.90654]

>  <score>  (58) 
6.90654

>  <index>  (58) 
60

>  <Smiles>  (58) 
C(C(n1nc(c(c1C(N1C([C@@]2(C(=O)N(c3c(nc(c4c(c(c(c(c34)[H])[H])[H])[H])[H])[H])C([C@@]2(C([H])([H])[H])[H])([H])[H])c2c(c(F)c(c(c2C1=O)[H])[H])[H])([H])[H])([H])[H])[H])[H])([H])[H])([H])([H])[H]

>  <h>  (58) 
<NA>

>  <Training>  (58) 
True

>  <Success>  (58) 
True

>  <enamine_searched>  (58) 
False

>  <enamine_id>  (58) 
nan

$$$$

     RDKit          3D

 44 47  0  0  0  0  0  0  0  0999 V2000
   -8.3312    0.7534  -21.6854 O   0  0  0  0  0  0  0  0  0  0  0  0
   -8.5066   -0.4477  -21.8010 C   0  0  0  0  0  0  0  0  0  0  0  0
   -7.4556   -1.4432  -21.2559 C   0  0  0  0  0  0  0  0  0  0  0  0
   -6.5790   -0.8332  -20.1823 C   0  0  0  0  0  0  0  0  0  0  0  0
   -6.8745   -1.0405  -18.8608 C   0  0  0  0  0  0  0  0  0  0  0  0
   -6.1880   -0.5323  -17.8052 N   0  0  0  0  0  0  0  0  0  0  0  0
   -5.1532    0.2238  -18.0681 C   0  0  0  0  0  0  0  0  0  0  0  0
   -4.7211    0.5366  -19.3834 C   0  0  0  0  0  0  0  0  0  0  0  0
   -3.5958    1.3676  -19.6212 C   0  0  0  0  0  0  0  0  0  0  0  0
   -3.2084    1.6622  -20.9002 C   0  0  0  0  0  0  0  0  0  0  0  0
   -3.9333    1.1362  -21.9916 C   0  0  0  0  0  0  0  0  0  0  0  0
   -5.0252    0.3279  -21.7860 C   0  0  0  0  0  0  0  0  0  0  0  0
   -5.4544    0.0015  -20.4744 C   0  0  0  0  0  0  0  0  0  0  0  0
   -5.5817   -0.0489  -22.6380 H   0  0  0  0  0  0  0  0  0  0  0  0
   -3.6266    1.3787  -23.0049 H   0  0  0  0  0  0  0  0  0  0  0  0
   -2.3525    2.3070  -21.0847 H   0  0  0  0  0  0  0  0  0  0  0  0
   -3.0545    1.7743  -18.7690 H   0  0  0  0  0  0  0  0  0  0  0  0
   -4.6003    0.6275  -17.2165 H   0  0  0  0  0  0  0  0  0  0  0  0
   -7.7260   -1.6591  -18.5815 H   0  0  0  0  0  0  0  0  0  0  0  0
   -7.9581   -2.3316  -20.8445 H   0  0  0  0  0  0  0  0  0  0  0  0
   -6.8289   -1.7996  -22.0847 H   0  0  0  0  0  0  0  0  0  0  0  0
   -9.6467   -0.9498  -22.3809 N   0  0  0  0  0  0  0  0  0  0  0  0
  -10.7747   -0.0432  -22.6147 C   0  0  0  0  0  0  0  0  0  0  0  0
  -12.0948   -0.7989  -22.5010 C   0  0  0  0  0  0  0  0  0  0  0  0
  -12.2288   -1.9527  -23.4949 C   0  0  0  0  0  0  0  0  0  0  0  0
  -13.2112   -1.6980  -24.6636 C   0  0  0  0  0  0  0  0  0  0  0  0
  -14.1358   -2.8242  -24.1702 C   0  0  0  0  0  0  0  0  0  0  0  0
  -13.1718   -3.0867  -22.9989 C   0  0  0  0  0  0  0  0  0  0  0  0
  -13.6066   -2.9092  -22.0117 H   0  0  0  0  0  0  0  0  0  0  0  0
  -12.7152   -4.0800  -22.9898 H   0  0  0  0  0  0  0  0  0  0  0  0
  -15.1312   -2.4921  -23.8680 H   0  0  0  0  0  0  0  0  0  0  0  0
  -14.2368   -3.6574  -24.8691 H   0  0  0  0  0  0  0  0  0  0  0  0
  -13.6574   -0.7005  -24.6560 H   0  0  0  0  0  0  0  0  0  0  0  0
  -12.7717   -1.8719  -25.6470 H   0  0  0  0  0  0  0  0  0  0  0  0
  -10.8477   -2.4229  -23.9518 C   0  0  0  0  0  0  0  0  0  0  0  0
   -9.7729   -2.3191  -22.8732 C   0  0  0  0  0  0  0  0  0  0  0  0
   -8.8166   -2.6381  -23.3005 H   0  0  0  0  0  0  0  0  0  0  0  0
   -9.9981   -3.0147  -22.0531 H   0  0  0  0  0  0  0  0  0  0  0  0
  -10.9120   -3.4558  -24.3031 H   0  0  0  0  0  0  0  0  0  0  0  0
  -10.5356   -1.8468  -24.8323 H   0  0  0  0  0  0  0  0  0  0  0  0
  -12.1764   -1.2317  -21.5056 H   0  0  0  0  0  0  0  0  0  0  0  0
  -12.9430   -0.1117  -22.5868 H   0  0  0  0  0  0  0  0  0  0  0  0
  -10.7106    0.4408  -23.5955 H   0  0  0  0  0  0  0  0  0  0  0  0
  -10.7085    0.7824  -21.9054 H   0  0  0  0  0  0  0  0  0  0  0  0
  1  2  2  0
  2  3  1  0
  3  4  1  0
  4  5  2  0
  5  6  1  0
  6  7  2  0
  7  8  1  0
  8  9  2  0
  9 10  1  0
 10 11  2  0
 11 12  1  0
 12 13  2  0
 12 14  1  0
 11 15  1  0
 10 16  1  0
  9 17  1  0
  7 18  1  0
  5 19  1  0
  3 20  1  0
  3 21  1  0
  2 22  1  0
 22 23  1  0
 23 24  1  0
 24 25  1  0
 25 26  1  0
 26 27  1  0
 27 28  1  0
 28 29  1  0
 28 30  1  0
 27 31  1  0
 27 32  1  0
 26 33  1  0
 26 34  1  0
 25 35  1  0
 35 36  1  0
 36 37  1  0
 36 38  1  0
 35 39  1  0
 35 40  1  0
 24 41  1  0
 24 42  1  0
 23 43  1  0
 23 44  1  0
 13  4  1  0
 36 22  1  0
 13  8  1  0
 28 25  1  0
M  END
>  <cnnaffinities>  (59) 
[5.45689, 5.45231, 5.45225, 4.76409, 5.0335, 5.03347, 5.03356, 5.03347, 5.0494, 5.04802, 5.04701]

>  <score>  (59) 
5.45689

>  <index>  (59) 
61

>  <Smiles>  (59) 
O=C(C(c1c(nc(c2c(c(c(c(c12)[H])[H])[H])[H])[H])[H])([H])[H])N1C(C(C2(C(C(C2([H])[H])([H])[H])([H])[H])C(C1([H])[H])([H])[H])([H])[H])([H])[H]

>  <h>  (59) 
<NA>

>  <Training>  (59) 
True

>  <Success>  (59) 
True

>  <enamine_searched>  (59) 
False

>  <enamine_id>  (59) 
nan

$$$$

     RDKit          3D

 44 47  0  0  0  0  0  0  0  0999 V2000
   -5.5916   -3.0344  -21.6146 O   0  0  0  0  0  0  0  0  0  0  0  0
   -6.7871   -2.8219  -21.7547 C   0  0  0  0  0  0  0  0  0  0  0  0
   -7.4070   -1.4965  -21.2666 C   0  0  0  0  0  0  0  0  0  0  0  0
   -6.5795   -0.8349  -20.1864 C   0  0  0  0  0  0  0  0  0  0  0  0
   -6.8773   -1.0485  -18.8635 C   0  0  0  0  0  0  0  0  0  0  0  0
   -6.1903   -0.5399  -17.8094 N   0  0  0  0  0  0  0  0  0  0  0  0
   -5.1568    0.2183  -18.0746 C   0  0  0  0  0  0  0  0  0  0  0  0
   -4.7200    0.5265  -19.3904 C   0  0  0  0  0  0  0  0  0  0  0  0
   -3.5934    1.3549  -19.6239 C   0  0  0  0  0  0  0  0  0  0  0  0
   -3.1919    1.6297  -20.9048 C   0  0  0  0  0  0  0  0  0  0  0  0
   -3.8991    1.0829  -21.9967 C   0  0  0  0  0  0  0  0  0  0  0  0
   -4.9935    0.2754  -21.7930 C   0  0  0  0  0  0  0  0  0  0  0  0
   -5.4425   -0.0188  -20.4782 C   0  0  0  0  0  0  0  0  0  0  0  0
   -5.5148   -0.1545  -22.6413 H   0  0  0  0  0  0  0  0  0  0  0  0
   -3.5804    1.3053  -23.0111 H   0  0  0  0  0  0  0  0  0  0  0  0
   -2.3342    2.2730  -21.0818 H   0  0  0  0  0  0  0  0  0  0  0  0
   -3.0712    1.7651  -18.7635 H   0  0  0  0  0  0  0  0  0  0  0  0
   -4.6091    0.6277  -17.2244 H   0  0  0  0  0  0  0  0  0  0  0  0
   -7.7284   -1.6705  -18.5837 H   0  0  0  0  0  0  0  0  0  0  0  0
   -7.5569   -0.8229  -22.1218 H   0  0  0  0  0  0  0  0  0  0  0  0
   -8.4067   -1.7130  -20.8675 H   0  0  0  0  0  0  0  0  0  0  0  0
   -7.6202   -3.7657  -22.3108 N   0  0  0  0  0  0  0  0  0  0  0  0
   -7.2472   -5.1684  -22.1525 C   0  0  0  0  0  0  0  0  0  0  0  0
   -7.5096   -5.9841  -23.4084 C   0  0  0  0  0  0  0  0  0  0  0  0
   -8.9639   -5.8304  -23.8658 C   0  0  0  0  0  0  0  0  0  0  0  0
   -9.2137   -6.7366  -25.0681 C   0  0  0  0  0  0  0  0  0  0  0  0
   -8.5294   -6.4440  -26.3762 C   0  0  0  0  0  0  0  0  0  0  0  0
  -10.0281   -6.2872  -26.2373 C   0  0  0  0  0  0  0  0  0  0  0  0
  -10.6645   -6.9974  -26.7585 H   0  0  0  0  0  0  0  0  0  0  0  0
  -10.4751   -5.2940  -26.1782 H   0  0  0  0  0  0  0  0  0  0  0  0
   -7.8862   -5.5657  -26.4611 H   0  0  0  0  0  0  0  0  0  0  0  0
   -8.1408   -7.2825  -26.9481 H   0  0  0  0  0  0  0  0  0  0  0  0
   -9.3111   -7.7910  -24.7904 H   0  0  0  0  0  0  0  0  0  0  0  0
   -9.2602   -4.3346  -24.0726 C   0  0  0  0  0  0  0  0  0  0  0  0
   -8.9718   -3.5231  -22.7995 C   0  0  0  0  0  0  0  0  0  0  0  0
   -9.7149   -3.7985  -22.0284 H   0  0  0  0  0  0  0  0  0  0  0  0
   -9.0775   -2.4484  -23.0091 H   0  0  0  0  0  0  0  0  0  0  0  0
  -10.3158   -4.1817  -24.3366 H   0  0  0  0  0  0  0  0  0  0  0  0
   -8.6458   -3.9493  -24.9007 H   0  0  0  0  0  0  0  0  0  0  0  0
   -9.6157   -6.1696  -23.0534 H   0  0  0  0  0  0  0  0  0  0  0  0
   -6.8509   -5.6731  -24.2321 H   0  0  0  0  0  0  0  0  0  0  0  0
   -7.3078   -7.0408  -23.1906 H   0  0  0  0  0  0  0  0  0  0  0  0
   -7.8442   -5.6227  -21.3456 H   0  0  0  0  0  0  0  0  0  0  0  0
   -6.1913   -5.1758  -21.8640 H   0  0  0  0  0  0  0  0  0  0  0  0
  1  2  2  0
  2  3  1  0
  3  4  1  0
  4  5  2  0
  5  6  1  0
  6  7  2  0
  7  8  1  0
  8  9  2  0
  9 10  1  0
 10 11  2  0
 11 12  1  0
 12 13  2  0
 12 14  1  0
 11 15  1  0
 10 16  1  0
  9 17  1  0
  7 18  1  0
  5 19  1  0
  3 20  1  0
  3 21  1  0
  2 22  1  0
 22 23  1  0
 23 24  1  0
 24 25  1  0
 25 26  1  0
 26 27  1  0
 27 28  1  0
 28 29  1  0
 28 30  1  0
 27 31  1  0
 27 32  1  0
 26 33  1  0
 25 34  1  0
 34 35  1  0
 35 36  1  0
 35 37  1  0
 34 38  1  0
 34 39  1  0
 25 40  1  0
 24 41  1  0
 24 42  1  0
 23 43  1  0
 23 44  1  0
 13  4  1  0
 35 22  1  0
 13  8  1  0
 28 26  1  0
M  END
>  <cnnaffinities>  (60) 
[4.70335, 4.79538, 5.2503, 5.14733, 5.41868, 4.75153, 5.04352, 4.87961, 4.95112, 4.86342]

>  <score>  (60) 
4.70335

>  <index>  (60) 
62

>  <Smiles>  (60) 
O=C(C(c1c(nc(c2c(c(c(c(c12)[H])[H])[H])[H])[H])[H])([H])[H])N1C(C(C(C2(C(C2([H])[H])([H])[H])[H])(C(C1([H])[H])([H])[H])[H])([H])[H])([H])[H]

>  <h>  (60) 
<NA>

>  <Training>  (60) 
True

>  <Success>  (60) 
True

>  <enamine_searched>  (60) 
False

>  <enamine_id>  (60) 
nan

$$$$

     RDKit          3D

 57 61  0  0  0  0  0  0  0  0999 V2000
   -7.3493    3.4108  -21.8405 C   0  0  0  0  0  0  0  0  0  0  0  0
   -8.1736    2.9372  -22.9379 N   0  0  0  0  0  0  0  0  0  0  0  0
   -7.5975    2.2452  -23.9487 C   0  0  0  0  0  0  0  0  0  0  0  0
   -6.3840    2.1303  -24.0592 O   0  0  0  0  0  0  0  0  0  0  0  0
   -8.5594    1.6290  -24.9756 C   0  0  0  0  0  0  0  0  0  0  0  0
   -9.3038    0.4875  -24.4702 N   0  0  0  0  0  0  0  0  0  0  0  0
   -8.6030   -0.7697  -24.2873 C   0  0  0  0  0  0  0  0  0  0  0  0
   -9.0138   -1.4753  -22.9658 C   0  0  2  0  0  0  0  0  0  0  0  0
   -8.4608   -0.6890  -21.7506 C   0  0  0  0  0  0  0  0  0  0  0  0
   -8.8667    0.3701  -21.3162 O   0  0  0  0  0  0  0  0  0  0  0  0
   -7.4043   -1.3848  -21.2092 N   0  0  0  0  0  0  0  0  0  0  0  0
   -6.6045   -0.8095  -20.1794 C   0  0  0  0  0  0  0  0  0  0  0  0
   -6.9068   -1.0412  -18.8639 C   0  0  0  0  0  0  0  0  0  0  0  0
   -6.1976   -0.5468  -17.8195 N   0  0  0  0  0  0  0  0  0  0  0  0
   -5.1645    0.2091  -18.0831 C   0  0  0  0  0  0  0  0  0  0  0  0
   -4.7278    0.5337  -19.3962 C   0  0  0  0  0  0  0  0  0  0  0  0
   -3.6000    1.3648  -19.6428 C   0  0  0  0  0  0  0  0  0  0  0  0
   -3.2111    1.6527  -20.9206 C   0  0  0  0  0  0  0  0  0  0  0  0
   -3.9331    1.1187  -22.0138 C   0  0  0  0  0  0  0  0  0  0  0  0
   -5.0268    0.3144  -21.8008 C   0  0  0  0  0  0  0  0  0  0  0  0
   -5.4661    0.0042  -20.4878 C   0  0  0  0  0  0  0  0  0  0  0  0
   -5.5780   -0.0799  -22.6516 H   0  0  0  0  0  0  0  0  0  0  0  0
   -3.6424    1.3554  -23.0309 H   0  0  0  0  0  0  0  0  0  0  0  0
   -2.3591    2.3027  -21.1023 H   0  0  0  0  0  0  0  0  0  0  0  0
   -3.0698    1.7741  -18.7849 H   0  0  0  0  0  0  0  0  0  0  0  0
   -4.6180    0.6129  -17.2285 H   0  0  0  0  0  0  0  0  0  0  0  0
   -7.7564   -1.6655  -18.5980 H   0  0  0  0  0  0  0  0  0  0  0  0
   -7.0775   -2.6163  -21.9030 C   0  0  0  0  0  0  0  0  0  0  0  0
   -8.3087   -2.8625  -22.8099 C   0  0  2  0  0  0  0  0  0  0  0  0
   -7.9377   -3.5879  -24.1060 C   0  0  0  0  0  0  0  0  0  0  0  0
   -7.4293   -4.8633  -23.7613 O   0  0  0  0  0  0  0  0  0  0  0  0
   -7.1995   -5.3256  -24.5782 H   0  0  0  0  0  0  0  0  0  0  0  0
   -7.1775   -3.0058  -24.6525 H   0  0  0  0  0  0  0  0  0  0  0  0
   -8.8218   -3.6819  -24.7569 H   0  0  0  0  0  0  0  0  0  0  0  0
   -8.9945   -3.5266  -22.2794 H   0  0  0  0  0  0  0  0  0  0  0  0
   -6.9112   -3.4278  -21.1859 H   0  0  0  0  0  0  0  0  0  0  0  0
   -6.1502   -2.5052  -22.4882 H   0  0  0  0  0  0  0  0  0  0  0  0
  -10.5318   -1.4869  -22.8913 C   0  0  0  0  0  0  0  0  0  0  0  0
  -11.1798   -2.3284  -21.9797 C   0  0  0  0  0  0  0  0  0  0  0  0
  -12.5594   -2.3255  -21.8919 C   0  0  0  0  0  0  0  0  0  0  0  0
  -13.3543   -3.3885  -20.7687 Cl  0  0  0  0  0  0  0  0  0  0  0  0
  -13.3359   -1.4745  -22.6783 C   0  0  0  0  0  0  0  0  0  0  0  0
  -12.6999   -0.5863  -23.5206 C   0  0  0  0  0  0  0  0  0  0  0  0
  -11.3087   -0.5634  -23.6059 C   0  0  0  0  0  0  0  0  0  0  0  0
  -10.6733    0.5427  -24.3988 C   0  0  0  0  0  0  0  0  0  0  0  0
  -11.3300    1.4407  -24.8999 O   0  0  0  0  0  0  0  0  0  0  0  0
  -13.2529    0.1327  -24.1143 H   0  0  0  0  0  0  0  0  0  0  0  0
  -14.4165   -1.4992  -22.5964 H   0  0  0  0  0  0  0  0  0  0  0  0
  -10.6200   -2.9709  -21.3087 H   0  0  0  0  0  0  0  0  0  0  0  0
   -7.5351   -0.5347  -24.2594 H   0  0  0  0  0  0  0  0  0  0  0  0
   -8.8025   -1.4444  -25.1369 H   0  0  0  0  0  0  0  0  0  0  0  0
   -7.9251    1.3425  -25.8207 H   0  0  0  0  0  0  0  0  0  0  0  0
   -9.3184    2.3408  -25.3168 H   0  0  0  0  0  0  0  0  0  0  0  0
   -9.1762    2.8980  -22.8139 H   0  0  0  0  0  0  0  0  0  0  0  0
   -6.6372    4.1703  -22.1864 H   0  0  0  0  0  0  0  0  0  0  0  0
   -8.0314    3.8563  -21.1214 H   0  0  0  0  0  0  0  0  0  0  0  0
   -6.7809    2.5853  -21.3816 H   0  0  0  0  0  0  0  0  0  0  0  0
  1  2  1  0
  2  3  1  0
  3  4  2  0
  3  5  1  0
  5  6  1  0
  6  7  1  0
  8  7  1  6
  8  9  1  0
  9 10  2  0
  9 11  1  0
 11 12  1  0
 12 13  2  0
 13 14  1  0
 14 15  2  0
 15 16  1  0
 16 17  2  0
 17 18  1  0
 18 19  2  0
 19 20  1  0
 20 21  2  0
 20 22  1  0
 19 23  1  0
 18 24  1  0
 17 25  1  0
 15 26  1  0
 13 27  1  0
 11 28  1  0
 28 29  1  0
 29 30  1  0
 30 31  1  0
 31 32  1  0
 30 33  1  0
 30 34  1  0
 29 35  1  1
 28 36  1  0
 28 37  1  0
  8 38  1  0
 38 39  2  0
 39 40  1  0
 40 41  1  0
 40 42  2  0
 42 43  1  0
 43 44  2  0
 44 45  1  0
 45 46  2  0
 43 47  1  0
 42 48  1  0
 39 49  1  0
  7 50  1  0
  7 51  1  0
  5 52  1  0
  5 53  1  0
  2 54  1  0
  1 55  1  0
  1 56  1  0
  1 57  1  0
 45  6  1  0
 29  8  1  0
 44 38  1  0
 21 12  1  0
 21 16  1  0
M  END
>  <cnnaffinities>  (61) 
[6.119]

>  <score>  (61) 
6.119

>  <index>  (61) 
63

>  <Smiles>  (61) 
C(N(C(=O)C(N1C([C@@]2(C(=O)N(c3c(nc(c4c(c(c(c(c34)[H])[H])[H])[H])[H])[H])C([C@@]2(C(O[H])([H])[H])[H])([H])[H])c2c(c(Cl)c(c(c2C1=O)[H])[H])[H])([H])[H])([H])[H])[H])([H])([H])[H]

>  <h>  (61) 
<NA>

>  <Training>  (61) 
True

>  <Success>  (61) 
True

>  <enamine_searched>  (61) 
False

>  <enamine_id>  (61) 
nan

$$$$

     RDKit          3D

 55 60  0  0  0  0  0  0  0  0999 V2000
  -10.4590   -1.1308  -23.2879 C   0  0  0  0  0  0  0  0  0  0  0  0
   -9.0113   -1.4714  -22.9485 C   0  0  1  0  0  0  0  0  0  0  0  0
   -8.4001   -0.5183  -21.9070 C   0  0  0  0  0  0  0  0  0  0  0  0
   -7.3984   -1.3393  -21.2429 N   0  0  0  0  0  0  0  0  0  0  0  0
   -6.5790   -0.8449  -20.1980 C   0  0  0  0  0  0  0  0  0  0  0  0
   -6.8837   -1.0944  -18.8841 C   0  0  0  0  0  0  0  0  0  0  0  0
   -6.2070   -0.5652  -17.8346 N   0  0  0  0  0  0  0  0  0  0  0  0
   -5.1907    0.2154  -18.0948 C   0  0  0  0  0  0  0  0  0  0  0  0
   -4.7451    0.5293  -19.4093 C   0  0  0  0  0  0  0  0  0  0  0  0
   -3.6156    1.3542  -19.6451 C   0  0  0  0  0  0  0  0  0  0  0  0
   -3.2143    1.6176  -20.9242 C   0  0  0  0  0  0  0  0  0  0  0  0
   -3.9161    1.0694  -22.0213 C   0  0  0  0  0  0  0  0  0  0  0  0
   -5.0126    0.2679  -21.8191 C   0  0  0  0  0  0  0  0  0  0  0  0
   -5.4578   -0.0128  -20.5019 C   0  0  0  0  0  0  0  0  0  0  0  0
   -5.5351   -0.1715  -22.6627 H   0  0  0  0  0  0  0  0  0  0  0  0
   -3.5851    1.2805  -23.0325 H   0  0  0  0  0  0  0  0  0  0  0  0
   -2.3567    2.2580  -21.1077 H   0  0  0  0  0  0  0  0  0  0  0  0
   -3.0857    1.7670  -18.7903 H   0  0  0  0  0  0  0  0  0  0  0  0
   -4.6525    0.6316  -17.2423 H   0  0  0  0  0  0  0  0  0  0  0  0
   -7.7249   -1.7351  -18.6316 H   0  0  0  0  0  0  0  0  0  0  0  0
   -7.5629   -2.6929  -21.4527 C   0  0  0  0  0  0  0  0  0  0  0  0
   -6.8358   -3.5559  -21.0043 O   0  0  0  0  0  0  0  0  0  0  0  0
   -8.7796   -2.9102  -22.3594 C   0  0  1  0  0  0  0  0  0  0  0  0
   -9.9712   -3.3722  -21.4848 C   0  0  0  0  0  0  0  0  0  0  0  0
  -11.0993   -3.8502  -22.2838 N   0  0  0  0  0  0  0  0  0  0  0  0
  -12.4722   -3.7549  -21.7998 C   0  0  0  0  0  0  0  0  0  0  0  0
  -13.2973   -2.6853  -22.4532 C   0  0  0  0  0  0  0  0  0  0  0  0
  -13.7903   -2.8610  -23.7137 N   0  0  0  0  0  0  0  0  0  0  0  0
  -14.5670   -1.8136  -23.8726 C   0  0  0  0  0  0  0  0  0  0  0  0
  -14.5246   -1.0386  -22.7789 N   0  0  0  0  0  0  0  0  0  0  0  0
  -13.7066   -1.5854  -21.8495 N   0  0  0  0  0  0  0  0  0  0  0  0
  -15.0567   -0.2126  -22.5828 H   0  0  0  0  0  0  0  0  0  0  0  0
  -15.2114   -1.6188  -24.7135 H   0  0  0  0  0  0  0  0  0  0  0  0
  -12.4899   -3.6750  -20.7085 H   0  0  0  0  0  0  0  0  0  0  0  0
  -12.9571   -4.6804  -22.1243 H   0  0  0  0  0  0  0  0  0  0  0  0
  -10.9097   -4.6578  -23.3757 C   0  0  0  0  0  0  0  0  0  0  0  0
  -11.8350   -5.2190  -23.9476 O   0  0  0  0  0  0  0  0  0  0  0  0
   -9.5112   -4.8078  -23.8617 C   0  0  0  0  0  0  0  0  0  0  0  0
   -9.2623   -5.7800  -24.8320 C   0  0  0  0  0  0  0  0  0  0  0  0
   -8.0091   -5.9083  -25.3969 C   0  0  0  0  0  0  0  0  0  0  0  0
   -7.0143   -5.0401  -24.9603 C   0  0  0  0  0  0  0  0  0  0  0  0
   -5.7941   -5.1425  -25.5105 F   0  0  0  0  0  0  0  0  0  0  0  0
   -7.2252   -4.0933  -23.9758 C   0  0  0  0  0  0  0  0  0  0  0  0
   -8.4958   -3.9686  -23.4013 C   0  0  0  0  0  0  0  0  0  0  0  0
   -6.3903   -3.4867  -23.6431 H   0  0  0  0  0  0  0  0  0  0  0  0
   -7.7973   -6.6592  -26.1533 H   0  0  0  0  0  0  0  0  0  0  0  0
  -10.0800   -6.4215  -25.1450 H   0  0  0  0  0  0  0  0  0  0  0  0
   -9.6454   -4.1677  -20.8038 H   0  0  0  0  0  0  0  0  0  0  0  0
  -10.2884   -2.5018  -20.9001 H   0  0  0  0  0  0  0  0  0  0  0  0
   -7.9397    0.3606  -22.3716 H   0  0  0  0  0  0  0  0  0  0  0  0
   -9.1617   -0.1519  -21.1956 H   0  0  0  0  0  0  0  0  0  0  0  0
   -8.4031   -1.4289  -23.8634 H   0  0  0  0  0  0  0  0  0  0  0  0
  -11.0661   -1.0870  -22.3774 H   0  0  0  0  0  0  0  0  0  0  0  0
  -10.5379   -0.1658  -23.7972 H   0  0  0  0  0  0  0  0  0  0  0  0
  -10.8902   -1.9055  -23.9283 H   0  0  0  0  0  0  0  0  0  0  0  0
  1  2  1  0
  2  3  1  0
  3  4  1  0
  4  5  1  0
  5  6  2  0
  6  7  1  0
  7  8  2  0
  8  9  1  0
  9 10  2  0
 10 11  1  0
 11 12  2  0
 12 13  1  0
 13 14  2  0
 13 15  1  0
 12 16  1  0
 11 17  1  0
 10 18  1  0
  8 19  1  0
  6 20  1  0
  4 21  1  0
 21 22  2  0
 21 23  1  0
 23 24  1  1
 24 25  1  0
 25 26  1  0
 26 27  1  0
 27 28  1  0
 28 29  2  0
 29 30  1  0
 30 31  1  0
 30 32  1  0
 29 33  1  0
 26 34  1  0
 26 35  1  0
 25 36  1  0
 36 37  2  0
 36 38  1  0
 38 39  2  0
 39 40  1  0
 40 41  2  0
 41 42  1  0
 41 43  1  0
 43 44  2  0
 43 45  1  0
 40 46  1  0
 39 47  1  0
 24 48  1  0
 24 49  1  0
  3 50  1  0
  3 51  1  0
  2 52  1  6
  1 53  1  0
  1 54  1  0
  1 55  1  0
 23  2  1  0
 31 27  2  0
 44 38  1  0
 14  5  1  0
 44 23  1  0
 14  9  1  0
M  END
>  <cnnaffinities>  (62) 
[6.8098, 6.75762]

>  <score>  (62) 
6.8098

>  <index>  (62) 
64

>  <Smiles>  (62) 
C([C@]1(C(N(c2c(nc(c3c(c(c(c(c23)[H])[H])[H])[H])[H])[H])C(=O)[C@]21C(N(C(c1nc(n(n1)[H])[H])([H])[H])C(=O)c1c(c(c(F)c(c21)[H])[H])[H])([H])[H])([H])[H])[H])([H])([H])[H]

>  <h>  (62) 
<NA>

>  <Training>  (62) 
True

>  <Success>  (62) 
True

>  <enamine_searched>  (62) 
False

>  <enamine_id>  (62) 
nan

$$$$

     RDKit          3D

 55 60  0  0  0  0  0  0  0  0999 V2000
  -10.4282   -1.0771  -23.3612 C   0  0  0  0  0  0  0  0  0  0  0  0
   -8.9841   -1.4141  -22.9968 C   0  0  1  0  0  0  0  0  0  0  0  0
   -8.4019   -0.4914  -21.9086 C   0  0  0  0  0  0  0  0  0  0  0  0
   -7.3980   -1.3221  -21.2701 N   0  0  0  0  0  0  0  0  0  0  0  0
   -6.5825   -0.8445  -20.2143 C   0  0  0  0  0  0  0  0  0  0  0  0
   -6.8872   -1.1154  -18.9048 C   0  0  0  0  0  0  0  0  0  0  0  0
   -6.2148   -0.5871  -17.8512 N   0  0  0  0  0  0  0  0  0  0  0  0
   -5.2061    0.2088  -18.1038 C   0  0  0  0  0  0  0  0  0  0  0  0
   -4.7538    0.5335  -19.4153 C   0  0  0  0  0  0  0  0  0  0  0  0
   -3.6272    1.3643  -19.6509 C   0  0  0  0  0  0  0  0  0  0  0  0
   -3.2224    1.6273  -20.9314 C   0  0  0  0  0  0  0  0  0  0  0  0
   -3.9154    1.0716  -22.0320 C   0  0  0  0  0  0  0  0  0  0  0  0
   -5.0092    0.2656  -21.8300 C   0  0  0  0  0  0  0  0  0  0  0  0
   -5.4571   -0.0124  -20.5116 C   0  0  0  0  0  0  0  0  0  0  0  0
   -5.5365   -0.1809  -22.6689 H   0  0  0  0  0  0  0  0  0  0  0  0
   -3.5809    1.2761  -23.0449 H   0  0  0  0  0  0  0  0  0  0  0  0
   -2.3587    2.2603  -21.1132 H   0  0  0  0  0  0  0  0  0  0  0  0
   -3.0985    1.7740  -18.7942 H   0  0  0  0  0  0  0  0  0  0  0  0
   -4.6814    0.6337  -17.2474 H   0  0  0  0  0  0  0  0  0  0  0  0
   -7.7154   -1.7781  -18.6558 H   0  0  0  0  0  0  0  0  0  0  0  0
   -7.5703   -2.6689  -21.5035 C   0  0  0  0  0  0  0  0  0  0  0  0
   -6.8538   -3.5333  -21.0365 O   0  0  0  0  0  0  0  0  0  0  0  0
   -8.7584   -2.8713  -22.4516 C   0  0  1  0  0  0  0  0  0  0  0  0
   -9.9675   -3.3354  -21.5986 C   0  0  0  0  0  0  0  0  0  0  0  0
  -11.0862   -3.8199  -22.3952 N   0  0  0  0  0  0  0  0  0  0  0  0
  -12.4610   -3.7937  -21.9013 C   0  0  0  0  0  0  0  0  0  0  0  0
  -13.3121   -2.6858  -22.4334 C   0  0  0  0  0  0  0  0  0  0  0  0
  -13.9562   -2.6376  -23.6224 C   0  0  0  0  0  0  0  0  0  0  0  0
  -14.6943   -1.4886  -23.6593 O   0  0  0  0  0  0  0  0  0  0  0  0
  -14.4338   -0.8883  -22.4818 C   0  0  0  0  0  0  0  0  0  0  0  0
  -13.6167   -1.5338  -21.7166 N   0  0  0  0  0  0  0  0  0  0  0  0
  -14.9295    0.0555  -22.2799 H   0  0  0  0  0  0  0  0  0  0  0  0
  -14.0303   -3.2857  -24.4862 H   0  0  0  0  0  0  0  0  0  0  0  0
  -12.4745   -3.7755  -20.8094 H   0  0  0  0  0  0  0  0  0  0  0  0
  -12.9199   -4.7169  -22.2572 H   0  0  0  0  0  0  0  0  0  0  0  0
  -10.8960   -4.5457  -23.5396 C   0  0  0  0  0  0  0  0  0  0  0  0
  -11.8394   -5.0394  -24.1507 O   0  0  0  0  0  0  0  0  0  0  0  0
   -9.4885   -4.7199  -23.9963 C   0  0  0  0  0  0  0  0  0  0  0  0
   -9.2409   -5.7212  -24.9330 C   0  0  0  0  0  0  0  0  0  0  0  0
   -7.9675   -5.9118  -25.4380 C   0  0  0  0  0  0  0  0  0  0  0  0
   -6.9511   -5.0614  -25.0105 C   0  0  0  0  0  0  0  0  0  0  0  0
   -5.7102   -5.2187  -25.5084 F   0  0  0  0  0  0  0  0  0  0  0  0
   -7.1630   -4.0875  -24.0505 C   0  0  0  0  0  0  0  0  0  0  0  0
   -8.4516   -3.9145  -23.5119 C   0  0  0  0  0  0  0  0  0  0  0  0
   -6.3088   -3.5189  -23.6938 H   0  0  0  0  0  0  0  0  0  0  0  0
   -7.7475   -6.6999  -26.1486 H   0  0  0  0  0  0  0  0  0  0  0  0
  -10.0686   -6.3515  -25.2490 H   0  0  0  0  0  0  0  0  0  0  0  0
  -10.2756   -2.4904  -20.9749 H   0  0  0  0  0  0  0  0  0  0  0  0
   -9.6342   -4.1103  -20.9088 H   0  0  0  0  0  0  0  0  0  0  0  0
   -9.1775   -0.1785  -21.1900 H   0  0  0  0  0  0  0  0  0  0  0  0
   -7.9605    0.4284  -22.3111 H   0  0  0  0  0  0  0  0  0  0  0  0
   -8.3552   -1.3219  -23.8921 H   0  0  0  0  0  0  0  0  0  0  0  0
  -10.5192   -0.1105  -23.8608 H   0  0  0  0  0  0  0  0  0  0  0  0
  -10.8464   -1.8429  -24.0213 H   0  0  0  0  0  0  0  0  0  0  0  0
  -11.0662   -1.0296  -22.4728 H   0  0  0  0  0  0  0  0  0  0  0  0
  1  2  1  0
  2  3  1  0
  3  4  1  0
  4  5  1  0
  5  6  2  0
  6  7  1  0
  7  8  2  0
  8  9  1  0
  9 10  2  0
 10 11  1  0
 11 12  2  0
 12 13  1  0
 13 14  2  0
 13 15  1  0
 12 16  1  0
 11 17  1  0
 10 18  1  0
  8 19  1  0
  6 20  1  0
  4 21  1  0
 21 22  2  0
 21 23  1  0
 23 24  1  1
 24 25  1  0
 25 26  1  0
 26 27  1  0
 27 28  2  0
 28 29  1  0
 29 30  1  0
 30 31  2  0
 30 32  1  0
 28 33  1  0
 26 34  1  0
 26 35  1  0
 25 36  1  0
 36 37  2  0
 36 38  1  0
 38 39  2  0
 39 40  1  0
 40 41  2  0
 41 42  1  0
 41 43  1  0
 43 44  2  0
 43 45  1  0
 40 46  1  0
 39 47  1  0
 24 48  1  0
 24 49  1  0
  3 50  1  0
  3 51  1  0
  2 52  1  6
  1 53  1  0
  1 54  1  0
  1 55  1  0
 23  2  1  0
 31 27  1  0
 44 38  1  0
 14  5  1  0
 44 23  1  0
 14  9  1  0
M  END
>  <cnnaffinities>  (63) 
[6.77813]

>  <score>  (63) 
6.77813

>  <index>  (63) 
65

>  <Smiles>  (63) 
C([C@]1(C(N(c2c(nc(c3c(c(c(c(c23)[H])[H])[H])[H])[H])[H])C(=O)[C@]21C(N(C(c1c(oc(n1)[H])[H])([H])[H])C(=O)c1c(c(c(F)c(c21)[H])[H])[H])([H])[H])([H])[H])[H])([H])([H])[H]

>  <h>  (63) 
<NA>

>  <Training>  (63) 
True

>  <Success>  (63) 
True

>  <enamine_searched>  (63) 
False

>  <enamine_id>  (63) 
nan

$$$$

     RDKit          3D

 44 47  0  0  0  0  0  0  0  0999 V2000
   -7.8632   -0.6308  -24.9373 C   0  0  0  0  0  0  0  0  0  0  0  0
   -8.3879   -2.0413  -25.1102 C   0  0  0  0  0  0  0  0  0  0  0  0
   -8.3384   -2.8840  -23.8288 C   0  0  1  0  0  0  0  0  0  0  0  0
   -8.8948   -4.2630  -24.0845 C   0  0  0  0  0  0  0  0  0  0  0  0
  -10.2753   -4.5712  -24.2950 C   0  0  0  0  0  0  0  0  0  0  0  0
  -10.4758   -5.8919  -24.5592 C   0  0  0  0  0  0  0  0  0  0  0  0
   -8.9948   -6.7800  -24.5560 S   0  0  0  0  0  0  0  0  0  0  0  0
   -8.0871   -5.3546  -24.1815 C   0  0  0  0  0  0  0  0  0  0  0  0
   -6.6069   -5.3358  -23.9386 C   0  0  0  0  0  0  0  0  0  0  0  0
   -6.0938   -3.8948  -23.9607 C   0  0  0  0  0  0  0  0  0  0  0  0
   -6.9918   -2.9819  -23.2485 N   0  0  0  0  0  0  0  0  0  0  0  0
   -6.6851   -2.6710  -21.9319 C   0  0  0  0  0  0  0  0  0  0  0  0
   -5.8395   -3.2895  -21.3107 O   0  0  0  0  0  0  0  0  0  0  0  0
   -7.4049   -1.4672  -21.2755 C   0  0  0  0  0  0  0  0  0  0  0  0
   -6.5813   -0.8269  -20.1801 C   0  0  0  0  0  0  0  0  0  0  0  0
   -6.8720   -1.0457  -18.8578 C   0  0  0  0  0  0  0  0  0  0  0  0
   -6.1837   -0.5379  -17.8011 N   0  0  0  0  0  0  0  0  0  0  0  0
   -5.1541    0.2252  -18.0648 C   0  0  0  0  0  0  0  0  0  0  0  0
   -4.7195    0.5344  -19.3831 C   0  0  0  0  0  0  0  0  0  0  0  0
   -3.5908    1.3617  -19.6224 C   0  0  0  0  0  0  0  0  0  0  0  0
   -3.1921    1.6388  -20.9023 C   0  0  0  0  0  0  0  0  0  0  0  0
   -3.9070    1.0966  -21.9933 C   0  0  0  0  0  0  0  0  0  0  0  0
   -5.0029    0.2949  -21.7857 C   0  0  0  0  0  0  0  0  0  0  0  0
   -5.4466   -0.0072  -20.4706 C   0  0  0  0  0  0  0  0  0  0  0  0
   -5.5326   -0.1132  -22.6410 H   0  0  0  0  0  0  0  0  0  0  0  0
   -3.5872    1.3188  -23.0059 H   0  0  0  0  0  0  0  0  0  0  0  0
   -2.3330    2.2765  -21.0888 H   0  0  0  0  0  0  0  0  0  0  0  0
   -3.0524    1.7741  -18.7726 H   0  0  0  0  0  0  0  0  0  0  0  0
   -4.5997    0.6287  -17.2156 H   0  0  0  0  0  0  0  0  0  0  0  0
   -7.7199   -1.6713  -18.5842 H   0  0  0  0  0  0  0  0  0  0  0  0
   -7.6866   -0.7148  -22.0254 H   0  0  0  0  0  0  0  0  0  0  0  0
   -8.3429   -1.8358  -20.8397 H   0  0  0  0  0  0  0  0  0  0  0  0
   -6.0014   -3.5642  -25.0012 H   0  0  0  0  0  0  0  0  0  0  0  0
   -5.0979   -3.8280  -23.5201 H   0  0  0  0  0  0  0  0  0  0  0  0
   -6.3971   -5.7703  -22.9552 H   0  0  0  0  0  0  0  0  0  0  0  0
   -6.0679   -5.9544  -24.6678 H   0  0  0  0  0  0  0  0  0  0  0  0
  -11.4159   -6.3961  -24.7362 H   0  0  0  0  0  0  0  0  0  0  0  0
  -11.0765   -3.8359  -24.2534 H   0  0  0  0  0  0  0  0  0  0  0  0
   -8.9906   -2.4011  -23.0928 H   0  0  0  0  0  0  0  0  0  0  0  0
   -7.8394   -2.5689  -25.8938 H   0  0  0  0  0  0  0  0  0  0  0  0
   -9.4262   -2.0172  -25.4601 H   0  0  0  0  0  0  0  0  0  0  0  0
   -7.9251   -0.0753  -25.8750 H   0  0  0  0  0  0  0  0  0  0  0  0
   -6.8181   -0.6403  -24.6157 H   0  0  0  0  0  0  0  0  0  0  0  0
   -8.4462   -0.0852  -24.1892 H   0  0  0  0  0  0  0  0  0  0  0  0
  1  2  1  0
  2  3  1  0
  3  4  1  0
  4  5  1  0
  5  6  2  0
  6  7  1  0
  7  8  1  0
  8  9  1  0
  9 10  1  0
 10 11  1  0
 11 12  1  0
 12 13  2  0
 12 14  1  0
 14 15  1  0
 15 16  2  0
 16 17  1  0
 17 18  2  0
 18 19  1  0
 19 20  2  0
 20 21  1  0
 21 22  2  0
 22 23  1  0
 23 24  2  0
 23 25  1  0
 22 26  1  0
 21 27  1  0
 20 28  1  0
 18 29  1  0
 16 30  1  0
 14 31  1  0
 14 32  1  0
 10 33  1  0
 10 34  1  0
  9 35  1  0
  9 36  1  0
  6 37  1  0
  5 38  1  0
  3 39  1  1
  2 40  1  0
  2 41  1  0
  1 42  1  0
  1 43  1  0
  1 44  1  0
 11  3  1  0
 24 15  1  0
  8  4  2  0
 24 19  1  0
M  END
>  <cnnaffinities>  (64) 
[5.45118, 5.22688, 5.35975]

>  <score>  (64) 
5.45118

>  <index>  (64) 
66

>  <Smiles>  (64) 
C(C([C@]1(c2c(c(sc2C(C(N1C(=O)C(c1c(nc(c2c(c(c(c(c12)[H])[H])[H])[H])[H])[H])([H])[H])([H])[H])([H])[H])[H])[H])[H])([H])[H])([H])([H])[H]

>  <h>  (64) 
<NA>

>  <Training>  (64) 
True

>  <Success>  (64) 
True

>  <enamine_searched>  (64) 
False

>  <enamine_id>  (64) 
nan

$$$$

     RDKit          3D

 58 63  0  0  0  0  0  0  0  0999 V2000
   -5.7434    4.0664  -22.3629 C   0  0  0  0  0  0  0  0  0  0  0  0
   -6.8336    3.5268  -23.2307 C   0  0  0  0  0  0  0  0  0  0  0  0
   -6.7686    2.4030  -24.1015 C   0  0  0  0  0  0  0  0  0  0  0  0
   -8.0257    2.3034  -24.6050 C   0  0  0  0  0  0  0  0  0  0  0  0
   -8.6861    1.3028  -25.5052 C   0  0  0  0  0  0  0  0  0  0  0  0
   -9.3969    0.2884  -24.7498 N   0  0  0  0  0  0  0  0  0  0  0  0
   -8.7588   -0.9806  -24.4638 C   0  0  0  0  0  0  0  0  0  0  0  0
   -8.9626   -1.4425  -23.0056 C   0  0  2  0  0  0  0  0  0  0  0  0
   -8.1971   -0.5468  -22.0108 C   0  0  0  0  0  0  0  0  0  0  0  0
   -8.3165    0.6496  -21.8737 O   0  0  0  0  0  0  0  0  0  0  0  0
   -7.3574   -1.3366  -21.2568 N   0  0  0  0  0  0  0  0  0  0  0  0
   -6.5812   -0.8048  -20.2068 C   0  0  0  0  0  0  0  0  0  0  0  0
   -6.8873   -1.0670  -18.8953 C   0  0  0  0  0  0  0  0  0  0  0  0
   -6.2055   -0.5602  -17.8416 N   0  0  0  0  0  0  0  0  0  0  0  0
   -5.1790    0.2151  -18.0948 C   0  0  0  0  0  0  0  0  0  0  0  0
   -4.7335    0.5326  -19.4102 C   0  0  0  0  0  0  0  0  0  0  0  0
   -3.6027    1.3560  -19.6414 C   0  0  0  0  0  0  0  0  0  0  0  0
   -3.1862    1.6235  -20.9188 C   0  0  0  0  0  0  0  0  0  0  0  0
   -3.8792    1.0815  -22.0210 C   0  0  0  0  0  0  0  0  0  0  0  0
   -4.9788    0.2843  -21.8268 C   0  0  0  0  0  0  0  0  0  0  0  0
   -5.4430    0.0024  -20.5088 C   0  0  0  0  0  0  0  0  0  0  0  0
   -5.5000   -0.1364  -22.6806 H   0  0  0  0  0  0  0  0  0  0  0  0
   -3.5355    1.2962  -23.0310 H   0  0  0  0  0  0  0  0  0  0  0  0
   -2.3207    2.2567  -21.0888 H   0  0  0  0  0  0  0  0  0  0  0  0
   -3.0790    1.7638  -18.7845 H   0  0  0  0  0  0  0  0  0  0  0  0
   -4.6244    0.6188  -17.2458 H   0  0  0  0  0  0  0  0  0  0  0  0
   -7.7495   -1.6874  -18.6481 H   0  0  0  0  0  0  0  0  0  0  0  0
   -7.6460   -2.7433  -21.3827 C   0  0  0  0  0  0  0  0  0  0  0  0
   -8.3720   -2.8622  -22.7362 C   0  0  2  0  0  0  0  0  0  0  0  0
   -7.4661   -3.4529  -23.8198 C   0  0  0  0  0  0  0  0  0  0  0  0
   -7.1246   -4.4482  -23.5153 H   0  0  0  0  0  0  0  0  0  0  0  0
   -6.5831   -2.8349  -24.0064 H   0  0  0  0  0  0  0  0  0  0  0  0
   -8.0069   -3.5797  -24.7626 H   0  0  0  0  0  0  0  0  0  0  0  0
   -9.1968   -3.5708  -22.6561 H   0  0  0  0  0  0  0  0  0  0  0  0
   -8.2911   -3.0796  -20.5639 H   0  0  0  0  0  0  0  0  0  0  0  0
   -6.7180   -3.3199  -21.3410 H   0  0  0  0  0  0  0  0  0  0  0  0
  -10.4590   -1.3568  -22.7389 C   0  0  0  0  0  0  0  0  0  0  0  0
  -11.0734   -2.2163  -21.8296 C   0  0  0  0  0  0  0  0  0  0  0  0
  -12.4352   -2.1201  -21.6375 C   0  0  0  0  0  0  0  0  0  0  0  0
  -13.0191   -3.0503  -20.8672 F   0  0  0  0  0  0  0  0  0  0  0  0
  -13.2215   -1.1112  -22.1798 C   0  0  0  0  0  0  0  0  0  0  0  0
  -12.5985   -0.2138  -23.0226 C   0  0  0  0  0  0  0  0  0  0  0  0
  -11.2520   -0.3757  -23.3494 C   0  0  0  0  0  0  0  0  0  0  0  0
  -10.6787    0.5606  -24.3621 C   0  0  0  0  0  0  0  0  0  0  0  0
  -11.3080    1.5174  -24.7886 O   0  0  0  0  0  0  0  0  0  0  0  0
  -13.1317    0.6216  -23.4666 H   0  0  0  0  0  0  0  0  0  0  0  0
  -14.2781   -1.0594  -21.9250 H   0  0  0  0  0  0  0  0  0  0  0  0
  -10.5254   -2.9748  -21.2822 H   0  0  0  0  0  0  0  0  0  0  0  0
   -7.6973   -0.9011  -24.7013 H   0  0  0  0  0  0  0  0  0  0  0  0
   -9.1907   -1.7522  -25.1114 H   0  0  0  0  0  0  0  0  0  0  0  0
   -9.4141    1.7894  -26.1563 H   0  0  0  0  0  0  0  0  0  0  0  0
   -7.9392    0.8016  -26.1258 H   0  0  0  0  0  0  0  0  0  0  0  0
   -8.7858    3.2856  -24.1072 O   0  0  0  0  0  0  0  0  0  0  0  0
   -8.0330    4.0658  -23.2560 N   0  0  0  0  0  0  0  0  0  0  0  0
   -5.9219    1.7625  -24.2933 H   0  0  0  0  0  0  0  0  0  0  0  0
   -5.6984    3.4956  -21.4291 H   0  0  0  0  0  0  0  0  0  0  0  0
   -4.7690    3.9615  -22.8512 H   0  0  0  0  0  0  0  0  0  0  0  0
   -5.9041    5.1174  -22.1181 H   0  0  0  0  0  0  0  0  0  0  0  0
  1  2  1  0
  2  3  1  0
  3  4  2  0
  4  5  1  0
  5  6  1  0
  6  7  1  0
  8  7  1  6
  8  9  1  0
  9 10  2  0
  9 11  1  0
 11 12  1  0
 12 13  2  0
 13 14  1  0
 14 15  2  0
 15 16  1  0
 16 17  2  0
 17 18  1  0
 18 19  2  0
 19 20  1  0
 20 21  2  0
 20 22  1  0
 19 23  1  0
 18 24  1  0
 17 25  1  0
 15 26  1  0
 13 27  1  0
 11 28  1  0
 28 29  1  0
 29 30  1  0
 30 31  1  0
 30 32  1  0
 30 33  1  0
 29 34  1  1
 28 35  1  0
 28 36  1  0
  8 37  1  0
 37 38  2  0
 38 39  1  0
 39 40  1  0
 39 41  2  0
 41 42  1  0
 42 43  2  0
 43 44  1  0
 44 45  2  0
 42 46  1  0
 41 47  1  0
 38 48  1  0
  7 49  1  0
  7 50  1  0
  5 51  1  0
  5 52  1  0
  4 53  1  0
 53 54  1  0
  3 55  1  0
  1 56  1  0
  1 57  1  0
  1 58  1  0
 54  2  2  0
 44  6  1  0
 29  8  1  0
 43 37  1  0
 21 12  1  0
 21 16  1  0
M  END
>  <cnnaffinities>  (65) 
[6.33087, 5.73997, 5.75857]

>  <score>  (65) 
6.33087

>  <index>  (65) 
67

>  <Smiles>  (65) 
C(c1c(c(C(N2C([C@@]3(C(=O)N(c4c(nc(c5c(c(c(c(c45)[H])[H])[H])[H])[H])[H])C([C@@]3(C([H])([H])[H])[H])([H])[H])c3c(c(F)c(c(c3C2=O)[H])[H])[H])([H])[H])([H])[H])on1)[H])([H])([H])[H]

>  <h>  (65) 
<NA>

>  <Training>  (65) 
True

>  <Success>  (65) 
True

>  <enamine_searched>  (65) 
False

>  <enamine_id>  (65) 
nan

$$$$

     RDKit          3D

 65 70  0  0  0  0  0  0  0  0999 V2000
   -9.2208    0.1588  -20.8325 O   0  0  0  0  0  0  0  0  0  0  0  0
   -8.4346   -0.2548  -21.6661 C   0  0  0  0  0  0  0  0  0  0  0  0
   -7.4660   -1.3662  -21.2734 C   0  0  0  0  0  0  0  0  0  0  0  0
   -6.5626   -0.8401  -20.1821 C   0  0  0  0  0  0  0  0  0  0  0  0
   -6.8842   -1.0387  -18.8622 C   0  0  0  0  0  0  0  0  0  0  0  0
   -6.2005   -0.5280  -17.8094 N   0  0  0  0  0  0  0  0  0  0  0  0
   -5.1653    0.2228  -18.0772 C   0  0  0  0  0  0  0  0  0  0  0  0
   -4.7163    0.5260  -19.3928 C   0  0  0  0  0  0  0  0  0  0  0  0
   -3.5967    1.3644  -19.6309 C   0  0  0  0  0  0  0  0  0  0  0  0
   -3.1978    1.6453  -20.9081 C   0  0  0  0  0  0  0  0  0  0  0  0
   -3.9009    1.1025  -22.0019 C   0  0  0  0  0  0  0  0  0  0  0  0
   -4.9939    0.2887  -21.7979 C   0  0  0  0  0  0  0  0  0  0  0  0
   -5.4338   -0.0233  -20.4821 C   0  0  0  0  0  0  0  0  0  0  0  0
   -5.5288   -0.0858  -22.6635 H   0  0  0  0  0  0  0  0  0  0  0  0
   -3.5826    1.3248  -23.0167 H   0  0  0  0  0  0  0  0  0  0  0  0
   -2.3436    2.2957  -21.0869 H   0  0  0  0  0  0  0  0  0  0  0  0
   -3.0744    1.7796  -18.7736 H   0  0  0  0  0  0  0  0  0  0  0  0
   -4.6138    0.6354  -17.2298 H   0  0  0  0  0  0  0  0  0  0  0  0
   -7.7551   -1.6422  -18.6110 H   0  0  0  0  0  0  0  0  0  0  0  0
   -6.8829   -1.7190  -22.1251 H   0  0  0  0  0  0  0  0  0  0  0  0
   -8.0798   -2.1892  -20.8865 H   0  0  0  0  0  0  0  0  0  0  0  0
   -8.3173    0.3202  -22.9244 N   0  0  0  0  0  0  0  0  0  0  0  0
   -8.1249   -0.4831  -24.1303 C   0  0  0  0  0  0  0  0  0  0  0  0
   -9.3138   -1.3708  -24.4432 C   0  0  0  0  0  0  0  0  0  0  0  0
  -10.4021   -0.9132  -25.1828 C   0  0  0  0  0  0  0  0  0  0  0  0
  -11.4968   -1.7433  -25.3954 C   0  0  0  0  0  0  0  0  0  0  0  0
  -11.5443   -3.0366  -24.9028 C   0  0  0  0  0  0  0  0  0  0  0  0
  -10.4498   -3.4872  -24.1896 C   0  0  0  0  0  0  0  0  0  0  0  0
  -10.4618   -5.1227  -23.6086 Cl  0  0  0  0  0  0  0  0  0  0  0  0
   -9.3473   -2.6761  -23.9558 C   0  0  0  0  0  0  0  0  0  0  0  0
   -8.5076   -3.0924  -23.4095 H   0  0  0  0  0  0  0  0  0  0  0  0
  -12.4016   -3.6794  -25.0825 H   0  0  0  0  0  0  0  0  0  0  0  0
  -12.3320   -1.4213  -25.9888 H   0  0  0  0  0  0  0  0  0  0  0  0
  -10.4058    0.0854  -25.6168 H   0  0  0  0  0  0  0  0  0  0  0  0
   -7.2345   -1.1065  -24.0148 H   0  0  0  0  0  0  0  0  0  0  0  0
   -7.9217    0.1840  -24.9695 H   0  0  0  0  0  0  0  0  0  0  0  0
   -8.6628    1.7360  -22.9999 C   0  0  2  0  0  0  0  0  0  0  0  0
  -10.1524    2.1042  -22.8319 C   0  0  0  0  0  0  0  0  0  0  0  0
  -10.2124    3.5536  -23.3818 C   0  0  0  0  0  0  0  0  0  0  0  0
   -8.7652    3.8353  -23.7856 C   0  0  2  0  0  0  0  0  0  0  0  0
   -8.3011    2.4755  -24.2944 C   0  0  0  0  0  0  0  0  0  0  0  0
   -7.2343    2.4223  -24.5391 H   0  0  0  0  0  0  0  0  0  0  0  0
   -8.9010    2.1442  -25.1477 H   0  0  0  0  0  0  0  0  0  0  0  0
   -7.9666    3.9916  -22.4733 N   0  0  2  0  0  4  0  0  0  0  0  0
   -6.6266    4.6287  -22.6429 C   0  0  0  0  0  0  0  0  0  0  0  0
   -6.7371    6.1469  -22.6643 C   0  0  0  0  0  0  0  0  0  0  0  0
   -5.4207    6.9248  -22.8047 C   0  0  0  0  0  0  0  0  0  0  0  0
   -5.6170    7.5881  -21.5469 O   0  0  0  0  0  0  0  0  0  0  0  0
   -6.7761    6.7968  -21.2798 C   0  0  0  0  0  0  0  0  0  0  0  0
   -7.6486    7.3912  -21.0154 H   0  0  0  0  0  0  0  0  0  0  0  0
   -6.5601    6.0624  -20.5008 H   0  0  0  0  0  0  0  0  0  0  0  0
   -4.5324    6.2715  -22.7932 H   0  0  0  0  0  0  0  0  0  0  0  0
   -5.3498    7.6609  -23.6205 H   0  0  0  0  0  0  0  0  0  0  0  0
   -7.5085    6.4652  -23.3692 H   0  0  0  0  0  0  0  0  0  0  0  0
   -5.9861    4.3253  -21.8036 H   0  0  0  0  0  0  0  0  0  0  0  0
   -6.1388    4.2453  -23.5490 H   0  0  0  0  0  0  0  0  0  0  0  0
   -7.9011    2.5762  -21.9502 C   0  0  0  0  0  0  0  0  0  0  0  0
   -8.3625    2.5176  -20.9656 H   0  0  0  0  0  0  0  0  0  0  0  0
   -6.8606    2.2608  -21.8683 H   0  0  0  0  0  0  0  0  0  0  0  0
   -8.4916    4.5728  -21.7928 H   0  0  0  0  0  0  0  0  0  0  0  0
   -8.6183    4.6948  -24.4350 H   0  0  0  0  0  0  0  0  0  0  0  0
  -10.8719    3.6156  -24.2520 H   0  0  0  0  0  0  0  0  0  0  0  0
  -10.5565    4.2845  -22.6416 H   0  0  0  0  0  0  0  0  0  0  0  0
  -10.4715    2.0216  -21.7933 H   0  0  0  0  0  0  0  0  0  0  0  0
  -10.7618    1.4177  -23.4254 H   0  0  0  0  0  0  0  0  0  0  0  0
  1  2  2  0
  2  3  1  0
  3  4  1  0
  4  5  2  0
  5  6  1  0
  6  7  2  0
  7  8  1  0
  8  9  2  0
  9 10  1  0
 10 11  2  0
 11 12  1  0
 12 13  2  0
 12 14  1  0
 11 15  1  0
 10 16  1  0
  9 17  1  0
  7 18  1  0
  5 19  1  0
  3 20  1  0
  3 21  1  0
  2 22  1  0
 22 23  1  0
 23 24  1  0
 24 25  2  0
 25 26  1  0
 26 27  2  0
 27 28  1  0
 28 29  1  0
 28 30  2  0
 30 31  1  0
 27 32  1  0
 26 33  1  0
 25 34  1  0
 23 35  1  0
 23 36  1  0
 37 22  1  6
 37 38  1  0
 38 39  1  0
 39 40  1  0
 40 41  1  0
 41 42  1  0
 41 43  1  0
 40 44  1  0
 44 45  1  0
 45 46  1  0
 46 47  1  0
 47 48  1  0
 48 49  1  0
 49 50  1  0
 49 51  1  0
 47 52  1  0
 47 53  1  0
 46 54  1  0
 45 55  1  0
 45 56  1  0
 44 57  1  0
 57 58  1  0
 57 59  1  0
 44 60  1  1
 40 61  1  6
 39 62  1  0
 39 63  1  0
 38 64  1  0
 38 65  1  0
 13  4  1  0
 30 24  1  0
 41 37  1  0
 49 46  1  0
 13  8  1  0
 57 37  1  0
M  CHG  1  44   1
M  END
>  <cnnaffinities>  (66) 
[6.17532, 6.24848, 6.29204]

>  <score>  (66) 
6.17532

>  <index>  (66) 
68

>  <Smiles>  (66) 
O=C(C(c1c(nc(c2c(c(c(c(c12)[H])[H])[H])[H])[H])[H])([H])[H])N(C(c1c(c(c(c(Cl)c1[H])[H])[H])[H])([H])[H])[C@]12C(C([C@](C1([H])[H])([N@+](C(C1(C(OC1([H])[H])([H])[H])[H])([H])[H])(C2([H])[H])[H])[H])([H])[H])([H])[H]

>  <h>  (66) 
<NA>

>  <Training>  (66) 
True

>  <Success>  (66) 
True

>  <enamine_searched>  (66) 
False

>  <enamine_id>  (66) 
nan

$$$$

     RDKit          3D

 63 67  0  0  0  0  0  0  0  0999 V2000
  -15.3948   -5.2383  -24.9502 C   0  0  0  0  0  0  0  0  0  0  0  0
  -14.5770   -4.5360  -24.1698 C   0  0  0  0  0  0  0  0  0  0  0  0
  -13.5345   -3.6260  -24.7271 C   0  0  0  0  0  0  0  0  0  0  0  0
  -13.4966   -3.3567  -25.9134 O   0  0  0  0  0  0  0  0  0  0  0  0
  -12.6112   -3.1270  -23.7987 N   0  0  0  0  0  0  0  0  0  0  0  0
  -13.0655   -2.7452  -22.4652 C   0  0  0  0  0  0  0  0  0  0  0  0
  -12.8771   -1.2477  -22.3362 C   0  0  0  0  0  0  0  0  0  0  0  0
  -11.3845   -0.9799  -22.3396 C   0  0  0  0  0  0  0  0  0  0  0  0
  -10.6784   -1.6422  -23.5035 C   0  0  0  0  0  0  0  0  0  0  0  0
  -11.3228   -2.6851  -24.2019 C   0  0  0  0  0  0  0  0  0  0  0  0
  -10.6856   -3.3058  -25.2813 C   0  0  0  0  0  0  0  0  0  0  0  0
   -9.4417   -2.8702  -25.7018 C   0  0  0  0  0  0  0  0  0  0  0  0
   -8.7897   -1.8399  -25.0331 C   0  0  0  0  0  0  0  0  0  0  0  0
   -9.3956   -1.2737  -23.9177 C   0  0  0  0  0  0  0  0  0  0  0  0
   -8.5757   -0.1662  -23.1972 N   0  0  1  0  0  4  0  0  0  0  0  0
   -8.9259    1.2755  -23.6203 C   0  0  0  0  0  0  0  0  0  0  0  0
   -7.7473    2.2105  -23.4378 C   0  0  0  0  0  0  0  0  0  0  0  0
   -7.6901    3.0382  -22.3167 C   0  0  0  0  0  0  0  0  0  0  0  0
   -6.7350    4.0336  -22.2295 C   0  0  0  0  0  0  0  0  0  0  0  0
   -5.7230    4.1431  -23.1756 C   0  0  0  0  0  0  0  0  0  0  0  0
   -5.7058    3.2271  -24.2245 C   0  0  0  0  0  0  0  0  0  0  0  0
   -4.3630    3.2265  -25.3443 Cl  0  0  0  0  0  0  0  0  0  0  0  0
   -6.7228    2.2939  -24.3838 C   0  0  0  0  0  0  0  0  0  0  0  0
   -6.7268    1.6477  -25.2582 H   0  0  0  0  0  0  0  0  0  0  0  0
   -4.9690    4.9165  -23.0911 H   0  0  0  0  0  0  0  0  0  0  0  0
   -6.8027    4.7509  -21.4245 H   0  0  0  0  0  0  0  0  0  0  0  0
   -8.4094    2.8845  -21.5216 H   0  0  0  0  0  0  0  0  0  0  0  0
   -9.2744    1.2527  -24.6538 H   0  0  0  0  0  0  0  0  0  0  0  0
   -9.7485    1.5954  -22.9820 H   0  0  0  0  0  0  0  0  0  0  0  0
   -8.4420   -0.2713  -21.7293 C   0  0  0  0  0  0  0  0  0  0  0  0
   -9.0959    0.4268  -20.9945 O   0  0  0  0  0  0  0  0  0  0  0  0
   -7.4847   -1.3532  -21.2394 C   0  0  0  0  0  0  0  0  0  0  0  0
   -6.5826   -0.8119  -20.1608 C   0  0  0  0  0  0  0  0  0  0  0  0
   -6.8540   -1.0502  -18.8406 C   0  0  0  0  0  0  0  0  0  0  0  0
   -6.1508   -0.5443  -17.7942 N   0  0  0  0  0  0  0  0  0  0  0  0
   -5.1408    0.2372  -18.0761 C   0  0  0  0  0  0  0  0  0  0  0  0
   -4.7275    0.5576  -19.3971 C   0  0  0  0  0  0  0  0  0  0  0  0
   -3.6092    1.3940  -19.6435 C   0  0  0  0  0  0  0  0  0  0  0  0
   -3.2191    1.6707  -20.9232 C   0  0  0  0  0  0  0  0  0  0  0  0
   -3.9355    1.1245  -22.0141 C   0  0  0  0  0  0  0  0  0  0  0  0
   -5.0368    0.3320  -21.8009 C   0  0  0  0  0  0  0  0  0  0  0  0
   -5.4666    0.0217  -20.4811 C   0  0  0  0  0  0  0  0  0  0  0  0
   -5.5693   -0.0650  -22.6611 H   0  0  0  0  0  0  0  0  0  0  0  0
   -3.5979    1.3276  -23.0299 H   0  0  0  0  0  0  0  0  0  0  0  0
   -2.3631    2.3139  -21.1088 H   0  0  0  0  0  0  0  0  0  0  0  0
   -3.0718    1.8061  -18.7916 H   0  0  0  0  0  0  0  0  0  0  0  0
   -4.5749    0.6462  -17.2363 H   0  0  0  0  0  0  0  0  0  0  0  0
   -7.6921   -1.6913  -18.5635 H   0  0  0  0  0  0  0  0  0  0  0  0
   -6.9053   -1.7602  -22.0746 H   0  0  0  0  0  0  0  0  0  0  0  0
   -8.1056   -2.1729  -20.8507 H   0  0  0  0  0  0  0  0  0  0  0  0
   -7.6234   -0.3353  -23.5720 H   0  0  0  0  0  0  0  0  0  0  0  0
   -7.8295   -1.4828  -25.4006 H   0  0  0  0  0  0  0  0  0  0  0  0
   -8.9814   -3.3265  -26.5735 H   0  0  0  0  0  0  0  0  0  0  0  0
  -11.1778   -4.1207  -25.8019 H   0  0  0  0  0  0  0  0  0  0  0  0
  -11.1948    0.0952  -22.3302 H   0  0  0  0  0  0  0  0  0  0  0  0
  -10.9550   -1.3816  -21.4131 H   0  0  0  0  0  0  0  0  0  0  0  0
  -13.3500   -0.7592  -23.1972 H   0  0  0  0  0  0  0  0  0  0  0  0
  -13.3500   -0.8587  -21.4283 H   0  0  0  0  0  0  0  0  0  0  0  0
  -12.4934   -3.2970  -21.7047 H   0  0  0  0  0  0  0  0  0  0  0  0
  -14.1174   -2.9997  -22.3485 H   0  0  0  0  0  0  0  0  0  0  0  0
  -14.5687   -4.6937  -23.1003 H   0  0  0  0  0  0  0  0  0  0  0  0
  -16.1440   -5.9118  -24.5363 H   0  0  0  0  0  0  0  0  0  0  0  0
  -15.3229   -5.1575  -26.0315 H   0  0  0  0  0  0  0  0  0  0  0  0
  1  2  2  0
  2  3  1  0
  3  4  2  0
  3  5  1  0
  5  6  1  0
  6  7  1  0
  7  8  1  0
  8  9  1  0
  9 10  2  0
 10 11  1  0
 11 12  2  0
 12 13  1  0
 13 14  2  0
 14 15  1  0
 15 16  1  0
 16 17  1  0
 17 18  2  0
 18 19  1  0
 19 20  2  0
 20 21  1  0
 21 22  1  0
 21 23  2  0
 23 24  1  0
 20 25  1  0
 19 26  1  0
 18 27  1  0
 16 28  1  0
 16 29  1  0
 15 30  1  0
 30 31  2  0
 30 32  1  0
 32 33  1  0
 33 34  2  0
 34 35  1  0
 35 36  2  0
 36 37  1  0
 37 38  2  0
 38 39  1  0
 39 40  2  0
 40 41  1  0
 41 42  2  0
 41 43  1  0
 40 44  1  0
 39 45  1  0
 38 46  1  0
 36 47  1  0
 34 48  1  0
 32 49  1  0
 32 50  1  0
 15 51  1  6
 13 52  1  0
 12 53  1  0
 11 54  1  0
  8 55  1  0
  8 56  1  0
  7 57  1  0
  7 58  1  0
  6 59  1  0
  6 60  1  0
  2 61  1  0
  1 62  1  0
  1 63  1  0
 10  5  1  0
 23 17  1  0
 42 33  1  0
 14  9  1  0
 42 37  1  0
M  CHG  1  15   1
M  END
>  <cnnaffinities>  (67) 
[6.48608]

>  <score>  (67) 
6.48608

>  <index>  (67) 
69

>  <Smiles>  (67) 
C(=C(C(=O)N1C(C(C(c2c1c(c(c(c2[N@@+](C(c1c(c(c(c(Cl)c1[H])[H])[H])[H])([H])[H])(C(=O)C(c1c(nc(c2c(c(c(c(c12)[H])[H])[H])[H])[H])[H])([H])[H])[H])[H])[H])[H])([H])[H])([H])[H])([H])[H])[H])([H])[H]

>  <h>  (67) 
<NA>

>  <Training>  (67) 
True

>  <Success>  (67) 
True

>  <enamine_searched>  (67) 
False

>  <enamine_id>  (67) 
nan

$$$$

     RDKit          3D

 52 54  0  0  0  0  0  0  0  0999 V2000
   -5.6959    2.0501  -27.4779 C   0  0  0  0  0  0  0  0  0  0  0  0
   -6.5935    2.0655  -26.2400 C   0  0  0  0  0  0  0  0  0  0  0  0
   -6.0204    3.0284  -25.1996 C   0  0  0  0  0  0  0  0  0  0  0  0
   -5.8796    4.0312  -25.6158 H   0  0  0  0  0  0  0  0  0  0  0  0
   -6.6808    3.1183  -24.3302 H   0  0  0  0  0  0  0  0  0  0  0  0
   -5.0421    2.6907  -24.8383 H   0  0  0  0  0  0  0  0  0  0  0  0
   -6.7971    0.6563  -25.6495 C   0  0  0  0  0  0  0  0  0  0  0  0
   -8.1362   -0.0760  -25.9428 C   0  0  0  0  0  0  0  0  0  0  0  0
   -8.3256   -0.2016  -27.4588 C   0  0  0  0  0  0  0  0  0  0  0  0
   -7.4856   -0.7291  -27.9276 H   0  0  0  0  0  0  0  0  0  0  0  0
   -9.2347   -0.7631  -27.7011 H   0  0  0  0  0  0  0  0  0  0  0  0
   -8.4146    0.7726  -27.9496 H   0  0  0  0  0  0  0  0  0  0  0  0
   -9.3347    0.6686  -25.3358 C   0  0  0  0  0  0  0  0  0  0  0  0
   -9.2640    0.8010  -23.8117 C   0  0  0  0  0  0  0  0  0  0  0  0
   -8.7406   -0.4171  -23.1893 N   0  0  0  0  0  0  0  0  0  0  0  0
   -8.4187   -0.3582  -21.8551 C   0  0  0  0  0  0  0  0  0  0  0  0
   -8.8621    0.5201  -21.1337 O   0  0  0  0  0  0  0  0  0  0  0  0
   -7.4419   -1.4079  -21.2780 C   0  0  0  0  0  0  0  0  0  0  0  0
   -6.5779   -0.8304  -20.1789 C   0  0  0  0  0  0  0  0  0  0  0  0
   -6.8773   -1.0394  -18.8577 C   0  0  0  0  0  0  0  0  0  0  0  0
   -6.1849   -0.5346  -17.8014 N   0  0  0  0  0  0  0  0  0  0  0  0
   -5.1532    0.2231  -18.0660 C   0  0  0  0  0  0  0  0  0  0  0  0
   -4.7203    0.5374  -19.3821 C   0  0  0  0  0  0  0  0  0  0  0  0
   -3.5983    1.3718  -19.6233 C   0  0  0  0  0  0  0  0  0  0  0  0
   -3.2113    1.6644  -20.9023 C   0  0  0  0  0  0  0  0  0  0  0  0
   -3.9342    1.1301  -21.9925 C   0  0  0  0  0  0  0  0  0  0  0  0
   -5.0216    0.3175  -21.7841 C   0  0  0  0  0  0  0  0  0  0  0  0
   -5.4514   -0.0020  -20.4715 C   0  0  0  0  0  0  0  0  0  0  0  0
   -5.5585   -0.0875  -22.6362 H   0  0  0  0  0  0  0  0  0  0  0  0
   -3.6176    1.3655  -23.0049 H   0  0  0  0  0  0  0  0  0  0  0  0
   -2.3591    2.3117  -21.0889 H   0  0  0  0  0  0  0  0  0  0  0  0
   -3.0581    1.7819  -18.7725 H   0  0  0  0  0  0  0  0  0  0  0  0
   -4.5998    0.6282  -17.2154 H   0  0  0  0  0  0  0  0  0  0  0  0
   -7.7293   -1.6597  -18.5817 H   0  0  0  0  0  0  0  0  0  0  0  0
   -8.0441   -2.2265  -20.8588 H   0  0  0  0  0  0  0  0  0  0  0  0
   -6.8142   -1.8461  -22.0648 H   0  0  0  0  0  0  0  0  0  0  0  0
   -8.8426   -1.6263  -23.9904 C   0  0  0  0  0  0  0  0  0  0  0  0
   -8.0962   -1.4980  -25.3227 C   0  0  0  0  0  0  0  0  0  0  0  0
   -7.0560   -1.8092  -25.1904 H   0  0  0  0  0  0  0  0  0  0  0  0
   -8.5317   -2.2258  -26.0175 H   0  0  0  0  0  0  0  0  0  0  0  0
   -9.8994   -1.8539  -24.1880 H   0  0  0  0  0  0  0  0  0  0  0  0
   -8.4629   -2.4706  -23.4166 H   0  0  0  0  0  0  0  0  0  0  0  0
  -10.2512    1.0600  -23.4100 H   0  0  0  0  0  0  0  0  0  0  0  0
   -8.6096    1.6388  -23.5475 H   0  0  0  0  0  0  0  0  0  0  0  0
   -9.4271    1.6641  -25.7816 H   0  0  0  0  0  0  0  0  0  0  0  0
  -10.2606    0.1554  -25.6232 H   0  0  0  0  0  0  0  0  0  0  0  0
   -6.6625    0.6896  -24.5621 H   0  0  0  0  0  0  0  0  0  0  0  0
   -5.9785    0.0150  -26.0024 H   0  0  0  0  0  0  0  0  0  0  0  0
   -7.5618    2.4730  -26.5468 H   0  0  0  0  0  0  0  0  0  0  0  0
   -5.6115    3.0475  -27.9223 H   0  0  0  0  0  0  0  0  0  0  0  0
   -6.0658    1.3703  -28.2516 H   0  0  0  0  0  0  0  0  0  0  0  0
   -4.6797    1.7300  -27.2199 H   0  0  0  0  0  0  0  0  0  0  0  0
  1  2  1  0
  2  3  1  0
  3  4  1  0
  3  5  1  0
  3  6  1  0
  2  7  1  0
  7  8  1  0
  8  9  1  0
  9 10  1  0
  9 11  1  0
  9 12  1  0
  8 13  1  0
 13 14  1  0
 14 15  1  0
 15 16  1  0
 16 17  2  0
 16 18  1  0
 18 19  1  0
 19 20  2  0
 20 21  1  0
 21 22  2  0
 22 23  1  0
 23 24  2  0
 24 25  1  0
 25 26  2  0
 26 27  1  0
 27 28  2  0
 27 29  1  0
 26 30  1  0
 25 31  1  0
 24 32  1  0
 22 33  1  0
 20 34  1  0
 18 35  1  0
 18 36  1  0
 15 37  1  0
 37 38  1  0
 38 39  1  0
 38 40  1  0
 37 41  1  0
 37 42  1  0
 14 43  1  0
 14 44  1  0
 13 45  1  0
 13 46  1  0
  7 47  1  0
  7 48  1  0
  2 49  1  0
  1 50  1  0
  1 51  1  0
  1 52  1  0
 38  8  1  0
 28 19  1  0
 28 23  1  0
M  END
>  <cnnaffinities>  (68) 
[5.37958, 5.3587, 5.35343, 5.11946, 5.11944, 5.10673, 5.22225, 5.2223, 5.22221, 5.22228, 5.11818, 5.11814, 5.11798, 4.71531, 5.11262, 4.96187, 4.95796, 5.09966, 5.09334, 4.9202, 4.69881, 5.00852, 5.45461, 5.00821, 5.45286, 5.02414, 4.94885, 5.15799, 4.86093, 5.03732, 5.15899, 4.98628, 4.98629, 4.98629, 5.0638]

>  <score>  (68) 
5.37958

>  <index>  (68) 
70

>  <Smiles>  (68) 
C(C(C([H])([H])[H])(C(C1(C([H])([H])[H])C(C(N(C(=O)C(c2c(nc(c3c(c(c(c(c23)[H])[H])[H])[H])[H])[H])([H])[H])C(C1([H])[H])([H])[H])([H])[H])([H])[H])([H])[H])[H])([H])([H])[H]

>  <h>  (68) 
<NA>

>  <Training>  (68) 
True

>  <Success>  (68) 
True

>  <enamine_searched>  (68) 
False

>  <enamine_id>  (68) 
nan

$$$$

     RDKit          3D

 50 54  0  0  0  0  0  0  0  0999 V2000
  -10.4345   -1.1170  -23.3033 C   0  0  0  0  0  0  0  0  0  0  0  0
   -8.9914   -1.4597  -22.9587 C   0  0  1  0  0  0  0  0  0  0  0  0
   -8.3907   -0.5104  -21.9089 C   0  0  0  0  0  0  0  0  0  0  0  0
   -7.3949   -1.3366  -21.2417 N   0  0  0  0  0  0  0  0  0  0  0  0
   -6.5779   -0.8437  -20.1964 C   0  0  0  0  0  0  0  0  0  0  0  0
   -6.8825   -1.0966  -18.8810 C   0  0  0  0  0  0  0  0  0  0  0  0
   -6.2082   -0.5668  -17.8314 N   0  0  0  0  0  0  0  0  0  0  0  0
   -5.1930    0.2154  -18.0955 C   0  0  0  0  0  0  0  0  0  0  0  0
   -4.7458    0.5268  -19.4116 C   0  0  0  0  0  0  0  0  0  0  0  0
   -3.6183    1.3528  -19.6460 C   0  0  0  0  0  0  0  0  0  0  0  0
   -3.2162    1.6164  -20.9262 C   0  0  0  0  0  0  0  0  0  0  0  0
   -3.9167    1.0679  -22.0241 C   0  0  0  0  0  0  0  0  0  0  0  0
   -5.0118    0.2653  -21.8224 C   0  0  0  0  0  0  0  0  0  0  0  0
   -5.4564   -0.0139  -20.5029 C   0  0  0  0  0  0  0  0  0  0  0  0
   -5.5332   -0.1719  -22.6673 H   0  0  0  0  0  0  0  0  0  0  0  0
   -3.5854    1.2810  -23.0349 H   0  0  0  0  0  0  0  0  0  0  0  0
   -2.3600    2.2576  -21.1074 H   0  0  0  0  0  0  0  0  0  0  0  0
   -3.0911    1.7649  -18.7903 H   0  0  0  0  0  0  0  0  0  0  0  0
   -4.6558    0.6340  -17.2461 H   0  0  0  0  0  0  0  0  0  0  0  0
   -7.7235   -1.7405  -18.6361 H   0  0  0  0  0  0  0  0  0  0  0  0
   -7.5557   -2.6885  -21.4662 C   0  0  0  0  0  0  0  0  0  0  0  0
   -6.8177   -3.5528  -21.0358 O   0  0  0  0  0  0  0  0  0  0  0  0
   -8.7852   -2.8970  -22.3585 C   0  0  1  0  0  0  0  0  0  0  0  0
   -9.9795   -3.3323  -21.4766 C   0  0  0  0  0  0  0  0  0  0  0  0
  -11.1211   -3.7314  -22.2942 N   0  0  0  0  0  0  0  0  0  0  0  0
  -12.4822   -3.5281  -21.8513 C   0  0  0  0  0  0  0  0  0  0  0  0
  -13.3165   -2.6924  -22.7312 C   0  0  0  0  0  0  0  0  0  0  0  0
  -14.0478   -2.0201  -23.3245 N   0  0  0  0  0  0  0  0  0  0  0  0
  -12.5049   -3.0631  -20.8691 H   0  0  0  0  0  0  0  0  0  0  0  0
  -12.9795   -4.4851  -21.7846 H   0  0  0  0  0  0  0  0  0  0  0  0
  -10.9722   -4.5572  -23.3803 C   0  0  0  0  0  0  0  0  0  0  0  0
  -11.9235   -5.0638  -23.9554 O   0  0  0  0  0  0  0  0  0  0  0  0
   -9.5754   -4.7814  -23.8469 C   0  0  0  0  0  0  0  0  0  0  0  0
   -9.3377   -5.7855  -24.7887 C   0  0  0  0  0  0  0  0  0  0  0  0
   -8.0805   -5.9431  -25.3473 C   0  0  0  0  0  0  0  0  0  0  0  0
   -7.0685   -5.0800  -24.9331 C   0  0  0  0  0  0  0  0  0  0  0  0
   -5.8500   -5.1978  -25.4903 F   0  0  0  0  0  0  0  0  0  0  0  0
   -7.2649   -4.1179  -23.9613 C   0  0  0  0  0  0  0  0  0  0  0  0
   -8.5357   -3.9677  -23.3928 C   0  0  0  0  0  0  0  0  0  0  0  0
   -6.4234   -3.5141  -23.6336 H   0  0  0  0  0  0  0  0  0  0  0  0
   -7.8703   -6.7053  -26.0952 H   0  0  0  0  0  0  0  0  0  0  0  0
  -10.1588   -6.4307  -25.0882 H   0  0  0  0  0  0  0  0  0  0  0  0
   -9.6754   -4.1666  -20.8286 H   0  0  0  0  0  0  0  0  0  0  0  0
  -10.2560   -2.4641  -20.8656 H   0  0  0  0  0  0  0  0  0  0  0  0
   -9.1619   -0.1584  -21.1999 H   0  0  0  0  0  0  0  0  0  0  0  0
   -7.9273    0.3729  -22.3643 H   0  0  0  0  0  0  0  0  0  0  0  0
   -8.3729   -1.4224  -23.8683 H   0  0  0  0  0  0  0  0  0  0  0  0
  -10.5194   -0.1406  -23.7853 H   0  0  0  0  0  0  0  0  0  0  0  0
  -11.0379   -1.1058  -22.3875 H   0  0  0  0  0  0  0  0  0  0  0  0
  -10.8515   -1.8816  -23.9642 H   0  0  0  0  0  0  0  0  0  0  0  0
  1  2  1  0
  2  3  1  0
  3  4  1  0
  4  5  1  0
  5  6  2  0
  6  7  1  0
  7  8  2  0
  8  9  1  0
  9 10  2  0
 10 11  1  0
 11 12  2  0
 12 13  1  0
 13 14  2  0
 13 15  1  0
 12 16  1  0
 11 17  1  0
 10 18  1  0
  8 19  1  0
  6 20  1  0
  4 21  1  0
 21 22  2  0
 21 23  1  0
 23 24  1  1
 24 25  1  0
 25 26  1  0
 26 27  1  0
 27 28  3  0
 26 29  1  0
 26 30  1  0
 25 31  1  0
 31 32  2  0
 31 33  1  0
 33 34  2  0
 34 35  1  0
 35 36  2  0
 36 37  1  0
 36 38  1  0
 38 39  2  0
 38 40  1  0
 35 41  1  0
 34 42  1  0
 24 43  1  0
 24 44  1  0
  3 45  1  0
  3 46  1  0
  2 47  1  6
  1 48  1  0
  1 49  1  0
  1 50  1  0
 23  2  1  0
 39 33  1  0
 14  5  1  0
 39 23  1  0
 14  9  1  0
M  END
>  <cnnaffinities>  (69) 
[6.55294]

>  <score>  (69) 
6.55294

>  <index>  (69) 
71

>  <Smiles>  (69) 
C([C@]1(C(N(c2c(nc(c3c(c(c(c(c23)[H])[H])[H])[H])[H])[H])C(=O)[C@]21C(N(C(C#N)([H])[H])C(=O)c1c(c(c(F)c(c21)[H])[H])[H])([H])[H])([H])[H])[H])([H])([H])[H]

>  <h>  (69) 
<NA>

>  <Training>  (69) 
True

>  <Success>  (69) 
True

>  <enamine_searched>  (69) 
False

>  <enamine_id>  (69) 
nan

$$$$

     RDKit          3D

 41 44  0  0  0  0  0  0  0  0999 V2000
   -8.5128    0.7263  -21.4687 O   0  0  0  0  0  0  0  0  0  0  0  0
   -8.3661   -0.3902  -21.9344 C   0  0  0  0  0  0  0  0  0  0  0  0
   -7.4301   -1.4219  -21.2787 C   0  0  0  0  0  0  0  0  0  0  0  0
   -6.5809   -0.8260  -20.1866 C   0  0  0  0  0  0  0  0  0  0  0  0
   -6.8842   -1.0378  -18.8690 C   0  0  0  0  0  0  0  0  0  0  0  0
   -6.1958   -0.5329  -17.8129 N   0  0  0  0  0  0  0  0  0  0  0  0
   -5.1599    0.2213  -18.0760 C   0  0  0  0  0  0  0  0  0  0  0  0
   -4.7253    0.5351  -19.3894 C   0  0  0  0  0  0  0  0  0  0  0  0
   -3.5994    1.3639  -19.6252 C   0  0  0  0  0  0  0  0  0  0  0  0
   -3.2113    1.6548  -20.9046 C   0  0  0  0  0  0  0  0  0  0  0  0
   -3.9340    1.1273  -21.9965 C   0  0  0  0  0  0  0  0  0  0  0  0
   -5.0277    0.3223  -21.7939 C   0  0  0  0  0  0  0  0  0  0  0  0
   -5.4553    0.0039  -20.4779 C   0  0  0  0  0  0  0  0  0  0  0  0
   -5.5785   -0.0740  -22.6413 H   0  0  0  0  0  0  0  0  0  0  0  0
   -3.6262    1.3623  -23.0115 H   0  0  0  0  0  0  0  0  0  0  0  0
   -2.3579    2.3029  -21.0839 H   0  0  0  0  0  0  0  0  0  0  0  0
   -3.0703    1.7647  -18.7648 H   0  0  0  0  0  0  0  0  0  0  0  0
   -4.6109    0.6211  -17.2218 H   0  0  0  0  0  0  0  0  0  0  0  0
   -7.7337   -1.6592  -18.5848 H   0  0  0  0  0  0  0  0  0  0  0  0
   -6.8137   -1.8975  -22.0544 H   0  0  0  0  0  0  0  0  0  0  0  0
   -8.0554   -2.2238  -20.8577 H   0  0  0  0  0  0  0  0  0  0  0  0
   -9.0271   -0.7789  -23.0793 N   0  0  0  0  0  0  0  0  0  0  0  0
   -9.3517   -2.1622  -23.4063 C   0  0  0  0  0  0  0  0  0  0  0  0
  -10.6132   -2.7035  -22.7163 C   0  0  0  0  0  0  0  0  0  0  0  0
  -11.9236   -2.0717  -23.2210 C   0  0  0  0  0  0  0  0  0  0  0  0
  -12.0903   -0.6231  -22.8341 C   0  0  0  0  0  0  0  0  0  0  0  0
  -13.5541   -0.0678  -22.1157 S   0  0  0  0  0  0  0  0  0  0  0  0
  -12.9298    1.5202  -21.9076 C   0  0  0  0  0  0  0  0  0  0  0  0
  -11.6930    1.6397  -22.4546 C   0  0  0  0  0  0  0  0  0  0  0  0
  -11.2079    0.4026  -22.9906 C   0  0  0  0  0  0  0  0  0  0  0  0
   -9.8811    0.2334  -23.6900 C   0  0  0  0  0  0  0  0  0  0  0  0
   -9.3455    1.1859  -23.6812 H   0  0  0  0  0  0  0  0  0  0  0  0
  -10.0379   -0.0819  -24.7309 H   0  0  0  0  0  0  0  0  0  0  0  0
  -11.1496    2.5771  -22.4992 H   0  0  0  0  0  0  0  0  0  0  0  0
  -13.5027    2.2496  -21.3487 H   0  0  0  0  0  0  0  0  0  0  0  0
  -12.7805   -2.6383  -22.8410 H   0  0  0  0  0  0  0  0  0  0  0  0
  -11.9719   -2.1328  -24.3215 H   0  0  0  0  0  0  0  0  0  0  0  0
  -10.6671   -3.7810  -22.9085 H   0  0  0  0  0  0  0  0  0  0  0  0
  -10.5396   -2.5826  -21.6239 H   0  0  0  0  0  0  0  0  0  0  0  0
   -8.4844   -2.7924  -23.1806 H   0  0  0  0  0  0  0  0  0  0  0  0
   -9.5066   -2.1925  -24.4971 H   0  0  0  0  0  0  0  0  0  0  0  0
  1  2  2  0
  2  3  1  0
  3  4  1  0
  4  5  2  0
  5  6  1  0
  6  7  2  0
  7  8  1  0
  8  9  2  0
  9 10  1  0
 10 11  2  0
 11 12  1  0
 12 13  2  0
 12 14  1  0
 11 15  1  0
 10 16  1  0
  9 17  1  0
  7 18  1  0
  5 19  1  0
  3 20  1  0
  3 21  1  0
  2 22  1  0
 22 23  1  0
 23 24  1  0
 24 25  1  0
 25 26  1  0
 26 27  1  0
 27 28  1  0
 28 29  2  0
 29 30  1  0
 30 31  1  0
 31 32  1  0
 31 33  1  0
 29 34  1  0
 28 35  1  0
 25 36  1  0
 25 37  1  0
 24 38  1  0
 24 39  1  0
 23 40  1  0
 23 41  1  0
 13  4  1  0
 31 22  1  0
 13  8  1  0
 30 26  2  0
M  END
>  <cnnaffinities>  (70) 
[5.27915, 5.14289, 5.33304, 5.12062]

>  <score>  (70) 
5.27915

>  <index>  (70) 
72

>  <Smiles>  (70) 
O=C(C(c1c(nc(c2c(c(c(c(c12)[H])[H])[H])[H])[H])[H])([H])[H])N1C(C(C(c2sc(c(c2C1([H])[H])[H])[H])([H])[H])([H])[H])([H])[H]

>  <h>  (70) 
<NA>

>  <Training>  (70) 
True

>  <Success>  (70) 
True

>  <enamine_searched>  (70) 
False

>  <enamine_id>  (70) 
nan

$$$$

     RDKit          3D

 50 53  0  0  0  0  0  0  0  0999 V2000
   -5.6008   -3.0329  -21.5755 O   0  0  0  0  0  0  0  0  0  0  0  0
   -6.7571   -2.7540  -21.8600 C   0  0  0  0  0  0  0  0  0  0  0  0
   -7.4142   -1.4796  -21.2695 C   0  0  0  0  0  0  0  0  0  0  0  0
   -6.5806   -0.8309  -20.1854 C   0  0  0  0  0  0  0  0  0  0  0  0
   -6.8728   -1.0448  -18.8655 C   0  0  0  0  0  0  0  0  0  0  0  0
   -6.1830   -0.5389  -17.8079 N   0  0  0  0  0  0  0  0  0  0  0  0
   -5.1559    0.2237  -18.0700 C   0  0  0  0  0  0  0  0  0  0  0  0
   -4.7188    0.5318  -19.3836 C   0  0  0  0  0  0  0  0  0  0  0  0
   -3.5911    1.3576  -19.6240 C   0  0  0  0  0  0  0  0  0  0  0  0
   -3.1879    1.6331  -20.8998 C   0  0  0  0  0  0  0  0  0  0  0  0
   -3.9018    1.0878  -21.9927 C   0  0  0  0  0  0  0  0  0  0  0  0
   -4.9979    0.2878  -21.7859 C   0  0  0  0  0  0  0  0  0  0  0  0
   -5.4452   -0.0137  -20.4765 C   0  0  0  0  0  0  0  0  0  0  0  0
   -5.5231   -0.1341  -22.6376 H   0  0  0  0  0  0  0  0  0  0  0  0
   -3.5781    1.3063  -23.0049 H   0  0  0  0  0  0  0  0  0  0  0  0
   -2.3279    2.2715  -21.0863 H   0  0  0  0  0  0  0  0  0  0  0  0
   -3.0561    1.7720  -18.7699 H   0  0  0  0  0  0  0  0  0  0  0  0
   -4.6031    0.6271  -17.2161 H   0  0  0  0  0  0  0  0  0  0  0  0
   -7.7180   -1.6681  -18.5819 H   0  0  0  0  0  0  0  0  0  0  0  0
   -7.6149   -0.7497  -22.0660 H   0  0  0  0  0  0  0  0  0  0  0  0
   -8.3949   -1.7474  -20.8491 H   0  0  0  0  0  0  0  0  0  0  0  0
   -7.5203   -3.5826  -22.6615 N   0  0  0  0  0  0  0  0  0  0  0  0
   -8.6628   -3.1253  -23.4509 C   0  0  0  0  0  0  0  0  0  0  0  0
   -9.7336   -4.2012  -23.5641 C   0  0  0  0  0  0  0  0  0  0  0  0
   -9.1621   -5.5017  -24.1045 C   0  0  0  0  0  0  0  0  0  0  0  0
   -7.9855   -5.9353  -23.2418 C   0  0  0  0  0  0  0  0  0  0  0  0
   -6.9127   -4.8513  -23.1006 C   0  0  1  0  0  0  0  0  0  0  0  0
   -6.0432   -4.6964  -24.3695 C   0  0  0  0  0  0  0  0  0  0  0  0
   -5.2087   -5.9201  -24.6882 C   0  0  0  0  0  0  0  0  0  0  0  0
   -4.0474   -6.1894  -23.9579 C   0  0  0  0  0  0  0  0  0  0  0  0
   -3.2848   -7.3205  -24.2201 C   0  0  0  0  0  0  0  0  0  0  0  0
   -3.6703   -8.2117  -25.2176 C   0  0  0  0  0  0  0  0  0  0  0  0
   -4.8278   -7.9607  -25.9497 C   0  0  0  0  0  0  0  0  0  0  0  0
   -5.5854   -6.8248  -25.6833 C   0  0  0  0  0  0  0  0  0  0  0  0
   -6.4943   -6.6403  -26.2527 H   0  0  0  0  0  0  0  0  0  0  0  0
   -5.1416   -8.6462  -26.7318 H   0  0  0  0  0  0  0  0  0  0  0  0
   -3.0716   -9.0920  -25.4259 H   0  0  0  0  0  0  0  0  0  0  0  0
   -2.3831   -7.5093  -23.6435 H   0  0  0  0  0  0  0  0  0  0  0  0
   -3.7438   -5.4989  -23.1743 H   0  0  0  0  0  0  0  0  0  0  0  0
   -6.6853   -4.4569  -25.2239 H   0  0  0  0  0  0  0  0  0  0  0  0
   -5.3824   -3.8374  -24.2149 H   0  0  0  0  0  0  0  0  0  0  0  0
   -6.2400   -5.1508  -22.2981 H   0  0  0  0  0  0  0  0  0  0  0  0
   -8.3499   -6.1921  -22.2439 H   0  0  0  0  0  0  0  0  0  0  0  0
   -7.5382   -6.8521  -23.6373 H   0  0  0  0  0  0  0  0  0  0  0  0
   -9.9315   -6.2801  -24.1287 H   0  0  0  0  0  0  0  0  0  0  0  0
   -8.8388   -5.3748  -25.1450 H   0  0  0  0  0  0  0  0  0  0  0  0
  -10.1658   -4.3759  -22.5764 H   0  0  0  0  0  0  0  0  0  0  0  0
  -10.5504   -3.8477  -24.1995 H   0  0  0  0  0  0  0  0  0  0  0  0
   -9.0835   -2.2323  -22.9918 H   0  0  0  0  0  0  0  0  0  0  0  0
   -8.3547   -2.8303  -24.4654 H   0  0  0  0  0  0  0  0  0  0  0  0
  1  2  2  0
  2  3  1  0
  3  4  1  0
  4  5  2  0
  5  6  1  0
  6  7  2  0
  7  8  1  0
  8  9  2  0
  9 10  1  0
 10 11  2  0
 11 12  1  0
 12 13  2  0
 12 14  1  0
 11 15  1  0
 10 16  1  0
  9 17  1  0
  7 18  1  0
  5 19  1  0
  3 20  1  0
  3 21  1  0
  2 22  1  0
 22 23  1  0
 23 24  1  0
 24 25  1  0
 25 26  1  0
 26 27  1  0
 27 28  1  0
 28 29  1  0
 29 30  2  0
 30 31  1  0
 31 32  2  0
 32 33  1  0
 33 34  2  0
 34 35  1  0
 33 36  1  0
 32 37  1  0
 31 38  1  0
 30 39  1  0
 28 40  1  0
 28 41  1  0
 27 42  1  1
 26 43  1  0
 26 44  1  0
 25 45  1  0
 25 46  1  0
 24 47  1  0
 24 48  1  0
 23 49  1  0
 23 50  1  0
 13  4  1  0
 27 22  1  0
 34 29  1  0
 13  8  1  0
M  END
>  <cnnaffinities>  (71) 
[5.75279]

>  <score>  (71) 
5.75279

>  <index>  (71) 
73

>  <Smiles>  (71) 
O=C(C(c1c(nc(c2c(c(c(c(c12)[H])[H])[H])[H])[H])[H])([H])[H])N1C(C(C(C([C@]1(C(c1c(c(c(c(c1[H])[H])[H])[H])[H])([H])[H])[H])([H])[H])([H])[H])([H])[H])([H])[H]

>  <h>  (71) 
<NA>

>  <Training>  (71) 
True

>  <Success>  (71) 
True

>  <enamine_searched>  (71) 
False

>  <enamine_id>  (71) 
nan

$$$$

     RDKit          3D

 43 47  0  0  0  0  0  0  0  0999 V2000
   -9.4239   -0.4510  -20.9891 O   0  0  0  0  0  0  0  0  0  0  0  0
   -8.7434   -1.3641  -21.3802 C   0  0  0  0  0  0  0  0  0  0  0  0
   -9.1369   -2.4535  -22.1113 N   0  0  0  0  0  0  0  0  0  0  0  0
   -8.0405   -3.1475  -22.7400 C   0  0  1  0  0  0  0  0  0  0  0  0
   -8.1056   -4.6900  -22.7164 C   0  0  0  0  0  0  0  0  0  0  0  0
   -8.2245   -4.7218  -24.2745 C   0  0  2  0  0  0  0  0  0  0  0  0
   -7.1762   -5.5210  -24.9843 C   0  0  0  0  0  0  0  0  0  0  0  0
   -5.8198   -5.2761  -24.7394 C   0  0  0  0  0  0  0  0  0  0  0  0
   -4.8286   -6.0088  -25.3816 C   0  0  0  0  0  0  0  0  0  0  0  0
   -5.1777   -7.0083  -26.2879 C   0  0  0  0  0  0  0  0  0  0  0  0
   -6.5172   -7.2656  -26.5465 C   0  0  0  0  0  0  0  0  0  0  0  0
   -7.4973   -6.5303  -25.8920 C   0  0  0  0  0  0  0  0  0  0  0  0
   -9.1657   -6.9181  -26.2468 Cl  0  0  0  0  0  0  0  0  0  0  0  0
   -6.8197   -8.0230  -27.2605 H   0  0  0  0  0  0  0  0  0  0  0  0
   -4.4107   -7.5857  -26.7968 H   0  0  0  0  0  0  0  0  0  0  0  0
   -3.7844   -5.7930  -25.1761 H   0  0  0  0  0  0  0  0  0  0  0  0
   -5.5486   -4.4929  -24.0287 H   0  0  0  0  0  0  0  0  0  0  0  0
   -8.0356   -3.1697  -24.2981 C   0  0  0  0  0  0  0  0  0  0  0  0
   -8.8573   -2.6036  -24.7523 H   0  0  0  0  0  0  0  0  0  0  0  0
   -7.0984   -2.8270  -24.7560 H   0  0  0  0  0  0  0  0  0  0  0  0
   -9.2254   -5.0175  -24.6030 H   0  0  0  0  0  0  0  0  0  0  0  0
   -8.9695   -5.0683  -22.1629 H   0  0  0  0  0  0  0  0  0  0  0  0
   -7.1940   -5.1496  -22.3158 H   0  0  0  0  0  0  0  0  0  0  0  0
   -6.8398   -2.5185  -22.0515 C   0  0  0  0  0  0  0  0  0  0  0  0
   -5.6795   -2.8164  -22.2217 O   0  0  0  0  0  0  0  0  0  0  0  0
   -7.3392   -1.5163  -21.2081 N   0  0  0  0  0  0  0  0  0  0  0  0
   -6.5832   -0.8582  -20.1892 C   0  0  0  0  0  0  0  0  0  0  0  0
   -6.9070   -1.0591  -18.8692 C   0  0  0  0  0  0  0  0  0  0  0  0
   -6.2089   -0.5415  -17.8319 N   0  0  0  0  0  0  0  0  0  0  0  0
   -5.1741    0.2086  -18.1005 C   0  0  0  0  0  0  0  0  0  0  0  0
   -4.7428    0.5259  -19.4149 C   0  0  0  0  0  0  0  0  0  0  0  0
   -3.6133    1.3582  -19.6404 C   0  0  0  0  0  0  0  0  0  0  0  0
   -3.2238    1.6610  -20.9142 C   0  0  0  0  0  0  0  0  0  0  0  0
   -3.9548    1.1445  -22.0083 C   0  0  0  0  0  0  0  0  0  0  0  0
   -5.0481    0.3365  -21.8147 C   0  0  0  0  0  0  0  0  0  0  0  0
   -5.4683   -0.0109  -20.5012 C   0  0  0  0  0  0  0  0  0  0  0  0
   -5.5942   -0.0533  -22.6677 H   0  0  0  0  0  0  0  0  0  0  0  0
   -3.6482    1.3908  -23.0185 H   0  0  0  0  0  0  0  0  0  0  0  0
   -2.3675    2.3076  -21.0925 H   0  0  0  0  0  0  0  0  0  0  0  0
   -3.0813    1.7530  -18.7798 H   0  0  0  0  0  0  0  0  0  0  0  0
   -4.6252    0.6093  -17.2498 H   0  0  0  0  0  0  0  0  0  0  0  0
   -7.7532   -1.6829  -18.5940 H   0  0  0  0  0  0  0  0  0  0  0  0
  -10.1002   -2.6013  -22.3692 H   0  0  0  0  0  0  0  0  0  0  0  0
  1  2  2  0
  2  3  1  0
  4  3  1  6
  4  5  1  0
  5  6  1  0
  6  7  1  0
  7  8  2  0
  8  9  1  0
  9 10  2  0
 10 11  1  0
 11 12  2  0
 12 13  1  0
 11 14  1  0
 10 15  1  0
  9 16  1  0
  8 17  1  0
  6 18  1  0
 18 19  1  0
 18 20  1  0
  6 21  1  1
  5 22  1  0
  5 23  1  0
  4 24  1  0
 24 25  2  0
 24 26  1  0
 26 27  1  0
 27 28  2  0
 28 29  1  0
 29 30  2  0
 30 31  1  0
 31 32  2  0
 32 33  1  0
 33 34  2  0
 34 35  1  0
 35 36  2  0
 35 37  1  0
 34 38  1  0
 33 39  1  0
 32 40  1  0
 30 41  1  0
 28 42  1  0
  3 43  1  0
 26  2  1  0
 36 27  1  0
 18  4  1  0
 36 31  1  0
 12  7  1  0
M  END
>  <cnnaffinities>  (72) 
[5.8709]

>  <score>  (72) 
5.8709

>  <index>  (72) 
74

>  <Smiles>  (72) 
O=C1N([C@]2(C([C@](c3c(c(c(c(c3Cl)[H])[H])[H])[H])(C2([H])[H])[H])([H])[H])C(=O)N1c1c(nc(c2c(c(c(c(c12)[H])[H])[H])[H])[H])[H])[H]

>  <h>  (72) 
<NA>

>  <Training>  (72) 
True

>  <Success>  (72) 
True

>  <enamine_searched>  (72) 
False

>  <enamine_id>  (72) 
nan

$$$$

     RDKit          3D

 66 71  0  0  0  0  0  0  0  0999 V2000
   -7.4659    3.1435  -21.7950 C   0  0  0  0  0  0  0  0  0  0  0  0
   -8.5412    2.7527  -22.6875 N   0  0  0  0  0  0  0  0  0  0  0  0
   -8.1963    2.0349  -23.7877 C   0  0  0  0  0  0  0  0  0  0  0  0
   -7.0267    1.7931  -24.0550 O   0  0  0  0  0  0  0  0  0  0  0  0
   -9.3305    1.5099  -24.6655 C   0  0  0  0  0  0  0  0  0  0  0  0
   -9.8926    0.3054  -24.0761 N   0  0  0  0  0  0  0  0  0  0  0  0
   -9.0845   -0.9097  -24.0460 C   0  0  0  0  0  0  0  0  0  0  0  0
   -9.2901   -1.6995  -22.7256 C   0  0  2  0  0  0  0  0  0  0  0  0
   -8.6745   -0.8733  -21.5547 C   0  0  0  0  0  0  0  0  0  0  0  0
   -9.1561    0.1079  -21.0245 O   0  0  0  0  0  0  0  0  0  0  0  0
   -7.4497   -1.4144  -21.2253 N   0  0  0  0  0  0  0  0  0  0  0  0
   -6.6328   -0.8372  -20.2103 C   0  0  0  0  0  0  0  0  0  0  0  0
   -6.9405   -1.0537  -18.8886 C   0  0  0  0  0  0  0  0  0  0  0  0
   -6.2310   -0.5647  -17.8452 N   0  0  0  0  0  0  0  0  0  0  0  0
   -5.1883    0.1807  -18.1087 C   0  0  0  0  0  0  0  0  0  0  0  0
   -4.7551    0.4967  -19.4254 C   0  0  0  0  0  0  0  0  0  0  0  0
   -3.6359    1.3400  -19.6540 C   0  0  0  0  0  0  0  0  0  0  0  0
   -3.2476    1.6447  -20.9299 C   0  0  0  0  0  0  0  0  0  0  0  0
   -3.9636    1.1235  -22.0279 C   0  0  0  0  0  0  0  0  0  0  0  0
   -5.0597    0.3116  -21.8325 C   0  0  0  0  0  0  0  0  0  0  0  0
   -5.4864   -0.0317  -20.5201 C   0  0  0  0  0  0  0  0  0  0  0  0
   -5.6360   -0.0181  -22.6912 H   0  0  0  0  0  0  0  0  0  0  0  0
   -3.6576    1.3757  -23.0385 H   0  0  0  0  0  0  0  0  0  0  0  0
   -2.3961    2.2965  -21.1033 H   0  0  0  0  0  0  0  0  0  0  0  0
   -3.1076    1.7405  -18.7933 H   0  0  0  0  0  0  0  0  0  0  0  0
   -4.6258    0.5801  -17.2623 H   0  0  0  0  0  0  0  0  0  0  0  0
   -7.8052   -1.6609  -18.6327 H   0  0  0  0  0  0  0  0  0  0  0  0
   -7.1055   -2.5879  -22.0105 C   0  0  0  0  0  0  0  0  0  0  0  0
   -8.4371   -3.0021  -22.6647 C   0  0  2  0  0  0  0  0  0  0  0  0
   -8.2138   -3.8129  -23.9506 C   0  0  0  0  0  0  0  0  0  0  0  0
   -9.4248   -4.4615  -24.4064 N   0  0  0  0  0  0  0  0  0  0  0  0
   -9.4888   -5.3503  -25.4515 C   0  0  0  0  0  0  0  0  0  0  0  0
   -8.3367   -5.9016  -26.0770 C   0  0  0  0  0  0  0  0  0  0  0  0
   -8.4155   -6.7703  -27.0723 N   0  0  0  0  0  0  0  0  0  0  0  0
   -9.6438   -7.1287  -27.4604 C   0  0  0  0  0  0  0  0  0  0  0  0
  -10.7647   -6.6093  -26.8321 C   0  0  0  0  0  0  0  0  0  0  0  0
  -10.7147   -5.7032  -25.8543 N   0  0  0  0  0  0  0  0  0  0  0  0
  -11.7475   -6.9010  -27.1580 H   0  0  0  0  0  0  0  0  0  0  0  0
   -9.7029   -7.8557  -28.2602 H   0  0  0  0  0  0  0  0  0  0  0  0
   -7.3311   -5.6192  -25.7642 H   0  0  0  0  0  0  0  0  0  0  0  0
  -10.3147   -4.0256  -24.2050 H   0  0  0  0  0  0  0  0  0  0  0  0
   -7.4769   -4.5955  -23.7302 H   0  0  0  0  0  0  0  0  0  0  0  0
   -7.7799   -3.1758  -24.7387 H   0  0  0  0  0  0  0  0  0  0  0  0
   -8.9315   -3.6699  -21.9552 H   0  0  0  0  0  0  0  0  0  0  0  0
   -6.3408   -2.3545  -22.7682 H   0  0  0  0  0  0  0  0  0  0  0  0
   -6.7094   -3.3845  -21.3711 H   0  0  0  0  0  0  0  0  0  0  0  0
  -10.7915   -1.8828  -22.5268 C   0  0  0  0  0  0  0  0  0  0  0  0
  -11.3229   -2.9211  -21.7480 C   0  0  0  0  0  0  0  0  0  0  0  0
  -12.6740   -2.9430  -21.4368 C   0  0  0  0  0  0  0  0  0  0  0  0
  -13.3051   -4.1257  -20.3343 Cl  0  0  0  0  0  0  0  0  0  0  0  0
  -13.5586   -1.9880  -21.9260 C   0  0  0  0  0  0  0  0  0  0  0  0
  -13.0529   -0.9745  -22.7086 C   0  0  0  0  0  0  0  0  0  0  0  0
  -11.6909   -0.9136  -23.0015 C   0  0  0  0  0  0  0  0  0  0  0  0
  -11.2298    0.2747  -23.7912 C   0  0  0  0  0  0  0  0  0  0  0  0
  -12.0009    1.1594  -24.1312 O   0  0  0  0  0  0  0  0  0  0  0  0
  -13.6919   -0.1835  -23.0810 H   0  0  0  0  0  0  0  0  0  0  0  0
  -14.6079   -2.0361  -21.6566 H   0  0  0  0  0  0  0  0  0  0  0  0
  -10.6968   -3.6997  -21.3285 H   0  0  0  0  0  0  0  0  0  0  0  0
   -8.0333   -0.6273  -24.1607 H   0  0  0  0  0  0  0  0  0  0  0  0
   -9.3594   -1.5502  -24.8965 H   0  0  0  0  0  0  0  0  0  0  0  0
  -10.1386    2.2386  -24.7821 H   0  0  0  0  0  0  0  0  0  0  0  0
   -8.9200    1.2953  -25.6599 H   0  0  0  0  0  0  0  0  0  0  0  0
   -9.4700    2.6805  -22.2930 H   0  0  0  0  0  0  0  0  0  0  0  0
   -7.8982    3.5278  -20.8789 H   0  0  0  0  0  0  0  0  0  0  0  0
   -6.8374    2.2781  -21.5626 H   0  0  0  0  0  0  0  0  0  0  0  0
   -6.8467    3.9215  -22.2502 H   0  0  0  0  0  0  0  0  0  0  0  0
  1  2  1  0
  2  3  1  0
  3  4  2  0
  3  5  1  0
  5  6  1  0
  6  7  1  0
  8  7  1  6
  8  9  1  0
  9 10  2  0
  9 11  1  0
 11 12  1  0
 12 13  2  0
 13 14  1  0
 14 15  2  0
 15 16  1  0
 16 17  2  0
 17 18  1  0
 18 19  2  0
 19 20  1  0
 20 21  2  0
 20 22  1  0
 19 23  1  0
 18 24  1  0
 17 25  1  0
 15 26  1  0
 13 27  1  0
 11 28  1  0
 28 29  1  0
 29 30  1  0
 30 31  1  0
 31 32  1  0
 32 33  2  0
 33 34  1  0
 34 35  2  0
 35 36  1  0
 36 37  2  0
 36 38  1  0
 35 39  1  0
 33 40  1  0
 31 41  1  0
 30 42  1  0
 30 43  1  0
 29 44  1  1
 28 45  1  0
 28 46  1  0
  8 47  1  0
 47 48  2  0
 48 49  1  0
 49 50  1  0
 49 51  2  0
 51 52  1  0
 52 53  2  0
 53 54  1  0
 54 55  2  0
 52 56  1  0
 51 57  1  0
 48 58  1  0
  7 59  1  0
  7 60  1  0
  5 61  1  0
  5 62  1  0
  2 63  1  0
  1 64  1  0
  1 65  1  0
  1 66  1  0
 54  6  1  0
 29  8  1  0
 37 32  1  0
 53 47  1  0
 21 12  1  0
 21 16  1  0
M  END
>  <cnnaffinities>  (73) 
[6.42201]

>  <score>  (73) 
6.42201

>  <index>  (73) 
75

>  <Smiles>  (73) 
C(N(C(=O)C(N1C([C@@]2(C(=O)N(c3c(nc(c4c(c(c(c(c34)[H])[H])[H])[H])[H])[H])C([C@@]2(C(N(c2c(nc(c(n2)[H])[H])[H])[H])([H])[H])[H])([H])[H])c2c(c(Cl)c(c(c2C1=O)[H])[H])[H])([H])[H])([H])[H])[H])([H])([H])[H]

>  <h>  (73) 
<NA>

>  <Training>  (73) 
True

>  <Success>  (73) 
True

>  <enamine_searched>  (73) 
False

>  <enamine_id>  (73) 
nan

$$$$

     RDKit          3D

 66 71  0  0  0  0  0  0  0  0999 V2000
   -8.2467   -3.4629  -24.0347 C   0  0  0  0  0  0  0  0  0  0  0  0
   -8.4657   -2.7112  -22.7301 C   0  0  1  0  0  0  0  0  0  0  0  0
   -7.1607   -2.4713  -21.9489 C   0  0  0  0  0  0  0  0  0  0  0  0
   -7.4725   -1.2899  -21.1750 N   0  0  0  0  0  0  0  0  0  0  0  0
   -6.6402   -0.7548  -20.1611 C   0  0  0  0  0  0  0  0  0  0  0  0
   -6.9363   -0.9947  -18.8427 C   0  0  0  0  0  0  0  0  0  0  0  0
   -6.2054   -0.5232  -17.8071 N   0  0  0  0  0  0  0  0  0  0  0  0
   -5.1684    0.2253  -18.0840 C   0  0  0  0  0  0  0  0  0  0  0  0
   -4.7488    0.5521  -19.4056 C   0  0  0  0  0  0  0  0  0  0  0  0
   -3.6312    1.3921  -19.6542 C   0  0  0  0  0  0  0  0  0  0  0  0
   -3.2465    1.6739  -20.9366 C   0  0  0  0  0  0  0  0  0  0  0  0
   -3.9622    1.1328  -22.0276 C   0  0  0  0  0  0  0  0  0  0  0  0
   -5.0589    0.3271  -21.8137 C   0  0  0  0  0  0  0  0  0  0  0  0
   -5.4887    0.0251  -20.4901 C   0  0  0  0  0  0  0  0  0  0  0  0
   -5.6027   -0.0735  -22.6651 H   0  0  0  0  0  0  0  0  0  0  0  0
   -3.6536    1.3628  -23.0423 H   0  0  0  0  0  0  0  0  0  0  0  0
   -2.3955    2.3236  -21.1227 H   0  0  0  0  0  0  0  0  0  0  0  0
   -3.1010    1.8001  -18.7989 H   0  0  0  0  0  0  0  0  0  0  0  0
   -4.5953    0.6149  -17.2418 H   0  0  0  0  0  0  0  0  0  0  0  0
   -7.8012   -1.6010  -18.5826 H   0  0  0  0  0  0  0  0  0  0  0  0
   -8.5640   -0.5946  -21.6333 C   0  0  0  0  0  0  0  0  0  0  0  0
   -8.9934    0.4230  -21.1205 O   0  0  0  0  0  0  0  0  0  0  0  0
   -9.1531   -1.3156  -22.8626 C   0  0  1  0  0  0  0  0  0  0  0  0
   -8.7226   -0.6126  -24.1838 C   0  0  0  0  0  0  0  0  0  0  0  0
   -9.3836    0.6618  -24.4140 N   0  0  0  0  0  0  0  0  0  0  0  0
   -8.6542    1.7007  -25.1309 C   0  0  0  0  0  0  0  0  0  0  0  0
   -7.6919    2.3853  -24.1714 C   0  0  0  0  0  0  0  0  0  0  0  0
   -8.4387    3.0675  -23.0468 N   0  0  0  0  0  4  0  0  0  0  0  0
   -7.6648    3.0022  -21.7624 C   0  0  0  0  0  0  0  0  0  0  0  0
   -6.4194    3.8339  -21.8810 C   0  0  0  0  0  0  0  0  0  0  0  0
   -6.7804    5.1962  -22.0112 O   0  0  0  0  0  0  0  0  0  0  0  0
   -7.5127    5.4196  -23.2017 C   0  0  0  0  0  0  0  0  0  0  0  0
   -8.7513    4.5258  -23.3163 C   0  0  0  0  0  0  0  0  0  0  0  0
   -9.5063    4.8492  -22.5971 H   0  0  0  0  0  0  0  0  0  0  0  0
   -9.1643    4.6145  -24.3207 H   0  0  0  0  0  0  0  0  0  0  0  0
   -6.8696    5.2649  -24.0812 H   0  0  0  0  0  0  0  0  0  0  0  0
   -7.8101    6.4747  -23.2016 H   0  0  0  0  0  0  0  0  0  0  0  0
   -5.7996    3.6869  -21.0057 H   0  0  0  0  0  0  0  0  0  0  0  0
   -5.8312    3.5144  -22.7484 H   0  0  0  0  0  0  0  0  0  0  0  0
   -7.4363    1.9678  -21.5380 H   0  0  0  0  0  0  0  0  0  0  0  0
   -8.2598    3.4172  -20.9536 H   0  0  0  0  0  0  0  0  0  0  0  0
   -9.3336    2.5751  -22.9007 H   0  0  0  0  0  0  0  0  0  0  0  0
   -7.0551    1.6209  -23.7083 H   0  0  0  0  0  0  0  0  0  0  0  0
   -7.0480    3.1004  -24.6899 H   0  0  0  0  0  0  0  0  0  0  0  0
   -8.0956    1.2825  -25.9786 H   0  0  0  0  0  0  0  0  0  0  0  0
   -9.3841    2.4116  -25.5230 H   0  0  0  0  0  0  0  0  0  0  0  0
  -10.7182    0.8260  -24.1928 C   0  0  0  0  0  0  0  0  0  0  0  0
  -11.3314    1.8179  -24.5772 O   0  0  0  0  0  0  0  0  0  0  0  0
  -11.3955   -0.2526  -23.3979 C   0  0  0  0  0  0  0  0  0  0  0  0
  -12.7810   -0.1716  -23.2658 C   0  0  0  0  0  0  0  0  0  0  0  0
  -13.4781   -1.1093  -22.5290 C   0  0  0  0  0  0  0  0  0  0  0  0
  -12.7631   -2.1316  -21.9050 C   0  0  0  0  0  0  0  0  0  0  0  0
  -13.6096   -3.3156  -20.9397 Cl  0  0  0  0  0  0  0  0  0  0  0  0
  -11.3860   -2.2225  -22.0191 C   0  0  0  0  0  0  0  0  0  0  0  0
  -10.6718   -1.2931  -22.7896 C   0  0  0  0  0  0  0  0  0  0  0  0
  -10.8857   -3.0233  -21.4862 H   0  0  0  0  0  0  0  0  0  0  0  0
  -14.5571   -1.0553  -22.4272 H   0  0  0  0  0  0  0  0  0  0  0  0
  -13.3021    0.6458  -23.7546 H   0  0  0  0  0  0  0  0  0  0  0  0
   -7.6383   -0.4552  -24.1646 H   0  0  0  0  0  0  0  0  0  0  0  0
   -8.9506   -1.2731  -25.0301 H   0  0  0  0  0  0  0  0  0  0  0  0
   -6.8962   -3.3173  -21.3027 H   0  0  0  0  0  0  0  0  0  0  0  0
   -6.3039   -2.3093  -22.6209 H   0  0  0  0  0  0  0  0  0  0  0  0
   -9.0925   -3.3228  -22.0771 H   0  0  0  0  0  0  0  0  0  0  0  0
   -9.1842   -3.5602  -24.5924 H   0  0  0  0  0  0  0  0  0  0  0  0
   -7.5293   -2.9345  -24.6733 H   0  0  0  0  0  0  0  0  0  0  0  0
   -7.8418   -4.4633  -23.8539 H   0  0  0  0  0  0  0  0  0  0  0  0
  1  2  1  0
  2  3  1  0
  3  4  1  0
  4  5  1  0
  5  6  2  0
  6  7  1  0
  7  8  2  0
  8  9  1  0
  9 10  2  0
 10 11  1  0
 11 12  2  0
 12 13  1  0
 13 14  2  0
 13 15  1  0
 12 16  1  0
 11 17  1  0
 10 18  1  0
  8 19  1  0
  6 20  1  0
  4 21  1  0
 21 22  2  0
 21 23  1  0
 23 24  1  6
 24 25  1  0
 25 26  1  0
 26 27  1  0
 27 28  1  0
 28 29  1  0
 29 30  1  0
 30 31  1  0
 31 32  1  0
 32 33  1  0
 33 34  1  0
 33 35  1  0
 32 36  1  0
 32 37  1  0
 30 38  1  0
 30 39  1  0
 29 40  1  0
 29 41  1  0
 28 42  1  0
 27 43  1  0
 27 44  1  0
 26 45  1  0
 26 46  1  0
 25 47  1  0
 47 48  2  0
 47 49  1  0
 49 50  2  0
 50 51  1  0
 51 52  2  0
 52 53  1  0
 52 54  1  0
 54 55  2  0
 54 56  1  0
 51 57  1  0
 50 58  1  0
 24 59  1  0
 24 60  1  0
  3 61  1  0
  3 62  1  0
  2 63  1  1
  1 64  1  0
  1 65  1  0
  1 66  1  0
 23  2  1  0
 33 28  1  0
 55 49  1  0
 14  5  1  0
 55 23  1  0
 14  9  1  0
M  CHG  1  28   1
M  END
>  <cnnaffinities>  (74) 
[6.67374, 6.53745, 6.57651]

>  <score>  (74) 
6.67374

>  <index>  (74) 
76

>  <Smiles>  (74) 
C([C@]1(C(N(c2c(nc(c3c(c(c(c(c23)[H])[H])[H])[H])[H])[H])C(=O)[C@]21C(N(C(C([N+]1(C(C(OC(C1([H])[H])([H])[H])([H])[H])([H])[H])[H])([H])[H])([H])[H])C(=O)c1c(c(c(Cl)c(c21)[H])[H])[H])([H])[H])([H])[H])[H])([H])([H])[H]

>  <h>  (74) 
<NA>

>  <Training>  (74) 
True

>  <Success>  (74) 
True

>  <enamine_searched>  (74) 
False

>  <enamine_id>  (74) 
nan

$$$$

     RDKit          3D

 55 60  0  0  0  0  0  0  0  0999 V2000
  -10.4280   -1.0761  -23.3619 C   0  0  0  0  0  0  0  0  0  0  0  0
   -8.9837   -1.4130  -22.9975 C   0  0  1  0  0  0  0  0  0  0  0  0
   -8.4023   -0.4906  -21.9086 C   0  0  0  0  0  0  0  0  0  0  0  0
   -7.3986   -1.3221  -21.2706 N   0  0  0  0  0  0  0  0  0  0  0  0
   -6.5827   -0.8448  -20.2155 C   0  0  0  0  0  0  0  0  0  0  0  0
   -6.8873   -1.1158  -18.9053 C   0  0  0  0  0  0  0  0  0  0  0  0
   -6.2151   -0.5872  -17.8517 N   0  0  0  0  0  0  0  0  0  0  0  0
   -5.2062    0.2084  -18.1036 C   0  0  0  0  0  0  0  0  0  0  0  0
   -4.7542    0.5334  -19.4156 C   0  0  0  0  0  0  0  0  0  0  0  0
   -3.6275    1.3640  -19.6512 C   0  0  0  0  0  0  0  0  0  0  0  0
   -3.2226    1.6264  -20.9320 C   0  0  0  0  0  0  0  0  0  0  0  0
   -3.9155    1.0712  -22.0319 C   0  0  0  0  0  0  0  0  0  0  0  0
   -5.0097    0.2654  -21.8302 C   0  0  0  0  0  0  0  0  0  0  0  0
   -5.4574   -0.0122  -20.5113 C   0  0  0  0  0  0  0  0  0  0  0  0
   -5.5359   -0.1806  -22.6695 H   0  0  0  0  0  0  0  0  0  0  0  0
   -3.5810    1.2763  -23.0446 H   0  0  0  0  0  0  0  0  0  0  0  0
   -2.3596    2.2602  -21.1129 H   0  0  0  0  0  0  0  0  0  0  0  0
   -3.0995    1.7735  -18.7947 H   0  0  0  0  0  0  0  0  0  0  0  0
   -4.6815    0.6343  -17.2476 H   0  0  0  0  0  0  0  0  0  0  0  0
   -7.7150   -1.7785  -18.6565 H   0  0  0  0  0  0  0  0  0  0  0  0
   -7.5696   -2.6696  -21.5046 C   0  0  0  0  0  0  0  0  0  0  0  0
   -6.8527   -3.5323  -21.0409 O   0  0  0  0  0  0  0  0  0  0  0  0
   -8.7579   -2.8699  -22.4526 C   0  0  1  0  0  0  0  0  0  0  0  0
   -9.9656   -3.3337  -21.5992 C   0  0  0  0  0  0  0  0  0  0  0  0
  -11.0838   -3.8173  -22.3978 N   0  0  0  0  0  0  0  0  0  0  0  0
  -12.4591   -3.7919  -21.9051 C   0  0  0  0  0  0  0  0  0  0  0  0
  -13.3116   -2.6828  -22.4337 C   0  0  0  0  0  0  0  0  0  0  0  0
  -13.9580   -2.6342  -23.6252 C   0  0  0  0  0  0  0  0  0  0  0  0
  -14.6962   -1.4856  -23.6605 O   0  0  0  0  0  0  0  0  0  0  0  0
  -14.4342   -0.8848  -22.4840 C   0  0  0  0  0  0  0  0  0  0  0  0
  -13.6158   -1.5289  -21.7188 N   0  0  0  0  0  0  0  0  0  0  0  0
  -14.9325    0.0560  -22.2804 H   0  0  0  0  0  0  0  0  0  0  0  0
  -14.0310   -3.2818  -24.4869 H   0  0  0  0  0  0  0  0  0  0  0  0
  -12.4754   -3.7785  -20.8132 H   0  0  0  0  0  0  0  0  0  0  0  0
  -12.9171   -4.7159  -22.2639 H   0  0  0  0  0  0  0  0  0  0  0  0
  -10.8939   -4.5425  -23.5411 C   0  0  0  0  0  0  0  0  0  0  0  0
  -11.8401   -5.0329  -24.1535 O   0  0  0  0  0  0  0  0  0  0  0  0
   -9.4877   -4.7181  -23.9972 C   0  0  0  0  0  0  0  0  0  0  0  0
   -9.2398   -5.7193  -24.9330 C   0  0  0  0  0  0  0  0  0  0  0  0
   -7.9687   -5.9127  -25.4396 C   0  0  0  0  0  0  0  0  0  0  0  0
   -6.9538   -5.0632  -25.0079 C   0  0  0  0  0  0  0  0  0  0  0  0
   -5.7144   -5.2192  -25.5085 F   0  0  0  0  0  0  0  0  0  0  0  0
   -7.1637   -4.0878  -24.0494 C   0  0  0  0  0  0  0  0  0  0  0  0
   -8.4523   -3.9114  -23.5132 C   0  0  0  0  0  0  0  0  0  0  0  0
   -6.3086   -3.5190  -23.6934 H   0  0  0  0  0  0  0  0  0  0  0  0
   -7.7477   -6.7019  -26.1497 H   0  0  0  0  0  0  0  0  0  0  0  0
  -10.0659   -6.3496  -25.2475 H   0  0  0  0  0  0  0  0  0  0  0  0
  -10.2770   -2.4899  -20.9756 H   0  0  0  0  0  0  0  0  0  0  0  0
   -9.6357   -4.1099  -20.9091 H   0  0  0  0  0  0  0  0  0  0  0  0
   -9.1785   -0.1782  -21.1900 H   0  0  0  0  0  0  0  0  0  0  0  0
   -7.9605    0.4294  -22.3105 H   0  0  0  0  0  0  0  0  0  0  0  0
   -8.3547   -1.3203  -23.8926 H   0  0  0  0  0  0  0  0  0  0  0  0
  -10.5189   -0.1092  -23.8621 H   0  0  0  0  0  0  0  0  0  0  0  0
  -10.8455   -1.8432  -24.0213 H   0  0  0  0  0  0  0  0  0  0  0  0
  -11.0649   -1.0308  -22.4725 H   0  0  0  0  0  0  0  0  0  0  0  0
  1  2  1  0
  2  3  1  0
  3  4  1  0
  4  5  1  0
  5  6  2  0
  6  7  1  0
  7  8  2  0
  8  9  1  0
  9 10  2  0
 10 11  1  0
 11 12  2  0
 12 13  1  0
 13 14  2  0
 13 15  1  0
 12 16  1  0
 11 17  1  0
 10 18  1  0
  8 19  1  0
  6 20  1  0
  4 21  1  0
 21 22  2  0
 21 23  1  0
 23 24  1  1
 24 25  1  0
 25 26  1  0
 26 27  1  0
 27 28  2  0
 28 29  1  0
 29 30  1  0
 30 31  2  0
 30 32  1  0
 28 33  1  0
 26 34  1  0
 26 35  1  0
 25 36  1  0
 36 37  2  0
 36 38  1  0
 38 39  2  0
 39 40  1  0
 40 41  2  0
 41 42  1  0
 41 43  1  0
 43 44  2  0
 43 45  1  0
 40 46  1  0
 39 47  1  0
 24 48  1  0
 24 49  1  0
  3 50  1  0
  3 51  1  0
  2 52  1  6
  1 53  1  0
  1 54  1  0
  1 55  1  0
 23  2  1  0
 31 27  1  0
 44 38  1  0
 14  5  1  0
 44 23  1  0
 14  9  1  0
M  END
>  <cnnaffinities>  (75) 
[6.77846]

>  <score>  (75) 
6.77846

>  <index>  (75) 
77

>  <Smiles>  (75) 
C([C@]1(C(N(c2c(nc(c3c(c(c(c(c23)[H])[H])[H])[H])[H])[H])C(=O)[C@]21C(N(C(c1c(oc(n1)[H])[H])([H])[H])C(=O)c1c(c(c(F)c(c21)[H])[H])[H])([H])[H])([H])[H])[H])([H])([H])[H]

>  <h>  (75) 
<NA>

>  <Training>  (75) 
True

>  <Success>  (75) 
True

>  <enamine_searched>  (75) 
False

>  <enamine_id>  (75) 
nan

$$$$

     RDKit          3D

 56 60  0  0  0  0  0  0  0  0999 V2000
  -14.4781   -1.5906  -23.7855 C   0  0  0  0  0  0  0  0  0  0  0  0
  -13.7173   -2.7344  -23.3333 N   0  0  0  0  0  0  0  0  0  0  0  0
  -13.2907   -2.7518  -22.0450 C   0  0  0  0  0  0  0  0  0  0  0  0
  -13.5832   -1.8788  -21.2429 O   0  0  0  0  0  0  0  0  0  0  0  0
  -12.4240   -3.9513  -21.7088 C   0  0  0  0  0  0  0  0  0  0  0  0
  -11.0909   -3.9026  -22.2785 N   0  0  0  0  0  0  0  0  0  0  0  0
   -9.9788   -3.3978  -21.4858 C   0  0  0  0  0  0  0  0  0  0  0  0
   -8.7816   -2.9274  -22.3479 C   0  0  2  0  0  0  0  0  0  0  0  0
   -7.5529   -2.7092  -21.4475 C   0  0  0  0  0  0  0  0  0  0  0  0
   -6.8111   -3.5615  -21.0120 O   0  0  0  0  0  0  0  0  0  0  0  0
   -7.3979   -1.3550  -21.2324 N   0  0  0  0  0  0  0  0  0  0  0  0
   -6.5790   -0.8527  -20.1932 C   0  0  0  0  0  0  0  0  0  0  0  0
   -6.8886   -1.0958  -18.8795 C   0  0  0  0  0  0  0  0  0  0  0  0
   -6.2128   -0.5634  -17.8314 N   0  0  0  0  0  0  0  0  0  0  0  0
   -5.1914    0.2105  -18.0937 C   0  0  0  0  0  0  0  0  0  0  0  0
   -4.7463    0.5190  -19.4103 C   0  0  0  0  0  0  0  0  0  0  0  0
   -3.6199    1.3449  -19.6472 C   0  0  0  0  0  0  0  0  0  0  0  0
   -3.2165    1.6117  -20.9253 C   0  0  0  0  0  0  0  0  0  0  0  0
   -3.9169    1.0650  -22.0233 C   0  0  0  0  0  0  0  0  0  0  0  0
   -5.0127    0.2623  -21.8219 C   0  0  0  0  0  0  0  0  0  0  0  0
   -5.4573   -0.0234  -20.5034 C   0  0  0  0  0  0  0  0  0  0  0  0
   -5.5345   -0.1682  -22.6714 H   0  0  0  0  0  0  0  0  0  0  0  0
   -3.5883    1.2839  -23.0341 H   0  0  0  0  0  0  0  0  0  0  0  0
   -2.3621    2.2564  -21.1046 H   0  0  0  0  0  0  0  0  0  0  0  0
   -3.0982    1.7581  -18.7893 H   0  0  0  0  0  0  0  0  0  0  0  0
   -4.6509    0.6358  -17.2458 H   0  0  0  0  0  0  0  0  0  0  0  0
   -7.7300   -1.7365  -18.6248 H   0  0  0  0  0  0  0  0  0  0  0  0
   -8.3888   -0.5361  -21.9052 C   0  0  0  0  0  0  0  0  0  0  0  0
   -9.0017   -1.4909  -22.9408 C   0  0  2  0  0  0  0  0  0  0  0  0
  -10.4465   -1.1513  -23.2802 C   0  0  0  0  0  0  0  0  0  0  0  0
  -11.0571   -1.1274  -22.3707 H   0  0  0  0  0  0  0  0  0  0  0  0
  -10.5287   -0.1793  -23.7739 H   0  0  0  0  0  0  0  0  0  0  0  0
  -10.8642   -1.9159  -23.9401 H   0  0  0  0  0  0  0  0  0  0  0  0
   -8.3920   -1.4456  -23.8550 H   0  0  0  0  0  0  0  0  0  0  0  0
   -7.9260    0.3412  -22.3712 H   0  0  0  0  0  0  0  0  0  0  0  0
   -9.1493   -0.1722  -21.1961 H   0  0  0  0  0  0  0  0  0  0  0  0
   -8.5016   -3.9734  -23.3960 C   0  0  0  0  0  0  0  0  0  0  0  0
   -7.2273   -4.0951  -23.9502 C   0  0  0  0  0  0  0  0  0  0  0  0
   -6.9920   -5.0279  -24.9410 C   0  0  0  0  0  0  0  0  0  0  0  0
   -5.4244   -5.0915  -25.6756 Cl  0  0  0  0  0  0  0  0  0  0  0  0
   -7.9897   -5.8845  -25.3973 C   0  0  0  0  0  0  0  0  0  0  0  0
   -9.2518   -5.7586  -24.8533 C   0  0  0  0  0  0  0  0  0  0  0  0
   -9.5183   -4.7911  -23.8888 C   0  0  0  0  0  0  0  0  0  0  0  0
  -10.9212   -4.5949  -23.4376 C   0  0  0  0  0  0  0  0  0  0  0  0
  -11.8867   -5.0144  -24.0767 O   0  0  0  0  0  0  0  0  0  0  0  0
  -10.0565   -6.4092  -25.1681 H   0  0  0  0  0  0  0  0  0  0  0  0
   -7.7767   -6.6091  -26.1766 H   0  0  0  0  0  0  0  0  0  0  0  0
   -6.4202   -3.4587  -23.6096 H   0  0  0  0  0  0  0  0  0  0  0  0
   -9.6607   -4.1935  -20.8094 H   0  0  0  0  0  0  0  0  0  0  0  0
  -10.3275   -2.5427  -20.8972 H   0  0  0  0  0  0  0  0  0  0  0  0
  -12.9129   -4.7936  -22.1994 H   0  0  0  0  0  0  0  0  0  0  0  0
  -12.3961   -4.1097  -20.6310 H   0  0  0  0  0  0  0  0  0  0  0  0
  -13.4852   -3.5049  -23.9504 H   0  0  0  0  0  0  0  0  0  0  0  0
  -13.8656   -0.6805  -23.7763 H   0  0  0  0  0  0  0  0  0  0  0  0
  -14.8368   -1.7526  -24.8022 H   0  0  0  0  0  0  0  0  0  0  0  0
  -15.3335   -1.4218  -23.1250 H   0  0  0  0  0  0  0  0  0  0  0  0
  1  2  1  0
  2  3  1  0
  3  4  2  0
  3  5  1  0
  5  6  1  0
  6  7  1  0
  8  7  1  1
  8  9  1  0
  9 10  2  0
  9 11  1  0
 11 12  1  0
 12 13  2  0
 13 14  1  0
 14 15  2  0
 15 16  1  0
 16 17  2  0
 17 18  1  0
 18 19  2  0
 19 20  1  0
 20 21  2  0
 20 22  1  0
 19 23  1  0
 18 24  1  0
 17 25  1  0
 15 26  1  0
 13 27  1  0
 11 28  1  0
 28 29  1  0
 29 30  1  0
 30 31  1  0
 30 32  1  0
 30 33  1  0
 29 34  1  6
 28 35  1  0
 28 36  1  0
  8 37  1  0
 37 38  2  0
 38 39  1  0
 39 40  1  0
 39 41  2  0
 41 42  1  0
 42 43  2  0
 43 44  1  0
 44 45  2  0
 42 46  1  0
 41 47  1  0
 38 48  1  0
  7 49  1  0
  7 50  1  0
  5 51  1  0
  5 52  1  0
  2 53  1  0
  1 54  1  0
  1 55  1  0
  1 56  1  0
 44  6  1  0
 29  8  1  0
 43 37  1  0
 21 12  1  0
 21 16  1  0
M  END
>  <cnnaffinities>  (76) 
[6.60874, 6.45223]

>  <score>  (76) 
6.60874

>  <index>  (76) 
78

>  <Smiles>  (76) 
C(N(C(=O)C(N1C([C@@]2(C(=O)N(c3c(nc(c4c(c(c(c(c34)[H])[H])[H])[H])[H])[H])C([C@@]2(C([H])([H])[H])[H])([H])[H])c2c(c(Cl)c(c(c2C1=O)[H])[H])[H])([H])[H])([H])[H])[H])([H])([H])[H]

>  <h>  (76) 
<NA>

>  <Training>  (76) 
True

>  <Success>  (76) 
True

>  <enamine_searched>  (76) 
False

>  <enamine_id>  (76) 
nan

$$$$

     RDKit          3D

 45 49  0  0  0  0  0  0  0  0999 V2000
   -7.6298   -4.1915  -23.7472 C   0  0  0  0  0  0  0  0  0  0  0  0
   -7.7740   -3.0025  -22.9319 N   0  0  0  0  0  0  0  0  0  0  0  0
   -6.7713   -2.6011  -22.0805 C   0  0  0  0  0  0  0  0  0  0  0  0
   -5.6527   -3.0516  -21.9864 O   0  0  0  0  0  0  0  0  0  0  0  0
   -7.3084   -1.5551  -21.3089 N   0  0  0  0  0  0  0  0  0  0  0  0
   -6.5896   -0.9102  -20.2695 C   0  0  0  0  0  0  0  0  0  0  0  0
   -6.9612   -1.0956  -18.9623 C   0  0  0  0  0  0  0  0  0  0  0  0
   -6.2959   -0.5779  -17.9021 N   0  0  0  0  0  0  0  0  0  0  0  0
   -5.2461    0.1626  -18.1475 C   0  0  0  0  0  0  0  0  0  0  0  0
   -4.7739    0.4600  -19.4564 C   0  0  0  0  0  0  0  0  0  0  0  0
   -3.6533    1.3065  -19.6629 C   0  0  0  0  0  0  0  0  0  0  0  0
   -3.2602    1.6260  -20.9328 C   0  0  0  0  0  0  0  0  0  0  0  0
   -3.9629    1.1123  -22.0473 C   0  0  0  0  0  0  0  0  0  0  0  0
   -5.0440    0.2816  -21.8743 C   0  0  0  0  0  0  0  0  0  0  0  0
   -5.4678   -0.0751  -20.5623 C   0  0  0  0  0  0  0  0  0  0  0  0
   -5.5894   -0.0974  -22.7350 H   0  0  0  0  0  0  0  0  0  0  0  0
   -3.6564    1.3889  -23.0516 H   0  0  0  0  0  0  0  0  0  0  0  0
   -2.4189    2.2947  -21.0936 H   0  0  0  0  0  0  0  0  0  0  0  0
   -3.1488    1.7089  -18.7884 H   0  0  0  0  0  0  0  0  0  0  0  0
   -4.7165    0.5826  -17.2904 H   0  0  0  0  0  0  0  0  0  0  0  0
   -7.8327   -1.7001  -18.7283 H   0  0  0  0  0  0  0  0  0  0  0  0
   -8.6529   -1.3359  -21.5862 C   0  0  0  0  0  0  0  0  0  0  0  0
   -9.3434   -0.4663  -21.1013 O   0  0  0  0  0  0  0  0  0  0  0  0
   -9.0490   -2.4069  -22.5854 C   0  0  0  0  0  0  0  0  0  0  0  0
  -10.0174   -1.9724  -23.7077 C   0  0  0  0  0  0  0  0  0  0  0  0
  -11.0537   -2.8791  -23.1695 N   0  0  0  0  0  0  0  0  0  0  0  0
  -11.8956   -4.0696  -23.9835 S   0  0  0  0  0  0  0  0  0  0  0  0
  -10.9793   -4.9445  -24.6999 O   0  0  0  0  0  0  0  0  0  0  0  0
  -12.8132   -4.6190  -23.0004 O   0  0  0  0  0  0  0  0  0  0  0  0
  -12.9227   -3.2002  -25.1329 C   0  0  0  0  0  0  0  0  0  0  0  0
  -14.1391   -3.9849  -25.5533 C   0  0  0  0  0  0  0  0  0  0  0  0
  -14.2865   -2.8355  -24.6143 C   0  0  0  0  0  0  0  0  0  0  0  0
  -14.4785   -3.0610  -23.5696 H   0  0  0  0  0  0  0  0  0  0  0  0
  -14.7414   -1.9302  -24.9946 H   0  0  0  0  0  0  0  0  0  0  0  0
  -14.2660   -4.9766  -25.1329 H   0  0  0  0  0  0  0  0  0  0  0  0
  -14.5027   -3.8595  -26.5681 H   0  0  0  0  0  0  0  0  0  0  0  0
  -12.4228   -2.5843  -25.8752 H   0  0  0  0  0  0  0  0  0  0  0  0
  -10.1692   -3.3527  -22.0897 C   0  0  0  0  0  0  0  0  0  0  0  0
   -9.8893   -4.4094  -22.1206 H   0  0  0  0  0  0  0  0  0  0  0  0
  -10.5669   -3.0948  -21.1181 H   0  0  0  0  0  0  0  0  0  0  0  0
   -9.6894   -2.1617  -24.7282 H   0  0  0  0  0  0  0  0  0  0  0  0
  -10.3468   -0.9388  -23.5987 H   0  0  0  0  0  0  0  0  0  0  0  0
   -8.0833   -4.0559  -24.7328 H   0  0  0  0  0  0  0  0  0  0  0  0
   -8.0736   -5.0818  -23.2849 H   0  0  0  0  0  0  0  0  0  0  0  0
   -6.5612   -4.3752  -23.8623 H   0  0  0  0  0  0  0  0  0  0  0  0
  1  2  1  0
  2  3  1  0
  3  4  2  0
  3  5  1  0
  5  6  1  0
  6  7  2  0
  7  8  1  0
  8  9  2  0
  9 10  1  0
 10 11  2  0
 11 12  1  0
 12 13  2  0
 13 14  1  0
 14 15  2  0
 14 16  1  0
 13 17  1  0
 12 18  1  0
 11 19  1  0
  9 20  1  0
  7 21  1  0
  5 22  1  0
 22 23  2  0
 22 24  1  0
 24 25  1  0
 25 26  1  0
 26 27  1  0
 27 28  2  0
 27 29  2  0
 27 30  1  0
 30 31  1  0
 31 32  1  0
 32 33  1  0
 32 34  1  0
 31 35  1  0
 31 36  1  0
 30 37  1  0
 26 38  1  0
 38 39  1  0
 38 40  1  0
 25 41  1  0
 25 42  1  0
  1 43  1  0
  1 44  1  0
  1 45  1  0
 24  2  1  0
 32 30  1  0
 15  6  1  0
 38 24  1  0
 15 10  1  0
M  END
>  <cnnaffinities>  (77) 
[5.9045, 5.97757, 5.8938, 5.97671, 5.94406, 5.97284]

>  <score>  (77) 
5.9045

>  <index>  (77) 
79

>  <Smiles>  (77) 
C(N1C(=O)N(c2c(nc(c3c(c(c(c(c23)[H])[H])[H])[H])[H])[H])C(=O)C21C(N(S(=O)(=O)C1(C(C1([H])[H])([H])[H])[H])C2([H])[H])([H])[H])([H])([H])[H]

>  <h>  (77) 
<NA>

>  <Training>  (77) 
True

>  <Success>  (77) 
True

>  <enamine_searched>  (77) 
False

>  <enamine_id>  (77) 
nan

$$$$

     RDKit          3D

 60 65  0  0  0  0  0  0  0  0999 V2000
   -8.4901    2.2004  -28.9512 C   0  0  0  0  0  0  0  0  0  0  0  0
   -8.7275    2.2363  -27.5125 N   0  0  0  0  0  0  0  0  0  0  0  0
   -7.9107    1.5384  -26.6792 C   0  0  0  0  0  0  0  0  0  0  0  0
   -6.9228    0.9402  -27.0900 O   0  0  0  0  0  0  0  0  0  0  0  0
   -8.2722    1.5931  -25.1917 C   0  0  0  0  0  0  0  0  0  0  0  0
   -9.0371    0.4966  -24.6563 N   0  0  0  0  0  0  0  0  0  0  0  0
   -8.3816   -0.7705  -24.3828 C   0  0  0  0  0  0  0  0  0  0  0  0
   -8.8882   -1.4248  -23.0689 C   0  0  2  0  0  0  0  0  0  0  0  0
   -8.3664   -0.6339  -21.8439 C   0  0  0  0  0  0  0  0  0  0  0  0
   -8.7077    0.4781  -21.4845 O   0  0  0  0  0  0  0  0  0  0  0  0
   -7.4132   -1.3852  -21.1954 N   0  0  0  0  0  0  0  0  0  0  0  0
   -6.6046   -0.8130  -20.1733 C   0  0  0  0  0  0  0  0  0  0  0  0
   -6.9029   -1.0483  -18.8587 C   0  0  0  0  0  0  0  0  0  0  0  0
   -6.1935   -0.5505  -17.8168 N   0  0  0  0  0  0  0  0  0  0  0  0
   -5.1639    0.2086  -18.0867 C   0  0  0  0  0  0  0  0  0  0  0  0
   -4.7326    0.5308  -19.4038 C   0  0  0  0  0  0  0  0  0  0  0  0
   -3.6031    1.3602  -19.6446 C   0  0  0  0  0  0  0  0  0  0  0  0
   -3.2078    1.6433  -20.9221 C   0  0  0  0  0  0  0  0  0  0  0  0
   -3.9196    1.0978  -22.0152 C   0  0  0  0  0  0  0  0  0  0  0  0
   -5.0092    0.2870  -21.8068 C   0  0  0  0  0  0  0  0  0  0  0  0
   -5.4643   -0.0042  -20.4898 C   0  0  0  0  0  0  0  0  0  0  0  0
   -5.5326   -0.1352  -22.6605 H   0  0  0  0  0  0  0  0  0  0  0  0
   -3.6163    1.3303  -23.0321 H   0  0  0  0  0  0  0  0  0  0  0  0
   -2.3566    2.2954  -21.1022 H   0  0  0  0  0  0  0  0  0  0  0  0
   -3.0769    1.7685  -18.7847 H   0  0  0  0  0  0  0  0  0  0  0  0
   -4.6174    0.6138  -17.2336 H   0  0  0  0  0  0  0  0  0  0  0  0
   -7.7520   -1.6724  -18.5886 H   0  0  0  0  0  0  0  0  0  0  0  0
   -7.1015   -2.6408  -21.8475 C   0  0  0  0  0  0  0  0  0  0  0  0
   -8.2656   -2.8483  -22.8400 C   0  0  2  0  0  0  0  0  0  0  0  0
   -7.8280   -3.6347  -24.0824 C   0  0  0  0  0  0  0  0  0  0  0  0
   -8.6471   -3.7744  -24.7968 H   0  0  0  0  0  0  0  0  0  0  0  0
   -7.0121   -3.1218  -24.6060 H   0  0  0  0  0  0  0  0  0  0  0  0
   -7.4591   -4.6284  -23.8035 H   0  0  0  0  0  0  0  0  0  0  0  0
   -9.0396   -3.4254  -22.3302 H   0  0  0  0  0  0  0  0  0  0  0  0
   -7.0190   -3.4439  -21.1047 H   0  0  0  0  0  0  0  0  0  0  0  0
   -6.1378   -2.5875  -22.3783 H   0  0  0  0  0  0  0  0  0  0  0  0
  -10.4101   -1.3805  -23.0711 C   0  0  0  0  0  0  0  0  0  0  0  0
  -11.1298   -2.1659  -22.1570 C   0  0  0  0  0  0  0  0  0  0  0  0
  -12.5111   -2.1209  -22.1412 C   0  0  0  0  0  0  0  0  0  0  0  0
  -13.3927   -3.1112  -21.0140 Cl  0  0  0  0  0  0  0  0  0  0  0  0
  -13.2163   -1.2872  -23.0090 C   0  0  0  0  0  0  0  0  0  0  0  0
  -12.5128   -0.4565  -23.8596 C   0  0  0  0  0  0  0  0  0  0  0  0
  -11.1172   -0.4672  -23.8717 C   0  0  0  0  0  0  0  0  0  0  0  0
  -10.4062    0.5781  -24.6777 C   0  0  0  0  0  0  0  0  0  0  0  0
  -10.9831    1.4830  -25.2705 O   0  0  0  0  0  0  0  0  0  0  0  0
  -13.0140    0.2479  -24.5147 H   0  0  0  0  0  0  0  0  0  0  0  0
  -14.2994   -1.2802  -22.9818 H   0  0  0  0  0  0  0  0  0  0  0  0
  -10.6336   -2.7978  -21.4273 H   0  0  0  0  0  0  0  0  0  0  0  0
   -8.5703   -1.4656  -25.2147 H   0  0  0  0  0  0  0  0  0  0  0  0
   -7.3130   -0.5645  -24.3178 H   0  0  0  0  0  0  0  0  0  0  0  0
   -8.4358    2.9435  -24.5489 C   0  0  0  0  0  0  0  0  0  0  0  0
   -7.1857    2.1466  -24.3051 C   0  0  0  0  0  0  0  0  0  0  0  0
   -6.2604    2.4382  -24.7983 H   0  0  0  0  0  0  0  0  0  0  0  0
   -7.0764    1.6663  -23.3356 H   0  0  0  0  0  0  0  0  0  0  0  0
   -8.4018    3.8248  -25.1864 H   0  0  0  0  0  0  0  0  0  0  0  0
   -9.1551    3.0150  -23.7378 H   0  0  0  0  0  0  0  0  0  0  0  0
   -9.5992    2.5869  -27.1349 H   0  0  0  0  0  0  0  0  0  0  0  0
   -9.2776    2.7719  -29.4504 H   0  0  0  0  0  0  0  0  0  0  0  0
   -8.4845    1.1713  -29.3351 H   0  0  0  0  0  0  0  0  0  0  0  0
   -7.5138    2.6361  -29.2037 H   0  0  0  0  0  0  0  0  0  0  0  0
  1  2  1  0
  2  3  1  0
  3  4  2  0
  3  5  1  0
  5  6  1  0
  6  7  1  0
  8  7  1  6
  8  9  1  0
  9 10  2  0
  9 11  1  0
 11 12  1  0
 12 13  2  0
 13 14  1  0
 14 15  2  0
 15 16  1  0
 16 17  2  0
 17 18  1  0
 18 19  2  0
 19 20  1  0
 20 21  2  0
 20 22  1  0
 19 23  1  0
 18 24  1  0
 17 25  1  0
 15 26  1  0
 13 27  1  0
 11 28  1  0
 28 29  1  0
 29 30  1  0
 30 31  1  0
 30 32  1  0
 30 33  1  0
 29 34  1  1
 28 35  1  0
 28 36  1  0
  8 37  1  0
 37 38  2  0
 38 39  1  0
 39 40  1  0
 39 41  2  0
 41 42  1  0
 42 43  2  0
 43 44  1  0
 44 45  2  0
 42 46  1  0
 41 47  1  0
 38 48  1  0
  7 49  1  0
  7 50  1  0
  5 51  1  0
 51 52  1  0
 52 53  1  0
 52 54  1  0
 51 55  1  0
 51 56  1  0
  2 57  1  0
  1 58  1  0
  1 59  1  0
  1 60  1  0
 52  5  1  0
 44  6  1  0
 29  8  1  0
 43 37  1  0
 21 12  1  0
 21 16  1  0
M  END
>  <cnnaffinities>  (78) 
[6.64874, 5.91267]

>  <score>  (78) 
6.64874

>  <index>  (78) 
80

>  <Smiles>  (78) 
C(N(C(=O)C1(N2C([C@@]3(C(=O)N(c4c(nc(c5c(c(c(c(c45)[H])[H])[H])[H])[H])[H])C([C@@]3(C([H])([H])[H])[H])([H])[H])c3c(c(Cl)c(c(c3C2=O)[H])[H])[H])([H])[H])C(C1([H])[H])([H])[H])[H])([H])([H])[H]

>  <h>  (78) 
<NA>

>  <Training>  (78) 
True

>  <Success>  (78) 
True

>  <enamine_searched>  (78) 
False

>  <enamine_id>  (78) 
nan

$$$$

     RDKit          3D

 36 38  0  0  0  0  0  0  0  0999 V2000
   -8.5041    0.7118  -21.4638 O   0  0  0  0  0  0  0  0  0  0  0  0
   -8.3856   -0.4018  -21.9332 C   0  0  0  0  0  0  0  0  0  0  0  0
   -7.4387   -1.4331  -21.2757 C   0  0  0  0  0  0  0  0  0  0  0  0
   -6.5818   -0.8280  -20.1851 C   0  0  0  0  0  0  0  0  0  0  0  0
   -6.8783   -1.0388  -18.8632 C   0  0  0  0  0  0  0  0  0  0  0  0
   -6.1887   -0.5332  -17.8065 N   0  0  0  0  0  0  0  0  0  0  0  0
   -5.1538    0.2232  -18.0680 C   0  0  0  0  0  0  0  0  0  0  0  0
   -4.7225    0.5363  -19.3840 C   0  0  0  0  0  0  0  0  0  0  0  0
   -3.5969    1.3666  -19.6225 C   0  0  0  0  0  0  0  0  0  0  0  0
   -3.2083    1.6591  -20.9023 C   0  0  0  0  0  0  0  0  0  0  0  0
   -3.9332    1.1301  -21.9934 C   0  0  0  0  0  0  0  0  0  0  0  0
   -5.0266    0.3233  -21.7871 C   0  0  0  0  0  0  0  0  0  0  0  0
   -5.4545    0.0018  -20.4733 C   0  0  0  0  0  0  0  0  0  0  0  0
   -5.5738   -0.0683  -22.6378 H   0  0  0  0  0  0  0  0  0  0  0  0
   -3.6242    1.3681  -23.0060 H   0  0  0  0  0  0  0  0  0  0  0  0
   -2.3532    2.3034  -21.0876 H   0  0  0  0  0  0  0  0  0  0  0  0
   -3.0567    1.7742  -18.7713 H   0  0  0  0  0  0  0  0  0  0  0  0
   -4.6014    0.6265  -17.2166 H   0  0  0  0  0  0  0  0  0  0  0  0
   -7.7276   -1.6587  -18.5826 H   0  0  0  0  0  0  0  0  0  0  0  0
   -8.0410   -2.2450  -20.8444 H   0  0  0  0  0  0  0  0  0  0  0  0
   -6.8022   -1.8991  -22.0403 H   0  0  0  0  0  0  0  0  0  0  0  0
   -9.0625   -0.7714  -23.0884 N   0  0  0  0  0  0  0  0  0  0  0  0
   -9.3684   -2.1602  -23.4050 C   0  0  0  0  0  0  0  0  0  0  0  0
  -10.4466   -2.7805  -22.5511 C   0  0  0  0  0  0  0  0  0  0  0  0
  -11.5707   -2.1756  -22.1570 C   0  0  0  0  0  0  0  0  0  0  0  0
  -12.0236   -0.7938  -22.4232 C   0  0  0  0  0  0  0  0  0  0  0  0
  -11.3815    0.2145  -23.0226 C   0  0  0  0  0  0  0  0  0  0  0  0
  -10.0071    0.1955  -23.6428 C   0  0  0  0  0  0  0  0  0  0  0  0
   -9.5587    1.1913  -23.5960 H   0  0  0  0  0  0  0  0  0  0  0  0
  -10.1140   -0.0415  -24.7083 H   0  0  0  0  0  0  0  0  0  0  0  0
  -11.8929    1.1785  -23.0813 H   0  0  0  0  0  0  0  0  0  0  0  0
  -13.0205   -0.5799  -22.0406 H   0  0  0  0  0  0  0  0  0  0  0  0
  -12.2761   -2.7639  -21.5732 H   0  0  0  0  0  0  0  0  0  0  0  0
  -10.2827   -3.8151  -22.2466 H   0  0  0  0  0  0  0  0  0  0  0  0
   -9.6853   -2.1765  -24.4546 H   0  0  0  0  0  0  0  0  0  0  0  0
   -8.4505   -2.7531  -23.3604 H   0  0  0  0  0  0  0  0  0  0  0  0
  1  2  2  0
  2  3  1  0
  3  4  1  0
  4  5  2  0
  5  6  1  0
  6  7  2  0
  7  8  1  0
  8  9  2  0
  9 10  1  0
 10 11  2  0
 11 12  1  0
 12 13  2  0
 12 14  1  0
 11 15  1  0
 10 16  1  0
  9 17  1  0
  7 18  1  0
  5 19  1  0
  3 20  1  0
  3 21  1  0
  2 22  1  0
 22 23  1  0
 23 24  1  0
 24 25  2  0
 25 26  1  0
 26 27  2  0
 27 28  1  0
 28 29  1  0
 28 30  1  0
 27 31  1  0
 26 32  1  0
 25 33  1  0
 24 34  1  0
 23 35  1  0
 23 36  1  0
 13  4  1  0
 28 22  1  0
 13  8  1  0
M  END
>  <cnnaffinities>  (79) 
[4.38336, 4.38336, 5.07645, 5.17044, 5.1685]

>  <score>  (79) 
4.38336

>  <index>  (79) 
81

>  <Smiles>  (79) 
O=C(C(c1c(nc(c2c(c(c(c(c12)[H])[H])[H])[H])[H])[H])([H])[H])N1C(C(=C(C(=C(C1([H])[H])[H])[H])[H])[H])([H])[H]

>  <h>  (79) 
<NA>

>  <Training>  (79) 
True

>  <Success>  (79) 
True

>  <enamine_searched>  (79) 
False

>  <enamine_id>  (79) 
nan

$$$$

     RDKit          3D

 54 57  0  0  0  0  0  0  0  0999 V2000
  -10.6428    0.3417  -25.3656 C   0  0  0  0  0  0  0  0  0  0  0  0
   -9.7684   -0.5782  -24.7728 O   0  0  0  0  0  0  0  0  0  0  0  0
   -8.4672   -0.5228  -25.1660 C   0  0  0  0  0  0  0  0  0  0  0  0
   -7.9480    0.4960  -25.9695 C   0  0  0  0  0  0  0  0  0  0  0  0
   -6.5825    0.5284  -26.2396 C   0  0  0  0  0  0  0  0  0  0  0  0
   -5.7560   -0.4594  -25.7255 C   0  0  0  0  0  0  0  0  0  0  0  0
   -6.2967   -1.4834  -24.9468 C   0  0  0  0  0  0  0  0  0  0  0  0
   -7.6539   -1.5564  -24.6705 C   0  0  0  0  0  0  0  0  0  0  0  0
   -8.2993   -2.6691  -23.8364 C   0  0  1  0  0  0  0  0  0  0  0  0
   -9.1459   -3.6465  -24.6879 C   0  0  0  0  0  0  0  0  0  0  0  0
   -8.4065   -4.8569  -25.2719 C   0  0  1  0  0  0  0  0  0  0  0  0
   -7.4994   -4.5290  -26.4634 C   0  0  0  0  0  0  0  0  0  0  0  0
   -6.6726   -3.8687  -26.1823 H   0  0  0  0  0  0  0  0  0  0  0  0
   -7.0710   -5.4459  -26.8876 H   0  0  0  0  0  0  0  0  0  0  0  0
   -8.0618   -4.0216  -27.2555 H   0  0  0  0  0  0  0  0  0  0  0  0
   -7.6729   -5.5522  -24.1222 C   0  0  0  0  0  0  0  0  0  0  0  0
   -6.7116   -4.6108  -23.4054 C   0  0  0  0  0  0  0  0  0  0  0  0
   -7.3558   -3.3711  -22.9600 N   0  0  0  0  0  0  0  0  0  0  0  0
   -6.7446   -2.7500  -21.8852 C   0  0  0  0  0  0  0  0  0  0  0  0
   -5.7333   -3.2128  -21.3875 O   0  0  0  0  0  0  0  0  0  0  0  0
   -7.3975   -1.4806  -21.2896 C   0  0  0  0  0  0  0  0  0  0  0  0
   -6.5720   -0.8453  -20.1955 C   0  0  0  0  0  0  0  0  0  0  0  0
   -6.8726   -1.0569  -18.8742 C   0  0  0  0  0  0  0  0  0  0  0  0
   -6.1906   -0.5429  -17.8166 N   0  0  0  0  0  0  0  0  0  0  0  0
   -5.1586    0.2165  -18.0764 C   0  0  0  0  0  0  0  0  0  0  0  0
   -4.7188    0.5253  -19.3917 C   0  0  0  0  0  0  0  0  0  0  0  0
   -3.5936    1.3542  -19.6267 C   0  0  0  0  0  0  0  0  0  0  0  0
   -3.1946    1.6302  -20.9052 C   0  0  0  0  0  0  0  0  0  0  0  0
   -3.9053    1.0878  -21.9995 C   0  0  0  0  0  0  0  0  0  0  0  0
   -4.9997    0.2822  -21.7972 C   0  0  0  0  0  0  0  0  0  0  0  0
   -5.4399   -0.0208  -20.4821 C   0  0  0  0  0  0  0  0  0  0  0  0
   -5.5357   -0.1256  -22.6514 H   0  0  0  0  0  0  0  0  0  0  0  0
   -3.5885    1.3136  -23.0132 H   0  0  0  0  0  0  0  0  0  0  0  0
   -2.3390    2.2728  -21.0866 H   0  0  0  0  0  0  0  0  0  0  0  0
   -3.0669    1.7659  -18.7688 H   0  0  0  0  0  0  0  0  0  0  0  0
   -4.6128    0.6261  -17.2242 H   0  0  0  0  0  0  0  0  0  0  0  0
   -7.7240   -1.6763  -18.5936 H   0  0  0  0  0  0  0  0  0  0  0  0
   -7.6156   -0.7592  -22.0881 H   0  0  0  0  0  0  0  0  0  0  0  0
   -8.3714   -1.7816  -20.8779 H   0  0  0  0  0  0  0  0  0  0  0  0
   -6.3181   -5.0858  -22.5058 H   0  0  0  0  0  0  0  0  0  0  0  0
   -5.8413   -4.4001  -24.0483 H   0  0  0  0  0  0  0  0  0  0  0  0
   -8.4118   -5.9237  -23.3983 H   0  0  0  0  0  0  0  0  0  0  0  0
   -7.1105   -6.4200  -24.4980 H   0  0  0  0  0  0  0  0  0  0  0  0
   -9.1796   -5.5499  -25.6358 H   0  0  0  0  0  0  0  0  0  0  0  0
   -9.6220   -3.0734  -25.4922 H   0  0  0  0  0  0  0  0  0  0  0  0
   -9.9487   -4.0249  -24.0406 H   0  0  0  0  0  0  0  0  0  0  0  0
   -9.0241   -2.1679  -23.1843 H   0  0  0  0  0  0  0  0  0  0  0  0
   -5.6431   -2.2574  -24.5518 H   0  0  0  0  0  0  0  0  0  0  0  0
   -4.6887   -0.4547  -25.9200 H   0  0  0  0  0  0  0  0  0  0  0  0
   -6.1653    1.3353  -26.8394 H   0  0  0  0  0  0  0  0  0  0  0  0
   -8.5860    1.2775  -26.3673 H   0  0  0  0  0  0  0  0  0  0  0  0
  -11.6519    0.0420  -25.0785 H   0  0  0  0  0  0  0  0  0  0  0  0
  -10.5343    0.3215  -26.4587 H   0  0  0  0  0  0  0  0  0  0  0  0
  -10.4402    1.3566  -25.0013 H   0  0  0  0  0  0  0  0  0  0  0  0
  1  2  1  0
  2  3  1  0
  3  4  2  0
  4  5  1  0
  5  6  2  0
  6  7  1  0
  7  8  2  0
  8  9  1  0
  9 10  1  0
 10 11  1  0
 11 12  1  0
 12 13  1  0
 12 14  1  0
 12 15  1  0
 11 16  1  0
 16 17  1  0
 17 18  1  0
 18 19  1  0
 19 20  2  0
 19 21  1  0
 21 22  1  0
 22 23  2  0
 23 24  1  0
 24 25  2  0
 25 26  1  0
 26 27  2  0
 27 28  1  0
 28 29  2  0
 29 30  1  0
 30 31  2  0
 30 32  1  0
 29 33  1  0
 28 34  1  0
 27 35  1  0
 25 36  1  0
 23 37  1  0
 21 38  1  0
 21 39  1  0
 17 40  1  0
 17 41  1  0
 16 42  1  0
 16 43  1  0
 11 44  1  6
 10 45  1  0
 10 46  1  0
  9 47  1  1
  7 48  1  0
  6 49  1  0
  5 50  1  0
  4 51  1  0
  1 52  1  0
  1 53  1  0
  1 54  1  0
  8  3  1  0
 18  9  1  0
 31 22  1  0
 31 26  1  0
M  END
>  <cnnaffinities>  (80) 
[5.69206, 5.88105]

>  <score>  (80) 
5.69206

>  <index>  (80) 
82

>  <Smiles>  (80) 
C(Oc1c(c(c(c(c1[C@]1(C([C@@](C([H])([H])[H])(C(C(N1C(=O)C(c1c(nc(c2c(c(c(c(c12)[H])[H])[H])[H])[H])[H])([H])[H])([H])[H])([H])[H])[H])([H])[H])[H])[H])[H])[H])[H])([H])([H])[H]

>  <h>  (80) 
<NA>

>  <Training>  (80) 
True

>  <Success>  (80) 
True

>  <enamine_searched>  (80) 
False

>  <enamine_id>  (80) 
nan

$$$$

     RDKit          3D

 46 50  0  0  0  0  0  0  0  0999 V2000
   -4.5515   -0.7958  -25.3131 N   0  0  0  0  0  0  0  0  0  0  0  0
   -5.3034   -1.7581  -26.4545 S   0  0  0  0  0  0  0  0  0  0  0  0
   -5.1257   -1.1830  -27.7817 O   0  0  0  0  0  0  0  0  0  0  0  0
   -4.8920   -3.1210  -26.1576 O   0  0  0  0  0  0  0  0  0  0  0  0
   -6.9962   -1.5418  -26.0173 C   0  0  0  0  0  0  0  0  0  0  0  0
   -7.9372   -1.2092  -26.9872 C   0  0  0  0  0  0  0  0  0  0  0  0
   -9.2588   -1.0316  -26.6147 C   0  0  0  0  0  0  0  0  0  0  0  0
   -9.6296   -1.1894  -25.2771 C   0  0  0  0  0  0  0  0  0  0  0  0
   -8.6655   -1.4492  -24.2893 C   0  0  0  0  0  0  0  0  0  0  0  0
   -7.3587   -1.6965  -24.6900 C   0  0  0  0  0  0  0  0  0  0  0  0
   -6.6250   -2.0546  -23.9692 H   0  0  0  0  0  0  0  0  0  0  0  0
   -9.0086   -1.5491  -22.8068 C   0  0  1  0  0  0  0  0  0  0  0  0
  -10.5009   -1.2437  -22.6047 C   0  0  0  0  0  0  0  0  0  0  0  0
  -11.3101   -1.7882  -23.7721 C   0  0  0  0  0  0  0  0  0  0  0  0
  -10.9553   -1.1018  -24.9701 O   0  0  0  0  0  0  0  0  0  0  0  0
  -11.1353   -2.8706  -23.8967 H   0  0  0  0  0  0  0  0  0  0  0  0
  -12.3789   -1.6206  -23.6338 H   0  0  0  0  0  0  0  0  0  0  0  0
  -10.8022   -1.6483  -21.6336 H   0  0  0  0  0  0  0  0  0  0  0  0
  -10.6018   -0.1507  -22.5891 H   0  0  0  0  0  0  0  0  0  0  0  0
   -8.5738   -2.8353  -22.2511 N   0  0  0  0  0  0  0  0  0  0  0  0
   -7.4699   -2.7335  -21.4388 C   0  0  0  0  0  0  0  0  0  0  0  0
   -6.7561   -3.6165  -21.0149 O   0  0  0  0  0  0  0  0  0  0  0  0
   -7.2917   -1.3685  -21.1956 N   0  0  0  0  0  0  0  0  0  0  0  0
   -6.4633   -0.8233  -20.1798 C   0  0  0  0  0  0  0  0  0  0  0  0
   -6.8016   -1.0042  -18.8615 C   0  0  0  0  0  0  0  0  0  0  0  0
   -6.1334   -0.4577  -17.8194 N   0  0  0  0  0  0  0  0  0  0  0  0
   -5.0965    0.2899  -18.0954 C   0  0  0  0  0  0  0  0  0  0  0  0
   -4.6369    0.5573  -19.4164 C   0  0  0  0  0  0  0  0  0  0  0  0
   -3.5101    1.3908  -19.6442 C   0  0  0  0  0  0  0  0  0  0  0  0
   -3.0921    1.6471  -20.9206 C   0  0  0  0  0  0  0  0  0  0  0  0
   -3.7910    1.0937  -22.0186 C   0  0  0  0  0  0  0  0  0  0  0  0
   -4.8898    0.2908  -21.8321 C   0  0  0  0  0  0  0  0  0  0  0  0
   -5.3384   -0.0053  -20.5087 C   0  0  0  0  0  0  0  0  0  0  0  0
   -5.4192   -0.1089  -22.7006 H   0  0  0  0  0  0  0  0  0  0  0  0
   -3.4642    1.3170  -23.0303 H   0  0  0  0  0  0  0  0  0  0  0  0
   -2.2353    2.2935  -21.0896 H   0  0  0  0  0  0  0  0  0  0  0  0
   -3.0105    1.8320  -18.7844 H   0  0  0  0  0  0  0  0  0  0  0  0
   -4.5698    0.7348  -17.2497 H   0  0  0  0  0  0  0  0  0  0  0  0
   -7.6723   -1.5978  -18.5983 H   0  0  0  0  0  0  0  0  0  0  0  0
   -8.2037   -0.5992  -21.9112 C   0  0  0  0  0  0  0  0  0  0  0  0
   -8.3533    0.5888  -21.7626 O   0  0  0  0  0  0  0  0  0  0  0  0
   -8.6554   -3.6855  -22.7884 H   0  0  0  0  0  0  0  0  0  0  0  0
  -10.0188   -0.8049  -27.3518 H   0  0  0  0  0  0  0  0  0  0  0  0
   -7.6233   -1.1086  -28.0205 H   0  0  0  0  0  0  0  0  0  0  0  0
   -4.3591    0.1403  -25.6478 H   0  0  0  0  0  0  0  0  0  0  0  0
   -3.7140   -1.2516  -24.9672 H   0  0  0  0  0  0  0  0  0  0  0  0
  1  2  1  0
  2  3  2  0
  2  4  2  0
  2  5  1  0
  5  6  2  0
  6  7  1  0
  7  8  2  0
  8  9  1  0
  9 10  2  0
 10 11  1  0
  9 12  1  0
 12 13  1  0
 13 14  1  0
 14 15  1  0
 14 16  1  0
 14 17  1  0
 13 18  1  0
 13 19  1  0
 12 20  1  1
 20 21  1  0
 21 22  2  0
 21 23  1  0
 23 24  1  0
 24 25  2  0
 25 26  1  0
 26 27  2  0
 27 28  1  0
 28 29  2  0
 29 30  1  0
 30 31  2  0
 31 32  1  0
 32 33  2  0
 32 34  1  0
 31 35  1  0
 30 36  1  0
 29 37  1  0
 27 38  1  0
 25 39  1  0
 23 40  1  0
 40 41  2  0
 20 42  1  0
  7 43  1  0
  6 44  1  0
  1 45  1  0
  1 46  1  0
 10  5  1  0
 40 12  1  0
 15  8  1  0
 33 24  1  0
 33 28  1  0
M  END
>  <cnnaffinities>  (81) 
[5.50493, 5.49848]

>  <score>  (81) 
5.50493

>  <index>  (81) 
83

>  <Smiles>  (81) 
N(S(=O)(=O)c1c(c(c2c(c1[H])[C@@]1(C(C(O2)([H])[H])([H])[H])N(C(=O)N(c2c(nc(c3c(c(c(c(c23)[H])[H])[H])[H])[H])[H])C1=O)[H])[H])[H])([H])[H]

>  <h>  (81) 
<NA>

>  <Training>  (81) 
True

>  <Success>  (81) 
True

>  <enamine_searched>  (81) 
False

>  <enamine_id>  (81) 
nan

$$$$

     RDKit          3D

 63 68  0  0  0  0  0  0  0  0999 V2000
   -7.4291   -3.5139  -23.5678 C   0  0  0  0  0  0  0  0  0  0  0  0
   -8.4541   -2.9341  -22.5836 C   0  0  1  0  0  0  0  0  0  0  0  0
   -7.8344   -2.7406  -21.1885 C   0  0  0  0  0  0  0  0  0  0  0  0
   -7.4064   -1.3544  -21.2005 N   0  0  0  0  0  0  0  0  0  0  0  0
   -6.5928   -0.8008  -20.1836 C   0  0  0  0  0  0  0  0  0  0  0  0
   -6.8836   -1.0519  -18.8659 C   0  0  0  0  0  0  0  0  0  0  0  0
   -6.2032   -0.5411  -17.8149 N   0  0  0  0  0  0  0  0  0  0  0  0
   -5.1800    0.2322  -18.0728 C   0  0  0  0  0  0  0  0  0  0  0  0
   -4.7324    0.5387  -19.3885 C   0  0  0  0  0  0  0  0  0  0  0  0
   -3.5965    1.3645  -19.6034 C   0  0  0  0  0  0  0  0  0  0  0  0
   -3.1553    1.6180  -20.8733 C   0  0  0  0  0  0  0  0  0  0  0  0
   -3.8270    1.0517  -21.9785 C   0  0  0  0  0  0  0  0  0  0  0  0
   -4.9332    0.2587  -21.7950 C   0  0  0  0  0  0  0  0  0  0  0  0
   -5.4346   -0.0036  -20.4874 C   0  0  0  0  0  0  0  0  0  0  0  0
   -5.4332   -0.1731  -22.6554 H   0  0  0  0  0  0  0  0  0  0  0  0
   -3.4671    1.2482  -22.9851 H   0  0  0  0  0  0  0  0  0  0  0  0
   -2.2922    2.2577  -21.0383 H   0  0  0  0  0  0  0  0  0  0  0  0
   -3.0938    1.7852  -18.7370 H   0  0  0  0  0  0  0  0  0  0  0  0
   -4.6410    0.6477  -17.2208 H   0  0  0  0  0  0  0  0  0  0  0  0
   -7.7331   -1.6839  -18.6090 H   0  0  0  0  0  0  0  0  0  0  0  0
   -8.2466   -0.5821  -21.9855 C   0  0  0  0  0  0  0  0  0  0  0  0
   -8.3252    0.6245  -21.9303 O   0  0  0  0  0  0  0  0  0  0  0  0
   -9.0351   -1.5237  -22.9334 C   0  0  1  0  0  0  0  0  0  0  0  0
   -8.7625   -1.1035  -24.3966 C   0  0  0  0  0  0  0  0  0  0  0  0
   -9.3370    0.1903  -24.7265 N   0  0  0  0  0  0  0  0  0  0  0  0
   -8.6513    1.0406  -25.6798 C   0  0  0  0  0  0  0  0  0  0  0  0
   -8.8205    0.5574  -27.1376 C   0  0  0  0  0  0  0  0  0  0  0  0
   -9.8728    0.7273  -27.7289 O   0  0  0  0  0  0  0  0  0  0  0  0
   -7.7199   -0.0408  -27.6704 N   0  0  0  0  0  0  0  0  0  0  0  0
   -7.7399   -0.5511  -29.0961 C   0  0  0  0  0  0  0  0  0  0  0  0
   -7.4703   -2.0015  -29.3110 C   0  0  0  0  0  0  0  0  0  0  0  0
   -5.5005   -0.8430  -28.6139 F   0  0  0  0  0  0  0  0  0  0  0  0
   -7.2453   -2.8679  -28.3368 C   0  0  0  0  0  0  0  0  0  0  0  0
   -7.8456   -2.1504  -29.4968 C   0  0  0  0  0  0  0  0  0  0  0  0
   -8.9033   -2.5435  -29.7079 H   0  0  0  0  0  0  0  0  0  0  0  0
   -7.0699   -2.3677  -30.8896 H   0  0  0  0  0  0  0  0  0  0  0  0
   -8.0822   -3.4012  -27.9038 H   0  0  0  0  0  0  0  0  0  0  0  0
   -6.2439   -2.7565  -27.8870 H   0  0  0  0  0  0  0  0  0  0  0  0
   -8.7239   -0.1313  -29.4144 H   0  0  0  0  0  0  0  0  0  0  0  0
   -6.8936    0.0030  -29.5040 H   0  0  0  0  0  0  0  0  0  0  0  0
   -6.8294    0.1801  -27.2246 H   0  0  0  0  0  0  0  0  0  0  0  0
   -7.5906    1.1236  -25.4015 H   0  0  0  0  0  0  0  0  0  0  0  0
   -9.1241    2.0232  -25.6125 H   0  0  0  0  0  0  0  0  0  0  0  0
  -10.5923    0.5500  -24.3262 C   0  0  0  0  0  0  0  0  0  0  0  0
  -11.1469    1.5698  -24.7171 O   0  0  0  0  0  0  0  0  0  0  0  0
  -11.2616   -0.3904  -23.3734 C   0  0  0  0  0  0  0  0  0  0  0  0
  -12.6301   -0.2209  -23.1723 C   0  0  0  0  0  0  0  0  0  0  0  0
  -13.3380   -1.0957  -22.3750 C   0  0  0  0  0  0  0  0  0  0  0  0
  -12.6309   -2.1296  -21.7676 C   0  0  0  0  0  0  0  0  0  0  0  0
  -13.3135   -2.9929  -20.9956 F   0  0  0  0  0  0  0  0  0  0  0  0
  -11.2680   -2.2858  -21.9050 C   0  0  0  0  0  0  0  0  0  0  0  0
  -10.5462   -1.4122  -22.7306 C   0  0  0  0  0  0  0  0  0  0  0  0
  -10.7876   -3.0856  -21.3523 H   0  0  0  0  0  0  0  0  0  0  0  0
  -14.4022   -0.9901  -22.2023 H   0  0  0  0  0  0  0  0  0  0  0  0
  -13.1180    0.6091  -23.6705 H   0  0  0  0  0  0  0  0  0  0  0  0
   -9.1869   -1.8857  -25.0388 H   0  0  0  0  0  0  0  0  0  0  0  0
   -7.6869   -1.0363  -24.5603 H   0  0  0  0  0  0  0  0  0  0  0  0
   -6.9818   -3.3994  -21.0036 H   0  0  0  0  0  0  0  0  0  0  0  0
   -8.5899   -2.9138  -20.4078 H   0  0  0  0  0  0  0  0  0  0  0  0
   -9.2653   -3.6643  -22.5435 H   0  0  0  0  0  0  0  0  0  0  0  0
   -6.5541   -2.8679  -23.6950 H   0  0  0  0  0  0  0  0  0  0  0  0
   -7.8779   -3.6799  -24.5492 H   0  0  0  0  0  0  0  0  0  0  0  0
   -7.0741   -4.4868  -23.2102 H   0  0  0  0  0  0  0  0  0  0  0  0
  1  2  1  0
  2  3  1  0
  3  4  1  0
  4  5  1  0
  5  6  2  0
  6  7  1  0
  7  8  2  0
  8  9  1  0
  9 10  2  0
 10 11  1  0
 11 12  2  0
 12 13  1  0
 13 14  2  0
 13 15  1  0
 12 16  1  0
 11 17  1  0
 10 18  1  0
  8 19  1  0
  6 20  1  0
  4 21  1  0
 21 22  2  0
 21 23  1  0
 23 24  1  6
 24 25  1  0
 25 26  1  0
 26 27  1  0
 27 28  2  0
 27 29  1  0
 29 30  1  0
 30 31  1  0
 31 32  1  0
 31 33  1  0
 33 34  1  0
 34 35  1  0
 34 36  1  0
 33 37  1  0
 33 38  1  0
 30 39  1  0
 30 40  1  0
 29 41  1  0
 26 42  1  0
 26 43  1  0
 25 44  1  0
 44 45  2  0
 44 46  1  0
 46 47  2  0
 47 48  1  0
 48 49  2  0
 49 50  1  0
 49 51  1  0
 51 52  2  0
 51 53  1  0
 48 54  1  0
 47 55  1  0
 24 56  1  0
 24 57  1  0
  3 58  1  0
  3 59  1  0
  2 60  1  1
  1 61  1  0
  1 62  1  0
  1 63  1  0
 23  2  1  0
 34 31  1  0
 52 46  1  0
 14  5  1  0
 52 23  1  0
 14  9  1  0
M  END
>  <cnnaffinities>  (82) 
[5.92055]

>  <score>  (82) 
5.92055

>  <index>  (82) 
84

>  <Smiles>  (82) 
C([C@]1(C(N(c2c(nc(c3c(c(c(c(c23)[H])[H])[H])[H])[H])[H])C(=O)[C@]21C(N(C(C(=O)N(C(C1(F)C(C1([H])[H])([H])[H])([H])[H])[H])([H])[H])C(=O)c1c(c(c(F)c(c21)[H])[H])[H])([H])[H])([H])[H])[H])([H])([H])[H]

>  <h>  (82) 
<NA>

>  <Training>  (82) 
True

>  <Success>  (82) 
True

>  <enamine_searched>  (82) 
False

>  <enamine_id>  (82) 
nan

$$$$

     RDKit          3D

 57 62  0  0  0  0  0  0  0  0999 V2000
   -9.2828    1.0403  -29.3261 C   0  0  0  0  0  0  0  0  0  0  0  0
   -9.1678    1.3814  -27.9200 N   0  0  0  0  0  0  0  0  0  0  0  0
   -8.2904    0.7042  -27.1371 C   0  0  0  0  0  0  0  0  0  0  0  0
   -7.5158   -0.1331  -27.5734 O   0  0  0  0  0  0  0  0  0  0  0  0
   -8.3139    1.0744  -25.6511 C   0  0  0  0  0  0  0  0  0  0  0  0
   -9.1523    0.2026  -24.8569 N   0  0  0  0  0  0  0  0  0  0  0  0
   -8.6691   -1.1207  -24.5090 C   0  0  0  0  0  0  0  0  0  0  0  0
   -8.9656   -1.4875  -23.0350 C   0  0  2  0  0  0  0  0  0  0  0  0
   -8.1491   -0.5768  -22.0879 C   0  0  0  0  0  0  0  0  0  0  0  0
   -8.1531    0.6349  -22.0779 O   0  0  0  0  0  0  0  0  0  0  0  0
   -7.3817   -1.3538  -21.2449 N   0  0  0  0  0  0  0  0  0  0  0  0
   -6.5935   -0.8078  -20.1993 C   0  0  0  0  0  0  0  0  0  0  0  0
   -6.8928   -1.0599  -18.8817 C   0  0  0  0  0  0  0  0  0  0  0  0
   -6.2018   -0.5550  -17.8306 N   0  0  0  0  0  0  0  0  0  0  0  0
   -5.1711    0.2097  -18.0883 C   0  0  0  0  0  0  0  0  0  0  0  0
   -4.7276    0.5257  -19.4031 C   0  0  0  0  0  0  0  0  0  0  0  0
   -3.5956    1.3529  -19.6323 C   0  0  0  0  0  0  0  0  0  0  0  0
   -3.1804    1.6211  -20.9083 C   0  0  0  0  0  0  0  0  0  0  0  0
   -3.8704    1.0667  -22.0095 C   0  0  0  0  0  0  0  0  0  0  0  0
   -4.9649    0.2645  -21.8119 C   0  0  0  0  0  0  0  0  0  0  0  0
   -5.4412   -0.0070  -20.4981 C   0  0  0  0  0  0  0  0  0  0  0  0
   -5.4840   -0.1619  -22.6638 H   0  0  0  0  0  0  0  0  0  0  0  0
   -3.5412    1.2811  -23.0222 H   0  0  0  0  0  0  0  0  0  0  0  0
   -2.3250    2.2679  -21.0838 H   0  0  0  0  0  0  0  0  0  0  0  0
   -3.0774    1.7661  -18.7712 H   0  0  0  0  0  0  0  0  0  0  0  0
   -4.6251    0.6159  -17.2365 H   0  0  0  0  0  0  0  0  0  0  0  0
   -7.7517   -1.6775  -18.6179 H   0  0  0  0  0  0  0  0  0  0  0  0
   -7.6283   -2.7674  -21.3871 C   0  0  0  0  0  0  0  0  0  0  0  0
   -8.4798   -2.8945  -22.6457 C   0  0  0  0  0  0  0  0  0  0  0  0
   -9.3504   -4.1065  -22.8334 C   0  0  0  0  0  0  0  0  0  0  0  0
   -8.0962   -3.9561  -23.6467 C   0  0  0  0  0  0  0  0  0  0  0  0
   -7.2431   -4.5897  -23.4094 H   0  0  0  0  0  0  0  0  0  0  0  0
   -8.1861   -3.7367  -24.7071 H   0  0  0  0  0  0  0  0  0  0  0  0
   -9.3990   -4.8453  -22.0351 H   0  0  0  0  0  0  0  0  0  0  0  0
  -10.3071   -3.9620  -23.3301 H   0  0  0  0  0  0  0  0  0  0  0  0
   -6.6779   -3.3023  -21.4711 H   0  0  0  0  0  0  0  0  0  0  0  0
   -8.1806   -3.1396  -20.5232 H   0  0  0  0  0  0  0  0  0  0  0  0
  -10.4543   -1.2291  -22.8297 C   0  0  0  0  0  0  0  0  0  0  0  0
  -11.1636   -1.9416  -21.8639 C   0  0  0  0  0  0  0  0  0  0  0  0
  -12.5298   -1.7649  -21.7616 C   0  0  0  0  0  0  0  0  0  0  0  0
  -13.4316   -2.8672  -20.7535 Cl  0  0  0  0  0  0  0  0  0  0  0  0
  -13.1874   -0.7210  -22.4072 C   0  0  0  0  0  0  0  0  0  0  0  0
  -12.4775    0.0371  -23.3154 C   0  0  0  0  0  0  0  0  0  0  0  0
  -11.1351   -0.2410  -23.5560 C   0  0  0  0  0  0  0  0  0  0  0  0
  -10.4384    0.5729  -24.5970 C   0  0  0  0  0  0  0  0  0  0  0  0
  -10.9845    1.5141  -25.1642 O   0  0  0  0  0  0  0  0  0  0  0  0
  -12.9527    0.8528  -23.8500 H   0  0  0  0  0  0  0  0  0  0  0  0
  -14.2090   -0.4646  -22.1601 H   0  0  0  0  0  0  0  0  0  0  0  0
  -10.6489   -2.5876  -21.1603 H   0  0  0  0  0  0  0  0  0  0  0  0
   -7.5959   -1.1389  -24.6990 H   0  0  0  0  0  0  0  0  0  0  0  0
   -9.1554   -1.8641  -25.1538 H   0  0  0  0  0  0  0  0  0  0  0  0
   -8.6687    2.0964  -25.5061 H   0  0  0  0  0  0  0  0  0  0  0  0
   -7.2852    0.9882  -25.2835 H   0  0  0  0  0  0  0  0  0  0  0  0
   -9.8678    1.9589  -27.4756 H   0  0  0  0  0  0  0  0  0  0  0  0
   -9.5304   -0.0203  -29.4503 H   0  0  0  0  0  0  0  0  0  0  0  0
  -10.0605    1.6547  -29.7880 H   0  0  0  0  0  0  0  0  0  0  0  0
   -8.3312    1.2145  -29.8403 H   0  0  0  0  0  0  0  0  0  0  0  0
  1  2  1  0
  2  3  1  0
  3  4  2  0
  3  5  1  0
  5  6  1  0
  6  7  1  0
  8  7  1  6
  8  9  1  0
  9 10  2  0
  9 11  1  0
 11 12  1  0
 12 13  2  0
 13 14  1  0
 14 15  2  0
 15 16  1  0
 16 17  2  0
 17 18  1  0
 18 19  2  0
 19 20  1  0
 20 21  2  0
 20 22  1  0
 19 23  1  0
 18 24  1  0
 17 25  1  0
 15 26  1  0
 13 27  1  0
 11 28  1  0
 28 29  1  0
 29 30  1  0
 30 31  1  0
 31 32  1  0
 31 33  1  0
 30 34  1  0
 30 35  1  0
 28 36  1  0
 28 37  1  0
  8 38  1  0
 38 39  2  0
 39 40  1  0
 40 41  1  0
 40 42  2  0
 42 43  1  0
 43 44  2  0
 44 45  1  0
 45 46  2  0
 43 47  1  0
 42 48  1  0
 39 49  1  0
  7 50  1  0
  7 51  1  0
  5 52  1  0
  5 53  1  0
  2 54  1  0
  1 55  1  0
  1 56  1  0
  1 57  1  0
 45  6  1  0
 29  8  1  0
 44 38  1  0
 21 12  1  0
 31 29  1  0
 21 16  1  0
M  END
>  <cnnaffinities>  (83) 
[6.13091]

>  <score>  (83) 
6.13091

>  <index>  (83) 
85

>  <Smiles>  (83) 
C(N(C(=O)C(N1C([C@@]2(C(=O)N(c3c(nc(c4c(c(c(c(c34)[H])[H])[H])[H])[H])[H])C(C32C(C3([H])[H])([H])[H])([H])[H])c2c(c(Cl)c(c(c2C1=O)[H])[H])[H])([H])[H])([H])[H])[H])([H])([H])[H]

>  <h>  (83) 
<NA>

>  <Training>  (83) 
True

>  <Success>  (83) 
True

>  <enamine_searched>  (83) 
False

>  <enamine_id>  (83) 
nan

$$$$

     RDKit          3D

 43 45  0  0  0  0  0  0  0  0999 V2000
   -8.0637    0.6690  -26.8268 C   0  0  0  0  0  0  0  0  0  0  0  0
   -9.2917    0.3000  -25.9939 C   0  0  1  0  0  0  0  0  0  0  0  0
   -9.1816   -1.0848  -25.3639 C   0  0  0  0  0  0  0  0  0  0  0  0
   -8.2220   -1.1252  -24.1721 C   0  0  0  0  0  0  0  0  0  0  0  0
   -8.5856   -0.1323  -23.1710 N   0  0  0  0  0  0  0  0  0  0  0  0
   -8.4508   -0.3535  -21.8120 C   0  0  0  0  0  0  0  0  0  0  0  0
   -9.1116    0.2727  -20.9965 O   0  0  0  0  0  0  0  0  0  0  0  0
   -7.4393   -1.4017  -21.2800 C   0  0  0  0  0  0  0  0  0  0  0  0
   -6.5734   -0.8313  -20.1756 C   0  0  0  0  0  0  0  0  0  0  0  0
   -6.8773   -1.0408  -18.8528 C   0  0  0  0  0  0  0  0  0  0  0  0
   -6.1833   -0.5332  -17.7978 N   0  0  0  0  0  0  0  0  0  0  0  0
   -5.1526    0.2237  -18.0655 C   0  0  0  0  0  0  0  0  0  0  0  0
   -4.7175    0.5372  -19.3809 C   0  0  0  0  0  0  0  0  0  0  0  0
   -3.5966    1.3713  -19.6240 C   0  0  0  0  0  0  0  0  0  0  0  0
   -3.2073    1.6639  -20.9014 C   0  0  0  0  0  0  0  0  0  0  0  0
   -3.9310    1.1283  -21.9946 C   0  0  0  0  0  0  0  0  0  0  0  0
   -5.0183    0.3163  -21.7834 C   0  0  0  0  0  0  0  0  0  0  0  0
   -5.4486   -0.0037  -20.4700 C   0  0  0  0  0  0  0  0  0  0  0  0
   -5.5549   -0.0777  -22.6445 H   0  0  0  0  0  0  0  0  0  0  0  0
   -3.6192    1.3640  -23.0063 H   0  0  0  0  0  0  0  0  0  0  0  0
   -2.3559    2.3081  -21.0882 H   0  0  0  0  0  0  0  0  0  0  0  0
   -3.0573    1.7807  -18.7717 H   0  0  0  0  0  0  0  0  0  0  0  0
   -4.5993    0.6287  -17.2152 H   0  0  0  0  0  0  0  0  0  0  0  0
   -7.7284   -1.6593  -18.5813 H   0  0  0  0  0  0  0  0  0  0  0  0
   -6.8121   -1.8250  -22.0729 H   0  0  0  0  0  0  0  0  0  0  0  0
   -8.0307   -2.2249  -20.8584 H   0  0  0  0  0  0  0  0  0  0  0  0
   -8.7949    1.2583  -23.6203 C   0  0  1  0  0  0  0  0  0  0  0  0
   -7.4726    2.0341  -23.7181 C   0  0  0  0  0  0  0  0  0  0  0  0
   -7.6256    3.0166  -24.1762 H   0  0  0  0  0  0  0  0  0  0  0  0
   -6.7280    1.5035  -24.3158 H   0  0  0  0  0  0  0  0  0  0  0  0
   -7.0464    2.2010  -22.7234 H   0  0  0  0  0  0  0  0  0  0  0  0
   -9.6453    1.3117  -24.9015 C   0  0  0  0  0  0  0  0  0  0  0  0
  -10.6929    1.1672  -24.6171 H   0  0  0  0  0  0  0  0  0  0  0  0
   -9.5942    2.3253  -25.3174 H   0  0  0  0  0  0  0  0  0  0  0  0
   -9.3805    1.7396  -22.8369 H   0  0  0  0  0  0  0  0  0  0  0  0
   -7.1827   -1.0091  -24.5229 H   0  0  0  0  0  0  0  0  0  0  0  0
   -8.2853   -2.1109  -23.7152 H   0  0  0  0  0  0  0  0  0  0  0  0
   -8.8575   -1.8124  -26.1147 H   0  0  0  0  0  0  0  0  0  0  0  0
  -10.1681   -1.4145  -25.0261 H   0  0  0  0  0  0  0  0  0  0  0  0
  -10.1377    0.2786  -26.6917 H   0  0  0  0  0  0  0  0  0  0  0  0
   -7.1268    0.5589  -26.2762 H   0  0  0  0  0  0  0  0  0  0  0  0
   -8.1180    1.7040  -27.1727 H   0  0  0  0  0  0  0  0  0  0  0  0
   -7.9941    0.0263  -27.7098 H   0  0  0  0  0  0  0  0  0  0  0  0
  1  2  1  0
  2  3  1  0
  3  4  1  0
  4  5  1  0
  5  6  1  0
  6  7  2  0
  6  8  1  0
  8  9  1  0
  9 10  2  0
 10 11  1  0
 11 12  2  0
 12 13  1  0
 13 14  2  0
 14 15  1  0
 15 16  2  0
 16 17  1  0
 17 18  2  0
 17 19  1  0
 16 20  1  0
 15 21  1  0
 14 22  1  0
 12 23  1  0
 10 24  1  0
  8 25  1  0
  8 26  1  0
  5 27  1  0
 27 28  1  0
 28 29  1  0
 28 30  1  0
 28 31  1  0
 27 32  1  0
 32 33  1  0
 32 34  1  0
 27 35  1  1
  4 36  1  0
  4 37  1  0
  3 38  1  0
  3 39  1  0
  2 40  1  6
  1 41  1  0
  1 42  1  0
  1 43  1  0
 32  2  1  0
 18  9  1  0
 18 13  1  0
M  END
>  <cnnaffinities>  (84) 
[4.94756, 5.36968]

>  <score>  (84) 
4.94756

>  <index>  (84) 
86

>  <Smiles>  (84) 
C([C@]1(C(C(N(C(=O)C(c2c(nc(c3c(c(c(c(c23)[H])[H])[H])[H])[H])[H])([H])[H])[C@@](C([H])([H])[H])(C1([H])[H])[H])([H])[H])([H])[H])[H])([H])([H])[H]

>  <h>  (84) 
<NA>

>  <Training>  (84) 
True

>  <Success>  (84) 
True

>  <enamine_searched>  (84) 
False

>  <enamine_id>  (84) 
nan

$$$$

     RDKit          3D

 59 64  0  0  0  0  0  0  0  0999 V2000
   -7.9454   -3.6831  -24.0255 C   0  0  0  0  0  0  0  0  0  0  0  0
   -8.3347   -2.8443  -22.7999 C   0  0  1  0  0  0  0  0  0  0  0  0
   -7.1507   -2.6484  -21.8287 C   0  0  0  0  0  0  0  0  0  0  0  0
   -7.4261   -1.3731  -21.1936 N   0  0  0  0  0  0  0  0  0  0  0  0
   -6.6087   -0.8030  -20.1771 C   0  0  0  0  0  0  0  0  0  0  0  0
   -6.8991   -1.0461  -18.8608 C   0  0  0  0  0  0  0  0  0  0  0  0
   -6.1880   -0.5518  -17.8181 N   0  0  0  0  0  0  0  0  0  0  0  0
   -5.1601    0.2099  -18.0860 C   0  0  0  0  0  0  0  0  0  0  0  0
   -4.7321    0.5340  -19.4035 C   0  0  0  0  0  0  0  0  0  0  0  0
   -3.6013    1.3628  -19.6417 C   0  0  0  0  0  0  0  0  0  0  0  0
   -3.2093    1.6504  -20.9191 C   0  0  0  0  0  0  0  0  0  0  0  0
   -3.9266    1.1148  -22.0140 C   0  0  0  0  0  0  0  0  0  0  0  0
   -5.0218    0.3119  -21.8110 C   0  0  0  0  0  0  0  0  0  0  0  0
   -5.4681    0.0085  -20.4916 C   0  0  0  0  0  0  0  0  0  0  0  0
   -5.5598   -0.0941  -22.6645 H   0  0  0  0  0  0  0  0  0  0  0  0
   -3.6139    1.3500  -23.0276 H   0  0  0  0  0  0  0  0  0  0  0  0
   -2.3570    2.3012  -21.0985 H   0  0  0  0  0  0  0  0  0  0  0  0
   -3.0710    1.7678  -18.7828 H   0  0  0  0  0  0  0  0  0  0  0  0
   -4.6135    0.6140  -17.2319 H   0  0  0  0  0  0  0  0  0  0  0  0
   -7.7461   -1.6726  -18.5896 H   0  0  0  0  0  0  0  0  0  0  0  0
   -8.3541   -0.6078  -21.8612 C   0  0  0  0  0  0  0  0  0  0  0  0
   -8.6520    0.5286  -21.5373 O   0  0  0  0  0  0  0  0  0  0  0  0
   -8.8995   -1.4062  -23.0666 C   0  0  1  0  0  0  0  0  0  0  0  0
   -8.3328   -0.8025  -24.3770 C   0  0  0  0  0  0  0  0  0  0  0  0
   -8.8784    0.5116  -24.6482 N   0  0  0  0  0  0  0  0  0  0  0  0
   -7.9559    1.6185  -24.8521 C   0  0  0  0  0  0  0  0  0  0  0  0
   -6.9977    1.4109  -25.9856 C   0  0  0  0  0  0  0  0  0  0  0  0
   -5.6373    1.1704  -25.9810 C   0  0  0  0  0  0  0  0  0  0  0  0
   -5.3005    0.9759  -27.3343 C   0  0  0  0  0  0  0  0  0  0  0  0
   -6.3652    1.0974  -28.1171 N   0  0  0  0  0  0  0  0  0  0  0  0
   -7.3839    1.3673  -27.2859 N   0  0  0  0  0  0  0  0  0  0  0  0
   -8.7211    1.5337  -27.8161 C   0  0  0  0  0  0  0  0  0  0  0  0
   -9.1870    2.4371  -27.4048 H   0  0  0  0  0  0  0  0  0  0  0  0
   -8.6191    1.6227  -28.9010 H   0  0  0  0  0  0  0  0  0  0  0  0
   -9.3482    0.6680  -27.5702 H   0  0  0  0  0  0  0  0  0  0  0  0
   -4.3429    0.7347  -27.7849 H   0  0  0  0  0  0  0  0  0  0  0  0
   -5.0136    1.1126  -25.0971 H   0  0  0  0  0  0  0  0  0  0  0  0
   -8.5751    2.5090  -24.9957 H   0  0  0  0  0  0  0  0  0  0  0  0
   -7.3658    1.7551  -23.9337 H   0  0  0  0  0  0  0  0  0  0  0  0
  -10.2258    0.7183  -24.6540 C   0  0  0  0  0  0  0  0  0  0  0  0
  -10.7505    1.6839  -25.2042 O   0  0  0  0  0  0  0  0  0  0  0  0
  -11.0345   -0.3020  -23.9097 C   0  0  0  0  0  0  0  0  0  0  0  0
  -12.4247   -0.1852  -23.9526 C   0  0  0  0  0  0  0  0  0  0  0  0
  -13.2186   -0.9947  -23.1660 C   0  0  0  0  0  0  0  0  0  0  0  0
  -12.5927   -1.8981  -22.3153 C   0  0  0  0  0  0  0  0  0  0  0  0
  -13.3542   -2.6511  -21.5041 F   0  0  0  0  0  0  0  0  0  0  0  0
  -11.2209   -2.0469  -22.2649 C   0  0  0  0  0  0  0  0  0  0  0  0
  -10.4148   -1.2812  -23.1156 C   0  0  0  0  0  0  0  0  0  0  0  0
  -10.8127   -2.7387  -21.5368 H   0  0  0  0  0  0  0  0  0  0  0  0
  -14.3005   -0.9240  -23.1658 H   0  0  0  0  0  0  0  0  0  0  0  0
  -12.8480    0.5776  -24.5958 H   0  0  0  0  0  0  0  0  0  0  0  0
   -7.2483   -0.7025  -24.2888 H   0  0  0  0  0  0  0  0  0  0  0  0
   -8.5654   -1.4730  -25.2179 H   0  0  0  0  0  0  0  0  0  0  0  0
   -6.1926   -2.6326  -22.3734 H   0  0  0  0  0  0  0  0  0  0  0  0
   -7.0808   -3.4425  -21.0769 H   0  0  0  0  0  0  0  0  0  0  0  0
   -9.1191   -3.3804  -22.2598 H   0  0  0  0  0  0  0  0  0  0  0  0
   -8.7749   -3.7874  -24.7344 H   0  0  0  0  0  0  0  0  0  0  0  0
   -7.1033   -3.2329  -24.5665 H   0  0  0  0  0  0  0  0  0  0  0  0
   -7.6345   -4.6914  -23.7266 H   0  0  0  0  0  0  0  0  0  0  0  0
  1  2  1  0
  2  3  1  0
  3  4  1  0
  4  5  1  0
  5  6  2  0
  6  7  1  0
  7  8  2  0
  8  9  1  0
  9 10  2  0
 10 11  1  0
 11 12  2  0
 12 13  1  0
 13 14  2  0
 13 15  1  0
 12 16  1  0
 11 17  1  0
 10 18  1  0
  8 19  1  0
  6 20  1  0
  4 21  1  0
 21 22  2  0
 21 23  1  0
 23 24  1  6
 24 25  1  0
 25 26  1  0
 26 27  1  0
 27 28  2  0
 28 29  1  0
 29 30  2  0
 30 31  1  0
 31 32  1  0
 32 33  1  0
 32 34  1  0
 32 35  1  0
 29 36  1  0
 28 37  1  0
 26 38  1  0
 26 39  1  0
 25 40  1  0
 40 41  2  0
 40 42  1  0
 42 43  2  0
 43 44  1  0
 44 45  2  0
 45 46  1  0
 45 47  1  0
 47 48  2  0
 47 49  1  0
 44 50  1  0
 43 51  1  0
 24 52  1  0
 24 53  1  0
  3 54  1  0
  3 55  1  0
  2 56  1  1
  1 57  1  0
  1 58  1  0
  1 59  1  0
 23  2  1  0
 31 27  1  0
 48 42  1  0
 14  5  1  0
 48 23  1  0
 14  9  1  0
M  END
>  <cnnaffinities>  (85) 
[6.63235, 6.73563]

>  <score>  (85) 
6.63235

>  <index>  (85) 
87

>  <Smiles>  (85) 
C([C@]1(C(N(c2c(nc(c3c(c(c(c(c23)[H])[H])[H])[H])[H])[H])C(=O)[C@]21C(N(C(c1c(c(nn1C([H])([H])[H])[H])[H])([H])[H])C(=O)c1c(c(c(F)c(c21)[H])[H])[H])([H])[H])([H])[H])[H])([H])([H])[H]

>  <h>  (85) 
<NA>

>  <Training>  (85) 
True

>  <Success>  (85) 
True

>  <enamine_searched>  (85) 
False

>  <enamine_id>  (85) 
nan

$$$$

     RDKit          3D

 40 42  0  0  0  0  0  0  0  0999 V2000
   -5.5910   -2.9756  -21.6793 O   0  0  0  0  0  0  0  0  0  0  0  0
   -6.7930   -2.7999  -21.7760 C   0  0  0  0  0  0  0  0  0  0  0  0
   -7.4232   -1.4827  -21.2553 C   0  0  0  0  0  0  0  0  0  0  0  0
   -6.5822   -0.8245  -20.1816 C   0  0  0  0  0  0  0  0  0  0  0  0
   -6.8723   -1.0415  -18.8597 C   0  0  0  0  0  0  0  0  0  0  0  0
   -6.1826   -0.5387  -17.8044 N   0  0  0  0  0  0  0  0  0  0  0  0
   -5.1536    0.2250  -18.0670 C   0  0  0  0  0  0  0  0  0  0  0  0
   -4.7185    0.5340  -19.3835 C   0  0  0  0  0  0  0  0  0  0  0  0
   -3.5899    1.3608  -19.6205 C   0  0  0  0  0  0  0  0  0  0  0  0
   -3.1878    1.6352  -20.8995 C   0  0  0  0  0  0  0  0  0  0  0  0
   -3.8992    1.0904  -21.9911 C   0  0  0  0  0  0  0  0  0  0  0  0
   -4.9963    0.2895  -21.7855 C   0  0  0  0  0  0  0  0  0  0  0  0
   -5.4439   -0.0091  -20.4731 C   0  0  0  0  0  0  0  0  0  0  0  0
   -5.5152   -0.1385  -22.6366 H   0  0  0  0  0  0  0  0  0  0  0  0
   -3.5740    1.3075  -23.0041 H   0  0  0  0  0  0  0  0  0  0  0  0
   -2.3271    2.2728  -21.0844 H   0  0  0  0  0  0  0  0  0  0  0  0
   -3.0538    1.7743  -18.7690 H   0  0  0  0  0  0  0  0  0  0  0  0
   -4.6006    0.6281  -17.2162 H   0  0  0  0  0  0  0  0  0  0  0  0
   -7.7181   -1.6691  -18.5827 H   0  0  0  0  0  0  0  0  0  0  0  0
   -8.4252   -1.6856  -20.8468 H   0  0  0  0  0  0  0  0  0  0  0  0
   -7.5640   -0.7902  -22.0957 H   0  0  0  0  0  0  0  0  0  0  0  0
   -7.6216   -3.7654  -22.3131 N   0  0  0  0  0  0  0  0  0  0  0  0
   -7.2605   -5.1760  -22.1568 C   0  0  0  0  0  0  0  0  0  0  0  0
   -7.5497   -6.0018  -23.3997 C   0  0  0  0  0  0  0  0  0  0  0  0
   -8.9916   -5.8085  -23.8489 C   0  0  0  0  0  0  0  0  0  0  0  0
   -9.3363   -6.6232  -25.0802 C   0  0  0  0  0  0  0  0  0  0  0  0
   -8.5078   -6.2815  -26.1093 F   0  0  0  0  0  0  0  0  0  0  0  0
   -9.1506   -7.9573  -24.8517 F   0  0  0  0  0  0  0  0  0  0  0  0
  -10.3699   -6.4863  -25.4276 H   0  0  0  0  0  0  0  0  0  0  0  0
   -9.2777   -4.3296  -24.0582 C   0  0  0  0  0  0  0  0  0  0  0  0
   -8.9717   -3.5177  -22.8032 C   0  0  0  0  0  0  0  0  0  0  0  0
   -9.7205   -3.7516  -22.0323 H   0  0  0  0  0  0  0  0  0  0  0  0
   -9.0775   -2.4583  -23.0372 H   0  0  0  0  0  0  0  0  0  0  0  0
   -8.6826   -3.9641  -24.8981 H   0  0  0  0  0  0  0  0  0  0  0  0
  -10.3268   -4.1838  -24.3397 H   0  0  0  0  0  0  0  0  0  0  0  0
   -9.6477   -6.1796  -23.0642 H   0  0  0  0  0  0  0  0  0  0  0  0
   -6.8746   -5.7052  -24.2026 H   0  0  0  0  0  0  0  0  0  0  0  0
   -7.3561   -7.0613  -23.1963 H   0  0  0  0  0  0  0  0  0  0  0  0
   -6.2059   -5.2345  -21.8920 H   0  0  0  0  0  0  0  0  0  0  0  0
   -7.8193   -5.6292  -21.3295 H   0  0  0  0  0  0  0  0  0  0  0  0
  1  2  2  0
  2  3  1  0
  3  4  1  0
  4  5  2  0
  5  6  1  0
  6  7  2  0
  7  8  1  0
  8  9  2  0
  9 10  1  0
 10 11  2  0
 11 12  1  0
 12 13  2  0
 12 14  1  0
 11 15  1  0
 10 16  1  0
  9 17  1  0
  7 18  1  0
  5 19  1  0
  3 20  1  0
  3 21  1  0
  2 22  1  0
 22 23  1  0
 23 24  1  0
 24 25  1  0
 25 26  1  0
 26 27  1  0
 26 28  1  0
 26 29  1  0
 25 30  1  0
 30 31  1  0
 31 32  1  0
 31 33  1  0
 30 34  1  0
 30 35  1  0
 25 36  1  0
 24 37  1  0
 24 38  1  0
 23 39  1  0
 23 40  1  0
 13  4  1  0
 31 22  1  0
 13  8  1  0
M  END
>  <cnnaffinities>  (86) 
[5.11451, 5.16273, 5.16264, 5.15966, 5.08874]

>  <score>  (86) 
5.11451

>  <index>  (86) 
88

>  <Smiles>  (86) 
O=C(C(c1c(nc(c2c(c(c(c(c12)[H])[H])[H])[H])[H])[H])([H])[H])N1C(C(C(C(F)(F)[H])(C(C1([H])[H])([H])[H])[H])([H])[H])([H])[H]

>  <h>  (86) 
<NA>

>  <Training>  (86) 
True

>  <Success>  (86) 
True

>  <enamine_searched>  (86) 
False

>  <enamine_id>  (86) 
nan

$$$$

     RDKit          3D

 43 45  0  0  0  0  0  0  0  0999 V2000
   -6.6981    0.2996  -26.9332 C   0  0  0  0  0  0  0  0  0  0  0  0
   -8.0228    0.5102  -26.1878 C   0  0  0  0  0  0  0  0  0  0  0  0
   -9.0567    1.0563  -27.1813 C   0  0  0  0  0  0  0  0  0  0  0  0
  -10.0082    1.2822  -26.6874 H   0  0  0  0  0  0  0  0  0  0  0  0
   -8.7026    1.9824  -27.6492 H   0  0  0  0  0  0  0  0  0  0  0  0
   -9.2603    0.3376  -27.9842 H   0  0  0  0  0  0  0  0  0  0  0  0
   -7.8072    1.5159  -25.0352 C   0  0  0  0  0  0  0  0  0  0  0  0
   -8.6333    1.1986  -23.7904 C   0  0  0  0  0  0  0  0  0  0  0  0
   -8.2709   -0.1190  -23.2689 N   0  0  0  0  0  0  0  0  0  0  0  0
   -8.3350   -0.3285  -21.9065 C   0  0  0  0  0  0  0  0  0  0  0  0
   -9.0501    0.3429  -21.1843 O   0  0  0  0  0  0  0  0  0  0  0  0
   -7.4289   -1.4117  -21.2839 C   0  0  0  0  0  0  0  0  0  0  0  0
   -6.5707   -0.8309  -20.1782 C   0  0  0  0  0  0  0  0  0  0  0  0
   -6.8766   -1.0391  -18.8588 C   0  0  0  0  0  0  0  0  0  0  0  0
   -6.1865   -0.5321  -17.8019 N   0  0  0  0  0  0  0  0  0  0  0  0
   -5.1526    0.2234  -18.0667 C   0  0  0  0  0  0  0  0  0  0  0  0
   -4.7173    0.5355  -19.3816 C   0  0  0  0  0  0  0  0  0  0  0  0
   -3.5962    1.3692  -19.6226 C   0  0  0  0  0  0  0  0  0  0  0  0
   -3.2075    1.6608  -20.9011 C   0  0  0  0  0  0  0  0  0  0  0  0
   -3.9279    1.1270  -21.9934 C   0  0  0  0  0  0  0  0  0  0  0  0
   -5.0153    0.3158  -21.7866 C   0  0  0  0  0  0  0  0  0  0  0  0
   -5.4440   -0.0040  -20.4715 C   0  0  0  0  0  0  0  0  0  0  0  0
   -5.5541   -0.0812  -22.6429 H   0  0  0  0  0  0  0  0  0  0  0  0
   -3.6160    1.3625  -23.0057 H   0  0  0  0  0  0  0  0  0  0  0  0
   -2.3540    2.3072  -21.0865 H   0  0  0  0  0  0  0  0  0  0  0  0
   -3.0588    1.7785  -18.7704 H   0  0  0  0  0  0  0  0  0  0  0  0
   -4.6005    0.6281  -17.2153 H   0  0  0  0  0  0  0  0  0  0  0  0
   -7.7288   -1.6596  -18.5829 H   0  0  0  0  0  0  0  0  0  0  0  0
   -8.0911   -2.1685  -20.8455 H   0  0  0  0  0  0  0  0  0  0  0  0
   -6.8068   -1.9200  -22.0300 H   0  0  0  0  0  0  0  0  0  0  0  0
   -7.9669   -1.1679  -24.2369 C   0  0  0  0  0  0  0  0  0  0  0  0
   -8.5344   -0.8267  -25.6165 C   0  0  0  0  0  0  0  0  0  0  0  0
   -9.6295   -0.8208  -25.5586 H   0  0  0  0  0  0  0  0  0  0  0  0
   -8.2897   -1.6335  -26.3130 H   0  0  0  0  0  0  0  0  0  0  0  0
   -6.8838   -1.3438  -24.3080 H   0  0  0  0  0  0  0  0  0  0  0  0
   -8.4151   -2.1042  -23.8932 H   0  0  0  0  0  0  0  0  0  0  0  0
   -9.7068    1.2605  -24.0103 H   0  0  0  0  0  0  0  0  0  0  0  0
   -8.4389    1.9330  -23.0092 H   0  0  0  0  0  0  0  0  0  0  0  0
   -6.7507    1.5343  -24.7418 H   0  0  0  0  0  0  0  0  0  0  0  0
   -8.0313    2.5289  -25.3844 H   0  0  0  0  0  0  0  0  0  0  0  0
   -5.9333   -0.1392  -26.2827 H   0  0  0  0  0  0  0  0  0  0  0  0
   -6.8287   -0.3723  -27.7895 H   0  0  0  0  0  0  0  0  0  0  0  0
   -6.3043    1.2484  -27.3165 H   0  0  0  0  0  0  0  0  0  0  0  0
  1  2  1  0
  2  3  1  0
  3  4  1  0
  3  5  1  0
  3  6  1  0
  2  7  1  0
  7  8  1  0
  8  9  1  0
  9 10  1  0
 10 11  2  0
 10 12  1  0
 12 13  1  0
 13 14  2  0
 14 15  1  0
 15 16  2  0
 16 17  1  0
 17 18  2  0
 18 19  1  0
 19 20  2  0
 20 21  1  0
 21 22  2  0
 21 23  1  0
 20 24  1  0
 19 25  1  0
 18 26  1  0
 16 27  1  0
 14 28  1  0
 12 29  1  0
 12 30  1  0
  9 31  1  0
 31 32  1  0
 32 33  1  0
 32 34  1  0
 31 35  1  0
 31 36  1  0
  8 37  1  0
  8 38  1  0
  7 39  1  0
  7 40  1  0
  1 41  1  0
  1 42  1  0
  1 43  1  0
 32  2  1  0
 22 13  1  0
 22 17  1  0
M  END
>  <cnnaffinities>  (87) 
[4.92667, 4.92668, 4.92666, 4.92959, 5.03759, 5.03763, 5.03758, 5.03758, 4.6916, 4.82237, 4.82233, 4.82231]

>  <score>  (87) 
4.92667

>  <index>  (87) 
89

>  <Smiles>  (87) 
C(C1(C([H])([H])[H])C(C(N(C(=O)C(c2c(nc(c3c(c(c(c(c23)[H])[H])[H])[H])[H])[H])([H])[H])C(C1([H])[H])([H])[H])([H])[H])([H])[H])([H])([H])[H]

>  <h>  (87) 
<NA>

>  <Training>  (87) 
True

>  <Success>  (87) 
True

>  <enamine_searched>  (87) 
False

>  <enamine_id>  (87) 
nan

$$$$

     RDKit          3D

 64 68  0  0  0  0  0  0  0  0999 V2000
   -7.3563   -4.1671  -27.2910 C   0  0  0  0  0  0  0  0  0  0  0  0
   -8.2918   -3.1448  -26.8642 N   0  0  0  0  0  0  0  0  0  0  0  0
   -9.3639   -3.4306  -26.0799 C   0  0  0  0  0  0  0  0  0  0  0  0
   -9.6426   -4.5627  -25.7106 O   0  0  0  0  0  0  0  0  0  0  0  0
  -10.1872   -2.2236  -25.6148 C   0  0  0  0  0  0  0  0  0  0  0  0
  -10.3366   -2.2717  -24.1821 N   0  0  0  0  0  0  0  0  0  0  0  0
   -9.3870   -1.5002  -23.3883 C   0  0  0  0  0  0  0  0  0  0  0  0
   -8.9015   -2.1799  -22.0954 C   0  0  2  0  0  0  0  0  0  0  0  0
   -8.2753   -1.1017  -21.2120 C   0  0  0  0  0  0  0  0  0  0  0  0
   -8.8838   -0.1886  -20.6871 O   0  0  0  0  0  0  0  0  0  0  0  0
   -6.9311   -1.3350  -21.0846 N   0  0  0  0  0  0  0  0  0  0  0  0
   -6.1955   -0.6958  -20.0609 C   0  0  0  0  0  0  0  0  0  0  0  0
   -6.5626   -0.8617  -18.7487 C   0  0  0  0  0  0  0  0  0  0  0  0
   -5.8856   -0.3318  -17.7044 N   0  0  0  0  0  0  0  0  0  0  0  0
   -4.8427    0.4128  -17.9699 C   0  0  0  0  0  0  0  0  0  0  0  0
   -4.3788    0.6953  -19.2850 C   0  0  0  0  0  0  0  0  0  0  0  0
   -3.2704    1.5446  -19.5294 C   0  0  0  0  0  0  0  0  0  0  0  0
   -2.8951    1.8409  -20.8098 C   0  0  0  0  0  0  0  0  0  0  0  0
   -3.6018    1.2922  -21.9040 C   0  0  0  0  0  0  0  0  0  0  0  0
   -4.6672    0.4516  -21.6959 C   0  0  0  0  0  0  0  0  0  0  0  0
   -5.0771    0.1338  -20.3754 C   0  0  0  0  0  0  0  0  0  0  0  0
   -5.2193    0.0436  -22.5385 H   0  0  0  0  0  0  0  0  0  0  0  0
   -3.3129    1.5472  -22.9178 H   0  0  0  0  0  0  0  0  0  0  0  0
   -2.0609    2.5124  -20.9963 H   0  0  0  0  0  0  0  0  0  0  0  0
   -2.7478    1.9626  -18.6762 H   0  0  0  0  0  0  0  0  0  0  0  0
   -4.3148    0.8482  -17.1213 H   0  0  0  0  0  0  0  0  0  0  0  0
   -7.4352   -1.4611  -18.4953 H   0  0  0  0  0  0  0  0  0  0  0  0
   -6.4654   -2.4491  -21.8887 C   0  0  0  0  0  0  0  0  0  0  0  0
   -7.7579   -3.2421  -22.2043 C   0  0  2  0  0  0  0  0  0  0  0  0
   -7.6356   -4.0425  -23.5002 C   0  0  0  0  0  0  0  0  0  0  0  0
   -6.4777   -5.4207  -23.4615 S   0  0  0  0  0  0  0  0  0  0  0  0
   -6.5240   -6.0650  -24.7644 O   0  0  0  0  0  0  0  0  0  0  0  0
   -5.2153   -4.9824  -22.8903 O   0  0  0  0  0  0  0  0  0  0  0  0
   -7.1280   -6.4898  -22.3805 N   0  0  0  0  0  0  0  0  0  0  0  0
   -8.3922   -7.1183  -22.7428 C   0  0  0  0  0  0  0  0  0  0  0  0
   -8.2530   -7.6707  -23.6737 H   0  0  0  0  0  0  0  0  0  0  0  0
   -9.2084   -6.3971  -22.8888 H   0  0  0  0  0  0  0  0  0  0  0  0
   -8.6674   -7.8167  -21.9499 H   0  0  0  0  0  0  0  0  0  0  0  0
   -7.0045   -6.1827  -21.4229 H   0  0  0  0  0  0  0  0  0  0  0  0
   -7.2807   -3.4242  -24.3311 H   0  0  0  0  0  0  0  0  0  0  0  0
   -8.5942   -4.4655  -23.8047 H   0  0  0  0  0  0  0  0  0  0  0  0
   -7.9379   -3.9522  -21.3871 H   0  0  0  0  0  0  0  0  0  0  0  0
   -5.9912   -2.0988  -22.8180 H   0  0  0  0  0  0  0  0  0  0  0  0
   -5.7230   -3.0417  -21.3514 H   0  0  0  0  0  0  0  0  0  0  0  0
  -10.1663   -2.5920  -21.3403 C   0  0  0  0  0  0  0  0  0  0  0  0
  -10.6450   -3.8379  -21.4397 C   0  0  0  0  0  0  0  0  0  0  0  0
  -13.4352   -4.0640  -20.6317 C   0  0  0  0  0  0  0  0  0  0  0  0
  -13.3022   -4.8671  -19.5727 F   0  0  0  0  0  0  0  0  0  0  0  0
  -13.4563   -3.9895  -20.6762 C   0  0  0  0  0  0  0  0  0  0  0  0
  -12.9273   -3.4563  -21.8053 C   0  0  0  0  0  0  0  0  0  0  0  0
  -11.4880   -3.2196  -22.2508 C   0  0  0  0  0  0  0  0  0  0  0  0
  -11.4790   -2.8981  -23.7044 C   0  0  0  0  0  0  0  0  0  0  0  0
  -12.4264   -3.1555  -24.4245 O   0  0  0  0  0  0  0  0  0  0  0  0
  -13.7241   -3.0412  -22.3090 H   0  0  0  0  0  0  0  0  0  0  0  0
  -14.7363   -4.1615  -20.7614 H   0  0  0  0  0  0  0  0  0  0  0  0
  -10.4743   -1.8222  -20.6132 H   0  0  0  0  0  0  0  0  0  0  0  0
   -9.8323   -0.5393  -23.0894 H   0  0  0  0  0  0  0  0  0  0  0  0
   -8.5243   -1.2860  -24.0281 H   0  0  0  0  0  0  0  0  0  0  0  0
  -11.2063   -2.2564  -26.0007 H   0  0  0  0  0  0  0  0  0  0  0  0
   -9.7233   -1.2827  -25.9144 H   0  0  0  0  0  0  0  0  0  0  0  0
   -8.2164   -2.2135  -27.2391 H   0  0  0  0  0  0  0  0  0  0  0  0
   -6.3293   -3.8763  -27.0509 H   0  0  0  0  0  0  0  0  0  0  0  0
   -7.4246   -4.3659  -28.3663 H   0  0  0  0  0  0  0  0  0  0  0  0
   -7.5901   -5.0819  -26.7447 H   0  0  0  0  0  0  0  0  0  0  0  0
  1  2  1  0
  2  3  1  0
  3  4  2  0
  3  5  1  0
  5  6  1  0
  6  7  1  0
  8  7  1  6
  8  9  1  0
  9 10  2  0
  9 11  1  0
 11 12  1  0
 12 13  2  0
 13 14  1  0
 14 15  2  0
 15 16  1  0
 16 17  2  0
 17 18  1  0
 18 19  2  0
 19 20  1  0
 20 21  2  0
 20 22  1  0
 19 23  1  0
 18 24  1  0
 17 25  1  0
 15 26  1  0
 13 27  1  0
 11 28  1  0
 28 29  1  0
 29 30  1  0
 30 31  1  0
 31 32  2  0
 31 33  2  0
 31 34  1  0
 34 35  1  0
 35 36  1  0
 35 37  1  0
 35 38  1  0
 34 39  1  0
 30 40  1  0
 30 41  1  0
 29 42  1  1
 28 43  1  0
 28 44  1  0
  8 45  1  0
 45 46  2  0
 46 47  1  0
 47 48  1  0
 47 49  2  0
 49 50  1  0
 50 51  2  0
 51 52  1  0
 52 53  2  0
 50 54  1  0
 49 55  1  0
 46 56  1  0
  7 57  1  0
  7 58  1  0
  5 59  1  0
  5 60  1  0
  2 61  1  0
  1 62  1  0
  1 63  1  0
  1 64  1  0
 52  6  1  0
 29  8  1  0
 51 45  1  0
 21 12  1  0
 21 16  1  0
M  END
>  <cnnaffinities>  (88) 
[6.27169]

>  <score>  (88) 
6.27169

>  <index>  (88) 
90

>  <Smiles>  (88) 
C(N(C(=O)C(N1C([C@@]2(C(=O)N(c3c(nc(c4c(c(c(c(c34)[H])[H])[H])[H])[H])[H])C([C@@]2(C(S(=O)(=O)N(C([H])([H])[H])[H])([H])[H])[H])([H])[H])c2c(c(F)c(c(c2C1=O)[H])[H])[H])([H])[H])([H])[H])[H])([H])([H])[H]

>  <h>  (88) 
<NA>

>  <Training>  (88) 
True

>  <Success>  (88) 
True

>  <enamine_searched>  (88) 
False

>  <enamine_id>  (88) 
nan

$$$$

     RDKit          3D

 66 71  0  0  0  0  0  0  0  0999 V2000
   -7.4658    3.1435  -21.7950 C   0  0  0  0  0  0  0  0  0  0  0  0
   -8.5411    2.7527  -22.6875 N   0  0  0  0  0  0  0  0  0  0  0  0
   -8.1963    2.0349  -23.7877 C   0  0  0  0  0  0  0  0  0  0  0  0
   -7.0267    1.7931  -24.0550 O   0  0  0  0  0  0  0  0  0  0  0  0
   -9.3305    1.5099  -24.6655 C   0  0  0  0  0  0  0  0  0  0  0  0
   -9.8926    0.3054  -24.0761 N   0  0  0  0  0  0  0  0  0  0  0  0
   -9.0845   -0.9097  -24.0460 C   0  0  0  0  0  0  0  0  0  0  0  0
   -9.2901   -1.6995  -22.7257 C   0  0  2  0  0  0  0  0  0  0  0  0
   -8.6745   -0.8733  -21.5547 C   0  0  0  0  0  0  0  0  0  0  0  0
   -9.1561    0.1079  -21.0245 O   0  0  0  0  0  0  0  0  0  0  0  0
   -7.4497   -1.4144  -21.2253 N   0  0  0  0  0  0  0  0  0  0  0  0
   -6.6328   -0.8372  -20.2103 C   0  0  0  0  0  0  0  0  0  0  0  0
   -6.9405   -1.0537  -18.8887 C   0  0  0  0  0  0  0  0  0  0  0  0
   -6.2310   -0.5647  -17.8452 N   0  0  0  0  0  0  0  0  0  0  0  0
   -5.1883    0.1807  -18.1087 C   0  0  0  0  0  0  0  0  0  0  0  0
   -4.7551    0.4967  -19.4254 C   0  0  0  0  0  0  0  0  0  0  0  0
   -3.6359    1.3400  -19.6540 C   0  0  0  0  0  0  0  0  0  0  0  0
   -3.2476    1.6447  -20.9299 C   0  0  0  0  0  0  0  0  0  0  0  0
   -3.9636    1.1235  -22.0279 C   0  0  0  0  0  0  0  0  0  0  0  0
   -5.0597    0.3116  -21.8325 C   0  0  0  0  0  0  0  0  0  0  0  0
   -5.4864   -0.0317  -20.5201 C   0  0  0  0  0  0  0  0  0  0  0  0
   -5.6360   -0.0181  -22.6912 H   0  0  0  0  0  0  0  0  0  0  0  0
   -3.6576    1.3757  -23.0385 H   0  0  0  0  0  0  0  0  0  0  0  0
   -2.3961    2.2965  -21.1033 H   0  0  0  0  0  0  0  0  0  0  0  0
   -3.1076    1.7405  -18.7933 H   0  0  0  0  0  0  0  0  0  0  0  0
   -4.6258    0.5801  -17.2623 H   0  0  0  0  0  0  0  0  0  0  0  0
   -7.8052   -1.6609  -18.6327 H   0  0  0  0  0  0  0  0  0  0  0  0
   -7.1055   -2.5879  -22.0105 C   0  0  0  0  0  0  0  0  0  0  0  0
   -8.4371   -3.0021  -22.6647 C   0  0  2  0  0  0  0  0  0  0  0  0
   -8.2138   -3.8129  -23.9506 C   0  0  0  0  0  0  0  0  0  0  0  0
   -9.4248   -4.4615  -24.4064 N   0  0  0  0  0  0  0  0  0  0  0  0
   -9.4888   -5.3503  -25.4515 C   0  0  0  0  0  0  0  0  0  0  0  0
   -8.3367   -5.9016  -26.0769 C   0  0  0  0  0  0  0  0  0  0  0  0
   -8.4155   -6.7704  -27.0723 N   0  0  0  0  0  0  0  0  0  0  0  0
   -9.6438   -7.1287  -27.4603 C   0  0  0  0  0  0  0  0  0  0  0  0
  -10.7647   -6.6093  -26.8321 C   0  0  0  0  0  0  0  0  0  0  0  0
  -10.7148   -5.7032  -25.8543 N   0  0  0  0  0  0  0  0  0  0  0  0
  -11.7475   -6.9010  -27.1580 H   0  0  0  0  0  0  0  0  0  0  0  0
   -9.7029   -7.8557  -28.2602 H   0  0  0  0  0  0  0  0  0  0  0  0
   -7.3311   -5.6192  -25.7641 H   0  0  0  0  0  0  0  0  0  0  0  0
  -10.3147   -4.0256  -24.2050 H   0  0  0  0  0  0  0  0  0  0  0  0
   -7.4769   -4.5954  -23.7302 H   0  0  0  0  0  0  0  0  0  0  0  0
   -7.7799   -3.1758  -24.7387 H   0  0  0  0  0  0  0  0  0  0  0  0
   -8.9315   -3.6699  -21.9552 H   0  0  0  0  0  0  0  0  0  0  0  0
   -6.3408   -2.3545  -22.7682 H   0  0  0  0  0  0  0  0  0  0  0  0
   -6.7094   -3.3845  -21.3711 H   0  0  0  0  0  0  0  0  0  0  0  0
  -10.7915   -1.8828  -22.5268 C   0  0  0  0  0  0  0  0  0  0  0  0
  -11.3229   -2.9211  -21.7481 C   0  0  0  0  0  0  0  0  0  0  0  0
  -12.6740   -2.9430  -21.4368 C   0  0  0  0  0  0  0  0  0  0  0  0
  -13.3052   -4.1257  -20.3343 Cl  0  0  0  0  0  0  0  0  0  0  0  0
  -13.5586   -1.9880  -21.9260 C   0  0  0  0  0  0  0  0  0  0  0  0
  -13.0529   -0.9745  -22.7086 C   0  0  0  0  0  0  0  0  0  0  0  0
  -11.6909   -0.9136  -23.0015 C   0  0  0  0  0  0  0  0  0  0  0  0
  -11.2298    0.2747  -23.7912 C   0  0  0  0  0  0  0  0  0  0  0  0
  -12.0009    1.1594  -24.1311 O   0  0  0  0  0  0  0  0  0  0  0  0
  -13.6919   -0.1835  -23.0810 H   0  0  0  0  0  0  0  0  0  0  0  0
  -14.6079   -2.0361  -21.6566 H   0  0  0  0  0  0  0  0  0  0  0  0
  -10.6968   -3.6997  -21.3285 H   0  0  0  0  0  0  0  0  0  0  0  0
   -8.0333   -0.6273  -24.1607 H   0  0  0  0  0  0  0  0  0  0  0  0
   -9.3594   -1.5502  -24.8965 H   0  0  0  0  0  0  0  0  0  0  0  0
  -10.1386    2.2386  -24.7821 H   0  0  0  0  0  0  0  0  0  0  0  0
   -8.9201    1.2953  -25.6599 H   0  0  0  0  0  0  0  0  0  0  0  0
   -9.4699    2.6805  -22.2930 H   0  0  0  0  0  0  0  0  0  0  0  0
   -7.8982    3.5278  -20.8789 H   0  0  0  0  0  0  0  0  0  0  0  0
   -6.8374    2.2781  -21.5626 H   0  0  0  0  0  0  0  0  0  0  0  0
   -6.8467    3.9214  -22.2502 H   0  0  0  0  0  0  0  0  0  0  0  0
  1  2  1  0
  2  3  1  0
  3  4  2  0
  3  5  1  0
  5  6  1  0
  6  7  1  0
  8  7  1  6
  8  9  1  0
  9 10  2  0
  9 11  1  0
 11 12  1  0
 12 13  2  0
 13 14  1  0
 14 15  2  0
 15 16  1  0
 16 17  2  0
 17 18  1  0
 18 19  2  0
 19 20  1  0
 20 21  2  0
 20 22  1  0
 19 23  1  0
 18 24  1  0
 17 25  1  0
 15 26  1  0
 13 27  1  0
 11 28  1  0
 28 29  1  0
 29 30  1  0
 30 31  1  0
 31 32  1  0
 32 33  2  0
 33 34  1  0
 34 35  2  0
 35 36  1  0
 36 37  2  0
 36 38  1  0
 35 39  1  0
 33 40  1  0
 31 41  1  0
 30 42  1  0
 30 43  1  0
 29 44  1  1
 28 45  1  0
 28 46  1  0
  8 47  1  0
 47 48  2  0
 48 49  1  0
 49 50  1  0
 49 51  2  0
 51 52  1  0
 52 53  2  0
 53 54  1  0
 54 55  2  0
 52 56  1  0
 51 57  1  0
 48 58  1  0
  7 59  1  0
  7 60  1  0
  5 61  1  0
  5 62  1  0
  2 63  1  0
  1 64  1  0
  1 65  1  0
  1 66  1  0
 54  6  1  0
 29  8  1  0
 37 32  1  0
 53 47  1  0
 21 12  1  0
 21 16  1  0
M  END
>  <cnnaffinities>  (89) 
[6.42202]

>  <score>  (89) 
6.42202

>  <index>  (89) 
91

>  <Smiles>  (89) 
C(N(C(=O)C(N1C([C@@]2(C(=O)N(c3c(nc(c4c(c(c(c(c34)[H])[H])[H])[H])[H])[H])C([C@@]2(C(N(c2c(nc(c(n2)[H])[H])[H])[H])([H])[H])[H])([H])[H])c2c(c(Cl)c(c(c2C1=O)[H])[H])[H])([H])[H])([H])[H])[H])([H])([H])[H]

>  <h>  (89) 
<NA>

>  <Training>  (89) 
True

>  <Success>  (89) 
True

>  <enamine_searched>  (89) 
False

>  <enamine_id>  (89) 
nan

$$$$

     RDKit          3D

 60 65  0  0  0  0  0  0  0  0999 V2000
   -6.7864   -3.4329  -26.0925 C   0  0  0  0  0  0  0  0  0  0  0  0
   -7.0199   -2.8828  -24.8202 O   0  0  0  0  0  0  0  0  0  0  0  0
   -7.9973   -3.5878  -24.0835 C   0  0  0  0  0  0  0  0  0  0  0  0
   -8.3031   -2.8774  -22.7663 C   0  0  1  0  0  0  0  0  0  0  0  0
   -7.0311   -2.5416  -21.9742 C   0  0  0  0  0  0  0  0  0  0  0  0
   -7.3838   -1.3406  -21.2419 N   0  0  0  0  0  0  0  0  0  0  0  0
   -6.5955   -0.7986  -20.1980 C   0  0  0  0  0  0  0  0  0  0  0  0
   -6.9191   -1.0304  -18.8837 C   0  0  0  0  0  0  0  0  0  0  0  0
   -6.2155   -0.5427  -17.8349 N   0  0  0  0  0  0  0  0  0  0  0  0
   -5.1767    0.2107  -18.0940 C   0  0  0  0  0  0  0  0  0  0  0  0
   -4.7344    0.5354  -19.4095 C   0  0  0  0  0  0  0  0  0  0  0  0
   -3.6171    1.3765  -19.6472 C   0  0  0  0  0  0  0  0  0  0  0  0
   -3.2276    1.6632  -20.9264 C   0  0  0  0  0  0  0  0  0  0  0  0
   -3.9172    1.1077  -22.0250 C   0  0  0  0  0  0  0  0  0  0  0  0
   -4.9904    0.2716  -21.8170 C   0  0  0  0  0  0  0  0  0  0  0  0
   -5.4441   -0.0105  -20.5014 C   0  0  0  0  0  0  0  0  0  0  0  0
   -5.5014   -0.1713  -22.6672 H   0  0  0  0  0  0  0  0  0  0  0  0
   -3.5893    1.3415  -23.0332 H   0  0  0  0  0  0  0  0  0  0  0  0
   -2.3755    2.3091  -21.1049 H   0  0  0  0  0  0  0  0  0  0  0  0
   -3.0888    1.7830  -18.7899 H   0  0  0  0  0  0  0  0  0  0  0  0
   -4.6192    0.6068  -17.2449 H   0  0  0  0  0  0  0  0  0  0  0  0
   -7.7847   -1.6417  -18.6404 H   0  0  0  0  0  0  0  0  0  0  0  0
   -8.6067   -0.8027  -21.5752 C   0  0  0  0  0  0  0  0  0  0  0  0
   -9.1475    0.1046  -20.9784 O   0  0  0  0  0  0  0  0  0  0  0  0
   -9.1510   -1.5676  -22.8070 C   0  0  1  0  0  0  0  0  0  0  0  0
   -8.8986   -0.7886  -24.1210 C   0  0  0  0  0  0  0  0  0  0  0  0
   -9.7454    0.3826  -24.2377 N   0  0  0  0  0  0  0  0  0  0  0  0
   -9.1498    1.6117  -24.7447 C   0  0  0  0  0  0  0  0  0  0  0  0
   -8.3469    2.3763  -23.7153 C   0  0  0  0  0  0  0  0  0  0  0  0
   -8.8742    3.2899  -22.7686 C   0  0  0  0  0  0  0  0  0  0  0  0
   -7.9406    3.7693  -21.9476 N   0  0  0  0  0  0  0  0  0  0  0  0
   -6.8141    3.1874  -22.3677 N   0  0  0  0  0  0  0  0  0  0  0  0
   -6.9985    2.3515  -23.4166 C   0  0  0  0  0  0  0  0  0  0  0  0
   -6.1410    1.8128  -23.8003 H   0  0  0  0  0  0  0  0  0  0  0  0
   -5.9300    3.3632  -21.9129 H   0  0  0  0  0  0  0  0  0  0  0  0
   -9.9057    3.6199  -22.6566 H   0  0  0  0  0  0  0  0  0  0  0  0
   -8.5432    1.3505  -25.6183 H   0  0  0  0  0  0  0  0  0  0  0  0
   -9.9777    2.2288  -25.1057 H   0  0  0  0  0  0  0  0  0  0  0  0
  -11.0977    0.3119  -24.0453 C   0  0  0  0  0  0  0  0  0  0  0  0
  -11.8706    1.1613  -24.4721 O   0  0  0  0  0  0  0  0  0  0  0  0
  -11.5642   -0.8587  -23.2391 C   0  0  0  0  0  0  0  0  0  0  0  0
  -12.9363   -0.9917  -23.0316 C   0  0  0  0  0  0  0  0  0  0  0  0
  -13.4284   -1.9744  -22.2006 C   0  0  0  0  0  0  0  0  0  0  0  0
  -12.5165   -2.8150  -21.5698 C   0  0  0  0  0  0  0  0  0  0  0  0
  -13.1218   -3.9976  -20.4592 Cl  0  0  0  0  0  0  0  0  0  0  0  0
  -11.1560   -2.7136  -21.7813 C   0  0  0  0  0  0  0  0  0  0  0  0
  -10.6502   -1.7446  -22.6517 C   0  0  0  0  0  0  0  0  0  0  0  0
  -10.4968   -3.3781  -21.2360 H   0  0  0  0  0  0  0  0  0  0  0  0
  -14.4892   -2.0849  -22.0066 H   0  0  0  0  0  0  0  0  0  0  0  0
  -13.5951   -0.2862  -23.5206 H   0  0  0  0  0  0  0  0  0  0  0  0
   -9.0780   -1.4779  -24.9559 H   0  0  0  0  0  0  0  0  0  0  0  0
   -7.8568   -0.4685  -24.1810 H   0  0  0  0  0  0  0  0  0  0  0  0
   -6.1789   -2.3737  -22.6428 H   0  0  0  0  0  0  0  0  0  0  0  0
   -6.7688   -3.3483  -21.2808 H   0  0  0  0  0  0  0  0  0  0  0  0
   -8.8798   -3.5976  -22.1832 H   0  0  0  0  0  0  0  0  0  0  0  0
   -7.6310   -4.6022  -23.8630 H   0  0  0  0  0  0  0  0  0  0  0  0
   -8.9215   -3.6949  -24.6759 H   0  0  0  0  0  0  0  0  0  0  0  0
   -6.0226   -2.8236  -26.5819 H   0  0  0  0  0  0  0  0  0  0  0  0
   -6.4189   -4.4681  -26.0267 H   0  0  0  0  0  0  0  0  0  0  0  0
   -7.6963   -3.4198  -26.7126 H   0  0  0  0  0  0  0  0  0  0  0  0
  1  2  1  0
  2  3  1  0
  3  4  1  0
  4  5  1  0
  5  6  1  0
  6  7  1  0
  7  8  2  0
  8  9  1  0
  9 10  2  0
 10 11  1  0
 11 12  2  0
 12 13  1  0
 13 14  2  0
 14 15  1  0
 15 16  2  0
 15 17  1  0
 14 18  1  0
 13 19  1  0
 12 20  1  0
 10 21  1  0
  8 22  1  0
  6 23  1  0
 23 24  2  0
 23 25  1  0
 25 26  1  6
 26 27  1  0
 27 28  1  0
 28 29  1  0
 29 30  1  0
 30 31  2  0
 31 32  1  0
 32 33  1  0
 33 34  1  0
 32 35  1  0
 30 36  1  0
 28 37  1  0
 28 38  1  0
 27 39  1  0
 39 40  2  0
 39 41  1  0
 41 42  2  0
 42 43  1  0
 43 44  2  0
 44 45  1  0
 44 46  1  0
 46 47  2  0
 46 48  1  0
 43 49  1  0
 42 50  1  0
 26 51  1  0
 26 52  1  0
  5 53  1  0
  5 54  1  0
  4 55  1  1
  3 56  1  0
  3 57  1  0
  1 58  1  0
  1 59  1  0
  1 60  1  0
 25  4  1  0
 33 29  2  0
 47 41  1  0
 16  7  1  0
 47 25  1  0
 16 11  1  0
M  END
>  <cnnaffinities>  (90) 
[6.62642]

>  <score>  (90) 
6.62642

>  <index>  (90) 
92

>  <Smiles>  (90) 
C(OC([C@]1(C(N(c2c(nc(c3c(c(c(c(c23)[H])[H])[H])[H])[H])[H])C(=O)[C@]21C(N(C(c1c(nn(c1[H])[H])[H])([H])[H])C(=O)c1c(c(c(Cl)c(c21)[H])[H])[H])([H])[H])([H])[H])[H])([H])[H])([H])([H])[H]

>  <h>  (90) 
<NA>

>  <Training>  (90) 
True

>  <Success>  (90) 
True

>  <enamine_searched>  (90) 
False

>  <enamine_id>  (90) 
nan

$$$$

     RDKit          3D

 62 67  0  0  0  0  0  0  0  0999 V2000
  -11.3178    4.3027  -25.2304 C   0  0  0  0  0  0  0  0  0  0  0  0
   -9.8241    4.1722  -25.5272 C   0  0  0  0  0  0  0  0  0  0  0  0
   -9.0690    3.5907  -24.4244 N   0  0  0  0  0  0  0  0  0  0  0  0
   -8.4886    4.4137  -23.5371 N   0  0  0  0  0  0  0  0  0  0  0  0
   -7.9032    3.6204  -22.6503 C   0  0  0  0  0  0  0  0  0  0  0  0
   -8.1109    2.2653  -22.9711 C   0  0  0  0  0  0  0  0  0  0  0  0
   -8.8904    2.2772  -24.1053 C   0  0  0  0  0  0  0  0  0  0  0  0
   -9.3904    1.1046  -24.9076 C   0  0  0  0  0  0  0  0  0  0  0  0
   -9.8514    0.0035  -24.0835 N   0  0  0  0  0  0  0  0  0  0  0  0
   -9.0394   -1.1942  -23.9798 C   0  0  0  0  0  0  0  0  0  0  0  0
   -9.2253   -1.9120  -22.6162 C   0  0  2  0  0  0  0  0  0  0  0  0
   -8.6617   -1.0277  -21.4696 C   0  0  0  0  0  0  0  0  0  0  0  0
   -9.2269   -0.1060  -20.9098 O   0  0  0  0  0  0  0  0  0  0  0  0
   -7.3763   -1.4349  -21.1929 N   0  0  0  0  0  0  0  0  0  0  0  0
   -6.5993   -0.8246  -20.1692 C   0  0  0  0  0  0  0  0  0  0  0  0
   -6.9053   -1.0473  -18.8495 C   0  0  0  0  0  0  0  0  0  0  0  0
   -6.1941   -0.5447  -17.8123 N   0  0  0  0  0  0  0  0  0  0  0  0
   -5.1626    0.2087  -18.0836 C   0  0  0  0  0  0  0  0  0  0  0  0
   -4.7297    0.5287  -19.4001 C   0  0  0  0  0  0  0  0  0  0  0  0
   -3.6060    1.3643  -19.6428 C   0  0  0  0  0  0  0  0  0  0  0  0
   -3.2262    1.6629  -20.9196 C   0  0  0  0  0  0  0  0  0  0  0  0
   -3.9546    1.1370  -22.0117 C   0  0  0  0  0  0  0  0  0  0  0  0
   -5.0471    0.3262  -21.8012 C   0  0  0  0  0  0  0  0  0  0  0  0
   -5.4657   -0.0043  -20.4870 C   0  0  0  0  0  0  0  0  0  0  0  0
   -5.5976   -0.0642  -22.6532 H   0  0  0  0  0  0  0  0  0  0  0  0
   -3.6572    1.3824  -23.0257 H   0  0  0  0  0  0  0  0  0  0  0  0
   -2.3765    2.3162  -21.1035 H   0  0  0  0  0  0  0  0  0  0  0  0
   -3.0732    1.7693  -18.7846 H   0  0  0  0  0  0  0  0  0  0  0  0
   -4.6135    0.6157  -17.2322 H   0  0  0  0  0  0  0  0  0  0  0  0
   -7.7524   -1.6722  -18.5780 H   0  0  0  0  0  0  0  0  0  0  0  0
   -6.9629   -2.6134  -21.9356 C   0  0  0  0  0  0  0  0  0  0  0  0
   -8.2915   -3.1589  -22.5105 C   0  0  2  0  0  0  0  0  0  0  0  0
   -8.0941   -3.9857  -23.7846 C   0  0  0  0  0  0  0  0  0  0  0  0
   -7.5543   -3.4106  -24.5484 H   0  0  0  0  0  0  0  0  0  0  0  0
   -7.5058   -4.8893  -23.5818 H   0  0  0  0  0  0  0  0  0  0  0  0
   -9.0503   -4.2982  -24.2211 H   0  0  0  0  0  0  0  0  0  0  0  0
   -8.7280   -3.7972  -21.7358 H   0  0  0  0  0  0  0  0  0  0  0  0
   -6.4621   -3.3256  -21.2701 H   0  0  0  0  0  0  0  0  0  0  0  0
   -6.2531   -2.3610  -22.7395 H   0  0  0  0  0  0  0  0  0  0  0  0
  -10.7170   -2.1435  -22.4341 C   0  0  0  0  0  0  0  0  0  0  0  0
  -11.2333   -3.2192  -21.6995 C   0  0  0  0  0  0  0  0  0  0  0  0
  -12.5883   -3.2661  -21.4376 C   0  0  0  0  0  0  0  0  0  0  0  0
  -13.0871   -4.1975  -20.6096 F   0  0  0  0  0  0  0  0  0  0  0  0
  -13.4839   -2.3356  -21.9437 C   0  0  0  0  0  0  0  0  0  0  0  0
  -12.9871   -1.2692  -22.6587 C   0  0  0  0  0  0  0  0  0  0  0  0
  -11.6168   -1.1644  -22.8928 C   0  0  0  0  0  0  0  0  0  0  0  0
  -11.1425    0.0424  -23.6464 C   0  0  0  0  0  0  0  0  0  0  0  0
  -11.8782    0.9936  -23.8701 O   0  0  0  0  0  0  0  0  0  0  0  0
  -13.6341   -0.4797  -23.0254 H   0  0  0  0  0  0  0  0  0  0  0  0
  -14.5349   -2.4728  -21.7247 H   0  0  0  0  0  0  0  0  0  0  0  0
  -10.6022   -3.9849  -21.2623 H   0  0  0  0  0  0  0  0  0  0  0  0
   -9.2985   -1.9061  -24.7821 H   0  0  0  0  0  0  0  0  0  0  0  0
   -7.9934   -0.8945  -24.0906 H   0  0  0  0  0  0  0  0  0  0  0  0
  -10.2045    1.4067  -25.5762 H   0  0  0  0  0  0  0  0  0  0  0  0
   -8.5746    0.7052  -25.5176 H   0  0  0  0  0  0  0  0  0  0  0  0
   -7.7788    1.3715  -22.4635 H   0  0  0  0  0  0  0  0  0  0  0  0
   -7.3643    4.0664  -21.8195 H   0  0  0  0  0  0  0  0  0  0  0  0
   -9.3663    5.1519  -25.7081 H   0  0  0  0  0  0  0  0  0  0  0  0
   -9.6516    3.5480  -26.4133 H   0  0  0  0  0  0  0  0  0  0  0  0
  -11.7704    3.3212  -25.0409 H   0  0  0  0  0  0  0  0  0  0  0  0
  -11.4844    4.9448  -24.3583 H   0  0  0  0  0  0  0  0  0  0  0  0
  -11.8197    4.7598  -26.0897 H   0  0  0  0  0  0  0  0  0  0  0  0
  1  2  1  0
  2  3  1  0
  3  4  1  0
  4  5  2  0
  5  6  1  0
  6  7  2  0
  7  8  1  0
  8  9  1  0
  9 10  1  0
 11 10  1  6
 11 12  1  0
 12 13  2  0
 12 14  1  0
 14 15  1  0
 15 16  2  0
 16 17  1  0
 17 18  2  0
 18 19  1  0
 19 20  2  0
 20 21  1  0
 21 22  2  0
 22 23  1  0
 23 24  2  0
 23 25  1  0
 22 26  1  0
 21 27  1  0
 20 28  1  0
 18 29  1  0
 16 30  1  0
 14 31  1  0
 31 32  1  0
 32 33  1  0
 33 34  1  0
 33 35  1  0
 33 36  1  0
 32 37  1  1
 31 38  1  0
 31 39  1  0
 11 40  1  0
 40 41  2  0
 41 42  1  0
 42 43  1  0
 42 44  2  0
 44 45  1  0
 45 46  2  0
 46 47  1  0
 47 48  2  0
 45 49  1  0
 44 50  1  0
 41 51  1  0
 10 52  1  0
 10 53  1  0
  8 54  1  0
  8 55  1  0
  6 56  1  0
  5 57  1  0
  2 58  1  0
  2 59  1  0
  1 60  1  0
  1 61  1  0
  1 62  1  0
  7  3  1  0
 47  9  1  0
 32 11  1  0
 46 40  1  0
 24 15  1  0
 24 19  1  0
M  END
>  <cnnaffinities>  (91) 
[6.90654]

>  <score>  (91) 
6.90654

>  <index>  (91) 
93

>  <Smiles>  (91) 
C(C(n1nc(c(c1C(N1C([C@@]2(C(=O)N(c3c(nc(c4c(c(c(c(c34)[H])[H])[H])[H])[H])[H])C([C@@]2(C([H])([H])[H])[H])([H])[H])c2c(c(F)c(c(c2C1=O)[H])[H])[H])([H])[H])([H])[H])[H])[H])([H])[H])([H])([H])[H]

>  <h>  (91) 
<NA>

>  <Training>  (91) 
True

>  <Success>  (91) 
True

>  <enamine_searched>  (91) 
False

>  <enamine_id>  (91) 
nan

$$$$

     RDKit          3D

 66 71  0  0  0  0  0  0  0  0999 V2000
   -7.4690    3.2937  -21.6963 C   0  0  0  0  0  0  0  0  0  0  0  0
   -8.3550    2.8489  -22.7529 N   0  0  0  0  0  0  0  0  0  0  0  0
   -7.7999    2.2016  -23.7965 C   0  0  0  0  0  0  0  0  0  0  0  0
   -6.5860    2.1235  -23.9390 O   0  0  0  0  0  0  0  0  0  0  0  0
   -8.7582    1.5803  -24.8202 C   0  0  0  0  0  0  0  0  0  0  0  0
   -9.4613    0.4096  -24.3287 N   0  0  0  0  0  0  0  0  0  0  0  0
   -8.7247   -0.8354  -24.1922 C   0  0  0  0  0  0  0  0  0  0  0  0
   -9.0837   -1.5716  -22.8752 C   0  0  2  0  0  0  0  0  0  0  0  0
   -8.5443   -0.7708  -21.6553 C   0  0  0  0  0  0  0  0  0  0  0  0
   -9.0270    0.2269  -21.1592 O   0  0  0  0  0  0  0  0  0  0  0  0
   -7.3982   -1.3822  -21.2041 N   0  0  0  0  0  0  0  0  0  0  0  0
   -6.6051   -0.8075  -20.1771 C   0  0  0  0  0  0  0  0  0  0  0  0
   -6.9072   -1.0421  -18.8601 C   0  0  0  0  0  0  0  0  0  0  0  0
   -6.1988   -0.5474  -17.8178 N   0  0  0  0  0  0  0  0  0  0  0  0
   -5.1651    0.2094  -18.0816 C   0  0  0  0  0  0  0  0  0  0  0  0
   -4.7280    0.5320  -19.3974 C   0  0  0  0  0  0  0  0  0  0  0  0
   -3.6020    1.3668  -19.6422 C   0  0  0  0  0  0  0  0  0  0  0  0
   -3.2182    1.6609  -20.9210 C   0  0  0  0  0  0  0  0  0  0  0  0
   -3.9430    1.1335  -22.0133 C   0  0  0  0  0  0  0  0  0  0  0  0
   -5.0344    0.3248  -21.8016 C   0  0  0  0  0  0  0  0  0  0  0  0
   -5.4638    0.0025  -20.4862 C   0  0  0  0  0  0  0  0  0  0  0  0
   -5.5948   -0.0542  -22.6515 H   0  0  0  0  0  0  0  0  0  0  0  0
   -3.6557    1.3747  -23.0306 H   0  0  0  0  0  0  0  0  0  0  0  0
   -2.3675    2.3131  -21.1012 H   0  0  0  0  0  0  0  0  0  0  0  0
   -3.0708    1.7727  -18.7847 H   0  0  0  0  0  0  0  0  0  0  0  0
   -4.6171    0.6121  -17.2292 H   0  0  0  0  0  0  0  0  0  0  0  0
   -7.7563   -1.6684  -18.5982 H   0  0  0  0  0  0  0  0  0  0  0  0
   -7.0299   -2.5753  -21.9343 C   0  0  0  0  0  0  0  0  0  0  0  0
   -8.3052   -2.9224  -22.7296 C   0  0  2  0  0  0  0  0  0  0  0  0
   -7.9947   -3.7282  -24.0182 C   0  0  0  0  0  0  0  0  0  0  0  0
   -7.4779   -5.0646  -23.7795 N   0  0  0  0  0  0  0  0  0  0  0  0
   -6.1883   -5.3892  -23.5147 C   0  0  0  0  0  0  0  0  0  0  0  0
   -5.0981   -4.6011  -23.9355 C   0  0  0  0  0  0  0  0  0  0  0  0
   -3.8413   -5.0617  -23.5908 C   0  0  0  0  0  0  0  0  0  0  0  0
   -3.6404   -6.1827  -22.8822 N   0  0  0  0  0  0  0  0  0  0  0  0
   -4.7423   -6.8529  -22.5603 C   0  0  0  0  0  0  0  0  0  0  0  0
   -6.0017   -6.5417  -22.8445 N   0  0  0  0  0  0  0  0  0  0  0  0
   -4.5854   -7.7765  -21.9886 H   0  0  0  0  0  0  0  0  0  0  0  0
   -2.9409   -4.5114  -23.8921 H   0  0  0  0  0  0  0  0  0  0  0  0
   -5.2448   -3.6909  -24.5170 H   0  0  0  0  0  0  0  0  0  0  0  0
   -8.1232   -5.7906  -23.5087 H   0  0  0  0  0  0  0  0  0  0  0  0
   -7.2735   -3.1766  -24.6387 H   0  0  0  0  0  0  0  0  0  0  0  0
   -8.9097   -3.8577  -24.6059 H   0  0  0  0  0  0  0  0  0  0  0  0
   -8.9319   -3.5615  -22.1023 H   0  0  0  0  0  0  0  0  0  0  0  0
   -6.1755   -2.3809  -22.6031 H   0  0  0  0  0  0  0  0  0  0  0  0
   -6.7273   -3.3738  -21.2492 H   0  0  0  0  0  0  0  0  0  0  0  0
  -10.6003   -1.6473  -22.7884 C   0  0  0  0  0  0  0  0  0  0  0  0
  -11.2175   -2.5586  -21.9233 C   0  0  0  0  0  0  0  0  0  0  0  0
  -12.5954   -2.5967  -21.8207 C   0  0  0  0  0  0  0  0  0  0  0  0
  -13.3469   -3.7327  -20.7397 Cl  0  0  0  0  0  0  0  0  0  0  0  0
  -13.4064   -1.7314  -22.5535 C   0  0  0  0  0  0  0  0  0  0  0  0
  -12.8054   -0.7843  -23.3568 C   0  0  0  0  0  0  0  0  0  0  0  0
  -11.4154   -0.7173  -23.4531 C   0  0  0  0  0  0  0  0  0  0  0  0
  -10.8253    0.4341  -24.2162 C   0  0  0  0  0  0  0  0  0  0  0  0
  -11.5162    1.3354  -24.6653 O   0  0  0  0  0  0  0  0  0  0  0  0
  -13.3855   -0.0544  -23.9119 H   0  0  0  0  0  0  0  0  0  0  0  0
  -14.4845   -1.7958  -22.4633 H   0  0  0  0  0  0  0  0  0  0  0  0
  -10.6351   -3.2288  -21.3026 H   0  0  0  0  0  0  0  0  0  0  0  0
   -7.6622   -0.5758  -24.1947 H   0  0  0  0  0  0  0  0  0  0  0  0
   -8.9352   -1.5002  -25.0463 H   0  0  0  0  0  0  0  0  0  0  0  0
   -9.5395    2.2805  -25.1293 H   0  0  0  0  0  0  0  0  0  0  0  0
   -8.1271    1.3277  -25.6801 H   0  0  0  0  0  0  0  0  0  0  0  0
   -9.3484    2.7711  -22.5846 H   0  0  0  0  0  0  0  0  0  0  0  0
   -6.8464    2.4602  -21.3445 H   0  0  0  0  0  0  0  0  0  0  0  0
   -8.0756    3.6743  -20.8886 H   0  0  0  0  0  0  0  0  0  0  0  0
   -6.8100    4.0913  -22.0533 H   0  0  0  0  0  0  0  0  0  0  0  0
  1  2  1  0
  2  3  1  0
  3  4  2  0
  3  5  1  0
  5  6  1  0
  6  7  1  0
  8  7  1  6
  8  9  1  0
  9 10  2  0
  9 11  1  0
 11 12  1  0
 12 13  2  0
 13 14  1  0
 14 15  2  0
 15 16  1  0
 16 17  2  0
 17 18  1  0
 18 19  2  0
 19 20  1  0
 20 21  2  0
 20 22  1  0
 19 23  1  0
 18 24  1  0
 17 25  1  0
 15 26  1  0
 13 27  1  0
 11 28  1  0
 28 29  1  0
 29 30  1  0
 30 31  1  0
 31 32  1  0
 32 33  2  0
 33 34  1  0
 34 35  2  0
 35 36  1  0
 36 37  2  0
 36 38  1  0
 34 39  1  0
 33 40  1  0
 31 41  1  0
 30 42  1  0
 30 43  1  0
 29 44  1  1
 28 45  1  0
 28 46  1  0
  8 47  1  0
 47 48  2  0
 48 49  1  0
 49 50  1  0
 49 51  2  0
 51 52  1  0
 52 53  2  0
 53 54  1  0
 54 55  2  0
 52 56  1  0
 51 57  1  0
 48 58  1  0
  7 59  1  0
  7 60  1  0
  5 61  1  0
  5 62  1  0
  2 63  1  0
  1 64  1  0
  1 65  1  0
  1 66  1  0
 54  6  1  0
 29  8  1  0
 37 32  1  0
 53 47  1  0
 21 12  1  0
 21 16  1  0
M  END
>  <cnnaffinities>  (92) 
[7.09377, 6.97937]

>  <score>  (92) 
7.09377

>  <index>  (92) 
95

>  <Smiles>  (92) 
C(N(C(=O)C(N1C([C@@]2(C(=O)N(c3c(nc(c4c(c(c(c(c34)[H])[H])[H])[H])[H])[H])C([C@@]2(C(N(c2c(c(nc(n2)[H])[H])[H])[H])([H])[H])[H])([H])[H])c2c(c(Cl)c(c(c2C1=O)[H])[H])[H])([H])[H])([H])[H])[H])([H])([H])[H]

>  <h>  (92) 
<NA>

>  <Training>  (92) 
True

>  <Success>  (92) 
True

>  <enamine_searched>  (92) 
False

>  <enamine_id>  (92) 
nan

$$$$

     RDKit          3D

 66 70  0  0  0  0  0  0  0  0999 V2000
   -7.4415    3.2931  -21.6890 C   0  0  0  0  0  0  0  0  0  0  0  0
   -8.3500    2.9009  -22.7431 N   0  0  0  0  0  0  0  0  0  0  0  0
   -7.8192    2.2420  -23.7967 C   0  0  0  0  0  0  0  0  0  0  0  0
   -6.6131    2.1315  -23.9457 O   0  0  0  0  0  0  0  0  0  0  0  0
   -8.7853    1.6436  -24.8117 C   0  0  0  0  0  0  0  0  0  0  0  0
   -9.4665    0.4627  -24.3242 N   0  0  0  0  0  0  0  0  0  0  0  0
   -8.7050   -0.7639  -24.1764 C   0  0  0  0  0  0  0  0  0  0  0  0
   -9.0683   -1.5191  -22.8767 C   0  0  2  0  0  0  0  0  0  0  0  0
   -8.5389   -0.7509  -21.6428 C   0  0  0  0  0  0  0  0  0  0  0  0
   -9.0181    0.2391  -21.1278 O   0  0  0  0  0  0  0  0  0  0  0  0
   -7.4019   -1.3792  -21.1974 N   0  0  0  0  0  0  0  0  0  0  0  0
   -6.6021   -0.8091  -20.1738 C   0  0  0  0  0  0  0  0  0  0  0  0
   -6.9122   -1.0404  -18.8569 C   0  0  0  0  0  0  0  0  0  0  0  0
   -6.2061   -0.5455  -17.8147 N   0  0  0  0  0  0  0  0  0  0  0  0
   -5.1700    0.2091  -18.0816 C   0  0  0  0  0  0  0  0  0  0  0  0
   -4.7343    0.5303  -19.3998 C   0  0  0  0  0  0  0  0  0  0  0  0
   -3.6077    1.3634  -19.6425 C   0  0  0  0  0  0  0  0  0  0  0  0
   -3.2209    1.6577  -20.9224 C   0  0  0  0  0  0  0  0  0  0  0  0
   -3.9456    1.1348  -22.0178 C   0  0  0  0  0  0  0  0  0  0  0  0
   -5.0395    0.3270  -21.8079 C   0  0  0  0  0  0  0  0  0  0  0  0
   -5.4661    0.0026  -20.4895 C   0  0  0  0  0  0  0  0  0  0  0  0
   -5.5984   -0.0446  -22.6619 H   0  0  0  0  0  0  0  0  0  0  0  0
   -3.6559    1.3791  -23.0350 H   0  0  0  0  0  0  0  0  0  0  0  0
   -2.3685    2.3089  -21.1000 H   0  0  0  0  0  0  0  0  0  0  0  0
   -3.0744    1.7644  -18.7848 H   0  0  0  0  0  0  0  0  0  0  0  0
   -4.6131    0.6070  -17.2330 H   0  0  0  0  0  0  0  0  0  0  0  0
   -7.7699   -1.6607  -18.6035 H   0  0  0  0  0  0  0  0  0  0  0  0
   -7.0421   -2.5683  -21.9431 C   0  0  0  0  0  0  0  0  0  0  0  0
   -8.3040   -2.8752  -22.7690 C   0  0  2  0  0  0  0  0  0  0  0  0
   -7.9721   -3.6134  -24.0738 C   0  0  0  0  0  0  0  0  0  0  0  0
   -9.1146   -3.9439  -24.8314 O   0  0  0  0  0  0  0  0  0  0  0  0
   -9.6955   -5.2129  -24.5490 C   0  0  0  0  0  0  0  0  0  0  0  0
  -11.1896   -5.0660  -24.7530 C   0  0  0  0  0  0  0  0  0  0  0  0
  -11.6929   -6.0166  -24.5534 H   0  0  0  0  0  0  0  0  0  0  0  0
  -11.5963   -4.3023  -24.0841 H   0  0  0  0  0  0  0  0  0  0  0  0
  -11.3993   -4.7585  -25.7805 H   0  0  0  0  0  0  0  0  0  0  0  0
   -9.0745   -6.3011  -25.4175 C   0  0  0  0  0  0  0  0  0  0  0  0
   -9.5085   -7.2752  -25.1824 H   0  0  0  0  0  0  0  0  0  0  0  0
   -7.9978   -6.3841  -25.2542 H   0  0  0  0  0  0  0  0  0  0  0  0
   -9.2347   -6.1127  -26.4767 H   0  0  0  0  0  0  0  0  0  0  0  0
   -9.5019   -5.4566  -23.4964 H   0  0  0  0  0  0  0  0  0  0  0  0
   -7.3948   -4.5217  -23.8468 H   0  0  0  0  0  0  0  0  0  0  0  0
   -7.3378   -2.9810  -24.7086 H   0  0  0  0  0  0  0  0  0  0  0  0
   -8.9541   -3.5319  -22.1876 H   0  0  0  0  0  0  0  0  0  0  0  0
   -6.1749   -2.3740  -22.5917 H   0  0  0  0  0  0  0  0  0  0  0  0
   -6.7698   -3.3824  -21.2629 H   0  0  0  0  0  0  0  0  0  0  0  0
  -10.5822   -1.6139  -22.8121 C   0  0  0  0  0  0  0  0  0  0  0  0
  -11.1898   -2.5300  -21.9445 C   0  0  0  0  0  0  0  0  0  0  0  0
  -12.5683   -2.5799  -21.8430 C   0  0  0  0  0  0  0  0  0  0  0  0
  -13.3071   -3.7131  -20.7418 Cl  0  0  0  0  0  0  0  0  0  0  0  0
  -13.3858   -1.7334  -22.5946 C   0  0  0  0  0  0  0  0  0  0  0  0
  -12.7982   -0.7851  -23.4105 C   0  0  0  0  0  0  0  0  0  0  0  0
  -11.4083   -0.7046  -23.4909 C   0  0  0  0  0  0  0  0  0  0  0  0
  -10.8319    0.4553  -24.2437 C   0  0  0  0  0  0  0  0  0  0  0  0
  -11.5396    1.3426  -24.7081 O   0  0  0  0  0  0  0  0  0  0  0  0
  -13.3776   -0.0617  -23.9810 H   0  0  0  0  0  0  0  0  0  0  0  0
  -14.4623   -1.8109  -22.5036 H   0  0  0  0  0  0  0  0  0  0  0  0
  -10.5929   -3.1767  -21.3111 H   0  0  0  0  0  0  0  0  0  0  0  0
   -8.9080   -1.4389  -25.0201 H   0  0  0  0  0  0  0  0  0  0  0  0
   -7.6461   -0.4896  -24.1681 H   0  0  0  0  0  0  0  0  0  0  0  0
   -9.5829    2.3409  -25.0714 H   0  0  0  0  0  0  0  0  0  0  0  0
   -8.1713    1.4044  -25.6870 H   0  0  0  0  0  0  0  0  0  0  0  0
   -9.3243    2.7833  -22.5211 H   0  0  0  0  0  0  0  0  0  0  0  0
   -6.7984    2.4540  -21.4174 H   0  0  0  0  0  0  0  0  0  0  0  0
   -6.7968    4.1021  -22.0274 H   0  0  0  0  0  0  0  0  0  0  0  0
   -8.0154    3.6021  -20.8286 H   0  0  0  0  0  0  0  0  0  0  0  0
  1  2  1  0
  2  3  1  0
  3  4  2  0
  3  5  1  0
  5  6  1  0
  6  7  1  0
  8  7  1  6
  8  9  1  0
  9 10  2  0
  9 11  1  0
 11 12  1  0
 12 13  2  0
 13 14  1  0
 14 15  2  0
 15 16  1  0
 16 17  2  0
 17 18  1  0
 18 19  2  0
 19 20  1  0
 20 21  2  0
 20 22  1  0
 19 23  1  0
 18 24  1  0
 17 25  1  0
 15 26  1  0
 13 27  1  0
 11 28  1  0
 28 29  1  0
 29 30  1  0
 30 31  1  0
 31 32  1  0
 32 33  1  0
 33 34  1  0
 33 35  1  0
 33 36  1  0
 32 37  1  0
 37 38  1  0
 37 39  1  0
 37 40  1  0
 32 41  1  0
 30 42  1  0
 30 43  1  0
 29 44  1  1
 28 45  1  0
 28 46  1  0
  8 47  1  0
 47 48  2  0
 48 49  1  0
 49 50  1  0
 49 51  2  0
 51 52  1  0
 52 53  2  0
 53 54  1  0
 54 55  2  0
 52 56  1  0
 51 57  1  0
 48 58  1  0
  7 59  1  0
  7 60  1  0
  5 61  1  0
  5 62  1  0
  2 63  1  0
  1 64  1  0
  1 65  1  0
  1 66  1  0
 54  6  1  0
 29  8  1  0
 53 47  1  0
 21 12  1  0
 21 16  1  0
M  END
>  <cnnaffinities>  (93) 
[6.48436, 6.39103, 6.35693, 6.37782, 6.61472]

>  <score>  (93) 
6.48436

>  <index>  (93) 
96

>  <Smiles>  (93) 
C(N(C(=O)C(N1C([C@@]2(C(=O)N(c3c(nc(c4c(c(c(c(c34)[H])[H])[H])[H])[H])[H])C([C@@]2(C(OC(C([H])([H])[H])(C([H])([H])[H])[H])([H])[H])[H])([H])[H])c2c(c(Cl)c(c(c2C1=O)[H])[H])[H])([H])[H])([H])[H])[H])([H])([H])[H]

>  <h>  (93) 
<NA>

>  <Training>  (93) 
True

>  <Success>  (93) 
True

>  <enamine_searched>  (93) 
False

>  <enamine_id>  (93) 
nan

$$$$

     RDKit          3D

 40 43  0  0  0  0  0  0  0  0999 V2000
  -12.7118   -3.6745  -21.1548 C   0  0  0  0  0  0  0  0  0  0  0  0
  -11.5972   -2.7429  -21.6512 C   0  0  2  0  0  0  0  0  0  0  0  0
  -12.0226   -2.2298  -23.0197 C   0  0  0  0  0  0  0  0  0  0  0  0
  -11.1079   -1.3033  -23.5511 O   0  0  0  0  0  0  0  0  0  0  0  0
   -9.8396   -1.8654  -23.7613 C   0  0  0  0  0  0  0  0  0  0  0  0
   -9.1913   -2.3630  -22.4639 C   0  0  1  0  0  0  0  0  0  0  0  0
  -10.1828   -3.3289  -21.7599 C   0  0  0  0  0  0  0  0  0  0  0  0
  -10.1917   -4.2606  -22.3473 H   0  0  0  0  0  0  0  0  0  0  0  0
   -9.7576   -3.5813  -20.7834 H   0  0  0  0  0  0  0  0  0  0  0  0
   -7.9300   -3.0076  -22.7654 N   0  0  0  0  0  0  0  0  0  0  0  0
   -6.8759   -2.5924  -22.0024 C   0  0  0  0  0  0  0  0  0  0  0  0
   -5.7483   -3.0271  -21.9819 O   0  0  0  0  0  0  0  0  0  0  0  0
   -7.3620   -1.5103  -21.2440 N   0  0  0  0  0  0  0  0  0  0  0  0
   -6.6019   -0.8742  -20.2230 C   0  0  0  0  0  0  0  0  0  0  0  0
   -6.9371   -1.0684  -18.9067 C   0  0  0  0  0  0  0  0  0  0  0  0
   -6.2520   -0.5516  -17.8607 N   0  0  0  0  0  0  0  0  0  0  0  0
   -5.2087    0.1879  -18.1263 C   0  0  0  0  0  0  0  0  0  0  0  0
   -4.7602    0.4809  -19.4404 C   0  0  0  0  0  0  0  0  0  0  0  0
   -3.6393    1.3216  -19.6514 C   0  0  0  0  0  0  0  0  0  0  0  0
   -3.2489    1.6342  -20.9217 C   0  0  0  0  0  0  0  0  0  0  0  0
   -3.9619    1.1189  -22.0268 C   0  0  0  0  0  0  0  0  0  0  0  0
   -5.0476    0.2965  -21.8480 C   0  0  0  0  0  0  0  0  0  0  0  0
   -5.4729   -0.0533  -20.5357 C   0  0  0  0  0  0  0  0  0  0  0  0
   -5.5884   -0.0777  -22.7115 H   0  0  0  0  0  0  0  0  0  0  0  0
   -3.6553    1.3898  -23.0320 H   0  0  0  0  0  0  0  0  0  0  0  0
   -2.4052    2.2977  -21.0876 H   0  0  0  0  0  0  0  0  0  0  0  0
   -3.1277    1.7213  -18.7803 H   0  0  0  0  0  0  0  0  0  0  0  0
   -4.6633    0.6069  -17.2803 H   0  0  0  0  0  0  0  0  0  0  0  0
   -7.7966   -1.6793  -18.6485 H   0  0  0  0  0  0  0  0  0  0  0  0
   -8.7006   -1.2332  -21.5374 C   0  0  0  0  0  0  0  0  0  0  0  0
   -9.3210   -0.2823  -21.1237 O   0  0  0  0  0  0  0  0  0  0  0  0
   -7.8831   -3.8620  -23.2976 H   0  0  0  0  0  0  0  0  0  0  0  0
   -9.2186   -1.0996  -24.2295 H   0  0  0  0  0  0  0  0  0  0  0  0
   -9.8879   -2.7285  -24.4488 H   0  0  0  0  0  0  0  0  0  0  0  0
  -12.9774   -1.6982  -22.9315 H   0  0  0  0  0  0  0  0  0  0  0  0
  -12.1466   -3.1063  -23.6941 H   0  0  0  0  0  0  0  0  0  0  0  0
  -11.5299   -1.8941  -20.9735 H   0  0  0  0  0  0  0  0  0  0  0  0
  -12.4721   -4.2391  -20.2503 H   0  0  0  0  0  0  0  0  0  0  0  0
  -12.9776   -4.4018  -21.9318 H   0  0  0  0  0  0  0  0  0  0  0  0
  -13.5992   -3.0707  -20.9213 H   0  0  0  0  0  0  0  0  0  0  0  0
  1  2  1  0
  2  3  1  0
  3  4  1  0
  4  5  1  0
  5  6  1  0
  6  7  1  0
  7  8  1  0
  7  9  1  0
  6 10  1  6
 10 11  1  0
 11 12  2  0
 11 13  1  0
 13 14  1  0
 14 15  2  0
 15 16  1  0
 16 17  2  0
 17 18  1  0
 18 19  2  0
 19 20  1  0
 20 21  2  0
 21 22  1  0
 22 23  2  0
 22 24  1  0
 21 25  1  0
 20 26  1  0
 19 27  1  0
 17 28  1  0
 15 29  1  0
 13 30  1  0
 30 31  2  0
 10 32  1  0
  5 33  1  0
  5 34  1  0
  3 35  1  0
  3 36  1  0
  2 37  1  1
  1 38  1  0
  1 39  1  0
  1 40  1  0
  7  2  1  0
 23 14  1  0
 30  6  1  0
 23 18  1  0
M  END
>  <cnnaffinities>  (94) 
[5.4245, 5.31039]

>  <score>  (94) 
5.4245

>  <index>  (94) 
97

>  <Smiles>  (94) 
C([C@@]1(C(OC([C@@]2(C1([H])[H])N(C(=O)N(c1c(nc(c3c(c(c(c(c13)[H])[H])[H])[H])[H])[H])C2=O)[H])([H])[H])([H])[H])[H])([H])([H])[H]

>  <h>  (94) 
<NA>

>  <Training>  (94) 
True

>  <Success>  (94) 
True

>  <enamine_searched>  (94) 
False

>  <enamine_id>  (94) 
nan

$$$$
