
     RDKit          3D

 66 71  0  0  0  0  0  0  0  0999 V2000
   -7.3546    3.4430  -21.9155 C   0  0  0  0  0  0  0  0  0  0  0  0
   -8.2203    2.9702  -22.9874 N   0  0  0  0  0  0  0  0  0  0  0  0
   -7.6443    2.2259  -23.9794 C   0  0  0  0  0  0  0  0  0  0  0  0
   -6.4399    2.0494  -24.0726 O   0  0  0  0  0  0  0  0  0  0  0  0
   -8.6190    1.6190  -24.9889 C   0  0  0  0  0  0  0  0  0  0  0  0
   -9.3200    0.4916  -24.4157 N   0  0  0  0  0  0  0  0  0  0  0  0
   -8.5829   -0.7472  -24.2389 C   0  0  0  0  0  0  0  0  0  0  0  0
   -9.0099   -1.4809  -22.9491 C   0  0  2  0  0  0  0  0  0  0  0  0
   -8.4825   -0.7166  -21.7154 C   0  0  0  0  0  0  0  0  0  0  0  0
   -8.9172    0.3204  -21.2470 O   0  0  0  0  0  0  0  0  0  0  0  0
   -7.3976   -1.3911  -21.2131 N   0  0  0  0  0  0  0  0  0  0  0  0
   -6.6163   -0.8042  -20.1845 C   0  0  0  0  0  0  0  0  0  0  0  0
   -6.9322   -1.0510  -18.8742 C   0  0  0  0  0  0  0  0  0  0  0  0
   -6.2387   -0.5709  -17.8133 N   0  0  0  0  0  0  0  0  0  0  0  0
   -5.2111    0.2037  -18.0707 C   0  0  0  0  0  0  0  0  0  0  0  0
   -4.7945    0.5709  -19.3831 C   0  0  0  0  0  0  0  0  0  0  0  0
   -3.6570    1.3900  -19.6129 C   0  0  0  0  0  0  0  0  0  0  0  0
   -3.3057    1.7524  -20.8848 C   0  0  0  0  0  0  0  0  0  0  0  0
   -4.0822    1.3322  -21.9863 C   0  0  0  0  0  0  0  0  0  0  0  0
   -5.1663    0.5045  -21.7948 C   0  0  0  0  0  0  0  0  0  0  0  0
   -5.5358    0.0818  -20.4858 C   0  0  0  0  0  0  0  0  0  0  0  0
   -5.7420    0.1776  -22.6566 H   0  0  0  0  0  0  0  0  0  0  0  0
   -3.8272    1.6602  -22.9908 H   0  0  0  0  0  0  0  0  0  0  0  0
   -2.4218    2.3603  -21.0514 H   0  0  0  0  0  0  0  0  0  0  0  0
   -3.0855    1.7219  -18.7502 H   0  0  0  0  0  0  0  0  0  0  0  0
   -4.6349    0.5720  -17.2208 H   0  0  0  0  0  0  0  0  0  0  0  0
   -7.7919   -1.6762  -18.6455 H   0  0  0  0  0  0  0  0  0  0  0  0
   -7.0610   -2.5997  -21.9424 C   0  0  0  0  0  0  0  0  0  0  0  0
   -8.3007   -2.8638  -22.8133 C   0  0  2  0  0  0  0  0  0  0  0  0
   -7.9261   -3.6206  -24.0938 C   0  0  0  0  0  0  0  0  0  0  0  0
   -9.0885   -3.9630  -24.8827 N   0  0  0  0  0  0  0  0  0  0  0  0
   -8.9845   -4.5898  -26.0852 C   0  0  0  0  0  0  0  0  0  0  0  0
  -10.1295   -4.9097  -26.8406 C   0  0  0  0  0  0  0  0  0  0  0  0
   -9.9265   -5.5287  -28.0507 C   0  0  0  0  0  0  0  0  0  0  0  0
   -8.7117   -5.8383  -28.5328 N   0  0  0  0  0  0  0  0  0  0  0  0
   -7.7089   -5.4994  -27.7363 C   0  0  0  0  0  0  0  0  0  0  0  0
   -7.7615   -4.8916  -26.5455 N   0  0  0  0  0  0  0  0  0  0  0  0
   -6.7050   -5.7440  -28.0948 H   0  0  0  0  0  0  0  0  0  0  0  0
  -10.7698   -5.8001  -28.6842 H   0  0  0  0  0  0  0  0  0  0  0  0
  -11.1283   -4.6818  -26.4856 H   0  0  0  0  0  0  0  0  0  0  0  0
  -10.0084   -3.7482  -24.5282 H   0  0  0  0  0  0  0  0  0  0  0  0
   -7.3926   -4.5455  -23.8373 H   0  0  0  0  0  0  0  0  0  0  0  0
   -7.2396   -3.0289  -24.7175 H   0  0  0  0  0  0  0  0  0  0  0  0
   -8.9779   -3.5180  -22.2547 H   0  0  0  0  0  0  0  0  0  0  0  0
   -6.8590   -3.4283  -21.2562 H   0  0  0  0  0  0  0  0  0  0  0  0
   -6.1667   -2.4591  -22.5695 H   0  0  0  0  0  0  0  0  0  0  0  0
  -10.5222   -1.5229  -22.8941 C   0  0  0  0  0  0  0  0  0  0  0  0
  -11.1605   -2.4041  -22.0183 C   0  0  0  0  0  0  0  0  0  0  0  0
  -12.5373   -2.3969  -21.9131 C   0  0  0  0  0  0  0  0  0  0  0  0
  -13.2828   -3.4583  -20.7590 Cl  0  0  0  0  0  0  0  0  0  0  0  0
  -13.3299   -1.5316  -22.6661 C   0  0  0  0  0  0  0  0  0  0  0  0
  -12.7003   -0.6247  -23.4941 C   0  0  0  0  0  0  0  0  0  0  0  0
  -11.3115   -0.5965  -23.5856 C   0  0  0  0  0  0  0  0  0  0  0  0
  -10.6873    0.5140  -24.3665 C   0  0  0  0  0  0  0  0  0  0  0  0
  -11.3529    1.4017  -24.8810 O   0  0  0  0  0  0  0  0  0  0  0  0
  -13.2531    0.1023  -24.0751 H   0  0  0  0  0  0  0  0  0  0  0  0
  -14.4105   -1.5698  -22.5828 H   0  0  0  0  0  0  0  0  0  0  0  0
  -10.5960   -3.0731  -21.3785 H   0  0  0  0  0  0  0  0  0  0  0  0
   -8.7582   -1.4138  -25.0927 H   0  0  0  0  0  0  0  0  0  0  0  0
   -7.5119   -0.5179  -24.2056 H   0  0  0  0  0  0  0  0  0  0  0  0
   -8.0440    1.3003  -25.8654 H   0  0  0  0  0  0  0  0  0  0  0  0
   -9.3795    2.3443  -25.2913 H   0  0  0  0  0  0  0  0  0  0  0  0
   -9.1795    2.7585  -22.7370 H   0  0  0  0  0  0  0  0  0  0  0  0
   -7.9419    4.0046  -21.1840 H   0  0  0  0  0  0  0  0  0  0  0  0
   -6.5943    4.1136  -22.3269 H   0  0  0  0  0  0  0  0  0  0  0  0
   -6.8474    2.5974  -21.4250 H   0  0  0  0  0  0  0  0  0  0  0  0
  1  2  1  0
  2  3  1  0
  3  4  2  0
  3  5  1  0
  5  6  1  0
  6  7  1  0
  8  7  1  6
  8  9  1  0
  9 10  2  0
  9 11  1  0
 11 12  1  0
 12 13  2  0
 13 14  1  0
 14 15  2  0
 15 16  1  0
 16 17  2  0
 17 18  1  0
 18 19  2  0
 19 20  1  0
 20 21  2  0
 20 22  1  0
 19 23  1  0
 18 24  1  0
 17 25  1  0
 15 26  1  0
 13 27  1  0
 11 28  1  0
 28 29  1  0
 29 30  1  0
 30 31  1  0
 31 32  1  0
 32 33  2  0
 33 34  1  0
 34 35  2  0
 35 36  1  0
 36 37  2  0
 36 38  1  0
 34 39  1  0
 33 40  1  0
 31 41  1  0
 30 42  1  0
 30 43  1  0
 29 44  1  1
 28 45  1  0
 28 46  1  0
  8 47  1  0
 47 48  2  0
 48 49  1  0
 49 50  1  0
 49 51  2  0
 51 52  1  0
 52 53  2  0
 53 54  1  0
 54 55  2  0
 52 56  1  0
 51 57  1  0
 48 58  1  0
  7 59  1  0
  7 60  1  0
  5 61  1  0
  5 62  1  0
  2 63  1  0
  1 64  1  0
  1 65  1  0
  1 66  1  0
 54  6  1  0
 29  8  1  0
 37 32  1  0
 53 47  1  0
 21 12  1  0
 21 16  1  0
M  END
>  <cnnaffinities>  (1) 
[5.73881]

>  <score>  (1) 
5.73881

>  <index>  (1) 
0

>  <Smiles>  (1) 
C(N(C(=O)C(N1C([C@@]2(C(=O)N(c3c(nc(c4c(c(c(c(c34)[H])[H])[H])[H])[H])[H])C([C@@]2(C(N(c2c(c(nc(n2)[H])[H])[H])[H])([H])[H])[H])([H])[H])c2c(c(Cl)c(c(c2C1=O)[H])[H])[H])([H])[H])([H])[H])[H])([H])([H])[H]

>  <h>  (1) 
<NA>

>  <Training>  (1) 
True

>  <Success>  (1) 
True

>  <enamine_searched>  (1) 
False

>  <enamine_id>  (1) 
nan

$$$$

     RDKit          3D

 68 73  0  0  0  0  0  0  0  0999 V2000
   -7.3284    3.4980  -22.0050 C   0  0  0  0  0  0  0  0  0  0  0  0
   -8.3142    2.9362  -22.9139 N   0  0  0  0  0  0  0  0  0  0  0  0
   -7.8853    2.2321  -23.9999 C   0  0  0  0  0  0  0  0  0  0  0  0
   -6.7008    2.0801  -24.2630 O   0  0  0  0  0  0  0  0  0  0  0  0
   -8.9973    1.6504  -24.8863 C   0  0  0  0  0  0  0  0  0  0  0  0
   -9.6007    0.4827  -24.2592 N   0  0  0  0  0  0  0  0  0  0  0  0
   -8.7665   -0.6933  -24.0674 C   0  0  0  0  0  0  0  0  0  0  0  0
   -9.1132   -1.4757  -22.7638 C   0  0  2  0  0  0  0  0  0  0  0  0
   -8.6138   -0.6585  -21.5517 C   0  0  0  0  0  0  0  0  0  0  0  0
   -9.1155    0.3410  -21.0805 O   0  0  0  0  0  0  0  0  0  0  0  0
   -7.4500   -1.2235  -21.0900 N   0  0  0  0  0  0  0  0  0  0  0  0
   -6.6688   -0.6542  -20.0703 C   0  0  0  0  0  0  0  0  0  0  0  0
   -6.9271   -0.9735  -18.7665 C   0  0  0  0  0  0  0  0  0  0  0  0
   -6.1833   -0.5373  -17.7248 N   0  0  0  0  0  0  0  0  0  0  0  0
   -5.1512    0.2280  -17.9957 C   0  0  0  0  0  0  0  0  0  0  0  0
   -4.7615    0.6106  -19.3140 C   0  0  0  0  0  0  0  0  0  0  0  0
   -3.6339    1.4359  -19.5749 C   0  0  0  0  0  0  0  0  0  0  0  0
   -3.3450    1.8355  -20.8531 C   0  0  0  0  0  0  0  0  0  0  0  0
   -4.1708    1.4428  -21.9334 C   0  0  0  0  0  0  0  0  0  0  0  0
   -5.2562    0.6293  -21.7088 C   0  0  0  0  0  0  0  0  0  0  0  0
   -5.5615    0.1789  -20.3937 C   0  0  0  0  0  0  0  0  0  0  0  0
   -5.9206    0.3810  -22.5324 H   0  0  0  0  0  0  0  0  0  0  0  0
   -3.9671    1.8006  -22.9400 H   0  0  0  0  0  0  0  0  0  0  0  0
   -2.4889    2.4766  -21.0461 H   0  0  0  0  0  0  0  0  0  0  0  0
   -3.0381    1.7702  -18.7288 H   0  0  0  0  0  0  0  0  0  0  0  0
   -4.5670    0.5930  -17.1497 H   0  0  0  0  0  0  0  0  0  0  0  0
   -7.7621   -1.6310  -18.5299 H   0  0  0  0  0  0  0  0  0  0  0  0
   -6.9879   -2.3639  -21.8294 C   0  0  0  0  0  0  0  0  0  0  0  0
   -8.2422   -2.7683  -22.6114 C   0  0  2  0  0  0  0  0  0  0  0  0
   -7.8830   -3.4879  -23.8950 C   0  0  0  0  0  0  0  0  0  0  0  0
   -9.0771   -3.9831  -24.5304 N   0  0  0  0  0  0  0  0  0  0  0  0
   -8.9702   -4.4873  -25.8113 C   0  0  0  0  0  0  0  0  0  0  0  0
   -7.7775   -4.7755  -26.5221 C   0  0  0  0  0  0  0  0  0  0  0  0
   -8.0409   -5.3139  -27.7081 N   0  0  0  0  0  0  0  0  0  0  0  0
   -9.3684   -5.3894  -27.7571 N   0  0  0  0  0  0  0  0  0  0  0  0
  -10.0442   -5.9054  -28.9069 C   0  0  0  0  0  0  0  0  0  0  0  0
  -10.8062   -5.1807  -29.1975 H   0  0  0  0  0  0  0  0  0  0  0  0
  -10.5220   -6.8676  -28.6937 H   0  0  0  0  0  0  0  0  0  0  0  0
   -9.3030   -6.0216  -29.6955 H   0  0  0  0  0  0  0  0  0  0  0  0
   -9.9846   -4.9027  -26.6528 C   0  0  0  0  0  0  0  0  0  0  0  0
  -11.0676   -4.9162  -26.5765 H   0  0  0  0  0  0  0  0  0  0  0  0
   -6.7524   -4.6329  -26.1963 H   0  0  0  0  0  0  0  0  0  0  0  0
   -9.9585   -3.5274  -24.3154 H   0  0  0  0  0  0  0  0  0  0  0  0
   -7.3000   -2.8107  -24.5495 H   0  0  0  0  0  0  0  0  0  0  0  0
   -7.2148   -4.3389  -23.7009 H   0  0  0  0  0  0  0  0  0  0  0  0
   -8.8038   -3.4688  -21.9856 H   0  0  0  0  0  0  0  0  0  0  0  0
   -6.1367   -2.1126  -22.4867 H   0  0  0  0  0  0  0  0  0  0  0  0
   -6.6442   -3.1518  -21.1488 H   0  0  0  0  0  0  0  0  0  0  0  0
  -10.6245   -1.6666  -22.6975 C   0  0  0  0  0  0  0  0  0  0  0  0
  -11.2111   -2.6579  -21.8937 C   0  0  0  0  0  0  0  0  0  0  0  0
  -12.5867   -2.7028  -21.7322 C   0  0  0  0  0  0  0  0  0  0  0  0
  -13.2912   -3.8531  -20.6365 Cl  0  0  0  0  0  0  0  0  0  0  0  0
  -13.4294   -1.8059  -22.3822 C   0  0  0  0  0  0  0  0  0  0  0  0
  -12.8635   -0.8309  -23.1736 C   0  0  0  0  0  0  0  0  0  0  0  0
  -11.4809   -0.7403  -23.3192 C   0  0  0  0  0  0  0  0  0  0  0  0
  -10.9595    0.4244  -24.1136 C   0  0  0  0  0  0  0  0  0  0  0  0
  -11.7062    1.2823  -24.5675 O   0  0  0  0  0  0  0  0  0  0  0  0
  -13.4780   -0.1093  -23.6964 H   0  0  0  0  0  0  0  0  0  0  0  0
  -14.5037   -1.8728  -22.2578 H   0  0  0  0  0  0  0  0  0  0  0  0
  -10.6204   -3.3889  -21.3514 H   0  0  0  0  0  0  0  0  0  0  0  0
   -7.7291   -0.3519  -24.0116 H   0  0  0  0  0  0  0  0  0  0  0  0
   -8.8621   -1.3418  -24.9498 H   0  0  0  0  0  0  0  0  0  0  0  0
   -9.8105    2.3676  -25.0544 H   0  0  0  0  0  0  0  0  0  0  0  0
   -8.5474    1.4114  -25.8594 H   0  0  0  0  0  0  0  0  0  0  0  0
   -9.2522    2.8029  -22.5494 H   0  0  0  0  0  0  0  0  0  0  0  0
   -6.5362    3.9683  -22.5952 H   0  0  0  0  0  0  0  0  0  0  0  0
   -7.8148    4.2447  -21.3715 H   0  0  0  0  0  0  0  0  0  0  0  0
   -6.8560    2.7283  -21.3760 H   0  0  0  0  0  0  0  0  0  0  0  0
  1  2  1  0
  2  3  1  0
  3  4  2  0
  3  5  1  0
  5  6  1  0
  6  7  1  0
  8  7  1  6
  8  9  1  0
  9 10  2  0
  9 11  1  0
 11 12  1  0
 12 13  2  0
 13 14  1  0
 14 15  2  0
 15 16  1  0
 16 17  2  0
 17 18  1  0
 18 19  2  0
 19 20  1  0
 20 21  2  0
 20 22  1  0
 19 23  1  0
 18 24  1  0
 17 25  1  0
 15 26  1  0
 13 27  1  0
 11 28  1  0
 28 29  1  0
 29 30  1  0
 30 31  1  0
 31 32  1  0
 32 33  1  0
 33 34  2  0
 34 35  1  0
 35 36  1  0
 36 37  1  0
 36 38  1  0
 36 39  1  0
 35 40  1  0
 40 41  1  0
 33 42  1  0
 31 43  1  0
 30 44  1  0
 30 45  1  0
 29 46  1  1
 28 47  1  0
 28 48  1  0
  8 49  1  0
 49 50  2  0
 50 51  1  0
 51 52  1  0
 51 53  2  0
 53 54  1  0
 54 55  2  0
 55 56  1  0
 56 57  2  0
 54 58  1  0
 53 59  1  0
 50 60  1  0
  7 61  1  0
  7 62  1  0
  5 63  1  0
  5 64  1  0
  2 65  1  0
  1 66  1  0
  1 67  1  0
  1 68  1  0
 56  6  1  0
 29  8  1  0
 40 32  2  0
 55 49  1  0
 21 12  1  0
 21 16  1  0
M  END
>  <cnnaffinities>  (2) 
[6.12875]

>  <score>  (2) 
6.12875

>  <index>  (2) 
1

>  <Smiles>  (2) 
C(N(C(=O)C(N1C([C@@]2(C(=O)N(c3c(nc(c4c(c(c(c(c34)[H])[H])[H])[H])[H])[H])C([C@@]2(C(N(c2c(nn(C([H])([H])[H])c2[H])[H])[H])([H])[H])[H])([H])[H])c2c(c(Cl)c(c(c2C1=O)[H])[H])[H])([H])[H])([H])[H])[H])([H])([H])[H]

>  <h>  (2) 
<NA>

>  <Training>  (2) 
True

>  <Success>  (2) 
True

>  <enamine_searched>  (2) 
False

>  <enamine_id>  (2) 
nan

$$$$

     RDKit          3D

 60 65  0  0  0  0  0  0  0  0999 V2000
   -6.3305    1.0728  -30.6297 C   0  0  0  0  0  0  0  0  0  0  0  0
   -6.6991    1.2275  -29.1772 C   0  0  0  0  0  0  0  0  0  0  0  0
   -6.0611    0.4876  -28.1800 C   0  0  0  0  0  0  0  0  0  0  0  0
   -6.3739    0.5842  -26.8908 N   0  0  0  0  0  0  0  0  0  0  0  0
   -7.3693    1.4178  -26.5731 C   0  0  0  0  0  0  0  0  0  0  0  0
   -7.7752    1.5283  -25.1236 C   0  0  0  0  0  0  0  0  0  0  0  0
   -8.7273    0.5307  -24.6813 N   0  0  0  0  0  0  0  0  0  0  0  0
   -8.2604   -0.8086  -24.4081 C   0  0  0  0  0  0  0  0  0  0  0  0
   -8.8744   -1.3420  -23.0946 C   0  0  2  0  0  0  0  0  0  0  0  0
   -8.2996   -0.5383  -21.8986 C   0  0  0  0  0  0  0  0  0  0  0  0
   -8.5195    0.6149  -21.6104 O   0  0  0  0  0  0  0  0  0  0  0  0
   -7.4358   -1.3472  -21.1943 N   0  0  0  0  0  0  0  0  0  0  0  0
   -6.6206   -0.7886  -20.1731 C   0  0  0  0  0  0  0  0  0  0  0  0
   -6.9019   -1.0519  -18.8589 C   0  0  0  0  0  0  0  0  0  0  0  0
   -6.1931   -0.5654  -17.8093 N   0  0  0  0  0  0  0  0  0  0  0  0
   -5.1639    0.2020  -18.0752 C   0  0  0  0  0  0  0  0  0  0  0  0
   -4.7482    0.5521  -19.3910 C   0  0  0  0  0  0  0  0  0  0  0  0
   -3.6147    1.3789  -19.6241 C   0  0  0  0  0  0  0  0  0  0  0  0
   -3.2490    1.7129  -20.8982 C   0  0  0  0  0  0  0  0  0  0  0  0
   -4.0075    1.2433  -21.9936 C   0  0  0  0  0  0  0  0  0  0  0  0
   -5.0999    0.4308  -21.7928 C   0  0  0  0  0  0  0  0  0  0  0  0
   -5.5103    0.0688  -20.4787 C   0  0  0  0  0  0  0  0  0  0  0  0
   -5.5990   -0.0289  -22.6435 H   0  0  0  0  0  0  0  0  0  0  0  0
   -3.6616    1.4483  -23.0029 H   0  0  0  0  0  0  0  0  0  0  0  0
   -2.3538    2.2993  -21.0836 H   0  0  0  0  0  0  0  0  0  0  0  0
   -3.0623    1.7482  -18.7629 H   0  0  0  0  0  0  0  0  0  0  0  0
   -4.6198    0.6077  -17.2227 H   0  0  0  0  0  0  0  0  0  0  0  0
   -7.7495   -1.6803  -18.5934 H   0  0  0  0  0  0  0  0  0  0  0  0
   -7.2298   -2.6526  -21.7933 C   0  0  0  0  0  0  0  0  0  0  0  0
   -8.4078   -2.8012  -22.7824 C   0  0  2  0  0  0  0  0  0  0  0  0
   -8.0454   -3.6947  -23.9794 C   0  0  0  0  0  0  0  0  0  0  0  0
   -7.1714   -3.3034  -24.5168 H   0  0  0  0  0  0  0  0  0  0  0  0
   -8.8672   -3.7744  -24.7011 H   0  0  0  0  0  0  0  0  0  0  0  0
   -7.7945   -4.7106  -23.6486 H   0  0  0  0  0  0  0  0  0  0  0  0
   -9.2369   -3.2708  -22.2468 H   0  0  0  0  0  0  0  0  0  0  0  0
   -6.2646   -2.7115  -22.3230 H   0  0  0  0  0  0  0  0  0  0  0  0
   -7.2204   -3.4262  -21.0199 H   0  0  0  0  0  0  0  0  0  0  0  0
  -10.3779   -1.1255  -23.1680 C   0  0  0  0  0  0  0  0  0  0  0  0
  -11.2296   -1.8032  -22.2880 C   0  0  0  0  0  0  0  0  0  0  0  0
  -12.5875   -1.5758  -22.3516 C   0  0  0  0  0  0  0  0  0  0  0  0
  -13.3960   -2.2409  -21.5110 F   0  0  0  0  0  0  0  0  0  0  0  0
  -13.1573   -0.6761  -23.2437 C   0  0  0  0  0  0  0  0  0  0  0  0
  -12.3165    0.0430  -24.0685 C   0  0  0  0  0  0  0  0  0  0  0  0
  -10.9359   -0.1464  -24.0079 C   0  0  0  0  0  0  0  0  0  0  0  0
  -10.0625    0.7876  -24.7875 C   0  0  0  0  0  0  0  0  0  0  0  0
  -10.4944    1.7293  -25.4390 O   0  0  0  0  0  0  0  0  0  0  0  0
  -12.6921    0.7893  -24.7589 H   0  0  0  0  0  0  0  0  0  0  0  0
  -14.2329   -0.5535  -23.2495 H   0  0  0  0  0  0  0  0  0  0  0  0
  -10.8671   -2.4829  -21.5234 H   0  0  0  0  0  0  0  0  0  0  0  0
   -7.1697   -0.7661  -24.3256 H   0  0  0  0  0  0  0  0  0  0  0  0
   -8.5275   -1.4742  -25.2442 H   0  0  0  0  0  0  0  0  0  0  0  0
   -6.8742    1.4145  -24.5082 H   0  0  0  0  0  0  0  0  0  0  0  0
   -8.2222    2.5095  -24.9455 H   0  0  0  0  0  0  0  0  0  0  0  0
   -7.9803    2.1828  -27.5577 C   0  0  0  0  0  0  0  0  0  0  0  0
   -7.6549    2.0971  -28.8500 N   0  0  0  0  0  0  0  0  0  0  0  0
   -8.7599    2.8932  -27.2955 H   0  0  0  0  0  0  0  0  0  0  0  0
   -5.2815   -0.2222  -28.4399 H   0  0  0  0  0  0  0  0  0  0  0  0
   -6.5026    0.0408  -30.9653 H   0  0  0  0  0  0  0  0  0  0  0  0
   -6.9318    1.7560  -31.2360 H   0  0  0  0  0  0  0  0  0  0  0  0
   -5.2650    1.2909  -30.7811 H   0  0  0  0  0  0  0  0  0  0  0  0
  1  2  1  0
  2  3  2  0
  3  4  1  0
  4  5  2  0
  5  6  1  0
  6  7  1  0
  7  8  1  0
  9  8  1  6
  9 10  1  0
 10 11  2  0
 10 12  1  0
 12 13  1  0
 13 14  2  0
 14 15  1  0
 15 16  2  0
 16 17  1  0
 17 18  2  0
 18 19  1  0
 19 20  2  0
 20 21  1  0
 21 22  2  0
 21 23  1  0
 20 24  1  0
 19 25  1  0
 18 26  1  0
 16 27  1  0
 14 28  1  0
 12 29  1  0
 29 30  1  0
 30 31  1  0
 31 32  1  0
 31 33  1  0
 31 34  1  0
 30 35  1  1
 29 36  1  0
 29 37  1  0
  9 38  1  0
 38 39  2  0
 39 40  1  0
 40 41  1  0
 40 42  2  0
 42 43  1  0
 43 44  2  0
 44 45  1  0
 45 46  2  0
 43 47  1  0
 42 48  1  0
 39 49  1  0
  8 50  1  0
  8 51  1  0
  6 52  1  0
  6 53  1  0
  5 54  1  0
 54 55  2  0
 54 56  1  0
  3 57  1  0
  1 58  1  0
  1 59  1  0
  1 60  1  0
 55  2  1  0
 45  7  1  0
 30  9  1  0
 44 38  1  0
 22 13  1  0
 22 17  1  0
M  END
>  <cnnaffinities>  (3) 
[5.77792, 5.71051]

>  <score>  (3) 
5.77792

>  <index>  (3) 
2

>  <Smiles>  (3) 
C(c1c(nc(C(N2C([C@@]3(C(=O)N(c4c(nc(c5c(c(c(c(c45)[H])[H])[H])[H])[H])[H])C([C@@]3(C([H])([H])[H])[H])([H])[H])c3c(c(F)c(c(c3C2=O)[H])[H])[H])([H])[H])([H])[H])c(n1)[H])[H])([H])([H])[H]

>  <h>  (3) 
<NA>

>  <Training>  (3) 
True

>  <Success>  (3) 
True

>  <enamine_searched>  (3) 
False

>  <enamine_id>  (3) 
nan

$$$$

     RDKit          3D

 66 70  0  0  0  0  0  0  0  0999 V2000
   -7.4070    3.4022  -21.9179 C   0  0  0  0  0  0  0  0  0  0  0  0
   -8.3486    2.9178  -22.9172 N   0  0  0  0  0  0  0  0  0  0  0  0
   -7.8257    2.1699  -23.9341 C   0  0  0  0  0  0  0  0  0  0  0  0
   -6.6279    1.9725  -24.0645 O   0  0  0  0  0  0  0  0  0  0  0  0
   -8.8419    1.5707  -24.9070 C   0  0  0  0  0  0  0  0  0  0  0  0
   -9.4980    0.4322  -24.2927 N   0  0  0  0  0  0  0  0  0  0  0  0
   -8.7467   -0.8046  -24.1393 C   0  0  0  0  0  0  0  0  0  0  0  0
   -9.1072   -1.5302  -22.8207 C   0  0  2  0  0  0  0  0  0  0  0  0
   -8.5574   -0.7401  -21.6096 C   0  0  0  0  0  0  0  0  0  0  0  0
   -9.0170    0.2692  -21.1059 O   0  0  0  0  0  0  0  0  0  0  0  0
   -7.4084   -1.3618  -21.1826 N   0  0  0  0  0  0  0  0  0  0  0  0
   -6.6209   -0.7814  -20.1610 C   0  0  0  0  0  0  0  0  0  0  0  0
   -6.9252   -1.0405  -18.8517 C   0  0  0  0  0  0  0  0  0  0  0  0
   -6.2259   -0.5633  -17.7944 N   0  0  0  0  0  0  0  0  0  0  0  0
   -5.1974    0.2068  -18.0576 C   0  0  0  0  0  0  0  0  0  0  0  0
   -4.7852    0.5734  -19.3710 C   0  0  0  0  0  0  0  0  0  0  0  0
   -3.6541    1.3966  -19.6086 C   0  0  0  0  0  0  0  0  0  0  0  0
   -3.3193    1.7680  -20.8803 C   0  0  0  0  0  0  0  0  0  0  0  0
   -4.1039    1.3516  -21.9777 C   0  0  0  0  0  0  0  0  0  0  0  0
   -5.1859    0.5231  -21.7807 C   0  0  0  0  0  0  0  0  0  0  0  0
   -5.5381    0.0948  -20.4706 C   0  0  0  0  0  0  0  0  0  0  0  0
   -5.7803    0.2137  -22.6366 H   0  0  0  0  0  0  0  0  0  0  0  0
   -3.8553    1.6841  -22.9814 H   0  0  0  0  0  0  0  0  0  0  0  0
   -2.4425    2.3837  -21.0526 H   0  0  0  0  0  0  0  0  0  0  0  0
   -3.0804    1.7331  -18.7494 H   0  0  0  0  0  0  0  0  0  0  0  0
   -4.6220    0.5752  -17.2075 H   0  0  0  0  0  0  0  0  0  0  0  0
   -7.7804   -1.6716  -18.6238 H   0  0  0  0  0  0  0  0  0  0  0  0
   -7.0592   -2.5617  -21.9185 C   0  0  0  0  0  0  0  0  0  0  0  0
   -8.3502   -2.8827  -22.6901 C   0  0  2  0  0  0  0  0  0  0  0  0
   -8.0798   -3.6688  -23.9754 C   0  0  0  0  0  0  0  0  0  0  0  0
   -7.5288   -4.9353  -23.6762 O   0  0  0  0  0  0  0  0  0  0  0  0
   -8.4631   -6.0126  -23.5896 C   0  0  0  0  0  0  0  0  0  0  0  0
   -7.9515   -6.9514  -22.5094 C   0  0  0  0  0  0  0  0  0  0  0  0
   -7.8286   -6.4113  -21.5693 H   0  0  0  0  0  0  0  0  0  0  0  0
   -6.9768   -7.3506  -22.8072 H   0  0  0  0  0  0  0  0  0  0  0  0
   -8.6473   -7.7821  -22.3466 H   0  0  0  0  0  0  0  0  0  0  0  0
   -8.5760   -6.7306  -24.9351 C   0  0  0  0  0  0  0  0  0  0  0  0
   -8.9194   -6.0541  -25.7274 H   0  0  0  0  0  0  0  0  0  0  0  0
   -9.2859   -7.5650  -24.8586 H   0  0  0  0  0  0  0  0  0  0  0  0
   -7.5957   -7.1282  -25.2247 H   0  0  0  0  0  0  0  0  0  0  0  0
   -9.4607   -5.6256  -23.3059 H   0  0  0  0  0  0  0  0  0  0  0  0
   -8.9965   -3.7568  -24.5837 H   0  0  0  0  0  0  0  0  0  0  0  0
   -7.3284   -3.1413  -24.5790 H   0  0  0  0  0  0  0  0  0  0  0  0
   -8.9497   -3.5301  -22.0462 H   0  0  0  0  0  0  0  0  0  0  0  0
   -6.7766   -3.3712  -21.2381 H   0  0  0  0  0  0  0  0  0  0  0  0
   -6.2135   -2.3916  -22.6030 H   0  0  0  0  0  0  0  0  0  0  0  0
  -10.6146   -1.6153  -22.7369 C   0  0  0  0  0  0  0  0  0  0  0  0
  -11.2256   -2.5543  -21.9045 C   0  0  0  0  0  0  0  0  0  0  0  0
  -12.5982   -2.5736  -21.7698 C   0  0  0  0  0  0  0  0  0  0  0  0
  -13.3032   -3.7000  -20.6558 Cl  0  0  0  0  0  0  0  0  0  0  0  0
  -13.4223   -1.6898  -22.4610 C   0  0  0  0  0  0  0  0  0  0  0  0
  -12.8236   -0.7432  -23.2626 C   0  0  0  0  0  0  0  0  0  0  0  0
  -11.4383   -0.6847  -23.3828 C   0  0  0  0  0  0  0  0  0  0  0  0
  -10.8598    0.4445  -24.1756 C   0  0  0  0  0  0  0  0  0  0  0  0
  -11.5535    1.3305  -24.6529 O   0  0  0  0  0  0  0  0  0  0  0  0
  -13.4046   -0.0133  -23.8102 H   0  0  0  0  0  0  0  0  0  0  0  0
  -14.4996   -1.7459  -22.3551 H   0  0  0  0  0  0  0  0  0  0  0  0
  -10.6524   -3.2729  -21.3330 H   0  0  0  0  0  0  0  0  0  0  0  0
   -8.9677   -1.4830  -24.9751 H   0  0  0  0  0  0  0  0  0  0  0  0
   -7.6762   -0.5728  -24.1699 H   0  0  0  0  0  0  0  0  0  0  0  0
   -9.6198    2.2908  -25.1831 H   0  0  0  0  0  0  0  0  0  0  0  0
   -8.3191    1.2562  -25.8187 H   0  0  0  0  0  0  0  0  0  0  0  0
   -9.2876    2.6957  -22.6024 H   0  0  0  0  0  0  0  0  0  0  0  0
   -6.6428    4.0097  -22.4143 H   0  0  0  0  0  0  0  0  0  0  0  0
   -6.9160    2.5562  -21.4059 H   0  0  0  0  0  0  0  0  0  0  0  0
   -7.9240    4.0476  -21.2034 H   0  0  0  0  0  0  0  0  0  0  0  0
  1  2  1  0
  2  3  1  0
  3  4  2  0
  3  5  1  0
  5  6  1  0
  6  7  1  0
  8  7  1  6
  8  9  1  0
  9 10  2  0
  9 11  1  0
 11 12  1  0
 12 13  2  0
 13 14  1  0
 14 15  2  0
 15 16  1  0
 16 17  2  0
 17 18  1  0
 18 19  2  0
 19 20  1  0
 20 21  2  0
 20 22  1  0
 19 23  1  0
 18 24  1  0
 17 25  1  0
 15 26  1  0
 13 27  1  0
 11 28  1  0
 28 29  1  0
 29 30  1  0
 30 31  1  0
 31 32  1  0
 32 33  1  0
 33 34  1  0
 33 35  1  0
 33 36  1  0
 32 37  1  0
 37 38  1  0
 37 39  1  0
 37 40  1  0
 32 41  1  0
 30 42  1  0
 30 43  1  0
 29 44  1  1
 28 45  1  0
 28 46  1  0
  8 47  1  0
 47 48  2  0
 48 49  1  0
 49 50  1  0
 49 51  2  0
 51 52  1  0
 52 53  2  0
 53 54  1  0
 54 55  2  0
 52 56  1  0
 51 57  1  0
 48 58  1  0
  7 59  1  0
  7 60  1  0
  5 61  1  0
  5 62  1  0
  2 63  1  0
  1 64  1  0
  1 65  1  0
  1 66  1  0
 54  6  1  0
 29  8  1  0
 53 47  1  0
 21 12  1  0
 21 16  1  0
M  END
>  <cnnaffinities>  (4) 
[5.84275, 5.81821, 5.65861]

>  <score>  (4) 
5.84275

>  <index>  (4) 
3

>  <Smiles>  (4) 
C(N(C(=O)C(N1C([C@@]2(C(=O)N(c3c(nc(c4c(c(c(c(c34)[H])[H])[H])[H])[H])[H])C([C@@]2(C(OC(C([H])([H])[H])(C([H])([H])[H])[H])([H])[H])[H])([H])[H])c2c(c(Cl)c(c(c2C1=O)[H])[H])[H])([H])[H])([H])[H])[H])([H])([H])[H]

>  <h>  (4) 
<NA>

>  <Training>  (4) 
True

>  <Success>  (4) 
True

>  <enamine_searched>  (4) 
False

>  <enamine_id>  (4) 
nan

$$$$

     RDKit          3D

 59 64  0  0  0  0  0  0  0  0999 V2000
  -10.0956   -2.6508  -22.3186 C   0  0  0  0  0  0  0  0  0  0  0  0
   -8.9587   -1.7935  -22.8904 C   0  0  1  0  0  0  0  0  0  0  0  0
   -8.5746   -0.6996  -21.8673 C   0  0  0  0  0  0  0  0  0  0  0  0
   -7.4352   -1.2797  -21.1833 N   0  0  0  0  0  0  0  0  0  0  0  0
   -6.7146   -0.6807  -20.1201 C   0  0  0  0  0  0  0  0  0  0  0  0
   -6.9402   -1.0666  -18.8266 C   0  0  0  0  0  0  0  0  0  0  0  0
   -6.2247   -0.6151  -17.7660 N   0  0  0  0  0  0  0  0  0  0  0  0
   -5.2348    0.2115  -18.0073 C   0  0  0  0  0  0  0  0  0  0  0  0
   -4.8821    0.6694  -19.3099 C   0  0  0  0  0  0  0  0  0  0  0  0
   -3.7978    1.5570  -19.5354 C   0  0  0  0  0  0  0  0  0  0  0  0
   -3.5364    2.0216  -20.7938 C   0  0  0  0  0  0  0  0  0  0  0  0
   -4.3351    1.6217  -21.8899 C   0  0  0  0  0  0  0  0  0  0  0  0
   -5.3679    0.7364  -21.7051 C   0  0  0  0  0  0  0  0  0  0  0  0
   -5.6630    0.2395  -20.4016 C   0  0  0  0  0  0  0  0  0  0  0  0
   -5.9615    0.4120  -22.5559 H   0  0  0  0  0  0  0  0  0  0  0  0
   -4.1266    2.0095  -22.8813 H   0  0  0  0  0  0  0  0  0  0  0  0
   -2.7048    2.6982  -20.9640 H   0  0  0  0  0  0  0  0  0  0  0  0
   -3.1928    1.8634  -18.6860 H   0  0  0  0  0  0  0  0  0  0  0  0
   -4.6559    0.5590  -17.1497 H   0  0  0  0  0  0  0  0  0  0  0  0
   -7.7251   -1.7887  -18.6065 H   0  0  0  0  0  0  0  0  0  0  0  0
   -6.8093   -2.2761  -21.8979 C   0  0  0  0  0  0  0  0  0  0  0  0
   -5.8086   -2.8531  -21.5200 O   0  0  0  0  0  0  0  0  0  0  0  0
   -7.6085   -2.5454  -23.1865 C   0  0  1  0  0  0  0  0  0  0  0  0
   -7.7477   -4.0751  -23.3487 C   0  0  0  0  0  0  0  0  0  0  0  0
   -6.5114   -4.6992  -23.8278 N   0  0  0  0  0  0  0  0  0  0  0  0
   -6.0235   -5.8850  -23.1300 C   0  0  0  0  0  0  0  0  0  0  0  0
   -7.0981   -6.9241  -23.0875 C   0  0  0  0  0  0  0  0  0  0  0  0
   -7.6806   -7.3522  -21.9930 N   0  0  0  0  0  0  0  0  0  0  0  0
   -8.7749   -8.0488  -22.4360 C   0  0  0  0  0  0  0  0  0  0  0  0
   -8.8205   -8.0610  -23.7989 C   0  0  0  0  0  0  0  0  0  0  0  0
   -7.7140   -7.3655  -24.2194 N   0  0  0  0  0  0  0  0  0  0  0  0
   -7.2984   -7.1512  -25.5952 C   0  0  0  0  0  0  0  0  0  0  0  0
   -7.6743   -7.9694  -26.2108 H   0  0  0  0  0  0  0  0  0  0  0  0
   -7.6928   -6.2081  -25.9927 H   0  0  0  0  0  0  0  0  0  0  0  0
   -6.2086   -7.1569  -25.6380 H   0  0  0  0  0  0  0  0  0  0  0  0
   -9.5486   -8.4556  -24.4889 H   0  0  0  0  0  0  0  0  0  0  0  0
   -9.5044   -8.4447  -21.7483 H   0  0  0  0  0  0  0  0  0  0  0  0
   -5.1186   -6.2361  -23.6353 H   0  0  0  0  0  0  0  0  0  0  0  0
   -5.7698   -5.6097  -22.1000 H   0  0  0  0  0  0  0  0  0  0  0  0
   -5.8773   -4.2467  -24.9453 C   0  0  0  0  0  0  0  0  0  0  0  0
   -5.0798   -4.9150  -25.5970 O   0  0  0  0  0  0  0  0  0  0  0  0
   -6.1929   -2.8337  -25.3134 C   0  0  0  0  0  0  0  0  0  0  0  0
   -5.6826   -2.3688  -26.5265 C   0  0  0  0  0  0  0  0  0  0  0  0
   -5.8146   -1.0446  -26.8916 C   0  0  0  0  0  0  0  0  0  0  0  0
   -6.4795   -0.2044  -26.0078 C   0  0  0  0  0  0  0  0  0  0  0  0
   -6.5912    1.0968  -26.3327 F   0  0  0  0  0  0  0  0  0  0  0  0
   -7.0446   -0.6546  -24.8264 C   0  0  0  0  0  0  0  0  0  0  0  0
   -6.9266   -2.0030  -24.4529 C   0  0  0  0  0  0  0  0  0  0  0  0
   -7.6132    0.0598  -24.2416 H   0  0  0  0  0  0  0  0  0  0  0  0
   -5.4157   -0.6628  -27.8262 H   0  0  0  0  0  0  0  0  0  0  0  0
   -5.1740   -3.0787  -27.1713 H   0  0  0  0  0  0  0  0  0  0  0  0
   -7.9982   -4.5300  -22.3902 H   0  0  0  0  0  0  0  0  0  0  0  0
   -8.5744   -4.2724  -24.0426 H   0  0  0  0  0  0  0  0  0  0  0  0
   -9.3790   -0.4869  -21.1566 H   0  0  0  0  0  0  0  0  0  0  0  0
   -8.3243    0.2495  -22.3630 H   0  0  0  0  0  0  0  0  0  0  0  0
   -9.3239   -1.3535  -23.8269 H   0  0  0  0  0  0  0  0  0  0  0  0
  -10.9500   -2.0027  -22.0902 H   0  0  0  0  0  0  0  0  0  0  0  0
   -9.8026   -3.1571  -21.3905 H   0  0  0  0  0  0  0  0  0  0  0  0
  -10.4378   -3.4024  -23.0370 H   0  0  0  0  0  0  0  0  0  0  0  0
  1  2  1  0
  2  3  1  0
  3  4  1  0
  4  5  1  0
  5  6  2  0
  6  7  1  0
  7  8  2  0
  8  9  1  0
  9 10  2  0
 10 11  1  0
 11 12  2  0
 12 13  1  0
 13 14  2  0
 13 15  1  0
 12 16  1  0
 11 17  1  0
 10 18  1  0
  8 19  1  0
  6 20  1  0
  4 21  1  0
 21 22  2  0
 21 23  1  0
 23 24  1  6
 24 25  1  0
 25 26  1  0
 26 27  1  0
 27 28  2  0
 28 29  1  0
 29 30  2  0
 30 31  1  0
 31 32  1  0
 32 33  1  0
 32 34  1  0
 32 35  1  0
 30 36  1  0
 29 37  1  0
 26 38  1  0
 26 39  1  0
 25 40  1  0
 40 41  2  0
 40 42  1  0
 42 43  2  0
 43 44  1  0
 44 45  2  0
 45 46  1  0
 45 47  1  0
 47 48  2  0
 47 49  1  0
 44 50  1  0
 43 51  1  0
 24 52  1  0
 24 53  1  0
  3 54  1  0
  3 55  1  0
  2 56  1  6
  1 57  1  0
  1 58  1  0
  1 59  1  0
 23  2  1  0
 31 27  1  0
 48 42  1  0
 14  5  1  0
 48 23  1  0
 14  9  1  0
M  END
>  <cnnaffinities>  (5) 
[5.62099, 5.24793, 5.67956]

>  <score>  (5) 
5.62099

>  <index>  (5) 
4

>  <Smiles>  (5) 
C([C@]1(C(N(c2c(nc(c3c(c(c(c(c23)[H])[H])[H])[H])[H])[H])C(=O)[C@]21C(N(C(c1nc(c(n1C([H])([H])[H])[H])[H])([H])[H])C(=O)c1c(c(c(F)c(c21)[H])[H])[H])([H])[H])([H])[H])[H])([H])([H])[H]

>  <h>  (5) 
<NA>

>  <Training>  (5) 
True

>  <Success>  (5) 
True

>  <enamine_searched>  (5) 
False

>  <enamine_id>  (5) 
nan

$$$$

     RDKit          3D

 58 61  0  0  0  0  0  0  0  0999 V2000
   -5.0831   -3.0545  -22.4181 C   0  0  0  0  0  0  0  0  0  0  0  0
   -6.4028   -3.2196  -22.4035 C   0  0  0  0  0  0  0  0  0  0  0  0
   -7.3864   -2.7682  -21.3603 C   0  0  0  0  0  0  0  0  0  0  0  0
   -7.4262   -1.3217  -21.1998 N   0  0  0  0  0  0  0  0  0  0  0  0
   -8.2545   -0.4540  -21.9011 C   0  0  0  0  0  0  0  0  0  0  0  0
   -8.3914    0.6923  -21.5120 O   0  0  0  0  0  0  0  0  0  0  0  0
   -8.9653   -0.9543  -23.1781 C   0  0  2  0  0  0  0  0  0  0  0  0
   -8.4914   -0.1254  -24.3981 C   0  0  0  0  0  0  0  0  0  0  0  0
   -9.0133    1.2410  -24.3886 N   0  0  0  0  0  0  0  0  0  0  0  0
   -8.1804    2.3160  -24.8920 C   0  0  0  0  0  0  0  0  0  0  0  0
   -7.1614    2.7717  -23.8470 C   0  0  0  0  0  0  0  0  0  0  0  0
   -5.9778    2.4942  -23.9530 O   0  0  0  0  0  0  0  0  0  0  0  0
   -7.6480    3.5076  -22.8136 N   0  0  0  0  0  0  0  0  0  0  0  0
   -6.7406    3.8683  -21.7372 C   0  0  0  0  0  0  0  0  0  0  0  0
   -7.2683    4.5095  -21.0295 H   0  0  0  0  0  0  0  0  0  0  0  0
   -5.8892    4.4233  -22.1384 H   0  0  0  0  0  0  0  0  0  0  0  0
   -6.3570    2.9648  -21.2388 H   0  0  0  0  0  0  0  0  0  0  0  0
   -8.6311    3.4428  -22.6026 H   0  0  0  0  0  0  0  0  0  0  0  0
   -8.8387    3.1424  -25.1705 H   0  0  0  0  0  0  0  0  0  0  0  0
   -7.6422    1.9809  -25.7819 H   0  0  0  0  0  0  0  0  0  0  0  0
  -10.2664    1.5646  -23.9496 C   0  0  0  0  0  0  0  0  0  0  0  0
  -10.7053    2.7088  -24.0151 O   0  0  0  0  0  0  0  0  0  0  0  0
  -11.0681    0.4454  -23.3667 C   0  0  0  0  0  0  0  0  0  0  0  0
  -12.4296    0.6531  -23.1435 C   0  0  0  0  0  0  0  0  0  0  0  0
  -13.1929   -0.3248  -22.5374 C   0  0  0  0  0  0  0  0  0  0  0  0
  -12.5747   -1.5074  -22.1346 C   0  0  0  0  0  0  0  0  0  0  0  0
  -13.4757   -2.6617  -21.1932 Cl  0  0  0  0  0  0  0  0  0  0  0  0
  -11.2295   -1.7357  -22.3801 C   0  0  0  0  0  0  0  0  0  0  0  0
  -10.4616   -0.7573  -23.0100 C   0  0  0  0  0  0  0  0  0  0  0  0
  -10.7886   -2.6808  -22.0745 H   0  0  0  0  0  0  0  0  0  0  0  0
  -14.2516   -0.1755  -22.3550 H   0  0  0  0  0  0  0  0  0  0  0  0
  -12.8669    1.5993  -23.4425 H   0  0  0  0  0  0  0  0  0  0  0  0
   -7.3957   -0.0713  -24.4009 H   0  0  0  0  0  0  0  0  0  0  0  0
   -8.8163   -0.6348  -25.3165 H   0  0  0  0  0  0  0  0  0  0  0  0
   -8.7357   -2.0146  -23.3699 H   0  0  0  0  0  0  0  0  0  0  0  0
   -6.6432   -0.7541  -20.1655 C   0  0  0  0  0  0  0  0  0  0  0  0
   -6.9395   -1.0414  -18.8572 C   0  0  0  0  0  0  0  0  0  0  0  0
   -6.2579   -0.5559  -17.7997 N   0  0  0  0  0  0  0  0  0  0  0  0
   -5.2151    0.2018  -18.0547 C   0  0  0  0  0  0  0  0  0  0  0  0
   -4.7973    0.5704  -19.3634 C   0  0  0  0  0  0  0  0  0  0  0  0
   -3.6603    1.3898  -19.5905 C   0  0  0  0  0  0  0  0  0  0  0  0
   -3.3135    1.7652  -20.8602 C   0  0  0  0  0  0  0  0  0  0  0  0
   -4.0977    1.3601  -21.9607 C   0  0  0  0  0  0  0  0  0  0  0  0
   -5.1733    0.5227  -21.7685 C   0  0  0  0  0  0  0  0  0  0  0  0
   -5.5588    0.1185  -20.4626 C   0  0  0  0  0  0  0  0  0  0  0  0
   -5.7318    0.1601  -22.6266 H   0  0  0  0  0  0  0  0  0  0  0  0
   -3.8527    1.7058  -22.9606 H   0  0  0  0  0  0  0  0  0  0  0  0
   -2.4314    2.3809  -21.0279 H   0  0  0  0  0  0  0  0  0  0  0  0
   -3.0844    1.7202  -18.7324 H   0  0  0  0  0  0  0  0  0  0  0  0
   -4.6554    0.5800  -17.2001 H   0  0  0  0  0  0  0  0  0  0  0  0
   -7.7909   -1.6843  -18.6348 H   0  0  0  0  0  0  0  0  0  0  0  0
   -8.3439   -3.1615  -21.7091 H   0  0  0  0  0  0  0  0  0  0  0  0
   -7.1121   -3.1821  -20.3886 H   0  0  0  0  0  0  0  0  0  0  0  0
   -7.1483   -3.8673  -23.5567 C   0  0  0  0  0  0  0  0  0  0  0  0
   -8.3890   -3.8684  -23.4498 O   0  0  0  0  0  0  0  0  0  0  0  0
   -6.4513   -4.3008  -24.4908 O   0  0  0  0  0  1  0  0  0  0  0  0
   -4.4601   -3.4341  -23.2249 H   0  0  0  0  0  0  0  0  0  0  0  0
   -4.6064   -2.4920  -21.6142 H   0  0  0  0  0  0  0  0  0  0  0  0
  1  2  2  0
  2  3  1  0
  3  4  1  0
  4  5  1  0
  5  6  2  0
  5  7  1  0
  7  8  1  0
  8  9  1  0
  9 10  1  0
 10 11  1  0
 11 12  2  0
 11 13  1  0
 13 14  1  0
 14 15  1  0
 14 16  1  0
 14 17  1  0
 13 18  1  0
 10 19  1  0
 10 20  1  0
  9 21  1  0
 21 22  2  0
 21 23  1  0
 23 24  2  0
 24 25  1  0
 25 26  2  0
 26 27  1  0
 26 28  1  0
 28 29  2  0
 28 30  1  0
 25 31  1  0
 24 32  1  0
  8 33  1  0
  8 34  1  0
  7 35  1  6
  4 36  1  0
 36 37  2  0
 37 38  1  0
 38 39  2  0
 39 40  1  0
 40 41  2  0
 41 42  1  0
 42 43  2  0
 43 44  1  0
 44 45  2  0
 44 46  1  0
 43 47  1  0
 42 48  1  0
 41 49  1  0
 39 50  1  0
 37 51  1  0
  3 52  1  0
  3 53  1  0
  2 54  1  0
 54 55  2  0
 54 56  1  0
  1 57  1  0
  1 58  1  0
 29  7  1  0
 45 36  1  0
 29 23  1  0
 45 40  1  0
M  CHG  1  56  -1
M  END
>  <cnnaffinities>  (6) 
[5.55541]

>  <score>  (6) 
5.55541

>  <index>  (6) 
5

>  <Smiles>  (6) 
C(=C(C(N(C(=O)[C@@]1(C(N(C(C(=O)N(C([H])([H])[H])[H])([H])[H])C(=O)c2c(c(c(Cl)c(c12)[H])[H])[H])([H])[H])[H])c1c(nc(c2c(c(c(c(c12)[H])[H])[H])[H])[H])[H])([H])[H])C(=O)[O-])([H])[H]

>  <h>  (6) 
<NA>

>  <Training>  (6) 
True

>  <Success>  (6) 
True

>  <enamine_searched>  (6) 
False

>  <enamine_id>  (6) 
nan

$$$$

     RDKit          3D

 43 45  0  0  0  0  0  0  0  0999 V2000
  -10.4064   -6.7683  -25.6787 C   0  0  0  0  0  0  0  0  0  0  0  0
   -9.2114   -6.8130  -24.7298 C   0  0  0  0  0  0  0  0  0  0  0  0
   -9.2510   -5.7688  -23.6053 C   0  0  0  0  0  0  0  0  0  0  0  0
   -9.2338   -4.2961  -24.0629 C   0  0  0  0  0  0  0  0  0  0  0  0
   -8.9133   -3.4017  -22.8669 C   0  0  0  0  0  0  0  0  0  0  0  0
   -7.5929   -3.7109  -22.3119 N   0  0  0  0  0  0  0  0  0  0  0  0
   -6.7448   -2.8117  -21.7239 C   0  0  0  0  0  0  0  0  0  0  0  0
   -5.5572   -3.0415  -21.5617 O   0  0  0  0  0  0  0  0  0  0  0  0
   -7.3917   -1.5051  -21.2573 C   0  0  0  0  0  0  0  0  0  0  0  0
   -6.6151   -0.8091  -20.1766 C   0  0  0  0  0  0  0  0  0  0  0  0
   -6.8992   -1.0643  -18.8595 C   0  0  0  0  0  0  0  0  0  0  0  0
   -6.2099   -0.5857  -17.7909 N   0  0  0  0  0  0  0  0  0  0  0  0
   -5.1994    0.2124  -18.0499 C   0  0  0  0  0  0  0  0  0  0  0  0
   -4.7984    0.5787  -19.3638 C   0  0  0  0  0  0  0  0  0  0  0  0
   -3.6622    1.3984  -19.5875 C   0  0  0  0  0  0  0  0  0  0  0  0
   -3.2993    1.7462  -20.8609 C   0  0  0  0  0  0  0  0  0  0  0  0
   -4.0721    1.3112  -21.9639 C   0  0  0  0  0  0  0  0  0  0  0  0
   -5.1451    0.4706  -21.7728 C   0  0  0  0  0  0  0  0  0  0  0  0
   -5.5263    0.0696  -20.4635 C   0  0  0  0  0  0  0  0  0  0  0  0
   -5.7017    0.1023  -22.6299 H   0  0  0  0  0  0  0  0  0  0  0  0
   -3.8068    1.6432  -22.9665 H   0  0  0  0  0  0  0  0  0  0  0  0
   -2.4139    2.3546  -21.0341 H   0  0  0  0  0  0  0  0  0  0  0  0
   -3.0787    1.7113  -18.7225 H   0  0  0  0  0  0  0  0  0  0  0  0
   -4.6273    0.6004  -17.2057 H   0  0  0  0  0  0  0  0  0  0  0  0
   -7.7400   -1.7096  -18.5974 H   0  0  0  0  0  0  0  0  0  0  0  0
   -8.3879   -1.7670  -20.8808 H   0  0  0  0  0  0  0  0  0  0  0  0
   -7.5382   -0.8662  -22.1391 H   0  0  0  0  0  0  0  0  0  0  0  0
   -7.0613   -5.0423  -22.5443 C   0  0  0  0  0  0  0  0  0  0  0  0
   -8.1671   -6.0833  -22.5455 C   0  0  0  0  0  0  0  0  0  0  0  0
   -8.6320   -6.1600  -21.5576 H   0  0  0  0  0  0  0  0  0  0  0  0
   -7.7244   -7.0707  -22.7324 H   0  0  0  0  0  0  0  0  0  0  0  0
   -6.3130   -5.2227  -21.7727 H   0  0  0  0  0  0  0  0  0  0  0  0
   -6.5384   -5.0705  -23.5080 H   0  0  0  0  0  0  0  0  0  0  0  0
   -9.6988   -3.5748  -22.1195 H   0  0  0  0  0  0  0  0  0  0  0  0
   -8.9490   -2.3455  -23.1462 H   0  0  0  0  0  0  0  0  0  0  0  0
  -10.2258   -4.0291  -24.4564 H   0  0  0  0  0  0  0  0  0  0  0  0
   -8.5232   -4.1069  -24.8739 H   0  0  0  0  0  0  0  0  0  0  0  0
  -10.2175   -5.8550  -23.1137 H   0  0  0  0  0  0  0  0  0  0  0  0
   -8.2766   -6.6913  -25.2901 H   0  0  0  0  0  0  0  0  0  0  0  0
   -9.1540   -7.8115  -24.2685 H   0  0  0  0  0  0  0  0  0  0  0  0
  -10.3511   -7.5503  -26.4474 H   0  0  0  0  0  0  0  0  0  0  0  0
  -10.4718   -5.8035  -26.1958 H   0  0  0  0  0  0  0  0  0  0  0  0
  -11.3394   -6.9153  -25.1211 H   0  0  0  0  0  0  0  0  0  0  0  0
  1  2  1  0
  2  3  1  0
  3  4  1  0
  4  5  1  0
  5  6  1  0
  6  7  1  0
  7  8  2  0
  7  9  1  0
  9 10  1  0
 10 11  2  0
 11 12  1  0
 12 13  2  0
 13 14  1  0
 14 15  2  0
 15 16  1  0
 16 17  2  0
 17 18  1  0
 18 19  2  0
 18 20  1  0
 17 21  1  0
 16 22  1  0
 15 23  1  0
 13 24  1  0
 11 25  1  0
  9 26  1  0
  9 27  1  0
  6 28  1  0
 28 29  1  0
 29 30  1  0
 29 31  1  0
 28 32  1  0
 28 33  1  0
  5 34  1  0
  5 35  1  0
  4 36  1  0
  4 37  1  0
  3 38  1  0
  2 39  1  0
  2 40  1  0
  1 41  1  0
  1 42  1  0
  1 43  1  0
 29  3  1  0
 19 10  1  0
 19 14  1  0
M  END
>  <cnnaffinities>  (7) 
[4.09575, 4.0977, 4.05636, 4.37605, 4.37614, 4.41867, 4.53245]

>  <score>  (7) 
4.09575

>  <index>  (7) 
6

>  <Smiles>  (7) 
C(C(C1(C(C(N(C(=O)C(c2c(nc(c3c(c(c(c(c23)[H])[H])[H])[H])[H])[H])([H])[H])C(C1([H])[H])([H])[H])([H])[H])([H])[H])[H])([H])[H])([H])([H])[H]

>  <h>  (7) 
<NA>

>  <Training>  (7) 
True

>  <Success>  (7) 
True

>  <enamine_searched>  (7) 
False

>  <enamine_id>  (7) 
nan

$$$$

     RDKit          3D

 44 47  0  0  0  0  0  0  0  0999 V2000
   -8.3267   -7.7602  -23.6045 C   0  0  0  0  0  0  0  0  0  0  0  0
   -8.5557   -7.2761  -25.0325 C   0  0  0  0  0  0  0  0  0  0  0  0
   -9.1895   -5.6030  -25.0223 S   0  0  0  0  0  0  0  0  0  0  0  0
  -10.4415   -5.6318  -24.2765 O   0  0  0  0  0  0  0  0  0  0  0  0
   -9.1273   -5.0861  -26.3763 O   0  0  0  0  0  0  0  0  0  0  0  0
   -8.0079   -4.7783  -24.1479 N   0  0  0  0  0  0  0  0  0  0  0  0
   -8.1048   -4.7087  -22.6772 C   0  0  0  0  0  0  0  0  0  0  0  0
   -8.0559   -3.1587  -22.7335 C   0  0  0  0  0  0  0  0  0  0  0  0
   -7.9672   -3.3016  -24.2805 C   0  0  0  0  0  0  0  0  0  0  0  0
   -8.8140   -2.8827  -24.8280 H   0  0  0  0  0  0  0  0  0  0  0  0
   -7.0280   -2.9589  -24.7178 H   0  0  0  0  0  0  0  0  0  0  0  0
   -6.8513   -2.5370  -22.0533 C   0  0  0  0  0  0  0  0  0  0  0  0
   -5.7014   -2.8747  -22.1741 O   0  0  0  0  0  0  0  0  0  0  0  0
   -7.3361   -1.5007  -21.2488 N   0  0  0  0  0  0  0  0  0  0  0  0
   -6.6135   -0.8461  -20.2115 C   0  0  0  0  0  0  0  0  0  0  0  0
   -6.9436   -1.0743  -18.8942 C   0  0  0  0  0  0  0  0  0  0  0  0
   -6.2533   -0.5768  -17.8362 N   0  0  0  0  0  0  0  0  0  0  0  0
   -5.2274    0.1940  -18.1020 C   0  0  0  0  0  0  0  0  0  0  0  0
   -4.8118    0.5428  -19.4165 C   0  0  0  0  0  0  0  0  0  0  0  0
   -3.6799    1.3699  -19.6249 C   0  0  0  0  0  0  0  0  0  0  0  0
   -3.3080    1.7222  -20.8920 C   0  0  0  0  0  0  0  0  0  0  0  0
   -4.0693    1.2928  -22.0028 C   0  0  0  0  0  0  0  0  0  0  0  0
   -5.1507    0.4572  -21.8313 C   0  0  0  0  0  0  0  0  0  0  0  0
   -5.5316    0.0384  -20.5207 C   0  0  0  0  0  0  0  0  0  0  0  0
   -5.7017    0.1006  -22.6989 H   0  0  0  0  0  0  0  0  0  0  0  0
   -3.7654    1.5930  -23.0037 H   0  0  0  0  0  0  0  0  0  0  0  0
   -2.4240    2.3342  -21.0548 H   0  0  0  0  0  0  0  0  0  0  0  0
   -3.1198    1.6931  -18.7512 H   0  0  0  0  0  0  0  0  0  0  0  0
   -4.6492    0.5885  -17.2646 H   0  0  0  0  0  0  0  0  0  0  0  0
   -7.7911   -1.7089  -18.6388 H   0  0  0  0  0  0  0  0  0  0  0  0
   -8.7131   -1.3071  -21.4476 C   0  0  0  0  0  0  0  0  0  0  0  0
   -9.3496   -0.3585  -21.0552 O   0  0  0  0  0  0  0  0  0  0  0  0
   -9.1387   -2.3831  -22.1821 N   0  0  0  0  0  0  0  0  0  0  0  0
  -10.5284   -2.6036  -22.5064 C   0  0  0  0  0  0  0  0  0  0  0  0
  -11.0655   -3.0177  -21.6495 H   0  0  0  0  0  0  0  0  0  0  0  0
  -10.6019   -3.3124  -23.3330 H   0  0  0  0  0  0  0  0  0  0  0  0
  -10.9814   -1.6547  -22.7961 H   0  0  0  0  0  0  0  0  0  0  0  0
   -7.2135   -5.1515  -22.2249 H   0  0  0  0  0  0  0  0  0  0  0  0
   -9.0153   -5.1575  -22.2725 H   0  0  0  0  0  0  0  0  0  0  0  0
   -9.3417   -7.8524  -25.5380 H   0  0  0  0  0  0  0  0  0  0  0  0
   -7.6490   -7.2839  -25.6543 H   0  0  0  0  0  0  0  0  0  0  0  0
   -7.5418   -7.1735  -23.1225 H   0  0  0  0  0  0  0  0  0  0  0  0
   -8.0209   -8.8009  -23.5545 H   0  0  0  0  0  0  0  0  0  0  0  0
   -9.2305   -7.6436  -23.0075 H   0  0  0  0  0  0  0  0  0  0  0  0
  1  2  1  0
  2  3  1  0
  3  4  2  0
  3  5  2  0
  3  6  1  0
  6  7  1  0
  7  8  1  0
  8  9  1  0
  9 10  1  0
  9 11  1  0
  8 12  1  0
 12 13  2  0
 12 14  1  0
 14 15  1  0
 15 16  2  0
 16 17  1  0
 17 18  2  0
 18 19  1  0
 19 20  2  0
 20 21  1  0
 21 22  2  0
 22 23  1  0
 23 24  2  0
 23 25  1  0
 22 26  1  0
 21 27  1  0
 20 28  1  0
 18 29  1  0
 16 30  1  0
 14 31  1  0
 31 32  2  0
 31 33  1  0
 33 34  1  0
 34 35  1  0
 34 36  1  0
 34 37  1  0
  7 38  1  0
  7 39  1  0
  2 40  1  0
  2 41  1  0
  1 42  1  0
  1 43  1  0
  1 44  1  0
  9  6  1  0
 24 15  1  0
 33  8  1  0
 24 19  1  0
M  END
>  <cnnaffinities>  (8) 
[4.68177, 5.17706, 5.17607, 5.18145, 5.17659, 4.64483, 4.64522, 5.14101]

>  <score>  (8) 
4.68177

>  <index>  (8) 
7

>  <Smiles>  (8) 
C(C(S(=O)(=O)N1C(C2(C1([H])[H])C(=O)N(c1c(nc(c3c(c(c(c(c13)[H])[H])[H])[H])[H])[H])C(=O)N2C([H])([H])[H])([H])[H])([H])[H])([H])([H])[H]

>  <h>  (8) 
<NA>

>  <Training>  (8) 
True

>  <Success>  (8) 
True

>  <enamine_searched>  (8) 
False

>  <enamine_id>  (8) 
nan

$$$$

     RDKit          3D

 60 64  0  0  0  0  0  0  0  0999 V2000
   -7.4198    3.4227  -21.8577 C   0  0  0  0  0  0  0  0  0  0  0  0
   -8.2965    2.9536  -22.9136 N   0  0  0  0  0  0  0  0  0  0  0  0
   -7.7388    2.2139  -23.9133 C   0  0  0  0  0  0  0  0  0  0  0  0
   -6.5345    2.0584  -24.0240 O   0  0  0  0  0  0  0  0  0  0  0  0
   -8.7154    1.6003  -24.9107 C   0  0  0  0  0  0  0  0  0  0  0  0
   -9.4112    0.4639  -24.3549 N   0  0  0  0  0  0  0  0  0  0  0  0
   -8.6760   -0.7728  -24.1843 C   0  0  0  0  0  0  0  0  0  0  0  0
   -9.0583   -1.4917  -22.8761 C   0  0  2  0  0  0  0  0  0  0  0  0
   -8.5160   -0.7182  -21.6584 C   0  0  0  0  0  0  0  0  0  0  0  0
   -8.9587    0.2974  -21.1673 O   0  0  0  0  0  0  0  0  0  0  0  0
   -7.4001   -1.3685  -21.1926 N   0  0  0  0  0  0  0  0  0  0  0  0
   -6.6153   -0.7856  -20.1679 C   0  0  0  0  0  0  0  0  0  0  0  0
   -6.9203   -1.0452  -18.8567 C   0  0  0  0  0  0  0  0  0  0  0  0
   -6.2160   -0.5682  -17.8017 N   0  0  0  0  0  0  0  0  0  0  0  0
   -5.1936    0.2119  -18.0629 C   0  0  0  0  0  0  0  0  0  0  0  0
   -4.7814    0.5759  -19.3771 C   0  0  0  0  0  0  0  0  0  0  0  0
   -3.6466    1.3961  -19.6150 C   0  0  0  0  0  0  0  0  0  0  0  0
   -3.2839    1.7339  -20.8917 C   0  0  0  0  0  0  0  0  0  0  0  0
   -4.0604    1.3010  -21.9916 C   0  0  0  0  0  0  0  0  0  0  0  0
   -5.1415    0.4717  -21.7914 C   0  0  0  0  0  0  0  0  0  0  0  0
   -5.5189    0.0755  -20.4775 C   0  0  0  0  0  0  0  0  0  0  0  0
   -5.7063    0.1157  -22.6488 H   0  0  0  0  0  0  0  0  0  0  0  0
   -3.7857    1.5923  -23.0027 H   0  0  0  0  0  0  0  0  0  0  0  0
   -2.4023    2.3479  -21.0683 H   0  0  0  0  0  0  0  0  0  0  0  0
   -3.0701    1.7339  -18.7570 H   0  0  0  0  0  0  0  0  0  0  0  0
   -4.6165    0.5867  -17.2158 H   0  0  0  0  0  0  0  0  0  0  0  0
   -7.7788   -1.6721  -18.6177 H   0  0  0  0  0  0  0  0  0  0  0  0
   -7.0613   -2.5760  -21.9161 C   0  0  0  0  0  0  0  0  0  0  0  0
   -8.3274   -2.8598  -22.7481 C   0  0  2  0  0  0  0  0  0  0  0  0
   -8.0081   -3.6082  -24.0509 C   0  0  0  0  0  0  0  0  0  0  0  0
   -7.4510   -4.8821  -23.7944 O   0  0  0  0  0  0  0  0  0  0  0  0
   -8.3788   -5.9383  -23.8563 C   0  0  0  0  0  0  0  0  0  0  0  0
   -9.2446   -5.7775  -23.1906 H   0  0  0  0  0  0  0  0  0  0  0  0
   -7.8548   -6.8445  -23.5382 H   0  0  0  0  0  0  0  0  0  0  0  0
   -8.7529   -6.0965  -24.8824 H   0  0  0  0  0  0  0  0  0  0  0  0
   -7.2480   -3.0503  -24.6139 H   0  0  0  0  0  0  0  0  0  0  0  0
   -8.8984   -3.6995  -24.6973 H   0  0  0  0  0  0  0  0  0  0  0  0
   -8.9734   -3.5213  -22.1672 H   0  0  0  0  0  0  0  0  0  0  0  0
   -6.8209   -3.3895  -21.2256 H   0  0  0  0  0  0  0  0  0  0  0  0
   -6.1891   -2.4133  -22.5661 H   0  0  0  0  0  0  0  0  0  0  0  0
  -10.5688   -1.5508  -22.8077 C   0  0  0  0  0  0  0  0  0  0  0  0
  -11.1941   -2.4565  -21.9485 C   0  0  0  0  0  0  0  0  0  0  0  0
  -12.5724   -2.4699  -21.8433 C   0  0  0  0  0  0  0  0  0  0  0  0
  -13.2979   -3.5718  -20.7034 Cl  0  0  0  0  0  0  0  0  0  0  0  0
  -13.3775   -1.5985  -22.5802 C   0  0  0  0  0  0  0  0  0  0  0  0
  -12.7647   -0.6664  -23.3952 C   0  0  0  0  0  0  0  0  0  0  0  0
  -11.3751   -0.6245  -23.4837 C   0  0  0  0  0  0  0  0  0  0  0  0
  -10.7751    0.4968  -24.2670 C   0  0  0  0  0  0  0  0  0  0  0  0
  -11.4565    1.3892  -24.7558 O   0  0  0  0  0  0  0  0  0  0  0  0
  -13.3308    0.0622  -23.9679 H   0  0  0  0  0  0  0  0  0  0  0  0
  -14.4564   -1.6628  -22.4878 H   0  0  0  0  0  0  0  0  0  0  0  0
  -10.6133   -3.1473  -21.3461 H   0  0  0  0  0  0  0  0  0  0  0  0
   -7.6083   -0.5341  -24.1962 H   0  0  0  0  0  0  0  0  0  0  0  0
   -8.8987   -1.4447  -25.0215 H   0  0  0  0  0  0  0  0  0  0  0  0
   -8.1232    1.3054  -25.7824 H   0  0  0  0  0  0  0  0  0  0  0  0
   -9.4891    2.3178  -25.1898 H   0  0  0  0  0  0  0  0  0  0  0  0
   -9.2545    2.7635  -22.6603 H   0  0  0  0  0  0  0  0  0  0  0  0
   -6.6640    4.0804  -22.2816 H   0  0  0  0  0  0  0  0  0  0  0  0
   -6.8955    2.5841  -21.3878 H   0  0  0  0  0  0  0  0  0  0  0  0
   -7.9799    3.9732  -21.1004 H   0  0  0  0  0  0  0  0  0  0  0  0
  1  2  1  0
  2  3  1  0
  3  4  2  0
  3  5  1  0
  5  6  1  0
  6  7  1  0
  8  7  1  6
  8  9  1  0
  9 10  2  0
  9 11  1  0
 11 12  1  0
 12 13  2  0
 13 14  1  0
 14 15  2  0
 15 16  1  0
 16 17  2  0
 17 18  1  0
 18 19  2  0
 19 20  1  0
 20 21  2  0
 20 22  1  0
 19 23  1  0
 18 24  1  0
 17 25  1  0
 15 26  1  0
 13 27  1  0
 11 28  1  0
 28 29  1  0
 29 30  1  0
 30 31  1  0
 31 32  1  0
 32 33  1  0
 32 34  1  0
 32 35  1  0
 30 36  1  0
 30 37  1  0
 29 38  1  1
 28 39  1  0
 28 40  1  0
  8 41  1  0
 41 42  2  0
 42 43  1  0
 43 44  1  0
 43 45  2  0
 45 46  1  0
 46 47  2  0
 47 48  1  0
 48 49  2  0
 46 50  1  0
 45 51  1  0
 42 52  1  0
  7 53  1  0
  7 54  1  0
  5 55  1  0
  5 56  1  0
  2 57  1  0
  1 58  1  0
  1 59  1  0
  1 60  1  0
 48  6  1  0
 29  8  1  0
 47 41  1  0
 21 12  1  0
 21 16  1  0
M  END
>  <cnnaffinities>  (9) 
[5.7119, 5.6081, 6.04559, 6.09414]

>  <score>  (9) 
5.7119

>  <index>  (9) 
8

>  <Smiles>  (9) 
C(N(C(=O)C(N1C([C@@]2(C(=O)N(c3c(nc(c4c(c(c(c(c34)[H])[H])[H])[H])[H])[H])C([C@@]2(C(OC([H])([H])[H])([H])[H])[H])([H])[H])c2c(c(Cl)c(c(c2C1=O)[H])[H])[H])([H])[H])([H])[H])[H])([H])([H])[H]

>  <h>  (9) 
<NA>

>  <Training>  (9) 
True

>  <Success>  (9) 
True

>  <enamine_searched>  (9) 
False

>  <enamine_id>  (9) 
nan

$$$$

     RDKit          3D

 41 43  0  0  0  0  0  0  0  0999 V2000
   -8.3111   -7.3328  -23.4977 C   0  0  0  0  0  0  0  0  0  0  0  0
   -8.1226   -5.8255  -23.7171 C   0  0  1  0  0  0  0  0  0  0  0  0
   -9.1576   -4.9973  -22.9927 C   0  0  0  0  0  0  0  0  0  0  0  0
   -9.2948   -3.6735  -23.0629 C   0  0  0  0  0  0  0  0  0  0  0  0
   -8.2780   -2.7374  -23.6610 C   0  0  0  0  0  0  0  0  0  0  0  0
   -6.9080   -2.9510  -23.2146 N   0  0  0  0  0  0  0  0  0  0  0  0
   -6.4991   -2.5380  -21.9647 C   0  0  0  0  0  0  0  0  0  0  0  0
   -5.4938   -2.9816  -21.4323 O   0  0  0  0  0  0  0  0  0  0  0  0
   -7.3459   -1.4506  -21.2809 C   0  0  0  0  0  0  0  0  0  0  0  0
   -6.6135   -0.7859  -20.1624 C   0  0  0  0  0  0  0  0  0  0  0  0
   -6.8958   -1.0826  -18.8573 C   0  0  0  0  0  0  0  0  0  0  0  0
   -6.2294   -0.5921  -17.7810 N   0  0  0  0  0  0  0  0  0  0  0  0
   -5.2091    0.1973  -18.0304 C   0  0  0  0  0  0  0  0  0  0  0  0
   -4.7945    0.5772  -19.3372 C   0  0  0  0  0  0  0  0  0  0  0  0
   -3.6702    1.4159  -19.5581 C   0  0  0  0  0  0  0  0  0  0  0  0
   -3.3568    1.8364  -20.8224 C   0  0  0  0  0  0  0  0  0  0  0  0
   -4.1678    1.4656  -21.9176 C   0  0  0  0  0  0  0  0  0  0  0  0
   -5.2455    0.6304  -21.7332 C   0  0  0  0  0  0  0  0  0  0  0  0
   -5.5566    0.1302  -20.4380 C   0  0  0  0  0  0  0  0  0  0  0  0
   -5.8537    0.3492  -22.5876 H   0  0  0  0  0  0  0  0  0  0  0  0
   -3.9245    1.8281  -22.9128 H   0  0  0  0  0  0  0  0  0  0  0  0
   -2.4964    2.4799  -20.9891 H   0  0  0  0  0  0  0  0  0  0  0  0
   -3.0841    1.7368  -18.7008 H   0  0  0  0  0  0  0  0  0  0  0  0
   -4.6585    0.5771  -17.1707 H   0  0  0  0  0  0  0  0  0  0  0  0
   -7.7074   -1.7716  -18.6196 H   0  0  0  0  0  0  0  0  0  0  0  0
   -8.2697   -1.9084  -20.9011 H   0  0  0  0  0  0  0  0  0  0  0  0
   -7.6424   -0.6959  -22.0160 H   0  0  0  0  0  0  0  0  0  0  0  0
   -6.2143   -4.0834  -23.8210 C   0  0  0  0  0  0  0  0  0  0  0  0
   -6.6825   -5.4488  -23.3269 C   0  0  0  0  0  0  0  0  0  0  0  0
   -6.0067   -6.2160  -23.7316 H   0  0  0  0  0  0  0  0  0  0  0  0
   -6.5795   -5.4837  -22.2371 H   0  0  0  0  0  0  0  0  0  0  0  0
   -6.3759   -4.0218  -24.9043 H   0  0  0  0  0  0  0  0  0  0  0  0
   -5.1449   -3.9749  -23.6391 H   0  0  0  0  0  0  0  0  0  0  0  0
   -8.2618   -2.7836  -24.7550 H   0  0  0  0  0  0  0  0  0  0  0  0
   -8.5841   -1.7232  -23.4213 H   0  0  0  0  0  0  0  0  0  0  0  0
  -10.1833   -3.2098  -22.6289 H   0  0  0  0  0  0  0  0  0  0  0  0
   -9.8449   -5.5261  -22.3490 H   0  0  0  0  0  0  0  0  0  0  0  0
   -8.2520   -5.6242  -24.7921 H   0  0  0  0  0  0  0  0  0  0  0  0
   -8.4962   -7.5510  -22.4404 H   0  0  0  0  0  0  0  0  0  0  0  0
   -9.1483   -7.7367  -24.0805 H   0  0  0  0  0  0  0  0  0  0  0  0
   -7.3995   -7.8776  -23.7792 H   0  0  0  0  0  0  0  0  0  0  0  0
  1  2  1  0
  2  3  1  0
  3  4  2  0
  4  5  1  0
  5  6  1  0
  6  7  1  0
  7  8  2  0
  7  9  1  0
  9 10  1  0
 10 11  2  0
 11 12  1  0
 12 13  2  0
 13 14  1  0
 14 15  2  0
 15 16  1  0
 16 17  2  0
 17 18  1  0
 18 19  2  0
 18 20  1  0
 17 21  1  0
 16 22  1  0
 15 23  1  0
 13 24  1  0
 11 25  1  0
  9 26  1  0
  9 27  1  0
  6 28  1  0
 28 29  1  0
 29 30  1  0
 29 31  1  0
 28 32  1  0
 28 33  1  0
  5 34  1  0
  5 35  1  0
  4 36  1  0
  3 37  1  0
  2 38  1  6
  1 39  1  0
  1 40  1  0
  1 41  1  0
 29  2  1  0
 19 10  1  0
 19 14  1  0
M  END
>  <cnnaffinities>  (10) 
[4.26157]

>  <score>  (10) 
4.26157

>  <index>  (10) 
9

>  <Smiles>  (10) 
C([C@]1(C(=C(C(N(C(=O)C(c2c(nc(c3c(c(c(c(c23)[H])[H])[H])[H])[H])[H])([H])[H])C(C1([H])[H])([H])[H])([H])[H])[H])[H])[H])([H])([H])[H]

>  <h>  (10) 
<NA>

>  <Training>  (10) 
True

>  <Success>  (10) 
True

>  <enamine_searched>  (10) 
False

>  <enamine_id>  (10) 
nan

$$$$

     RDKit          3D

 57 62  0  0  0  0  0  0  0  0999 V2000
  -10.1911   -2.9595  -22.0685 C   0  0  0  0  0  0  0  0  0  0  0  0
   -9.1452   -1.9780  -22.6238 C   0  0  1  0  0  0  0  0  0  0  0  0
   -8.7080   -0.9722  -21.5454 C   0  0  0  0  0  0  0  0  0  0  0  0
   -7.3807   -1.3919  -21.1753 N   0  0  0  0  0  0  0  0  0  0  0  0
   -6.6189   -0.7803  -20.1641 C   0  0  0  0  0  0  0  0  0  0  0  0
   -6.9250   -1.0375  -18.8556 C   0  0  0  0  0  0  0  0  0  0  0  0
   -6.2365   -0.5470  -17.7999 N   0  0  0  0  0  0  0  0  0  0  0  0
   -5.2037    0.2165  -18.0721 C   0  0  0  0  0  0  0  0  0  0  0  0
   -4.7881    0.5624  -19.3903 C   0  0  0  0  0  0  0  0  0  0  0  0
   -3.6567    1.3860  -19.6113 C   0  0  0  0  0  0  0  0  0  0  0  0
   -3.3178    1.7714  -20.8772 C   0  0  0  0  0  0  0  0  0  0  0  0
   -4.1051    1.3671  -21.9804 C   0  0  0  0  0  0  0  0  0  0  0  0
   -5.1868    0.5368  -21.8037 C   0  0  0  0  0  0  0  0  0  0  0  0
   -5.5370    0.0926  -20.4895 C   0  0  0  0  0  0  0  0  0  0  0  0
   -5.7568    0.2034  -22.6739 H   0  0  0  0  0  0  0  0  0  0  0  0
   -3.8307    1.7049  -22.9762 H   0  0  0  0  0  0  0  0  0  0  0  0
   -2.4564    2.4132  -21.0389 H   0  0  0  0  0  0  0  0  0  0  0  0
   -3.0968    1.7256  -18.7444 H   0  0  0  0  0  0  0  0  0  0  0  0
   -4.6381    0.6065  -17.2260 H   0  0  0  0  0  0  0  0  0  0  0  0
   -7.7631   -1.6966  -18.6311 H   0  0  0  0  0  0  0  0  0  0  0  0
   -6.8205   -2.3472  -21.9832 C   0  0  0  0  0  0  0  0  0  0  0  0
   -5.7350   -2.8467  -21.7832 O   0  0  0  0  0  0  0  0  0  0  0  0
   -7.8147   -2.6190  -23.1310 C   0  0  1  0  0  0  0  0  0  0  0  0
   -7.9118   -4.1294  -23.3308 C   0  0  0  0  0  0  0  0  0  0  0  0
   -6.6460   -4.6376  -23.8371 N   0  0  0  0  0  0  0  0  0  0  0  0
   -6.2700   -5.9898  -23.4327 C   0  0  0  0  0  0  0  0  0  0  0  0
   -7.1457   -7.0107  -24.1091 C   0  0  0  0  0  0  0  0  0  0  0  0
   -7.0865   -7.4158  -25.4022 C   0  0  0  0  0  0  0  0  0  0  0  0
   -8.2871   -8.0288  -25.6971 N   0  0  0  0  0  4  0  0  0  0  0  0
   -9.0765   -7.9744  -24.6179 C   0  0  0  0  0  0  0  0  0  0  0  0
   -8.3996   -7.3846  -23.6155 N   0  0  0  0  0  0  0  0  0  0  0  0
   -8.7689   -7.1561  -22.6906 H   0  0  0  0  0  0  0  0  0  0  0  0
  -10.1011   -8.2960  -24.6160 H   0  0  0  0  0  0  0  0  0  0  0  0
   -8.5019   -8.4947  -26.5755 H   0  0  0  0  0  0  0  0  0  0  0  0
   -6.3131   -7.2677  -26.1504 H   0  0  0  0  0  0  0  0  0  0  0  0
   -5.2233   -6.1285  -23.7132 H   0  0  0  0  0  0  0  0  0  0  0  0
   -6.3341   -6.0334  -22.3362 H   0  0  0  0  0  0  0  0  0  0  0  0
   -6.1700   -4.1729  -25.0380 C   0  0  0  0  0  0  0  0  0  0  0  0
   -5.4421   -4.8355  -25.7663 O   0  0  0  0  0  0  0  0  0  0  0  0
   -6.5792   -2.7718  -25.3567 C   0  0  0  0  0  0  0  0  0  0  0  0
   -6.1678   -2.2391  -26.5758 C   0  0  0  0  0  0  0  0  0  0  0  0
   -6.4012   -0.9171  -26.8827 C   0  0  0  0  0  0  0  0  0  0  0  0
   -7.0722   -0.1471  -25.9424 C   0  0  0  0  0  0  0  0  0  0  0  0
   -7.2818    1.1505  -26.2233 F   0  0  0  0  0  0  0  0  0  0  0  0
   -7.5346   -0.6623  -24.7449 C   0  0  0  0  0  0  0  0  0  0  0  0
   -7.3116   -2.0094  -24.4379 C   0  0  0  0  0  0  0  0  0  0  0  0
   -8.0826   -0.0037  -24.0812 H   0  0  0  0  0  0  0  0  0  0  0  0
   -6.0592   -0.4800  -27.8122 H   0  0  0  0  0  0  0  0  0  0  0  0
   -5.6505   -2.8997  -27.2600 H   0  0  0  0  0  0  0  0  0  0  0  0
   -8.1197   -4.6125  -22.3757 H   0  0  0  0  0  0  0  0  0  0  0  0
   -8.7388   -4.3454  -24.0266 H   0  0  0  0  0  0  0  0  0  0  0  0
   -8.7195    0.0659  -21.9019 H   0  0  0  0  0  0  0  0  0  0  0  0
   -9.3667   -1.0102  -20.6853 H   0  0  0  0  0  0  0  0  0  0  0  0
   -9.6321   -1.4584  -23.4553 H   0  0  0  0  0  0  0  0  0  0  0  0
  -11.0634   -2.4061  -21.7050 H   0  0  0  0  0  0  0  0  0  0  0  0
  -10.5430   -3.6482  -22.8432 H   0  0  0  0  0  0  0  0  0  0  0  0
   -9.8034   -3.5541  -21.2329 H   0  0  0  0  0  0  0  0  0  0  0  0
  1  2  1  0
  2  3  1  0
  3  4  1  0
  4  5  1  0
  5  6  2  0
  6  7  1  0
  7  8  2  0
  8  9  1  0
  9 10  2  0
 10 11  1  0
 11 12  2  0
 12 13  1  0
 13 14  2  0
 13 15  1  0
 12 16  1  0
 11 17  1  0
 10 18  1  0
  8 19  1  0
  6 20  1  0
  4 21  1  0
 21 22  2  0
 21 23  1  0
 23 24  1  6
 24 25  1  0
 25 26  1  0
 26 27  1  0
 27 28  2  0
 28 29  1  0
 29 30  2  0
 30 31  1  0
 31 32  1  0
 30 33  1  0
 29 34  1  0
 28 35  1  0
 26 36  1  0
 26 37  1  0
 25 38  1  0
 38 39  2  0
 38 40  1  0
 40 41  2  0
 41 42  1  0
 42 43  2  0
 43 44  1  0
 43 45  1  0
 45 46  2  0
 45 47  1  0
 42 48  1  0
 41 49  1  0
 24 50  1  0
 24 51  1  0
  3 52  1  0
  3 53  1  0
  2 54  1  6
  1 55  1  0
  1 56  1  0
  1 57  1  0
 23  2  1  0
 31 27  1  0
 46 40  1  0
 14  5  1  0
 46 23  1  0
 14  9  1  0
M  CHG  1  29   1
M  END
>  <cnnaffinities>  (11) 
[5.3986, 5.6244]

>  <score>  (11) 
5.3986

>  <index>  (11) 
10

>  <Smiles>  (11) 
C([C@]1(C(N(c2c(nc(c3c(c(c(c(c23)[H])[H])[H])[H])[H])[H])C(=O)[C@]21C(N(C(c1c([n+](c(n1[H])[H])[H])[H])([H])[H])C(=O)c1c(c(c(F)c(c21)[H])[H])[H])([H])[H])([H])[H])[H])([H])([H])[H]

>  <h>  (11) 
<NA>

>  <Training>  (11) 
True

>  <Success>  (11) 
True

>  <enamine_searched>  (11) 
False

>  <enamine_id>  (11) 
nan

$$$$

     RDKit          3D

 48 52  0  0  0  0  0  0  0  0999 V2000
  -10.1252   -0.8052  -23.6514 C   0  0  0  0  0  0  0  0  0  0  0  0
   -9.1133   -1.2894  -22.7404 N   0  0  0  0  0  0  0  0  0  0  0  0
   -8.4047   -0.4147  -21.9709 C   0  0  0  0  0  0  0  0  0  0  0  0
   -8.5212    0.7871  -21.9210 O   0  0  0  0  0  0  0  0  0  0  0  0
   -7.4794   -1.1811  -21.2552 N   0  0  0  0  0  0  0  0  0  0  0  0
   -6.6837   -0.6651  -20.2074 C   0  0  0  0  0  0  0  0  0  0  0  0
   -6.9680   -1.0109  -18.9130 C   0  0  0  0  0  0  0  0  0  0  0  0
   -6.2652   -0.5718  -17.8400 N   0  0  0  0  0  0  0  0  0  0  0  0
   -5.2423    0.2171  -18.0700 C   0  0  0  0  0  0  0  0  0  0  0  0
   -4.8357    0.6298  -19.3733 C   0  0  0  0  0  0  0  0  0  0  0  0
   -3.6927    1.4430  -19.5814 C   0  0  0  0  0  0  0  0  0  0  0  0
   -3.3474    1.8444  -20.8431 C   0  0  0  0  0  0  0  0  0  0  0  0
   -4.1477    1.4888  -21.9527 C   0  0  0  0  0  0  0  0  0  0  0  0
   -5.2608    0.7062  -21.7774 C   0  0  0  0  0  0  0  0  0  0  0  0
   -5.6068    0.2255  -20.4824 C   0  0  0  0  0  0  0  0  0  0  0  0
   -5.9015    0.4750  -22.6225 H   0  0  0  0  0  0  0  0  0  0  0  0
   -3.8810    1.8412  -22.9470 H   0  0  0  0  0  0  0  0  0  0  0  0
   -2.4744    2.4709  -21.0020 H   0  0  0  0  0  0  0  0  0  0  0  0
   -3.1287    1.7574  -18.7084 H   0  0  0  0  0  0  0  0  0  0  0  0
   -4.6783    0.5721  -17.2036 H   0  0  0  0  0  0  0  0  0  0  0  0
   -7.8150   -1.6644  -18.7094 H   0  0  0  0  0  0  0  0  0  0  0  0
   -7.6117   -2.5355  -21.5259 C   0  0  0  0  0  0  0  0  0  0  0  0
   -6.8571   -3.3970  -21.1551 O   0  0  0  0  0  0  0  0  0  0  0  0
   -8.8310   -2.6662  -22.4152 C   0  0  0  0  0  0  0  0  0  0  0  0
   -9.9974   -3.5442  -21.8842 C   0  0  0  0  0  0  0  0  0  0  0  0
   -9.8852   -4.4209  -23.0798 N   0  0  0  0  0  0  0  0  0  0  0  0
  -11.1780   -4.3971  -24.1736 S   0  0  0  0  0  0  0  0  0  0  0  0
  -11.1821   -3.1319  -24.8969 O   0  0  0  0  0  0  0  0  0  0  0  0
  -12.3684   -4.8045  -23.4574 O   0  0  0  0  0  0  0  0  0  0  0  0
  -10.6053   -5.6643  -25.2783 C   0  0  0  0  0  0  0  0  0  0  0  0
  -10.9606   -5.5855  -26.6181 C   0  0  0  0  0  0  0  0  0  0  0  0
  -10.5502   -6.5856  -27.4914 C   0  0  0  0  0  0  0  0  0  0  0  0
   -9.7452   -7.6200  -27.0260 C   0  0  0  0  0  0  0  0  0  0  0  0
   -9.3408   -7.6462  -25.6978 C   0  0  0  0  0  0  0  0  0  0  0  0
   -9.7881   -6.6856  -24.8030 C   0  0  0  0  0  0  0  0  0  0  0  0
   -9.4908   -6.7170  -23.7569 H   0  0  0  0  0  0  0  0  0  0  0  0
   -8.6658   -8.4229  -25.3678 H   0  0  0  0  0  0  0  0  0  0  0  0
   -9.4204   -8.4166  -27.6886 H   0  0  0  0  0  0  0  0  0  0  0  0
  -10.8683   -6.5492  -28.5271 H   0  0  0  0  0  0  0  0  0  0  0  0
  -11.5291   -4.7339  -26.9592 H   0  0  0  0  0  0  0  0  0  0  0  0
   -8.6631   -3.7161  -23.5246 C   0  0  0  0  0  0  0  0  0  0  0  0
   -8.6406   -3.3700  -24.5590 H   0  0  0  0  0  0  0  0  0  0  0  0
   -7.8029   -4.3506  -23.3131 H   0  0  0  0  0  0  0  0  0  0  0  0
   -9.7373   -4.0940  -20.9794 H   0  0  0  0  0  0  0  0  0  0  0  0
  -10.9578   -3.0453  -21.7573 H   0  0  0  0  0  0  0  0  0  0  0  0
  -11.1274   -1.0174  -23.2711 H   0  0  0  0  0  0  0  0  0  0  0  0
   -9.9889   -1.2656  -24.6271 H   0  0  0  0  0  0  0  0  0  0  0  0
  -10.0008    0.2749  -23.7209 H   0  0  0  0  0  0  0  0  0  0  0  0
  1  2  1  0
  2  3  1  0
  3  4  2  0
  3  5  1  0
  5  6  1  0
  6  7  2  0
  7  8  1  0
  8  9  2  0
  9 10  1  0
 10 11  2  0
 11 12  1  0
 12 13  2  0
 13 14  1  0
 14 15  2  0
 14 16  1  0
 13 17  1  0
 12 18  1  0
 11 19  1  0
  9 20  1  0
  7 21  1  0
  5 22  1  0
 22 23  2  0
 22 24  1  0
 24 25  1  0
 25 26  1  0
 26 27  1  0
 27 28  2  0
 27 29  2  0
 27 30  1  0
 30 31  2  0
 31 32  1  0
 32 33  2  0
 33 34  1  0
 34 35  2  0
 35 36  1  0
 34 37  1  0
 33 38  1  0
 32 39  1  0
 31 40  1  0
 26 41  1  0
 41 42  1  0
 41 43  1  0
 25 44  1  0
 25 45  1  0
  1 46  1  0
  1 47  1  0
  1 48  1  0
 24  2  1  0
 35 30  1  0
 15  6  1  0
 41 24  1  0
 15 10  1  0
M  END
>  <cnnaffinities>  (12) 
[5.72273, 5.19353, 5.14339, 5.14889, 5.15377, 5.19172]

>  <score>  (12) 
5.72273

>  <index>  (12) 
11

>  <Smiles>  (12) 
C(N1C(=O)N(c2c(nc(c3c(c(c(c(c23)[H])[H])[H])[H])[H])[H])C(=O)C21C(N(S(=O)(=O)c1c(c(c(c(c1[H])[H])[H])[H])[H])C2([H])[H])([H])[H])([H])([H])[H]

>  <h>  (12) 
<NA>

>  <Training>  (12) 
True

>  <Success>  (12) 
True

>  <enamine_searched>  (12) 
False

>  <enamine_id>  (12) 
nan

$$$$

     RDKit          3D

 76 82  0  0  0  0  0  0  0  0999 V2000
  -11.3952    1.5234  -24.1555 O   0  0  0  0  0  0  0  0  0  0  0  0
  -10.7400    0.5149  -23.9283 C   0  0  0  0  0  0  0  0  0  0  0  0
  -11.3630   -0.7008  -23.2924 C   0  0  0  0  0  0  0  0  0  0  0  0
  -12.7522   -0.7232  -23.1879 C   0  0  0  0  0  0  0  0  0  0  0  0
  -13.3864   -1.7018  -22.4465 C   0  0  0  0  0  0  0  0  0  0  0  0
  -12.6050   -2.6889  -21.8486 C   0  0  0  0  0  0  0  0  0  0  0  0
  -13.3321   -3.8200  -20.7398 Cl  0  0  0  0  0  0  0  0  0  0  0  0
  -11.2391   -2.7605  -22.0562 C   0  0  0  0  0  0  0  0  0  0  0  0
  -10.5869   -1.7520  -22.7782 C   0  0  0  0  0  0  0  0  0  0  0  0
   -9.0798   -1.6503  -22.8393 C   0  0  1  0  0  0  0  0  0  0  0  0
   -8.7308   -0.8593  -24.1347 C   0  0  0  0  0  0  0  0  0  0  0  0
   -9.4093    0.4225  -24.2065 N   0  0  0  0  0  0  0  0  0  0  0  0
   -8.6744    1.6350  -24.5199 C   0  0  0  0  0  0  0  0  0  0  0  0
   -8.1163    2.2594  -23.2495 C   0  0  0  0  0  0  0  0  0  0  0  0
   -7.2501    3.4258  -23.4946 N   0  0  0  0  0  4  0  0  0  0  0  0
   -6.0682    3.1378  -24.3982 C   0  0  0  0  0  0  0  0  0  0  0  0
   -5.0505    4.2721  -24.2397 C   0  0  0  0  0  0  0  0  0  0  0  0
   -5.7384    5.4515  -23.8755 O   0  0  0  0  0  0  0  0  0  0  0  0
   -6.1193    5.3896  -22.5128 C   0  0  0  0  0  0  0  0  0  0  0  0
   -6.8129    4.0528  -22.2043 C   0  0  0  0  0  0  0  0  0  0  0  0
   -7.6936    4.1958  -21.5723 H   0  0  0  0  0  0  0  0  0  0  0  0
   -6.1369    3.3576  -21.6917 H   0  0  0  0  0  0  0  0  0  0  0  0
   -5.2418    5.5181  -21.8597 H   0  0  0  0  0  0  0  0  0  0  0  0
   -6.7922    6.2351  -22.3517 H   0  0  0  0  0  0  0  0  0  0  0  0
   -4.2936    4.0214  -23.4782 H   0  0  0  0  0  0  0  0  0  0  0  0
   -4.5362    4.4706  -25.1840 H   0  0  0  0  0  0  0  0  0  0  0  0
   -6.4253    3.1016  -25.4303 H   0  0  0  0  0  0  0  0  0  0  0  0
   -5.6449    2.1643  -24.1382 H   0  0  0  0  0  0  0  0  0  0  0  0
   -7.8109    4.1489  -23.9809 H   0  0  0  0  0  0  0  0  0  0  0  0
   -7.5409    1.5101  -22.7016 H   0  0  0  0  0  0  0  0  0  0  0  0
   -8.9448    2.5580  -22.5978 H   0  0  0  0  0  0  0  0  0  0  0  0
   -9.3594    2.3317  -25.0051 H   0  0  0  0  0  0  0  0  0  0  0  0
   -7.8701    1.3939  -25.2258 H   0  0  0  0  0  0  0  0  0  0  0  0
   -9.0393   -1.4667  -24.9940 H   0  0  0  0  0  0  0  0  0  0  0  0
   -7.6536   -0.6808  -24.1876 H   0  0  0  0  0  0  0  0  0  0  0  0
   -8.5934   -0.8944  -21.5881 C   0  0  0  0  0  0  0  0  0  0  0  0
   -9.1605    0.0143  -21.0116 O   0  0  0  0  0  0  0  0  0  0  0  0
   -7.3762   -1.4105  -21.2115 N   0  0  0  0  0  0  0  0  0  0  0  0
   -6.6214   -0.7934  -20.1863 C   0  0  0  0  0  0  0  0  0  0  0  0
   -6.9385   -1.0470  -18.8761 C   0  0  0  0  0  0  0  0  0  0  0  0
   -6.2481   -0.5644  -17.8145 N   0  0  0  0  0  0  0  0  0  0  0  0
   -5.2139    0.2012  -18.0707 C   0  0  0  0  0  0  0  0  0  0  0  0
   -4.7878    0.5640  -19.3817 C   0  0  0  0  0  0  0  0  0  0  0  0
   -3.6636    1.4046  -19.5938 C   0  0  0  0  0  0  0  0  0  0  0  0
   -3.3146    1.7945  -20.8588 C   0  0  0  0  0  0  0  0  0  0  0  0
   -4.0907    1.3851  -21.9633 C   0  0  0  0  0  0  0  0  0  0  0  0
   -5.1702    0.5489  -21.7859 C   0  0  0  0  0  0  0  0  0  0  0  0
   -5.5326    0.0882  -20.4869 C   0  0  0  0  0  0  0  0  0  0  0  0
   -5.7423    0.2163  -22.6489 H   0  0  0  0  0  0  0  0  0  0  0  0
   -3.8024    1.7116  -22.9617 H   0  0  0  0  0  0  0  0  0  0  0  0
   -2.4401    2.4202  -21.0156 H   0  0  0  0  0  0  0  0  0  0  0  0
   -3.1120    1.7451  -18.7225 H   0  0  0  0  0  0  0  0  0  0  0  0
   -4.6589    0.5903  -17.2171 H   0  0  0  0  0  0  0  0  0  0  0  0
   -7.7863   -1.6879  -18.6477 H   0  0  0  0  0  0  0  0  0  0  0  0
   -6.9492   -2.5505  -22.0028 C   0  0  0  0  0  0  0  0  0  0  0  0
   -8.2629   -2.9628  -22.6832 C   0  0  2  0  0  0  0  0  0  0  0  0
   -8.0945   -3.8685  -23.9030 C   0  0  0  0  0  0  0  0  0  0  0  0
   -7.1405   -3.3715  -24.8832 N   0  0  0  0  0  0  0  0  0  0  0  0
   -7.3817   -3.3360  -26.2238 C   0  0  0  0  0  0  0  0  0  0  0  0
   -6.3365   -3.0045  -27.0122 N   0  0  0  0  0  0  0  0  0  0  0  0
   -6.6286   -2.8384  -28.2938 C   0  0  0  0  0  0  0  0  0  0  0  0
   -7.8999   -3.0358  -28.8131 C   0  0  0  0  0  0  0  0  0  0  0  0
   -8.8695   -3.4541  -27.9258 C   0  0  0  0  0  0  0  0  0  0  0  0
   -8.6311   -3.5934  -26.6228 N   0  0  0  0  0  0  0  0  0  0  0  0
   -9.8793   -3.6817  -28.2591 H   0  0  0  0  0  0  0  0  0  0  0  0
   -8.1167   -2.8540  -29.8502 H   0  0  0  0  0  0  0  0  0  0  0  0
   -5.8067   -2.5260  -28.9371 H   0  0  0  0  0  0  0  0  0  0  0  0
   -6.1618   -3.3649  -24.6536 H   0  0  0  0  0  0  0  0  0  0  0  0
   -7.7762   -4.8648  -23.5715 H   0  0  0  0  0  0  0  0  0  0  0  0
   -9.0531   -3.9732  -24.4134 H   0  0  0  0  0  0  0  0  0  0  0  0
   -8.7959   -3.5410  -21.9236 H   0  0  0  0  0  0  0  0  0  0  0  0
   -6.1705   -2.2597  -22.7199 H   0  0  0  0  0  0  0  0  0  0  0  0
   -6.5351   -3.3439  -21.3683 H   0  0  0  0  0  0  0  0  0  0  0  0
  -10.7231   -3.6145  -21.6328 H   0  0  0  0  0  0  0  0  0  0  0  0
  -14.4644   -1.7151  -22.3186 H   0  0  0  0  0  0  0  0  0  0  0  0
  -13.3210    0.0490  -23.6937 H   0  0  0  0  0  0  0  0  0  0  0  0
  1  2  2  0
  2  3  1  0
  3  4  2  0
  4  5  1  0
  5  6  2  0
  6  7  1  0
  6  8  1  0
  8  9  2  0
  9 10  1  0
 10 11  1  6
 11 12  1  0
 12 13  1  0
 13 14  1  0
 14 15  1  0
 15 16  1  0
 16 17  1  0
 17 18  1  0
 18 19  1  0
 19 20  1  0
 20 21  1  0
 20 22  1  0
 19 23  1  0
 19 24  1  0
 17 25  1  0
 17 26  1  0
 16 27  1  0
 16 28  1  0
 15 29  1  0
 14 30  1  0
 14 31  1  0
 13 32  1  0
 13 33  1  0
 11 34  1  0
 11 35  1  0
 10 36  1  0
 36 37  2  0
 36 38  1  0
 38 39  1  0
 39 40  2  0
 40 41  1  0
 41 42  2  0
 42 43  1  0
 43 44  2  0
 44 45  1  0
 45 46  2  0
 46 47  1  0
 47 48  2  0
 47 49  1  0
 46 50  1  0
 45 51  1  0
 44 52  1  0
 42 53  1  0
 40 54  1  0
 38 55  1  0
 55 56  1  0
 56 57  1  0
 57 58  1  0
 58 59  1  0
 59 60  2  0
 60 61  1  0
 61 62  2  0
 62 63  1  0
 63 64  2  0
 63 65  1  0
 62 66  1  0
 61 67  1  0
 58 68  1  0
 57 69  1  0
 57 70  1  0
 56 71  1  1
 55 72  1  0
 55 73  1  0
  8 74  1  0
  5 75  1  0
  4 76  1  0
 12  2  1  0
 20 15  1  0
 48 39  1  0
 64 59  1  0
  9  3  1  0
 56 10  1  0
 48 43  1  0
M  CHG  1  15   1
M  END
>  <cnnaffinities>  (13) 
[6.24434, 5.63692, 5.50535]

>  <score>  (13) 
6.24434

>  <index>  (13) 
12

>  <Smiles>  (13) 
O=C1c2c(c(c(Cl)c(c2[C@@]2(C(N1C(C([N+]1(C(C(OC(C1([H])[H])([H])[H])([H])[H])([H])[H])[H])([H])[H])([H])[H])([H])[H])C(=O)N(c1c(nc(c3c(c(c(c(c13)[H])[H])[H])[H])[H])[H])C([C@@]2(C(N(c1nc(c(c(n1)[H])[H])[H])[H])([H])[H])[H])([H])[H])[H])[H])[H]

>  <h>  (13) 
<NA>

>  <Training>  (13) 
True

>  <Success>  (13) 
True

>  <enamine_searched>  (13) 
False

>  <enamine_id>  (13) 
nan

$$$$

     RDKit          3D

 69 74  0  0  0  0  0  0  0  0999 V2000
   -7.4536    3.4248  -21.9242 C   0  0  0  0  0  0  0  0  0  0  0  0
   -8.4987    2.9421  -22.8183 N   0  0  0  0  0  0  0  0  0  0  0  0
   -8.0768    2.1458  -23.8513 C   0  0  0  0  0  0  0  0  0  0  0  0
   -6.8997    1.8854  -24.0345 O   0  0  0  0  0  0  0  0  0  0  0  0
   -9.1529    1.5619  -24.7658 C   0  0  0  0  0  0  0  0  0  0  0  0
   -9.7379    0.3965  -24.1340 N   0  0  0  0  0  0  0  0  0  0  0  0
   -8.9477   -0.8250  -24.0633 C   0  0  0  0  0  0  0  0  0  0  0  0
   -9.2240   -1.6030  -22.7532 C   0  0  2  0  0  0  0  0  0  0  0  0
   -8.6427   -0.8073  -21.5597 C   0  0  0  0  0  0  0  0  0  0  0  0
   -9.1216    0.1784  -21.0304 O   0  0  0  0  0  0  0  0  0  0  0  0
   -7.4422   -1.3769  -21.2001 N   0  0  0  0  0  0  0  0  0  0  0  0
   -6.6451   -0.7923  -20.1815 C   0  0  0  0  0  0  0  0  0  0  0  0
   -6.9394   -1.0508  -18.8658 C   0  0  0  0  0  0  0  0  0  0  0  0
   -6.2347   -0.5772  -17.8104 N   0  0  0  0  0  0  0  0  0  0  0  0
   -5.2068    0.1949  -18.0718 C   0  0  0  0  0  0  0  0  0  0  0  0
   -4.8055    0.5670  -19.3865 C   0  0  0  0  0  0  0  0  0  0  0  0
   -3.6754    1.3955  -19.6141 C   0  0  0  0  0  0  0  0  0  0  0  0
   -3.3342    1.7684  -20.8857 C   0  0  0  0  0  0  0  0  0  0  0  0
   -4.1169    1.3514  -21.9850 C   0  0  0  0  0  0  0  0  0  0  0  0
   -5.2010    0.5226  -21.7947 C   0  0  0  0  0  0  0  0  0  0  0  0
   -5.5591    0.0888  -20.4869 C   0  0  0  0  0  0  0  0  0  0  0  0
   -5.7951    0.2241  -22.6536 H   0  0  0  0  0  0  0  0  0  0  0  0
   -3.8566    1.6798  -22.9879 H   0  0  0  0  0  0  0  0  0  0  0  0
   -2.4585    2.3886  -21.0533 H   0  0  0  0  0  0  0  0  0  0  0  0
   -3.0998    1.7246  -18.7529 H   0  0  0  0  0  0  0  0  0  0  0  0
   -4.6253    0.5632  -17.2252 H   0  0  0  0  0  0  0  0  0  0  0  0
   -7.7921   -1.6819  -18.6293 H   0  0  0  0  0  0  0  0  0  0  0  0
   -7.0912   -2.5506  -21.9832 C   0  0  0  0  0  0  0  0  0  0  0  0
   -8.4062   -2.9265  -22.6862 C   0  0  2  0  0  0  0  0  0  0  0  0
   -8.1635   -3.6815  -23.9980 C   0  0  0  0  0  0  0  0  0  0  0  0
   -9.4013   -4.0923  -24.6193 N   0  0  0  0  0  0  0  0  0  0  0  0
   -9.4279   -4.7450  -25.8136 C   0  0  0  0  0  0  0  0  0  0  0  0
  -10.6462   -5.1829  -26.3705 C   0  0  0  0  0  0  0  0  0  0  0  0
  -10.5792   -5.7827  -27.6077 C   0  0  0  0  0  0  0  0  0  0  0  0
   -9.4276   -5.9765  -28.2687 N   0  0  0  0  0  0  0  0  0  0  0  0
   -8.3269   -5.5577  -27.6446 C   0  0  0  0  0  0  0  0  0  0  0  0
   -7.0275   -5.8171  -28.3645 C   0  0  0  0  0  0  0  0  0  0  0  0
   -7.2093   -5.7693  -29.4443 H   0  0  0  0  0  0  0  0  0  0  0  0
   -6.6717   -6.8312  -28.1320 H   0  0  0  0  0  0  0  0  0  0  0  0
   -6.2557   -5.0961  -28.0727 H   0  0  0  0  0  0  0  0  0  0  0  0
   -8.2618   -4.9487  -26.4493 N   0  0  0  0  0  0  0  0  0  0  0  0
  -11.4805   -6.1305  -28.1158 H   0  0  0  0  0  0  0  0  0  0  0  0
  -11.5907   -5.0595  -25.8452 H   0  0  0  0  0  0  0  0  0  0  0  0
  -10.2769   -3.9591  -24.1276 H   0  0  0  0  0  0  0  0  0  0  0  0
   -7.5474   -4.5689  -23.8026 H   0  0  0  0  0  0  0  0  0  0  0  0
   -7.6013   -3.0617  -24.7129 H   0  0  0  0  0  0  0  0  0  0  0  0
   -8.9465   -3.6086  -22.0209 H   0  0  0  0  0  0  0  0  0  0  0  0
   -6.3012   -2.3280  -22.7176 H   0  0  0  0  0  0  0  0  0  0  0  0
   -6.7332   -3.3631  -21.3431 H   0  0  0  0  0  0  0  0  0  0  0  0
  -10.7285   -1.7512  -22.6076 C   0  0  0  0  0  0  0  0  0  0  0  0
  -11.2960   -2.7630  -21.8254 C   0  0  0  0  0  0  0  0  0  0  0  0
  -12.6600   -2.7814  -21.5954 C   0  0  0  0  0  0  0  0  0  0  0  0
  -13.3190   -3.9604  -20.5087 Cl  0  0  0  0  0  0  0  0  0  0  0  0
  -13.5197   -1.8403  -22.1533 C   0  0  0  0  0  0  0  0  0  0  0  0
  -12.9731   -0.8478  -22.9348 C   0  0  0  0  0  0  0  0  0  0  0  0
  -11.5983   -0.7894  -23.1441 C   0  0  0  0  0  0  0  0  0  0  0  0
  -11.0843    0.3854  -23.9087 C   0  0  0  0  0  0  0  0  0  0  0  0
  -11.8229    1.2903  -24.2849 O   0  0  0  0  0  0  0  0  0  0  0  0
  -13.5814   -0.0721  -23.3828 H   0  0  0  0  0  0  0  0  0  0  0  0
  -14.5827   -1.8809  -21.9492 H   0  0  0  0  0  0  0  0  0  0  0  0
  -10.7026   -3.5274  -21.3368 H   0  0  0  0  0  0  0  0  0  0  0  0
   -7.8867   -0.5609  -24.1348 H   0  0  0  0  0  0  0  0  0  0  0  0
   -9.1895   -1.4755  -24.9143 H   0  0  0  0  0  0  0  0  0  0  0  0
   -8.6939    1.2720  -25.7220 H   0  0  0  0  0  0  0  0  0  0  0  0
   -9.9632    2.2697  -24.9634 H   0  0  0  0  0  0  0  0  0  0  0  0
   -9.4039    2.7360  -22.4093 H   0  0  0  0  0  0  0  0  0  0  0  0
   -6.9972    2.5761  -21.3874 H   0  0  0  0  0  0  0  0  0  0  0  0
   -6.6892    3.9088  -22.5381 H   0  0  0  0  0  0  0  0  0  0  0  0
   -7.8555    4.1693  -21.2272 H   0  0  0  0  0  0  0  0  0  0  0  0
  1  2  1  0
  2  3  1  0
  3  4  2  0
  3  5  1  0
  5  6  1  0
  6  7  1  0
  8  7  1  6
  8  9  1  0
  9 10  2  0
  9 11  1  0
 11 12  1  0
 12 13  2  0
 13 14  1  0
 14 15  2  0
 15 16  1  0
 16 17  2  0
 17 18  1  0
 18 19  2  0
 19 20  1  0
 20 21  2  0
 20 22  1  0
 19 23  1  0
 18 24  1  0
 17 25  1  0
 15 26  1  0
 13 27  1  0
 11 28  1  0
 28 29  1  0
 29 30  1  0
 30 31  1  0
 31 32  1  0
 32 33  2  0
 33 34  1  0
 34 35  2  0
 35 36  1  0
 36 37  1  0
 37 38  1  0
 37 39  1  0
 37 40  1  0
 36 41  2  0
 34 42  1  0
 33 43  1  0
 31 44  1  0
 30 45  1  0
 30 46  1  0
 29 47  1  1
 28 48  1  0
 28 49  1  0
  8 50  1  0
 50 51  2  0
 51 52  1  0
 52 53  1  0
 52 54  2  0
 54 55  1  0
 55 56  2  0
 56 57  1  0
 57 58  2  0
 55 59  1  0
 54 60  1  0
 51 61  1  0
  7 62  1  0
  7 63  1  0
  5 64  1  0
  5 65  1  0
  2 66  1  0
  1 67  1  0
  1 68  1  0
  1 69  1  0
 57  6  1  0
 29  8  1  0
 41 32  1  0
 56 50  1  0
 21 12  1  0
 21 16  1  0
M  END
>  <cnnaffinities>  (14) 
[6.04505]

>  <score>  (14) 
6.04505

>  <index>  (14) 
13

>  <Smiles>  (14) 
C(N(C(=O)C(N1C([C@@]2(C(=O)N(c3c(nc(c4c(c(c(c(c34)[H])[H])[H])[H])[H])[H])C([C@@]2(C(N(c2c(c(nc(C([H])([H])[H])n2)[H])[H])[H])([H])[H])[H])([H])[H])c2c(c(Cl)c(c(c2C1=O)[H])[H])[H])([H])[H])([H])[H])[H])([H])([H])[H]

>  <h>  (14) 
<NA>

>  <Training>  (14) 
True

>  <Success>  (14) 
True

>  <enamine_searched>  (14) 
False

>  <enamine_id>  (14) 
nan

$$$$

     RDKit          3D

 73 78  0  0  0  0  0  0  0  0999 V2000
   -7.9572   -3.7300  -23.9842 C   0  0  0  0  0  0  0  0  0  0  0  0
   -8.2635   -2.8333  -22.7891 C   0  0  1  0  0  0  0  0  0  0  0  0
   -7.0550   -2.6306  -21.8615 C   0  0  0  0  0  0  0  0  0  0  0  0
   -7.3719   -1.3845  -21.1943 N   0  0  0  0  0  0  0  0  0  0  0  0
   -6.5983   -0.7906  -20.1722 C   0  0  0  0  0  0  0  0  0  0  0  0
   -6.9064   -1.0540  -18.8643 C   0  0  0  0  0  0  0  0  0  0  0  0
   -6.2170   -0.5663  -17.8063 N   0  0  0  0  0  0  0  0  0  0  0  0
   -5.2012    0.2215  -18.0716 C   0  0  0  0  0  0  0  0  0  0  0  0
   -4.7966    0.5963  -19.3862 C   0  0  0  0  0  0  0  0  0  0  0  0
   -3.6629    1.4175  -19.6129 C   0  0  0  0  0  0  0  0  0  0  0  0
   -3.3028    1.7757  -20.8831 C   0  0  0  0  0  0  0  0  0  0  0  0
   -4.0759    1.3551  -21.9865 C   0  0  0  0  0  0  0  0  0  0  0  0
   -5.1622    0.5324  -21.7948 C   0  0  0  0  0  0  0  0  0  0  0  0
   -5.5349    0.1080  -20.4843 C   0  0  0  0  0  0  0  0  0  0  0  0
   -5.7262    0.1889  -22.6583 H   0  0  0  0  0  0  0  0  0  0  0  0
   -3.8132    1.6912  -22.9880 H   0  0  0  0  0  0  0  0  0  0  0  0
   -2.4254    2.3928  -21.0444 H   0  0  0  0  0  0  0  0  0  0  0  0
   -3.0966    1.7504  -18.7501 H   0  0  0  0  0  0  0  0  0  0  0  0
   -4.6230    0.5903  -17.2258 H   0  0  0  0  0  0  0  0  0  0  0  0
   -7.7600   -1.6925  -18.6435 H   0  0  0  0  0  0  0  0  0  0  0  0
   -8.3522   -0.6500  -21.8154 C   0  0  0  0  0  0  0  0  0  0  0  0
   -8.7883    0.3955  -21.3764 O   0  0  0  0  0  0  0  0  0  0  0  0
   -8.7816   -1.4006  -23.0948 C   0  0  1  0  0  0  0  0  0  0  0  0
   -8.0831   -0.8188  -24.3544 C   0  0  0  0  0  0  0  0  0  0  0  0
   -8.5641    0.5098  -24.6736 N   0  0  0  0  0  0  0  0  0  0  0  0
   -7.6397    1.6018  -24.9123 C   0  0  0  0  0  0  0  0  0  0  0  0
   -7.5439    2.5140  -23.6906 C   0  0  0  0  0  0  0  0  0  0  0  0
   -6.4547    3.5311  -23.8387 N   0  0  0  0  0  4  0  0  0  0  0  0
   -6.7739    4.6432  -24.8219 C   0  0  0  0  0  0  0  0  0  0  0  0
   -7.7489    5.6718  -24.2377 C   0  0  0  0  0  0  0  0  0  0  0  0
   -7.3082    6.1827  -22.9400 N   0  0  0  0  0  0  0  0  0  0  0  0
   -6.5552    7.6617  -22.8417 S   0  0  0  0  0  0  0  0  0  0  0  0
   -6.0831    7.8336  -21.4789 O   0  0  0  0  0  0  0  0  0  0  0  0
   -7.4358    8.6371  -23.4619 O   0  0  0  0  0  0  0  0  0  0  0  0
   -5.1250    7.5277  -23.9085 C   0  0  0  0  0  0  0  0  0  0  0  0
   -5.4527    7.4717  -24.9482 H   0  0  0  0  0  0  0  0  0  0  0  0
   -4.5071    6.6630  -23.6636 H   0  0  0  0  0  0  0  0  0  0  0  0
   -4.5395    8.4380  -23.7728 H   0  0  0  0  0  0  0  0  0  0  0  0
   -7.0243    5.1240  -21.9731 C   0  0  0  0  0  0  0  0  0  0  0  0
   -6.0137    4.1233  -22.5239 C   0  0  0  0  0  0  0  0  0  0  0  0
   -5.0523    4.6094  -22.6947 H   0  0  0  0  0  0  0  0  0  0  0  0
   -5.8515    3.3160  -21.8080 H   0  0  0  0  0  0  0  0  0  0  0  0
   -7.9698    4.6059  -21.7702 H   0  0  0  0  0  0  0  0  0  0  0  0
   -6.6791    5.5695  -21.0410 H   0  0  0  0  0  0  0  0  0  0  0  0
   -8.7225    5.1945  -24.0861 H   0  0  0  0  0  0  0  0  0  0  0  0
   -7.9114    6.5014  -24.9265 H   0  0  0  0  0  0  0  0  0  0  0  0
   -7.1781    4.2137  -25.7401 H   0  0  0  0  0  0  0  0  0  0  0  0
   -5.8294    5.1182  -25.0881 H   0  0  0  0  0  0  0  0  0  0  0  0
   -5.6337    3.0160  -24.2072 H   0  0  0  0  0  0  0  0  0  0  0  0
   -7.3507    1.9291  -22.7883 H   0  0  0  0  0  0  0  0  0  0  0  0
   -8.5060    3.0039  -23.5440 H   0  0  0  0  0  0  0  0  0  0  0  0
   -6.6515    1.1896  -25.1431 H   0  0  0  0  0  0  0  0  0  0  0  0
   -7.9788    2.1578  -25.7914 H   0  0  0  0  0  0  0  0  0  0  0  0
   -9.9007    0.7831  -24.7186 C   0  0  0  0  0  0  0  0  0  0  0  0
  -10.3485    1.7953  -25.2483 O   0  0  0  0  0  0  0  0  0  0  0  0
  -10.7954   -0.2081  -24.0393 C   0  0  0  0  0  0  0  0  0  0  0  0
  -12.1674   -0.0121  -24.1400 C   0  0  0  0  0  0  0  0  0  0  0  0
  -13.0239   -0.7348  -23.3422 C   0  0  0  0  0  0  0  0  0  0  0  0
  -12.4959   -1.6947  -22.4839 C   0  0  0  0  0  0  0  0  0  0  0  0
  -13.5479   -2.4682  -21.3373 Cl  0  0  0  0  0  0  0  0  0  0  0  0
  -11.1536   -2.0042  -22.4832 C   0  0  0  0  0  0  0  0  0  0  0  0
  -10.2736   -1.2459  -23.2578 C   0  0  0  0  0  0  0  0  0  0  0  0
  -10.8100   -2.8293  -21.8695 H   0  0  0  0  0  0  0  0  0  0  0  0
  -14.0902   -0.5702  -23.3335 H   0  0  0  0  0  0  0  0  0  0  0  0
  -12.5336    0.7477  -24.8154 H   0  0  0  0  0  0  0  0  0  0  0  0
   -8.2931   -1.4906  -25.2001 H   0  0  0  0  0  0  0  0  0  0  0  0
   -6.9920   -0.7820  -24.2185 H   0  0  0  0  0  0  0  0  0  0  0  0
   -6.1176   -2.5747  -22.4393 H   0  0  0  0  0  0  0  0  0  0  0  0
   -6.9531   -3.4456  -21.1393 H   0  0  0  0  0  0  0  0  0  0  0  0
   -9.0317   -3.3273  -22.1917 H   0  0  0  0  0  0  0  0  0  0  0  0
   -7.1186   -3.3364  -24.5706 H   0  0  0  0  0  0  0  0  0  0  0  0
   -7.6815   -4.7362  -23.6485 H   0  0  0  0  0  0  0  0  0  0  0  0
   -8.8189   -3.8228  -24.6549 H   0  0  0  0  0  0  0  0  0  0  0  0
  1  2  1  0
  2  3  1  0
  3  4  1  0
  4  5  1  0
  5  6  2  0
  6  7  1  0
  7  8  2  0
  8  9  1  0
  9 10  2  0
 10 11  1  0
 11 12  2  0
 12 13  1  0
 13 14  2  0
 13 15  1  0
 12 16  1  0
 11 17  1  0
 10 18  1  0
  8 19  1  0
  6 20  1  0
  4 21  1  0
 21 22  2  0
 21 23  1  0
 23 24  1  6
 24 25  1  0
 25 26  1  0
 26 27  1  0
 27 28  1  0
 28 29  1  0
 29 30  1  0
 30 31  1  0
 31 32  1  0
 32 33  2  0
 32 34  2  0
 32 35  1  0
 35 36  1  0
 35 37  1  0
 35 38  1  0
 31 39  1  0
 39 40  1  0
 40 41  1  0
 40 42  1  0
 39 43  1  0
 39 44  1  0
 30 45  1  0
 30 46  1  0
 29 47  1  0
 29 48  1  0
 28 49  1  0
 27 50  1  0
 27 51  1  0
 26 52  1  0
 26 53  1  0
 25 54  1  0
 54 55  2  0
 54 56  1  0
 56 57  2  0
 57 58  1  0
 58 59  2  0
 59 60  1  0
 59 61  1  0
 61 62  2  0
 61 63  1  0
 58 64  1  0
 57 65  1  0
 24 66  1  0
 24 67  1  0
  3 68  1  0
  3 69  1  0
  2 70  1  1
  1 71  1  0
  1 72  1  0
  1 73  1  0
 23  2  1  0
 40 28  1  0
 62 56  1  0
 14  5  1  0
 62 23  1  0
 14  9  1  0
M  CHG  1  28   1
M  END
>  <cnnaffinities>  (15) 
[5.40968]

>  <score>  (15) 
5.40968

>  <index>  (15) 
14

>  <Smiles>  (15) 
C([C@]1(C(N(c2c(nc(c3c(c(c(c(c23)[H])[H])[H])[H])[H])[H])C(=O)[C@]21C(N(C(C([N+]1(C(C(N(S(=O)(=O)C([H])([H])[H])C(C1([H])[H])([H])[H])([H])[H])([H])[H])[H])([H])[H])([H])[H])C(=O)c1c(c(c(Cl)c(c21)[H])[H])[H])([H])[H])([H])[H])[H])([H])([H])[H]

>  <h>  (15) 
<NA>

>  <Training>  (15) 
True

>  <Success>  (15) 
True

>  <enamine_searched>  (15) 
False

>  <enamine_id>  (15) 
nan

$$$$

     RDKit          3D

 63 68  0  0  0  0  0  0  0  0999 V2000
   -7.4228    3.4122  -21.9063 C   0  0  0  0  0  0  0  0  0  0  0  0
   -8.3859    2.9176  -22.8775 N   0  0  0  0  0  0  0  0  0  0  0  0
   -7.8777    2.1782  -23.9090 C   0  0  0  0  0  0  0  0  0  0  0  0
   -6.6773    2.0008  -24.0576 O   0  0  0  0  0  0  0  0  0  0  0  0
   -8.8868    1.5694  -24.8808 C   0  0  0  0  0  0  0  0  0  0  0  0
   -9.5097    0.4051  -24.2797 N   0  0  0  0  0  0  0  0  0  0  0  0
   -8.7325   -0.8208  -24.1410 C   0  0  0  0  0  0  0  0  0  0  0  0
   -9.0828   -1.5684  -22.8279 C   0  0  2  0  0  0  0  0  0  0  0  0
   -8.5528   -0.7763  -21.6132 C   0  0  0  0  0  0  0  0  0  0  0  0
   -9.0426    0.2100  -21.1014 O   0  0  0  0  0  0  0  0  0  0  0  0
   -7.3835   -1.3687  -21.1965 N   0  0  0  0  0  0  0  0  0  0  0  0
   -6.6109   -0.7862  -20.1686 C   0  0  0  0  0  0  0  0  0  0  0  0
   -6.9197   -1.0469  -18.8588 C   0  0  0  0  0  0  0  0  0  0  0  0
   -6.2254   -0.5667  -17.8007 N   0  0  0  0  0  0  0  0  0  0  0  0
   -5.1976    0.2077  -18.0591 C   0  0  0  0  0  0  0  0  0  0  0  0
   -4.7829    0.5750  -19.3731 C   0  0  0  0  0  0  0  0  0  0  0  0
   -3.6526    1.3995  -19.6096 C   0  0  0  0  0  0  0  0  0  0  0  0
   -3.3138    1.7649  -20.8830 C   0  0  0  0  0  0  0  0  0  0  0  0
   -4.0960    1.3456  -21.9819 C   0  0  0  0  0  0  0  0  0  0  0  0
   -5.1769    0.5166  -21.7844 C   0  0  0  0  0  0  0  0  0  0  0  0
   -5.5288    0.0919  -20.4730 C   0  0  0  0  0  0  0  0  0  0  0  0
   -5.7707    0.2013  -22.6381 H   0  0  0  0  0  0  0  0  0  0  0  0
   -3.8432    1.6735  -22.9850 H   0  0  0  0  0  0  0  0  0  0  0  0
   -2.4404    2.3844  -21.0557 H   0  0  0  0  0  0  0  0  0  0  0  0
   -3.0775    1.7369  -18.7519 H   0  0  0  0  0  0  0  0  0  0  0  0
   -4.6239    0.5769  -17.2087 H   0  0  0  0  0  0  0  0  0  0  0  0
   -7.7750   -1.6787  -18.6344 H   0  0  0  0  0  0  0  0  0  0  0  0
   -7.0102   -2.5583  -21.9310 C   0  0  0  0  0  0  0  0  0  0  0  0
   -8.2938   -2.9032  -22.6991 C   0  0  2  0  0  0  0  0  0  0  0  0
   -8.0064   -3.6493  -24.0098 C   0  0  0  0  0  0  0  0  0  0  0  0
   -7.4358   -4.9647  -23.7733 N   0  0  0  0  0  0  0  0  0  0  0  0
   -8.0946   -6.1156  -23.5022 C   0  0  0  0  0  0  0  0  0  0  0  0
   -7.1379   -7.0810  -23.2873 C   0  0  0  0  0  0  0  0  0  0  0  0
   -5.9145   -6.4042  -23.4559 C   0  0  0  0  0  0  0  0  0  0  0  0
   -6.1042   -5.1190  -23.7366 N   0  0  0  0  0  0  0  0  0  0  0  0
   -4.9078   -6.8026  -23.4000 H   0  0  0  0  0  0  0  0  0  0  0  0
   -7.2980   -8.1219  -23.0473 H   0  0  0  0  0  0  0  0  0  0  0  0
   -9.1770   -6.1719  -23.4915 H   0  0  0  0  0  0  0  0  0  0  0  0
   -7.2749   -3.1011  -24.6125 H   0  0  0  0  0  0  0  0  0  0  0  0
   -8.9220   -3.7699  -24.6000 H   0  0  0  0  0  0  0  0  0  0  0  0
   -8.8815   -3.5776  -22.0712 H   0  0  0  0  0  0  0  0  0  0  0  0
   -6.1670   -2.3784  -22.6181 H   0  0  0  0  0  0  0  0  0  0  0  0
   -6.7126   -3.3583  -21.2467 H   0  0  0  0  0  0  0  0  0  0  0  0
  -10.5908   -1.6831  -22.7421 C   0  0  0  0  0  0  0  0  0  0  0  0
  -11.1886   -2.6302  -21.9073 C   0  0  0  0  0  0  0  0  0  0  0  0
  -12.5617   -2.6594  -21.7612 C   0  0  0  0  0  0  0  0  0  0  0  0
  -13.2595   -3.7826  -20.6386 Cl  0  0  0  0  0  0  0  0  0  0  0  0
  -13.3978   -1.7833  -22.4495 C   0  0  0  0  0  0  0  0  0  0  0  0
  -12.8136   -0.8265  -23.2497 C   0  0  0  0  0  0  0  0  0  0  0  0
  -11.4289   -0.7557  -23.3741 C   0  0  0  0  0  0  0  0  0  0  0  0
  -10.8703    0.3921  -24.1510 C   0  0  0  0  0  0  0  0  0  0  0  0
  -11.5845    1.2758  -24.6083 O   0  0  0  0  0  0  0  0  0  0  0  0
  -13.4043   -0.0980  -23.7898 H   0  0  0  0  0  0  0  0  0  0  0  0
  -14.4745   -1.8518  -22.3426 H   0  0  0  0  0  0  0  0  0  0  0  0
  -10.6019   -3.3484  -21.3477 H   0  0  0  0  0  0  0  0  0  0  0  0
   -8.9419   -1.4892  -24.9870 H   0  0  0  0  0  0  0  0  0  0  0  0
   -7.6645   -0.5721  -24.1719 H   0  0  0  0  0  0  0  0  0  0  0  0
   -9.6837    2.2780  -25.1324 H   0  0  0  0  0  0  0  0  0  0  0  0
   -8.3666    1.2847  -25.8046 H   0  0  0  0  0  0  0  0  0  0  0  0
   -9.3101    2.6752  -22.5291 H   0  0  0  0  0  0  0  0  0  0  0  0
   -6.9264    2.5729  -21.3910 H   0  0  0  0  0  0  0  0  0  0  0  0
   -7.9058    4.0834  -21.1928 H   0  0  0  0  0  0  0  0  0  0  0  0
   -6.6711    3.9997  -22.4382 H   0  0  0  0  0  0  0  0  0  0  0  0
  1  2  1  0
  2  3  1  0
  3  4  2  0
  3  5  1  0
  5  6  1  0
  6  7  1  0
  8  7  1  6
  8  9  1  0
  9 10  2  0
  9 11  1  0
 11 12  1  0
 12 13  2  0
 13 14  1  0
 14 15  2  0
 15 16  1  0
 16 17  2  0
 17 18  1  0
 18 19  2  0
 19 20  1  0
 20 21  2  0
 20 22  1  0
 19 23  1  0
 18 24  1  0
 17 25  1  0
 15 26  1  0
 13 27  1  0
 11 28  1  0
 28 29  1  0
 29 30  1  0
 30 31  1  0
 31 32  1  0
 32 33  2  0
 33 34  1  0
 34 35  2  0
 34 36  1  0
 33 37  1  0
 32 38  1  0
 30 39  1  0
 30 40  1  0
 29 41  1  1
 28 42  1  0
 28 43  1  0
  8 44  1  0
 44 45  2  0
 45 46  1  0
 46 47  1  0
 46 48  2  0
 48 49  1  0
 49 50  2  0
 50 51  1  0
 51 52  2  0
 49 53  1  0
 48 54  1  0
 45 55  1  0
  7 56  1  0
  7 57  1  0
  5 58  1  0
  5 59  1  0
  2 60  1  0
  1 61  1  0
  1 62  1  0
  1 63  1  0
 51  6  1  0
 29  8  1  0
 35 31  1  0
 50 44  1  0
 21 12  1  0
 21 16  1  0
M  END
>  <cnnaffinities>  (16) 
[6.39091]

>  <score>  (16) 
6.39091

>  <index>  (16) 
15

>  <Smiles>  (16) 
C(N(C(=O)C(N1C([C@@]2(C(=O)N(c3c(nc(c4c(c(c(c(c34)[H])[H])[H])[H])[H])[H])C([C@@]2(C(n2c(c(c(n2)[H])[H])[H])([H])[H])[H])([H])[H])c2c(c(Cl)c(c(c2C1=O)[H])[H])[H])([H])[H])([H])[H])[H])([H])([H])[H]

>  <h>  (16) 
<NA>

>  <Training>  (16) 
True

>  <Success>  (16) 
True

>  <enamine_searched>  (16) 
False

>  <enamine_id>  (16) 
nan

$$$$

     RDKit          3D

 61 66  0  0  0  0  0  0  0  0999 V2000
   -7.3881    3.4325  -21.8744 C   0  0  0  0  0  0  0  0  0  0  0  0
   -8.2364    2.9578  -22.9499 N   0  0  0  0  0  0  0  0  0  0  0  0
   -7.6728    2.2207  -23.9424 C   0  0  0  0  0  0  0  0  0  0  0  0
   -6.4641    2.0735  -24.0454 O   0  0  0  0  0  0  0  0  0  0  0  0
   -8.6304    1.6016  -24.9530 C   0  0  0  0  0  0  0  0  0  0  0  0
   -9.3434    0.4670  -24.4128 N   0  0  0  0  0  0  0  0  0  0  0  0
   -8.6210   -0.7767  -24.2270 C   0  0  0  0  0  0  0  0  0  0  0  0
   -9.0226   -1.4801  -22.9159 C   0  0  2  0  0  0  0  0  0  0  0  0
   -8.4803   -0.7039  -21.6992 C   0  0  0  0  0  0  0  0  0  0  0  0
   -8.9081    0.3301  -21.2254 O   0  0  0  0  0  0  0  0  0  0  0  0
   -7.3890   -1.3727  -21.2044 N   0  0  0  0  0  0  0  0  0  0  0  0
   -6.6085   -0.7923  -20.1741 C   0  0  0  0  0  0  0  0  0  0  0  0
   -6.9179   -1.0490  -18.8612 C   0  0  0  0  0  0  0  0  0  0  0  0
   -6.2181   -0.5685  -17.8066 N   0  0  0  0  0  0  0  0  0  0  0  0
   -5.1931    0.2107  -18.0652 C   0  0  0  0  0  0  0  0  0  0  0  0
   -4.7799    0.5754  -19.3801 C   0  0  0  0  0  0  0  0  0  0  0  0
   -3.6444    1.3970  -19.6141 C   0  0  0  0  0  0  0  0  0  0  0  0
   -3.2764    1.7291  -20.8933 C   0  0  0  0  0  0  0  0  0  0  0  0
   -4.0497    1.2942  -21.9924 C   0  0  0  0  0  0  0  0  0  0  0  0
   -5.1316    0.4645  -21.7938 C   0  0  0  0  0  0  0  0  0  0  0  0
   -5.5151    0.0750  -20.4783 C   0  0  0  0  0  0  0  0  0  0  0  0
   -5.6914    0.1000  -22.6499 H   0  0  0  0  0  0  0  0  0  0  0  0
   -3.7733    1.5803  -23.0056 H   0  0  0  0  0  0  0  0  0  0  0  0
   -2.3927    2.3413  -21.0684 H   0  0  0  0  0  0  0  0  0  0  0  0
   -3.0681    1.7338  -18.7567 H   0  0  0  0  0  0  0  0  0  0  0  0
   -4.6202    0.5879  -17.2175 H   0  0  0  0  0  0  0  0  0  0  0  0
   -7.7783   -1.6740  -18.6232 H   0  0  0  0  0  0  0  0  0  0  0  0
   -7.0675   -2.5952  -21.9066 C   0  0  0  0  0  0  0  0  0  0  0  0
   -8.3131   -2.8589  -22.7635 C   0  0  2  0  0  0  0  0  0  0  0  0
   -7.9714   -3.6243  -24.0528 C   0  0  0  0  0  0  0  0  0  0  0  0
   -7.4504   -4.9487  -23.7589 N   0  0  0  0  0  0  0  0  0  0  0  0
   -8.2175   -5.9878  -23.5024 N   0  0  0  0  0  0  0  0  0  0  0  0
   -7.3116   -6.9282  -23.2765 C   0  0  0  0  0  0  0  0  0  0  0  0
   -6.0488   -6.4671  -23.3740 N   0  0  0  0  0  0  0  0  0  0  0  0
   -6.1644   -5.2019  -23.6759 N   0  0  0  0  0  0  0  0  0  0  0  0
   -7.5648   -7.9462  -23.0296 H   0  0  0  0  0  0  0  0  0  0  0  0
   -8.8426   -3.7561  -24.6990 H   0  0  0  0  0  0  0  0  0  0  0  0
   -7.1942   -3.1031  -24.6134 H   0  0  0  0  0  0  0  0  0  0  0  0
   -8.9874   -3.5031  -22.2020 H   0  0  0  0  0  0  0  0  0  0  0  0
   -6.8635   -3.4152  -21.2142 H   0  0  0  0  0  0  0  0  0  0  0  0
   -6.1837   -2.4692  -22.5460 H   0  0  0  0  0  0  0  0  0  0  0  0
  -10.5361   -1.5151  -22.8514 C   0  0  0  0  0  0  0  0  0  0  0  0
  -11.1754   -2.3959  -21.9759 C   0  0  0  0  0  0  0  0  0  0  0  0
  -12.5550   -2.4017  -21.8827 C   0  0  0  0  0  0  0  0  0  0  0  0
  -13.2961   -3.4828  -20.7322 Cl  0  0  0  0  0  0  0  0  0  0  0  0
  -13.3451   -1.5365  -22.6427 C   0  0  0  0  0  0  0  0  0  0  0  0
  -12.7210   -0.6218  -23.4715 C   0  0  0  0  0  0  0  0  0  0  0  0
  -11.3296   -0.5944  -23.5494 C   0  0  0  0  0  0  0  0  0  0  0  0
  -10.7101    0.5123  -24.3411 C   0  0  0  0  0  0  0  0  0  0  0  0
  -11.3813    1.4032  -24.8468 O   0  0  0  0  0  0  0  0  0  0  0  0
  -13.2758    0.1042  -24.0605 H   0  0  0  0  0  0  0  0  0  0  0  0
  -14.4248   -1.5916  -22.5591 H   0  0  0  0  0  0  0  0  0  0  0  0
  -10.6041   -3.0703  -21.3476 H   0  0  0  0  0  0  0  0  0  0  0  0
   -7.5519   -0.5476  -24.2266 H   0  0  0  0  0  0  0  0  0  0  0  0
   -8.8405   -1.4539  -25.0615 H   0  0  0  0  0  0  0  0  0  0  0  0
   -8.0227    1.3060  -25.8140 H   0  0  0  0  0  0  0  0  0  0  0  0
   -9.4011    2.3176  -25.2423 H   0  0  0  0  0  0  0  0  0  0  0  0
   -9.2050    2.7949  -22.7297 H   0  0  0  0  0  0  0  0  0  0  0  0
   -6.6363    4.1120  -22.2680 H   0  0  0  0  0  0  0  0  0  0  0  0
   -7.9820    3.9570  -21.1267 H   0  0  0  0  0  0  0  0  0  0  0  0
   -6.8614    2.5989  -21.4042 H   0  0  0  0  0  0  0  0  0  0  0  0
  1  2  1  0
  2  3  1  0
  3  4  2  0
  3  5  1  0
  5  6  1  0
  6  7  1  0
  8  7  1  6
  8  9  1  0
  9 10  2  0
  9 11  1  0
 11 12  1  0
 12 13  2  0
 13 14  1  0
 14 15  2  0
 15 16  1  0
 16 17  2  0
 17 18  1  0
 18 19  2  0
 19 20  1  0
 20 21  2  0
 20 22  1  0
 19 23  1  0
 18 24  1  0
 17 25  1  0
 15 26  1  0
 13 27  1  0
 11 28  1  0
 28 29  1  0
 29 30  1  0
 30 31  1  0
 31 32  1  0
 32 33  2  0
 33 34  1  0
 34 35  2  0
 33 36  1  0
 30 37  1  0
 30 38  1  0
 29 39  1  1
 28 40  1  0
 28 41  1  0
  8 42  1  0
 42 43  2  0
 43 44  1  0
 44 45  1  0
 44 46  2  0
 46 47  1  0
 47 48  2  0
 48 49  1  0
 49 50  2  0
 47 51  1  0
 46 52  1  0
 43 53  1  0
  7 54  1  0
  7 55  1  0
  5 56  1  0
  5 57  1  0
  2 58  1  0
  1 59  1  0
  1 60  1  0
  1 61  1  0
 49  6  1  0
 29  8  1  0
 35 31  1  0
 48 42  1  0
 21 12  1  0
 21 16  1  0
M  END
>  <cnnaffinities>  (17) 
[6.04345, 6.32048, 6.21205, 5.97577, 5.50807]

>  <score>  (17) 
6.04345

>  <index>  (17) 
16

>  <Smiles>  (17) 
C(N(C(=O)C(N1C([C@@]2(C(=O)N(c3c(nc(c4c(c(c(c(c34)[H])[H])[H])[H])[H])[H])C([C@@]2(C(n2nc(nn2)[H])([H])[H])[H])([H])[H])c2c(c(Cl)c(c(c2C1=O)[H])[H])[H])([H])[H])([H])[H])[H])([H])([H])[H]

>  <h>  (17) 
<NA>

>  <Training>  (17) 
True

>  <Success>  (17) 
True

>  <enamine_searched>  (17) 
False

>  <enamine_id>  (17) 
nan

$$$$

     RDKit          3D

 38 41  0  0  0  0  0  0  0  0999 V2000
   -9.3420   -4.9487  -25.6929 C   0  0  0  0  0  0  0  0  0  0  0  0
   -9.3441   -4.2061  -24.3529 C   0  0  2  0  0  0  0  0  0  0  0  0
  -10.3431   -3.0398  -24.3808 C   0  0  0  0  0  0  0  0  0  0  0  0
  -10.4286   -2.3511  -23.0089 C   0  0  0  0  0  0  0  0  0  0  0  0
   -9.0883   -2.0842  -22.4741 C   0  0  0  0  0  0  0  0  0  0  0  0
   -8.6919   -1.1418  -21.4683 C   0  0  0  0  0  0  0  0  0  0  0  0
   -9.3087   -0.2262  -20.9684 O   0  0  0  0  0  1  0  0  0  0  0  0
   -7.3359   -1.4648  -21.2010 N   0  0  0  0  0  0  0  0  0  0  0  0
   -6.5682   -0.8449  -20.1817 C   0  0  0  0  0  0  0  0  0  0  0  0
   -6.8933   -1.0637  -18.8688 C   0  0  0  0  0  0  0  0  0  0  0  0
   -6.2042   -0.5574  -17.8179 N   0  0  0  0  0  0  0  0  0  0  0  0
   -5.1682    0.2022  -18.0819 C   0  0  0  0  0  0  0  0  0  0  0  0
   -4.7463    0.5467  -19.3946 C   0  0  0  0  0  0  0  0  0  0  0  0
   -3.6194    1.3832  -19.6191 C   0  0  0  0  0  0  0  0  0  0  0  0
   -3.2644    1.7307  -20.8957 C   0  0  0  0  0  0  0  0  0  0  0  0
   -4.0348    1.2810  -21.9887 C   0  0  0  0  0  0  0  0  0  0  0  0
   -5.1218    0.4610  -21.7981 C   0  0  0  0  0  0  0  0  0  0  0  0
   -5.4898    0.0499  -20.4857 C   0  0  0  0  0  0  0  0  0  0  0  0
   -5.6524    0.0487  -22.6504 H   0  0  0  0  0  0  0  0  0  0  0  0
   -3.7088    1.5144  -23.0004 H   0  0  0  0  0  0  0  0  0  0  0  0
   -2.3728    2.3244  -21.0755 H   0  0  0  0  0  0  0  0  0  0  0  0
   -3.0647    1.7386  -18.7567 H   0  0  0  0  0  0  0  0  0  0  0  0
   -4.6225    0.6040  -17.2282 H   0  0  0  0  0  0  0  0  0  0  0  0
   -7.7527   -1.6777  -18.6088 H   0  0  0  0  0  0  0  0  0  0  0  0
   -6.8743   -2.4331  -22.1047 C   0  0  0  0  0  0  0  0  0  0  0  0
   -5.7388   -2.8408  -22.2339 O   0  0  0  0  0  0  0  0  0  0  0  0
   -7.9916   -2.7916  -22.8494 N   0  0  0  0  0  0  0  0  0  0  0  0
   -7.9359   -3.6870  -24.0054 C   0  0  0  0  0  0  0  0  0  0  0  0
   -7.2558   -4.5032  -23.7356 H   0  0  0  0  0  0  0  0  0  0  0  0
   -7.5127   -3.1516  -24.8741 H   0  0  0  0  0  0  0  0  0  0  0  0
  -10.9648   -1.4006  -23.0667 H   0  0  0  0  0  0  0  0  0  0  0  0
  -11.0065   -2.9785  -22.3097 H   0  0  0  0  0  0  0  0  0  0  0  0
  -10.0166   -2.3173  -25.1446 H   0  0  0  0  0  0  0  0  0  0  0  0
  -11.3307   -3.4117  -24.6907 H   0  0  0  0  0  0  0  0  0  0  0  0
   -9.6531   -4.9006  -23.5535 H   0  0  0  0  0  0  0  0  0  0  0  0
  -10.3401   -5.3435  -25.9158 H   0  0  0  0  0  0  0  0  0  0  0  0
   -8.6383   -5.7896  -25.6885 H   0  0  0  0  0  0  0  0  0  0  0  0
   -9.0633   -4.2726  -26.5146 H   0  0  0  0  0  0  0  0  0  0  0  0
  1  2  1  0
  2  3  1  0
  3  4  1  0
  4  5  1  0
  5  6  2  0
  6  7  1  0
  6  8  1  0
  8  9  1  0
  9 10  2  0
 10 11  1  0
 11 12  2  0
 12 13  1  0
 13 14  2  0
 14 15  1  0
 15 16  2  0
 16 17  1  0
 17 18  2  0
 17 19  1  0
 16 20  1  0
 15 21  1  0
 14 22  1  0
 12 23  1  0
 10 24  1  0
  8 25  1  0
 25 26  2  0
 25 27  1  0
 27 28  1  0
 28 29  1  0
 28 30  1  0
  4 31  1  0
  4 32  1  0
  3 33  1  0
  3 34  1  0
  2 35  1  1
  1 36  1  0
  1 37  1  0
  1 38  1  0
 28  2  1  0
 27  5  1  0
 18  9  1  0
 18 13  1  0
M  CHG  1   7  -1
M  END
>  <cnnaffinities>  (18) 
[4.92643, 4.31376]

>  <score>  (18) 
4.92643

>  <index>  (18) 
17

>  <Smiles>  (18) 
C([C@@]1(C(C(c2c([O-])n(c3c(nc(c4c(c(c(c(c34)[H])[H])[H])[H])[H])[H])c(=O)n2C1([H])[H])([H])[H])([H])[H])[H])([H])([H])[H]

>  <h>  (18) 
<NA>

>  <Training>  (18) 
True

>  <Success>  (18) 
True

>  <enamine_searched>  (18) 
False

>  <enamine_id>  (18) 
nan

$$$$

     RDKit          3D

 56 61  0  0  0  0  0  0  0  0999 V2000
  -10.2064   -2.9499  -22.0465 C   0  0  0  0  0  0  0  0  0  0  0  0
   -9.1609   -1.9980  -22.6503 C   0  0  1  0  0  0  0  0  0  0  0  0
   -8.7210   -0.9507  -21.6041 C   0  0  0  0  0  0  0  0  0  0  0  0
   -7.4087   -1.3892  -21.1929 N   0  0  0  0  0  0  0  0  0  0  0  0
   -6.6502   -0.7689  -20.1707 C   0  0  0  0  0  0  0  0  0  0  0  0
   -6.9514   -1.0239  -18.8586 C   0  0  0  0  0  0  0  0  0  0  0  0
   -6.2504   -0.5452  -17.8027 N   0  0  0  0  0  0  0  0  0  0  0  0
   -5.2140    0.2154  -18.0665 C   0  0  0  0  0  0  0  0  0  0  0  0
   -4.8044    0.5741  -19.3822 C   0  0  0  0  0  0  0  0  0  0  0  0
   -3.6715    1.3992  -19.6036 C   0  0  0  0  0  0  0  0  0  0  0  0
   -3.3384    1.7920  -20.8697 C   0  0  0  0  0  0  0  0  0  0  0  0
   -4.1317    1.3899  -21.9691 C   0  0  0  0  0  0  0  0  0  0  0  0
   -5.2170    0.5665  -21.7877 C   0  0  0  0  0  0  0  0  0  0  0  0
   -5.5625    0.1096  -20.4797 C   0  0  0  0  0  0  0  0  0  0  0  0
   -5.8064    0.2478  -22.6486 H   0  0  0  0  0  0  0  0  0  0  0  0
   -3.8602    1.7203  -22.9679 H   0  0  0  0  0  0  0  0  0  0  0  0
   -2.4729    2.4277  -21.0375 H   0  0  0  0  0  0  0  0  0  0  0  0
   -3.0956    1.7229  -18.7401 H   0  0  0  0  0  0  0  0  0  0  0  0
   -4.6430    0.5945  -17.2178 H   0  0  0  0  0  0  0  0  0  0  0  0
   -7.7905   -1.6748  -18.6164 H   0  0  0  0  0  0  0  0  0  0  0  0
   -6.8428   -2.3420  -22.0067 C   0  0  0  0  0  0  0  0  0  0  0  0
   -5.7309   -2.7985  -21.8399 O   0  0  0  0  0  0  0  0  0  0  0  0
   -7.8342   -2.6760  -23.1439 C   0  0  1  0  0  0  0  0  0  0  0  0
   -7.9844   -4.2057  -23.3467 C   0  0  0  0  0  0  0  0  0  0  0  0
   -6.8016   -4.8351  -23.9314 N   0  0  0  0  0  0  0  0  0  0  0  0
   -6.4056   -6.1914  -23.5314 C   0  0  0  0  0  0  0  0  0  0  0  0
   -5.3495   -6.1755  -22.5273 C   0  0  0  0  0  0  0  0  0  0  0  0
   -3.8307   -6.2857  -22.8383 C   0  0  0  0  0  0  0  0  0  0  0  0
   -3.9834   -6.1484  -23.0326 C   0  0  0  0  0  0  0  0  0  0  0  0
   -4.8414   -5.8550  -20.4283 N   0  0  0  0  0  0  0  0  0  0  0  0
   -5.7996   -6.0210  -21.2452 N   0  0  0  0  0  0  0  0  0  0  0  0
   -5.2832   -5.6808  -19.5179 H   0  0  0  0  0  0  0  0  0  0  0  0
   -1.7112   -5.4493  -23.6386 H   0  0  0  0  0  0  0  0  0  0  0  0
   -2.9885   -5.7268  -23.4516 H   0  0  0  0  0  0  0  0  0  0  0  0
   -7.2786   -6.6733  -23.0820 H   0  0  0  0  0  0  0  0  0  0  0  0
   -6.1329   -6.7425  -24.4375 H   0  0  0  0  0  0  0  0  0  0  0  0
   -6.2152   -4.3009  -25.0441 C   0  0  0  0  0  0  0  0  0  0  0  0
   -5.4478   -4.9456  -25.7464 O   0  0  0  0  0  0  0  0  0  0  0  0
   -6.5631   -2.8666  -25.3446 C   0  0  0  0  0  0  0  0  0  0  0  0
   -6.0646   -2.3286  -26.5302 C   0  0  0  0  0  0  0  0  0  0  0  0
   -6.2918   -1.0083  -26.8597 C   0  0  0  0  0  0  0  0  0  0  0  0
   -7.0135   -0.2369  -25.9580 C   0  0  0  0  0  0  0  0  0  0  0  0
   -7.2374    1.0530  -26.2649 F   0  0  0  0  0  0  0  0  0  0  0  0
   -7.5155   -0.7376  -24.7703 C   0  0  0  0  0  0  0  0  0  0  0  0
   -7.3153   -2.0884  -24.4551 C   0  0  0  0  0  0  0  0  0  0  0  0
   -8.0750   -0.0619  -24.1294 H   0  0  0  0  0  0  0  0  0  0  0  0
   -5.9265   -0.5681  -27.7818 H   0  0  0  0  0  0  0  0  0  0  0  0
   -5.4939   -2.9825  -27.1781 H   0  0  0  0  0  0  0  0  0  0  0  0
   -8.8481   -4.3714  -24.0059 H   0  0  0  0  0  0  0  0  0  0  0  0
   -8.2010   -4.6872  -22.3925 H   0  0  0  0  0  0  0  0  0  0  0  0
   -9.4006   -0.9282  -20.7543 H   0  0  0  0  0  0  0  0  0  0  0  0
   -8.6977    0.0709  -22.0101 H   0  0  0  0  0  0  0  0  0  0  0  0
   -9.6469   -1.5049  -23.4987 H   0  0  0  0  0  0  0  0  0  0  0  0
  -11.0732   -2.3853  -21.6838 H   0  0  0  0  0  0  0  0  0  0  0  0
   -9.8032   -3.5145  -21.1982 H   0  0  0  0  0  0  0  0  0  0  0  0
  -10.5776   -3.6639  -22.7877 H   0  0  0  0  0  0  0  0  0  0  0  0
  1  2  1  0
  2  3  1  0
  3  4  1  0
  4  5  1  0
  5  6  2  0
  6  7  1  0
  7  8  2  0
  8  9  1  0
  9 10  2  0
 10 11  1  0
 11 12  2  0
 12 13  1  0
 13 14  2  0
 13 15  1  0
 12 16  1  0
 11 17  1  0
 10 18  1  0
  8 19  1  0
  6 20  1  0
  4 21  1  0
 21 22  2  0
 21 23  1  0
 23 24  1  6
 24 25  1  0
 25 26  1  0
 26 27  1  0
 27 28  1  0
 28 29  2  0
 29 30  1  0
 30 31  1  0
 30 32  1  0
 29 33  1  0
 28 34  1  0
 26 35  1  0
 26 36  1  0
 25 37  1  0
 37 38  2  0
 37 39  1  0
 39 40  2  0
 40 41  1  0
 41 42  2  0
 42 43  1  0
 42 44  1  0
 44 45  2  0
 44 46  1  0
 41 47  1  0
 40 48  1  0
 24 49  1  0
 24 50  1  0
  3 51  1  0
  3 52  1  0
  2 53  1  6
  1 54  1  0
  1 55  1  0
  1 56  1  0
 23  2  1  0
 31 27  2  0
 45 39  1  0
 14  5  1  0
 45 23  1  0
 14  9  1  0
M  END
>  <cnnaffinities>  (19) 
[5.58121]

>  <score>  (19) 
5.58121

>  <index>  (19) 
18

>  <Smiles>  (19) 
C([C@]1(C(N(c2c(nc(c3c(c(c(c(c23)[H])[H])[H])[H])[H])[H])C(=O)[C@]21C(N(C(c1c(c(n(n1)[H])[H])[H])([H])[H])C(=O)c1c(c(c(F)c(c21)[H])[H])[H])([H])[H])([H])[H])[H])([H])([H])[H]

>  <h>  (19) 
<NA>

>  <Training>  (19) 
True

>  <Success>  (19) 
True

>  <enamine_searched>  (19) 
False

>  <enamine_id>  (19) 
nan

$$$$

     RDKit          3D

 42 45  0  0  0  0  0  0  0  0999 V2000
   -9.1206    0.0077  -20.7656 O   0  0  0  0  0  0  0  0  0  0  0  0
   -8.6574   -0.8735  -21.4692 C   0  0  0  0  0  0  0  0  0  0  0  0
   -9.3735   -1.4994  -22.6783 C   0  0  1  0  0  0  0  0  0  0  0  0
  -10.4463   -0.5625  -23.2000 C   0  0  0  0  0  0  0  0  0  0  0  0
  -10.0864    0.7478  -23.5068 C   0  0  0  0  0  0  0  0  0  0  0  0
  -11.0259    1.6703  -23.9335 C   0  0  0  0  0  0  0  0  0  0  0  0
  -12.3660    1.2960  -24.0014 C   0  0  0  0  0  0  0  0  0  0  0  0
  -13.5629    2.5168  -24.2710 Cl  0  0  0  0  0  0  0  0  0  0  0  0
  -12.7397   -0.0286  -23.7660 C   0  0  0  0  0  0  0  0  0  0  0  0
  -14.4021   -0.5057  -23.9181 Cl  0  0  0  0  0  0  0  0  0  0  0  0
  -11.7702   -0.9547  -23.3846 C   0  0  0  0  0  0  0  0  0  0  0  0
  -12.0737   -1.9810  -23.2081 H   0  0  0  0  0  0  0  0  0  0  0  0
  -10.7393    2.6884  -24.1864 H   0  0  0  0  0  0  0  0  0  0  0  0
   -9.0633    1.0664  -23.3334 H   0  0  0  0  0  0  0  0  0  0  0  0
   -8.3352   -1.7947  -23.7730 C   0  0  0  0  0  0  0  0  0  0  0  0
   -7.2300   -2.7589  -23.3370 C   0  0  2  0  0  0  0  0  0  0  0  0
   -7.5266   -4.1168  -23.6390 O   0  0  0  0  0  0  0  0  0  0  0  0
   -8.4008   -4.3306  -23.2824 H   0  0  0  0  0  0  0  0  0  0  0  0
   -6.9299   -2.6173  -21.8347 C   0  0  0  0  0  0  0  0  0  0  0  0
   -7.3794   -1.3555  -21.2592 N   0  0  0  0  0  0  0  0  0  0  0  0
   -6.6229   -0.7838  -20.1993 C   0  0  0  0  0  0  0  0  0  0  0  0
   -6.9226   -1.0590  -18.8889 C   0  0  0  0  0  0  0  0  0  0  0  0
   -6.2156   -0.5869  -17.8320 N   0  0  0  0  0  0  0  0  0  0  0  0
   -5.1869    0.1881  -18.0825 C   0  0  0  0  0  0  0  0  0  0  0  0
   -4.7670    0.5587  -19.3919 C   0  0  0  0  0  0  0  0  0  0  0  0
   -3.6347    1.3861  -19.6188 C   0  0  0  0  0  0  0  0  0  0  0  0
   -3.2733    1.7220  -20.8955 C   0  0  0  0  0  0  0  0  0  0  0  0
   -4.0381    1.2734  -21.9956 C   0  0  0  0  0  0  0  0  0  0  0  0
   -5.1240    0.4517  -21.7985 C   0  0  0  0  0  0  0  0  0  0  0  0
   -5.5093    0.0715  -20.4872 C   0  0  0  0  0  0  0  0  0  0  0  0
   -5.6668    0.0395  -22.6424 H   0  0  0  0  0  0  0  0  0  0  0  0
   -3.7277    1.5271  -23.0064 H   0  0  0  0  0  0  0  0  0  0  0  0
   -2.3824    2.3190  -21.0788 H   0  0  0  0  0  0  0  0  0  0  0  0
   -3.0651    1.7288  -18.7581 H   0  0  0  0  0  0  0  0  0  0  0  0
   -4.6390    0.5794  -17.2269 H   0  0  0  0  0  0  0  0  0  0  0  0
   -7.7831   -1.6750  -18.6333 H   0  0  0  0  0  0  0  0  0  0  0  0
   -7.4205   -3.4764  -21.3486 H   0  0  0  0  0  0  0  0  0  0  0  0
   -5.8537   -2.6739  -21.6457 H   0  0  0  0  0  0  0  0  0  0  0  0
   -6.3298   -2.5553  -23.9311 H   0  0  0  0  0  0  0  0  0  0  0  0
   -7.8881   -0.8371  -24.0700 H   0  0  0  0  0  0  0  0  0  0  0  0
   -8.8260   -2.2101  -24.6594 H   0  0  0  0  0  0  0  0  0  0  0  0
   -9.8211   -2.4449  -22.3362 H   0  0  0  0  0  0  0  0  0  0  0  0
  1  2  2  0
  2  3  1  0
  3  4  1  0
  4  5  2  0
  5  6  1  0
  6  7  2  0
  7  8  1  0
  7  9  1  0
  9 10  1  0
  9 11  2  0
 11 12  1  0
  6 13  1  0
  5 14  1  0
  3 15  1  0
 15 16  1  0
 16 17  1  0
 17 18  1  0
 16 19  1  0
 19 20  1  0
 20 21  1  0
 21 22  2  0
 22 23  1  0
 23 24  2  0
 24 25  1  0
 25 26  2  0
 26 27  1  0
 27 28  2  0
 28 29  1  0
 29 30  2  0
 29 31  1  0
 28 32  1  0
 27 33  1  0
 26 34  1  0
 24 35  1  0
 22 36  1  0
 19 37  1  0
 19 38  1  0
 16 39  1  6
 15 40  1  0
 15 41  1  0
  3 42  1  1
 20  2  1  0
 30 21  1  0
 11  4  1  0
 30 25  1  0
M  END
>  <cnnaffinities>  (20) 
[5.22475, 5.5052, 5.54423, 5.08724]

>  <score>  (20) 
5.22475

>  <index>  (20) 
19

>  <Smiles>  (20) 
O=C1[C@@](c2c(c(c(Cl)c(Cl)c2[H])[H])[H])(C([C@](O[H])(C(N1c1c(nc(c2c(c(c(c(c12)[H])[H])[H])[H])[H])[H])([H])[H])[H])([H])[H])[H]

>  <h>  (20) 
<NA>

>  <Training>  (20) 
True

>  <Success>  (20) 
True

>  <enamine_searched>  (20) 
False

>  <enamine_id>  (20) 
nan

$$$$

     RDKit          3D

 66 71  0  0  0  0  0  0  0  0999 V2000
   -7.9687    2.5675  -21.9626 C   0  0  0  0  0  0  0  0  0  0  0  0
   -8.8758    2.2144  -23.0394 N   0  0  0  0  0  0  0  0  0  0  0  0
   -8.3933    1.5751  -24.1357 C   0  0  0  0  0  0  0  0  0  0  0  0
   -7.1999    1.4089  -24.3571 O   0  0  0  0  0  0  0  0  0  0  0  0
   -9.4725    0.9747  -25.0487 C   0  0  0  0  0  0  0  0  0  0  0  0
  -10.0927   -0.1180  -24.3230 N   0  0  0  0  0  0  0  0  0  0  0  0
   -9.2944   -1.3119  -24.1144 C   0  0  0  0  0  0  0  0  0  0  0  0
   -9.4565   -1.9142  -22.6934 C   0  0  2  0  0  0  0  0  0  0  0  0
   -8.9094   -0.9549  -21.6029 C   0  0  0  0  0  0  0  0  0  0  0  0
   -9.5335   -0.0769  -21.0360 O   0  0  0  0  0  0  0  0  0  0  0  0
   -7.5977   -1.2857  -21.3534 N   0  0  0  0  0  0  0  0  0  0  0  0
   -6.8505   -0.7329  -20.2801 C   0  0  0  0  0  0  0  0  0  0  0  0
   -7.1572   -1.0581  -18.9791 C   0  0  0  0  0  0  0  0  0  0  0  0
   -6.4292   -0.6593  -17.9093 N   0  0  0  0  0  0  0  0  0  0  0  0
   -5.3839    0.0986  -18.1318 C   0  0  0  0  0  0  0  0  0  0  0  0
   -4.9763    0.5451  -19.4207 C   0  0  0  0  0  0  0  0  0  0  0  0
   -3.8715    1.4210  -19.6047 C   0  0  0  0  0  0  0  0  0  0  0  0
   -3.5235    1.8492  -20.8566 C   0  0  0  0  0  0  0  0  0  0  0  0
   -4.2527    1.4123  -21.9799 C   0  0  0  0  0  0  0  0  0  0  0  0
   -5.3228    0.5564  -21.8262 C   0  0  0  0  0  0  0  0  0  0  0  0
   -5.7214    0.1080  -20.5393 C   0  0  0  0  0  0  0  0  0  0  0  0
   -5.8903    0.2497  -22.6981 H   0  0  0  0  0  0  0  0  0  0  0  0
   -3.9808    1.7658  -22.9700 H   0  0  0  0  0  0  0  0  0  0  0  0
   -2.6820    2.5240  -20.9932 H   0  0  0  0  0  0  0  0  0  0  0  0
   -3.3190    1.7403  -18.7255 H   0  0  0  0  0  0  0  0  0  0  0  0
   -4.7976    0.4008  -17.2640 H   0  0  0  0  0  0  0  0  0  0  0  0
   -8.0112   -1.6956  -18.7589 H   0  0  0  0  0  0  0  0  0  0  0  0
   -7.1707   -2.4626  -22.0892 C   0  0  0  0  0  0  0  0  0  0  0  0
   -8.5035   -3.1312  -22.4739 C   0  0  2  0  0  0  0  0  0  0  0  0
   -8.3591   -4.1302  -23.6336 C   0  0  0  0  0  0  0  0  0  0  0  0
   -7.4658   -5.3204  -23.3484 C   0  0  0  0  0  0  0  0  0  0  0  0
   -6.0951   -5.2724  -23.6216 C   0  0  0  0  0  0  0  0  0  0  0  0
   -5.2847   -6.3924  -23.4518 C   0  0  0  0  0  0  0  0  0  0  0  0
   -5.8295   -7.5851  -22.9808 C   0  0  0  0  0  0  0  0  0  0  0  0
   -7.1828   -7.6341  -22.6591 C   0  0  0  0  0  0  0  0  0  0  0  0
   -7.9884   -6.5123  -22.8423 C   0  0  0  0  0  0  0  0  0  0  0  0
   -9.0485   -6.5776  -22.6104 H   0  0  0  0  0  0  0  0  0  0  0  0
   -7.6217   -8.5575  -22.2857 H   0  0  0  0  0  0  0  0  0  0  0  0
   -5.2025   -8.4683  -22.8644 H   0  0  0  0  0  0  0  0  0  0  0  0
   -4.2286   -6.3420  -23.7091 H   0  0  0  0  0  0  0  0  0  0  0  0
   -5.6559   -4.3450  -23.9887 H   0  0  0  0  0  0  0  0  0  0  0  0
   -9.3599   -4.4755  -23.9187 H   0  0  0  0  0  0  0  0  0  0  0  0
   -7.9550   -3.5996  -24.5060 H   0  0  0  0  0  0  0  0  0  0  0  0
   -8.8620   -3.6645  -21.5822 H   0  0  0  0  0  0  0  0  0  0  0  0
   -6.5349   -3.1047  -21.4771 H   0  0  0  0  0  0  0  0  0  0  0  0
   -6.5883   -2.1756  -22.9818 H   0  0  0  0  0  0  0  0  0  0  0  0
  -10.9409   -2.0701  -22.4662 C   0  0  0  0  0  0  0  0  0  0  0  0
  -11.5039   -3.0980  -21.7091 C   0  0  0  0  0  0  0  0  0  0  0  0
  -12.8276   -2.9997  -21.3117 C   0  0  0  0  0  0  0  0  0  0  0  0
  -13.5160   -4.2073  -20.2855 Cl  0  0  0  0  0  0  0  0  0  0  0  0
  -13.6386   -1.9190  -21.6482 C   0  0  0  0  0  0  0  0  0  0  0  0
  -13.0991   -0.9282  -22.4342 C   0  0  0  0  0  0  0  0  0  0  0  0
  -11.7813   -1.0138  -22.8619 C   0  0  0  0  0  0  0  0  0  0  0  0
  -11.2784    0.1117  -23.7017 C   0  0  0  0  0  0  0  0  0  0  0  0
  -11.8694    1.1853  -23.8071 O   0  0  0  0  0  0  0  0  0  0  0  0
  -13.6829   -0.0663  -22.7318 H   0  0  0  0  0  0  0  0  0  0  0  0
  -14.6566   -1.8635  -21.2796 H   0  0  0  0  0  0  0  0  0  0  0  0
  -10.9142   -3.9520  -21.3907 H   0  0  0  0  0  0  0  0  0  0  0  0
   -8.2479   -1.0422  -24.2892 H   0  0  0  0  0  0  0  0  0  0  0  0
   -9.5864   -2.0644  -24.8572 H   0  0  0  0  0  0  0  0  0  0  0  0
   -9.0184    0.6059  -25.9751 H   0  0  0  0  0  0  0  0  0  0  0  0
  -10.2711    1.6780  -25.2975 H   0  0  0  0  0  0  0  0  0  0  0  0
   -9.8608    2.1047  -22.8115 H   0  0  0  0  0  0  0  0  0  0  0  0
   -8.2304    3.5151  -21.4860 H   0  0  0  0  0  0  0  0  0  0  0  0
   -7.9289    1.7701  -21.2101 H   0  0  0  0  0  0  0  0  0  0  0  0
   -6.9839    2.6984  -22.4081 H   0  0  0  0  0  0  0  0  0  0  0  0
  1  2  1  0
  2  3  1  0
  3  4  2  0
  3  5  1  0
  5  6  1  0
  6  7  1  0
  8  7  1  6
  8  9  1  0
  9 10  2  0
  9 11  1  0
 11 12  1  0
 12 13  2  0
 13 14  1  0
 14 15  2  0
 15 16  1  0
 16 17  2  0
 17 18  1  0
 18 19  2  0
 19 20  1  0
 20 21  2  0
 20 22  1  0
 19 23  1  0
 18 24  1  0
 17 25  1  0
 15 26  1  0
 13 27  1  0
 11 28  1  0
 28 29  1  0
 29 30  1  0
 30 31  1  0
 31 32  2  0
 32 33  1  0
 33 34  2  0
 34 35  1  0
 35 36  2  0
 36 37  1  0
 35 38  1  0
 34 39  1  0
 33 40  1  0
 32 41  1  0
 30 42  1  0
 30 43  1  0
 29 44  1  1
 28 45  1  0
 28 46  1  0
  8 47  1  0
 47 48  2  0
 48 49  1  0
 49 50  1  0
 49 51  2  0
 51 52  1  0
 52 53  2  0
 53 54  1  0
 54 55  2  0
 52 56  1  0
 51 57  1  0
 48 58  1  0
  7 59  1  0
  7 60  1  0
  5 61  1  0
  5 62  1  0
  2 63  1  0
  1 64  1  0
  1 65  1  0
  1 66  1  0
 54  6  1  0
 29  8  1  0
 36 31  1  0
 53 47  1  0
 21 12  1  0
 21 16  1  0
M  END
>  <cnnaffinities>  (21) 
[6.95046, 6.96331]

>  <score>  (21) 
6.95046

>  <index>  (21) 
20

>  <Smiles>  (21) 
C(N(C(=O)C(N1C([C@@]2(C(=O)N(c3c(nc(c4c(c(c(c(c34)[H])[H])[H])[H])[H])[H])C([C@@]2(C(c2c(c(c(c(c2[H])[H])[H])[H])[H])([H])[H])[H])([H])[H])c2c(c(Cl)c(c(c2C1=O)[H])[H])[H])([H])[H])([H])[H])[H])([H])([H])[H]

>  <h>  (21) 
<NA>

>  <Training>  (21) 
True

>  <Success>  (21) 
True

>  <enamine_searched>  (21) 
False

>  <enamine_id>  (21) 
nan

$$$$

     RDKit          3D

 63 68  0  0  0  0  0  0  0  0999 V2000
   -8.1641   -3.7898  -23.8944 C   0  0  0  0  0  0  0  0  0  0  0  0
   -8.3543   -3.0287  -22.5825 C   0  0  1  0  0  0  0  0  0  0  0  0
   -7.0346   -2.4330  -22.0404 C   0  0  0  0  0  0  0  0  0  0  0  0
   -7.4876   -1.3275  -21.2188 N   0  0  0  0  0  0  0  0  0  0  0  0
   -6.7054   -0.7515  -20.1775 C   0  0  0  0  0  0  0  0  0  0  0  0
   -6.9875   -1.0333  -18.8615 C   0  0  0  0  0  0  0  0  0  0  0  0
   -6.2647   -0.5717  -17.8114 N   0  0  0  0  0  0  0  0  0  0  0  0
   -5.2377    0.2018  -18.0703 C   0  0  0  0  0  0  0  0  0  0  0  0
   -4.8301    0.5750  -19.3821 C   0  0  0  0  0  0  0  0  0  0  0  0
   -3.7183    1.4303  -19.6161 C   0  0  0  0  0  0  0  0  0  0  0  0
   -3.3912    1.8191  -20.8866 C   0  0  0  0  0  0  0  0  0  0  0  0
   -4.1658    1.3801  -21.9780 C   0  0  0  0  0  0  0  0  0  0  0  0
   -5.2235    0.5160  -21.7793 C   0  0  0  0  0  0  0  0  0  0  0  0
   -5.5861    0.0906  -20.4752 C   0  0  0  0  0  0  0  0  0  0  0  0
   -5.8493    0.2383  -22.6209 H   0  0  0  0  0  0  0  0  0  0  0  0
   -3.9248    1.7290  -22.9784 H   0  0  0  0  0  0  0  0  0  0  0  0
   -2.5462    2.4827  -21.0567 H   0  0  0  0  0  0  0  0  0  0  0  0
   -3.1480    1.7745  -18.7591 H   0  0  0  0  0  0  0  0  0  0  0  0
   -4.6676    0.5837  -17.2216 H   0  0  0  0  0  0  0  0  0  0  0  0
   -7.8237   -1.6818  -18.6090 H   0  0  0  0  0  0  0  0  0  0  0  0
   -8.7727   -0.9224  -21.5086 C   0  0  0  0  0  0  0  0  0  0  0  0
   -9.3343    0.0252  -20.9875 O   0  0  0  0  0  0  0  0  0  0  0  0
   -9.3635   -1.8384  -22.6210 C   0  0  1  0  0  0  0  0  0  0  0  0
   -9.3083   -1.1022  -23.9924 C   0  0  0  0  0  0  0  0  0  0  0  0
  -10.2390    0.0061  -24.1012 N   0  0  0  0  0  0  0  0  0  0  0  0
   -9.8076    1.2074  -24.8013 C   0  0  0  0  0  0  0  0  0  0  0  0
   -8.5524    1.7610  -24.1212 C   0  0  0  0  0  0  0  0  0  0  0  0
   -7.4429    1.6595  -24.6207 O   0  0  0  0  0  0  0  0  0  0  0  0
   -8.8050    2.2828  -22.8906 N   0  0  0  0  0  0  0  0  0  0  0  0
   -7.7767    2.6232  -21.9250 C   0  0  0  0  0  0  0  0  0  0  0  0
   -7.4514    4.1028  -21.8766 C   0  0  0  0  0  0  0  0  0  0  0  0
   -6.3043    4.5946  -21.0361 C   0  0  0  0  0  0  0  0  0  0  0  0
   -6.1881    4.5783  -22.5360 C   0  0  0  0  0  0  0  0  0  0  0  0
   -5.5348    3.8242  -22.9730 H   0  0  0  0  0  0  0  0  0  0  0  0
   -6.1811    5.5273  -23.0582 H   0  0  0  0  0  0  0  0  0  0  0  0
   -5.7206    3.8532  -20.4900 H   0  0  0  0  0  0  0  0  0  0  0  0
   -6.3973    5.5504  -20.5244 H   0  0  0  0  0  0  0  0  0  0  0  0
   -8.3128    4.7608  -21.9732 H   0  0  0  0  0  0  0  0  0  0  0  0
   -8.1028    2.2184  -20.9616 H   0  0  0  0  0  0  0  0  0  0  0  0
   -6.8778    2.0719  -22.2046 H   0  0  0  0  0  0  0  0  0  0  0  0
   -9.7338    2.1474  -22.5183 H   0  0  0  0  0  0  0  0  0  0  0  0
  -10.6413    1.9065  -24.7236 H   0  0  0  0  0  0  0  0  0  0  0  0
   -9.6047    1.0190  -25.8620 H   0  0  0  0  0  0  0  0  0  0  0  0
  -11.4847   -0.0188  -23.5535 C   0  0  0  0  0  0  0  0  0  0  0  0
  -12.2963    0.8797  -23.7334 O   0  0  0  0  0  0  0  0  0  0  0  0
  -11.8059   -1.2032  -22.6959 C   0  0  0  0  0  0  0  0  0  0  0  0
  -13.1249   -1.2963  -22.2527 C   0  0  0  0  0  0  0  0  0  0  0  0
  -13.5162   -2.3475  -21.4591 C   0  0  0  0  0  0  0  0  0  0  0  0
  -12.5707   -3.3150  -21.1571 C   0  0  0  0  0  0  0  0  0  0  0  0
  -12.9676   -4.2653  -20.2955 F   0  0  0  0  0  0  0  0  0  0  0  0
  -11.2652   -3.2820  -21.6217 C   0  0  0  0  0  0  0  0  0  0  0  0
  -10.8314   -2.1550  -22.3403 C   0  0  0  0  0  0  0  0  0  0  0  0
  -10.6071   -4.1081  -21.3628 H   0  0  0  0  0  0  0  0  0  0  0  0
  -14.5216   -2.4660  -21.0698 H   0  0  0  0  0  0  0  0  0  0  0  0
  -13.8210   -0.5135  -22.5251 H   0  0  0  0  0  0  0  0  0  0  0  0
   -8.3090   -0.6921  -24.1421 H   0  0  0  0  0  0  0  0  0  0  0  0
   -9.5086   -1.8173  -24.7995 H   0  0  0  0  0  0  0  0  0  0  0  0
   -6.3775   -2.0859  -22.8572 H   0  0  0  0  0  0  0  0  0  0  0  0
   -6.4610   -3.1512  -21.4418 H   0  0  0  0  0  0  0  0  0  0  0  0
   -8.7122   -3.7225  -21.8135 H   0  0  0  0  0  0  0  0  0  0  0  0
   -7.7065   -3.1453  -24.6567 H   0  0  0  0  0  0  0  0  0  0  0  0
   -7.5079   -4.6579  -23.7658 H   0  0  0  0  0  0  0  0  0  0  0  0
   -9.1241   -4.1442  -24.2871 H   0  0  0  0  0  0  0  0  0  0  0  0
  1  2  1  0
  2  3  1  0
  3  4  1  0
  4  5  1  0
  5  6  2  0
  6  7  1  0
  7  8  2  0
  8  9  1  0
  9 10  2  0
 10 11  1  0
 11 12  2  0
 12 13  1  0
 13 14  2  0
 13 15  1  0
 12 16  1  0
 11 17  1  0
 10 18  1  0
  8 19  1  0
  6 20  1  0
  4 21  1  0
 21 22  2  0
 21 23  1  0
 23 24  1  6
 24 25  1  0
 25 26  1  0
 26 27  1  0
 27 28  2  0
 27 29  1  0
 29 30  1  0
 30 31  1  0
 31 32  1  0
 32 33  1  0
 33 34  1  0
 33 35  1  0
 32 36  1  0
 32 37  1  0
 31 38  1  0
 30 39  1  0
 30 40  1  0
 29 41  1  0
 26 42  1  0
 26 43  1  0
 25 44  1  0
 44 45  2  0
 44 46  1  0
 46 47  2  0
 47 48  1  0
 48 49  2  0
 49 50  1  0
 49 51  1  0
 51 52  2  0
 51 53  1  0
 48 54  1  0
 47 55  1  0
 24 56  1  0
 24 57  1  0
  3 58  1  0
  3 59  1  0
  2 60  1  1
  1 61  1  0
  1 62  1  0
  1 63  1  0
 23  2  1  0
 33 31  1  0
 52 46  1  0
 14  5  1  0
 52 23  1  0
 14  9  1  0
M  END
>  <cnnaffinities>  (22) 
[6.39892]

>  <score>  (22) 
6.39892

>  <index>  (22) 
21

>  <Smiles>  (22) 
C([C@]1(C(N(c2c(nc(c3c(c(c(c(c23)[H])[H])[H])[H])[H])[H])C(=O)[C@]21C(N(C(C(=O)N(C(C1(C(C1([H])[H])([H])[H])[H])([H])[H])[H])([H])[H])C(=O)c1c(c(c(F)c(c21)[H])[H])[H])([H])[H])([H])[H])[H])([H])([H])[H]

>  <h>  (22) 
<NA>

>  <Training>  (22) 
True

>  <Success>  (22) 
True

>  <enamine_searched>  (22) 
False

>  <enamine_id>  (22) 
nan

$$$$

     RDKit          3D

 68 73  0  0  0  0  0  0  0  0999 V2000
   -7.3728    3.4727  -21.9203 C   0  0  0  0  0  0  0  0  0  0  0  0
   -8.3123    2.9953  -22.9211 N   0  0  0  0  0  0  0  0  0  0  0  0
   -7.8079    2.2441  -23.9388 C   0  0  0  0  0  0  0  0  0  0  0  0
   -6.6145    2.0214  -24.0586 O   0  0  0  0  0  0  0  0  0  0  0  0
   -8.8271    1.6601  -24.9155 C   0  0  0  0  0  0  0  0  0  0  0  0
   -9.4919    0.5323  -24.2871 N   0  0  0  0  0  0  0  0  0  0  0  0
   -8.7421   -0.7125  -24.1528 C   0  0  0  0  0  0  0  0  0  0  0  0
   -9.1307   -1.4755  -22.8605 C   0  0  2  0  0  0  0  0  0  0  0  0
   -8.5684   -0.7116  -21.6367 C   0  0  0  0  0  0  0  0  0  0  0  0
   -9.0051    0.3052  -21.1330 O   0  0  0  0  0  0  0  0  0  0  0  0
   -7.4362   -1.3619  -21.2056 N   0  0  0  0  0  0  0  0  0  0  0  0
   -6.6372   -0.7914  -20.1819 C   0  0  0  0  0  0  0  0  0  0  0  0
   -6.9399   -1.0518  -18.8715 C   0  0  0  0  0  0  0  0  0  0  0  0
   -6.2446   -0.5741  -17.8121 N   0  0  0  0  0  0  0  0  0  0  0  0
   -5.2086    0.1875  -18.0701 C   0  0  0  0  0  0  0  0  0  0  0  0
   -4.7987    0.5594  -19.3817 C   0  0  0  0  0  0  0  0  0  0  0  0
   -3.6717    1.3905  -19.6099 C   0  0  0  0  0  0  0  0  0  0  0  0
   -3.3367    1.7737  -20.8786 C   0  0  0  0  0  0  0  0  0  0  0  0
   -4.1262    1.3696  -21.9775 C   0  0  0  0  0  0  0  0  0  0  0  0
   -5.2077    0.5397  -21.7877 C   0  0  0  0  0  0  0  0  0  0  0  0
   -5.5586    0.0947  -20.4834 C   0  0  0  0  0  0  0  0  0  0  0  0
   -5.8119    0.2523  -22.6436 H   0  0  0  0  0  0  0  0  0  0  0  0
   -3.8812    1.7178  -22.9776 H   0  0  0  0  0  0  0  0  0  0  0  0
   -2.4590    2.3921  -21.0473 H   0  0  0  0  0  0  0  0  0  0  0  0
   -3.0958    1.7207  -18.7487 H   0  0  0  0  0  0  0  0  0  0  0  0
   -4.6364    0.5585  -17.2182 H   0  0  0  0  0  0  0  0  0  0  0  0
   -7.7978   -1.6806  -18.6457 H   0  0  0  0  0  0  0  0  0  0  0  0
   -7.1063   -2.5512  -21.9692 C   0  0  0  0  0  0  0  0  0  0  0  0
   -8.3947   -2.8459  -22.7465 C   0  0  2  0  0  0  0  0  0  0  0  0
   -8.1037   -3.6043  -24.0409 C   0  0  0  0  0  0  0  0  0  0  0  0
   -9.3107   -3.9921  -24.7176 N   0  0  0  0  0  0  0  0  0  0  0  0
   -9.3015   -4.6020  -25.9549 C   0  0  0  0  0  0  0  0  0  0  0  0
  -10.5232   -4.8909  -26.5813 C   0  0  0  0  0  0  0  0  0  0  0  0
  -10.5638   -5.5033  -27.8246 C   0  0  0  0  0  0  0  0  0  0  0  0
   -9.3891   -5.8454  -28.4888 C   0  0  0  0  0  0  0  0  0  0  0  0
   -8.1717   -5.5740  -27.8728 C   0  0  0  0  0  0  0  0  0  0  0  0
   -8.1172   -4.9646  -26.6216 C   0  0  0  0  0  0  0  0  0  0  0  0
   -7.1451   -4.7810  -26.1728 H   0  0  0  0  0  0  0  0  0  0  0  0
   -7.2457   -5.8478  -28.3789 H   0  0  0  0  0  0  0  0  0  0  0  0
   -9.4247   -6.3238  -29.4648 H   0  0  0  0  0  0  0  0  0  0  0  0
  -11.5258   -5.7241  -28.2827 H   0  0  0  0  0  0  0  0  0  0  0  0
  -11.4454   -4.6367  -26.0700 H   0  0  0  0  0  0  0  0  0  0  0  0
  -10.2106   -3.6906  -24.3728 H   0  0  0  0  0  0  0  0  0  0  0  0
   -7.5198   -4.5040  -23.7981 H   0  0  0  0  0  0  0  0  0  0  0  0
   -7.4697   -2.9842  -24.7005 H   0  0  0  0  0  0  0  0  0  0  0  0
   -9.0112   -3.4991  -22.1201 H   0  0  0  0  0  0  0  0  0  0  0  0
   -6.8345   -3.3825  -21.3120 H   0  0  0  0  0  0  0  0  0  0  0  0
   -6.2635   -2.3784  -22.6573 H   0  0  0  0  0  0  0  0  0  0  0  0
  -10.6434   -1.5425  -22.7714 C   0  0  0  0  0  0  0  0  0  0  0  0
  -11.2689   -2.4755  -21.9368 C   0  0  0  0  0  0  0  0  0  0  0  0
  -12.6427   -2.4758  -21.7854 C   0  0  0  0  0  0  0  0  0  0  0  0
  -13.3576   -3.6027  -20.6715 Cl  0  0  0  0  0  0  0  0  0  0  0  0
  -13.4502   -1.5616  -22.4588 C   0  0  0  0  0  0  0  0  0  0  0  0
  -12.8403   -0.6149  -23.2572 C   0  0  0  0  0  0  0  0  0  0  0  0
  -11.4538   -0.5825  -23.3958 C   0  0  0  0  0  0  0  0  0  0  0  0
  -10.8551    0.5556  -24.1661 C   0  0  0  0  0  0  0  0  0  0  0  0
  -11.5453    1.4590  -24.6229 O   0  0  0  0  0  0  0  0  0  0  0  0
  -13.4153    0.1440  -23.7753 H   0  0  0  0  0  0  0  0  0  0  0  0
  -14.5273   -1.5839  -22.3382 H   0  0  0  0  0  0  0  0  0  0  0  0
  -10.7060   -3.1942  -21.3543 H   0  0  0  0  0  0  0  0  0  0  0  0
   -7.6703   -0.4851  -24.1415 H   0  0  0  0  0  0  0  0  0  0  0  0
   -8.9359   -1.3536  -25.0240 H   0  0  0  0  0  0  0  0  0  0  0  0
   -8.3231    1.3342  -25.8328 H   0  0  0  0  0  0  0  0  0  0  0  0
   -9.5926    2.3922  -25.1892 H   0  0  0  0  0  0  0  0  0  0  0  0
   -9.2506    2.7778  -22.6087 H   0  0  0  0  0  0  0  0  0  0  0  0
   -6.9055    2.6194  -21.4090 H   0  0  0  0  0  0  0  0  0  0  0  0
   -7.8855    4.1297  -21.2166 H   0  0  0  0  0  0  0  0  0  0  0  0
   -6.5928    4.0595  -22.4118 H   0  0  0  0  0  0  0  0  0  0  0  0
  1  2  1  0
  2  3  1  0
  3  4  2  0
  3  5  1  0
  5  6  1  0
  6  7  1  0
  8  7  1  6
  8  9  1  0
  9 10  2  0
  9 11  1  0
 11 12  1  0
 12 13  2  0
 13 14  1  0
 14 15  2  0
 15 16  1  0
 16 17  2  0
 17 18  1  0
 18 19  2  0
 19 20  1  0
 20 21  2  0
 20 22  1  0
 19 23  1  0
 18 24  1  0
 17 25  1  0
 15 26  1  0
 13 27  1  0
 11 28  1  0
 28 29  1  0
 29 30  1  0
 30 31  1  0
 31 32  1  0
 32 33  2  0
 33 34  1  0
 34 35  2  0
 35 36  1  0
 36 37  2  0
 37 38  1  0
 36 39  1  0
 35 40  1  0
 34 41  1  0
 33 42  1  0
 31 43  1  0
 30 44  1  0
 30 45  1  0
 29 46  1  1
 28 47  1  0
 28 48  1  0
  8 49  1  0
 49 50  2  0
 50 51  1  0
 51 52  1  0
 51 53  2  0
 53 54  1  0
 54 55  2  0
 55 56  1  0
 56 57  2  0
 54 58  1  0
 53 59  1  0
 50 60  1  0
  7 61  1  0
  7 62  1  0
  5 63  1  0
  5 64  1  0
  2 65  1  0
  1 66  1  0
  1 67  1  0
  1 68  1  0
 56  6  1  0
 29  8  1  0
 37 32  1  0
 55 49  1  0
 21 12  1  0
 21 16  1  0
M  END
>  <cnnaffinities>  (23) 
[5.68814]

>  <score>  (23) 
5.68814

>  <index>  (23) 
23

>  <Smiles>  (23) 
C(N(C(=O)C(N1C([C@@]2(C(=O)N(c3c(nc(c4c(c(c(c(c34)[H])[H])[H])[H])[H])[H])C([C@@]2(C(N(c2c(c(c(c(c2[H])[H])[H])[H])[H])[H])([H])[H])[H])([H])[H])c2c(c(Cl)c(c(c2C1=O)[H])[H])[H])([H])[H])([H])[H])[H])([H])([H])[H]

>  <h>  (23) 
<NA>

>  <Training>  (23) 
True

>  <Success>  (23) 
True

>  <enamine_searched>  (23) 
False

>  <enamine_id>  (23) 
nan

$$$$

     RDKit          3D

 65 70  0  0  0  0  0  0  0  0999 V2000
   -9.1894    2.3562  -26.4406 O   0  0  0  0  0  0  0  0  0  0  0  0
   -9.3937    1.2492  -26.9111 C   0  0  0  0  0  0  0  0  0  0  0  0
   -8.6660    0.0179  -26.3764 C   0  0  0  0  0  0  0  0  0  0  0  0
   -9.1851   -0.3817  -25.0544 N   0  0  1  0  0  4  0  0  0  0  0  0
  -10.6536   -0.6443  -25.1184 C   0  0  0  0  0  0  0  0  0  0  0  0
  -11.2108   -1.1166  -23.8021 C   0  0  0  0  0  0  0  0  0  0  0  0
  -12.5625   -0.9342  -23.5159 C   0  0  0  0  0  0  0  0  0  0  0  0
  -13.1926   -1.6827  -22.5314 C   0  0  0  0  0  0  0  0  0  0  0  0
  -12.4243   -2.5845  -21.7998 C   0  0  0  0  0  0  0  0  0  0  0  0
  -13.2503   -3.6206  -20.6706 Cl  0  0  0  0  0  0  0  0  0  0  0  0
  -11.0580   -2.6981  -21.9897 C   0  0  0  0  0  0  0  0  0  0  0  0
  -10.4226   -1.9061  -22.9569 C   0  0  0  0  0  0  0  0  0  0  0  0
   -8.9111   -1.8870  -23.1248 C   0  0  2  0  0  0  0  0  0  0  0  0
   -8.2113   -3.1315  -22.5815 C   0  0  0  0  0  0  0  0  0  0  0  0
   -7.5737   -2.7187  -21.2528 C   0  0  0  0  0  0  0  0  0  0  0  0
   -7.4928   -1.2595  -21.3146 N   0  0  0  0  0  0  0  0  0  0  0  0
   -6.7449   -0.6015  -20.3004 C   0  0  0  0  0  0  0  0  0  0  0  0
   -6.9751   -0.9882  -18.9986 C   0  0  0  0  0  0  0  0  0  0  0  0
   -6.2904   -0.5702  -17.9113 N   0  0  0  0  0  0  0  0  0  0  0  0
   -5.2758    0.2311  -18.1163 C   0  0  0  0  0  0  0  0  0  0  0  0
   -4.8751    0.6739  -19.4067 C   0  0  0  0  0  0  0  0  0  0  0  0
   -3.7131    1.4783  -19.5628 C   0  0  0  0  0  0  0  0  0  0  0  0
   -3.3413    1.9239  -20.8002 C   0  0  0  0  0  0  0  0  0  0  0  0
   -4.1178    1.5896  -21.9304 C   0  0  0  0  0  0  0  0  0  0  0  0
   -5.2452    0.8080  -21.8077 C   0  0  0  0  0  0  0  0  0  0  0  0
   -5.6457    0.2987  -20.5388 C   0  0  0  0  0  0  0  0  0  0  0  0
   -5.8620    0.6201  -22.6758 H   0  0  0  0  0  0  0  0  0  0  0  0
   -3.8294    1.9745  -22.9051 H   0  0  0  0  0  0  0  0  0  0  0  0
   -2.4648    2.5572  -20.9208 H   0  0  0  0  0  0  0  0  0  0  0  0
   -3.1346    1.7279  -18.6760 H   0  0  0  0  0  0  0  0  0  0  0  0
   -4.7135    0.5525  -17.2388 H   0  0  0  0  0  0  0  0  0  0  0  0
   -7.7862   -1.6796  -18.7861 H   0  0  0  0  0  0  0  0  0  0  0  0
   -8.2334   -0.7391  -22.3475 C   0  0  0  0  0  0  0  0  0  0  0  0
   -8.2864    0.4261  -22.7137 O   0  0  0  0  0  0  0  0  0  0  0  0
   -8.1783   -3.0270  -20.3941 H   0  0  0  0  0  0  0  0  0  0  0  0
   -6.5645   -3.1216  -21.1246 H   0  0  0  0  0  0  0  0  0  0  0  0
   -7.4367   -3.4635  -23.2788 H   0  0  0  0  0  0  0  0  0  0  0  0
   -8.9096   -3.9601  -22.4660 H   0  0  0  0  0  0  0  0  0  0  0  0
   -8.5321   -1.6333  -24.5888 C   0  0  0  0  0  0  0  0  0  0  0  0
   -8.8253   -2.4754  -25.2298 H   0  0  0  0  0  0  0  0  0  0  0  0
   -7.4471   -1.5282  -24.6603 H   0  0  0  0  0  0  0  0  0  0  0  0
  -10.4964   -3.3885  -21.3608 H   0  0  0  0  0  0  0  0  0  0  0  0
  -14.2609   -1.6075  -22.3495 H   0  0  0  0  0  0  0  0  0  0  0  0
  -13.1579   -0.2376  -24.1004 H   0  0  0  0  0  0  0  0  0  0  0  0
  -10.8215   -1.4292  -25.8772 H   0  0  0  0  0  0  0  0  0  0  0  0
  -11.1708    0.2548  -25.4481 H   0  0  0  0  0  0  0  0  0  0  0  0
   -8.9844    0.3497  -24.3303 H   0  0  0  0  0  0  0  0  0  0  0  0
   -7.5991    0.2458  -26.3011 H   0  0  0  0  0  0  0  0  0  0  0  0
   -8.7936   -0.8278  -27.0635 H   0  0  0  0  0  0  0  0  0  0  0  0
  -10.2927    1.0119  -27.9126 N   0  0  0  0  0  0  0  0  0  0  0  0
  -10.9512    2.0966  -28.6150 C   0  0  0  0  0  0  0  0  0  0  0  0
  -10.1076    2.7006  -29.7308 C   0  0  1  0  0  0  0  0  0  0  0  0
   -9.9494    1.8115  -30.9937 C   0  0  0  0  0  0  0  0  0  0  0  0
  -10.6522    2.8968  -31.8318 C   0  0  1  0  0  0  0  0  0  0  0  0
  -11.8547    2.4705  -32.3774 F   0  0  0  0  0  0  0  0  0  0  0  0
  -10.8430    3.7704  -30.5767 C   0  0  0  0  0  0  0  0  0  0  0  0
  -10.3744    4.7598  -30.6108 H   0  0  0  0  0  0  0  0  0  0  0  0
  -11.8984    3.9011  -30.3096 H   0  0  0  0  0  0  0  0  0  0  0  0
  -10.0593    3.3357  -32.6461 H   0  0  0  0  0  0  0  0  0  0  0  0
  -10.5192    0.8747  -30.9722 H   0  0  0  0  0  0  0  0  0  0  0  0
   -8.9170    1.5859  -31.2834 H   0  0  0  0  0  0  0  0  0  0  0  0
   -9.1473    3.0596  -29.3497 H   0  0  0  0  0  0  0  0  0  0  0  0
  -11.2055    2.8716  -27.8853 H   0  0  0  0  0  0  0  0  0  0  0  0
  -11.8776    1.7159  -29.0616 H   0  0  0  0  0  0  0  0  0  0  0  0
  -10.4057    0.0665  -28.2452 H   0  0  0  0  0  0  0  0  0  0  0  0
  1  2  2  0
  2  3  1  0
  3  4  1  0
  4  5  1  0
  5  6  1  0
  6  7  2  0
  7  8  1  0
  8  9  2  0
  9 10  1  0
  9 11  1  0
 11 12  2  0
 12 13  1  0
 13 14  1  1
 14 15  1  0
 15 16  1  0
 16 17  1  0
 17 18  2  0
 18 19  1  0
 19 20  2  0
 20 21  1  0
 21 22  2  0
 22 23  1  0
 23 24  2  0
 24 25  1  0
 25 26  2  0
 25 27  1  0
 24 28  1  0
 23 29  1  0
 22 30  1  0
 20 31  1  0
 18 32  1  0
 16 33  1  0
 33 34  2  0
 15 35  1  0
 15 36  1  0
 14 37  1  0
 14 38  1  0
 13 39  1  0
 39 40  1  0
 39 41  1  0
 11 42  1  0
  8 43  1  0
  7 44  1  0
  5 45  1  0
  5 46  1  0
  4 47  1  1
  3 48  1  0
  3 49  1  0
  2 50  1  0
 50 51  1  0
 51 52  1  0
 52 53  1  0
 53 54  1  0
 54 55  1  0
 54 56  1  0
 56 57  1  0
 56 58  1  0
 54 59  1  6
 53 60  1  0
 53 61  1  0
 52 62  1  1
 51 63  1  0
 51 64  1  0
 50 65  1  0
 39  4  1  0
 56 52  1  0
 12  6  1  0
 33 13  1  0
 26 17  1  0
 26 21  1  0
M  CHG  1   4   1
M  END
>  <cnnaffinities>  (24) 
[5.10644]

>  <score>  (24) 
5.10644

>  <index>  (24) 
24

>  <Smiles>  (24) 
O=C(C([N@+]1(C(c2c(c(c(Cl)c(c2[C@@]2(C(C(N(c3c(nc(c4c(c(c(c(c34)[H])[H])[H])[H])[H])[H])C2=O)([H])[H])([H])[H])C1([H])[H])[H])[H])[H])([H])[H])[H])([H])[H])N(C([C@]1(C([C@@](F)(C1([H])[H])[H])([H])[H])[H])([H])[H])[H]

>  <h>  (24) 
<NA>

>  <Training>  (24) 
True

>  <Success>  (24) 
True

>  <enamine_searched>  (24) 
False

>  <enamine_id>  (24) 
nan

$$$$

     RDKit          3D

 70 75  0  0  0  0  0  0  0  0999 V2000
   -8.1615   -7.1754  -23.9007 O   0  0  0  0  0  0  0  0  0  0  0  0
   -8.0888   -6.4006  -22.9693 C   0  0  0  0  0  0  0  0  0  0  0  0
   -9.2086   -5.4212  -22.6216 C   0  0  0  0  0  0  0  0  0  0  0  0
   -8.8166   -3.9941  -22.8742 N   0  0  1  0  0  4  0  0  0  0  0  0
   -8.4519   -3.7943  -24.3557 C   0  0  0  0  0  0  0  0  0  0  0  0
   -8.1483   -2.3496  -24.6717 C   0  0  0  0  0  0  0  0  0  0  0  0
   -7.3555   -2.0224  -25.7748 C   0  0  0  0  0  0  0  0  0  0  0  0
   -7.0787   -0.6985  -26.0979 C   0  0  0  0  0  0  0  0  0  0  0  0
   -7.6063    0.3167  -25.3067 C   0  0  0  0  0  0  0  0  0  0  0  0
   -7.2605    1.9880  -25.6682 Cl  0  0  0  0  0  0  0  0  0  0  0  0
   -8.3894    0.0145  -24.2051 C   0  0  0  0  0  0  0  0  0  0  0  0
   -8.6605   -1.3179  -23.8857 C   0  0  0  0  0  0  0  0  0  0  0  0
   -9.4385   -1.5570  -22.6158 C   0  0  2  0  0  0  0  0  0  0  0  0
   -8.6772   -0.9645  -21.4303 C   0  0  0  0  0  0  0  0  0  0  0  0
   -9.1457   -0.0583  -20.7693 O   0  0  0  0  0  0  0  0  0  0  0  0
   -7.4011   -1.4512  -21.2129 N   0  0  0  0  0  0  0  0  0  0  0  0
   -6.5994   -0.8559  -20.2010 C   0  0  0  0  0  0  0  0  0  0  0  0
   -6.9145   -1.0877  -18.8888 C   0  0  0  0  0  0  0  0  0  0  0  0
   -6.2288   -0.5912  -17.8298 N   0  0  0  0  0  0  0  0  0  0  0  0
   -5.2001    0.1804  -18.0856 C   0  0  0  0  0  0  0  0  0  0  0  0
   -4.7805    0.5264  -19.4016 C   0  0  0  0  0  0  0  0  0  0  0  0
   -3.6625    1.3674  -19.6224 C   0  0  0  0  0  0  0  0  0  0  0  0
   -3.3178    1.7414  -20.8904 C   0  0  0  0  0  0  0  0  0  0  0  0
   -4.0926    1.3167  -21.9926 C   0  0  0  0  0  0  0  0  0  0  0  0
   -5.1684    0.4797  -21.8100 C   0  0  0  0  0  0  0  0  0  0  0  0
   -5.5163    0.0344  -20.5041 C   0  0  0  0  0  0  0  0  0  0  0  0
   -5.7413    0.1531  -22.6737 H   0  0  0  0  0  0  0  0  0  0  0  0
   -3.8175    1.6440  -22.9921 H   0  0  0  0  0  0  0  0  0  0  0  0
   -2.4538    2.3777  -21.0581 H   0  0  0  0  0  0  0  0  0  0  0  0
   -3.1089    1.7219  -18.7584 H   0  0  0  0  0  0  0  0  0  0  0  0
   -4.6492    0.5856  -17.2337 H   0  0  0  0  0  0  0  0  0  0  0  0
   -7.7717   -1.7135  -18.6515 H   0  0  0  0  0  0  0  0  0  0  0  0
   -6.9424   -1.9179  -21.9847 H   0  0  0  0  0  0  0  0  0  0  0  0
   -9.8931   -3.0048  -22.4746 C   0  0  0  0  0  0  0  0  0  0  0  0
  -10.2281   -3.2213  -21.4602 H   0  0  0  0  0  0  0  0  0  0  0  0
  -10.7399   -3.1323  -23.1538 H   0  0  0  0  0  0  0  0  0  0  0  0
  -10.3362   -0.9354  -22.6378 H   0  0  0  0  0  0  0  0  0  0  0  0
   -8.7857    0.8074  -23.5760 H   0  0  0  0  0  0  0  0  0  0  0  0
   -6.4557   -0.4495  -26.9511 H   0  0  0  0  0  0  0  0  0  0  0  0
   -6.9378   -2.8085  -26.4010 H   0  0  0  0  0  0  0  0  0  0  0  0
   -9.2987   -4.1598  -24.9489 H   0  0  0  0  0  0  0  0  0  0  0  0
   -7.5970   -4.4315  -24.5857 H   0  0  0  0  0  0  0  0  0  0  0  0
   -7.9717   -3.7885  -22.3033 H   0  0  0  0  0  0  0  0  0  0  0  0
  -10.0765   -5.6819  -23.2322 H   0  0  0  0  0  0  0  0  0  0  0  0
   -9.4689   -5.5424  -21.5661 H   0  0  0  0  0  0  0  0  0  0  0  0
   -6.9855   -6.3040  -22.1527 N   0  0  0  0  0  0  0  0  0  0  0  0
   -5.7769   -6.9853  -22.4013 C   0  0  0  0  0  0  0  0  0  0  0  0
   -5.0072   -7.4638  -21.3441 C   0  0  0  0  0  0  0  0  0  0  0  0
   -3.7951   -8.0765  -21.6112 C   0  0  0  0  0  0  0  0  0  0  0  0
   -3.3069   -8.2107  -22.9095 C   0  0  0  0  0  0  0  0  0  0  0  0
   -2.0757   -8.8781  -23.1457 N   0  0  0  0  0  0  0  0  0  0  0  0
   -1.0187   -8.8026  -22.1275 C   0  0  0  0  0  0  0  0  0  0  0  0
    0.3001   -9.1835  -22.7795 C   0  0  0  0  0  0  0  0  0  0  0  0
    0.1816  -10.4908  -23.3008 O   0  0  0  0  0  0  0  0  0  0  0  0
   -0.6859  -10.5166  -24.4020 C   0  0  0  0  0  0  0  0  0  0  0  0
   -1.9876   -9.7493  -24.2138 C   0  0  0  0  0  0  0  0  0  0  0  0
   -2.8849   -9.9316  -25.0223 O   0  0  0  0  0  0  0  0  0  0  0  0
   -0.9637  -11.5521  -24.6163 H   0  0  0  0  0  0  0  0  0  0  0  0
   -0.1932  -10.1332  -25.3074 H   0  0  0  0  0  0  0  0  0  0  0  0
    1.1025   -9.2164  -22.0400 H   0  0  0  0  0  0  0  0  0  0  0  0
    0.5644   -8.4715  -23.5781 H   0  0  0  0  0  0  0  0  0  0  0  0
   -0.9791   -7.7881  -21.7086 H   0  0  0  0  0  0  0  0  0  0  0  0
   -1.2108   -9.5124  -21.3085 H   0  0  0  0  0  0  0  0  0  0  0  0
   -4.0810   -7.7234  -23.9570 C   0  0  0  0  0  0  0  0  0  0  0  0
   -5.3116   -7.1479  -23.7051 C   0  0  0  0  0  0  0  0  0  0  0  0
   -5.9114   -6.8349  -24.5491 H   0  0  0  0  0  0  0  0  0  0  0  0
   -3.7632   -7.8491  -24.9819 H   0  0  0  0  0  0  0  0  0  0  0  0
   -3.2298   -8.5315  -20.8000 H   0  0  0  0  0  0  0  0  0  0  0  0
   -5.3657   -7.4047  -20.3190 H   0  0  0  0  0  0  0  0  0  0  0  0
   -7.0793   -5.8786  -21.2434 H   0  0  0  0  0  0  0  0  0  0  0  0
  1  2  2  0
  2  3  1  0
  3  4  1  0
  4  5  1  0
  5  6  1  0
  6  7  2  0
  7  8  1  0
  8  9  2  0
  9 10  1  0
  9 11  1  0
 11 12  2  0
 12 13  1  0
 13 14  1  0
 14 15  2  0
 14 16  1  0
 16 17  1  0
 17 18  2  0
 18 19  1  0
 19 20  2  0
 20 21  1  0
 21 22  2  0
 22 23  1  0
 23 24  2  0
 24 25  1  0
 25 26  2  0
 25 27  1  0
 24 28  1  0
 23 29  1  0
 22 30  1  0
 20 31  1  0
 18 32  1  0
 16 33  1  0
 13 34  1  0
 34 35  1  0
 34 36  1  0
 13 37  1  6
 11 38  1  0
  8 39  1  0
  7 40  1  0
  5 41  1  0
  5 42  1  0
  4 43  1  1
  3 44  1  0
  3 45  1  0
  2 46  1  0
 46 47  1  0
 47 48  2  0
 48 49  1  0
 49 50  2  0
 50 51  1  0
 51 52  1  0
 52 53  1  0
 53 54  1  0
 54 55  1  0
 55 56  1  0
 56 57  2  0
 55 58  1  0
 55 59  1  0
 53 60  1  0
 53 61  1  0
 52 62  1  0
 52 63  1  0
 50 64  1  0
 64 65  2  0
 65 66  1  0
 64 67  1  0
 49 68  1  0
 48 69  1  0
 46 70  1  0
 34  4  1  0
 65 47  1  0
 12  6  1  0
 26 17  1  0
 56 51  1  0
 26 21  1  0
M  CHG  1   4   1
M  END
>  <cnnaffinities>  (25) 
[6.19032, 5.9967]

>  <score>  (25) 
6.19032

>  <index>  (25) 
25

>  <Smiles>  (25) 
O=C(C([N@+]1(C(c2c(c(c(Cl)c(c2[C@](C(=O)N(c2c(nc(c3c(c(c(c(c23)[H])[H])[H])[H])[H])[H])[H])(C1([H])[H])[H])[H])[H])[H])([H])[H])[H])([H])[H])N(c1c(c(c(N2C(C(OC(C2=O)([H])[H])([H])[H])([H])[H])c(c1[H])[H])[H])[H])[H]

>  <h>  (25) 
<NA>

>  <Training>  (25) 
True

>  <Success>  (25) 
True

>  <enamine_searched>  (25) 
False

>  <enamine_id>  (25) 
nan

$$$$

     RDKit          3D

 55 60  0  0  0  0  0  0  0  0999 V2000
   -7.8806   -3.6213  -24.0833 C   0  0  0  0  0  0  0  0  0  0  0  0
   -8.2915   -2.8503  -22.8184 C   0  0  1  0  0  0  0  0  0  0  0  0
   -7.0927   -2.6215  -21.8721 C   0  0  0  0  0  0  0  0  0  0  0  0
   -7.4036   -1.3761  -21.1999 N   0  0  0  0  0  0  0  0  0  0  0  0
   -6.6112   -0.7960  -20.1731 C   0  0  0  0  0  0  0  0  0  0  0  0
   -6.9072   -1.0482  -18.8583 C   0  0  0  0  0  0  0  0  0  0  0  0
   -6.1990   -0.5598  -17.8109 N   0  0  0  0  0  0  0  0  0  0  0  0
   -5.1686    0.2077  -18.0741 C   0  0  0  0  0  0  0  0  0  0  0  0
   -4.7475    0.5567  -19.3892 C   0  0  0  0  0  0  0  0  0  0  0  0
   -3.6181    1.3882  -19.6266 C   0  0  0  0  0  0  0  0  0  0  0  0
   -3.2495    1.7161  -20.9023 C   0  0  0  0  0  0  0  0  0  0  0  0
   -4.0049    1.2349  -21.9925 C   0  0  0  0  0  0  0  0  0  0  0  0
   -5.0937    0.4113  -21.7858 C   0  0  0  0  0  0  0  0  0  0  0  0
   -5.5008    0.0567  -20.4752 C   0  0  0  0  0  0  0  0  0  0  0  0
   -5.6047   -0.0197  -22.6422 H   0  0  0  0  0  0  0  0  0  0  0  0
   -3.6832    1.4458  -23.0071 H   0  0  0  0  0  0  0  0  0  0  0  0
   -2.3561    2.3054  -21.0885 H   0  0  0  0  0  0  0  0  0  0  0  0
   -3.0674    1.7611  -18.7674 H   0  0  0  0  0  0  0  0  0  0  0  0
   -4.6235    0.6105  -17.2209 H   0  0  0  0  0  0  0  0  0  0  0  0
   -7.7554   -1.6741  -18.5941 H   0  0  0  0  0  0  0  0  0  0  0  0
   -8.4092   -0.6439  -21.7912 C   0  0  0  0  0  0  0  0  0  0  0  0
   -8.7679    0.4387  -21.3802 O   0  0  0  0  0  0  0  0  0  0  0  0
   -8.9497   -1.4422  -23.0134 C   0  0  1  0  0  0  0  0  0  0  0  0
   -8.4849   -0.8020  -24.3432 C   0  0  0  0  0  0  0  0  0  0  0  0
   -9.1438    0.4525  -24.6179 N   0  0  0  0  0  0  0  0  0  0  0  0
   -8.3524    1.6270  -24.9470 C   0  0  0  0  0  0  0  0  0  0  0  0
   -8.0508    2.4942  -23.7535 C   0  0  0  0  0  0  0  0  0  0  0  0
   -8.8802    3.4284  -23.1164 C   0  0  0  0  0  0  0  0  0  0  0  0
   -8.2161    3.9647  -22.0972 N   0  0  0  0  0  0  0  0  0  0  0  0
   -7.0540    3.3568  -22.1340 N   0  0  0  0  0  0  0  0  0  0  0  0
   -6.8804    2.4728  -23.1044 N   0  0  0  0  0  0  0  0  0  0  0  0
   -6.3765    3.5256  -21.4006 H   0  0  0  0  0  0  0  0  0  0  0  0
   -9.9096    3.7043  -23.3191 H   0  0  0  0  0  0  0  0  0  0  0  0
   -7.4067    1.3011  -25.3942 H   0  0  0  0  0  0  0  0  0  0  0  0
   -8.9224    2.2014  -25.6828 H   0  0  0  0  0  0  0  0  0  0  0  0
  -10.5033    0.5837  -24.5324 C   0  0  0  0  0  0  0  0  0  0  0  0
  -11.0968    1.5301  -25.0380 O   0  0  0  0  0  0  0  0  0  0  0  0
  -11.1940   -0.4793  -23.7355 C   0  0  0  0  0  0  0  0  0  0  0  0
  -12.5875   -0.4526  -23.6812 C   0  0  0  0  0  0  0  0  0  0  0  0
  -13.2775   -1.3124  -22.8504 C   0  0  0  0  0  0  0  0  0  0  0  0
  -12.5399   -2.1833  -22.0599 C   0  0  0  0  0  0  0  0  0  0  0  0
  -13.1903   -2.9849  -21.2022 F   0  0  0  0  0  0  0  0  0  0  0  0
  -11.1647   -2.2434  -22.1020 C   0  0  0  0  0  0  0  0  0  0  0  0
  -10.4656   -1.4201  -22.9904 C   0  0  0  0  0  0  0  0  0  0  0  0
  -10.6712   -2.9109  -21.4044 H   0  0  0  0  0  0  0  0  0  0  0  0
  -14.3591   -1.3403  -22.7946 H   0  0  0  0  0  0  0  0  0  0  0  0
  -13.0972    0.2697  -24.3057 H   0  0  0  0  0  0  0  0  0  0  0  0
   -7.4146   -0.5864  -24.2658 H   0  0  0  0  0  0  0  0  0  0  0  0
   -8.6663   -1.5092  -25.1686 H   0  0  0  0  0  0  0  0  0  0  0  0
   -6.1475   -2.5539  -22.4352 H   0  0  0  0  0  0  0  0  0  0  0  0
   -6.9669   -3.4277  -21.1410 H   0  0  0  0  0  0  0  0  0  0  0  0
   -9.0334   -3.4502  -22.2864 H   0  0  0  0  0  0  0  0  0  0  0  0
   -7.4912   -4.6150  -23.8299 H   0  0  0  0  0  0  0  0  0  0  0  0
   -7.0886   -3.0967  -24.6331 H   0  0  0  0  0  0  0  0  0  0  0  0
   -8.7181   -3.7639  -24.7760 H   0  0  0  0  0  0  0  0  0  0  0  0
  1  2  1  0
  2  3  1  0
  3  4  1  0
  4  5  1  0
  5  6  2  0
  6  7  1  0
  7  8  2  0
  8  9  1  0
  9 10  2  0
 10 11  1  0
 11 12  2  0
 12 13  1  0
 13 14  2  0
 13 15  1  0
 12 16  1  0
 11 17  1  0
 10 18  1  0
  8 19  1  0
  6 20  1  0
  4 21  1  0
 21 22  2  0
 21 23  1  0
 23 24  1  6
 24 25  1  0
 25 26  1  0
 26 27  1  0
 27 28  1  0
 28 29  2  0
 29 30  1  0
 30 31  1  0
 30 32  1  0
 28 33  1  0
 26 34  1  0
 26 35  1  0
 25 36  1  0
 36 37  2  0
 36 38  1  0
 38 39  2  0
 39 40  1  0
 40 41  2  0
 41 42  1  0
 41 43  1  0
 43 44  2  0
 43 45  1  0
 40 46  1  0
 39 47  1  0
 24 48  1  0
 24 49  1  0
  3 50  1  0
  3 51  1  0
  2 52  1  1
  1 53  1  0
  1 54  1  0
  1 55  1  0
 23  2  1  0
 31 27  2  0
 44 38  1  0
 14  5  1  0
 44 23  1  0
 14  9  1  0
M  END
>  <cnnaffinities>  (26) 
[5.24265, 5.39365]

>  <score>  (26) 
5.24265

>  <index>  (26) 
26

>  <Smiles>  (26) 
C([C@]1(C(N(c2c(nc(c3c(c(c(c(c23)[H])[H])[H])[H])[H])[H])C(=O)[C@]21C(N(C(c1c(nn(n1)[H])[H])([H])[H])C(=O)c1c(c(c(F)c(c21)[H])[H])[H])([H])[H])([H])[H])[H])([H])([H])[H]

>  <h>  (26) 
<NA>

>  <Training>  (26) 
True

>  <Success>  (26) 
True

>  <enamine_searched>  (26) 
False

>  <enamine_id>  (26) 
nan

$$$$

     RDKit          3D

 58 62  0  0  0  0  0  0  0  0999 V2000
   -7.0820    3.4785  -22.0410 C   0  0  0  0  0  0  0  0  0  0  0  0
   -7.4674    2.4214  -22.9782 N   0  0  0  0  0  4  0  0  0  0  0  0
   -8.4878    2.8128  -23.9732 C   0  0  0  0  0  0  0  0  0  0  0  0
   -8.7451    1.6810  -24.9660 C   0  0  0  0  0  0  0  0  0  0  0  0
   -9.3685    0.5356  -24.3191 N   0  0  0  0  0  0  0  0  0  0  0  0
   -8.6544   -0.7200  -24.1745 C   0  0  0  0  0  0  0  0  0  0  0  0
   -9.0365   -1.4497  -22.8643 C   0  0  2  0  0  0  0  0  0  0  0  0
   -8.4153   -0.6373  -21.7126 C   0  0  0  0  0  0  0  0  0  0  0  0
   -8.6419    0.5304  -21.4154 O   0  0  0  0  0  0  0  0  0  0  0  0
   -7.4150   -1.3693  -21.1477 N   0  0  0  0  0  0  0  0  0  0  0  0
   -6.6210   -0.7674  -20.1446 C   0  0  0  0  0  0  0  0  0  0  0  0
   -6.9212   -1.0321  -18.8346 C   0  0  0  0  0  0  0  0  0  0  0  0
   -6.2255   -0.5458  -17.7866 N   0  0  0  0  0  0  0  0  0  0  0  0
   -5.1952    0.2184  -18.0634 C   0  0  0  0  0  0  0  0  0  0  0  0
   -4.8057    0.5984  -19.3804 C   0  0  0  0  0  0  0  0  0  0  0  0
   -3.6953    1.4479  -19.6087 C   0  0  0  0  0  0  0  0  0  0  0  0
   -3.3718    1.8490  -20.8761 C   0  0  0  0  0  0  0  0  0  0  0  0
   -4.1695    1.4533  -21.9711 C   0  0  0  0  0  0  0  0  0  0  0  0
   -5.2335    0.5947  -21.7752 C   0  0  0  0  0  0  0  0  0  0  0  0
   -5.5734    0.1367  -20.4696 C   0  0  0  0  0  0  0  0  0  0  0  0
   -5.7975    0.2330  -22.6302 H   0  0  0  0  0  0  0  0  0  0  0  0
   -3.9192    1.8143  -22.9658 H   0  0  0  0  0  0  0  0  0  0  0  0
   -2.5033    2.4813  -21.0433 H   0  0  0  0  0  0  0  0  0  0  0  0
   -3.1194    1.7700  -18.7474 H   0  0  0  0  0  0  0  0  0  0  0  0
   -4.6220    0.5983  -17.2207 H   0  0  0  0  0  0  0  0  0  0  0  0
   -7.7718   -1.6715  -18.6107 H   0  0  0  0  0  0  0  0  0  0  0  0
   -7.0239   -2.5224  -21.9361 C   0  0  0  0  0  0  0  0  0  0  0  0
   -8.2937   -2.8158  -22.7407 C   0  0  2  0  0  0  0  0  0  0  0  0
   -8.0174   -3.5417  -24.0513 C   0  0  0  0  0  0  0  0  0  0  0  0
   -7.5575   -4.5178  -23.8651 H   0  0  0  0  0  0  0  0  0  0  0  0
   -8.9393   -3.6960  -24.6230 H   0  0  0  0  0  0  0  0  0  0  0  0
   -7.3260   -2.9676  -24.6806 H   0  0  0  0  0  0  0  0  0  0  0  0
   -8.9000   -3.4688  -22.1122 H   0  0  0  0  0  0  0  0  0  0  0  0
   -6.7296   -3.3578  -21.2964 H   0  0  0  0  0  0  0  0  0  0  0  0
   -6.1745   -2.3027  -22.6004 H   0  0  0  0  0  0  0  0  0  0  0  0
  -10.5487   -1.5266  -22.7710 C   0  0  0  0  0  0  0  0  0  0  0  0
  -11.2002   -2.5215  -22.0263 C   0  0  0  0  0  0  0  0  0  0  0  0
  -12.5764   -2.5218  -21.9320 C   0  0  0  0  0  0  0  0  0  0  0  0
  -13.1630   -3.4668  -21.1704 F   0  0  0  0  0  0  0  0  0  0  0  0
  -13.3654   -1.5724  -22.5762 C   0  0  0  0  0  0  0  0  0  0  0  0
  -12.7297   -0.5862  -23.3091 C   0  0  0  0  0  0  0  0  0  0  0  0
  -11.3365   -0.5418  -23.3887 C   0  0  0  0  0  0  0  0  0  0  0  0
  -10.7202    0.5958  -24.1428 C   0  0  0  0  0  0  0  0  0  0  0  0
  -11.3977    1.5238  -24.5771 O   0  0  0  0  0  0  0  0  0  0  0  0
  -13.2998    0.1744  -23.8338 H   0  0  0  0  0  0  0  0  0  0  0  0
  -14.4452   -1.6384  -22.4996 H   0  0  0  0  0  0  0  0  0  0  0  0
  -10.6632   -3.3011  -21.5000 H   0  0  0  0  0  0  0  0  0  0  0  0
   -8.8748   -1.3711  -25.0292 H   0  0  0  0  0  0  0  0  0  0  0  0
   -7.5790   -0.5101  -24.1515 H   0  0  0  0  0  0  0  0  0  0  0  0
   -7.8088    1.3471  -25.4265 H   0  0  0  0  0  0  0  0  0  0  0  0
   -9.4218    2.0128  -25.7578 H   0  0  0  0  0  0  0  0  0  0  0  0
   -9.4270    3.0417  -23.4625 H   0  0  0  0  0  0  0  0  0  0  0  0
   -8.1724    3.7132  -24.5119 H   0  0  0  0  0  0  0  0  0  0  0  0
   -6.6085    2.1404  -23.4841 H   0  0  0  0  0  0  0  0  0  0  0  0
   -7.8300    1.6159  -22.4309 H   0  0  0  0  0  0  0  0  0  0  0  0
   -6.2031    3.1717  -21.4701 H   0  0  0  0  0  0  0  0  0  0  0  0
   -7.8961    3.6905  -21.3445 H   0  0  0  0  0  0  0  0  0  0  0  0
   -6.8397    4.4085  -22.5649 H   0  0  0  0  0  0  0  0  0  0  0  0
  1  2  1  0
  2  3  1  0
  3  4  1  0
  4  5  1  0
  5  6  1  0
  7  6  1  6
  7  8  1  0
  8  9  2  0
  8 10  1  0
 10 11  1  0
 11 12  2  0
 12 13  1  0
 13 14  2  0
 14 15  1  0
 15 16  2  0
 16 17  1  0
 17 18  2  0
 18 19  1  0
 19 20  2  0
 19 21  1  0
 18 22  1  0
 17 23  1  0
 16 24  1  0
 14 25  1  0
 12 26  1  0
 10 27  1  0
 27 28  1  0
 28 29  1  0
 29 30  1  0
 29 31  1  0
 29 32  1  0
 28 33  1  1
 27 34  1  0
 27 35  1  0
  7 36  1  0
 36 37  2  0
 37 38  1  0
 38 39  1  0
 38 40  2  0
 40 41  1  0
 41 42  2  0
 42 43  1  0
 43 44  2  0
 41 45  1  0
 40 46  1  0
 37 47  1  0
  6 48  1  0
  6 49  1  0
  4 50  1  0
  4 51  1  0
  3 52  1  0
  3 53  1  0
  2 54  1  0
  2 55  1  0
  1 56  1  0
  1 57  1  0
  1 58  1  0
 43  5  1  0
 28  7  1  0
 42 36  1  0
 20 11  1  0
 20 15  1  0
M  CHG  1   2   1
M  END
>  <cnnaffinities>  (27) 
[5.11186]

>  <score>  (27) 
5.11186

>  <index>  (27) 
27

>  <Smiles>  (27) 
C([N+](C(C(N1C([C@@]2(C(=O)N(c3c(nc(c4c(c(c(c(c34)[H])[H])[H])[H])[H])[H])C([C@@]2(C([H])([H])[H])[H])([H])[H])c2c(c(F)c(c(c2C1=O)[H])[H])[H])([H])[H])([H])[H])([H])[H])([H])[H])([H])([H])[H]

>  <h>  (27) 
<NA>

>  <Training>  (27) 
True

>  <Success>  (27) 
True

>  <enamine_searched>  (27) 
False

>  <enamine_id>  (27) 
nan

$$$$

     RDKit          3D

 64 68  0  0  0  0  0  0  0  0999 V2000
   -7.9499    2.5335  -22.0291 C   0  0  0  0  0  0  0  0  0  0  0  0
   -8.8233    2.1791  -23.1323 N   0  0  0  0  0  0  0  0  0  0  0  0
   -8.3548    1.5492  -24.2364 C   0  0  0  0  0  0  0  0  0  0  0  0
   -7.1641    1.4093  -24.4908 O   0  0  0  0  0  0  0  0  0  0  0  0
   -9.4559    0.9396  -25.1144 C   0  0  0  0  0  0  0  0  0  0  0  0
  -10.0808   -0.1259  -24.3537 N   0  0  0  0  0  0  0  0  0  0  0  0
   -9.2815   -1.3137  -24.1209 C   0  0  0  0  0  0  0  0  0  0  0  0
   -9.4430   -1.8823  -22.6834 C   0  0  2  0  0  0  0  0  0  0  0  0
   -8.8889   -0.9246  -21.6025 C   0  0  0  0  0  0  0  0  0  0  0  0
   -9.5110   -0.0461  -21.0322 O   0  0  0  0  0  0  0  0  0  0  0  0
   -7.5767   -1.2609  -21.3478 N   0  0  0  0  0  0  0  0  0  0  0  0
   -6.8248   -0.7203  -20.2670 C   0  0  0  0  0  0  0  0  0  0  0  0
   -7.1312   -1.0359  -18.9630 C   0  0  0  0  0  0  0  0  0  0  0  0
   -6.4037   -0.6343  -17.8918 N   0  0  0  0  0  0  0  0  0  0  0  0
   -5.3571    0.1220  -18.1153 C   0  0  0  0  0  0  0  0  0  0  0  0
   -4.9422    0.5541  -19.4075 C   0  0  0  0  0  0  0  0  0  0  0  0
   -3.8365    1.4313  -19.5928 C   0  0  0  0  0  0  0  0  0  0  0  0
   -3.4954    1.8588  -20.8472 C   0  0  0  0  0  0  0  0  0  0  0  0
   -4.2162    1.4042  -21.9714 C   0  0  0  0  0  0  0  0  0  0  0  0
   -5.2671    0.5251  -21.8156 C   0  0  0  0  0  0  0  0  0  0  0  0
   -5.6803    0.1008  -20.5251 C   0  0  0  0  0  0  0  0  0  0  0  0
   -5.8117    0.1804  -22.6885 H   0  0  0  0  0  0  0  0  0  0  0  0
   -3.9492    1.7599  -22.9633 H   0  0  0  0  0  0  0  0  0  0  0  0
   -2.6727    2.5566  -20.9859 H   0  0  0  0  0  0  0  0  0  0  0  0
   -3.2888    1.7667  -18.7136 H   0  0  0  0  0  0  0  0  0  0  0  0
   -4.7770    0.4342  -17.2465 H   0  0  0  0  0  0  0  0  0  0  0  0
   -7.9890   -1.6660  -18.7413 H   0  0  0  0  0  0  0  0  0  0  0  0
   -7.1592   -2.4714  -22.0314 C   0  0  0  0  0  0  0  0  0  0  0  0
   -8.4997   -3.1026  -22.4718 C   0  0  2  0  0  0  0  0  0  0  0  0
   -8.3806   -4.0175  -23.6848 C   0  0  0  0  0  0  0  0  0  0  0  0
   -7.3199   -5.4319  -23.4676 S   0  0  0  0  0  0  0  0  0  0  0  0
   -6.0368   -4.9969  -22.9409 O   0  0  0  0  0  0  0  0  0  0  0  0
   -7.3769   -6.1989  -24.7073 O   0  0  0  0  0  0  0  0  0  0  0  0
   -8.0733   -6.3030  -22.2438 N   0  0  0  0  0  0  0  0  0  0  0  0
   -7.3345   -7.5310  -21.8995 C   0  0  0  0  0  0  0  0  0  0  0  0
   -7.2270   -8.2291  -22.7428 H   0  0  0  0  0  0  0  0  0  0  0  0
   -7.8789   -8.0061  -21.0812 H   0  0  0  0  0  0  0  0  0  0  0  0
   -6.3357   -7.2547  -21.5558 H   0  0  0  0  0  0  0  0  0  0  0  0
   -9.0308   -6.5294  -22.5161 H   0  0  0  0  0  0  0  0  0  0  0  0
   -9.3562   -4.3909  -24.0127 H   0  0  0  0  0  0  0  0  0  0  0  0
   -7.9252   -3.5005  -24.5343 H   0  0  0  0  0  0  0  0  0  0  0  0
   -8.8750   -3.6845  -21.6219 H   0  0  0  0  0  0  0  0  0  0  0  0
   -6.5859   -3.1186  -21.3659 H   0  0  0  0  0  0  0  0  0  0  0  0
   -6.5218   -2.2340  -22.8958 H   0  0  0  0  0  0  0  0  0  0  0  0
  -10.9275   -2.0347  -22.4500 C   0  0  0  0  0  0  0  0  0  0  0  0
  -11.4898   -3.0666  -21.6967 C   0  0  0  0  0  0  0  0  0  0  0  0
  -12.8220   -2.9912  -21.3258 C   0  0  0  0  0  0  0  0  0  0  0  0
  -13.5076   -4.2016  -20.2961 Cl  0  0  0  0  0  0  0  0  0  0  0  0
  -13.6352   -1.9203  -21.6870 C   0  0  0  0  0  0  0  0  0  0  0  0
  -13.0954   -0.9139  -22.4554 C   0  0  0  0  0  0  0  0  0  0  0  0
  -11.7725   -0.9930  -22.8765 C   0  0  0  0  0  0  0  0  0  0  0  0
  -11.2808    0.1067  -23.7586 C   0  0  0  0  0  0  0  0  0  0  0  0
  -11.8924    1.1632  -23.9074 O   0  0  0  0  0  0  0  0  0  0  0  0
  -13.6853   -0.0524  -22.7479 H   0  0  0  0  0  0  0  0  0  0  0  0
  -14.6661   -1.8937  -21.3538 H   0  0  0  0  0  0  0  0  0  0  0  0
  -10.8955   -3.9120  -21.3677 H   0  0  0  0  0  0  0  0  0  0  0  0
   -8.2327   -1.0413  -24.2988 H   0  0  0  0  0  0  0  0  0  0  0  0
   -9.5856   -2.0822  -24.8466 H   0  0  0  0  0  0  0  0  0  0  0  0
  -10.2495    1.6511  -25.3690 H   0  0  0  0  0  0  0  0  0  0  0  0
   -9.0076    0.5420  -26.0341 H   0  0  0  0  0  0  0  0  0  0  0  0
   -9.8108    2.0924  -22.9301 H   0  0  0  0  0  0  0  0  0  0  0  0
   -8.0171    1.7780  -21.2272 H   0  0  0  0  0  0  0  0  0  0  0  0
   -6.9231    2.5785  -22.4066 H   0  0  0  0  0  0  0  0  0  0  0  0
   -8.2029    3.5214  -21.6219 H   0  0  0  0  0  0  0  0  0  0  0  0
  1  2  1  0
  2  3  1  0
  3  4  2  0
  3  5  1  0
  5  6  1  0
  6  7  1  0
  8  7  1  6
  8  9  1  0
  9 10  2  0
  9 11  1  0
 11 12  1  0
 12 13  2  0
 13 14  1  0
 14 15  2  0
 15 16  1  0
 16 17  2  0
 17 18  1  0
 18 19  2  0
 19 20  1  0
 20 21  2  0
 20 22  1  0
 19 23  1  0
 18 24  1  0
 17 25  1  0
 15 26  1  0
 13 27  1  0
 11 28  1  0
 28 29  1  0
 29 30  1  0
 30 31  1  0
 31 32  2  0
 31 33  2  0
 31 34  1  0
 34 35  1  0
 35 36  1  0
 35 37  1  0
 35 38  1  0
 34 39  1  0
 30 40  1  0
 30 41  1  0
 29 42  1  1
 28 43  1  0
 28 44  1  0
  8 45  1  0
 45 46  2  0
 46 47  1  0
 47 48  1  0
 47 49  2  0
 49 50  1  0
 50 51  2  0
 51 52  1  0
 52 53  2  0
 50 54  1  0
 49 55  1  0
 46 56  1  0
  7 57  1  0
  7 58  1  0
  5 59  1  0
  5 60  1  0
  2 61  1  0
  1 62  1  0
  1 63  1  0
  1 64  1  0
 52  6  1  0
 29  8  1  0
 51 45  1  0
 21 12  1  0
 21 16  1  0
M  END
>  <cnnaffinities>  (28) 
[6.3343, 6.22414]

>  <score>  (28) 
6.3343

>  <index>  (28) 
28

>  <Smiles>  (28) 
C(N(C(=O)C(N1C([C@@]2(C(=O)N(c3c(nc(c4c(c(c(c(c34)[H])[H])[H])[H])[H])[H])C([C@@]2(C(S(=O)(=O)N(C([H])([H])[H])[H])([H])[H])[H])([H])[H])c2c(c(Cl)c(c(c2C1=O)[H])[H])[H])([H])[H])([H])[H])[H])([H])([H])[H]

>  <h>  (28) 
<NA>

>  <Training>  (28) 
True

>  <Success>  (28) 
True

>  <enamine_searched>  (28) 
False

>  <enamine_id>  (28) 
nan

$$$$

     RDKit          3D

 55 60  0  0  0  0  0  0  0  0999 V2000
   -7.8806   -3.6213  -24.0833 C   0  0  0  0  0  0  0  0  0  0  0  0
   -8.2915   -2.8503  -22.8184 C   0  0  1  0  0  0  0  0  0  0  0  0
   -7.0927   -2.6215  -21.8721 C   0  0  0  0  0  0  0  0  0  0  0  0
   -7.4036   -1.3761  -21.1999 N   0  0  0  0  0  0  0  0  0  0  0  0
   -6.6112   -0.7960  -20.1731 C   0  0  0  0  0  0  0  0  0  0  0  0
   -6.9072   -1.0482  -18.8583 C   0  0  0  0  0  0  0  0  0  0  0  0
   -6.1990   -0.5598  -17.8109 N   0  0  0  0  0  0  0  0  0  0  0  0
   -5.1686    0.2077  -18.0741 C   0  0  0  0  0  0  0  0  0  0  0  0
   -4.7475    0.5567  -19.3892 C   0  0  0  0  0  0  0  0  0  0  0  0
   -3.6181    1.3882  -19.6266 C   0  0  0  0  0  0  0  0  0  0  0  0
   -3.2495    1.7161  -20.9023 C   0  0  0  0  0  0  0  0  0  0  0  0
   -4.0049    1.2349  -21.9925 C   0  0  0  0  0  0  0  0  0  0  0  0
   -5.0937    0.4113  -21.7858 C   0  0  0  0  0  0  0  0  0  0  0  0
   -5.5008    0.0567  -20.4752 C   0  0  0  0  0  0  0  0  0  0  0  0
   -5.6047   -0.0198  -22.6422 H   0  0  0  0  0  0  0  0  0  0  0  0
   -3.6832    1.4458  -23.0071 H   0  0  0  0  0  0  0  0  0  0  0  0
   -2.3561    2.3054  -21.0885 H   0  0  0  0  0  0  0  0  0  0  0  0
   -3.0674    1.7611  -18.7674 H   0  0  0  0  0  0  0  0  0  0  0  0
   -4.6235    0.6105  -17.2209 H   0  0  0  0  0  0  0  0  0  0  0  0
   -7.7554   -1.6741  -18.5941 H   0  0  0  0  0  0  0  0  0  0  0  0
   -8.4092   -0.6439  -21.7912 C   0  0  0  0  0  0  0  0  0  0  0  0
   -8.7679    0.4387  -21.3802 O   0  0  0  0  0  0  0  0  0  0  0  0
   -8.9497   -1.4422  -23.0134 C   0  0  1  0  0  0  0  0  0  0  0  0
   -8.4849   -0.8020  -24.3432 C   0  0  0  0  0  0  0  0  0  0  0  0
   -9.1438    0.4525  -24.6179 N   0  0  0  0  0  0  0  0  0  0  0  0
   -8.3524    1.6270  -24.9470 C   0  0  0  0  0  0  0  0  0  0  0  0
   -8.0508    2.4942  -23.7535 C   0  0  0  0  0  0  0  0  0  0  0  0
   -8.8802    3.4284  -23.1164 C   0  0  0  0  0  0  0  0  0  0  0  0
   -8.2161    3.9647  -22.0972 N   0  0  0  0  0  0  0  0  0  0  0  0
   -7.0540    3.3568  -22.1340 N   0  0  0  0  0  0  0  0  0  0  0  0
   -6.8804    2.4728  -23.1044 N   0  0  0  0  0  0  0  0  0  0  0  0
   -6.3765    3.5256  -21.4006 H   0  0  0  0  0  0  0  0  0  0  0  0
   -9.9096    3.7043  -23.3191 H   0  0  0  0  0  0  0  0  0  0  0  0
   -7.4067    1.3011  -25.3942 H   0  0  0  0  0  0  0  0  0  0  0  0
   -8.9224    2.2014  -25.6828 H   0  0  0  0  0  0  0  0  0  0  0  0
  -10.5033    0.5837  -24.5324 C   0  0  0  0  0  0  0  0  0  0  0  0
  -11.0968    1.5301  -25.0380 O   0  0  0  0  0  0  0  0  0  0  0  0
  -11.1940   -0.4793  -23.7355 C   0  0  0  0  0  0  0  0  0  0  0  0
  -12.5875   -0.4526  -23.6812 C   0  0  0  0  0  0  0  0  0  0  0  0
  -13.2775   -1.3124  -22.8504 C   0  0  0  0  0  0  0  0  0  0  0  0
  -12.5399   -2.1833  -22.0599 C   0  0  0  0  0  0  0  0  0  0  0  0
  -13.1903   -2.9849  -21.2022 F   0  0  0  0  0  0  0  0  0  0  0  0
  -11.1647   -2.2434  -22.1020 C   0  0  0  0  0  0  0  0  0  0  0  0
  -10.4656   -1.4201  -22.9904 C   0  0  0  0  0  0  0  0  0  0  0  0
  -10.6712   -2.9109  -21.4044 H   0  0  0  0  0  0  0  0  0  0  0  0
  -14.3591   -1.3403  -22.7946 H   0  0  0  0  0  0  0  0  0  0  0  0
  -13.0972    0.2697  -24.3057 H   0  0  0  0  0  0  0  0  0  0  0  0
   -7.4146   -0.5864  -24.2658 H   0  0  0  0  0  0  0  0  0  0  0  0
   -8.6663   -1.5092  -25.1686 H   0  0  0  0  0  0  0  0  0  0  0  0
   -6.1475   -2.5539  -22.4352 H   0  0  0  0  0  0  0  0  0  0  0  0
   -6.9669   -3.4277  -21.1410 H   0  0  0  0  0  0  0  0  0  0  0  0
   -9.0334   -3.4502  -22.2864 H   0  0  0  0  0  0  0  0  0  0  0  0
   -7.4912   -4.6150  -23.8299 H   0  0  0  0  0  0  0  0  0  0  0  0
   -7.0886   -3.0967  -24.6331 H   0  0  0  0  0  0  0  0  0  0  0  0
   -8.7180   -3.7639  -24.7760 H   0  0  0  0  0  0  0  0  0  0  0  0
  1  2  1  0
  2  3  1  0
  3  4  1  0
  4  5  1  0
  5  6  2  0
  6  7  1  0
  7  8  2  0
  8  9  1  0
  9 10  2  0
 10 11  1  0
 11 12  2  0
 12 13  1  0
 13 14  2  0
 13 15  1  0
 12 16  1  0
 11 17  1  0
 10 18  1  0
  8 19  1  0
  6 20  1  0
  4 21  1  0
 21 22  2  0
 21 23  1  0
 23 24  1  6
 24 25  1  0
 25 26  1  0
 26 27  1  0
 27 28  1  0
 28 29  2  0
 29 30  1  0
 30 31  1  0
 30 32  1  0
 28 33  1  0
 26 34  1  0
 26 35  1  0
 25 36  1  0
 36 37  2  0
 36 38  1  0
 38 39  2  0
 39 40  1  0
 40 41  2  0
 41 42  1  0
 41 43  1  0
 43 44  2  0
 43 45  1  0
 40 46  1  0
 39 47  1  0
 24 48  1  0
 24 49  1  0
  3 50  1  0
  3 51  1  0
  2 52  1  1
  1 53  1  0
  1 54  1  0
  1 55  1  0
 23  2  1  0
 31 27  2  0
 44 38  1  0
 14  5  1  0
 44 23  1  0
 14  9  1  0
M  END
>  <cnnaffinities>  (29) 
[5.24265, 5.39365]

>  <score>  (29) 
5.24265

>  <index>  (29) 
29

>  <Smiles>  (29) 
C([C@]1(C(N(c2c(nc(c3c(c(c(c(c23)[H])[H])[H])[H])[H])[H])C(=O)[C@]21C(N(C(c1c(nn(n1)[H])[H])([H])[H])C(=O)c1c(c(c(F)c(c21)[H])[H])[H])([H])[H])([H])[H])[H])([H])([H])[H]

>  <h>  (29) 
<NA>

>  <Training>  (29) 
True

>  <Success>  (29) 
True

>  <enamine_searched>  (29) 
False

>  <enamine_id>  (29) 
nan

$$$$

     RDKit          3D

 58 63  0  0  0  0  0  0  0  0999 V2000
   -7.2721   -3.3787  -23.8820 C   0  0  0  0  0  0  0  0  0  0  0  0
   -8.2398   -2.8741  -22.8055 C   0  0  1  0  0  0  0  0  0  0  0  0
   -7.5590   -2.7626  -21.4232 C   0  0  0  0  0  0  0  0  0  0  0  0
   -7.3470   -1.3411  -21.2483 N   0  0  0  0  0  0  0  0  0  0  0  0
   -6.5975   -0.7835  -20.1931 C   0  0  0  0  0  0  0  0  0  0  0  0
   -6.8930   -1.0811  -18.8873 C   0  0  0  0  0  0  0  0  0  0  0  0
   -6.2169   -0.5922  -17.8195 N   0  0  0  0  0  0  0  0  0  0  0  0
   -5.2030    0.2059  -18.0647 C   0  0  0  0  0  0  0  0  0  0  0  0
   -4.7846    0.5814  -19.3747 C   0  0  0  0  0  0  0  0  0  0  0  0
   -3.6417    1.3908  -19.5907 C   0  0  0  0  0  0  0  0  0  0  0  0
   -3.2802    1.7526  -20.8600 C   0  0  0  0  0  0  0  0  0  0  0  0
   -4.0371    1.3252  -21.9703 C   0  0  0  0  0  0  0  0  0  0  0  0
   -5.1315    0.5194  -21.7891 C   0  0  0  0  0  0  0  0  0  0  0  0
   -5.5216    0.1098  -20.4800 C   0  0  0  0  0  0  0  0  0  0  0  0
   -5.6924    0.1673  -22.6491 H   0  0  0  0  0  0  0  0  0  0  0  0
   -3.7585    1.6687  -22.9615 H   0  0  0  0  0  0  0  0  0  0  0  0
   -2.4014    2.3674  -21.0195 H   0  0  0  0  0  0  0  0  0  0  0  0
   -3.0758    1.7213  -18.7261 H   0  0  0  0  0  0  0  0  0  0  0  0
   -4.6423    0.5819  -17.2095 H   0  0  0  0  0  0  0  0  0  0  0  0
   -7.7361   -1.7298  -18.6573 H   0  0  0  0  0  0  0  0  0  0  0  0
   -8.2118   -0.5678  -21.9941 C   0  0  0  0  0  0  0  0  0  0  0  0
   -8.3984    0.6166  -21.8223 O   0  0  0  0  0  0  0  0  0  0  0  0
   -8.8911   -1.4692  -23.0488 C   0  0  1  0  0  0  0  0  0  0  0  0
   -8.6331   -0.9239  -24.4719 C   0  0  0  0  0  0  0  0  0  0  0  0
   -9.3219    0.3276  -24.7194 N   0  0  0  0  0  0  0  0  0  0  0  0
   -8.6601    1.4098  -25.4273 C   0  0  0  0  0  0  0  0  0  0  0  0
   -8.2175    2.5019  -24.4888 C   0  0  0  0  0  0  0  0  0  0  0  0
   -6.9506    2.5783  -23.9880 C   0  0  0  0  0  0  0  0  0  0  0  0
   -6.5746    3.6280  -23.0693 C   0  0  0  0  0  0  0  0  0  0  0  0
   -5.4773    3.8461  -22.5868 O   0  0  0  0  0  0  0  0  0  0  0  0
   -7.6674    4.4599  -22.7478 N   0  0  0  0  0  0  0  0  0  0  0  0
   -8.8974    4.3237  -23.3051 C   0  0  0  0  0  0  0  0  0  0  0  0
   -9.1984    3.4044  -24.1646 N   0  0  0  0  0  0  0  0  0  0  0  0
   -9.6525    5.0450  -23.0073 H   0  0  0  0  0  0  0  0  0  0  0  0
   -7.4800    5.1792  -22.0602 H   0  0  0  0  0  0  0  0  0  0  0  0
   -6.1868    1.8596  -24.2512 H   0  0  0  0  0  0  0  0  0  0  0  0
   -9.3906    1.8326  -26.1188 H   0  0  0  0  0  0  0  0  0  0  0  0
   -7.8208    0.9935  -25.9960 H   0  0  0  0  0  0  0  0  0  0  0  0
  -10.6646    0.4361  -24.4837 C   0  0  0  0  0  0  0  0  0  0  0  0
  -11.3638    1.2887  -25.0143 O   0  0  0  0  0  0  0  0  0  0  0  0
  -11.2205   -0.5347  -23.4957 C   0  0  0  0  0  0  0  0  0  0  0  0
  -12.5905   -0.4662  -23.2444 C   0  0  0  0  0  0  0  0  0  0  0  0
  -13.1976   -1.3702  -22.3975 C   0  0  0  0  0  0  0  0  0  0  0  0
  -12.3806   -2.3128  -21.7863 C   0  0  0  0  0  0  0  0  0  0  0  0
  -12.9459   -3.2516  -21.0133 F   0  0  0  0  0  0  0  0  0  0  0  0
  -11.0099   -2.3506  -21.9513 C   0  0  0  0  0  0  0  0  0  0  0  0
  -10.4026   -1.4623  -22.8407 C   0  0  0  0  0  0  0  0  0  0  0  0
  -10.4415   -3.0611  -21.3644 H   0  0  0  0  0  0  0  0  0  0  0  0
  -14.2613   -1.3421  -22.1836 H   0  0  0  0  0  0  0  0  0  0  0  0
  -13.1461    0.3132  -23.7491 H   0  0  0  0  0  0  0  0  0  0  0  0
   -8.9869   -1.6828  -25.1816 H   0  0  0  0  0  0  0  0  0  0  0  0
   -7.5635   -0.7725  -24.6337 H   0  0  0  0  0  0  0  0  0  0  0  0
   -6.6014   -3.2931  -21.3753 H   0  0  0  0  0  0  0  0  0  0  0  0
   -8.2114   -3.1617  -20.6336 H   0  0  0  0  0  0  0  0  0  0  0  0
   -9.0360   -3.6217  -22.7685 H   0  0  0  0  0  0  0  0  0  0  0  0
   -6.8925   -4.3659  -23.5999 H   0  0  0  0  0  0  0  0  0  0  0  0
   -6.4153   -2.7121  -24.0210 H   0  0  0  0  0  0  0  0  0  0  0  0
   -7.7819   -3.4958  -24.8426 H   0  0  0  0  0  0  0  0  0  0  0  0
  1  2  1  0
  2  3  1  0
  3  4  1  0
  4  5  1  0
  5  6  2  0
  6  7  1  0
  7  8  2  0
  8  9  1  0
  9 10  2  0
 10 11  1  0
 11 12  2  0
 12 13  1  0
 13 14  2  0
 13 15  1  0
 12 16  1  0
 11 17  1  0
 10 18  1  0
  8 19  1  0
  6 20  1  0
  4 21  1  0
 21 22  2  0
 21 23  1  0
 23 24  1  6
 24 25  1  0
 25 26  1  0
 26 27  1  0
 27 28  2  0
 28 29  1  0
 29 30  2  0
 29 31  1  0
 31 32  1  0
 32 33  2  0
 32 34  1  0
 31 35  1  0
 28 36  1  0
 26 37  1  0
 26 38  1  0
 25 39  1  0
 39 40  2  0
 39 41  1  0
 41 42  2  0
 42 43  1  0
 43 44  2  0
 44 45  1  0
 44 46  1  0
 46 47  2  0
 46 48  1  0
 43 49  1  0
 42 50  1  0
 24 51  1  0
 24 52  1  0
  3 53  1  0
  3 54  1  0
  2 55  1  1
  1 56  1  0
  1 57  1  0
  1 58  1  0
 23  2  1  0
 33 27  1  0
 47 41  1  0
 14  5  1  0
 47 23  1  0
 14  9  1  0
M  END
>  <cnnaffinities>  (30) 
[5.80114]

>  <score>  (30) 
5.80114

>  <index>  (30) 
30

>  <Smiles>  (30) 
C([C@]1(C(N(c2c(nc(c3c(c(c(c(c23)[H])[H])[H])[H])[H])[H])C(=O)[C@]21C(N(C(c1c(c(=O)n(c(n1)[H])[H])[H])([H])[H])C(=O)c1c(c(c(F)c(c21)[H])[H])[H])([H])[H])([H])[H])[H])([H])([H])[H]

>  <h>  (30) 
<NA>

>  <Training>  (30) 
True

>  <Success>  (30) 
True

>  <enamine_searched>  (30) 
False

>  <enamine_id>  (30) 
nan

$$$$

     RDKit          3D

 66 71  0  0  0  0  0  0  0  0999 V2000
   -7.3546    3.4430  -21.9155 C   0  0  0  0  0  0  0  0  0  0  0  0
   -8.2203    2.9702  -22.9874 N   0  0  0  0  0  0  0  0  0  0  0  0
   -7.6443    2.2259  -23.9794 C   0  0  0  0  0  0  0  0  0  0  0  0
   -6.4399    2.0494  -24.0726 O   0  0  0  0  0  0  0  0  0  0  0  0
   -8.6190    1.6190  -24.9888 C   0  0  0  0  0  0  0  0  0  0  0  0
   -9.3201    0.4916  -24.4157 N   0  0  0  0  0  0  0  0  0  0  0  0
   -8.5829   -0.7472  -24.2389 C   0  0  0  0  0  0  0  0  0  0  0  0
   -9.0099   -1.4809  -22.9491 C   0  0  2  0  0  0  0  0  0  0  0  0
   -8.4825   -0.7166  -21.7154 C   0  0  0  0  0  0  0  0  0  0  0  0
   -8.9172    0.3204  -21.2469 O   0  0  0  0  0  0  0  0  0  0  0  0
   -7.3976   -1.3911  -21.2131 N   0  0  0  0  0  0  0  0  0  0  0  0
   -6.6163   -0.8042  -20.1845 C   0  0  0  0  0  0  0  0  0  0  0  0
   -6.9322   -1.0510  -18.8742 C   0  0  0  0  0  0  0  0  0  0  0  0
   -6.2387   -0.5709  -17.8133 N   0  0  0  0  0  0  0  0  0  0  0  0
   -5.2111    0.2037  -18.0708 C   0  0  0  0  0  0  0  0  0  0  0  0
   -4.7945    0.5709  -19.3831 C   0  0  0  0  0  0  0  0  0  0  0  0
   -3.6570    1.3900  -19.6129 C   0  0  0  0  0  0  0  0  0  0  0  0
   -3.3057    1.7524  -20.8848 C   0  0  0  0  0  0  0  0  0  0  0  0
   -4.0822    1.3322  -21.9863 C   0  0  0  0  0  0  0  0  0  0  0  0
   -5.1663    0.5045  -21.7948 C   0  0  0  0  0  0  0  0  0  0  0  0
   -5.5358    0.0818  -20.4858 C   0  0  0  0  0  0  0  0  0  0  0  0
   -5.7420    0.1776  -22.6566 H   0  0  0  0  0  0  0  0  0  0  0  0
   -3.8272    1.6602  -22.9908 H   0  0  0  0  0  0  0  0  0  0  0  0
   -2.4217    2.3603  -21.0514 H   0  0  0  0  0  0  0  0  0  0  0  0
   -3.0855    1.7219  -18.7502 H   0  0  0  0  0  0  0  0  0  0  0  0
   -4.6349    0.5720  -17.2208 H   0  0  0  0  0  0  0  0  0  0  0  0
   -7.7919   -1.6762  -18.6455 H   0  0  0  0  0  0  0  0  0  0  0  0
   -7.0610   -2.5997  -21.9424 C   0  0  0  0  0  0  0  0  0  0  0  0
   -8.3007   -2.8638  -22.8133 C   0  0  2  0  0  0  0  0  0  0  0  0
   -7.9261   -3.6206  -24.0938 C   0  0  0  0  0  0  0  0  0  0  0  0
   -9.0885   -3.9630  -24.8827 N   0  0  0  0  0  0  0  0  0  0  0  0
   -8.9845   -4.5898  -26.0852 C   0  0  0  0  0  0  0  0  0  0  0  0
  -10.1295   -4.9097  -26.8406 C   0  0  0  0  0  0  0  0  0  0  0  0
   -9.9265   -5.5287  -28.0507 C   0  0  0  0  0  0  0  0  0  0  0  0
   -8.7117   -5.8383  -28.5328 N   0  0  0  0  0  0  0  0  0  0  0  0
   -7.7089   -5.4994  -27.7363 C   0  0  0  0  0  0  0  0  0  0  0  0
   -7.7615   -4.8916  -26.5455 N   0  0  0  0  0  0  0  0  0  0  0  0
   -6.7050   -5.7440  -28.0948 H   0  0  0  0  0  0  0  0  0  0  0  0
  -10.7698   -5.8001  -28.6842 H   0  0  0  0  0  0  0  0  0  0  0  0
  -11.1283   -4.6818  -26.4856 H   0  0  0  0  0  0  0  0  0  0  0  0
  -10.0084   -3.7483  -24.5282 H   0  0  0  0  0  0  0  0  0  0  0  0
   -7.3925   -4.5455  -23.8373 H   0  0  0  0  0  0  0  0  0  0  0  0
   -7.2396   -3.0289  -24.7175 H   0  0  0  0  0  0  0  0  0  0  0  0
   -8.9779   -3.5180  -22.2547 H   0  0  0  0  0  0  0  0  0  0  0  0
   -6.8590   -3.4283  -21.2562 H   0  0  0  0  0  0  0  0  0  0  0  0
   -6.1667   -2.4591  -22.5695 H   0  0  0  0  0  0  0  0  0  0  0  0
  -10.5222   -1.5229  -22.8941 C   0  0  0  0  0  0  0  0  0  0  0  0
  -11.1605   -2.4041  -22.0183 C   0  0  0  0  0  0  0  0  0  0  0  0
  -12.5373   -2.3969  -21.9131 C   0  0  0  0  0  0  0  0  0  0  0  0
  -13.2828   -3.4583  -20.7590 Cl  0  0  0  0  0  0  0  0  0  0  0  0
  -13.3299   -1.5316  -22.6661 C   0  0  0  0  0  0  0  0  0  0  0  0
  -12.7003   -0.6247  -23.4941 C   0  0  0  0  0  0  0  0  0  0  0  0
  -11.3115   -0.5965  -23.5856 C   0  0  0  0  0  0  0  0  0  0  0  0
  -10.6873    0.5140  -24.3665 C   0  0  0  0  0  0  0  0  0  0  0  0
  -11.3529    1.4017  -24.8810 O   0  0  0  0  0  0  0  0  0  0  0  0
  -13.2531    0.1023  -24.0751 H   0  0  0  0  0  0  0  0  0  0  0  0
  -14.4105   -1.5698  -22.5828 H   0  0  0  0  0  0  0  0  0  0  0  0
  -10.5960   -3.0731  -21.3785 H   0  0  0  0  0  0  0  0  0  0  0  0
   -8.7582   -1.4138  -25.0927 H   0  0  0  0  0  0  0  0  0  0  0  0
   -7.5119   -0.5179  -24.2056 H   0  0  0  0  0  0  0  0  0  0  0  0
   -8.0440    1.3003  -25.8654 H   0  0  0  0  0  0  0  0  0  0  0  0
   -9.3796    2.3442  -25.2912 H   0  0  0  0  0  0  0  0  0  0  0  0
   -9.1795    2.7585  -22.7370 H   0  0  0  0  0  0  0  0  0  0  0  0
   -7.9419    4.0045  -21.1840 H   0  0  0  0  0  0  0  0  0  0  0  0
   -6.5943    4.1136  -22.3269 H   0  0  0  0  0  0  0  0  0  0  0  0
   -6.8475    2.5974  -21.4250 H   0  0  0  0  0  0  0  0  0  0  0  0
  1  2  1  0
  2  3  1  0
  3  4  2  0
  3  5  1  0
  5  6  1  0
  6  7  1  0
  8  7  1  6
  8  9  1  0
  9 10  2  0
  9 11  1  0
 11 12  1  0
 12 13  2  0
 13 14  1  0
 14 15  2  0
 15 16  1  0
 16 17  2  0
 17 18  1  0
 18 19  2  0
 19 20  1  0
 20 21  2  0
 20 22  1  0
 19 23  1  0
 18 24  1  0
 17 25  1  0
 15 26  1  0
 13 27  1  0
 11 28  1  0
 28 29  1  0
 29 30  1  0
 30 31  1  0
 31 32  1  0
 32 33  2  0
 33 34  1  0
 34 35  2  0
 35 36  1  0
 36 37  2  0
 36 38  1  0
 34 39  1  0
 33 40  1  0
 31 41  1  0
 30 42  1  0
 30 43  1  0
 29 44  1  1
 28 45  1  0
 28 46  1  0
  8 47  1  0
 47 48  2  0
 48 49  1  0
 49 50  1  0
 49 51  2  0
 51 52  1  0
 52 53  2  0
 53 54  1  0
 54 55  2  0
 52 56  1  0
 51 57  1  0
 48 58  1  0
  7 59  1  0
  7 60  1  0
  5 61  1  0
  5 62  1  0
  2 63  1  0
  1 64  1  0
  1 65  1  0
  1 66  1  0
 54  6  1  0
 29  8  1  0
 37 32  1  0
 53 47  1  0
 21 12  1  0
 21 16  1  0
M  END
>  <cnnaffinities>  (31) 
[5.73879]

>  <score>  (31) 
5.73879

>  <index>  (31) 
31

>  <Smiles>  (31) 
C(N(C(=O)C(N1C([C@@]2(C(=O)N(c3c(nc(c4c(c(c(c(c34)[H])[H])[H])[H])[H])[H])C([C@@]2(C(N(c2c(c(nc(n2)[H])[H])[H])[H])([H])[H])[H])([H])[H])c2c(c(Cl)c(c(c2C1=O)[H])[H])[H])([H])[H])([H])[H])[H])([H])([H])[H]

>  <h>  (31) 
<NA>

>  <Training>  (31) 
True

>  <Success>  (31) 
True

>  <enamine_searched>  (31) 
False

>  <enamine_id>  (31) 
nan

$$$$

     RDKit          3D

 57 62  0  0  0  0  0  0  0  0999 V2000
   -8.1214   -4.0487  -23.7130 C   0  0  0  0  0  0  0  0  0  0  0  0
   -8.3896   -3.1526  -22.4991 C   0  0  1  0  0  0  0  0  0  0  0  0
   -7.1085   -2.4156  -22.0514 C   0  0  0  0  0  0  0  0  0  0  0  0
   -7.5975   -1.2721  -21.3073 N   0  0  0  0  0  0  0  0  0  0  0  0
   -6.8538   -0.7054  -20.2300 C   0  0  0  0  0  0  0  0  0  0  0  0
   -7.1320   -1.0488  -18.9284 C   0  0  0  0  0  0  0  0  0  0  0  0
   -6.3914   -0.6655  -17.8557 N   0  0  0  0  0  0  0  0  0  0  0  0
   -5.3369    0.0831  -18.0702 C   0  0  0  0  0  0  0  0  0  0  0  0
   -4.9319    0.5224  -19.3615 C   0  0  0  0  0  0  0  0  0  0  0  0
   -3.7926    1.3513  -19.5527 C   0  0  0  0  0  0  0  0  0  0  0  0
   -3.4562    1.7860  -20.8042 C   0  0  0  0  0  0  0  0  0  0  0  0
   -4.2343    1.4059  -21.9194 C   0  0  0  0  0  0  0  0  0  0  0  0
   -5.3335    0.5929  -21.7611 C   0  0  0  0  0  0  0  0  0  0  0  0
   -5.7105    0.1264  -20.4783 C   0  0  0  0  0  0  0  0  0  0  0  0
   -5.9642    0.3730  -22.6202 H   0  0  0  0  0  0  0  0  0  0  0  0
   -3.9791    1.7751  -22.9092 H   0  0  0  0  0  0  0  0  0  0  0  0
   -2.6072    2.4490  -20.9474 H   0  0  0  0  0  0  0  0  0  0  0  0
   -3.2044    1.6380  -18.6827 H   0  0  0  0  0  0  0  0  0  0  0  0
   -4.7374    0.3799  -17.2045 H   0  0  0  0  0  0  0  0  0  0  0  0
   -7.9940   -1.6741  -18.7052 H   0  0  0  0  0  0  0  0  0  0  0  0
   -8.9217   -0.9893  -21.5860 C   0  0  0  0  0  0  0  0  0  0  0  0
   -9.5576   -0.1002  -21.0571 O   0  0  0  0  0  0  0  0  0  0  0  0
   -9.4380   -1.9985  -22.6744 C   0  0  1  0  0  0  0  0  0  0  0  0
   -9.3008   -1.4102  -24.1032 C   0  0  0  0  0  0  0  0  0  0  0  0
  -10.3292   -0.4493  -24.4733 N   0  0  0  0  0  0  0  0  0  0  0  0
   -9.8886    0.7392  -25.1936 C   0  0  0  0  0  0  0  0  0  0  0  0
   -9.1094    1.5932  -24.2393 C   0  0  0  0  0  0  0  0  0  0  0  0
   -7.8068    1.7682  -24.2252 N   0  0  0  0  0  0  0  0  0  0  0  0
   -7.5446    2.4395  -23.0839 N   0  0  0  0  0  0  0  0  0  0  0  0
   -8.6212    2.6552  -22.4119 N   0  0  0  0  0  0  0  0  0  0  0  0
   -9.6272    2.1337  -23.1225 N   0  0  0  0  0  0  0  0  0  0  0  0
  -10.9947    2.2640  -22.6357 C   0  0  0  0  0  0  0  0  0  0  0  0
  -11.1957    1.4526  -21.9256 H   0  0  0  0  0  0  0  0  0  0  0  0
  -11.6774    2.2435  -23.4927 H   0  0  0  0  0  0  0  0  0  0  0  0
  -11.0698    3.2322  -22.1328 H   0  0  0  0  0  0  0  0  0  0  0  0
  -10.7761    1.2291  -25.6067 H   0  0  0  0  0  0  0  0  0  0  0  0
   -9.2329    0.4508  -26.0191 H   0  0  0  0  0  0  0  0  0  0  0  0
  -11.6370   -0.5460  -24.0909 C   0  0  0  0  0  0  0  0  0  0  0  0
  -12.5320    0.1142  -24.6083 O   0  0  0  0  0  0  0  0  0  0  0  0
  -11.9090   -1.4571  -22.9441 C   0  0  0  0  0  0  0  0  0  0  0  0
  -13.1803   -1.4056  -22.3696 C   0  0  0  0  0  0  0  0  0  0  0  0
  -13.5368   -2.3455  -21.4299 C   0  0  0  0  0  0  0  0  0  0  0  0
  -12.6244   -3.3449  -21.1262 C   0  0  0  0  0  0  0  0  0  0  0  0
  -13.0079   -4.2627  -20.2248 F   0  0  0  0  0  0  0  0  0  0  0  0
  -11.3382   -3.3688  -21.6296 C   0  0  0  0  0  0  0  0  0  0  0  0
  -10.9120   -2.3226  -22.4555 C   0  0  0  0  0  0  0  0  0  0  0  0
  -10.6693   -4.1531  -21.2969 H   0  0  0  0  0  0  0  0  0  0  0  0
  -14.4976   -2.3588  -20.9326 H   0  0  0  0  0  0  0  0  0  0  0  0
  -13.8650   -0.6154  -22.6665 H   0  0  0  0  0  0  0  0  0  0  0  0
   -8.3241   -0.9205  -24.1852 H   0  0  0  0  0  0  0  0  0  0  0  0
   -9.3364   -2.2445  -24.8113 H   0  0  0  0  0  0  0  0  0  0  0  0
   -6.5381   -2.0980  -22.9391 H   0  0  0  0  0  0  0  0  0  0  0  0
   -6.4426   -3.0199  -21.4281 H   0  0  0  0  0  0  0  0  0  0  0  0
   -8.7087   -3.7819  -21.6603 H   0  0  0  0  0  0  0  0  0  0  0  0
   -7.4373   -4.8672  -23.4636 H   0  0  0  0  0  0  0  0  0  0  0  0
   -9.0350   -4.4919  -24.1243 H   0  0  0  0  0  0  0  0  0  0  0  0
   -7.6478   -3.4752  -24.5185 H   0  0  0  0  0  0  0  0  0  0  0  0
  1  2  1  0
  2  3  1  0
  3  4  1  0
  4  5  1  0
  5  6  2  0
  6  7  1  0
  7  8  2  0
  8  9  1  0
  9 10  2  0
 10 11  1  0
 11 12  2  0
 12 13  1  0
 13 14  2  0
 13 15  1  0
 12 16  1  0
 11 17  1  0
 10 18  1  0
  8 19  1  0
  6 20  1  0
  4 21  1  0
 21 22  2  0
 21 23  1  0
 23 24  1  6
 24 25  1  0
 25 26  1  0
 26 27  1  0
 27 28  2  0
 28 29  1  0
 29 30  2  0
 30 31  1  0
 31 32  1  0
 32 33  1  0
 32 34  1  0
 32 35  1  0
 26 36  1  0
 26 37  1  0
 25 38  1  0
 38 39  2  0
 38 40  1  0
 40 41  2  0
 41 42  1  0
 42 43  2  0
 43 44  1  0
 43 45  1  0
 45 46  2  0
 45 47  1  0
 42 48  1  0
 41 49  1  0
 24 50  1  0
 24 51  1  0
  3 52  1  0
  3 53  1  0
  2 54  1  1
  1 55  1  0
  1 56  1  0
  1 57  1  0
 23  2  1  0
 31 27  1  0
 46 40  1  0
 14  5  1  0
 46 23  1  0
 14  9  1  0
M  END
>  <cnnaffinities>  (32) 
[6.29125, 5.65629]

>  <score>  (32) 
6.29125

>  <index>  (32) 
32

>  <Smiles>  (32) 
C([C@]1(C(N(c2c(nc(c3c(c(c(c(c23)[H])[H])[H])[H])[H])[H])C(=O)[C@]21C(N(C(c1nnnn1C([H])([H])[H])([H])[H])C(=O)c1c(c(c(F)c(c21)[H])[H])[H])([H])[H])([H])[H])[H])([H])([H])[H]

>  <h>  (32) 
<NA>

>  <Training>  (32) 
True

>  <Success>  (32) 
True

>  <enamine_searched>  (32) 
False

>  <enamine_id>  (32) 
nan

$$$$

     RDKit          3D

 66 70  0  0  0  0  0  0  0  0999 V2000
   -7.4070    3.4022  -21.9179 C   0  0  0  0  0  0  0  0  0  0  0  0
   -8.3486    2.9177  -22.9172 N   0  0  0  0  0  0  0  0  0  0  0  0
   -7.8257    2.1699  -23.9342 C   0  0  0  0  0  0  0  0  0  0  0  0
   -6.6279    1.9725  -24.0646 O   0  0  0  0  0  0  0  0  0  0  0  0
   -8.8419    1.5707  -24.9070 C   0  0  0  0  0  0  0  0  0  0  0  0
   -9.4980    0.4322  -24.2927 N   0  0  0  0  0  0  0  0  0  0  0  0
   -8.7467   -0.8046  -24.1393 C   0  0  0  0  0  0  0  0  0  0  0  0
   -9.1072   -1.5302  -22.8207 C   0  0  2  0  0  0  0  0  0  0  0  0
   -8.5574   -0.7401  -21.6096 C   0  0  0  0  0  0  0  0  0  0  0  0
   -9.0171    0.2692  -21.1059 O   0  0  0  0  0  0  0  0  0  0  0  0
   -7.4084   -1.3618  -21.1826 N   0  0  0  0  0  0  0  0  0  0  0  0
   -6.6209   -0.7814  -20.1610 C   0  0  0  0  0  0  0  0  0  0  0  0
   -6.9252   -1.0405  -18.8517 C   0  0  0  0  0  0  0  0  0  0  0  0
   -6.2259   -0.5633  -17.7944 N   0  0  0  0  0  0  0  0  0  0  0  0
   -5.1974    0.2068  -18.0576 C   0  0  0  0  0  0  0  0  0  0  0  0
   -4.7852    0.5734  -19.3710 C   0  0  0  0  0  0  0  0  0  0  0  0
   -3.6541    1.3966  -19.6086 C   0  0  0  0  0  0  0  0  0  0  0  0
   -3.3193    1.7680  -20.8803 C   0  0  0  0  0  0  0  0  0  0  0  0
   -4.1039    1.3516  -21.9777 C   0  0  0  0  0  0  0  0  0  0  0  0
   -5.1859    0.5231  -21.7807 C   0  0  0  0  0  0  0  0  0  0  0  0
   -5.5381    0.0949  -20.4706 C   0  0  0  0  0  0  0  0  0  0  0  0
   -5.7803    0.2138  -22.6366 H   0  0  0  0  0  0  0  0  0  0  0  0
   -3.8553    1.6841  -22.9814 H   0  0  0  0  0  0  0  0  0  0  0  0
   -2.4425    2.3838  -21.0526 H   0  0  0  0  0  0  0  0  0  0  0  0
   -3.0804    1.7331  -18.7494 H   0  0  0  0  0  0  0  0  0  0  0  0
   -4.6220    0.5752  -17.2075 H   0  0  0  0  0  0  0  0  0  0  0  0
   -7.7804   -1.6716  -18.6238 H   0  0  0  0  0  0  0  0  0  0  0  0
   -7.0592   -2.5617  -21.9185 C   0  0  0  0  0  0  0  0  0  0  0  0
   -8.3502   -2.8827  -22.6901 C   0  0  2  0  0  0  0  0  0  0  0  0
   -8.0798   -3.6688  -23.9754 C   0  0  0  0  0  0  0  0  0  0  0  0
   -7.5288   -4.9353  -23.6762 O   0  0  0  0  0  0  0  0  0  0  0  0
   -8.4631   -6.0126  -23.5896 C   0  0  0  0  0  0  0  0  0  0  0  0
   -7.9515   -6.9514  -22.5094 C   0  0  0  0  0  0  0  0  0  0  0  0
   -7.8286   -6.4113  -21.5693 H   0  0  0  0  0  0  0  0  0  0  0  0
   -6.9768   -7.3506  -22.8072 H   0  0  0  0  0  0  0  0  0  0  0  0
   -8.6473   -7.7821  -22.3466 H   0  0  0  0  0  0  0  0  0  0  0  0
   -8.5760   -6.7306  -24.9351 C   0  0  0  0  0  0  0  0  0  0  0  0
   -8.9194   -6.0541  -25.7274 H   0  0  0  0  0  0  0  0  0  0  0  0
   -9.2859   -7.5650  -24.8586 H   0  0  0  0  0  0  0  0  0  0  0  0
   -7.5957   -7.1282  -25.2247 H   0  0  0  0  0  0  0  0  0  0  0  0
   -9.4608   -5.6256  -23.3059 H   0  0  0  0  0  0  0  0  0  0  0  0
   -8.9965   -3.7568  -24.5837 H   0  0  0  0  0  0  0  0  0  0  0  0
   -7.3284   -3.1413  -24.5790 H   0  0  0  0  0  0  0  0  0  0  0  0
   -8.9497   -3.5301  -22.0462 H   0  0  0  0  0  0  0  0  0  0  0  0
   -6.7766   -3.3712  -21.2381 H   0  0  0  0  0  0  0  0  0  0  0  0
   -6.2135   -2.3916  -22.6030 H   0  0  0  0  0  0  0  0  0  0  0  0
  -10.6146   -1.6153  -22.7369 C   0  0  0  0  0  0  0  0  0  0  0  0
  -11.2256   -2.5543  -21.9045 C   0  0  0  0  0  0  0  0  0  0  0  0
  -12.5982   -2.5736  -21.7698 C   0  0  0  0  0  0  0  0  0  0  0  0
  -13.3032   -3.7000  -20.6558 Cl  0  0  0  0  0  0  0  0  0  0  0  0
  -13.4223   -1.6898  -22.4610 C   0  0  0  0  0  0  0  0  0  0  0  0
  -12.8236   -0.7432  -23.2626 C   0  0  0  0  0  0  0  0  0  0  0  0
  -11.4383   -0.6847  -23.3828 C   0  0  0  0  0  0  0  0  0  0  0  0
  -10.8598    0.4445  -24.1756 C   0  0  0  0  0  0  0  0  0  0  0  0
  -11.5535    1.3305  -24.6529 O   0  0  0  0  0  0  0  0  0  0  0  0
  -13.4046   -0.0133  -23.8102 H   0  0  0  0  0  0  0  0  0  0  0  0
  -14.4996   -1.7459  -22.3551 H   0  0  0  0  0  0  0  0  0  0  0  0
  -10.6524   -3.2729  -21.3330 H   0  0  0  0  0  0  0  0  0  0  0  0
   -8.9676   -1.4830  -24.9751 H   0  0  0  0  0  0  0  0  0  0  0  0
   -7.6762   -0.5728  -24.1699 H   0  0  0  0  0  0  0  0  0  0  0  0
   -9.6198    2.2908  -25.1831 H   0  0  0  0  0  0  0  0  0  0  0  0
   -8.3192    1.2562  -25.8187 H   0  0  0  0  0  0  0  0  0  0  0  0
   -9.2876    2.6957  -22.6024 H   0  0  0  0  0  0  0  0  0  0  0  0
   -6.6428    4.0097  -22.4144 H   0  0  0  0  0  0  0  0  0  0  0  0
   -6.9160    2.5563  -21.4059 H   0  0  0  0  0  0  0  0  0  0  0  0
   -7.9240    4.0476  -21.2034 H   0  0  0  0  0  0  0  0  0  0  0  0
  1  2  1  0
  2  3  1  0
  3  4  2  0
  3  5  1  0
  5  6  1  0
  6  7  1  0
  8  7  1  6
  8  9  1  0
  9 10  2  0
  9 11  1  0
 11 12  1  0
 12 13  2  0
 13 14  1  0
 14 15  2  0
 15 16  1  0
 16 17  2  0
 17 18  1  0
 18 19  2  0
 19 20  1  0
 20 21  2  0
 20 22  1  0
 19 23  1  0
 18 24  1  0
 17 25  1  0
 15 26  1  0
 13 27  1  0
 11 28  1  0
 28 29  1  0
 29 30  1  0
 30 31  1  0
 31 32  1  0
 32 33  1  0
 33 34  1  0
 33 35  1  0
 33 36  1  0
 32 37  1  0
 37 38  1  0
 37 39  1  0
 37 40  1  0
 32 41  1  0
 30 42  1  0
 30 43  1  0
 29 44  1  1
 28 45  1  0
 28 46  1  0
  8 47  1  0
 47 48  2  0
 48 49  1  0
 49 50  1  0
 49 51  2  0
 51 52  1  0
 52 53  2  0
 53 54  1  0
 54 55  2  0
 52 56  1  0
 51 57  1  0
 48 58  1  0
  7 59  1  0
  7 60  1  0
  5 61  1  0
  5 62  1  0
  2 63  1  0
  1 64  1  0
  1 65  1  0
  1 66  1  0
 54  6  1  0
 29  8  1  0
 53 47  1  0
 21 12  1  0
 21 16  1  0
M  END
>  <cnnaffinities>  (33) 
[5.84277, 5.8182, 5.65862]

>  <score>  (33) 
5.84277

>  <index>  (33) 
34

>  <Smiles>  (33) 
C(N(C(=O)C(N1C([C@@]2(C(=O)N(c3c(nc(c4c(c(c(c(c34)[H])[H])[H])[H])[H])[H])C([C@@]2(C(OC(C([H])([H])[H])(C([H])([H])[H])[H])([H])[H])[H])([H])[H])c2c(c(Cl)c(c(c2C1=O)[H])[H])[H])([H])[H])([H])[H])[H])([H])([H])[H]

>  <h>  (33) 
<NA>

>  <Training>  (33) 
True

>  <Success>  (33) 
True

>  <enamine_searched>  (33) 
False

>  <enamine_id>  (33) 
nan

$$$$

     RDKit          3D

 40 42  0  0  0  0  0  0  0  0999 V2000
   -9.0322   -1.8179  -22.6935 O   0  0  0  0  0  0  0  0  0  0  0  0
   -8.1972   -0.9563  -22.4303 C   0  0  0  0  0  0  0  0  0  0  0  0
   -6.7672   -1.2958  -22.0462 C   0  0  0  0  0  0  0  0  0  0  0  0
   -6.3301   -0.6332  -20.7464 C   0  0  0  0  0  0  0  0  0  0  0  0
   -6.9466   -0.9779  -19.5653 C   0  0  0  0  0  0  0  0  0  0  0  0
   -6.6034   -0.5144  -18.3355 N   0  0  0  0  0  0  0  0  0  0  0  0
   -5.5925    0.3199  -18.2715 C   0  0  0  0  0  0  0  0  0  0  0  0
   -4.8600    0.7725  -19.4037 C   0  0  0  0  0  0  0  0  0  0  0  0
   -3.7449    1.6450  -19.2815 C   0  0  0  0  0  0  0  0  0  0  0  0
   -3.1063    2.1242  -20.3924 C   0  0  0  0  0  0  0  0  0  0  0  0
   -3.5478    1.7425  -21.6770 C   0  0  0  0  0  0  0  0  0  0  0  0
   -4.6065    0.8747  -21.8142 C   0  0  0  0  0  0  0  0  0  0  0  0
   -5.2687    0.3259  -20.6840 C   0  0  0  0  0  0  0  0  0  0  0  0
   -4.8860    0.5632  -22.8168 H   0  0  0  0  0  0  0  0  0  0  0  0
   -3.0441    2.1331  -22.5577 H   0  0  0  0  0  0  0  0  0  0  0  0
   -2.2642    2.8041  -20.2962 H   0  0  0  0  0  0  0  0  0  0  0  0
   -3.4043    1.9199  -18.2841 H   0  0  0  0  0  0  0  0  0  0  0  0
   -5.3106    0.6920  -17.2842 H   0  0  0  0  0  0  0  0  0  0  0  0
   -7.7683   -1.6961  -19.5686 H   0  0  0  0  0  0  0  0  0  0  0  0
   -6.7562   -2.3844  -21.9601 H   0  0  0  0  0  0  0  0  0  0  0  0
   -6.0924   -1.0481  -22.8710 H   0  0  0  0  0  0  0  0  0  0  0  0
   -8.4269    0.3836  -22.4151 N   0  0  0  0  0  0  0  0  0  0  0  0
   -7.5176    1.3323  -23.1171 C   0  0  0  0  0  0  0  0  0  0  0  0
   -8.1624    2.5422  -23.7103 C   0  0  0  0  0  0  0  0  0  0  0  0
   -9.4440    2.8862  -23.6728 C   0  0  0  0  0  0  0  0  0  0  0  0
   -8.6307    5.5229  -23.0477 C   0  0  0  0  0  0  0  0  0  0  0  0
   -8.1664    5.2976  -21.8338 F   0  0  0  0  0  0  0  0  0  0  0  0
   -9.5797    6.4374  -23.0226 F   0  0  0  0  0  0  0  0  0  0  0  0
   -7.6573    5.8788  -23.8641 F   0  0  0  0  0  0  0  0  0  0  0  0
   -9.6881    1.0343  -22.0020 C   0  0  0  0  0  0  0  0  0  0  0  0
   -9.6995    0.8699  -21.8329 C   0  0  0  0  0  0  0  0  0  0  0  0
  -10.3595    0.4959  -22.8685 H   0  0  0  0  0  0  0  0  0  0  0  0
  -10.0040   -0.1036  -20.6382 H   0  0  0  0  0  0  0  0  0  0  0  0
  -10.6839    1.6968  -21.7570 H   0  0  0  0  0  0  0  0  0  0  0  0
   -9.0720    1.9090  -21.3986 H   0  0  0  0  0  0  0  0  0  0  0  0
   -9.6795    3.9376  -23.7971 H   0  0  0  0  0  0  0  0  0  0  0  0
   -7.4230    3.2150  -24.1371 H   0  0  0  0  0  0  0  0  0  0  0  0
  -10.2252    2.1648  -23.5541 H   0  0  0  0  0  0  0  0  0  0  0  0
   -6.9944    0.7892  -23.9035 H   0  0  0  0  0  0  0  0  0  0  0  0
   -6.7730    1.6807  -22.3935 H   0  0  0  0  0  0  0  0  0  0  0  0
  1  2  2  0
  2  3  1  0
  3  4  1  0
  4  5  2  0
  5  6  1  0
  6  7  2  0
  7  8  1  0
  8  9  2  0
  9 10  1  0
 10 11  2  0
 11 12  1  0
 12 13  2  0
 12 14  1  0
 11 15  1  0
 10 16  1  0
  9 17  1  0
  7 18  1  0
  5 19  1  0
  3 20  1  0
  3 21  1  0
  2 22  1  0
 22 23  1  0
 23 24  1  0
 24 25  1  0
 25 26  1  0
 26 27  1  0
 26 28  1  0
 26 29  1  0
 25 30  1  0
 30 31  1  0
 31 32  1  0
 31 33  1  0
 30 34  1  0
 30 35  1  0
 25 36  1  0
 24 37  1  0
 24 38  1  0
 23 39  1  0
 23 40  1  0
 13  4  1  0
 31 22  1  0
 13  8  1  0
M  END
>  <cnnaffinities>  (34) 
[4.41099]

>  <score>  (34) 
4.41099

>  <index>  (34) 
35

>  <Smiles>  (34) 
O=C(C(c1c(nc(c2c(c(c(c(c12)[H])[H])[H])[H])[H])[H])([H])[H])N1C(C(C(C(F)(F)F)(C(C1([H])[H])([H])[H])[H])([H])[H])([H])[H]

>  <h>  (34) 
<NA>

>  <Training>  (34) 
True

>  <Success>  (34) 
True

>  <enamine_searched>  (34) 
False

>  <enamine_id>  (34) 
nan

$$$$

     RDKit          3D

 47 50  0  0  0  0  0  0  0  0999 V2000
   -5.7722   -3.2733  -21.1957 O   0  0  0  0  0  0  0  0  0  0  0  0
   -6.4928   -2.5689  -21.8825 C   0  0  0  0  0  0  0  0  0  0  0  0
   -7.3744   -1.4835  -21.2622 C   0  0  0  0  0  0  0  0  0  0  0  0
   -6.6327   -0.7679  -20.1646 C   0  0  0  0  0  0  0  0  0  0  0  0
   -6.9003   -1.0529  -18.8530 C   0  0  0  0  0  0  0  0  0  0  0  0
   -6.2101   -0.5801  -17.7826 N   0  0  0  0  0  0  0  0  0  0  0  0
   -5.2093    0.2303  -18.0400 C   0  0  0  0  0  0  0  0  0  0  0  0
   -4.8152    0.6158  -19.3503 C   0  0  0  0  0  0  0  0  0  0  0  0
   -3.6610    1.4052  -19.5783 C   0  0  0  0  0  0  0  0  0  0  0  0
   -3.3054    1.7745  -20.8482 C   0  0  0  0  0  0  0  0  0  0  0  0
   -4.1037    1.3794  -21.9443 C   0  0  0  0  0  0  0  0  0  0  0  0
   -5.1944    0.5627  -21.7603 C   0  0  0  0  0  0  0  0  0  0  0  0
   -5.5586    0.1257  -20.4555 C   0  0  0  0  0  0  0  0  0  0  0  0
   -5.7811    0.2554  -22.6248 H   0  0  0  0  0  0  0  0  0  0  0  0
   -3.8492    1.7353  -22.9423 H   0  0  0  0  0  0  0  0  0  0  0  0
   -2.4212    2.3875  -21.0170 H   0  0  0  0  0  0  0  0  0  0  0  0
   -3.0680    1.7095  -18.7176 H   0  0  0  0  0  0  0  0  0  0  0  0
   -4.6255    0.5924  -17.1905 H   0  0  0  0  0  0  0  0  0  0  0  0
   -7.7225   -1.7257  -18.6113 H   0  0  0  0  0  0  0  0  0  0  0  0
   -8.2713   -1.9786  -20.8615 H   0  0  0  0  0  0  0  0  0  0  0  0
   -7.6903   -0.7806  -22.0406 H   0  0  0  0  0  0  0  0  0  0  0  0
   -6.5192   -2.6820  -23.2585 N   0  0  0  0  0  0  0  0  0  0  0  0
   -5.3618   -3.2958  -23.8840 C   0  0  0  0  0  0  0  0  0  0  0  0
   -4.8320   -2.3612  -24.9575 C   0  0  0  0  0  0  0  0  0  0  0  0
   -5.9313   -2.0721  -25.9782 C   0  0  0  0  0  0  0  0  0  0  0  0
   -7.2070   -1.5660  -25.2919 C   0  0  0  0  0  0  0  0  0  0  0  0
   -7.6654   -2.4873  -24.1529 C   0  0  1  0  0  0  0  0  0  0  0  0
   -8.2662   -3.8157  -24.6463 C   0  0  0  0  0  0  0  0  0  0  0  0
   -8.5247   -4.8338  -23.7224 C   0  0  0  0  0  0  0  0  0  0  0  0
   -9.0904   -6.0409  -24.1204 C   0  0  0  0  0  0  0  0  0  0  0  0
   -9.4335   -6.2571  -25.4497 C   0  0  0  0  0  0  0  0  0  0  0  0
   -9.1871   -5.2557  -26.3792 C   0  0  0  0  0  0  0  0  0  0  0  0
   -8.6067   -4.0540  -25.9832 C   0  0  0  0  0  0  0  0  0  0  0  0
   -8.4160   -3.3151  -26.7548 H   0  0  0  0  0  0  0  0  0  0  0  0
   -9.4555   -5.4007  -27.4223 H   0  0  0  0  0  0  0  0  0  0  0  0
   -9.8948   -7.1903  -25.7607 H   0  0  0  0  0  0  0  0  0  0  0  0
   -9.2749   -6.8142  -23.3816 H   0  0  0  0  0  0  0  0  0  0  0  0
   -8.2868   -4.6980  -22.6710 H   0  0  0  0  0  0  0  0  0  0  0  0
   -8.4507   -1.9897  -23.5688 H   0  0  0  0  0  0  0  0  0  0  0  0
   -8.0227   -1.4089  -26.0052 H   0  0  0  0  0  0  0  0  0  0  0  0
   -7.0069   -0.5749  -24.8695 H   0  0  0  0  0  0  0  0  0  0  0  0
   -6.1381   -2.9932  -26.5364 H   0  0  0  0  0  0  0  0  0  0  0  0
   -5.5892   -1.3378  -26.7173 H   0  0  0  0  0  0  0  0  0  0  0  0
   -4.5221   -1.4252  -24.4819 H   0  0  0  0  0  0  0  0  0  0  0  0
   -3.9316   -2.7754  -25.4255 H   0  0  0  0  0  0  0  0  0  0  0  0
   -5.6561   -4.2639  -24.3082 H   0  0  0  0  0  0  0  0  0  0  0  0
   -4.6391   -3.4904  -23.0924 H   0  0  0  0  0  0  0  0  0  0  0  0
  1  2  2  0
  2  3  1  0
  3  4  1  0
  4  5  2  0
  5  6  1  0
  6  7  2  0
  7  8  1  0
  8  9  2  0
  9 10  1  0
 10 11  2  0
 11 12  1  0
 12 13  2  0
 12 14  1  0
 11 15  1  0
 10 16  1  0
  9 17  1  0
  7 18  1  0
  5 19  1  0
  3 20  1  0
  3 21  1  0
  2 22  1  0
 22 23  1  0
 23 24  1  0
 24 25  1  0
 25 26  1  0
 26 27  1  0
 27 28  1  0
 28 29  2  0
 29 30  1  0
 30 31  2  0
 31 32  1  0
 32 33  2  0
 33 34  1  0
 32 35  1  0
 31 36  1  0
 30 37  1  0
 29 38  1  0
 27 39  1  1
 26 40  1  0
 26 41  1  0
 25 42  1  0
 25 43  1  0
 24 44  1  0
 24 45  1  0
 23 46  1  0
 23 47  1  0
 13  4  1  0
 27 22  1  0
 33 28  1  0
 13  8  1  0
M  END
>  <cnnaffinities>  (35) 
[4.89391, 4.89548, 5.12269, 5.11945, 4.89503, 4.89463]

>  <score>  (35) 
4.89391

>  <index>  (35) 
36

>  <Smiles>  (35) 
O=C(C(c1c(nc(c2c(c(c(c(c12)[H])[H])[H])[H])[H])[H])([H])[H])N1C(C(C(C([C@]1(c1c(c(c(c(c1[H])[H])[H])[H])[H])[H])([H])[H])([H])[H])([H])[H])([H])[H]

>  <h>  (35) 
<NA>

>  <Training>  (35) 
True

>  <Success>  (35) 
True

>  <enamine_searched>  (35) 
False

>  <enamine_id>  (35) 
nan

$$$$

     RDKit          3D

 56 60  0  0  0  0  0  0  0  0999 V2000
   -6.8261    3.5772  -23.2080 C   0  0  0  0  0  0  0  0  0  0  0  0
   -7.7078    2.9575  -24.1772 N   0  0  0  0  0  0  0  0  0  0  0  0
   -7.2867    1.8513  -24.8342 C   0  0  0  0  0  0  0  0  0  0  0  0
   -6.1467    1.4109  -24.7547 O   0  0  0  0  0  0  0  0  0  0  0  0
   -8.3621    1.1598  -25.6750 C   0  0  0  0  0  0  0  0  0  0  0  0
   -9.1790    0.3010  -24.8348 N   0  0  0  0  0  0  0  0  0  0  0  0
   -8.6876   -1.0223  -24.4996 C   0  0  0  0  0  0  0  0  0  0  0  0
   -8.9996   -1.4177  -23.0332 C   0  0  2  0  0  0  0  0  0  0  0  0
   -8.2026   -0.4972  -22.0835 C   0  0  0  0  0  0  0  0  0  0  0  0
   -8.1869    0.7165  -22.1002 O   0  0  0  0  0  0  0  0  0  0  0  0
   -7.4564   -1.2729  -21.2253 N   0  0  0  0  0  0  0  0  0  0  0  0
   -6.6584   -0.7358  -20.1929 C   0  0  0  0  0  0  0  0  0  0  0  0
   -6.8990   -1.0819  -18.8848 C   0  0  0  0  0  0  0  0  0  0  0  0
   -6.2012   -0.6169  -17.8219 N   0  0  0  0  0  0  0  0  0  0  0  0
   -5.2006    0.1950  -18.0661 C   0  0  0  0  0  0  0  0  0  0  0  0
   -4.8056    0.5906  -19.3759 C   0  0  0  0  0  0  0  0  0  0  0  0
   -3.6703    1.4204  -19.5892 C   0  0  0  0  0  0  0  0  0  0  0  0
   -3.3173    1.8084  -20.8527 C   0  0  0  0  0  0  0  0  0  0  0  0
   -4.0922    1.3959  -21.9588 C   0  0  0  0  0  0  0  0  0  0  0  0
   -5.1791    0.5730  -21.7832 C   0  0  0  0  0  0  0  0  0  0  0  0
   -5.5607    0.1387  -20.4795 C   0  0  0  0  0  0  0  0  0  0  0  0
   -5.7681    0.2966  -22.6492 H   0  0  0  0  0  0  0  0  0  0  0  0
   -3.8490    1.7452  -22.9603 H   0  0  0  0  0  0  0  0  0  0  0  0
   -2.4465    2.4405  -21.0098 H   0  0  0  0  0  0  0  0  0  0  0  0
   -3.1010    1.7410  -18.7216 H   0  0  0  0  0  0  0  0  0  0  0  0
   -4.6406    0.5716  -17.2095 H   0  0  0  0  0  0  0  0  0  0  0  0
   -7.7194   -1.7573  -18.6460 H   0  0  0  0  0  0  0  0  0  0  0  0
   -7.8060   -2.6801  -21.2892 C   0  0  0  0  0  0  0  0  0  0  0  0
   -8.4905   -2.8419  -22.6607 C   0  0  2  0  0  0  0  0  0  0  0  0
   -7.5904   -3.5403  -23.6863 C   0  0  0  0  0  0  0  0  0  0  0  0
   -8.1159   -3.6588  -24.6392 H   0  0  0  0  0  0  0  0  0  0  0  0
   -7.3344   -4.5467  -23.3354 H   0  0  0  0  0  0  0  0  0  0  0  0
   -6.6609   -2.9886  -23.8669 H   0  0  0  0  0  0  0  0  0  0  0  0
   -9.3528   -3.4978  -22.5532 H   0  0  0  0  0  0  0  0  0  0  0  0
   -6.9034   -3.2898  -21.1869 H   0  0  0  0  0  0  0  0  0  0  0  0
   -8.4940   -2.9423  -20.4743 H   0  0  0  0  0  0  0  0  0  0  0  0
  -10.5055   -1.2290  -22.8433 C   0  0  0  0  0  0  0  0  0  0  0  0
  -11.3154   -2.1016  -22.1026 C   0  0  0  0  0  0  0  0  0  0  0  0
  -12.6739   -1.8771  -21.9896 C   0  0  0  0  0  0  0  0  0  0  0  0
  -13.2637   -0.7572  -22.5722 C   0  0  0  0  0  0  0  0  0  0  0  0
  -12.4800    0.1358  -23.2813 C   0  0  0  0  0  0  0  0  0  0  0  0
  -11.1230   -0.1264  -23.4487 C   0  0  0  0  0  0  0  0  0  0  0  0
  -10.3409    0.7984  -24.3373 C   0  0  0  0  0  0  0  0  0  0  0  0
  -10.7232    1.9378  -24.6037 O   0  0  0  0  0  0  0  0  0  0  0  0
  -12.8936    1.0034  -23.7835 H   0  0  0  0  0  0  0  0  0  0  0  0
  -14.3304   -0.6095  -22.4953 H   0  0  0  0  0  0  0  0  0  0  0  0
  -13.2906   -2.5614  -21.4102 H   0  0  0  0  0  0  0  0  0  0  0  0
  -10.9259   -2.9921  -21.6139 H   0  0  0  0  0  0  0  0  0  0  0  0
   -9.1462   -1.7704  -25.1582 H   0  0  0  0  0  0  0  0  0  0  0  0
   -7.6116   -1.0112  -24.6734 H   0  0  0  0  0  0  0  0  0  0  0  0
   -9.0228    1.8952  -26.1404 H   0  0  0  0  0  0  0  0  0  0  0  0
   -7.8692    0.5637  -26.4493 H   0  0  0  0  0  0  0  0  0  0  0  0
   -8.7069    3.0830  -24.0559 H   0  0  0  0  0  0  0  0  0  0  0  0
   -7.3285    4.4310  -22.7490 H   0  0  0  0  0  0  0  0  0  0  0  0
   -5.9130    3.9212  -23.7040 H   0  0  0  0  0  0  0  0  0  0  0  0
   -6.5454    2.8569  -22.4283 H   0  0  0  0  0  0  0  0  0  0  0  0
  1  2  1  0
  2  3  1  0
  3  4  2  0
  3  5  1  0
  5  6  1  0
  6  7  1  0
  8  7  1  6
  8  9  1  0
  9 10  2  0
  9 11  1  0
 11 12  1  0
 12 13  2  0
 13 14  1  0
 14 15  2  0
 15 16  1  0
 16 17  2  0
 17 18  1  0
 18 19  2  0
 19 20  1  0
 20 21  2  0
 20 22  1  0
 19 23  1  0
 18 24  1  0
 17 25  1  0
 15 26  1  0
 13 27  1  0
 11 28  1  0
 28 29  1  0
 29 30  1  0
 30 31  1  0
 30 32  1  0
 30 33  1  0
 29 34  1  1
 28 35  1  0
 28 36  1  0
  8 37  1  0
 37 38  2  0
 38 39  1  0
 39 40  2  0
 40 41  1  0
 41 42  2  0
 42 43  1  0
 43 44  2  0
 41 45  1  0
 40 46  1  0
 39 47  1  0
 38 48  1  0
  7 49  1  0
  7 50  1  0
  5 51  1  0
  5 52  1  0
  2 53  1  0
  1 54  1  0
  1 55  1  0
  1 56  1  0
 43  6  1  0
 29  8  1  0
 42 37  1  0
 21 12  1  0
 21 16  1  0
M  END
>  <cnnaffinities>  (36) 
[5.4774, 5.49479]

>  <score>  (36) 
5.4774

>  <index>  (36) 
37

>  <Smiles>  (36) 
C(N(C(=O)C(N1C([C@@]2(C(=O)N(c3c(nc(c4c(c(c(c(c34)[H])[H])[H])[H])[H])[H])C([C@@]2(C([H])([H])[H])[H])([H])[H])c2c(c(c(c(c2C1=O)[H])[H])[H])[H])([H])[H])([H])[H])[H])([H])([H])[H]

>  <h>  (36) 
<NA>

>  <Training>  (36) 
True

>  <Success>  (36) 
True

>  <enamine_searched>  (36) 
False

>  <enamine_id>  (36) 
nan

$$$$

     RDKit          3D

 46 48  0  0  0  0  0  0  0  0999 V2000
   -8.1588   -4.6955  -26.5423 C   0  0  0  0  0  0  0  0  0  0  0  0
   -8.6538   -4.9604  -25.1202 C   0  0  1  0  0  0  0  0  0  0  0  0
   -7.5895   -5.5238  -24.1829 C   0  0  0  0  0  0  0  0  0  0  0  0
   -6.6142   -4.5191  -23.5546 C   0  0  1  0  0  0  0  0  0  0  0  0
   -5.4109   -4.1610  -24.4396 C   0  0  0  0  0  0  0  0  0  0  0  0
   -4.6067   -3.7392  -23.8297 H   0  0  0  0  0  0  0  0  0  0  0  0
   -5.6622   -3.4336  -25.2133 H   0  0  0  0  0  0  0  0  0  0  0  0
   -5.0144   -5.0544  -24.9389 H   0  0  0  0  0  0  0  0  0  0  0  0
   -7.3227   -3.3374  -23.0115 N   0  0  0  0  0  0  0  0  0  0  0  0
   -6.7237   -2.7026  -21.9377 C   0  0  0  0  0  0  0  0  0  0  0  0
   -5.6729   -3.1083  -21.4646 O   0  0  0  0  0  0  0  0  0  0  0  0
   -7.4079   -1.4710  -21.2804 C   0  0  0  0  0  0  0  0  0  0  0  0
   -6.5790   -0.8356  -20.1854 C   0  0  0  0  0  0  0  0  0  0  0  0
   -6.8721   -1.0494  -18.8614 C   0  0  0  0  0  0  0  0  0  0  0  0
   -6.1900   -0.5435  -17.7983 N   0  0  0  0  0  0  0  0  0  0  0  0
   -5.1577    0.2222  -18.0608 C   0  0  0  0  0  0  0  0  0  0  0  0
   -4.7222    0.5316  -19.3785 C   0  0  0  0  0  0  0  0  0  0  0  0
   -3.5928    1.3589  -19.6157 C   0  0  0  0  0  0  0  0  0  0  0  0
   -3.2111    1.6715  -20.8944 C   0  0  0  0  0  0  0  0  0  0  0  0
   -3.9835    1.2117  -21.9828 C   0  0  0  0  0  0  0  0  0  0  0  0
   -5.0662    0.3818  -21.7774 C   0  0  0  0  0  0  0  0  0  0  0  0
   -5.4594    0.0065  -20.4683 C   0  0  0  0  0  0  0  0  0  0  0  0
   -5.5419   -0.1019  -22.6264 H   0  0  0  0  0  0  0  0  0  0  0  0
   -3.5993    1.3523  -22.9891 H   0  0  0  0  0  0  0  0  0  0  0  0
   -2.3242    2.2734  -21.0843 H   0  0  0  0  0  0  0  0  0  0  0  0
   -3.0532    1.7687  -18.7646 H   0  0  0  0  0  0  0  0  0  0  0  0
   -4.6021    0.6288  -17.2138 H   0  0  0  0  0  0  0  0  0  0  0  0
   -7.7203   -1.6715  -18.5860 H   0  0  0  0  0  0  0  0  0  0  0  0
   -7.6727   -0.7117  -22.0291 H   0  0  0  0  0  0  0  0  0  0  0  0
   -8.3597   -1.8073  -20.8468 H   0  0  0  0  0  0  0  0  0  0  0  0
   -8.4091   -2.7206  -23.7945 C   0  0  1  0  0  0  0  0  0  0  0  0
   -7.9404   -1.6594  -24.8003 C   0  0  0  0  0  0  0  0  0  0  0  0
   -7.4441   -2.0868  -25.6747 H   0  0  0  0  0  0  0  0  0  0  0  0
   -8.7979   -1.0832  -25.1710 H   0  0  0  0  0  0  0  0  0  0  0  0
   -7.2449   -0.9504  -24.3424 H   0  0  0  0  0  0  0  0  0  0  0  0
   -9.3274   -3.7777  -24.4256 C   0  0  0  0  0  0  0  0  0  0  0  0
   -9.9805   -4.1691  -23.6382 H   0  0  0  0  0  0  0  0  0  0  0  0
   -9.9961   -3.2807  -25.1352 H   0  0  0  0  0  0  0  0  0  0  0  0
   -9.0340   -2.1959  -23.0652 H   0  0  0  0  0  0  0  0  0  0  0  0
   -6.1936   -5.0209  -22.6811 H   0  0  0  0  0  0  0  0  0  0  0  0
   -8.0915   -6.0574  -23.3681 H   0  0  0  0  0  0  0  0  0  0  0  0
   -7.0138   -6.2886  -24.7140 H   0  0  0  0  0  0  0  0  0  0  0  0
   -9.4279   -5.7364  -25.2246 H   0  0  0  0  0  0  0  0  0  0  0  0
   -7.9249   -5.6400  -27.0467 H   0  0  0  0  0  0  0  0  0  0  0  0
   -8.9303   -4.1954  -27.1374 H   0  0  0  0  0  0  0  0  0  0  0  0
   -7.2566   -4.0819  -26.5824 H   0  0  0  0  0  0  0  0  0  0  0  0
  1  2  1  0
  2  3  1  0
  3  4  1  0
  4  5  1  0
  5  6  1  0
  5  7  1  0
  5  8  1  0
  4  9  1  0
  9 10  1  0
 10 11  2  0
 10 12  1  0
 12 13  1  0
 13 14  2  0
 14 15  1  0
 15 16  2  0
 16 17  1  0
 17 18  2  0
 18 19  1  0
 19 20  2  0
 20 21  1  0
 21 22  2  0
 21 23  1  0
 20 24  1  0
 19 25  1  0
 18 26  1  0
 16 27  1  0
 14 28  1  0
 12 29  1  0
 12 30  1  0
  9 31  1  0
 31 32  1  0
 32 33  1  0
 32 34  1  0
 32 35  1  0
 31 36  1  0
 36 37  1  0
 36 38  1  0
 31 39  1  1
  4 40  1  1
  3 41  1  0
  3 42  1  0
  2 43  1  6
  1 44  1  0
  1 45  1  0
  1 46  1  0
 36  2  1  0
 22 13  1  0
 22 17  1  0
M  END
>  <cnnaffinities>  (37) 
[5.15775]

>  <score>  (37) 
5.15775

>  <index>  (37) 
38

>  <Smiles>  (37) 
C([C@]1(C([C@@](C([H])([H])[H])(N(C(=O)C(c2c(nc(c3c(c(c(c(c23)[H])[H])[H])[H])[H])[H])([H])[H])[C@@](C([H])([H])[H])(C1([H])[H])[H])[H])([H])[H])[H])([H])([H])[H]

>  <h>  (37) 
<NA>

>  <Training>  (37) 
True

>  <Success>  (37) 
True

>  <enamine_searched>  (37) 
False

>  <enamine_id>  (37) 
nan

$$$$

     RDKit          3D

 40 44  0  0  0  0  0  0  0  0999 V2000
   -7.2381    0.9070  -25.5945 C   0  0  0  0  0  0  0  0  0  0  0  0
   -6.5076   -0.3981  -25.3918 C   0  0  0  0  0  0  0  0  0  0  0  0
   -5.2908   -0.4839  -25.4500 O   0  0  0  0  0  0  0  0  0  0  0  0
   -7.2845   -1.4924  -25.1486 N   0  0  0  0  0  0  0  0  0  0  0  0
   -6.6429   -2.7679  -24.7690 C   0  0  0  0  0  0  0  0  0  0  0  0
   -7.8049   -3.4816  -24.0382 C   0  0  2  0  0  0  0  0  0  0  0  0
   -9.0137   -2.9649  -24.8409 C   0  0  0  0  0  0  0  0  0  0  0  0
   -8.6556   -1.4882  -24.5714 C   0  0  1  0  0  0  0  0  0  0  0  0
   -8.5327   -1.5107  -23.1019 C   0  0  0  0  0  0  0  0  0  0  0  0
   -8.1975   -0.5742  -22.0606 C   0  0  0  0  0  0  0  0  0  0  0  0
   -8.4474    0.5991  -21.8738 O   0  0  0  0  0  1  0  0  0  0  0  0
   -7.4010   -1.3614  -21.1817 N   0  0  0  0  0  0  0  0  0  0  0  0
   -6.6089   -0.7808  -20.1628 C   0  0  0  0  0  0  0  0  0  0  0  0
   -6.8930   -1.0668  -18.8519 C   0  0  0  0  0  0  0  0  0  0  0  0
   -6.1973   -0.5782  -17.7940 N   0  0  0  0  0  0  0  0  0  0  0  0
   -5.1934    0.2213  -18.0605 C   0  0  0  0  0  0  0  0  0  0  0  0
   -4.7916    0.5947  -19.3772 C   0  0  0  0  0  0  0  0  0  0  0  0
   -3.6455    1.4065  -19.5960 C   0  0  0  0  0  0  0  0  0  0  0  0
   -3.2628    1.7397  -20.8649 C   0  0  0  0  0  0  0  0  0  0  0  0
   -4.0265    1.3093  -21.9752 C   0  0  0  0  0  0  0  0  0  0  0  0
   -5.1054    0.4752  -21.7945 C   0  0  0  0  0  0  0  0  0  0  0  0
   -5.5162    0.0919  -20.4797 C   0  0  0  0  0  0  0  0  0  0  0  0
   -5.6140    0.0853  -22.6760 H   0  0  0  0  0  0  0  0  0  0  0  0
   -3.7265    1.5921  -22.9826 H   0  0  0  0  0  0  0  0  0  0  0  0
   -2.3754    2.3452  -21.0336 H   0  0  0  0  0  0  0  0  0  0  0  0
   -3.0681    1.7190  -18.7288 H   0  0  0  0  0  0  0  0  0  0  0  0
   -4.6206    0.6043  -17.2145 H   0  0  0  0  0  0  0  0  0  0  0  0
   -7.7354   -1.7142  -18.6197 H   0  0  0  0  0  0  0  0  0  0  0  0
   -7.1857   -2.6677  -21.6682 C   0  0  0  0  0  0  0  0  0  0  0  0
   -6.4125   -3.4886  -21.2444 O   0  0  0  0  0  0  0  0  0  0  0  0
   -8.0315   -2.7504  -22.7676 N   0  0  0  0  0  0  0  0  0  0  0  0
   -9.2802   -0.6963  -24.9829 H   0  0  0  0  0  0  0  0  0  0  0  0
   -9.9775   -3.2685  -24.4326 H   0  0  0  0  0  0  0  0  0  0  0  0
   -8.9582   -3.1829  -25.9090 H   0  0  0  0  0  0  0  0  0  0  0  0
   -7.6873   -4.5506  -23.8860 H   0  0  0  0  0  0  0  0  0  0  0  0
   -5.8151   -2.5662  -24.0863 H   0  0  0  0  0  0  0  0  0  0  0  0
   -6.2650   -3.2885  -25.6551 H   0  0  0  0  0  0  0  0  0  0  0  0
   -6.5001    1.6491  -25.8940 H   0  0  0  0  0  0  0  0  0  0  0  0
   -7.7109    1.2114  -24.6579 H   0  0  0  0  0  0  0  0  0  0  0  0
   -8.0202    0.8110  -26.3539 H   0  0  0  0  0  0  0  0  0  0  0  0
  1  2  1  0
  2  3  2  0
  2  4  1  0
  4  5  1  0
  5  6  1  0
  6  7  1  0
  7  8  1  0
  8  9  1  0
  9 10  2  0
 10 11  1  0
 10 12  1  0
 12 13  1  0
 13 14  2  0
 14 15  1  0
 15 16  2  0
 16 17  1  0
 17 18  2  0
 18 19  1  0
 19 20  2  0
 20 21  1  0
 21 22  2  0
 21 23  1  0
 20 24  1  0
 19 25  1  0
 18 26  1  0
 16 27  1  0
 14 28  1  0
 12 29  1  0
 29 30  2  0
 29 31  1  0
  8 32  1  1
  7 33  1  0
  7 34  1  0
  6 35  1  1
  5 36  1  0
  5 37  1  0
  1 38  1  0
  1 39  1  0
  1 40  1  0
  8  4  1  0
 31  9  1  0
 31  6  1  0
 22 13  1  0
 22 17  1  0
M  CHG  1  11  -1
M  END
>  <cnnaffinities>  (38) 
[4.90229, 4.95741]

>  <score>  (38) 
4.90229

>  <index>  (38) 
39

>  <Smiles>  (38) 
C(C(=O)N1C([C@@]2(C([C@]1(c1c([O-])n(c3c(nc(c4c(c(c(c(c34)[H])[H])[H])[H])[H])[H])c(=O)n21)[H])([H])[H])[H])([H])[H])([H])([H])[H]

>  <h>  (38) 
<NA>

>  <Training>  (38) 
True

>  <Success>  (38) 
True

>  <enamine_searched>  (38) 
False

>  <enamine_id>  (38) 
nan

$$$$

     RDKit          3D

 40 42  0  0  0  0  0  0  0  0999 V2000
   -6.3326   -4.2857  -27.2847 C   0  0  0  0  0  0  0  0  0  0  0  0
   -6.1966   -3.3802  -26.0598 C   0  0  0  0  0  0  0  0  0  0  0  0
   -7.5507   -3.0558  -25.4270 C   0  0  0  0  0  0  0  0  0  0  0  0
   -7.4096   -2.1619  -24.1927 C   0  0  0  0  0  0  0  0  0  0  0  0
   -6.4816   -2.7564  -23.2372 N   0  0  0  0  0  0  0  0  0  0  0  0
   -6.5209   -2.6297  -21.8646 C   0  0  0  0  0  0  0  0  0  0  0  0
   -5.8643   -3.3614  -21.1436 O   0  0  0  0  0  0  0  0  0  0  0  0
   -7.3683   -1.4977  -21.2747 C   0  0  0  0  0  0  0  0  0  0  0  0
   -6.6231   -0.7770  -20.1785 C   0  0  0  0  0  0  0  0  0  0  0  0
   -6.8944   -1.0505  -18.8660 C   0  0  0  0  0  0  0  0  0  0  0  0
   -6.2054   -0.5757  -17.7928 N   0  0  0  0  0  0  0  0  0  0  0  0
   -5.2013    0.2278  -18.0509 C   0  0  0  0  0  0  0  0  0  0  0  0
   -4.8029    0.6088  -19.3623 C   0  0  0  0  0  0  0  0  0  0  0  0
   -3.6540    1.4108  -19.5819 C   0  0  0  0  0  0  0  0  0  0  0  0
   -3.2835    1.7624  -20.8551 C   0  0  0  0  0  0  0  0  0  0  0  0
   -4.0726    1.3496  -21.9588 C   0  0  0  0  0  0  0  0  0  0  0  0
   -5.1585    0.5277  -21.7712 C   0  0  0  0  0  0  0  0  0  0  0  0
   -5.5398    0.1105  -20.4646 C   0  0  0  0  0  0  0  0  0  0  0  0
   -5.7264    0.1930  -22.6388 H   0  0  0  0  0  0  0  0  0  0  0  0
   -3.8000    1.6730  -22.9590 H   0  0  0  0  0  0  0  0  0  0  0  0
   -2.3978    2.3661  -21.0270 H   0  0  0  0  0  0  0  0  0  0  0  0
   -3.0651    1.7153  -18.7204 H   0  0  0  0  0  0  0  0  0  0  0  0
   -4.6258    0.5987  -17.2002 H   0  0  0  0  0  0  0  0  0  0  0  0
   -7.7248   -1.7129  -18.6220 H   0  0  0  0  0  0  0  0  0  0  0  0
   -7.6530   -0.8125  -22.0783 H   0  0  0  0  0  0  0  0  0  0  0  0
   -8.2829   -1.9533  -20.8695 H   0  0  0  0  0  0  0  0  0  0  0  0
   -5.1846   -3.1472  -23.7676 C   0  0  0  0  0  0  0  0  0  0  0  0
   -5.3101   -4.0234  -24.9949 C   0  0  0  0  0  0  0  0  0  0  0  0
   -4.3091   -4.2405  -25.3867 H   0  0  0  0  0  0  0  0  0  0  0  0
   -5.7513   -4.9846  -24.7143 H   0  0  0  0  0  0  0  0  0  0  0  0
   -4.5969   -2.2456  -24.0087 H   0  0  0  0  0  0  0  0  0  0  0  0
   -4.6864   -3.6530  -22.9444 H   0  0  0  0  0  0  0  0  0  0  0  0
   -8.3807   -2.0224  -23.7143 H   0  0  0  0  0  0  0  0  0  0  0  0
   -7.0639   -1.1682  -24.5192 H   0  0  0  0  0  0  0  0  0  0  0  0
   -8.0205   -3.9965  -25.1287 H   0  0  0  0  0  0  0  0  0  0  0  0
   -8.2246   -2.5882  -26.1548 H   0  0  0  0  0  0  0  0  0  0  0  0
   -5.7270   -2.4402  -26.3773 H   0  0  0  0  0  0  0  0  0  0  0  0
   -5.3608   -4.5065  -27.7398 H   0  0  0  0  0  0  0  0  0  0  0  0
   -6.7812   -5.2435  -27.0009 H   0  0  0  0  0  0  0  0  0  0  0  0
   -6.9669   -3.8447  -28.0607 H   0  0  0  0  0  0  0  0  0  0  0  0
  1  2  1  0
  2  3  1  0
  3  4  1  0
  4  5  1  0
  5  6  1  0
  6  7  2  0
  6  8  1  0
  8  9  1  0
  9 10  2  0
 10 11  1  0
 11 12  2  0
 12 13  1  0
 13 14  2  0
 14 15  1  0
 15 16  2  0
 16 17  1  0
 17 18  2  0
 17 19  1  0
 16 20  1  0
 15 21  1  0
 14 22  1  0
 12 23  1  0
 10 24  1  0
  8 25  1  0
  8 26  1  0
  5 27  1  0
 27 28  1  0
 28 29  1  0
 28 30  1  0
 27 31  1  0
 27 32  1  0
  4 33  1  0
  4 34  1  0
  3 35  1  0
  3 36  1  0
  2 37  1  0
  1 38  1  0
  1 39  1  0
  1 40  1  0
 28  2  1  0
 18  9  1  0
 18 13  1  0
M  END
>  <cnnaffinities>  (39) 
[4.42142, 4.42129, 4.07657, 4.07656, 4.50221]

>  <score>  (39) 
4.42142

>  <index>  (39) 
40

>  <Smiles>  (39) 
C(C1(C(C(N(C(=O)C(c2c(nc(c3c(c(c(c(c23)[H])[H])[H])[H])[H])[H])([H])[H])C(C1([H])[H])([H])[H])([H])[H])([H])[H])[H])([H])([H])[H]

>  <h>  (39) 
<NA>

>  <Training>  (39) 
True

>  <Success>  (39) 
True

>  <enamine_searched>  (39) 
False

>  <enamine_id>  (39) 
nan

$$$$

     RDKit          3D

 67 71  0  0  0  0  0  0  0  0999 V2000
  -10.5339    1.5598  -26.3722 C   0  0  0  0  0  0  0  0  0  0  0  0
  -10.5232    0.1908  -25.9021 N   0  0  0  0  0  0  0  0  0  0  0  0
   -9.8448   -0.7795  -26.5592 C   0  0  0  0  0  0  0  0  0  0  0  0
   -9.3361   -0.6169  -27.6577 O   0  0  0  0  0  0  0  0  0  0  0  0
   -9.7395   -2.1395  -25.8675 C   0  0  0  0  0  0  0  0  0  0  0  0
  -10.0071   -2.1607  -24.4383 N   0  0  0  0  0  0  0  0  0  0  0  0
   -9.1264   -1.3566  -23.5743 C   0  0  0  0  0  0  0  0  0  0  0  0
   -8.7528   -1.9812  -22.1971 C   0  0  2  0  0  0  0  0  0  0  0  0
   -8.1166   -0.9394  -21.2992 C   0  0  0  0  0  0  0  0  0  0  0  0
   -8.7056   -0.0426  -20.7289 O   0  0  0  0  0  0  0  0  0  0  0  0
   -6.7752   -1.2107  -21.1857 N   0  0  0  0  0  0  0  0  0  0  0  0
   -6.0700   -0.6359  -20.0998 C   0  0  0  0  0  0  0  0  0  0  0  0
   -6.3623   -1.0055  -18.8091 C   0  0  0  0  0  0  0  0  0  0  0  0
   -5.7151   -0.5345  -17.7165 N   0  0  0  0  0  0  0  0  0  0  0  0
   -4.7581    0.3409  -17.9170 C   0  0  0  0  0  0  0  0  0  0  0  0
   -4.3688    0.8208  -19.2010 C   0  0  0  0  0  0  0  0  0  0  0  0
   -3.3238    1.7656  -19.3725 C   0  0  0  0  0  0  0  0  0  0  0  0
   -3.0203    2.2393  -20.6195 C   0  0  0  0  0  0  0  0  0  0  0  0
   -3.7542    1.8117  -21.7497 C   0  0  0  0  0  0  0  0  0  0  0  0
   -4.7700    0.8979  -21.6111 C   0  0  0  0  0  0  0  0  0  0  0  0
   -5.0700    0.3534  -20.3341 C   0  0  0  0  0  0  0  0  0  0  0  0
   -5.3494    0.5767  -22.4724 H   0  0  0  0  0  0  0  0  0  0  0  0
   -3.5117    2.2098  -22.7316 H   0  0  0  0  0  0  0  0  0  0  0  0
   -2.2197    2.9627  -20.7522 H   0  0  0  0  0  0  0  0  0  0  0  0
   -2.7911    2.1107  -18.4903 H   0  0  0  0  0  0  0  0  0  0  0  0
   -4.2374    0.7176  -17.0372 H   0  0  0  0  0  0  0  0  0  0  0  0
   -7.1560   -1.7223  -18.6064 H   0  0  0  0  0  0  0  0  0  0  0  0
   -6.3627   -2.3773  -21.9563 C   0  0  0  0  0  0  0  0  0  0  0  0
   -7.6921   -3.1150  -22.2048 C   0  0  2  0  0  0  0  0  0  0  0  0
   -7.7542   -4.0401  -23.4184 C   0  0  0  0  0  0  0  0  0  0  0  0
   -6.7015   -5.4762  -23.2332 S   0  0  0  0  0  0  0  0  0  0  0  0
   -7.3458   -6.3783  -22.2861 O   0  0  0  0  0  0  0  0  0  0  0  0
   -5.3405   -5.0174  -22.9884 O   0  0  0  0  0  0  0  0  0  0  0  0
   -6.7310   -6.1386  -24.7823 N   0  0  0  0  0  0  0  0  0  0  0  0
   -5.5925   -7.0213  -25.0581 C   0  0  0  0  0  0  0  0  0  0  0  0
   -4.6655   -6.4803  -24.8675 H   0  0  0  0  0  0  0  0  0  0  0  0
   -5.6045   -7.9403  -24.4553 H   0  0  0  0  0  0  0  0  0  0  0  0
   -5.6237   -7.2891  -26.1187 H   0  0  0  0  0  0  0  0  0  0  0  0
   -8.0173   -6.7065  -25.1809 C   0  0  0  0  0  0  0  0  0  0  0  0
   -7.8763   -7.2320  -26.1299 H   0  0  0  0  0  0  0  0  0  0  0  0
   -8.7374   -5.9050  -25.3683 H   0  0  0  0  0  0  0  0  0  0  0  0
   -8.4221   -7.4010  -24.4348 H   0  0  0  0  0  0  0  0  0  0  0  0
   -8.7780   -4.4168  -23.5177 H   0  0  0  0  0  0  0  0  0  0  0  0
   -7.4595   -3.5332  -24.3428 H   0  0  0  0  0  0  0  0  0  0  0  0
   -7.8909   -3.7369  -21.3274 H   0  0  0  0  0  0  0  0  0  0  0  0
   -5.6294   -2.9739  -21.4102 H   0  0  0  0  0  0  0  0  0  0  0  0
   -5.9117   -2.0751  -22.9116 H   0  0  0  0  0  0  0  0  0  0  0  0
  -10.0525   -2.3415  -21.5108 C   0  0  0  0  0  0  0  0  0  0  0  0
  -10.4125   -3.6328  -21.5188 C   0  0  0  0  0  0  0  0  0  0  0  0
  -13.1889   -3.6443  -20.9788 C   0  0  0  0  0  0  0  0  0  0  0  0
  -14.0526   -4.5032  -20.4382 F   0  0  0  0  0  0  0  0  0  0  0  0
  -13.1339   -3.5254  -21.0040 C   0  0  0  0  0  0  0  0  0  0  0  0
  -12.6199   -3.3790  -22.2390 C   0  0  0  0  0  0  0  0  0  0  0  0
  -11.1474   -3.1705  -22.5257 C   0  0  0  0  0  0  0  0  0  0  0  0
  -10.9795   -3.0354  -23.9765 C   0  0  0  0  0  0  0  0  0  0  0  0
  -11.7038   -3.6823  -24.7067 O   0  0  0  0  0  0  0  0  0  0  0  0
  -13.1566   -4.2371  -22.3713 H   0  0  0  0  0  0  0  0  0  0  0  0
  -12.8946   -2.9668  -19.9444 H   0  0  0  0  0  0  0  0  0  0  0  0
  -10.5264   -1.5427  -20.9194 H   0  0  0  0  0  0  0  0  0  0  0  0
   -8.2200   -1.1175  -24.1393 H   0  0  0  0  0  0  0  0  0  0  0  0
   -9.6114   -0.4050  -23.3239 H   0  0  0  0  0  0  0  0  0  0  0  0
  -10.4526   -2.8263  -26.3385 H   0  0  0  0  0  0  0  0  0  0  0  0
   -8.7265   -2.5077  -26.0869 H   0  0  0  0  0  0  0  0  0  0  0  0
  -10.9806   -0.0446  -25.0352 H   0  0  0  0  0  0  0  0  0  0  0  0
  -11.4241    2.0626  -25.9861 H   0  0  0  0  0  0  0  0  0  0  0  0
  -10.5551    1.5645  -27.4649 H   0  0  0  0  0  0  0  0  0  0  0  0
   -9.6425    2.1098  -26.0378 H   0  0  0  0  0  0  0  0  0  0  0  0
  1  2  1  0
  2  3  1  0
  3  4  2  0
  3  5  1  0
  5  6  1  0
  6  7  1  0
  8  7  1  6
  8  9  1  0
  9 10  2  0
  9 11  1  0
 11 12  1  0
 12 13  2  0
 13 14  1  0
 14 15  2  0
 15 16  1  0
 16 17  2  0
 17 18  1  0
 18 19  2  0
 19 20  1  0
 20 21  2  0
 20 22  1  0
 19 23  1  0
 18 24  1  0
 17 25  1  0
 15 26  1  0
 13 27  1  0
 11 28  1  0
 28 29  1  0
 29 30  1  0
 30 31  1  0
 31 32  2  0
 31 33  2  0
 31 34  1  0
 34 35  1  0
 35 36  1  0
 35 37  1  0
 35 38  1  0
 34 39  1  0
 39 40  1  0
 39 41  1  0
 39 42  1  0
 30 43  1  0
 30 44  1  0
 29 45  1  1
 28 46  1  0
 28 47  1  0
  8 48  1  0
 48 49  2  0
 49 50  1  0
 50 51  1  0
 50 52  2  0
 52 53  1  0
 53 54  2  0
 54 55  1  0
 55 56  2  0
 53 57  1  0
 52 58  1  0
 49 59  1  0
  7 60  1  0
  7 61  1  0
  5 62  1  0
  5 63  1  0
  2 64  1  0
  1 65  1  0
  1 66  1  0
  1 67  1  0
 55  6  1  0
 29  8  1  0
 54 48  1  0
 21 12  1  0
 21 16  1  0
M  END
>  <cnnaffinities>  (40) 
[6.36402]

>  <score>  (40) 
6.36402

>  <index>  (40) 
41

>  <Smiles>  (40) 
C(N(C(=O)C(N1C([C@@]2(C(=O)N(c3c(nc(c4c(c(c(c(c34)[H])[H])[H])[H])[H])[H])C([C@@]2(C(S(=O)(=O)N(C([H])([H])[H])C([H])([H])[H])([H])[H])[H])([H])[H])c2c(c(F)c(c(c2C1=O)[H])[H])[H])([H])[H])([H])[H])[H])([H])([H])[H]

>  <h>  (40) 
<NA>

>  <Training>  (40) 
True

>  <Success>  (40) 
True

>  <enamine_searched>  (40) 
False

>  <enamine_id>  (40) 
nan

$$$$

     RDKit          3D

 67 72  0  0  0  0  0  0  0  0999 V2000
   -7.3809    3.3196  -22.0386 C   0  0  0  0  0  0  0  0  0  0  0  0
   -8.2455    2.7981  -23.0768 N   0  0  0  0  0  0  0  0  0  0  0  0
   -7.6856    2.0731  -24.0822 C   0  0  0  0  0  0  0  0  0  0  0  0
   -6.4823    1.9109  -24.1707 O   0  0  0  0  0  0  0  0  0  0  0  0
   -8.6623    1.4438  -25.0774 C   0  0  0  0  0  0  0  0  0  0  0  0
   -9.3424    0.3232  -24.4560 N   0  0  0  0  0  0  0  0  0  0  0  0
   -8.5814   -0.9000  -24.2242 C   0  0  0  0  0  0  0  0  0  0  0  0
   -9.0065   -1.6079  -22.9167 C   0  0  2  0  0  0  0  0  0  0  0  0
   -8.5044   -0.7958  -21.6985 C   0  0  0  0  0  0  0  0  0  0  0  0
   -8.9743    0.2234  -21.2293 O   0  0  0  0  0  0  0  0  0  0  0  0
   -7.3847   -1.4100  -21.2005 N   0  0  0  0  0  0  0  0  0  0  0  0
   -6.6260   -0.7989  -20.1791 C   0  0  0  0  0  0  0  0  0  0  0  0
   -6.9425   -1.0559  -18.8705 C   0  0  0  0  0  0  0  0  0  0  0  0
   -6.2601   -0.5660  -17.8108 N   0  0  0  0  0  0  0  0  0  0  0  0
   -5.2193    0.1927  -18.0631 C   0  0  0  0  0  0  0  0  0  0  0  0
   -4.7975    0.5541  -19.3760 C   0  0  0  0  0  0  0  0  0  0  0  0
   -3.6771    1.3948  -19.6008 C   0  0  0  0  0  0  0  0  0  0  0  0
   -3.3455    1.7897  -20.8701 C   0  0  0  0  0  0  0  0  0  0  0  0
   -4.1447    1.3998  -21.9667 C   0  0  0  0  0  0  0  0  0  0  0  0
   -5.2137    0.5521  -21.7807 C   0  0  0  0  0  0  0  0  0  0  0  0
   -5.5509    0.0892  -20.4780 C   0  0  0  0  0  0  0  0  0  0  0  0
   -5.8275    0.2842  -22.6347 H   0  0  0  0  0  0  0  0  0  0  0  0
   -3.9184    1.7661  -22.9650 H   0  0  0  0  0  0  0  0  0  0  0  0
   -2.4775    2.4223  -21.0359 H   0  0  0  0  0  0  0  0  0  0  0  0
   -3.1059    1.7276  -18.7399 H   0  0  0  0  0  0  0  0  0  0  0  0
   -4.6612    0.5759  -17.2086 H   0  0  0  0  0  0  0  0  0  0  0  0
   -7.7981   -1.6893  -18.6486 H   0  0  0  0  0  0  0  0  0  0  0  0
   -7.0124   -2.6211  -21.8895 C   0  0  0  0  0  0  0  0  0  0  0  0
   -8.2548   -2.9638  -22.7171 C   0  0  2  0  0  0  0  0  0  0  0  0
   -7.8112   -3.7787  -23.9327 C   0  0  0  0  0  0  0  0  0  0  0  0
   -8.9125   -4.2479  -24.7178 N   0  0  0  0  0  0  0  0  0  0  0  0
   -8.7691   -4.9296  -25.8959 C   0  0  0  0  0  0  0  0  0  0  0  0
   -7.2498   -5.2888  -26.6420 S   0  0  0  0  0  0  0  0  0  0  0  0
   -8.1274   -6.0120  -27.9627 C   0  0  0  0  0  0  0  0  0  0  0  0
   -9.4115   -6.0147  -27.8442 N   0  0  0  0  0  0  0  0  0  0  0  0
   -9.7886   -5.3952  -26.6730 C   0  0  0  0  0  0  0  0  0  0  0  0
  -11.2070   -5.1477  -26.3020 C   0  0  0  0  0  0  0  0  0  0  0  0
  -11.8900   -5.5209  -27.0658 H   0  0  0  0  0  0  0  0  0  0  0  0
  -11.3415   -4.0644  -26.1859 H   0  0  0  0  0  0  0  0  0  0  0  0
  -11.4743   -5.6026  -25.3414 H   0  0  0  0  0  0  0  0  0  0  0  0
   -7.5942   -6.3814  -28.8316 H   0  0  0  0  0  0  0  0  0  0  0  0
   -9.8512   -4.0158  -24.4235 H   0  0  0  0  0  0  0  0  0  0  0  0
   -7.1391   -3.1731  -24.5544 H   0  0  0  0  0  0  0  0  0  0  0  0
   -7.2211   -4.6338  -23.5757 H   0  0  0  0  0  0  0  0  0  0  0  0
   -8.8998   -3.6037  -22.1060 H   0  0  0  0  0  0  0  0  0  0  0  0
   -6.1408   -2.4693  -22.5442 H   0  0  0  0  0  0  0  0  0  0  0  0
   -6.7579   -3.4212  -21.1882 H   0  0  0  0  0  0  0  0  0  0  0  0
  -10.5210   -1.6778  -22.8686 C   0  0  0  0  0  0  0  0  0  0  0  0
  -11.1628   -2.5536  -21.9832 C   0  0  0  0  0  0  0  0  0  0  0  0
  -12.5415   -2.5487  -21.8640 C   0  0  0  0  0  0  0  0  0  0  0  0
  -13.2886   -3.6188  -20.7038 Cl  0  0  0  0  0  0  0  0  0  0  0  0
  -13.3313   -1.6768  -22.6137 C   0  0  0  0  0  0  0  0  0  0  0  0
  -12.7056   -0.7776  -23.4565 C   0  0  0  0  0  0  0  0  0  0  0  0
  -11.3155   -0.7566  -23.5689 C   0  0  0  0  0  0  0  0  0  0  0  0
  -10.7103    0.3306  -24.4034 C   0  0  0  0  0  0  0  0  0  0  0  0
  -11.3935    1.1799  -24.9624 O   0  0  0  0  0  0  0  0  0  0  0  0
  -13.2794   -0.0676  -24.0429 H   0  0  0  0  0  0  0  0  0  0  0  0
  -14.4127   -1.7141  -22.5238 H   0  0  0  0  0  0  0  0  0  0  0  0
  -10.6042   -3.2270  -21.3439 H   0  0  0  0  0  0  0  0  0  0  0  0
   -7.5192   -0.6405  -24.1720 H   0  0  0  0  0  0  0  0  0  0  0  0
   -8.7241   -1.5886  -25.0687 H   0  0  0  0  0  0  0  0  0  0  0  0
   -8.1064    1.1157  -25.9627 H   0  0  0  0  0  0  0  0  0  0  0  0
   -9.4273    2.1553  -25.3993 H   0  0  0  0  0  0  0  0  0  0  0  0
   -9.1877    2.5645  -22.8097 H   0  0  0  0  0  0  0  0  0  0  0  0
   -7.9579    3.9328  -21.3482 H   0  0  0  0  0  0  0  0  0  0  0  0
   -6.8970    2.5049  -21.4920 H   0  0  0  0  0  0  0  0  0  0  0  0
   -6.6076    3.9401  -22.4891 H   0  0  0  0  0  0  0  0  0  0  0  0
  1  2  1  0
  2  3  1  0
  3  4  2  0
  3  5  1  0
  5  6  1  0
  6  7  1  0
  8  7  1  6
  8  9  1  0
  9 10  2  0
  9 11  1  0
 11 12  1  0
 12 13  2  0
 13 14  1  0
 14 15  2  0
 15 16  1  0
 16 17  2  0
 17 18  1  0
 18 19  2  0
 19 20  1  0
 20 21  2  0
 20 22  1  0
 19 23  1  0
 18 24  1  0
 17 25  1  0
 15 26  1  0
 13 27  1  0
 11 28  1  0
 28 29  1  0
 29 30  1  0
 30 31  1  0
 31 32  1  0
 32 33  1  0
 33 34  1  0
 34 35  2  0
 35 36  1  0
 36 37  1  0
 37 38  1  0
 37 39  1  0
 37 40  1  0
 34 41  1  0
 31 42  1  0
 30 43  1  0
 30 44  1  0
 29 45  1  1
 28 46  1  0
 28 47  1  0
  8 48  1  0
 48 49  2  0
 49 50  1  0
 50 51  1  0
 50 52  2  0
 52 53  1  0
 53 54  2  0
 54 55  1  0
 55 56  2  0
 53 57  1  0
 52 58  1  0
 49 59  1  0
  7 60  1  0
  7 61  1  0
  5 62  1  0
  5 63  1  0
  2 64  1  0
  1 65  1  0
  1 66  1  0
  1 67  1  0
 55  6  1  0
 29  8  1  0
 36 32  2  0
 54 48  1  0
 21 12  1  0
 21 16  1  0
M  END
>  <cnnaffinities>  (41) 
[5.96321]

>  <score>  (41) 
5.96321

>  <index>  (41) 
43

>  <Smiles>  (41) 
C(N(C(=O)C(N1C([C@@]2(C(=O)N(c3c(nc(c4c(c(c(c(c34)[H])[H])[H])[H])[H])[H])C([C@@]2(C(N(c2sc(nc2C([H])([H])[H])[H])[H])([H])[H])[H])([H])[H])c2c(c(Cl)c(c(c2C1=O)[H])[H])[H])([H])[H])([H])[H])[H])([H])([H])[H]

>  <h>  (41) 
<NA>

>  <Training>  (41) 
True

>  <Success>  (41) 
True

>  <enamine_searched>  (41) 
False

>  <enamine_id>  (41) 
nan

$$$$

     RDKit          3D

 60 64  0  0  0  0  0  0  0  0999 V2000
   -7.4198    3.4227  -21.8577 C   0  0  0  0  0  0  0  0  0  0  0  0
   -8.2965    2.9537  -22.9136 N   0  0  0  0  0  0  0  0  0  0  0  0
   -7.7387    2.2139  -23.9134 C   0  0  0  0  0  0  0  0  0  0  0  0
   -6.5345    2.0584  -24.0240 O   0  0  0  0  0  0  0  0  0  0  0  0
   -8.7154    1.6003  -24.9107 C   0  0  0  0  0  0  0  0  0  0  0  0
   -9.4112    0.4639  -24.3549 N   0  0  0  0  0  0  0  0  0  0  0  0
   -8.6760   -0.7728  -24.1843 C   0  0  0  0  0  0  0  0  0  0  0  0
   -9.0583   -1.4917  -22.8761 C   0  0  2  0  0  0  0  0  0  0  0  0
   -8.5160   -0.7182  -21.6584 C   0  0  0  0  0  0  0  0  0  0  0  0
   -8.9587    0.2974  -21.1673 O   0  0  0  0  0  0  0  0  0  0  0  0
   -7.4001   -1.3685  -21.1926 N   0  0  0  0  0  0  0  0  0  0  0  0
   -6.6153   -0.7856  -20.1679 C   0  0  0  0  0  0  0  0  0  0  0  0
   -6.9203   -1.0452  -18.8567 C   0  0  0  0  0  0  0  0  0  0  0  0
   -6.2160   -0.5682  -17.8017 N   0  0  0  0  0  0  0  0  0  0  0  0
   -5.1936    0.2119  -18.0629 C   0  0  0  0  0  0  0  0  0  0  0  0
   -4.7814    0.5759  -19.3771 C   0  0  0  0  0  0  0  0  0  0  0  0
   -3.6466    1.3961  -19.6150 C   0  0  0  0  0  0  0  0  0  0  0  0
   -3.2839    1.7339  -20.8917 C   0  0  0  0  0  0  0  0  0  0  0  0
   -4.0604    1.3010  -21.9916 C   0  0  0  0  0  0  0  0  0  0  0  0
   -5.1415    0.4718  -21.7914 C   0  0  0  0  0  0  0  0  0  0  0  0
   -5.5189    0.0755  -20.4775 C   0  0  0  0  0  0  0  0  0  0  0  0
   -5.7063    0.1158  -22.6488 H   0  0  0  0  0  0  0  0  0  0  0  0
   -3.7857    1.5923  -23.0027 H   0  0  0  0  0  0  0  0  0  0  0  0
   -2.4023    2.3479  -21.0683 H   0  0  0  0  0  0  0  0  0  0  0  0
   -3.0701    1.7339  -18.7570 H   0  0  0  0  0  0  0  0  0  0  0  0
   -4.6165    0.5867  -17.2158 H   0  0  0  0  0  0  0  0  0  0  0  0
   -7.7788   -1.6721  -18.6177 H   0  0  0  0  0  0  0  0  0  0  0  0
   -7.0613   -2.5760  -21.9161 C   0  0  0  0  0  0  0  0  0  0  0  0
   -8.3274   -2.8598  -22.7481 C   0  0  2  0  0  0  0  0  0  0  0  0
   -8.0081   -3.6082  -24.0509 C   0  0  0  0  0  0  0  0  0  0  0  0
   -7.4510   -4.8821  -23.7944 O   0  0  0  0  0  0  0  0  0  0  0  0
   -8.3788   -5.9383  -23.8563 C   0  0  0  0  0  0  0  0  0  0  0  0
   -9.2446   -5.7775  -23.1906 H   0  0  0  0  0  0  0  0  0  0  0  0
   -7.8548   -6.8445  -23.5382 H   0  0  0  0  0  0  0  0  0  0  0  0
   -8.7529   -6.0965  -24.8824 H   0  0  0  0  0  0  0  0  0  0  0  0
   -7.2480   -3.0503  -24.6138 H   0  0  0  0  0  0  0  0  0  0  0  0
   -8.8984   -3.6995  -24.6973 H   0  0  0  0  0  0  0  0  0  0  0  0
   -8.9734   -3.5213  -22.1672 H   0  0  0  0  0  0  0  0  0  0  0  0
   -6.8209   -3.3895  -21.2256 H   0  0  0  0  0  0  0  0  0  0  0  0
   -6.1891   -2.4133  -22.5661 H   0  0  0  0  0  0  0  0  0  0  0  0
  -10.5688   -1.5508  -22.8077 C   0  0  0  0  0  0  0  0  0  0  0  0
  -11.1941   -2.4565  -21.9485 C   0  0  0  0  0  0  0  0  0  0  0  0
  -12.5724   -2.4699  -21.8433 C   0  0  0  0  0  0  0  0  0  0  0  0
  -13.2979   -3.5718  -20.7034 Cl  0  0  0  0  0  0  0  0  0  0  0  0
  -13.3775   -1.5985  -22.5802 C   0  0  0  0  0  0  0  0  0  0  0  0
  -12.7647   -0.6664  -23.3952 C   0  0  0  0  0  0  0  0  0  0  0  0
  -11.3751   -0.6245  -23.4837 C   0  0  0  0  0  0  0  0  0  0  0  0
  -10.7751    0.4968  -24.2670 C   0  0  0  0  0  0  0  0  0  0  0  0
  -11.4565    1.3892  -24.7558 O   0  0  0  0  0  0  0  0  0  0  0  0
  -13.3307    0.0622  -23.9679 H   0  0  0  0  0  0  0  0  0  0  0  0
  -14.4564   -1.6628  -22.4878 H   0  0  0  0  0  0  0  0  0  0  0  0
  -10.6133   -3.1473  -21.3461 H   0  0  0  0  0  0  0  0  0  0  0  0
   -7.6083   -0.5341  -24.1962 H   0  0  0  0  0  0  0  0  0  0  0  0
   -8.8987   -1.4447  -25.0215 H   0  0  0  0  0  0  0  0  0  0  0  0
   -8.1232    1.3054  -25.7824 H   0  0  0  0  0  0  0  0  0  0  0  0
   -9.4891    2.3178  -25.1898 H   0  0  0  0  0  0  0  0  0  0  0  0
   -9.2545    2.7635  -22.6603 H   0  0  0  0  0  0  0  0  0  0  0  0
   -6.6640    4.0804  -22.2817 H   0  0  0  0  0  0  0  0  0  0  0  0
   -6.8955    2.5841  -21.3878 H   0  0  0  0  0  0  0  0  0  0  0  0
   -7.9799    3.9732  -21.1004 H   0  0  0  0  0  0  0  0  0  0  0  0
  1  2  1  0
  2  3  1  0
  3  4  2  0
  3  5  1  0
  5  6  1  0
  6  7  1  0
  8  7  1  6
  8  9  1  0
  9 10  2  0
  9 11  1  0
 11 12  1  0
 12 13  2  0
 13 14  1  0
 14 15  2  0
 15 16  1  0
 16 17  2  0
 17 18  1  0
 18 19  2  0
 19 20  1  0
 20 21  2  0
 20 22  1  0
 19 23  1  0
 18 24  1  0
 17 25  1  0
 15 26  1  0
 13 27  1  0
 11 28  1  0
 28 29  1  0
 29 30  1  0
 30 31  1  0
 31 32  1  0
 32 33  1  0
 32 34  1  0
 32 35  1  0
 30 36  1  0
 30 37  1  0
 29 38  1  1
 28 39  1  0
 28 40  1  0
  8 41  1  0
 41 42  2  0
 42 43  1  0
 43 44  1  0
 43 45  2  0
 45 46  1  0
 46 47  2  0
 47 48  1  0
 48 49  2  0
 46 50  1  0
 45 51  1  0
 42 52  1  0
  7 53  1  0
  7 54  1  0
  5 55  1  0
  5 56  1  0
  2 57  1  0
  1 58  1  0
  1 59  1  0
  1 60  1  0
 48  6  1  0
 29  8  1  0
 47 41  1  0
 21 12  1  0
 21 16  1  0
M  END
>  <cnnaffinities>  (42) 
[5.71191, 5.60808, 6.04144, 6.0942]

>  <score>  (42) 
5.71191

>  <index>  (42) 
44

>  <Smiles>  (42) 
C(N(C(=O)C(N1C([C@@]2(C(=O)N(c3c(nc(c4c(c(c(c(c34)[H])[H])[H])[H])[H])[H])C([C@@]2(C(OC([H])([H])[H])([H])[H])[H])([H])[H])c2c(c(Cl)c(c(c2C1=O)[H])[H])[H])([H])[H])([H])[H])[H])([H])([H])[H]

>  <h>  (42) 
<NA>

>  <Training>  (42) 
True

>  <Success>  (42) 
True

>  <enamine_searched>  (42) 
False

>  <enamine_id>  (42) 
nan

$$$$

     RDKit          3D

 66 71  0  0  0  0  0  0  0  0999 V2000
  -12.3714    2.9651  -20.7332 C   0  0  0  0  0  0  0  0  0  0  0  0
  -12.3932    2.1923  -21.9551 N   0  0  0  0  0  0  0  0  0  0  0  0
  -11.4569    2.3500  -22.9233 C   0  0  0  0  0  0  0  0  0  0  0  0
  -10.7095    3.3113  -23.0132 O   0  0  0  0  0  0  0  0  0  0  0  0
  -11.4196    1.2238  -23.9814 C   0  0  0  0  0  0  0  0  0  0  0  0
  -11.1308   -0.1018  -23.4493 N   0  0  0  0  0  0  0  0  0  0  0  0
   -9.9876   -0.8891  -23.8698 C   0  0  0  0  0  0  0  0  0  0  0  0
   -9.3713   -1.7263  -22.7243 C   0  0  2  0  0  0  0  0  0  0  0  0
   -8.8619   -0.8687  -21.5591 C   0  0  0  0  0  0  0  0  0  0  0  0
   -9.3639    0.1372  -21.0992 O   0  0  0  0  0  0  0  0  0  0  0  0
   -7.6862   -1.4343  -21.0968 N   0  0  0  0  0  0  0  0  0  0  0  0
   -6.8740   -0.7887  -20.1117 C   0  0  0  0  0  0  0  0  0  0  0  0
   -7.0967   -1.0068  -18.7755 C   0  0  0  0  0  0  0  0  0  0  0  0
   -6.2975   -0.5628  -17.7720 N   0  0  0  0  0  0  0  0  0  0  0  0
   -5.2548    0.1591  -18.0936 C   0  0  0  0  0  0  0  0  0  0  0  0
   -4.9430    0.5361  -19.4282 C   0  0  0  0  0  0  0  0  0  0  0  0
   -3.8462    1.3905  -19.7138 C   0  0  0  0  0  0  0  0  0  0  0  0
   -3.6102    1.8027  -20.9956 C   0  0  0  0  0  0  0  0  0  0  0  0
   -4.4622    1.3792  -22.0411 C   0  0  0  0  0  0  0  0  0  0  0  0
   -5.5190    0.5394  -21.7888 C   0  0  0  0  0  0  0  0  0  0  0  0
   -5.7818    0.0776  -20.4705 C   0  0  0  0  0  0  0  0  0  0  0  0
   -6.1831    0.2444  -22.5943 H   0  0  0  0  0  0  0  0  0  0  0  0
   -4.2778    1.7211  -23.0540 H   0  0  0  0  0  0  0  0  0  0  0  0
   -2.7791    2.4683  -21.2141 H   0  0  0  0  0  0  0  0  0  0  0  0
   -3.2246    1.7251  -18.8857 H   0  0  0  0  0  0  0  0  0  0  0  0
   -4.6046    0.4977  -17.2842 H   0  0  0  0  0  0  0  0  0  0  0  0
   -7.9511   -1.5743  -18.4282 H   0  0  0  0  0  0  0  0  0  0  0  0
   -7.1792   -2.5127  -21.9311 C   0  0  0  0  0  0  0  0  0  0  0  0
   -8.1183   -2.5601  -23.1544 C   0  0  2  0  0  0  0  0  0  0  0  0
   -7.3731   -2.1371  -24.4645 C   0  0  0  0  0  0  0  0  0  0  0  0
   -6.2749   -3.0901  -24.9045 C   0  0  0  0  0  0  0  0  0  0  0  0
   -4.9387   -2.6848  -24.9740 C   0  0  0  0  0  0  0  0  0  0  0  0
   -3.9400   -3.5595  -25.3986 C   0  0  0  0  0  0  0  0  0  0  0  0
   -4.2567   -4.8670  -25.7511 C   0  0  0  0  0  0  0  0  0  0  0  0
   -5.5827   -5.2849  -25.6975 C   0  0  0  0  0  0  0  0  0  0  0  0
   -6.5763   -4.4004  -25.2896 C   0  0  0  0  0  0  0  0  0  0  0  0
   -7.6115   -4.7290  -25.3009 H   0  0  0  0  0  0  0  0  0  0  0  0
   -5.8429   -6.3045  -25.9768 H   0  0  0  0  0  0  0  0  0  0  0  0
   -3.4806   -5.5533  -26.0811 H   0  0  0  0  0  0  0  0  0  0  0  0
   -2.9084   -3.2177  -25.4578 H   0  0  0  0  0  0  0  0  0  0  0  0
   -4.6665   -1.6656  -24.7018 H   0  0  0  0  0  0  0  0  0  0  0  0
   -6.9459   -1.1375  -24.3266 H   0  0  0  0  0  0  0  0  0  0  0  0
   -8.1217   -2.0672  -25.2644 H   0  0  0  0  0  0  0  0  0  0  0  0
   -8.4504   -3.5869  -23.3484 H   0  0  0  0  0  0  0  0  0  0  0  0
   -7.1585   -3.4634  -21.3805 H   0  0  0  0  0  0  0  0  0  0  0  0
   -6.1381   -2.3079  -22.2234 H   0  0  0  0  0  0  0  0  0  0  0  0
  -10.5473   -2.6742  -22.1261 C   0  0  0  0  0  0  0  0  0  0  0  0
  -10.8146   -4.0199  -21.5548 C   0  0  0  0  0  0  0  0  0  0  0  0
  -10.6395   -4.1500  -21.5525 C   0  0  0  0  0  0  0  0  0  0  0  0
  -12.7496   -4.1878  -23.5899 Cl  0  0  0  0  0  0  0  0  0  0  0  0
  -13.0319   -3.5952  -20.7462 C   0  0  0  0  0  0  0  0  0  0  0  0
  -13.0240   -2.8588  -21.7878 C   0  0  0  0  0  0  0  0  0  0  0  0
  -11.7910   -2.0445  -22.2221 C   0  0  0  0  0  0  0  0  0  0  0  0
  -12.1278   -0.7632  -22.8082 C   0  0  0  0  0  0  0  0  0  0  0  0
  -13.2773   -0.2983  -22.7476 O   0  0  0  0  0  0  0  0  0  0  0  0
  -13.8913   -2.4210  -22.2955 H   0  0  0  0  0  0  0  0  0  0  0  0
  -12.5848   -4.3318  -20.1037 H   0  0  0  0  0  0  0  0  0  0  0  0
   -9.5289   -3.8794  -21.2698 H   0  0  0  0  0  0  0  0  0  0  0  0
   -9.2459   -0.2090  -24.3052 H   0  0  0  0  0  0  0  0  0  0  0  0
  -10.3126   -1.6007  -24.6439 H   0  0  0  0  0  0  0  0  0  0  0  0
  -12.3905    1.1928  -24.4969 H   0  0  0  0  0  0  0  0  0  0  0  0
  -10.6392    1.5018  -24.6937 H   0  0  0  0  0  0  0  0  0  0  0  0
  -13.0260    1.4022  -22.0376 H   0  0  0  0  0  0  0  0  0  0  0  0
  -12.0684    3.9943  -20.9460 H   0  0  0  0  0  0  0  0  0  0  0  0
  -11.6714    2.5426  -19.9973 H   0  0  0  0  0  0  0  0  0  0  0  0
  -13.3760    2.9672  -20.3021 H   0  0  0  0  0  0  0  0  0  0  0  0
  1  2  1  0
  2  3  1  0
  3  4  2  0
  3  5  1  0
  5  6  1  0
  6  7  1  0
  8  7  1  6
  8  9  1  0
  9 10  2  0
  9 11  1  0
 11 12  1  0
 12 13  2  0
 13 14  1  0
 14 15  2  0
 15 16  1  0
 16 17  2  0
 17 18  1  0
 18 19  2  0
 19 20  1  0
 20 21  2  0
 20 22  1  0
 19 23  1  0
 18 24  1  0
 17 25  1  0
 15 26  1  0
 13 27  1  0
 11 28  1  0
 28 29  1  0
 29 30  1  0
 30 31  1  0
 31 32  2  0
 32 33  1  0
 33 34  2  0
 34 35  1  0
 35 36  2  0
 36 37  1  0
 35 38  1  0
 34 39  1  0
 33 40  1  0
 32 41  1  0
 30 42  1  0
 30 43  1  0
 29 44  1  6
 28 45  1  0
 28 46  1  0
  8 47  1  0
 47 48  2  0
 48 49  1  0
 49 50  1  0
 49 51  2  0
 51 52  1  0
 52 53  2  0
 53 54  1  0
 54 55  2  0
 52 56  1  0
 51 57  1  0
 48 58  1  0
  7 59  1  0
  7 60  1  0
  5 61  1  0
  5 62  1  0
  2 63  1  0
  1 64  1  0
  1 65  1  0
  1 66  1  0
 54  6  1  0
 29  8  1  0
 36 31  1  0
 53 47  1  0
 21 12  1  0
 21 16  1  0
M  END
>  <cnnaffinities>  (43) 
[6.65501]

>  <score>  (43) 
6.65501

>  <index>  (43) 
45

>  <Smiles>  (43) 
C(N(C(=O)C(N1C([C@@]2(C(=O)N(c3c(nc(c4c(c(c(c(c34)[H])[H])[H])[H])[H])[H])C([C@@]2(C(c2c(c(c(c(c2[H])[H])[H])[H])[H])([H])[H])[H])([H])[H])c2c(c(Cl)c(c(c2C1=O)[H])[H])[H])([H])[H])([H])[H])[H])([H])([H])[H]

>  <h>  (43) 
<NA>

>  <Training>  (43) 
True

>  <Success>  (43) 
True

>  <enamine_searched>  (43) 
False

>  <enamine_id>  (43) 
nan

$$$$

     RDKit          3D

 50 54  0  0  0  0  0  0  0  0999 V2000
  -10.3737   -1.0985  -23.3523 C   0  0  0  0  0  0  0  0  0  0  0  0
   -8.9375   -1.4381  -22.9844 C   0  0  1  0  0  0  0  0  0  0  0  0
   -8.3987   -0.4799  -21.9148 C   0  0  0  0  0  0  0  0  0  0  0  0
   -7.3818   -1.2578  -21.2419 N   0  0  0  0  0  0  0  0  0  0  0  0
   -6.6117   -0.7464  -20.1754 C   0  0  0  0  0  0  0  0  0  0  0  0
   -6.8964   -1.0777  -18.8743 C   0  0  0  0  0  0  0  0  0  0  0  0
   -6.2120   -0.5923  -17.8085 N   0  0  0  0  0  0  0  0  0  0  0  0
   -5.2046    0.2129  -18.0501 C   0  0  0  0  0  0  0  0  0  0  0  0
   -4.7941    0.6135  -19.3553 C   0  0  0  0  0  0  0  0  0  0  0  0
   -3.6688    1.4483  -19.5798 C   0  0  0  0  0  0  0  0  0  0  0  0
   -3.3328    1.8279  -20.8509 C   0  0  0  0  0  0  0  0  0  0  0  0
   -4.1194    1.4196  -21.9536 C   0  0  0  0  0  0  0  0  0  0  0  0
   -5.2035    0.5986  -21.7650 C   0  0  0  0  0  0  0  0  0  0  0  0
   -5.5427    0.1552  -20.4580 C   0  0  0  0  0  0  0  0  0  0  0  0
   -5.7920    0.2562  -22.6123 H   0  0  0  0  0  0  0  0  0  0  0  0
   -3.8440    1.7269  -22.9594 H   0  0  0  0  0  0  0  0  0  0  0  0
   -2.4519    2.4396  -21.0270 H   0  0  0  0  0  0  0  0  0  0  0  0
   -3.0845    1.7634  -18.7192 H   0  0  0  0  0  0  0  0  0  0  0  0
   -4.6579    0.6065  -17.1923 H   0  0  0  0  0  0  0  0  0  0  0  0
   -7.7031   -1.7708  -18.6360 H   0  0  0  0  0  0  0  0  0  0  0  0
   -7.4746   -2.6147  -21.4825 C   0  0  0  0  0  0  0  0  0  0  0  0
   -6.6724   -3.4197  -21.0628 O   0  0  0  0  0  0  0  0  0  0  0  0
   -8.7179   -2.8673  -22.3668 C   0  0  1  0  0  0  0  0  0  0  0  0
   -9.9111   -3.2865  -21.4643 C   0  0  0  0  0  0  0  0  0  0  0  0
  -11.0776   -3.7205  -22.2308 N   0  0  0  0  0  0  0  0  0  0  0  0
  -12.4450   -3.4938  -21.7790 C   0  0  0  0  0  0  0  0  0  0  0  0
  -13.0549   -2.2465  -22.2761 C   0  0  0  0  0  0  0  0  0  0  0  0
  -13.5689   -1.2958  -22.6964 N   0  0  0  0  0  0  0  0  0  0  0  0
  -12.5034   -3.5134  -20.6866 H   0  0  0  0  0  0  0  0  0  0  0  0
  -13.0494   -4.3108  -22.1933 H   0  0  0  0  0  0  0  0  0  0  0  0
  -10.9293   -4.5713  -23.2998 C   0  0  0  0  0  0  0  0  0  0  0  0
  -11.8829   -5.1093  -23.8364 O   0  0  0  0  0  0  0  0  0  0  0  0
   -9.5331   -4.7696  -23.8047 C   0  0  0  0  0  0  0  0  0  0  0  0
   -9.3297   -5.7628  -24.7603 C   0  0  0  0  0  0  0  0  0  0  0  0
   -8.0839   -5.9333  -25.3335 C   0  0  0  0  0  0  0  0  0  0  0  0
   -7.0515   -5.0854  -24.9440 C   0  0  0  0  0  0  0  0  0  0  0  0
   -5.8462   -5.2275  -25.5202 F   0  0  0  0  0  0  0  0  0  0  0  0
   -7.2189   -4.1083  -23.9840 C   0  0  0  0  0  0  0  0  0  0  0  0
   -8.4787   -3.9481  -23.3933 C   0  0  0  0  0  0  0  0  0  0  0  0
   -6.3623   -3.5172  -23.6752 H   0  0  0  0  0  0  0  0  0  0  0  0
   -7.9039   -6.6971  -26.0798 H   0  0  0  0  0  0  0  0  0  0  0  0
  -10.1782   -6.3851  -25.0299 H   0  0  0  0  0  0  0  0  0  0  0  0
   -9.5732   -4.0882  -20.7983 H   0  0  0  0  0  0  0  0  0  0  0  0
  -10.1701   -2.4267  -20.8412 H   0  0  0  0  0  0  0  0  0  0  0  0
   -9.1953   -0.1878  -21.2169 H   0  0  0  0  0  0  0  0  0  0  0  0
   -8.0072    0.4572  -22.3198 H   0  0  0  0  0  0  0  0  0  0  0  0
   -8.2932   -1.3867  -23.8743 H   0  0  0  0  0  0  0  0  0  0  0  0
  -10.4707   -0.1486  -23.8832 H   0  0  0  0  0  0  0  0  0  0  0  0
  -10.9732   -1.0086  -22.4434 H   0  0  0  0  0  0  0  0  0  0  0  0
  -10.8243   -1.8824  -23.9652 H   0  0  0  0  0  0  0  0  0  0  0  0
  1  2  1  0
  2  3  1  0
  3  4  1  0
  4  5  1  0
  5  6  2  0
  6  7  1  0
  7  8  2  0
  8  9  1  0
  9 10  2  0
 10 11  1  0
 11 12  2  0
 12 13  1  0
 13 14  2  0
 13 15  1  0
 12 16  1  0
 11 17  1  0
 10 18  1  0
  8 19  1  0
  6 20  1  0
  4 21  1  0
 21 22  2  0
 21 23  1  0
 23 24  1  1
 24 25  1  0
 25 26  1  0
 26 27  1  0
 27 28  3  0
 26 29  1  0
 26 30  1  0
 25 31  1  0
 31 32  2  0
 31 33  1  0
 33 34  2  0
 34 35  1  0
 35 36  2  0
 36 37  1  0
 36 38  1  0
 38 39  2  0
 38 40  1  0
 35 41  1  0
 34 42  1  0
 24 43  1  0
 24 44  1  0
  3 45  1  0
  3 46  1  0
  2 47  1  6
  1 48  1  0
  1 49  1  0
  1 50  1  0
 23  2  1  0
 39 33  1  0
 14  5  1  0
 39 23  1  0
 14  9  1  0
M  END
>  <cnnaffinities>  (44) 
[6.16536]

>  <score>  (44) 
6.16536

>  <index>  (44) 
46

>  <Smiles>  (44) 
C([C@]1(C(N(c2c(nc(c3c(c(c(c(c23)[H])[H])[H])[H])[H])[H])C(=O)[C@]21C(N(C(C#N)([H])[H])C(=O)c1c(c(c(F)c(c21)[H])[H])[H])([H])[H])([H])[H])[H])([H])([H])[H]

>  <h>  (44) 
<NA>

>  <Training>  (44) 
True

>  <Success>  (44) 
True

>  <enamine_searched>  (44) 
False

>  <enamine_id>  (44) 
nan

$$$$

     RDKit          3D

 58 63  0  0  0  0  0  0  0  0999 V2000
   -8.6740    0.6950  -21.1499 O   0  0  0  0  0  0  0  0  0  0  0  0
   -8.3906   -0.2885  -21.8084 C   0  0  0  0  0  0  0  0  0  0  0  0
   -7.4769   -1.3756  -21.2293 C   0  0  0  0  0  0  0  0  0  0  0  0
   -6.6293   -0.7939  -20.1408 C   0  0  0  0  0  0  0  0  0  0  0  0
   -6.9109   -1.0620  -18.8294 C   0  0  0  0  0  0  0  0  0  0  0  0
   -6.2318   -0.5663  -17.7639 N   0  0  0  0  0  0  0  0  0  0  0  0
   -5.2060    0.2054  -18.0316 C   0  0  0  0  0  0  0  0  0  0  0  0
   -4.7998    0.5670  -19.3433 C   0  0  0  0  0  0  0  0  0  0  0  0
   -3.6685    1.3909  -19.5595 C   0  0  0  0  0  0  0  0  0  0  0  0
   -3.3324    1.7908  -20.8204 C   0  0  0  0  0  0  0  0  0  0  0  0
   -4.1433    1.4146  -21.9139 C   0  0  0  0  0  0  0  0  0  0  0  0
   -5.2480    0.6153  -21.7347 C   0  0  0  0  0  0  0  0  0  0  0  0
   -5.5788    0.1248  -20.4377 C   0  0  0  0  0  0  0  0  0  0  0  0
   -5.8489    0.3657  -22.6063 H   0  0  0  0  0  0  0  0  0  0  0  0
   -3.8797    1.7478  -22.9125 H   0  0  0  0  0  0  0  0  0  0  0  0
   -2.4540    2.4056  -20.9872 H   0  0  0  0  0  0  0  0  0  0  0  0
   -3.0929    1.7175  -18.6966 H   0  0  0  0  0  0  0  0  0  0  0  0
   -4.6484    0.5999  -17.1831 H   0  0  0  0  0  0  0  0  0  0  0  0
   -7.7395   -1.7229  -18.5722 H   0  0  0  0  0  0  0  0  0  0  0  0
   -6.8463   -1.8089  -22.0103 H   0  0  0  0  0  0  0  0  0  0  0  0
   -8.1073   -2.1746  -20.8168 H   0  0  0  0  0  0  0  0  0  0  0  0
   -8.8238   -0.4163  -23.1123 N   0  0  0  0  0  0  0  0  0  0  0  0
   -9.1451    0.8485  -23.7850 C   0  0  0  0  0  0  0  0  0  0  0  0
   -7.8736    1.6304  -24.0566 C   0  0  0  0  0  0  0  0  0  0  0  0
   -7.5455    2.7291  -23.2643 C   0  0  0  0  0  0  0  0  0  0  0  0
   -6.3830    3.4490  -23.5066 C   0  0  0  0  0  0  0  0  0  0  0  0
   -5.5011    3.0569  -24.5093 C   0  0  0  0  0  0  0  0  0  0  0  0
   -5.7908    1.9032  -25.2311 C   0  0  0  0  0  0  0  0  0  0  0  0
   -4.6193    1.3148  -26.3803 Cl  0  0  0  0  0  0  0  0  0  0  0  0
   -6.9686    1.1952  -25.0270 C   0  0  0  0  0  0  0  0  0  0  0  0
   -7.1502    0.3036  -25.6233 H   0  0  0  0  0  0  0  0  0  0  0  0
   -4.5857    3.6105  -24.6957 H   0  0  0  0  0  0  0  0  0  0  0  0
   -6.1504    4.3136  -22.8919 H   0  0  0  0  0  0  0  0  0  0  0  0
   -8.1981    3.0119  -22.4417 H   0  0  0  0  0  0  0  0  0  0  0  0
   -9.8059    1.4243  -23.1277 H   0  0  0  0  0  0  0  0  0  0  0  0
   -9.6741    0.6300  -24.7160 H   0  0  0  0  0  0  0  0  0  0  0  0
   -9.0800   -1.6812  -23.7357 C   0  0  2  0  0  0  0  0  0  0  0  0
  -10.1973   -2.5459  -23.1157 C   0  0  0  0  0  0  0  0  0  0  0  0
  -10.1591   -3.7195  -24.0858 N   0  0  1  0  0  4  0  0  0  0  0  0
  -11.4296   -4.1017  -24.7082 C   0  0  0  0  0  0  0  0  0  0  0  0
  -11.6927   -5.5673  -24.8379 C   0  0  0  0  0  0  0  0  0  0  0  0
  -12.4370   -4.7490  -23.8157 C   0  0  0  0  0  0  0  0  0  0  0  0
  -12.1431   -4.8297  -22.7750 H   0  0  0  0  0  0  0  0  0  0  0  0
  -13.4926   -4.5656  -23.9577 H   0  0  0  0  0  0  0  0  0  0  0  0
  -10.8952   -6.2220  -24.5076 H   0  0  0  0  0  0  0  0  0  0  0  0
  -12.2275   -5.9232  -25.7081 H   0  0  0  0  0  0  0  0  0  0  0  0
  -11.7608   -3.4523  -25.5099 H   0  0  0  0  0  0  0  0  0  0  0  0
   -9.1113   -3.2261  -25.0411 C   0  0  2  0  0  0  0  0  0  0  0  0
   -8.0261   -2.7723  -24.0657 C   0  0  0  0  0  0  0  0  0  0  0  0
   -7.8156   -3.4968  -23.2690 H   0  0  0  0  0  0  0  0  0  0  0  0
   -7.1170   -2.4107  -24.5446 H   0  0  0  0  0  0  0  0  0  0  0  0
   -9.4770   -1.7542  -25.2237 C   0  0  0  0  0  0  0  0  0  0  0  0
  -10.5248   -1.5214  -25.4423 H   0  0  0  0  0  0  0  0  0  0  0  0
   -8.7937   -1.2449  -25.9001 H   0  0  0  0  0  0  0  0  0  0  0  0
   -8.9239   -3.8924  -25.8737 H   0  0  0  0  0  0  0  0  0  0  0  0
   -9.7878   -4.5531  -23.5882 H   0  0  0  0  0  0  0  0  0  0  0  0
  -11.1806   -2.0813  -23.1595 H   0  0  0  0  0  0  0  0  0  0  0  0
   -9.9923   -2.8807  -22.0971 H   0  0  0  0  0  0  0  0  0  0  0  0
  1  2  2  0
  2  3  1  0
  3  4  1  0
  4  5  2  0
  5  6  1  0
  6  7  2  0
  7  8  1  0
  8  9  2  0
  9 10  1  0
 10 11  2  0
 11 12  1  0
 12 13  2  0
 12 14  1  0
 11 15  1  0
 10 16  1  0
  9 17  1  0
  7 18  1  0
  5 19  1  0
  3 20  1  0
  3 21  1  0
  2 22  1  0
 22 23  1  0
 23 24  1  0
 24 25  2  0
 25 26  1  0
 26 27  2  0
 27 28  1  0
 28 29  1  0
 28 30  2  0
 30 31  1  0
 27 32  1  0
 26 33  1  0
 25 34  1  0
 23 35  1  0
 23 36  1  0
 37 22  1  1
 37 38  1  0
 38 39  1  0
 39 40  1  0
 40 41  1  0
 41 42  1  0
 42 43  1  0
 42 44  1  0
 41 45  1  0
 41 46  1  0
 40 47  1  0
 39 48  1  0
 48 49  1  0
 49 50  1  0
 49 51  1  0
 48 52  1  0
 52 53  1  0
 52 54  1  0
 48 55  1  6
 39 56  1  1
 38 57  1  0
 38 58  1  0
 13  4  1  0
 30 24  1  0
 49 37  1  0
 13  8  1  0
 52 37  1  0
 42 40  1  0
M  CHG  1  39   1
M  END
>  <cnnaffinities>  (45) 
[5.60831]

>  <score>  (45) 
5.60831

>  <index>  (45) 
47

>  <Smiles>  (45) 
O=C(C(c1c(nc(c2c(c(c(c(c12)[H])[H])[H])[H])[H])[H])([H])[H])N(C(c1c(c(c(c(Cl)c1[H])[H])[H])[H])([H])[H])[C@]12C([N@@+](C3(C(C3([H])[H])([H])[H])[H])([C@](C1([H])[H])(C2([H])[H])[H])[H])([H])[H]

>  <h>  (45) 
<NA>

>  <Training>  (45) 
True

>  <Success>  (45) 
True

>  <enamine_searched>  (45) 
False

>  <enamine_id>  (45) 
nan

$$$$

     RDKit          3D

 46 48  0  0  0  0  0  0  0  0999 V2000
   -6.7416   -3.3780  -28.5412 C   0  0  0  0  0  0  0  0  0  0  0  0
   -6.2018   -4.1856  -27.3579 C   0  0  0  0  0  0  0  0  0  0  0  0
   -6.9694   -5.5064  -27.2422 C   0  0  0  0  0  0  0  0  0  0  0  0
   -6.5931   -6.1479  -26.4384 H   0  0  0  0  0  0  0  0  0  0  0  0
   -6.8906   -6.0777  -28.1747 H   0  0  0  0  0  0  0  0  0  0  0  0
   -8.0363   -5.3296  -27.0620 H   0  0  0  0  0  0  0  0  0  0  0  0
   -6.1644   -3.3573  -26.0575 C   0  0  0  0  0  0  0  0  0  0  0  0
   -5.2989   -4.0280  -24.9925 C   0  0  0  0  0  0  0  0  0  0  0  0
   -5.1703   -3.1594  -23.7628 C   0  0  0  0  0  0  0  0  0  0  0  0
   -6.4687   -2.7584  -23.2383 N   0  0  0  0  0  0  0  0  0  0  0  0
   -6.5033   -2.6209  -21.8671 C   0  0  0  0  0  0  0  0  0  0  0  0
   -5.8401   -3.3408  -21.1413 O   0  0  0  0  0  0  0  0  0  0  0  0
   -7.3671   -1.4985  -21.2792 C   0  0  0  0  0  0  0  0  0  0  0  0
   -6.6243   -0.7763  -20.1820 C   0  0  0  0  0  0  0  0  0  0  0  0
   -6.8985   -1.0536  -18.8698 C   0  0  0  0  0  0  0  0  0  0  0  0
   -6.2131   -0.5756  -17.7963 N   0  0  0  0  0  0  0  0  0  0  0  0
   -5.2090    0.2278  -18.0509 C   0  0  0  0  0  0  0  0  0  0  0  0
   -4.8078    0.6100  -19.3615 C   0  0  0  0  0  0  0  0  0  0  0  0
   -3.6564    1.4077  -19.5825 C   0  0  0  0  0  0  0  0  0  0  0  0
   -3.2941    1.7736  -20.8514 C   0  0  0  0  0  0  0  0  0  0  0  0
   -4.0826    1.3650  -21.9534 C   0  0  0  0  0  0  0  0  0  0  0  0
   -5.1737    0.5481  -21.7700 C   0  0  0  0  0  0  0  0  0  0  0  0
   -5.5471    0.1187  -20.4653 C   0  0  0  0  0  0  0  0  0  0  0  0
   -5.7461    0.2287  -22.6392 H   0  0  0  0  0  0  0  0  0  0  0  0
   -3.8194    1.7048  -22.9502 H   0  0  0  0  0  0  0  0  0  0  0  0
   -2.4086    2.3818  -21.0196 H   0  0  0  0  0  0  0  0  0  0  0  0
   -3.0713    1.7162  -18.7206 H   0  0  0  0  0  0  0  0  0  0  0  0
   -4.6302    0.5945  -17.2000 H   0  0  0  0  0  0  0  0  0  0  0  0
   -7.7267   -1.7206  -18.6286 H   0  0  0  0  0  0  0  0  0  0  0  0
   -8.2781   -1.9669  -20.8762 H   0  0  0  0  0  0  0  0  0  0  0  0
   -7.6594   -0.8124  -22.0815 H   0  0  0  0  0  0  0  0  0  0  0  0
   -7.3934   -2.1629  -24.2030 C   0  0  0  0  0  0  0  0  0  0  0  0
   -7.5310   -3.0574  -25.4370 C   0  0  0  0  0  0  0  0  0  0  0  0
   -8.0013   -3.9964  -25.1296 H   0  0  0  0  0  0  0  0  0  0  0  0
   -8.2113   -2.5965  -26.1617 H   0  0  0  0  0  0  0  0  0  0  0  0
   -7.0502   -1.1668  -24.5270 H   0  0  0  0  0  0  0  0  0  0  0  0
   -8.3717   -2.0212  -23.7354 H   0  0  0  0  0  0  0  0  0  0  0  0
   -4.6780   -3.6799  -22.9445 H   0  0  0  0  0  0  0  0  0  0  0  0
   -4.5627   -2.2675  -23.9910 H   0  0  0  0  0  0  0  0  0  0  0  0
   -5.7485   -4.9864  -24.7125 H   0  0  0  0  0  0  0  0  0  0  0  0
   -4.2988   -4.2546  -25.3786 H   0  0  0  0  0  0  0  0  0  0  0  0
   -5.6902   -2.3950  -26.3146 H   0  0  0  0  0  0  0  0  0  0  0  0
   -5.1564   -4.4343  -27.5873 H   0  0  0  0  0  0  0  0  0  0  0  0
   -6.6461   -3.9508  -29.4708 H   0  0  0  0  0  0  0  0  0  0  0  0
   -6.2002   -2.4345  -28.6737 H   0  0  0  0  0  0  0  0  0  0  0  0
   -7.8045   -3.1420  -28.4106 H   0  0  0  0  0  0  0  0  0  0  0  0
  1  2  1  0
  2  3  1  0
  3  4  1  0
  3  5  1  0
  3  6  1  0
  2  7  1  0
  7  8  1  0
  8  9  1  0
  9 10  1  0
 10 11  1  0
 11 12  2  0
 11 13  1  0
 13 14  1  0
 14 15  2  0
 15 16  1  0
 16 17  2  0
 17 18  1  0
 18 19  2  0
 19 20  1  0
 20 21  2  0
 21 22  1  0
 22 23  2  0
 22 24  1  0
 21 25  1  0
 20 26  1  0
 19 27  1  0
 17 28  1  0
 15 29  1  0
 13 30  1  0
 13 31  1  0
 10 32  1  0
 32 33  1  0
 33 34  1  0
 33 35  1  0
 32 36  1  0
 32 37  1  0
  9 38  1  0
  9 39  1  0
  8 40  1  0
  8 41  1  0
  7 42  1  0
  2 43  1  0
  1 44  1  0
  1 45  1  0
  1 46  1  0
 33  7  1  0
 23 14  1  0
 23 18  1  0
M  END
>  <cnnaffinities>  (46) 
[4.42589, 4.42628, 4.42593, 4.4075, 4.7453, 4.49574, 4.49584, 4.49771, 4.78889, 4.7892, 4.79183, 4.71377, 4.63628, 4.63666, 4.63623]

>  <score>  (46) 
4.42589

>  <index>  (46) 
48

>  <Smiles>  (46) 
C(C(C([H])([H])[H])(C1(C(C(N(C(=O)C(c2c(nc(c3c(c(c(c(c23)[H])[H])[H])[H])[H])[H])([H])[H])C(C1([H])[H])([H])[H])([H])[H])([H])[H])[H])[H])([H])([H])[H]

>  <h>  (46) 
<NA>

>  <Training>  (46) 
True

>  <Success>  (46) 
True

>  <enamine_searched>  (46) 
False

>  <enamine_id>  (46) 
nan

$$$$

     RDKit          3D

 67 72  0  0  0  0  0  0  0  0999 V2000
   -7.3785    3.4199  -21.9139 C   0  0  0  0  0  0  0  0  0  0  0  0
   -8.2691    2.9313  -22.9555 N   0  0  0  0  0  0  0  0  0  0  0  0
   -7.7055    2.2033  -23.9641 C   0  0  0  0  0  0  0  0  0  0  0  0
   -6.4969    2.0371  -24.0680 O   0  0  0  0  0  0  0  0  0  0  0  0
   -8.6805    1.5902  -24.9664 C   0  0  0  0  0  0  0  0  0  0  0  0
   -9.3618    0.4580  -24.3682 N   0  0  0  0  0  0  0  0  0  0  0  0
   -8.6262   -0.7875  -24.1994 C   0  0  0  0  0  0  0  0  0  0  0  0
   -9.0263   -1.5122  -22.8912 C   0  0  2  0  0  0  0  0  0  0  0  0
   -8.4952   -0.7368  -21.6636 C   0  0  0  0  0  0  0  0  0  0  0  0
   -8.9500    0.2756  -21.1704 O   0  0  0  0  0  0  0  0  0  0  0  0
   -7.3734   -1.3834  -21.2010 N   0  0  0  0  0  0  0  0  0  0  0  0
   -6.5997   -0.7995  -20.1725 C   0  0  0  0  0  0  0  0  0  0  0  0
   -6.9205   -1.0493  -18.8642 C   0  0  0  0  0  0  0  0  0  0  0  0
   -6.2331   -0.5640  -17.8039 N   0  0  0  0  0  0  0  0  0  0  0  0
   -5.2019    0.2062  -18.0603 C   0  0  0  0  0  0  0  0  0  0  0  0
   -4.7821    0.5716  -19.3725 C   0  0  0  0  0  0  0  0  0  0  0  0
   -3.6499    1.3941  -19.6057 C   0  0  0  0  0  0  0  0  0  0  0  0
   -3.3091    1.7645  -20.8777 C   0  0  0  0  0  0  0  0  0  0  0  0
   -4.0932    1.3525  -21.9776 C   0  0  0  0  0  0  0  0  0  0  0  0
   -5.1752    0.5245  -21.7831 C   0  0  0  0  0  0  0  0  0  0  0  0
   -5.5272    0.0910  -20.4742 C   0  0  0  0  0  0  0  0  0  0  0  0
   -5.7702    0.2185  -22.6396 H   0  0  0  0  0  0  0  0  0  0  0  0
   -3.8457    1.6895  -22.9801 H   0  0  0  0  0  0  0  0  0  0  0  0
   -2.4294    2.3773  -21.0474 H   0  0  0  0  0  0  0  0  0  0  0  0
   -3.0765    1.7289  -18.7463 H   0  0  0  0  0  0  0  0  0  0  0  0
   -4.6320    0.5754  -17.2075 H   0  0  0  0  0  0  0  0  0  0  0  0
   -7.7808   -1.6759  -18.6425 H   0  0  0  0  0  0  0  0  0  0  0  0
   -7.0232   -2.5822  -21.9304 C   0  0  0  0  0  0  0  0  0  0  0  0
   -8.2934   -2.8792  -22.7376 C   0  0  2  0  0  0  0  0  0  0  0  0
   -7.9765   -3.6676  -24.0154 C   0  0  0  0  0  0  0  0  0  0  0  0
   -7.4702   -4.9842  -23.7067 N   0  0  0  0  0  0  0  0  0  0  0  0
   -6.1390   -5.2882  -23.6214 C   0  0  0  0  0  0  0  0  0  0  0  0
   -5.0358   -4.5605  -23.9732 C   0  0  0  0  0  0  0  0  0  0  0  0
   -3.8139   -5.1659  -23.7693 N   0  0  0  0  0  0  0  0  0  0  0  0
   -3.9558   -6.3593  -23.2886 C   0  0  0  0  0  0  0  0  0  0  0  0
   -2.8184   -7.2791  -22.9849 C   0  0  0  0  0  0  0  0  0  0  0  0
   -3.0337   -7.9046  -22.1183 H   0  0  0  0  0  0  0  0  0  0  0  0
   -2.6295   -7.9445  -23.8343 H   0  0  0  0  0  0  0  0  0  0  0  0
   -1.9218   -6.6839  -22.8048 H   0  0  0  0  0  0  0  0  0  0  0  0
   -5.6170   -6.8521  -23.0286 S   0  0  0  0  0  0  0  0  0  0  0  0
   -5.0557   -3.5692  -24.4131 H   0  0  0  0  0  0  0  0  0  0  0  0
   -8.1273   -5.7276  -23.5230 H   0  0  0  0  0  0  0  0  0  0  0  0
   -8.8765   -3.7729  -24.6315 H   0  0  0  0  0  0  0  0  0  0  0  0
   -7.2215   -3.1344  -24.6089 H   0  0  0  0  0  0  0  0  0  0  0  0
   -8.9298   -3.5199  -22.1197 H   0  0  0  0  0  0  0  0  0  0  0  0
   -6.1530   -2.4278  -22.5900 H   0  0  0  0  0  0  0  0  0  0  0  0
   -6.7680   -3.4084  -21.2601 H   0  0  0  0  0  0  0  0  0  0  0  0
  -10.5381   -1.5671  -22.8315 C   0  0  0  0  0  0  0  0  0  0  0  0
  -11.1721   -2.4728  -21.9800 C   0  0  0  0  0  0  0  0  0  0  0  0
  -12.5478   -2.4808  -21.8742 C   0  0  0  0  0  0  0  0  0  0  0  0
  -13.2818   -3.5752  -20.7454 Cl  0  0  0  0  0  0  0  0  0  0  0  0
  -13.3495   -1.6126  -22.6122 C   0  0  0  0  0  0  0  0  0  0  0  0
  -12.7273   -0.6861  -23.4218 C   0  0  0  0  0  0  0  0  0  0  0  0
  -11.3383   -0.6395  -23.5101 C   0  0  0  0  0  0  0  0  0  0  0  0
  -10.7283    0.4777  -24.2961 C   0  0  0  0  0  0  0  0  0  0  0  0
  -11.4043    1.3616  -24.8021 O   0  0  0  0  0  0  0  0  0  0  0  0
  -13.2905    0.0351  -23.9992 H   0  0  0  0  0  0  0  0  0  0  0  0
  -14.4297   -1.6663  -22.5393 H   0  0  0  0  0  0  0  0  0  0  0  0
  -10.6099   -3.1755  -21.3767 H   0  0  0  0  0  0  0  0  0  0  0  0
   -7.5523   -0.5669  -24.2047 H   0  0  0  0  0  0  0  0  0  0  0  0
   -8.8380   -1.4574  -25.0443 H   0  0  0  0  0  0  0  0  0  0  0  0
   -9.4470    2.3095  -25.2722 H   0  0  0  0  0  0  0  0  0  0  0  0
   -8.1240    1.2700  -25.8547 H   0  0  0  0  0  0  0  0  0  0  0  0
   -9.2165    2.6928  -22.6778 H   0  0  0  0  0  0  0  0  0  0  0  0
   -6.8765    2.5776  -21.4102 H   0  0  0  0  0  0  0  0  0  0  0  0
   -6.6186    4.0650  -22.3665 H   0  0  0  0  0  0  0  0  0  0  0  0
   -7.9399    4.0215  -21.1947 H   0  0  0  0  0  0  0  0  0  0  0  0
  1  2  1  0
  2  3  1  0
  3  4  2  0
  3  5  1  0
  5  6  1  0
  6  7  1  0
  8  7  1  6
  8  9  1  0
  9 10  2  0
  9 11  1  0
 11 12  1  0
 12 13  2  0
 13 14  1  0
 14 15  2  0
 15 16  1  0
 16 17  2  0
 17 18  1  0
 18 19  2  0
 19 20  1  0
 20 21  2  0
 20 22  1  0
 19 23  1  0
 18 24  1  0
 17 25  1  0
 15 26  1  0
 13 27  1  0
 11 28  1  0
 28 29  1  0
 29 30  1  0
 30 31  1  0
 31 32  1  0
 32 33  2  0
 33 34  1  0
 34 35  2  0
 35 36  1  0
 36 37  1  0
 36 38  1  0
 36 39  1  0
 35 40  1  0
 33 41  1  0
 31 42  1  0
 30 43  1  0
 30 44  1  0
 29 45  1  1
 28 46  1  0
 28 47  1  0
  8 48  1  0
 48 49  2  0
 49 50  1  0
 50 51  1  0
 50 52  2  0
 52 53  1  0
 53 54  2  0
 54 55  1  0
 55 56  2  0
 53 57  1  0
 52 58  1  0
 49 59  1  0
  7 60  1  0
  7 61  1  0
  5 62  1  0
  5 63  1  0
  2 64  1  0
  1 65  1  0
  1 66  1  0
  1 67  1  0
 55  6  1  0
 29  8  1  0
 40 32  1  0
 54 48  1  0
 21 12  1  0
 21 16  1  0
M  END
>  <cnnaffinities>  (47) 
[6.62204]

>  <score>  (47) 
6.62204

>  <index>  (47) 
49

>  <Smiles>  (47) 
C(N(C(=O)C(N1C([C@@]2(C(=O)N(c3c(nc(c4c(c(c(c(c34)[H])[H])[H])[H])[H])[H])C([C@@]2(C(N(c2c(nc(C([H])([H])[H])s2)[H])[H])([H])[H])[H])([H])[H])c2c(c(Cl)c(c(c2C1=O)[H])[H])[H])([H])[H])([H])[H])[H])([H])([H])[H]

>  <h>  (47) 
<NA>

>  <Training>  (47) 
True

>  <Success>  (47) 
True

>  <enamine_searched>  (47) 
False

>  <enamine_id>  (47) 
nan

$$$$

     RDKit          3D

 66 70  0  0  0  0  0  0  0  0999 V2000
   -7.4111    3.3872  -21.9386 C   0  0  0  0  0  0  0  0  0  0  0  0
   -8.3518    2.9012  -22.9383 N   0  0  0  0  0  0  0  0  0  0  0  0
   -7.8435    2.1295  -23.9442 C   0  0  0  0  0  0  0  0  0  0  0  0
   -6.6472    1.9107  -24.0755 O   0  0  0  0  0  0  0  0  0  0  0  0
   -8.8756    1.5359  -24.9022 C   0  0  0  0  0  0  0  0  0  0  0  0
   -9.5261    0.4003  -24.2778 N   0  0  0  0  0  0  0  0  0  0  0  0
   -8.7822   -0.8409  -24.1334 C   0  0  0  0  0  0  0  0  0  0  0  0
   -9.1183   -1.5571  -22.8038 C   0  0  2  0  0  0  0  0  0  0  0  0
   -8.5494   -0.7508  -21.6156 C   0  0  0  0  0  0  0  0  0  0  0  0
   -8.9901    0.2759  -21.1324 O   0  0  0  0  0  0  0  0  0  0  0  0
   -7.4004   -1.3733  -21.1912 N   0  0  0  0  0  0  0  0  0  0  0  0
   -6.6175   -0.7884  -20.1658 C   0  0  0  0  0  0  0  0  0  0  0  0
   -6.9273   -1.0403  -18.8568 C   0  0  0  0  0  0  0  0  0  0  0  0
   -6.2298   -0.5612  -17.7974 N   0  0  0  0  0  0  0  0  0  0  0  0
   -5.2019    0.2089  -18.0587 C   0  0  0  0  0  0  0  0  0  0  0  0
   -4.7861    0.5721  -19.3707 C   0  0  0  0  0  0  0  0  0  0  0  0
   -3.6532    1.3910  -19.6086 C   0  0  0  0  0  0  0  0  0  0  0  0
   -3.3170    1.7643  -20.8783 C   0  0  0  0  0  0  0  0  0  0  0  0
   -4.1056    1.3538  -21.9775 C   0  0  0  0  0  0  0  0  0  0  0  0
   -5.1875    0.5256  -21.7813 C   0  0  0  0  0  0  0  0  0  0  0  0
   -5.5367    0.0903  -20.4740 C   0  0  0  0  0  0  0  0  0  0  0  0
   -5.7872    0.2276  -22.6380 H   0  0  0  0  0  0  0  0  0  0  0  0
   -3.8587    1.6903  -22.9796 H   0  0  0  0  0  0  0  0  0  0  0  0
   -2.4395    2.3793  -21.0503 H   0  0  0  0  0  0  0  0  0  0  0  0
   -3.0779    1.7255  -18.7486 H   0  0  0  0  0  0  0  0  0  0  0  0
   -4.6230    0.5750  -17.2083 H   0  0  0  0  0  0  0  0  0  0  0  0
   -7.7843   -1.6684  -18.6257 H   0  0  0  0  0  0  0  0  0  0  0  0
   -7.0577   -2.5795  -21.9228 C   0  0  0  0  0  0  0  0  0  0  0  0
   -8.3541   -2.9091  -22.6806 C   0  0  2  0  0  0  0  0  0  0  0  0
   -8.1065   -3.6553  -23.9870 C   0  0  0  0  0  0  0  0  0  0  0  0
   -7.4627   -4.8820  -23.7050 O   0  0  0  0  0  0  0  0  0  0  0  0
   -7.3090   -5.7363  -24.8374 C   0  0  0  0  0  0  0  0  0  0  0  0
   -8.4437   -6.7582  -24.8997 C   0  0  0  0  0  0  0  0  0  0  0  0
   -8.4391   -7.3773  -23.9958 H   0  0  0  0  0  0  0  0  0  0  0  0
   -8.3097   -7.4103  -25.7725 H   0  0  0  0  0  0  0  0  0  0  0  0
   -9.4248   -6.2741  -24.9779 H   0  0  0  0  0  0  0  0  0  0  0  0
   -5.9551   -6.4257  -24.7292 C   0  0  0  0  0  0  0  0  0  0  0  0
   -5.9245   -7.0490  -23.8292 H   0  0  0  0  0  0  0  0  0  0  0  0
   -5.7912   -7.0643  -25.6056 H   0  0  0  0  0  0  0  0  0  0  0  0
   -5.1461   -5.6907  -24.6768 H   0  0  0  0  0  0  0  0  0  0  0  0
   -7.3248   -5.1350  -25.7638 H   0  0  0  0  0  0  0  0  0  0  0  0
   -9.0641   -3.8149  -24.5095 H   0  0  0  0  0  0  0  0  0  0  0  0
   -7.4657   -3.0549  -24.6547 H   0  0  0  0  0  0  0  0  0  0  0  0
   -8.9381   -3.5816  -22.0497 H   0  0  0  0  0  0  0  0  0  0  0  0
   -6.7759   -3.3797  -21.2349 H   0  0  0  0  0  0  0  0  0  0  0  0
   -6.2147   -2.4178  -22.6119 H   0  0  0  0  0  0  0  0  0  0  0  0
  -10.6240   -1.6430  -22.7015 C   0  0  0  0  0  0  0  0  0  0  0  0
  -11.2286   -2.5868  -21.8719 C   0  0  0  0  0  0  0  0  0  0  0  0
  -12.5983   -2.5851  -21.7226 C   0  0  0  0  0  0  0  0  0  0  0  0
  -13.1469   -3.4745  -20.8828 F   0  0  0  0  0  0  0  0  0  0  0  0
  -13.4351   -1.6909  -22.3762 C   0  0  0  0  0  0  0  0  0  0  0  0
  -12.8383   -0.7519  -23.1863 C   0  0  0  0  0  0  0  0  0  0  0  0
  -11.4543   -0.7051  -23.3340 C   0  0  0  0  0  0  0  0  0  0  0  0
  -10.8842    0.4166  -24.1416 C   0  0  0  0  0  0  0  0  0  0  0  0
  -11.5815    1.3036  -24.6166 O   0  0  0  0  0  0  0  0  0  0  0  0
  -13.4264   -0.0202  -23.7212 H   0  0  0  0  0  0  0  0  0  0  0  0
  -14.5087   -1.7440  -22.2291 H   0  0  0  0  0  0  0  0  0  0  0  0
  -10.6636   -3.3299  -21.3226 H   0  0  0  0  0  0  0  0  0  0  0  0
   -9.0304   -1.5172  -24.9624 H   0  0  0  0  0  0  0  0  0  0  0  0
   -7.7118   -0.6199  -24.1883 H   0  0  0  0  0  0  0  0  0  0  0  0
   -8.3707    1.2196  -25.8214 H   0  0  0  0  0  0  0  0  0  0  0  0
   -9.6518    2.2622  -25.1647 H   0  0  0  0  0  0  0  0  0  0  0  0
   -9.2964    2.7093  -22.6238 H   0  0  0  0  0  0  0  0  0  0  0  0
   -7.9281    4.0216  -21.2160 H   0  0  0  0  0  0  0  0  0  0  0  0
   -6.9143    2.5465  -21.4274 H   0  0  0  0  0  0  0  0  0  0  0  0
   -6.6521    4.0026  -22.4296 H   0  0  0  0  0  0  0  0  0  0  0  0
  1  2  1  0
  2  3  1  0
  3  4  2  0
  3  5  1  0
  5  6  1  0
  6  7  1  0
  8  7  1  6
  8  9  1  0
  9 10  2  0
  9 11  1  0
 11 12  1  0
 12 13  2  0
 13 14  1  0
 14 15  2  0
 15 16  1  0
 16 17  2  0
 17 18  1  0
 18 19  2  0
 19 20  1  0
 20 21  2  0
 20 22  1  0
 19 23  1  0
 18 24  1  0
 17 25  1  0
 15 26  1  0
 13 27  1  0
 11 28  1  0
 28 29  1  0
 29 30  1  0
 30 31  1  0
 31 32  1  0
 32 33  1  0
 33 34  1  0
 33 35  1  0
 33 36  1  0
 32 37  1  0
 37 38  1  0
 37 39  1  0
 37 40  1  0
 32 41  1  0
 30 42  1  0
 30 43  1  0
 29 44  1  1
 28 45  1  0
 28 46  1  0
  8 47  1  0
 47 48  2  0
 48 49  1  0
 49 50  1  0
 49 51  2  0
 51 52  1  0
 52 53  2  0
 53 54  1  0
 54 55  2  0
 52 56  1  0
 51 57  1  0
 48 58  1  0
  7 59  1  0
  7 60  1  0
  5 61  1  0
  5 62  1  0
  2 63  1  0
  1 64  1  0
  1 65  1  0
  1 66  1  0
 54  6  1  0
 29  8  1  0
 53 47  1  0
 21 12  1  0
 21 16  1  0
M  END
>  <cnnaffinities>  (48) 
[5.94329, 5.37134, 5.35226, 5.51724]

>  <score>  (48) 
5.94329

>  <index>  (48) 
50

>  <Smiles>  (48) 
C(N(C(=O)C(N1C([C@@]2(C(=O)N(c3c(nc(c4c(c(c(c(c34)[H])[H])[H])[H])[H])[H])C([C@@]2(C(OC(C([H])([H])[H])(C([H])([H])[H])[H])([H])[H])[H])([H])[H])c2c(c(F)c(c(c2C1=O)[H])[H])[H])([H])[H])([H])[H])[H])([H])([H])[H]

>  <h>  (48) 
<NA>

>  <Training>  (48) 
True

>  <Success>  (48) 
True

>  <enamine_searched>  (48) 
False

>  <enamine_id>  (48) 
nan

$$$$

     RDKit          3D

 50 52  0  0  0  0  0  0  0  0999 V2000
   -9.1702   -1.9604  -25.2570 C   0  0  0  0  0  0  0  0  0  0  0  0
   -8.2642   -2.4383  -24.4145 C   0  0  0  0  0  0  0  0  0  0  0  0
   -8.6950   -3.1125  -23.1328 C   0  0  0  0  0  0  0  0  0  0  0  0
   -9.3050   -2.1389  -22.2290 N   0  0  0  0  0  0  0  0  0  0  0  0
   -8.6169   -1.2026  -21.4702 C   0  0  0  0  0  0  0  0  0  0  0  0
   -9.1574   -0.2391  -20.9539 O   0  0  0  0  0  0  0  0  0  0  0  0
   -7.2900   -1.5071  -21.2403 N   0  0  0  0  0  0  0  0  0  0  0  0
   -6.5863   -0.8580  -20.1991 C   0  0  0  0  0  0  0  0  0  0  0  0
   -6.9229   -1.0752  -18.8818 C   0  0  0  0  0  0  0  0  0  0  0  0
   -6.2390   -0.5754  -17.8225 N   0  0  0  0  0  0  0  0  0  0  0  0
   -5.2088    0.1910  -18.0937 C   0  0  0  0  0  0  0  0  0  0  0  0
   -4.7788    0.5297  -19.4072 C   0  0  0  0  0  0  0  0  0  0  0  0
   -3.6551    1.3650  -19.6251 C   0  0  0  0  0  0  0  0  0  0  0  0
   -3.2915    1.7101  -20.8976 C   0  0  0  0  0  0  0  0  0  0  0  0
   -4.0593    1.2745  -22.0020 C   0  0  0  0  0  0  0  0  0  0  0  0
   -5.1394    0.4390  -21.8233 C   0  0  0  0  0  0  0  0  0  0  0  0
   -5.5017    0.0242  -20.5093 C   0  0  0  0  0  0  0  0  0  0  0  0
   -5.6940    0.0897  -22.6946 H   0  0  0  0  0  0  0  0  0  0  0  0
   -3.7504    1.5580  -23.0062 H   0  0  0  0  0  0  0  0  0  0  0  0
   -2.4054    2.3127  -21.0701 H   0  0  0  0  0  0  0  0  0  0  0  0
   -3.0975    1.7022  -18.7561 H   0  0  0  0  0  0  0  0  0  0  0  0
   -4.6525    0.6000  -17.2535 H   0  0  0  0  0  0  0  0  0  0  0  0
   -7.7828   -1.7000  -18.6440 H   0  0  0  0  0  0  0  0  0  0  0  0
   -6.7696   -1.9963  -21.9542 H   0  0  0  0  0  0  0  0  0  0  0  0
  -10.7138   -2.0171  -22.3256 C   0  0  0  0  0  0  0  0  0  0  0  0
  -11.4808   -3.1609  -22.1176 C   0  0  0  0  0  0  0  0  0  0  0  0
  -12.8576   -3.0850  -22.1517 C   0  0  0  0  0  0  0  0  0  0  0  0
  -13.4921   -1.8837  -22.4759 C   0  0  0  0  0  0  0  0  0  0  0  0
  -12.7131   -0.7546  -22.7090 C   0  0  0  0  0  0  0  0  0  0  0  0
  -13.4847    0.7700  -23.0843 Cl  0  0  0  0  0  0  0  0  0  0  0  0
  -11.3276   -0.8000  -22.6267 C   0  0  0  0  0  0  0  0  0  0  0  0
  -10.7512    0.1048  -22.7796 H   0  0  0  0  0  0  0  0  0  0  0  0
  -14.5700   -1.8128  -22.5602 H   0  0  0  0  0  0  0  0  0  0  0  0
  -13.4011   -3.9953  -21.9283 H   0  0  0  0  0  0  0  0  0  0  0  0
  -10.9985   -4.1202  -21.9231 H   0  0  0  0  0  0  0  0  0  0  0  0
   -9.4832   -3.8303  -23.3641 H   0  0  0  0  0  0  0  0  0  0  0  0
   -7.9120   -3.6741  -22.6171 H   0  0  0  0  0  0  0  0  0  0  0  0
   -6.8202   -2.1433  -24.6676 C   0  0  0  0  0  0  0  0  0  0  0  0
   -6.4535   -1.1256  -25.2416 O   0  0  0  0  0  0  0  0  0  0  0  0
   -5.9488   -3.0742  -24.1761 N   0  0  0  0  0  0  0  0  0  0  0  0
   -4.5157   -2.8900  -24.3401 C   0  0  0  0  0  0  0  0  0  0  0  0
   -3.9840   -3.0185  -25.7670 C   0  0  0  0  0  0  0  0  0  0  0  0
   -4.4338   -2.2698  -26.4247 H   0  0  0  0  0  0  0  0  0  0  0  0
   -4.1513   -4.0074  -26.2056 H   0  0  0  0  0  0  0  0  0  0  0  0
   -2.9063   -2.8345  -25.7537 H   0  0  0  0  0  0  0  0  0  0  0  0
   -4.3024   -1.8773  -23.9887 H   0  0  0  0  0  0  0  0  0  0  0  0
   -4.0190   -3.5963  -23.6654 H   0  0  0  0  0  0  0  0  0  0  0  0
   -6.3130   -4.0062  -24.0375 H   0  0  0  0  0  0  0  0  0  0  0  0
   -8.8759   -1.3793  -26.1263 H   0  0  0  0  0  0  0  0  0  0  0  0
  -10.2317   -2.1290  -25.0720 H   0  0  0  0  0  0  0  0  0  0  0  0
  1  2  2  0
  2  3  1  0
  3  4  1  0
  4  5  1  0
  5  6  2  0
  5  7  1  0
  7  8  1  0
  8  9  2  0
  9 10  1  0
 10 11  2  0
 11 12  1  0
 12 13  2  0
 13 14  1  0
 14 15  2  0
 15 16  1  0
 16 17  2  0
 16 18  1  0
 15 19  1  0
 14 20  1  0
 13 21  1  0
 11 22  1  0
  9 23  1  0
  7 24  1  0
  4 25  1  0
 25 26  2  0
 26 27  1  0
 27 28  2  0
 28 29  1  0
 29 30  1  0
 29 31  2  0
 31 32  1  0
 28 33  1  0
 27 34  1  0
 26 35  1  0
  3 36  1  0
  3 37  1  0
  2 38  1  0
 38 39  2  0
 38 40  1  0
 40 41  1  0
 41 42  1  0
 42 43  1  0
 42 44  1  0
 42 45  1  0
 41 46  1  0
 41 47  1  0
 40 48  1  0
  1 49  1  0
  1 50  1  0
 17  8  1  0
 31 25  1  0
 17 12  1  0
M  END
>  <cnnaffinities>  (49) 
[5.43371]

>  <score>  (49) 
5.43371

>  <index>  (49) 
51

>  <Smiles>  (49) 
C(=C(C(N(C(=O)N(c1c(nc(c2c(c(c(c(c12)[H])[H])[H])[H])[H])[H])[H])c1c(c(c(c(Cl)c1[H])[H])[H])[H])([H])[H])C(=O)N(C(C([H])([H])[H])([H])[H])[H])([H])[H]

>  <h>  (49) 
<NA>

>  <Training>  (49) 
True

>  <Success>  (49) 
True

>  <enamine_searched>  (49) 
False

>  <enamine_id>  (49) 
nan

$$$$

     RDKit          3D

 57 60  0  0  0  0  0  0  0  0999 V2000
   -2.7955   -4.2776  -29.8018 C   0  0  0  0  0  0  0  0  0  0  0  0
   -2.7751   -3.3253  -28.6051 C   0  0  0  0  0  0  0  0  0  0  0  0
   -3.9056   -3.5634  -27.6317 C   0  0  0  0  0  0  0  0  0  0  0  0
   -4.9677   -2.9738  -27.7257 O   0  0  0  0  0  0  0  0  0  0  0  0
   -3.6496   -4.4772  -26.6430 N   0  0  0  0  0  0  0  0  0  0  0  0
   -4.5118   -4.7319  -25.5555 C   0  0  0  0  0  0  0  0  0  0  0  0
   -4.5962   -6.0305  -25.0495 C   0  0  0  0  0  0  0  0  0  0  0  0
   -5.4489   -6.3009  -23.9886 C   0  0  0  0  0  0  0  0  0  0  0  0
   -6.1817   -5.2788  -23.3946 C   0  0  0  0  0  0  0  0  0  0  0  0
   -6.0622   -3.9766  -23.8804 C   0  0  0  0  0  0  0  0  0  0  0  0
   -6.8097   -2.9101  -23.2803 N   0  0  0  0  0  0  0  0  0  0  0  0
   -7.8089   -2.2365  -24.1142 C   0  0  0  0  0  0  0  0  0  0  0  0
   -9.2523   -2.4979  -23.7086 C   0  0  0  0  0  0  0  0  0  0  0  0
  -10.1258   -1.4555  -23.3835 C   0  0  0  0  0  0  0  0  0  0  0  0
  -11.4365   -1.7147  -22.9845 C   0  0  0  0  0  0  0  0  0  0  0  0
  -11.8969   -3.0269  -22.9214 C   0  0  0  0  0  0  0  0  0  0  0  0
  -11.0393   -4.0704  -23.2604 C   0  0  0  0  0  0  0  0  0  0  0  0
   -9.7271   -3.8085  -23.6473 C   0  0  0  0  0  0  0  0  0  0  0  0
   -9.0621   -4.6282  -23.9175 H   0  0  0  0  0  0  0  0  0  0  0  0
  -11.4016   -5.0942  -23.2267 H   0  0  0  0  0  0  0  0  0  0  0  0
  -12.9189   -3.2370  -22.6104 H   0  0  0  0  0  0  0  0  0  0  0  0
  -12.0969   -0.8899  -22.7227 H   0  0  0  0  0  0  0  0  0  0  0  0
   -9.7897   -0.4210  -23.4505 H   0  0  0  0  0  0  0  0  0  0  0  0
   -7.6250   -1.1540  -24.1473 H   0  0  0  0  0  0  0  0  0  0  0  0
   -7.6270   -2.6207  -25.1236 H   0  0  0  0  0  0  0  0  0  0  0  0
   -6.6061   -2.6651  -21.9302 C   0  0  0  0  0  0  0  0  0  0  0  0
   -5.8548   -3.3479  -21.2572 O   0  0  0  0  0  0  0  0  0  0  0  0
   -7.3513   -1.4830  -21.3028 C   0  0  0  0  0  0  0  0  0  0  0  0
   -6.5887   -0.8044  -20.1947 C   0  0  0  0  0  0  0  0  0  0  0  0
   -6.8792   -1.0626  -18.8817 C   0  0  0  0  0  0  0  0  0  0  0  0
   -6.1994   -0.5738  -17.8095 N   0  0  0  0  0  0  0  0  0  0  0  0
   -5.1825    0.2135  -18.0631 C   0  0  0  0  0  0  0  0  0  0  0  0
   -4.7663    0.5787  -19.3701 C   0  0  0  0  0  0  0  0  0  0  0  0
   -3.6327    1.4008  -19.5915 C   0  0  0  0  0  0  0  0  0  0  0  0
   -3.2609    1.7329  -20.8681 C   0  0  0  0  0  0  0  0  0  0  0  0
   -4.0279    1.2888  -21.9703 C   0  0  0  0  0  0  0  0  0  0  0  0
   -5.1074    0.4609  -21.7789 C   0  0  0  0  0  0  0  0  0  0  0  0
   -5.5002    0.0754  -20.4719 C   0  0  0  0  0  0  0  0  0  0  0  0
   -5.6412    0.0601  -22.6351 H   0  0  0  0  0  0  0  0  0  0  0  0
   -3.7266    1.5587  -22.9809 H   0  0  0  0  0  0  0  0  0  0  0  0
   -2.3665    2.3259  -21.0473 H   0  0  0  0  0  0  0  0  0  0  0  0
   -3.0573    1.7292  -18.7260 H   0  0  0  0  0  0  0  0  0  0  0  0
   -4.6314    0.6058  -17.2072 H   0  0  0  0  0  0  0  0  0  0  0  0
   -7.7239   -1.7043  -18.6274 H   0  0  0  0  0  0  0  0  0  0  0  0
   -7.6350   -0.7643  -22.0736 H   0  0  0  0  0  0  0  0  0  0  0  0
   -8.2859   -1.8972  -20.9087 H   0  0  0  0  0  0  0  0  0  0  0  0
   -5.2683   -3.7057  -24.9927 C   0  0  0  0  0  0  0  0  0  0  0  0
   -5.2186   -2.7053  -25.4099 H   0  0  0  0  0  0  0  0  0  0  0  0
   -6.8331   -5.4837  -22.5498 H   0  0  0  0  0  0  0  0  0  0  0  0
   -5.5312   -7.3160  -23.6096 H   0  0  0  0  0  0  0  0  0  0  0  0
   -4.0095   -6.8257  -25.5019 H   0  0  0  0  0  0  0  0  0  0  0  0
   -2.8279   -5.0544  -26.7326 H   0  0  0  0  0  0  0  0  0  0  0  0
   -1.8206   -3.3858  -28.0743 H   0  0  0  0  0  0  0  0  0  0  0  0
   -2.9199   -2.2920  -28.9284 H   0  0  0  0  0  0  0  0  0  0  0  0
   -2.6373   -5.3264  -29.5227 H   0  0  0  0  0  0  0  0  0  0  0  0
   -2.0039   -4.0103  -30.5073 H   0  0  0  0  0  0  0  0  0  0  0  0
   -3.7502   -4.2083  -30.3301 H   0  0  0  0  0  0  0  0  0  0  0  0
  1  2  1  0
  2  3  1  0
  3  4  2  0
  3  5  1  0
  5  6  1  0
  6  7  2  0
  7  8  1  0
  8  9  2  0
  9 10  1  0
 10 11  1  0
 11 12  1  0
 12 13  1  0
 13 14  2  0
 14 15  1  0
 15 16  2  0
 16 17  1  0
 17 18  2  0
 18 19  1  0
 17 20  1  0
 16 21  1  0
 15 22  1  0
 14 23  1  0
 12 24  1  0
 12 25  1  0
 11 26  1  0
 26 27  2  0
 26 28  1  0
 28 29  1  0
 29 30  2  0
 30 31  1  0
 31 32  2  0
 32 33  1  0
 33 34  2  0
 34 35  1  0
 35 36  2  0
 36 37  1  0
 37 38  2  0
 37 39  1  0
 36 40  1  0
 35 41  1  0
 34 42  1  0
 32 43  1  0
 30 44  1  0
 28 45  1  0
 28 46  1  0
 10 47  2  0
 47 48  1  0
  9 49  1  0
  8 50  1  0
  7 51  1  0
  5 52  1  0
  2 53  1  0
  2 54  1  0
  1 55  1  0
  1 56  1  0
  1 57  1  0
 47  6  1  0
 18 13  1  0
 38 29  1  0
 38 33  1  0
M  END
>  <cnnaffinities>  (50) 
[5.73261, 5.62268, 5.62495, 5.59958, 5.16114, 5.59952, 5.53085, 5.74786, 5.66493, 5.65439]

>  <score>  (50) 
5.73261

>  <index>  (50) 
52

>  <Smiles>  (50) 
C(C(C(=O)N(c1c(c(c(c(N(C(c2c(c(c(c(c2[H])[H])[H])[H])[H])([H])[H])C(=O)C(c2c(nc(c3c(c(c(c(c23)[H])[H])[H])[H])[H])[H])([H])[H])c1[H])[H])[H])[H])[H])([H])[H])([H])([H])[H]

>  <h>  (50) 
<NA>

>  <Training>  (50) 
True

>  <Success>  (50) 
True

>  <enamine_searched>  (50) 
False

>  <enamine_id>  (50) 
nan

$$$$

     RDKit          3D

 59 63  0  0  0  0  0  0  0  0999 V2000
   -7.5609   -1.4354  -29.5027 C   0  0  0  0  0  0  0  0  0  0  0  0
   -6.9261   -0.0583  -29.3661 C   0  0  0  0  0  0  0  0  0  0  0  0
   -7.1924    0.5693  -28.0830 N   0  0  0  0  0  0  0  0  0  0  0  0
   -6.5921    0.0834  -26.9634 C   0  0  0  0  0  0  0  0  0  0  0  0
   -5.7289   -0.7762  -26.9743 O   0  0  0  0  0  0  0  0  0  0  0  0
   -7.0967    0.6860  -25.6558 C   0  0  0  0  0  0  0  0  0  0  0  0
   -8.2165   -0.0499  -25.1168 N   0  0  0  0  0  0  0  0  0  0  0  0
   -7.9748   -1.3299  -24.4848 C   0  0  0  0  0  0  0  0  0  0  0  0
   -8.7501   -1.4698  -23.1579 C   0  0  2  0  0  0  0  0  0  0  0  0
   -8.1334   -0.5568  -22.0832 C   0  0  0  0  0  0  0  0  0  0  0  0
   -8.2466    0.6441  -21.9851 O   0  0  0  0  0  0  0  0  0  0  0  0
   -7.3993   -1.3268  -21.2192 N   0  0  0  0  0  0  0  0  0  0  0  0
   -6.6270   -0.7586  -20.1851 C   0  0  0  0  0  0  0  0  0  0  0  0
   -6.9026   -1.0658  -18.8742 C   0  0  0  0  0  0  0  0  0  0  0  0
   -6.2067   -0.5900  -17.8133 N   0  0  0  0  0  0  0  0  0  0  0  0
   -5.2007    0.2135  -18.0697 C   0  0  0  0  0  0  0  0  0  0  0  0
   -4.7964    0.5911  -19.3819 C   0  0  0  0  0  0  0  0  0  0  0  0
   -3.6492    1.3975  -19.6007 C   0  0  0  0  0  0  0  0  0  0  0  0
   -3.2587    1.7263  -20.8707 C   0  0  0  0  0  0  0  0  0  0  0  0
   -4.0171    1.2917  -21.9825 C   0  0  0  0  0  0  0  0  0  0  0  0
   -5.1049    0.4744  -21.7997 C   0  0  0  0  0  0  0  0  0  0  0  0
   -5.5234    0.1008  -20.4871 C   0  0  0  0  0  0  0  0  0  0  0  0
   -5.6385    0.0930  -22.6674 H   0  0  0  0  0  0  0  0  0  0  0  0
   -3.7022    1.5656  -22.9873 H   0  0  0  0  0  0  0  0  0  0  0  0
   -2.3708    2.3323  -21.0369 H   0  0  0  0  0  0  0  0  0  0  0  0
   -3.0774    1.7201  -18.7342 H   0  0  0  0  0  0  0  0  0  0  0  0
   -4.6281    0.5904  -17.2211 H   0  0  0  0  0  0  0  0  0  0  0  0
   -7.7475   -1.7146  -18.6354 H   0  0  0  0  0  0  0  0  0  0  0  0
   -7.4324   -2.7382  -21.5187 C   0  0  0  0  0  0  0  0  0  0  0  0
   -8.5684   -2.8874  -22.5431 C   0  0  2  0  0  0  0  0  0  0  0  0
   -8.3353   -4.0512  -23.5138 C   0  0  0  0  0  0  0  0  0  0  0  0
   -9.1314   -4.1439  -24.2642 H   0  0  0  0  0  0  0  0  0  0  0  0
   -7.3853   -3.9380  -24.0514 H   0  0  0  0  0  0  0  0  0  0  0  0
   -8.2875   -5.0087  -22.9801 H   0  0  0  0  0  0  0  0  0  0  0  0
   -9.4825   -3.1122  -21.9931 H   0  0  0  0  0  0  0  0  0  0  0  0
   -6.4731   -3.0790  -21.9299 H   0  0  0  0  0  0  0  0  0  0  0  0
   -7.6227   -3.2914  -20.6027 H   0  0  0  0  0  0  0  0  0  0  0  0
  -10.1838   -1.0507  -23.3970 C   0  0  0  0  0  0  0  0  0  0  0  0
  -11.1911   -1.4445  -22.5078 C   0  0  0  0  0  0  0  0  0  0  0  0
  -12.5002   -1.0661  -22.7463 C   0  0  0  0  0  0  0  0  0  0  0  0
  -13.7606   -1.6641  -21.6986 Cl  0  0  0  0  0  0  0  0  0  0  0  0
  -12.8383   -0.2163  -23.8026 C   0  0  0  0  0  0  0  0  0  0  0  0
  -11.8329    0.2545  -24.6250 C   0  0  0  0  0  0  0  0  0  0  0  0
  -10.5219   -0.1729  -24.4383 C   0  0  0  0  0  0  0  0  0  0  0  0
   -9.4839    0.3922  -25.3560 C   0  0  0  0  0  0  0  0  0  0  0  0
   -9.7450    1.2257  -26.2231 O   0  0  0  0  0  0  0  0  0  0  0  0
  -12.0147    0.9698  -25.4220 H   0  0  0  0  0  0  0  0  0  0  0  0
  -13.8768    0.0617  -23.9447 H   0  0  0  0  0  0  0  0  0  0  0  0
  -10.9580   -2.0216  -21.6162 H   0  0  0  0  0  0  0  0  0  0  0  0
   -6.8969   -1.4284  -24.3196 H   0  0  0  0  0  0  0  0  0  0  0  0
   -8.2998   -2.1282  -25.1653 H   0  0  0  0  0  0  0  0  0  0  0  0
   -7.4380    1.7106  -25.8140 H   0  0  0  0  0  0  0  0  0  0  0  0
   -6.2669    0.6497  -24.9390 H   0  0  0  0  0  0  0  0  0  0  0  0
   -8.0206    1.1408  -27.9716 H   0  0  0  0  0  0  0  0  0  0  0  0
   -5.8435   -0.1507  -29.4611 H   0  0  0  0  0  0  0  0  0  0  0  0
   -7.2619    0.6197  -30.1551 H   0  0  0  0  0  0  0  0  0  0  0  0
   -7.1630   -2.1111  -28.7425 H   0  0  0  0  0  0  0  0  0  0  0  0
   -7.3335   -1.8634  -30.4808 H   0  0  0  0  0  0  0  0  0  0  0  0
   -8.6461   -1.3928  -29.3811 H   0  0  0  0  0  0  0  0  0  0  0  0
  1  2  1  0
  2  3  1  0
  3  4  1  0
  4  5  2  0
  4  6  1  0
  6  7  1  0
  7  8  1  0
  9  8  1  6
  9 10  1  0
 10 11  2  0
 10 12  1  0
 12 13  1  0
 13 14  2  0
 14 15  1  0
 15 16  2  0
 16 17  1  0
 17 18  2  0
 18 19  1  0
 19 20  2  0
 20 21  1  0
 21 22  2  0
 21 23  1  0
 20 24  1  0
 19 25  1  0
 18 26  1  0
 16 27  1  0
 14 28  1  0
 12 29  1  0
 29 30  1  0
 30 31  1  0
 31 32  1  0
 31 33  1  0
 31 34  1  0
 30 35  1  1
 29 36  1  0
 29 37  1  0
  9 38  1  0
 38 39  2  0
 39 40  1  0
 40 41  1  0
 40 42  2  0
 42 43  1  0
 43 44  2  0
 44 45  1  0
 45 46  2  0
 43 47  1  0
 42 48  1  0
 39 49  1  0
  8 50  1  0
  8 51  1  0
  6 52  1  0
  6 53  1  0
  3 54  1  0
  2 55  1  0
  2 56  1  0
  1 57  1  0
  1 58  1  0
  1 59  1  0
 45  7  1  0
 30  9  1  0
 44 38  1  0
 22 13  1  0
 22 17  1  0
M  END
>  <cnnaffinities>  (51) 
[5.51668, 5.45691]

>  <score>  (51) 
5.51668

>  <index>  (51) 
53

>  <Smiles>  (51) 
C(C(N(C(=O)C(N1C([C@@]2(C(=O)N(c3c(nc(c4c(c(c(c(c34)[H])[H])[H])[H])[H])[H])C([C@@]2(C([H])([H])[H])[H])([H])[H])c2c(c(Cl)c(c(c2C1=O)[H])[H])[H])([H])[H])([H])[H])[H])([H])[H])([H])([H])[H]

>  <h>  (51) 
<NA>

>  <Training>  (51) 
True

>  <Success>  (51) 
True

>  <enamine_searched>  (51) 
False

>  <enamine_id>  (51) 
nan

$$$$

     RDKit          3D

 40 43  0  0  0  0  0  0  0  0999 V2000
   -7.9494   -3.5336  -24.0168 C   0  0  0  0  0  0  0  0  0  0  0  0
   -7.9891   -2.6580  -22.8694 N   0  0  0  0  0  0  0  0  0  0  0  0
   -9.0510   -2.0284  -22.2840 C   0  0  0  0  0  0  0  0  0  0  0  0
  -10.4194   -2.0459  -22.8767 C   0  0  0  0  0  0  0  0  0  0  0  0
  -10.4802   -1.1528  -24.1007 C   0  0  0  0  0  0  0  0  0  0  0  0
  -10.4938    0.2298  -23.9332 C   0  0  0  0  0  0  0  0  0  0  0  0
  -10.5329    1.0771  -25.0372 C   0  0  0  0  0  0  0  0  0  0  0  0
  -10.5083    0.5466  -26.3260 C   0  0  0  0  0  0  0  0  0  0  0  0
  -10.4824   -0.8358  -26.5025 C   0  0  0  0  0  0  0  0  0  0  0  0
  -10.4867   -1.6773  -25.3926 C   0  0  0  0  0  0  0  0  0  0  0  0
  -10.5323   -2.7567  -25.5358 H   0  0  0  0  0  0  0  0  0  0  0  0
  -10.4842   -1.2625  -27.5032 H   0  0  0  0  0  0  0  0  0  0  0  0
  -10.5691    1.2021  -27.1928 H   0  0  0  0  0  0  0  0  0  0  0  0
  -10.5948    2.1538  -24.8933 H   0  0  0  0  0  0  0  0  0  0  0  0
  -10.4930    0.6303  -22.9203 H   0  0  0  0  0  0  0  0  0  0  0  0
  -10.7103   -3.0684  -23.1434 H   0  0  0  0  0  0  0  0  0  0  0  0
  -11.1027   -1.7121  -22.0902 H   0  0  0  0  0  0  0  0  0  0  0  0
   -8.6930   -1.3290  -21.2517 N   0  0  0  0  0  0  0  0  0  0  0  0
   -7.3332   -1.4767  -21.1871 N   0  0  0  0  0  0  0  0  0  0  0  0
   -6.5826   -0.8254  -20.1826 C   0  0  0  0  0  0  0  0  0  0  0  0
   -6.9188   -1.0548  -18.8728 C   0  0  0  0  0  0  0  0  0  0  0  0
   -6.2272   -0.5646  -17.8223 N   0  0  0  0  0  0  0  0  0  0  0  0
   -5.1919    0.1997  -18.0881 C   0  0  0  0  0  0  0  0  0  0  0  0
   -4.7751    0.5647  -19.3975 C   0  0  0  0  0  0  0  0  0  0  0  0
   -3.6418    1.3955  -19.6111 C   0  0  0  0  0  0  0  0  0  0  0  0
   -3.2796    1.7521  -20.8829 C   0  0  0  0  0  0  0  0  0  0  0  0
   -4.0498    1.3216  -21.9875 C   0  0  0  0  0  0  0  0  0  0  0  0
   -5.1371    0.4989  -21.8078 C   0  0  0  0  0  0  0  0  0  0  0  0
   -5.5105    0.0746  -20.4972 C   0  0  0  0  0  0  0  0  0  0  0  0
   -5.6799    0.1193  -22.6694 H   0  0  0  0  0  0  0  0  0  0  0  0
   -3.7404    1.5950  -22.9940 H   0  0  0  0  0  0  0  0  0  0  0  0
   -2.3872    2.3484  -21.0555 H   0  0  0  0  0  0  0  0  0  0  0  0
   -3.0748    1.7175  -18.7415 H   0  0  0  0  0  0  0  0  0  0  0  0
   -4.6368    0.5830  -17.2356 H   0  0  0  0  0  0  0  0  0  0  0  0
   -7.7811   -1.6727  -18.6305 H   0  0  0  0  0  0  0  0  0  0  0  0
   -6.8514   -2.3693  -22.1315 C   0  0  0  0  0  0  0  0  0  0  0  0
   -5.7282   -2.7979  -22.2898 O   0  0  0  0  0  0  0  0  0  0  0  0
   -8.8192   -4.1998  -24.0115 H   0  0  0  0  0  0  0  0  0  0  0  0
   -7.0274   -4.1150  -23.9237 H   0  0  0  0  0  0  0  0  0  0  0  0
   -7.9299   -2.9521  -24.9466 H   0  0  0  0  0  0  0  0  0  0  0  0
  1  2  1  0
  2  3  1  0
  3  4  1  0
  4  5  1  0
  5  6  2  0
  6  7  1  0
  7  8  2  0
  8  9  1  0
  9 10  2  0
 10 11  1  0
  9 12  1  0
  8 13  1  0
  7 14  1  0
  6 15  1  0
  4 16  1  0
  4 17  1  0
  3 18  2  0
 18 19  1  0
 19 20  1  0
 20 21  2  0
 21 22  1  0
 22 23  2  0
 23 24  1  0
 24 25  2  0
 25 26  1  0
 26 27  2  0
 27 28  1  0
 28 29  2  0
 28 30  1  0
 27 31  1  0
 26 32  1  0
 25 33  1  0
 23 34  1  0
 21 35  1  0
 19 36  1  0
 36 37  2  0
  1 38  1  0
  1 39  1  0
  1 40  1  0
 36  2  1  0
 10  5  1  0
 29 20  1  0
 29 24  1  0
M  END
>  <cnnaffinities>  (52) 
[5.12962, 5.12903]

>  <score>  (52) 
5.12962

>  <index>  (52) 
54

>  <Smiles>  (52) 
C(n1c(C(c2c(c(c(c(c2[H])[H])[H])[H])[H])([H])[H])nn(c2c(nc(c3c(c(c(c(c23)[H])[H])[H])[H])[H])[H])c1=O)([H])([H])[H]

>  <h>  (52) 
<NA>

>  <Training>  (52) 
True

>  <Success>  (52) 
True

>  <enamine_searched>  (52) 
False

>  <enamine_id>  (52) 
nan

$$$$

     RDKit          3D

 61 66  0  0  0  0  0  0  0  0999 V2000
   -7.0067   -5.4599  -25.0455 C   0  0  0  0  0  0  0  0  0  0  0  0
   -7.3285   -4.7926  -23.8503 O   0  0  0  0  0  0  0  0  0  0  0  0
   -7.9869   -3.5723  -24.0819 C   0  0  0  0  0  0  0  0  0  0  0  0
   -8.2891   -2.9147  -22.7371 C   0  0  1  0  0  0  0  0  0  0  0  0
   -7.0091   -2.5504  -21.9591 C   0  0  0  0  0  0  0  0  0  0  0  0
   -7.3892   -1.3672  -21.2087 N   0  0  0  0  0  0  0  0  0  0  0  0
   -6.6140   -0.7860  -20.1743 C   0  0  0  0  0  0  0  0  0  0  0  0
   -6.9170   -1.0465  -18.8624 C   0  0  0  0  0  0  0  0  0  0  0  0
   -6.2153   -0.5662  -17.8065 N   0  0  0  0  0  0  0  0  0  0  0  0
   -5.1950    0.2180  -18.0652 C   0  0  0  0  0  0  0  0  0  0  0  0
   -4.7826    0.5831  -19.3796 C   0  0  0  0  0  0  0  0  0  0  0  0
   -3.6523    1.4100  -19.6128 C   0  0  0  0  0  0  0  0  0  0  0  0
   -3.2921    1.7505  -20.8893 C   0  0  0  0  0  0  0  0  0  0  0  0
   -4.0470    1.2921  -21.9885 C   0  0  0  0  0  0  0  0  0  0  0  0
   -5.1176    0.4462  -21.7875 C   0  0  0  0  0  0  0  0  0  0  0  0
   -5.5105    0.0695  -20.4753 C   0  0  0  0  0  0  0  0  0  0  0  0
   -5.6881    0.0866  -22.6385 H   0  0  0  0  0  0  0  0  0  0  0  0
   -3.7651    1.6022  -22.9937 H   0  0  0  0  0  0  0  0  0  0  0  0
   -2.4217    2.3753  -21.0641 H   0  0  0  0  0  0  0  0  0  0  0  0
   -3.0796    1.7511  -18.7568 H   0  0  0  0  0  0  0  0  0  0  0  0
   -4.6190    0.5943  -17.2181 H   0  0  0  0  0  0  0  0  0  0  0  0
   -7.7697   -1.6783  -18.6233 H   0  0  0  0  0  0  0  0  0  0  0  0
   -8.5933   -0.8109  -21.5815 C   0  0  0  0  0  0  0  0  0  0  0  0
   -9.1003    0.1509  -21.0503 O   0  0  0  0  0  0  0  0  0  0  0  0
   -9.1346   -1.6111  -22.7893 C   0  0  1  0  0  0  0  0  0  0  0  0
   -8.8586   -0.8356  -24.0994 C   0  0  0  0  0  0  0  0  0  0  0  0
   -9.6725    0.3550  -24.2119 N   0  0  0  0  0  0  0  0  0  0  0  0
   -9.0447    1.5806  -24.6701 C   0  0  0  0  0  0  0  0  0  0  0  0
   -8.2492    2.2745  -23.6072 C   0  0  0  0  0  0  0  0  0  0  0  0
   -6.9133    2.3915  -23.4240 C   0  0  0  0  0  0  0  0  0  0  0  0
   -6.7099    3.1818  -22.3201 N   0  0  0  0  0  4  0  0  0  0  0  0
   -7.8914    3.5699  -21.8329 C   0  0  0  0  0  0  0  0  0  0  0  0
   -8.8463    3.0153  -22.5977 N   0  0  0  0  0  0  0  0  0  0  0  0
   -9.8169    2.9359  -22.3024 H   0  0  0  0  0  0  0  0  0  0  0  0
   -8.0373    4.2767  -21.0290 H   0  0  0  0  0  0  0  0  0  0  0  0
   -5.8098    3.2241  -21.8547 H   0  0  0  0  0  0  0  0  0  0  0  0
   -6.0691    1.9727  -23.9561 H   0  0  0  0  0  0  0  0  0  0  0  0
   -9.8526    2.2212  -25.0392 H   0  0  0  0  0  0  0  0  0  0  0  0
   -8.4014    1.3362  -25.5223 H   0  0  0  0  0  0  0  0  0  0  0  0
  -11.0229    0.3149  -24.0231 C   0  0  0  0  0  0  0  0  0  0  0  0
  -11.7743    1.1996  -24.4161 O   0  0  0  0  0  0  0  0  0  0  0  0
  -11.5190   -0.8710  -23.2604 C   0  0  0  0  0  0  0  0  0  0  0  0
  -12.8973   -0.9729  -23.0907 C   0  0  0  0  0  0  0  0  0  0  0  0
  -13.4230   -1.9335  -22.2569 C   0  0  0  0  0  0  0  0  0  0  0  0
  -12.5452   -2.7955  -21.6048 C   0  0  0  0  0  0  0  0  0  0  0  0
  -13.2018   -3.9143  -20.4517 Cl  0  0  0  0  0  0  0  0  0  0  0  0
  -11.1771   -2.7468  -21.8109 C   0  0  0  0  0  0  0  0  0  0  0  0
  -10.6360   -1.7795  -22.6624 C   0  0  0  0  0  0  0  0  0  0  0  0
  -10.5420   -3.4526  -21.2873 H   0  0  0  0  0  0  0  0  0  0  0  0
  -14.4891   -2.0151  -22.0779 H   0  0  0  0  0  0  0  0  0  0  0  0
  -13.5232   -0.2630  -23.6155 H   0  0  0  0  0  0  0  0  0  0  0  0
   -9.0682   -1.5021  -24.9451 H   0  0  0  0  0  0  0  0  0  0  0  0
   -7.8064   -0.5365  -24.1512 H   0  0  0  0  0  0  0  0  0  0  0  0
   -6.1710   -2.3442  -22.6405 H   0  0  0  0  0  0  0  0  0  0  0  0
   -6.6979   -3.3534  -21.2853 H   0  0  0  0  0  0  0  0  0  0  0  0
   -8.8369   -3.6546  -22.1533 H   0  0  0  0  0  0  0  0  0  0  0  0
   -8.9210   -3.7429  -24.6459 H   0  0  0  0  0  0  0  0  0  0  0  0
   -7.3492   -2.9095  -24.6944 H   0  0  0  0  0  0  0  0  0  0  0  0
   -6.5420   -6.4116  -24.7780 H   0  0  0  0  0  0  0  0  0  0  0  0
   -7.9000   -5.6678  -25.6573 H   0  0  0  0  0  0  0  0  0  0  0  0
   -6.2950   -4.8837  -25.6588 H   0  0  0  0  0  0  0  0  0  0  0  0
  1  2  1  0
  2  3  1  0
  3  4  1  0
  4  5  1  0
  5  6  1  0
  6  7  1  0
  7  8  2  0
  8  9  1  0
  9 10  2  0
 10 11  1  0
 11 12  2  0
 12 13  1  0
 13 14  2  0
 14 15  1  0
 15 16  2  0
 15 17  1  0
 14 18  1  0
 13 19  1  0
 12 20  1  0
 10 21  1  0
  8 22  1  0
  6 23  1  0
 23 24  2  0
 23 25  1  0
 25 26  1  6
 26 27  1  0
 27 28  1  0
 28 29  1  0
 29 30  2  0
 30 31  1  0
 31 32  2  0
 32 33  1  0
 33 34  1  0
 32 35  1  0
 31 36  1  0
 30 37  1  0
 28 38  1  0
 28 39  1  0
 27 40  1  0
 40 41  2  0
 40 42  1  0
 42 43  2  0
 43 44  1  0
 44 45  2  0
 45 46  1  0
 45 47  1  0
 47 48  2  0
 47 49  1  0
 44 50  1  0
 43 51  1  0
 26 52  1  0
 26 53  1  0
  5 54  1  0
  5 55  1  0
  4 56  1  1
  3 57  1  0
  3 58  1  0
  1 59  1  0
  1 60  1  0
  1 61  1  0
 25  4  1  0
 33 29  1  0
 48 42  1  0
 16  7  1  0
 48 25  1  0
 16 11  1  0
M  CHG  1  31   1
M  END
>  <cnnaffinities>  (53) 
[6.02206, 6.04558]

>  <score>  (53) 
6.02206

>  <index>  (53) 
55

>  <Smiles>  (53) 
C(OC([C@]1(C(N(c2c(nc(c3c(c(c(c(c23)[H])[H])[H])[H])[H])[H])C(=O)[C@]21C(N(C(c1c([n+](c(n1[H])[H])[H])[H])([H])[H])C(=O)c1c(c(c(Cl)c(c21)[H])[H])[H])([H])[H])([H])[H])[H])([H])[H])([H])([H])[H]

>  <h>  (53) 
<NA>

>  <Training>  (53) 
True

>  <Success>  (53) 
True

>  <enamine_searched>  (53) 
False

>  <enamine_id>  (53) 
nan

$$$$

     RDKit          3D

 57 62  0  0  0  0  0  0  0  0999 V2000
   -7.4653   -3.4731  -23.8032 C   0  0  0  0  0  0  0  0  0  0  0  0
   -8.3703   -2.9040  -22.7037 C   0  0  1  0  0  0  0  0  0  0  0  0
   -7.6391   -2.7392  -21.3545 C   0  0  0  0  0  0  0  0  0  0  0  0
   -7.3952   -1.3146  -21.2490 N   0  0  0  0  0  0  0  0  0  0  0  0
   -6.6261   -0.7439  -20.2084 C   0  0  0  0  0  0  0  0  0  0  0  0
   -6.8947   -1.0656  -18.9022 C   0  0  0  0  0  0  0  0  0  0  0  0
   -6.2135   -0.5884  -17.8326 N   0  0  0  0  0  0  0  0  0  0  0  0
   -5.1967    0.2040  -18.0745 C   0  0  0  0  0  0  0  0  0  0  0  0
   -4.7850    0.5885  -19.3818 C   0  0  0  0  0  0  0  0  0  0  0  0
   -3.6410    1.4064  -19.5831 C   0  0  0  0  0  0  0  0  0  0  0  0
   -3.2642    1.7698  -20.8453 C   0  0  0  0  0  0  0  0  0  0  0  0
   -4.0336    1.3650  -21.9564 C   0  0  0  0  0  0  0  0  0  0  0  0
   -5.1423    0.5703  -21.7922 C   0  0  0  0  0  0  0  0  0  0  0  0
   -5.5361    0.1405  -20.4929 C   0  0  0  0  0  0  0  0  0  0  0  0
   -5.7220    0.2822  -22.6633 H   0  0  0  0  0  0  0  0  0  0  0  0
   -3.7417    1.6817  -22.9565 H   0  0  0  0  0  0  0  0  0  0  0  0
   -2.3814    2.3807  -21.0064 H   0  0  0  0  0  0  0  0  0  0  0  0
   -3.0773    1.7261  -18.7108 H   0  0  0  0  0  0  0  0  0  0  0  0
   -4.6389    0.5841  -17.2170 H   0  0  0  0  0  0  0  0  0  0  0  0
   -7.7256   -1.7282  -18.6638 H   0  0  0  0  0  0  0  0  0  0  0  0
   -8.2643   -0.5661  -22.0149 C   0  0  0  0  0  0  0  0  0  0  0  0
   -8.3982    0.6334  -21.9231 O   0  0  0  0  0  0  0  0  0  0  0  0
   -9.0131   -1.5095  -22.9861 C   0  0  1  0  0  0  0  0  0  0  0  0
   -8.8210   -1.0288  -24.4494 C   0  0  0  0  0  0  0  0  0  0  0  0
   -9.4778    0.2416  -24.6995 N   0  0  0  0  0  0  0  0  0  0  0  0
   -8.7850    1.2957  -25.4255 C   0  0  0  0  0  0  0  0  0  0  0  0
   -8.2185    2.3318  -24.4879 C   0  0  0  0  0  0  0  0  0  0  0  0
   -6.9199    2.2435  -24.1963 N   0  0  0  0  0  0  0  0  0  0  0  0
   -6.4515    3.2017  -23.3978 C   0  0  0  0  0  0  0  0  0  0  0  0
   -7.2422    4.2048  -22.8720 C   0  0  0  0  0  0  0  0  0  0  0  0
   -8.5829    4.1721  -23.2216 C   0  0  0  0  0  0  0  0  0  0  0  0
   -9.0804    3.2443  -24.0303 N   0  0  0  0  0  0  0  0  0  0  0  0
   -9.2806    4.9201  -22.8557 H   0  0  0  0  0  0  0  0  0  0  0  0
   -6.8330    4.9699  -22.2245 H   0  0  0  0  0  0  0  0  0  0  0  0
   -5.3935    3.1612  -23.1722 H   0  0  0  0  0  0  0  0  0  0  0  0
   -9.5335    1.7654  -26.0715 H   0  0  0  0  0  0  0  0  0  0  0  0
   -7.9836    0.8468  -26.0229 H   0  0  0  0  0  0  0  0  0  0  0  0
  -10.7653    0.4811  -24.3080 C   0  0  0  0  0  0  0  0  0  0  0  0
  -11.4327    1.3949  -24.7779 O   0  0  0  0  0  0  0  0  0  0  0  0
  -11.3058   -0.4715  -23.2874 C   0  0  0  0  0  0  0  0  0  0  0  0
  -12.6705   -0.3840  -23.0126 C   0  0  0  0  0  0  0  0  0  0  0  0
  -13.3067   -1.3420  -22.2449 C   0  0  0  0  0  0  0  0  0  0  0  0
  -12.5168   -2.3603  -21.7302 C   0  0  0  0  0  0  0  0  0  0  0  0
  -13.0918   -3.3100  -20.9759 F   0  0  0  0  0  0  0  0  0  0  0  0
  -11.1501   -2.4233  -21.9073 C   0  0  0  0  0  0  0  0  0  0  0  0
  -10.5121   -1.4727  -22.7156 C   0  0  0  0  0  0  0  0  0  0  0  0
  -10.6197   -3.2352  -21.4210 H   0  0  0  0  0  0  0  0  0  0  0  0
  -14.3771   -1.3169  -22.0573 H   0  0  0  0  0  0  0  0  0  0  0  0
  -13.2330    0.4107  -23.4797 H   0  0  0  0  0  0  0  0  0  0  0  0
   -9.2071   -1.8161  -25.1197 H   0  0  0  0  0  0  0  0  0  0  0  0
   -7.7568   -0.8910  -24.6482 H   0  0  0  0  0  0  0  0  0  0  0  0
   -6.6917   -3.2846  -21.3075 H   0  0  0  0  0  0  0  0  0  0  0  0
   -8.2716   -3.0853  -20.5262 H   0  0  0  0  0  0  0  0  0  0  0  0
   -9.1622   -3.6488  -22.5972 H   0  0  0  0  0  0  0  0  0  0  0  0
   -6.5965   -2.8380  -24.0127 H   0  0  0  0  0  0  0  0  0  0  0  0
   -8.0315   -3.6085  -24.7312 H   0  0  0  0  0  0  0  0  0  0  0  0
   -7.1031   -4.4659  -23.5108 H   0  0  0  0  0  0  0  0  0  0  0  0
  1  2  1  0
  2  3  1  0
  3  4  1  0
  4  5  1  0
  5  6  2  0
  6  7  1  0
  7  8  2  0
  8  9  1  0
  9 10  2  0
 10 11  1  0
 11 12  2  0
 12 13  1  0
 13 14  2  0
 13 15  1  0
 12 16  1  0
 11 17  1  0
 10 18  1  0
  8 19  1  0
  6 20  1  0
  4 21  1  0
 21 22  2  0
 21 23  1  0
 23 24  1  6
 24 25  1  0
 25 26  1  0
 26 27  1  0
 27 28  2  0
 28 29  1  0
 29 30  2  0
 30 31  1  0
 31 32  2  0
 31 33  1  0
 30 34  1  0
 29 35  1  0
 26 36  1  0
 26 37  1  0
 25 38  1  0
 38 39  2  0
 38 40  1  0
 40 41  2  0
 41 42  1  0
 42 43  2  0
 43 44  1  0
 43 45  1  0
 45 46  2  0
 45 47  1  0
 42 48  1  0
 41 49  1  0
 24 50  1  0
 24 51  1  0
  3 52  1  0
  3 53  1  0
  2 54  1  1
  1 55  1  0
  1 56  1  0
  1 57  1  0
 23  2  1  0
 32 27  1  0
 46 40  1  0
 14  5  1  0
 46 23  1  0
 14  9  1  0
M  END
>  <cnnaffinities>  (54) 
[5.59669, 5.68315, 5.6819]

>  <score>  (54) 
5.59669

>  <index>  (54) 
56

>  <Smiles>  (54) 
C([C@]1(C(N(c2c(nc(c3c(c(c(c(c23)[H])[H])[H])[H])[H])[H])C(=O)[C@]21C(N(C(c1nc(c(c(n1)[H])[H])[H])([H])[H])C(=O)c1c(c(c(F)c(c21)[H])[H])[H])([H])[H])([H])[H])[H])([H])([H])[H]

>  <h>  (54) 
<NA>

>  <Training>  (54) 
True

>  <Success>  (54) 
True

>  <enamine_searched>  (54) 
False

>  <enamine_id>  (54) 
nan

$$$$

     RDKit          3D

 59 63  0  0  0  0  0  0  0  0999 V2000
  -14.5344   -1.0177  -23.0752 C   0  0  0  0  0  0  0  0  0  0  0  0
  -13.6028   -2.0685  -22.7220 N   0  0  0  0  0  0  0  0  0  0  0  0
  -13.4090   -2.5566  -21.4638 C   0  0  0  0  0  0  0  0  0  0  0  0
  -13.9757   -2.1449  -20.4596 O   0  0  0  0  0  0  0  0  0  0  0  0
  -12.4796   -3.7891  -21.4460 C   0  0  0  0  0  0  0  0  0  0  0  0
  -11.1771   -3.7152  -22.1148 N   0  0  0  0  0  0  0  0  0  0  0  0
   -9.9881   -3.2482  -21.3952 C   0  0  0  0  0  0  0  0  0  0  0  0
   -8.7928   -2.8962  -22.3283 C   0  0  2  0  0  0  0  0  0  0  0  0
   -7.5438   -2.6118  -21.4580 C   0  0  0  0  0  0  0  0  0  0  0  0
   -6.7453   -3.4016  -20.9950 O   0  0  0  0  0  0  0  0  0  0  0  0
   -7.4133   -1.2483  -21.2805 N   0  0  0  0  0  0  0  0  0  0  0  0
   -6.6481   -0.7317  -20.2052 C   0  0  0  0  0  0  0  0  0  0  0  0
   -6.9182   -1.0848  -18.9045 C   0  0  0  0  0  0  0  0  0  0  0  0
   -6.2362   -0.6074  -17.8336 N   0  0  0  0  0  0  0  0  0  0  0  0
   -5.2301    0.2009  -18.0657 C   0  0  0  0  0  0  0  0  0  0  0  0
   -4.8154    0.6069  -19.3656 C   0  0  0  0  0  0  0  0  0  0  0  0
   -3.6886    1.4440  -19.5755 C   0  0  0  0  0  0  0  0  0  0  0  0
   -3.3541    1.8444  -20.8400 C   0  0  0  0  0  0  0  0  0  0  0  0
   -4.1473    1.4600  -21.9465 C   0  0  0  0  0  0  0  0  0  0  0  0
   -5.2398    0.6468  -21.7676 C   0  0  0  0  0  0  0  0  0  0  0  0
   -5.5765    0.1748  -20.4716 C   0  0  0  0  0  0  0  0  0  0  0  0
   -5.8452    0.3382  -22.6147 H   0  0  0  0  0  0  0  0  0  0  0  0
   -3.8711    1.7805  -22.9473 H   0  0  0  0  0  0  0  0  0  0  0  0
   -2.4721    2.4579  -21.0068 H   0  0  0  0  0  0  0  0  0  0  0  0
   -3.1097    1.7535  -18.7090 H   0  0  0  0  0  0  0  0  0  0  0  0
   -4.6881    0.5878  -17.2027 H   0  0  0  0  0  0  0  0  0  0  0  0
   -7.7151   -1.7891  -18.6702 H   0  0  0  0  0  0  0  0  0  0  0  0
   -8.4571   -0.4955  -21.9475 C   0  0  0  0  0  0  0  0  0  0  0  0
   -9.0093   -1.4642  -23.0245 C   0  0  0  0  0  0  0  0  0  0  0  0
  -10.4575   -1.0812  -23.3438 C   0  0  0  0  0  0  0  0  0  0  0  0
  -11.0878   -1.0565  -22.4508 H   0  0  0  0  0  0  0  0  0  0  0  0
  -10.8951   -1.7740  -24.0684 H   0  0  0  0  0  0  0  0  0  0  0  0
  -10.4929   -0.0804  -23.7860 H   0  0  0  0  0  0  0  0  0  0  0  0
   -8.2060   -1.3845  -24.3301 C   0  0  0  0  0  0  0  0  0  0  0  0
   -8.6056   -2.1052  -25.0517 H   0  0  0  0  0  0  0  0  0  0  0  0
   -8.2856   -0.3875  -24.7743 H   0  0  0  0  0  0  0  0  0  0  0  0
   -7.1495   -1.6270  -24.1750 H   0  0  0  0  0  0  0  0  0  0  0  0
   -8.0794    0.4448  -22.3603 H   0  0  0  0  0  0  0  0  0  0  0  0
   -9.2503   -0.2117  -21.2386 H   0  0  0  0  0  0  0  0  0  0  0  0
   -8.5714   -4.0789  -23.2523 C   0  0  0  0  0  0  0  0  0  0  0  0
   -7.2960   -4.4474  -23.7212 C   0  0  0  0  0  0  0  0  0  0  0  0
   -7.1753   -5.4665  -24.6524 C   0  0  0  0  0  0  0  0  0  0  0  0
   -5.5987   -5.9099  -25.2514 Cl  0  0  0  0  0  0  0  0  0  0  0  0
   -8.2916   -6.1651  -25.1145 C   0  0  0  0  0  0  0  0  0  0  0  0
   -9.5428   -5.8108  -24.6450 C   0  0  0  0  0  0  0  0  0  0  0  0
   -9.6866   -4.7772  -23.7245 C   0  0  0  0  0  0  0  0  0  0  0  0
  -11.0663   -4.4414  -23.2730 C   0  0  0  0  0  0  0  0  0  0  0  0
  -12.0496   -4.7949  -23.9108 O   0  0  0  0  0  0  0  0  0  0  0  0
  -10.4396   -6.3228  -24.9786 H   0  0  0  0  0  0  0  0  0  0  0  0
   -8.1712   -6.9717  -25.8302 H   0  0  0  0  0  0  0  0  0  0  0  0
   -6.4051   -3.9569  -23.3389 H   0  0  0  0  0  0  0  0  0  0  0  0
  -10.2406   -2.3416  -20.8437 H   0  0  0  0  0  0  0  0  0  0  0  0
   -9.6406   -3.9892  -20.6642 H   0  0  0  0  0  0  0  0  0  0  0  0
  -12.3729   -4.1362  -20.4187 H   0  0  0  0  0  0  0  0  0  0  0  0
  -13.0554   -4.5366  -22.0088 H   0  0  0  0  0  0  0  0  0  0  0  0
  -13.3101   -2.6773  -23.4756 H   0  0  0  0  0  0  0  0  0  0  0  0
  -14.0254   -0.0601  -23.1980 H   0  0  0  0  0  0  0  0  0  0  0  0
  -14.9861   -1.2733  -24.0328 H   0  0  0  0  0  0  0  0  0  0  0  0
  -15.3146   -0.9100  -22.3228 H   0  0  0  0  0  0  0  0  0  0  0  0
  1  2  1  0
  2  3  1  0
  3  4  2  0
  3  5  1  0
  5  6  1  0
  6  7  1  0
  8  7  1  1
  8  9  1  0
  9 10  2  0
  9 11  1  0
 11 12  1  0
 12 13  2  0
 13 14  1  0
 14 15  2  0
 15 16  1  0
 16 17  2  0
 17 18  1  0
 18 19  2  0
 19 20  1  0
 20 21  2  0
 20 22  1  0
 19 23  1  0
 18 24  1  0
 17 25  1  0
 15 26  1  0
 13 27  1  0
 11 28  1  0
 28 29  1  0
 29 30  1  0
 30 31  1  0
 30 32  1  0
 30 33  1  0
 29 34  1  0
 34 35  1  0
 34 36  1  0
 34 37  1  0
 28 38  1  0
 28 39  1  0
  8 40  1  0
 40 41  2  0
 41 42  1  0
 42 43  1  0
 42 44  2  0
 44 45  1  0
 45 46  2  0
 46 47  1  0
 47 48  2  0
 45 49  1  0
 44 50  1  0
 41 51  1  0
  7 52  1  0
  7 53  1  0
  5 54  1  0
  5 55  1  0
  2 56  1  0
  1 57  1  0
  1 58  1  0
  1 59  1  0
 47  6  1  0
 29  8  1  0
 46 40  1  0
 21 12  1  0
 21 16  1  0
M  END
>  <cnnaffinities>  (55) 
[6.43241]

>  <score>  (55) 
6.43241

>  <index>  (55) 
57

>  <Smiles>  (55) 
C(N(C(=O)C(N1C([C@@]2(C(=O)N(c3c(nc(c4c(c(c(c(c34)[H])[H])[H])[H])[H])[H])C(C2(C([H])([H])[H])C([H])([H])[H])([H])[H])c2c(c(Cl)c(c(c2C1=O)[H])[H])[H])([H])[H])([H])[H])[H])([H])([H])[H]

>  <h>  (55) 
<NA>

>  <Training>  (55) 
True

>  <Success>  (55) 
True

>  <enamine_searched>  (55) 
False

>  <enamine_id>  (55) 
nan

$$$$

     RDKit          3D

 42 45  0  0  0  0  0  0  0  0999 V2000
  -10.8191   -3.7889  -21.7204 C   0  0  0  0  0  0  0  0  0  0  0  0
   -9.8400   -3.2183  -22.6374 N   0  0  0  0  0  0  0  0  0  0  0  0
  -10.0012   -1.8811  -23.1870 C   0  0  0  0  0  0  0  0  0  0  0  0
   -8.6461   -1.2002  -23.4802 C   0  0  1  0  0  0  0  0  0  0  0  0
   -8.1205   -0.5295  -22.1905 C   0  0  0  0  0  0  0  0  0  0  0  0
   -8.3614    0.6381  -21.9473 O   0  0  0  0  0  0  0  0  0  0  0  0
   -7.3888   -1.3047  -21.3292 N   0  0  0  0  0  0  0  0  0  0  0  0
   -6.6586   -0.7399  -20.2508 C   0  0  0  0  0  0  0  0  0  0  0  0
   -6.9463   -1.0966  -18.9579 C   0  0  0  0  0  0  0  0  0  0  0  0
   -6.2811   -0.6380  -17.8656 N   0  0  0  0  0  0  0  0  0  0  0  0
   -5.2767    0.1831  -18.0664 C   0  0  0  0  0  0  0  0  0  0  0  0
   -4.8444    0.6018  -19.3566 C   0  0  0  0  0  0  0  0  0  0  0  0
   -3.7130    1.4424  -19.5324 C   0  0  0  0  0  0  0  0  0  0  0  0
   -3.3611    1.8868  -20.7797 C   0  0  0  0  0  0  0  0  0  0  0  0
   -4.1318    1.5140  -21.9031 C   0  0  0  0  0  0  0  0  0  0  0  0
   -5.2137    0.6862  -21.7634 C   0  0  0  0  0  0  0  0  0  0  0  0
   -5.5815    0.1761  -20.4831 C   0  0  0  0  0  0  0  0  0  0  0  0
   -5.7856    0.3999  -22.6385 H   0  0  0  0  0  0  0  0  0  0  0  0
   -3.8527    1.8811  -22.8869 H   0  0  0  0  0  0  0  0  0  0  0  0
   -2.4872    2.5161  -20.9142 H   0  0  0  0  0  0  0  0  0  0  0  0
   -3.1516    1.7315  -18.6501 H   0  0  0  0  0  0  0  0  0  0  0  0
   -4.7289    0.5495  -17.1945 H   0  0  0  0  0  0  0  0  0  0  0  0
   -7.7641   -1.7851  -18.7389 H   0  0  0  0  0  0  0  0  0  0  0  0
   -7.4499   -2.3139  -21.3857 H   0  0  0  0  0  0  0  0  0  0  0  0
   -7.7122   -2.1484  -24.2004 C   0  0  0  0  0  0  0  0  0  0  0  0
   -6.7304   -1.6958  -25.0940 C   0  0  0  0  0  0  0  0  0  0  0  0
   -5.9017   -2.6062  -25.7316 C   0  0  0  0  0  0  0  0  0  0  0  0
   -4.6983   -2.0479  -26.8617 Cl  0  0  0  0  0  0  0  0  0  0  0  0
   -6.0171   -3.9729  -25.5021 C   0  0  0  0  0  0  0  0  0  0  0  0
   -6.9742   -4.4209  -24.6143 C   0  0  0  0  0  0  0  0  0  0  0  0
   -7.8191   -3.5179  -23.9717 C   0  0  0  0  0  0  0  0  0  0  0  0
   -8.8357   -4.0620  -23.0166 C   0  0  0  0  0  0  0  0  0  0  0  0
   -8.7592   -5.2066  -22.5823 O   0  0  0  0  0  0  0  0  0  0  0  0
   -7.1030   -5.4809  -24.4288 H   0  0  0  0  0  0  0  0  0  0  0  0
   -5.3525   -4.6621  -26.0049 H   0  0  0  0  0  0  0  0  0  0  0  0
   -6.6160   -0.6417  -25.3261 H   0  0  0  0  0  0  0  0  0  0  0  0
   -8.8285   -0.3308  -24.1147 H   0  0  0  0  0  0  0  0  0  0  0  0
  -10.5295   -1.2629  -22.4506 H   0  0  0  0  0  0  0  0  0  0  0  0
  -10.6055   -1.9153  -24.1055 H   0  0  0  0  0  0  0  0  0  0  0  0
  -11.3626   -4.6164  -22.1858 H   0  0  0  0  0  0  0  0  0  0  0  0
  -10.2849   -4.2033  -20.8624 H   0  0  0  0  0  0  0  0  0  0  0  0
  -11.5338   -3.0319  -21.3856 H   0  0  0  0  0  0  0  0  0  0  0  0
  1  2  1  0
  2  3  1  0
  3  4  1  0
  4  5  1  0
  5  6  2  0
  5  7  1  0
  7  8  1  0
  8  9  2  0
  9 10  1  0
 10 11  2  0
 11 12  1  0
 12 13  2  0
 13 14  1  0
 14 15  2  0
 15 16  1  0
 16 17  2  0
 16 18  1  0
 15 19  1  0
 14 20  1  0
 13 21  1  0
 11 22  1  0
  9 23  1  0
  7 24  1  0
  4 25  1  0
 25 26  2  0
 26 27  1  0
 27 28  1  0
 27 29  2  0
 29 30  1  0
 30 31  2  0
 31 32  1  0
 32 33  2  0
 30 34  1  0
 29 35  1  0
 26 36  1  0
  4 37  1  6
  3 38  1  0
  3 39  1  0
  1 40  1  0
  1 41  1  0
  1 42  1  0
 32  2  1  0
 17  8  1  0
 31 25  1  0
 17 12  1  0
M  END
>  <cnnaffinities>  (56) 
[4.96665]

>  <score>  (56) 
4.96665

>  <index>  (56) 
58

>  <Smiles>  (56) 
C(N1C([C@@](C(=O)N(c2c(nc(c3c(c(c(c(c23)[H])[H])[H])[H])[H])[H])[H])(c2c(c(Cl)c(c(c2C1=O)[H])[H])[H])[H])([H])[H])([H])([H])[H]

>  <h>  (56) 
<NA>

>  <Training>  (56) 
True

>  <Success>  (56) 
True

>  <enamine_searched>  (56) 
False

>  <enamine_id>  (56) 
nan

$$$$

     RDKit          3D

 60 65  0  0  0  0  0  0  0  0999 V2000
  -10.2958    1.2864  -28.3970 C   0  0  0  0  0  0  0  0  0  0  0  0
  -10.2877    1.2412  -26.9536 N   0  0  0  0  0  0  0  0  0  0  0  0
   -9.1444    1.2418  -26.2309 C   0  0  0  0  0  0  0  0  0  0  0  0
   -8.0200    1.1883  -26.7105 O   0  0  0  0  0  0  0  0  0  0  0  0
   -9.4198    1.3132  -24.7256 C   0  0  0  0  0  0  0  0  0  0  0  0
  -10.0038    0.0819  -24.2212 N   0  0  0  0  0  0  0  0  0  0  0  0
   -9.1462   -1.0780  -24.0411 C   0  0  0  0  0  0  0  0  0  0  0  0
   -9.4372   -1.8299  -22.7109 C   0  0  2  0  0  0  0  0  0  0  0  0
   -8.9084   -0.9585  -21.5339 C   0  0  0  0  0  0  0  0  0  0  0  0
   -9.4892   -0.0739  -20.9514 O   0  0  0  0  0  0  0  0  0  0  0  0
   -7.6126   -1.3519  -21.2740 N   0  0  0  0  0  0  0  0  0  0  0  0
   -6.8624   -0.7716  -20.2264 C   0  0  0  0  0  0  0  0  0  0  0  0
   -7.1290   -1.1292  -18.9300 C   0  0  0  0  0  0  0  0  0  0  0  0
   -6.3855   -0.7397  -17.8674 N   0  0  0  0  0  0  0  0  0  0  0  0
   -5.3558    0.0352  -18.1002 C   0  0  0  0  0  0  0  0  0  0  0  0
   -4.9971    0.5228  -19.3881 C   0  0  0  0  0  0  0  0  0  0  0  0
   -3.8888    1.3869  -19.5769 C   0  0  0  0  0  0  0  0  0  0  0  0
   -3.6167    1.8997  -20.8147 C   0  0  0  0  0  0  0  0  0  0  0  0
   -4.4360    1.5690  -21.9159 C   0  0  0  0  0  0  0  0  0  0  0  0
   -5.4958    0.7075  -21.7627 C   0  0  0  0  0  0  0  0  0  0  0  0
   -5.7935    0.1463  -20.4919 C   0  0  0  0  0  0  0  0  0  0  0  0
   -6.1190    0.4481  -22.6136 H   0  0  0  0  0  0  0  0  0  0  0  0
   -4.2236    2.0033  -22.8878 H   0  0  0  0  0  0  0  0  0  0  0  0
   -2.7726    2.5691  -20.9555 H   0  0  0  0  0  0  0  0  0  0  0  0
   -3.2816    1.6391  -18.7116 H   0  0  0  0  0  0  0  0  0  0  0  0
   -4.7510    0.3258  -17.2415 H   0  0  0  0  0  0  0  0  0  0  0  0
   -7.9736   -1.7781  -18.7071 H   0  0  0  0  0  0  0  0  0  0  0  0
   -7.1934   -2.5074  -22.0367 C   0  0  0  0  0  0  0  0  0  0  0  0
   -8.5194   -3.0797  -22.5580 C   0  0  2  0  0  0  0  0  0  0  0  0
   -8.2680   -3.9963  -23.7709 C   0  0  0  0  0  0  0  0  0  0  0  0
   -7.2768   -5.0664  -23.4159 C   0  0  0  0  0  0  0  0  0  0  0  0
   -5.9766   -4.9677  -23.6722 N   0  0  0  0  0  0  0  0  0  0  0  0
   -5.4371   -6.0571  -23.1306 N   0  0  0  0  0  0  0  0  0  0  0  0
   -6.3790   -6.7766  -22.5802 N   0  0  0  0  0  2  0  0  0  0  0  0
   -7.5549   -6.1753  -22.7472 N   0  0  0  0  0  0  0  0  0  0  0  0
   -7.8144   -3.4334  -24.5921 H   0  0  0  0  0  0  0  0  0  0  0  0
   -9.1935   -4.4598  -24.1208 H   0  0  0  0  0  0  0  0  0  0  0  0
   -8.9584   -3.6854  -21.7571 H   0  0  0  0  0  0  0  0  0  0  0  0
   -6.6469   -3.2423  -21.4371 H   0  0  0  0  0  0  0  0  0  0  0  0
   -6.5420   -2.2275  -22.8810 H   0  0  0  0  0  0  0  0  0  0  0  0
  -10.9396   -2.0177  -22.5734 C   0  0  0  0  0  0  0  0  0  0  0  0
  -11.5171   -3.0134  -21.7713 C   0  0  0  0  0  0  0  0  0  0  0  0
  -12.8526   -2.9269  -21.4113 C   0  0  0  0  0  0  0  0  0  0  0  0
  -13.5526   -4.1127  -20.3620 Cl  0  0  0  0  0  0  0  0  0  0  0  0
  -13.6630   -1.8752  -21.8264 C   0  0  0  0  0  0  0  0  0  0  0  0
  -13.1301   -0.9533  -22.6931 C   0  0  0  0  0  0  0  0  0  0  0  0
  -11.8063   -1.0458  -23.1030 C   0  0  0  0  0  0  0  0  0  0  0  0
  -11.3488   -0.0224  -24.0911 C   0  0  0  0  0  0  0  0  0  0  0  0
  -12.1273    0.7077  -24.7097 O   0  0  0  0  0  0  0  0  0  0  0  0
  -13.7111   -0.1180  -23.0580 H   0  0  0  0  0  0  0  0  0  0  0  0
  -14.6809   -1.7947  -21.4662 H   0  0  0  0  0  0  0  0  0  0  0  0
  -10.9418   -3.8482  -21.3862 H   0  0  0  0  0  0  0  0  0  0  0  0
   -8.1186   -0.7045  -24.0555 H   0  0  0  0  0  0  0  0  0  0  0  0
   -9.2648   -1.7780  -24.8803 H   0  0  0  0  0  0  0  0  0  0  0  0
   -8.4785    1.4794  -24.2044 H   0  0  0  0  0  0  0  0  0  0  0  0
  -10.1147    2.1331  -24.4977 H   0  0  0  0  0  0  0  0  0  0  0  0
  -11.1592    1.2276  -26.4374 H   0  0  0  0  0  0  0  0  0  0  0  0
  -10.3879    0.2920  -28.8529 H   0  0  0  0  0  0  0  0  0  0  0  0
   -9.3588    1.7253  -28.7462 H   0  0  0  0  0  0  0  0  0  0  0  0
  -11.1265    1.9136  -28.7372 H   0  0  0  0  0  0  0  0  0  0  0  0
  1  2  1  0
  2  3  1  0
  3  4  2  0
  3  5  1  0
  5  6  1  0
  6  7  1  0
  8  7  1  6
  8  9  1  0
  9 10  2  0
  9 11  1  0
 11 12  1  0
 12 13  2  0
 13 14  1  0
 14 15  2  0
 15 16  1  0
 16 17  2  0
 17 18  1  0
 18 19  2  0
 19 20  1  0
 20 21  2  0
 20 22  1  0
 19 23  1  0
 18 24  1  0
 17 25  1  0
 15 26  1  0
 13 27  1  0
 11 28  1  0
 28 29  1  0
 29 30  1  0
 30 31  1  0
 31 32  1  0
 32 33  2  0
 33 34  1  0
 34 35  1  0
 30 36  1  0
 30 37  1  0
 29 38  1  1
 28 39  1  0
 28 40  1  0
  8 41  1  0
 41 42  2  0
 42 43  1  0
 43 44  1  0
 43 45  2  0
 45 46  1  0
 46 47  2  0
 47 48  1  0
 48 49  2  0
 46 50  1  0
 45 51  1  0
 42 52  1  0
  7 53  1  0
  7 54  1  0
  5 55  1  0
  5 56  1  0
  2 57  1  0
  1 58  1  0
  1 59  1  0
  1 60  1  0
 48  6  1  0
 29  8  1  0
 35 31  2  0
 47 41  1  0
 21 12  1  0
 21 16  1  0
M  CHG  1  34  -1
M  END
>  <cnnaffinities>  (57) 
[6.50215]

>  <score>  (57) 
6.50215

>  <index>  (57) 
59

>  <Smiles>  (57) 
C(N(C(=O)C(N1C([C@@]2(C(=O)N(c3c(nc(c4c(c(c(c(c34)[H])[H])[H])[H])[H])[H])C([C@@]2(C(c2nn[n-]n2)([H])[H])[H])([H])[H])c2c(c(Cl)c(c(c2C1=O)[H])[H])[H])([H])[H])([H])[H])[H])([H])([H])[H]

>  <h>  (57) 
<NA>

>  <Training>  (57) 
True

>  <Success>  (57) 
True

>  <enamine_searched>  (57) 
False

>  <enamine_id>  (57) 
nan

$$$$

     RDKit          3D

 62 67  0  0  0  0  0  0  0  0999 V2000
  -11.4284    2.5471  -22.0979 C   0  0  0  0  0  0  0  0  0  0  0  0
  -10.4553    3.2819  -23.0117 C   0  0  0  0  0  0  0  0  0  0  0  0
   -9.1467    2.6871  -23.2728 N   0  0  0  0  0  0  0  0  0  0  0  0
   -6.9361    2.8411  -23.5337 N   0  0  0  0  0  0  0  0  0  0  0  0
   -7.9637    3.1998  -22.8095 C   0  0  0  0  0  0  0  0  0  0  0  0
   -7.4651    2.0736  -24.5409 C   0  0  0  0  0  0  0  0  0  0  0  0
   -8.8178    1.9426  -24.3928 C   0  0  0  0  0  0  0  0  0  0  0  0
   -9.8154    1.1369  -25.1374 C   0  0  0  0  0  0  0  0  0  0  0  0
  -10.2775   -0.0095  -24.3646 N   0  0  0  0  0  0  0  0  0  0  0  0
   -9.3218   -1.0744  -24.1378 C   0  0  0  0  0  0  0  0  0  0  0  0
   -9.4816   -1.7558  -22.7577 C   0  0  2  0  0  0  0  0  0  0  0  0
   -8.9946   -0.8198  -21.6049 C   0  0  0  0  0  0  0  0  0  0  0  0
   -9.6176    0.0652  -21.0617 O   0  0  0  0  0  0  0  0  0  0  0  0
   -7.6975   -1.1609  -21.2923 N   0  0  0  0  0  0  0  0  0  0  0  0
   -6.9677   -0.6161  -20.2100 C   0  0  0  0  0  0  0  0  0  0  0  0
   -7.2301   -1.0019  -18.9202 C   0  0  0  0  0  0  0  0  0  0  0  0
   -6.4513   -0.6721  -17.8597 N   0  0  0  0  0  0  0  0  0  0  0  0
   -5.3879    0.0612  -18.0818 C   0  0  0  0  0  0  0  0  0  0  0  0
   -5.0257    0.5667  -19.3600 C   0  0  0  0  0  0  0  0  0  0  0  0
   -3.8966    1.4043  -19.5588 C   0  0  0  0  0  0  0  0  0  0  0  0
   -3.6485    1.9510  -20.7880 C   0  0  0  0  0  0  0  0  0  0  0  0
   -4.5037    1.6692  -21.8777 C   0  0  0  0  0  0  0  0  0  0  0  0
   -5.5671    0.8140  -21.7174 C   0  0  0  0  0  0  0  0  0  0  0  0
   -5.8538    0.2436  -20.4544 C   0  0  0  0  0  0  0  0  0  0  0  0
   -6.2371    0.6218  -22.5501 H   0  0  0  0  0  0  0  0  0  0  0  0
   -4.3436    2.1432  -22.8408 H   0  0  0  0  0  0  0  0  0  0  0  0
   -2.8069    2.6257  -20.9236 H   0  0  0  0  0  0  0  0  0  0  0  0
   -3.2582    1.6206  -18.7055 H   0  0  0  0  0  0  0  0  0  0  0  0
   -4.7564    0.3041  -17.2265 H   0  0  0  0  0  0  0  0  0  0  0  0
   -8.0909   -1.6307  -18.7024 H   0  0  0  0  0  0  0  0  0  0  0  0
   -7.1738   -2.2208  -22.1230 C   0  0  0  0  0  0  0  0  0  0  0  0
   -8.4517   -2.9172  -22.6250 C   0  0  2  0  0  0  0  0  0  0  0  0
   -8.1815   -3.7555  -23.8687 C   0  0  0  0  0  0  0  0  0  0  0  0
   -7.6756   -3.1523  -24.6324 H   0  0  0  0  0  0  0  0  0  0  0  0
   -9.1048   -4.1478  -24.3082 H   0  0  0  0  0  0  0  0  0  0  0  0
   -7.5217   -4.5969  -23.6330 H   0  0  0  0  0  0  0  0  0  0  0  0
   -8.7994   -3.5676  -21.8135 H   0  0  0  0  0  0  0  0  0  0  0  0
   -6.5148   -2.8813  -21.5510 H   0  0  0  0  0  0  0  0  0  0  0  0
   -6.5923   -1.8135  -22.9700 H   0  0  0  0  0  0  0  0  0  0  0  0
  -10.9520   -2.0806  -22.5688 C   0  0  0  0  0  0  0  0  0  0  0  0
  -11.4037   -3.1467  -21.7788 C   0  0  0  0  0  0  0  0  0  0  0  0
  -12.7016   -3.1281  -21.3018 C   0  0  0  0  0  0  0  0  0  0  0  0
  -13.1126   -4.0916  -20.4605 F   0  0  0  0  0  0  0  0  0  0  0  0
  -13.6046   -2.1150  -21.6088 C   0  0  0  0  0  0  0  0  0  0  0  0
  -13.2094   -1.1556  -22.5134 C   0  0  0  0  0  0  0  0  0  0  0  0
  -11.9194   -1.1757  -23.0395 C   0  0  0  0  0  0  0  0  0  0  0  0
  -11.6015   -0.1671  -24.1004 C   0  0  0  0  0  0  0  0  0  0  0  0
  -12.4759    0.5208  -24.6217 O   0  0  0  0  0  0  0  0  0  0  0  0
  -13.8842   -0.3671  -22.8312 H   0  0  0  0  0  0  0  0  0  0  0  0
  -14.5908   -2.1188  -21.1580 H   0  0  0  0  0  0  0  0  0  0  0  0
  -10.7641   -3.9785  -21.5034 H   0  0  0  0  0  0  0  0  0  0  0  0
   -8.3206   -0.6472  -24.2205 H   0  0  0  0  0  0  0  0  0  0  0  0
   -9.4351   -1.8377  -24.9191 H   0  0  0  0  0  0  0  0  0  0  0  0
  -10.6993    1.7289  -25.3908 H   0  0  0  0  0  0  0  0  0  0  0  0
   -9.3434    0.7958  -26.0650 H   0  0  0  0  0  0  0  0  0  0  0  0
   -6.8459    1.6485  -25.3206 H   0  0  0  0  0  0  0  0  0  0  0  0
   -7.9511    3.8669  -21.9546 H   0  0  0  0  0  0  0  0  0  0  0  0
  -10.9699    3.4200  -23.9701 H   0  0  0  0  0  0  0  0  0  0  0  0
  -10.2699    4.2761  -22.5936 H   0  0  0  0  0  0  0  0  0  0  0  0
  -11.0335    2.2713  -21.1176 H   0  0  0  0  0  0  0  0  0  0  0  0
  -12.2743    3.2354  -21.9702 H   0  0  0  0  0  0  0  0  0  0  0  0
  -11.7968    1.6318  -22.5596 H   0  0  0  0  0  0  0  0  0  0  0  0
  1  2  1  0
  2  3  1  0
  3  4  1  0
  4  5  2  0
  5  6  1  0
  6  7  2  0
  7  8  1  0
  8  9  1  0
  9 10  1  0
 11 10  1  6
 11 12  1  0
 12 13  2  0
 12 14  1  0
 14 15  1  0
 15 16  2  0
 16 17  1  0
 17 18  2  0
 18 19  1  0
 19 20  2  0
 20 21  1  0
 21 22  2  0
 22 23  1  0
 23 24  2  0
 23 25  1  0
 22 26  1  0
 21 27  1  0
 20 28  1  0
 18 29  1  0
 16 30  1  0
 14 31  1  0
 31 32  1  0
 32 33  1  0
 33 34  1  0
 33 35  1  0
 33 36  1  0
 32 37  1  1
 31 38  1  0
 31 39  1  0
 11 40  1  0
 40 41  2  0
 41 42  1  0
 42 43  1  0
 42 44  2  0
 44 45  1  0
 45 46  2  0
 46 47  1  0
 47 48  2  0
 45 49  1  0
 44 50  1  0
 41 51  1  0
 10 52  1  0
 10 53  1  0
  8 54  1  0
  8 55  1  0
  6 56  1  0
  5 57  1  0
  2 58  1  0
  2 59  1  0
  1 60  1  0
  1 61  1  0
  1 62  1  0
  7  3  1  0
 47  9  1  0
 32 11  1  0
 46 40  1  0
 24 15  1  0
 24 19  1  0
M  END
>  <cnnaffinities>  (58) 
[6.60031]

>  <score>  (58) 
6.60031

>  <index>  (58) 
60

>  <Smiles>  (58) 
C(C(n1nc(c(c1C(N1C([C@@]2(C(=O)N(c3c(nc(c4c(c(c(c(c34)[H])[H])[H])[H])[H])[H])C([C@@]2(C([H])([H])[H])[H])([H])[H])c2c(c(F)c(c(c2C1=O)[H])[H])[H])([H])[H])([H])[H])[H])[H])([H])[H])([H])([H])[H]

>  <h>  (58) 
<NA>

>  <Training>  (58) 
True

>  <Success>  (58) 
True

>  <enamine_searched>  (58) 
False

>  <enamine_id>  (58) 
nan

$$$$

     RDKit          3D

 44 47  0  0  0  0  0  0  0  0999 V2000
   -9.0496    0.3355  -21.1197 O   0  0  0  0  0  0  0  0  0  0  0  0
   -8.3586   -0.3328  -21.8680 C   0  0  0  0  0  0  0  0  0  0  0  0
   -7.4327   -1.4152  -21.2762 C   0  0  0  0  0  0  0  0  0  0  0  0
   -6.5691   -0.8365  -20.1740 C   0  0  0  0  0  0  0  0  0  0  0  0
   -6.8759   -1.0412  -18.8526 C   0  0  0  0  0  0  0  0  0  0  0  0
   -6.1904   -0.5359  -17.7922 N   0  0  0  0  0  0  0  0  0  0  0  0
   -5.1551    0.2219  -18.0598 C   0  0  0  0  0  0  0  0  0  0  0  0
   -4.7211    0.5355  -19.3775 C   0  0  0  0  0  0  0  0  0  0  0  0
   -3.5978    1.3686  -19.6162 C   0  0  0  0  0  0  0  0  0  0  0  0
   -3.2256    1.6907  -20.8943 C   0  0  0  0  0  0  0  0  0  0  0  0
   -3.9965    1.2263  -21.9833 C   0  0  0  0  0  0  0  0  0  0  0  0
   -5.0770    0.3968  -21.7783 C   0  0  0  0  0  0  0  0  0  0  0  0
   -5.4602    0.0141  -20.4669 C   0  0  0  0  0  0  0  0  0  0  0  0
   -5.5675   -0.0618  -22.6343 H   0  0  0  0  0  0  0  0  0  0  0  0
   -3.6303    1.3953  -22.9920 H   0  0  0  0  0  0  0  0  0  0  0  0
   -2.3472    2.3057  -21.0838 H   0  0  0  0  0  0  0  0  0  0  0  0
   -3.0570    1.7756  -18.7643 H   0  0  0  0  0  0  0  0  0  0  0  0
   -4.6005    0.6293  -17.2132 H   0  0  0  0  0  0  0  0  0  0  0  0
   -7.7296   -1.6612  -18.5823 H   0  0  0  0  0  0  0  0  0  0  0  0
   -6.8086   -1.8944  -22.0425 H   0  0  0  0  0  0  0  0  0  0  0  0
   -8.0787   -2.1893  -20.8451 H   0  0  0  0  0  0  0  0  0  0  0  0
   -8.3435   -0.1178  -23.2352 N   0  0  0  0  0  0  0  0  0  0  0  0
   -8.0803   -1.1535  -24.2226 C   0  0  0  0  0  0  0  0  0  0  0  0
   -8.9618   -0.9695  -25.4558 C   0  0  0  0  0  0  0  0  0  0  0  0
   -8.8547    0.4315  -26.0381 C   0  0  0  0  0  0  0  0  0  0  0  0
   -9.6597    0.6394  -27.3414 C   0  0  0  0  0  0  0  0  0  0  0  0
   -8.3584    0.9032  -28.1267 C   0  0  0  0  0  0  0  0  0  0  0  0
   -7.5491    0.6975  -26.8308 C   0  0  0  0  0  0  0  0  0  0  0  0
   -6.9876    1.5727  -26.4978 H   0  0  0  0  0  0  0  0  0  0  0  0
   -6.8550   -0.1452  -26.8513 H   0  0  0  0  0  0  0  0  0  0  0  0
   -8.1475    0.1790  -28.9165 H   0  0  0  0  0  0  0  0  0  0  0  0
   -8.2798    1.9028  -28.5596 H   0  0  0  0  0  0  0  0  0  0  0  0
  -10.2248   -0.2366  -27.6658 H   0  0  0  0  0  0  0  0  0  0  0  0
  -10.3564    1.4793  -27.3094 H   0  0  0  0  0  0  0  0  0  0  0  0
   -9.1555    1.4554  -24.9541 C   0  0  0  0  0  0  0  0  0  0  0  0
   -8.2787    1.2560  -23.7284 C   0  0  0  0  0  0  0  0  0  0  0  0
   -7.2384    1.5336  -23.9726 H   0  0  0  0  0  0  0  0  0  0  0  0
   -8.5949    1.9133  -22.9181 H   0  0  0  0  0  0  0  0  0  0  0  0
   -9.0127    2.4641  -25.3536 H   0  0  0  0  0  0  0  0  0  0  0  0
  -10.2125    1.3969  -24.6706 H   0  0  0  0  0  0  0  0  0  0  0  0
   -8.6857   -1.7037  -26.2171 H   0  0  0  0  0  0  0  0  0  0  0  0
  -10.0082   -1.1860  -25.2097 H   0  0  0  0  0  0  0  0  0  0  0  0
   -7.0214   -1.1749  -24.5303 H   0  0  0  0  0  0  0  0  0  0  0  0
   -8.2970   -2.1233  -23.7725 H   0  0  0  0  0  0  0  0  0  0  0  0
  1  2  2  0
  2  3  1  0
  3  4  1  0
  4  5  2  0
  5  6  1  0
  6  7  2  0
  7  8  1  0
  8  9  2  0
  9 10  1  0
 10 11  2  0
 11 12  1  0
 12 13  2  0
 12 14  1  0
 11 15  1  0
 10 16  1  0
  9 17  1  0
  7 18  1  0
  5 19  1  0
  3 20  1  0
  3 21  1  0
  2 22  1  0
 22 23  1  0
 23 24  1  0
 24 25  1  0
 25 26  1  0
 26 27  1  0
 27 28  1  0
 28 29  1  0
 28 30  1  0
 27 31  1  0
 27 32  1  0
 26 33  1  0
 26 34  1  0
 25 35  1  0
 35 36  1  0
 36 37  1  0
 36 38  1  0
 35 39  1  0
 35 40  1  0
 24 41  1  0
 24 42  1  0
 23 43  1  0
 23 44  1  0
 13  4  1  0
 36 22  1  0
 13  8  1  0
 28 25  1  0
M  END
>  <cnnaffinities>  (59) 
[4.83981, 5.03435, 5.03608, 5.03625, 5.03552]

>  <score>  (59) 
4.83981

>  <index>  (59) 
61

>  <Smiles>  (59) 
O=C(C(c1c(nc(c2c(c(c(c(c12)[H])[H])[H])[H])[H])[H])([H])[H])N1C(C(C2(C(C(C2([H])[H])([H])[H])([H])[H])C(C1([H])[H])([H])[H])([H])[H])([H])[H]

>  <h>  (59) 
<NA>

>  <Training>  (59) 
True

>  <Success>  (59) 
True

>  <enamine_searched>  (59) 
False

>  <enamine_id>  (59) 
nan

$$$$

     RDKit          3D

 44 47  0  0  0  0  0  0  0  0999 V2000
   -6.0185   -3.4803  -21.0398 O   0  0  0  0  0  0  0  0  0  0  0  0
   -6.4948   -2.6484  -21.7868 C   0  0  0  0  0  0  0  0  0  0  0  0
   -7.3675   -1.5006  -21.2648 C   0  0  0  0  0  0  0  0  0  0  0  0
   -6.6216   -0.7744  -20.1697 C   0  0  0  0  0  0  0  0  0  0  0  0
   -6.8958   -1.0395  -18.8538 C   0  0  0  0  0  0  0  0  0  0  0  0
   -6.1988   -0.5621  -17.7886 N   0  0  0  0  0  0  0  0  0  0  0  0
   -5.1837    0.2228  -18.0548 C   0  0  0  0  0  0  0  0  0  0  0  0
   -4.7808    0.5879  -19.3683 C   0  0  0  0  0  0  0  0  0  0  0  0
   -3.6361    1.3953  -19.5946 C   0  0  0  0  0  0  0  0  0  0  0  0
   -3.2612    1.7240  -20.8704 C   0  0  0  0  0  0  0  0  0  0  0  0
   -4.0377    1.2916  -21.9713 C   0  0  0  0  0  0  0  0  0  0  0  0
   -5.1240    0.4689  -21.7773 C   0  0  0  0  0  0  0  0  0  0  0  0
   -5.5209    0.0862  -20.4648 C   0  0  0  0  0  0  0  0  0  0  0  0
   -5.6810    0.1143  -22.6383 H   0  0  0  0  0  0  0  0  0  0  0  0
   -3.7524    1.5956  -22.9794 H   0  0  0  0  0  0  0  0  0  0  0  0
   -2.3727    2.3276  -21.0450 H   0  0  0  0  0  0  0  0  0  0  0  0
   -3.0516    1.7161  -18.7316 H   0  0  0  0  0  0  0  0  0  0  0  0
   -4.6135    0.6101  -17.2086 H   0  0  0  0  0  0  0  0  0  0  0  0
   -7.7336   -1.6910  -18.6029 H   0  0  0  0  0  0  0  0  0  0  0  0
   -7.6222   -0.8275  -22.0886 H   0  0  0  0  0  0  0  0  0  0  0  0
   -8.3039   -1.9178  -20.8727 H   0  0  0  0  0  0  0  0  0  0  0  0
   -6.1663   -2.6091  -23.1280 N   0  0  0  0  0  0  0  0  0  0  0  0
   -4.9288   -3.2838  -23.4874 C   0  0  0  0  0  0  0  0  0  0  0  0
   -4.2144   -2.4802  -24.5597 C   0  0  0  0  0  0  0  0  0  0  0  0
   -5.0962   -2.2398  -25.7832 C   0  0  0  0  0  0  0  0  0  0  0  0
   -4.4432   -1.3356  -26.8187 C   0  0  0  0  0  0  0  0  0  0  0  0
   -4.0229    0.0814  -26.5247 C   0  0  0  0  0  0  0  0  0  0  0  0
   -2.9909   -0.9591  -26.8458 C   0  0  0  0  0  0  0  0  0  0  0  0
   -2.5294   -0.9301  -27.8252 H   0  0  0  0  0  0  0  0  0  0  0  0
   -2.3228   -1.3045  -26.0612 H   0  0  0  0  0  0  0  0  0  0  0  0
   -4.0719    0.4743  -25.5114 H   0  0  0  0  0  0  0  0  0  0  0  0
   -4.2652    0.8286  -27.2710 H   0  0  0  0  0  0  0  0  0  0  0  0
   -4.8742   -1.4550  -27.8138 H   0  0  0  0  0  0  0  0  0  0  0  0
   -6.4358   -1.6287  -25.3516 C   0  0  0  0  0  0  0  0  0  0  0  0
   -7.0992   -2.4383  -24.2415 C   0  0  0  0  0  0  0  0  0  0  0  0
   -7.3786   -3.4317  -24.6335 H   0  0  0  0  0  0  0  0  0  0  0  0
   -8.0193   -1.9691  -23.8803 H   0  0  0  0  0  0  0  0  0  0  0  0
   -6.2213   -0.6218  -24.9740 H   0  0  0  0  0  0  0  0  0  0  0  0
   -7.1074   -1.5235  -26.2130 H   0  0  0  0  0  0  0  0  0  0  0  0
   -5.2978   -3.1999  -26.2730 H   0  0  0  0  0  0  0  0  0  0  0  0
   -3.9838   -1.4909  -24.1515 H   0  0  0  0  0  0  0  0  0  0  0  0
   -3.2665   -2.9607  -24.8292 H   0  0  0  0  0  0  0  0  0  0  0  0
   -5.1532   -4.3072  -23.8233 H   0  0  0  0  0  0  0  0  0  0  0  0
   -4.3427   -3.3640  -22.5679 H   0  0  0  0  0  0  0  0  0  0  0  0
  1  2  2  0
  2  3  1  0
  3  4  1  0
  4  5  2  0
  5  6  1  0
  6  7  2  0
  7  8  1  0
  8  9  2  0
  9 10  1  0
 10 11  2  0
 11 12  1  0
 12 13  2  0
 12 14  1  0
 11 15  1  0
 10 16  1  0
  9 17  1  0
  7 18  1  0
  5 19  1  0
  3 20  1  0
  3 21  1  0
  2 22  1  0
 22 23  1  0
 23 24  1  0
 24 25  1  0
 25 26  1  0
 26 27  1  0
 27 28  1  0
 28 29  1  0
 28 30  1  0
 27 31  1  0
 27 32  1  0
 26 33  1  0
 25 34  1  0
 34 35  1  0
 35 36  1  0
 35 37  1  0
 34 38  1  0
 34 39  1  0
 25 40  1  0
 24 41  1  0
 24 42  1  0
 23 43  1  0
 23 44  1  0
 13  4  1  0
 35 22  1  0
 13  8  1  0
 28 26  1  0
M  END
>  <cnnaffinities>  (60) 
[4.62109, 4.57815, 4.57823, 4.62964, 4.62978]

>  <score>  (60) 
4.62109

>  <index>  (60) 
62

>  <Smiles>  (60) 
O=C(C(c1c(nc(c2c(c(c(c(c12)[H])[H])[H])[H])[H])[H])([H])[H])N1C(C(C(C2(C(C2([H])[H])([H])[H])[H])(C(C1([H])[H])([H])[H])[H])([H])[H])([H])[H]

>  <h>  (60) 
<NA>

>  <Training>  (60) 
True

>  <Success>  (60) 
True

>  <enamine_searched>  (60) 
False

>  <enamine_id>  (60) 
nan

$$$$

     RDKit          3D

 57 61  0  0  0  0  0  0  0  0999 V2000
   -7.3522    3.4436  -21.8740 C   0  0  0  0  0  0  0  0  0  0  0  0
   -8.1790    2.9606  -22.9592 N   0  0  0  0  0  0  0  0  0  0  0  0
   -7.6130    2.2449  -23.9548 C   0  0  0  0  0  0  0  0  0  0  0  0
   -6.4004    2.1086  -24.0580 O   0  0  0  0  0  0  0  0  0  0  0  0
   -8.5628    1.6233  -24.9790 C   0  0  0  0  0  0  0  0  0  0  0  0
   -9.3028    0.4905  -24.4607 N   0  0  0  0  0  0  0  0  0  0  0  0
   -8.5966   -0.7632  -24.2754 C   0  0  0  0  0  0  0  0  0  0  0  0
   -9.0062   -1.4700  -22.9577 C   0  0  2  0  0  0  0  0  0  0  0  0
   -8.4555   -0.6863  -21.7402 C   0  0  0  0  0  0  0  0  0  0  0  0
   -8.8643    0.3654  -21.2979 O   0  0  0  0  0  0  0  0  0  0  0  0
   -7.3946   -1.3808  -21.2086 N   0  0  0  0  0  0  0  0  0  0  0  0
   -6.6098   -0.8004  -20.1752 C   0  0  0  0  0  0  0  0  0  0  0  0
   -6.9117   -1.0488  -18.8600 C   0  0  0  0  0  0  0  0  0  0  0  0
   -6.2098   -0.5596  -17.8091 N   0  0  0  0  0  0  0  0  0  0  0  0
   -5.1760    0.2053  -18.0716 C   0  0  0  0  0  0  0  0  0  0  0  0
   -4.7567    0.5593  -19.3869 C   0  0  0  0  0  0  0  0  0  0  0  0
   -3.6266    1.3900  -19.6229 C   0  0  0  0  0  0  0  0  0  0  0  0
   -3.2582    1.7167  -20.9014 C   0  0  0  0  0  0  0  0  0  0  0  0
   -4.0224    1.2571  -21.9956 C   0  0  0  0  0  0  0  0  0  0  0  0
   -5.1083    0.4334  -21.7913 C   0  0  0  0  0  0  0  0  0  0  0  0
   -5.5085    0.0628  -20.4778 C   0  0  0  0  0  0  0  0  0  0  0  0
   -5.6405    0.0225  -22.6456 H   0  0  0  0  0  0  0  0  0  0  0  0
   -3.7220    1.4982  -23.0121 H   0  0  0  0  0  0  0  0  0  0  0  0
   -2.3717    2.3177  -21.0828 H   0  0  0  0  0  0  0  0  0  0  0  0
   -3.0641    1.7483  -18.7648 H   0  0  0  0  0  0  0  0  0  0  0  0
   -4.6211    0.6025  -17.2219 H   0  0  0  0  0  0  0  0  0  0  0  0
   -7.7672   -1.6714  -18.6083 H   0  0  0  0  0  0  0  0  0  0  0  0
   -7.0742   -2.6139  -21.9030 C   0  0  0  0  0  0  0  0  0  0  0  0
   -8.3056   -2.8569  -22.8065 C   0  0  2  0  0  0  0  0  0  0  0  0
   -7.9405   -3.5783  -24.1048 C   0  0  0  0  0  0  0  0  0  0  0  0
   -7.4218   -4.8437  -23.7476 O   0  0  0  0  0  0  0  0  0  0  0  0
   -7.2132   -5.3267  -24.5559 H   0  0  0  0  0  0  0  0  0  0  0  0
   -7.1835   -2.9928  -24.6530 H   0  0  0  0  0  0  0  0  0  0  0  0
   -8.8273   -3.6839  -24.7518 H   0  0  0  0  0  0  0  0  0  0  0  0
   -8.9948   -3.5178  -22.2765 H   0  0  0  0  0  0  0  0  0  0  0  0
   -6.9069   -3.4277  -21.1906 H   0  0  0  0  0  0  0  0  0  0  0  0
   -6.1570   -2.4993  -22.4991 H   0  0  0  0  0  0  0  0  0  0  0  0
  -10.5255   -1.4830  -22.8900 C   0  0  0  0  0  0  0  0  0  0  0  0
  -11.1712   -2.3372  -21.9897 C   0  0  0  0  0  0  0  0  0  0  0  0
  -12.5500   -2.3339  -21.8965 C   0  0  0  0  0  0  0  0  0  0  0  0
  -13.3190   -3.3866  -20.7415 Cl  0  0  0  0  0  0  0  0  0  0  0  0
  -13.3287   -1.4743  -22.6728 C   0  0  0  0  0  0  0  0  0  0  0  0
  -12.6988   -0.5766  -23.5157 C   0  0  0  0  0  0  0  0  0  0  0  0
  -11.3059   -0.5585  -23.6002 C   0  0  0  0  0  0  0  0  0  0  0  0
  -10.6708    0.5415  -24.3975 C   0  0  0  0  0  0  0  0  0  0  0  0
  -11.3366    1.4301  -24.9126 O   0  0  0  0  0  0  0  0  0  0  0  0
  -13.2464    0.1470  -24.1147 H   0  0  0  0  0  0  0  0  0  0  0  0
  -14.4081   -1.5111  -22.5931 H   0  0  0  0  0  0  0  0  0  0  0  0
  -10.6091   -2.9875  -21.3290 H   0  0  0  0  0  0  0  0  0  0  0  0
   -7.5270   -0.5291  -24.2534 H   0  0  0  0  0  0  0  0  0  0  0  0
   -8.8072   -1.4389  -25.1198 H   0  0  0  0  0  0  0  0  0  0  0  0
   -7.9335    1.3273  -25.8275 H   0  0  0  0  0  0  0  0  0  0  0  0
   -9.3263    2.3332  -25.3015 H   0  0  0  0  0  0  0  0  0  0  0  0
   -9.1708    2.8757  -22.8064 H   0  0  0  0  0  0  0  0  0  0  0  0
   -6.6088    4.1567  -22.2412 H   0  0  0  0  0  0  0  0  0  0  0  0
   -7.9974    3.9408  -21.1500 H   0  0  0  0  0  0  0  0  0  0  0  0
   -6.8125    2.6111  -21.4036 H   0  0  0  0  0  0  0  0  0  0  0  0
  1  2  1  0
  2  3  1  0
  3  4  2  0
  3  5  1  0
  5  6  1  0
  6  7  1  0
  8  7  1  6
  8  9  1  0
  9 10  2  0
  9 11  1  0
 11 12  1  0
 12 13  2  0
 13 14  1  0
 14 15  2  0
 15 16  1  0
 16 17  2  0
 17 18  1  0
 18 19  2  0
 19 20  1  0
 20 21  2  0
 20 22  1  0
 19 23  1  0
 18 24  1  0
 17 25  1  0
 15 26  1  0
 13 27  1  0
 11 28  1  0
 28 29  1  0
 29 30  1  0
 30 31  1  0
 31 32  1  0
 30 33  1  0
 30 34  1  0
 29 35  1  1
 28 36  1  0
 28 37  1  0
  8 38  1  0
 38 39  2  0
 39 40  1  0
 40 41  1  0
 40 42  2  0
 42 43  1  0
 43 44  2  0
 44 45  1  0
 45 46  2  0
 43 47  1  0
 42 48  1  0
 39 49  1  0
  7 50  1  0
  7 51  1  0
  5 52  1  0
  5 53  1  0
  2 54  1  0
  1 55  1  0
  1 56  1  0
  1 57  1  0
 45  6  1  0
 29  8  1  0
 44 38  1  0
 21 12  1  0
 21 16  1  0
M  END
>  <cnnaffinities>  (61) 
[5.27337]

>  <score>  (61) 
5.27337

>  <index>  (61) 
63

>  <Smiles>  (61) 
C(N(C(=O)C(N1C([C@@]2(C(=O)N(c3c(nc(c4c(c(c(c(c34)[H])[H])[H])[H])[H])[H])C([C@@]2(C(O[H])([H])[H])[H])([H])[H])c2c(c(Cl)c(c(c2C1=O)[H])[H])[H])([H])[H])([H])[H])[H])([H])([H])[H]

>  <h>  (61) 
<NA>

>  <Training>  (61) 
True

>  <Success>  (61) 
True

>  <enamine_searched>  (61) 
False

>  <enamine_id>  (61) 
nan

$$$$

     RDKit          3D

 55 60  0  0  0  0  0  0  0  0999 V2000
  -10.1926   -2.9775  -22.0561 C   0  0  0  0  0  0  0  0  0  0  0  0
   -9.1372   -2.0259  -22.6360 C   0  0  1  0  0  0  0  0  0  0  0  0
   -8.6829   -0.9963  -21.5819 C   0  0  0  0  0  0  0  0  0  0  0  0
   -7.3617   -1.4294  -21.1961 N   0  0  0  0  0  0  0  0  0  0  0  0
   -6.6070   -0.8099  -20.1741 C   0  0  0  0  0  0  0  0  0  0  0  0
   -6.9241   -1.0475  -18.8627 C   0  0  0  0  0  0  0  0  0  0  0  0
   -6.2372   -0.5524  -17.8054 N   0  0  0  0  0  0  0  0  0  0  0  0
   -5.2036    0.2129  -18.0681 C   0  0  0  0  0  0  0  0  0  0  0  0
   -4.7837    0.5608  -19.3845 C   0  0  0  0  0  0  0  0  0  0  0  0
   -3.6576    1.3954  -19.6083 C   0  0  0  0  0  0  0  0  0  0  0  0
   -3.3215    1.7758  -20.8778 C   0  0  0  0  0  0  0  0  0  0  0  0
   -4.1049    1.3576  -21.9783 C   0  0  0  0  0  0  0  0  0  0  0  0
   -5.1802    0.5213  -21.7953 C   0  0  0  0  0  0  0  0  0  0  0  0
   -5.5278    0.0781  -20.4836 C   0  0  0  0  0  0  0  0  0  0  0  0
   -5.7589    0.1786  -22.6548 H   0  0  0  0  0  0  0  0  0  0  0  0
   -3.8278    1.6777  -22.9788 H   0  0  0  0  0  0  0  0  0  0  0  0
   -2.4570    2.4119  -21.0484 H   0  0  0  0  0  0  0  0  0  0  0  0
   -3.0878    1.7334  -18.7459 H   0  0  0  0  0  0  0  0  0  0  0  0
   -4.6439    0.6053  -17.2183 H   0  0  0  0  0  0  0  0  0  0  0  0
   -7.7658   -1.6975  -18.6257 H   0  0  0  0  0  0  0  0  0  0  0  0
   -6.8222   -2.4088  -21.9930 C   0  0  0  0  0  0  0  0  0  0  0  0
   -5.7369   -2.9212  -21.8073 O   0  0  0  0  0  0  0  0  0  0  0  0
   -7.8216   -2.7101  -23.1298 C   0  0  1  0  0  0  0  0  0  0  0  0
   -7.9698   -4.2355  -23.3176 C   0  0  0  0  0  0  0  0  0  0  0  0
   -6.7621   -4.8282  -23.8722 N   0  0  0  0  0  0  0  0  0  0  0  0
   -6.2617   -6.0866  -23.3321 C   0  0  0  0  0  0  0  0  0  0  0  0
   -5.1057   -5.9462  -22.3625 C   0  0  0  0  0  0  0  0  0  0  0  0
   -5.1262   -6.1600  -20.8105 N   0  0  0  0  0  0  0  0  0  0  0  0
   -5.1253   -6.1602  -20.8100 C   0  0  0  0  0  0  0  0  0  0  0  0
   -2.9098   -5.7370  -22.5371 N   0  0  0  0  0  0  0  0  0  0  0  0
   -4.0531   -5.6198  -23.1068 N   0  0  0  0  0  0  0  0  0  0  0  0
   -2.2066   -5.5458  -23.2448 H   0  0  0  0  0  0  0  0  0  0  0  0
   -6.2422   -6.4967  -20.8207 H   0  0  0  0  0  0  0  0  0  0  0  0
   -5.8709   -6.6093  -24.2029 H   0  0  0  0  0  0  0  0  0  0  0  0
   -7.1205   -6.6356  -22.9416 H   0  0  0  0  0  0  0  0  0  0  0  0
   -6.2034   -4.3243  -25.0172 C   0  0  0  0  0  0  0  0  0  0  0  0
   -5.4293   -4.9699  -25.7141 O   0  0  0  0  0  0  0  0  0  0  0  0
   -6.5501   -2.8977  -25.3306 C   0  0  0  0  0  0  0  0  0  0  0  0
   -6.0641   -2.3532  -26.5218 C   0  0  0  0  0  0  0  0  0  0  0  0
   -6.2917   -1.0278  -26.8382 C   0  0  0  0  0  0  0  0  0  0  0  0
   -7.0072   -0.2567  -25.9318 C   0  0  0  0  0  0  0  0  0  0  0  0
   -7.2260    1.0365  -26.2253 F   0  0  0  0  0  0  0  0  0  0  0  0
   -7.5055   -0.7669  -24.7487 C   0  0  0  0  0  0  0  0  0  0  0  0
   -7.3001   -2.1192  -24.4390 C   0  0  0  0  0  0  0  0  0  0  0  0
   -8.0676   -0.0989  -24.1036 H   0  0  0  0  0  0  0  0  0  0  0  0
   -5.9253   -0.5790  -27.7547 H   0  0  0  0  0  0  0  0  0  0  0  0
   -5.5026   -3.0013  -27.1876 H   0  0  0  0  0  0  0  0  0  0  0  0
   -8.1695   -4.7011  -22.3537 H   0  0  0  0  0  0  0  0  0  0  0  0
   -8.8247   -4.4288  -23.9815 H   0  0  0  0  0  0  0  0  0  0  0  0
   -9.3455   -0.9936  -20.7209 H   0  0  0  0  0  0  0  0  0  0  0  0
   -8.6668    0.0296  -21.9716 H   0  0  0  0  0  0  0  0  0  0  0  0
   -9.6123   -1.5191  -23.4831 H   0  0  0  0  0  0  0  0  0  0  0  0
   -9.8022   -3.5554  -21.2115 H   0  0  0  0  0  0  0  0  0  0  0  0
  -11.0590   -2.4118  -21.6999 H   0  0  0  0  0  0  0  0  0  0  0  0
  -10.5557   -3.6795  -22.8122 H   0  0  0  0  0  0  0  0  0  0  0  0
  1  2  1  0
  2  3  1  0
  3  4  1  0
  4  5  1  0
  5  6  2  0
  6  7  1  0
  7  8  2  0
  8  9  1  0
  9 10  2  0
 10 11  1  0
 11 12  2  0
 12 13  1  0
 13 14  2  0
 13 15  1  0
 12 16  1  0
 11 17  1  0
 10 18  1  0
  8 19  1  0
  6 20  1  0
  4 21  1  0
 21 22  2  0
 21 23  1  0
 23 24  1  6
 24 25  1  0
 25 26  1  0
 26 27  1  0
 27 28  1  0
 28 29  2  0
 29 30  1  0
 30 31  1  0
 30 32  1  0
 29 33  1  0
 26 34  1  0
 26 35  1  0
 25 36  1  0
 36 37  2  0
 36 38  1  0
 38 39  2  0
 39 40  1  0
 40 41  2  0
 41 42  1  0
 41 43  1  0
 43 44  2  0
 43 45  1  0
 40 46  1  0
 39 47  1  0
 24 48  1  0
 24 49  1  0
  3 50  1  0
  3 51  1  0
  2 52  1  6
  1 53  1  0
  1 54  1  0
  1 55  1  0
 23  2  1  0
 31 27  2  0
 44 38  1  0
 14  5  1  0
 44 23  1  0
 14  9  1  0
M  END
>  <cnnaffinities>  (62) 
[5.92903]

>  <score>  (62) 
5.92903

>  <index>  (62) 
64

>  <Smiles>  (62) 
C([C@]1(C(N(c2c(nc(c3c(c(c(c(c23)[H])[H])[H])[H])[H])[H])C(=O)[C@]21C(N(C(c1nc(n(n1)[H])[H])([H])[H])C(=O)c1c(c(c(F)c(c21)[H])[H])[H])([H])[H])([H])[H])[H])([H])([H])[H]

>  <h>  (62) 
<NA>

>  <Training>  (62) 
True

>  <Success>  (62) 
True

>  <enamine_searched>  (62) 
False

>  <enamine_id>  (62) 
nan

$$$$

     RDKit          3D

 55 60  0  0  0  0  0  0  0  0999 V2000
   -7.8793   -3.5911  -24.1072 C   0  0  0  0  0  0  0  0  0  0  0  0
   -8.2847   -2.8458  -22.8267 C   0  0  1  0  0  0  0  0  0  0  0  0
   -7.0788   -2.6098  -21.8895 C   0  0  0  0  0  0  0  0  0  0  0  0
   -7.4004   -1.3765  -21.1988 N   0  0  0  0  0  0  0  0  0  0  0  0
   -6.6066   -0.7996  -20.1685 C   0  0  0  0  0  0  0  0  0  0  0  0
   -6.9069   -1.0480  -18.8559 C   0  0  0  0  0  0  0  0  0  0  0  0
   -6.2014   -0.5582  -17.8059 N   0  0  0  0  0  0  0  0  0  0  0  0
   -5.1703    0.2059  -18.0713 C   0  0  0  0  0  0  0  0  0  0  0  0
   -4.7484    0.5572  -19.3852 C   0  0  0  0  0  0  0  0  0  0  0  0
   -3.6193    1.3899  -19.6229 C   0  0  0  0  0  0  0  0  0  0  0  0
   -3.2497    1.7120  -20.8969 C   0  0  0  0  0  0  0  0  0  0  0  0
   -4.0011    1.2296  -21.9887 C   0  0  0  0  0  0  0  0  0  0  0  0
   -5.0878    0.4040  -21.7846 C   0  0  0  0  0  0  0  0  0  0  0  0
   -5.4975    0.0539  -20.4735 C   0  0  0  0  0  0  0  0  0  0  0  0
   -5.6100   -0.0124  -22.6433 H   0  0  0  0  0  0  0  0  0  0  0  0
   -3.6837    1.4557  -23.0027 H   0  0  0  0  0  0  0  0  0  0  0  0
   -2.3626    2.3115  -21.0850 H   0  0  0  0  0  0  0  0  0  0  0  0
   -3.0654    1.7589  -18.7629 H   0  0  0  0  0  0  0  0  0  0  0  0
   -4.6211    0.6097  -17.2197 H   0  0  0  0  0  0  0  0  0  0  0  0
   -7.7603   -1.6715  -18.5993 H   0  0  0  0  0  0  0  0  0  0  0  0
   -8.4266   -0.6566  -21.7657 C   0  0  0  0  0  0  0  0  0  0  0  0
   -8.8137    0.4084  -21.3327 O   0  0  0  0  0  0  0  0  0  0  0  0
   -8.9678   -1.4444  -22.9957 C   0  0  1  0  0  0  0  0  0  0  0  0
   -8.5208   -0.7769  -24.3218 C   0  0  0  0  0  0  0  0  0  0  0  0
   -9.2072    0.4698  -24.5788 N   0  0  0  0  0  0  0  0  0  0  0  0
   -8.4424    1.6601  -24.9105 C   0  0  0  0  0  0  0  0  0  0  0  0
   -8.1433    2.5204  -23.7156 C   0  0  0  0  0  0  0  0  0  0  0  0
   -8.9568    3.3810  -23.0702 C   0  0  0  0  0  0  0  0  0  0  0  0
   -8.2660    3.9325  -22.0390 O   0  0  0  0  0  0  0  0  0  0  0  0
   -7.0622    3.3448  -22.0875 C   0  0  0  0  0  0  0  0  0  0  0  0
   -6.9120    2.5156  -23.0686 N   0  0  0  0  0  0  0  0  0  0  0  0
   -6.3892    3.5888  -21.2736 H   0  0  0  0  0  0  0  0  0  0  0  0
   -9.9887    3.6777  -23.1662 H   0  0  0  0  0  0  0  0  0  0  0  0
   -9.0424    2.2158  -25.6371 H   0  0  0  0  0  0  0  0  0  0  0  0
   -7.4986    1.3511  -25.3719 H   0  0  0  0  0  0  0  0  0  0  0  0
  -10.5648    0.5884  -24.4603 C   0  0  0  0  0  0  0  0  0  0  0  0
  -11.1802    1.5456  -24.9203 O   0  0  0  0  0  0  0  0  0  0  0  0
  -11.2375   -0.5022  -23.6827 C   0  0  0  0  0  0  0  0  0  0  0  0
  -12.6313   -0.4977  -23.6188 C   0  0  0  0  0  0  0  0  0  0  0  0
  -13.2952   -1.3877  -22.7971 C   0  0  0  0  0  0  0  0  0  0  0  0
  -12.5412   -2.2623  -22.0242 C   0  0  0  0  0  0  0  0  0  0  0  0
  -13.1721   -3.0891  -21.1746 F   0  0  0  0  0  0  0  0  0  0  0  0
  -11.1654   -2.2963  -22.0805 C   0  0  0  0  0  0  0  0  0  0  0  0
  -10.4877   -1.4434  -22.9587 C   0  0  0  0  0  0  0  0  0  0  0  0
  -10.6535   -2.9712  -21.4038 H   0  0  0  0  0  0  0  0  0  0  0  0
  -14.3747   -1.4295  -22.7348 H   0  0  0  0  0  0  0  0  0  0  0  0
  -13.1549    0.2321  -24.2279 H   0  0  0  0  0  0  0  0  0  0  0  0
   -8.7009   -1.4822  -25.1500 H   0  0  0  0  0  0  0  0  0  0  0  0
   -7.4506   -0.5513  -24.2503 H   0  0  0  0  0  0  0  0  0  0  0  0
   -6.1451   -2.5115  -22.4653 H   0  0  0  0  0  0  0  0  0  0  0  0
   -6.9358   -3.4252  -21.1707 H   0  0  0  0  0  0  0  0  0  0  0  0
   -9.0094   -3.4642  -22.2927 H   0  0  0  0  0  0  0  0  0  0  0  0
   -8.7249   -3.7368  -24.7895 H   0  0  0  0  0  0  0  0  0  0  0  0
   -7.1007   -3.0452  -24.6544 H   0  0  0  0  0  0  0  0  0  0  0  0
   -7.4725   -4.5802  -23.8685 H   0  0  0  0  0  0  0  0  0  0  0  0
  1  2  1  0
  2  3  1  0
  3  4  1  0
  4  5  1  0
  5  6  2  0
  6  7  1  0
  7  8  2  0
  8  9  1  0
  9 10  2  0
 10 11  1  0
 11 12  2  0
 12 13  1  0
 13 14  2  0
 13 15  1  0
 12 16  1  0
 11 17  1  0
 10 18  1  0
  8 19  1  0
  6 20  1  0
  4 21  1  0
 21 22  2  0
 21 23  1  0
 23 24  1  6
 24 25  1  0
 25 26  1  0
 26 27  1  0
 27 28  2  0
 28 29  1  0
 29 30  1  0
 30 31  2  0
 30 32  1  0
 28 33  1  0
 26 34  1  0
 26 35  1  0
 25 36  1  0
 36 37  2  0
 36 38  1  0
 38 39  2  0
 39 40  1  0
 40 41  2  0
 41 42  1  0
 41 43  1  0
 43 44  2  0
 43 45  1  0
 40 46  1  0
 39 47  1  0
 24 48  1  0
 24 49  1  0
  3 50  1  0
  3 51  1  0
  2 52  1  1
  1 53  1  0
  1 54  1  0
  1 55  1  0
 23  2  1  0
 31 27  1  0
 44 38  1  0
 14  5  1  0
 44 23  1  0
 14  9  1  0
M  END
>  <cnnaffinities>  (63) 
[5.12167, 6.22754]

>  <score>  (63) 
5.12167

>  <index>  (63) 
65

>  <Smiles>  (63) 
C([C@]1(C(N(c2c(nc(c3c(c(c(c(c23)[H])[H])[H])[H])[H])[H])C(=O)[C@]21C(N(C(c1c(oc(n1)[H])[H])([H])[H])C(=O)c1c(c(c(F)c(c21)[H])[H])[H])([H])[H])([H])[H])[H])([H])([H])[H]

>  <h>  (63) 
<NA>

>  <Training>  (63) 
True

>  <Success>  (63) 
True

>  <enamine_searched>  (63) 
False

>  <enamine_id>  (63) 
nan

$$$$

     RDKit          3D

 44 47  0  0  0  0  0  0  0  0999 V2000
   -6.7967   -2.9184  -25.6335 C   0  0  0  0  0  0  0  0  0  0  0  0
   -7.7549   -2.1118  -24.7587 C   0  0  0  0  0  0  0  0  0  0  0  0
   -8.4599   -2.9156  -23.6318 C   0  0  1  0  0  0  0  0  0  0  0  0
   -9.3812   -3.9754  -24.2105 C   0  0  0  0  0  0  0  0  0  0  0  0
  -10.4086   -3.7738  -25.1973 C   0  0  0  0  0  0  0  0  0  0  0  0
  -10.9845   -4.9352  -25.6102 C   0  0  0  0  0  0  0  0  0  0  0  0
  -10.3290   -6.2943  -24.7868 S   0  0  0  0  0  0  0  0  0  0  0  0
   -9.2509   -5.2872  -23.8853 C   0  0  0  0  0  0  0  0  0  0  0  0
   -8.2633   -5.8297  -22.8974 C   0  0  0  0  0  0  0  0  0  0  0  0
   -7.0631   -4.8936  -22.8633 C   0  0  0  0  0  0  0  0  0  0  0  0
   -7.5173   -3.5142  -22.6631 N   0  0  0  0  0  0  0  0  0  0  0  0
   -6.7463   -2.7567  -21.8092 C   0  0  0  0  0  0  0  0  0  0  0  0
   -5.6376   -3.1104  -21.4490 O   0  0  0  0  0  0  0  0  0  0  0  0
   -7.3967   -1.4758  -21.2719 C   0  0  0  0  0  0  0  0  0  0  0  0
   -6.6038   -0.8064  -20.1863 C   0  0  0  0  0  0  0  0  0  0  0  0
   -6.8870   -1.0614  -18.8684 C   0  0  0  0  0  0  0  0  0  0  0  0
   -6.2026   -0.5793  -17.7994 N   0  0  0  0  0  0  0  0  0  0  0  0
   -5.1871    0.2130  -18.0553 C   0  0  0  0  0  0  0  0  0  0  0  0
   -4.7747    0.5738  -19.3707 C   0  0  0  0  0  0  0  0  0  0  0  0
   -3.6419    1.3953  -19.5937 C   0  0  0  0  0  0  0  0  0  0  0  0
   -3.2645    1.7233  -20.8700 C   0  0  0  0  0  0  0  0  0  0  0  0
   -4.0320    1.2789  -21.9743 C   0  0  0  0  0  0  0  0  0  0  0  0
   -5.1101    0.4443  -21.7784 C   0  0  0  0  0  0  0  0  0  0  0  0
   -5.5040    0.0592  -20.4687 C   0  0  0  0  0  0  0  0  0  0  0  0
   -5.6576    0.0583  -22.6361 H   0  0  0  0  0  0  0  0  0  0  0  0
   -3.7399    1.5689  -22.9813 H   0  0  0  0  0  0  0  0  0  0  0  0
   -2.3846    2.3332  -21.0475 H   0  0  0  0  0  0  0  0  0  0  0  0
   -3.0630    1.7271  -18.7322 H   0  0  0  0  0  0  0  0  0  0  0  0
   -4.6237    0.6050  -17.2083 H   0  0  0  0  0  0  0  0  0  0  0  0
   -7.7325   -1.7032  -18.6159 H   0  0  0  0  0  0  0  0  0  0  0  0
   -8.3788   -1.7688  -20.8758 H   0  0  0  0  0  0  0  0  0  0  0  0
   -7.5835   -0.7957  -22.1098 H   0  0  0  0  0  0  0  0  0  0  0  0
   -6.4961   -4.9684  -23.8014 H   0  0  0  0  0  0  0  0  0  0  0  0
   -6.3800   -5.1326  -22.0412 H   0  0  0  0  0  0  0  0  0  0  0  0
   -8.7301   -5.8804  -21.9042 H   0  0  0  0  0  0  0  0  0  0  0  0
   -7.9628   -6.8464  -23.1709 H   0  0  0  0  0  0  0  0  0  0  0  0
  -11.7482   -5.0904  -26.3638 H   0  0  0  0  0  0  0  0  0  0  0  0
  -10.7031   -2.7944  -25.5608 H   0  0  0  0  0  0  0  0  0  0  0  0
   -9.0698   -2.1860  -23.0687 H   0  0  0  0  0  0  0  0  0  0  0  0
   -7.2314   -1.2451  -24.3420 H   0  0  0  0  0  0  0  0  0  0  0  0
   -8.5642   -1.7159  -25.3824 H   0  0  0  0  0  0  0  0  0  0  0  0
   -5.9134   -3.2643  -25.0856 H   0  0  0  0  0  0  0  0  0  0  0  0
   -7.2984   -3.7899  -26.0647 H   0  0  0  0  0  0  0  0  0  0  0  0
   -6.4286   -2.3052  -26.4626 H   0  0  0  0  0  0  0  0  0  0  0  0
  1  2  1  0
  2  3  1  0
  3  4  1  0
  4  5  1  0
  5  6  2  0
  6  7  1  0
  7  8  1  0
  8  9  1  0
  9 10  1  0
 10 11  1  0
 11 12  1  0
 12 13  2  0
 12 14  1  0
 14 15  1  0
 15 16  2  0
 16 17  1  0
 17 18  2  0
 18 19  1  0
 19 20  2  0
 20 21  1  0
 21 22  2  0
 22 23  1  0
 23 24  2  0
 23 25  1  0
 22 26  1  0
 21 27  1  0
 20 28  1  0
 18 29  1  0
 16 30  1  0
 14 31  1  0
 14 32  1  0
 10 33  1  0
 10 34  1  0
  9 35  1  0
  9 36  1  0
  6 37  1  0
  5 38  1  0
  3 39  1  1
  2 40  1  0
  2 41  1  0
  1 42  1  0
  1 43  1  0
  1 44  1  0
 11  3  1  0
 24 15  1  0
  8  4  2  0
 24 19  1  0
M  END
>  <cnnaffinities>  (64) 
[4.70486, 5.03904, 5.01693]

>  <score>  (64) 
4.70486

>  <index>  (64) 
66

>  <Smiles>  (64) 
C(C([C@]1(c2c(c(sc2C(C(N1C(=O)C(c1c(nc(c2c(c(c(c(c12)[H])[H])[H])[H])[H])[H])([H])[H])([H])[H])([H])[H])[H])[H])[H])([H])[H])([H])([H])[H]

>  <h>  (64) 
<NA>

>  <Training>  (64) 
True

>  <Success>  (64) 
True

>  <enamine_searched>  (64) 
False

>  <enamine_id>  (64) 
nan

$$$$

     RDKit          3D

 58 63  0  0  0  0  0  0  0  0999 V2000
   -6.4860   -0.2695  -30.5880 C   0  0  0  0  0  0  0  0  0  0  0  0
   -6.3819   -0.2694  -29.0923 C   0  0  0  0  0  0  0  0  0  0  0  0
   -7.0895    0.5903  -28.2010 C   0  0  0  0  0  0  0  0  0  0  0  0
   -6.6809    0.1893  -26.9731 C   0  0  0  0  0  0  0  0  0  0  0  0
   -7.0667    0.6598  -25.6039 C   0  0  0  0  0  0  0  0  0  0  0  0
   -8.1920   -0.0391  -25.0311 N   0  0  0  0  0  0  0  0  0  0  0  0
   -7.9838   -1.3519  -24.4731 C   0  0  0  0  0  0  0  0  0  0  0  0
   -8.7678   -1.5020  -23.1544 C   0  0  2  0  0  0  0  0  0  0  0  0
   -8.1332   -0.5740  -22.0848 C   0  0  0  0  0  0  0  0  0  0  0  0
   -8.2169    0.6338  -22.0091 O   0  0  0  0  0  0  0  0  0  0  0  0
   -7.4049   -1.3489  -21.2154 N   0  0  0  0  0  0  0  0  0  0  0  0
   -6.6192   -0.7836  -20.1834 C   0  0  0  0  0  0  0  0  0  0  0  0
   -6.8976   -1.0612  -18.8665 C   0  0  0  0  0  0  0  0  0  0  0  0
   -6.2010   -0.5697  -17.8154 N   0  0  0  0  0  0  0  0  0  0  0  0
   -5.1726    0.2026  -18.0769 C   0  0  0  0  0  0  0  0  0  0  0  0
   -4.7555    0.5566  -19.3913 C   0  0  0  0  0  0  0  0  0  0  0  0
   -3.6198    1.3810  -19.6149 C   0  0  0  0  0  0  0  0  0  0  0  0
   -3.2431    1.7131  -20.8888 C   0  0  0  0  0  0  0  0  0  0  0  0
   -3.9925    1.2421  -21.9873 C   0  0  0  0  0  0  0  0  0  0  0  0
   -5.0841    0.4311  -21.7927 C   0  0  0  0  0  0  0  0  0  0  0  0
   -5.5096    0.0762  -20.4806 C   0  0  0  0  0  0  0  0  0  0  0  0
   -5.5736   -0.0309  -22.6465 H   0  0  0  0  0  0  0  0  0  0  0  0
   -3.6413    1.4462  -22.9974 H   0  0  0  0  0  0  0  0  0  0  0  0
   -2.3368    2.2842  -21.0673 H   0  0  0  0  0  0  0  0  0  0  0  0
   -3.0660    1.7374  -18.7514 H   0  0  0  0  0  0  0  0  0  0  0  0
   -4.6304    0.6079  -17.2252 H   0  0  0  0  0  0  0  0  0  0  0  0
   -7.7458   -1.6941  -18.6058 H   0  0  0  0  0  0  0  0  0  0  0  0
   -7.4429   -2.7671  -21.5118 C   0  0  0  0  0  0  0  0  0  0  0  0
   -8.5833   -2.9229  -22.5388 C   0  0  2  0  0  0  0  0  0  0  0  0
   -8.3423   -4.0880  -23.5151 C   0  0  0  0  0  0  0  0  0  0  0  0
   -8.3004   -5.0469  -22.9821 H   0  0  0  0  0  0  0  0  0  0  0  0
   -7.3876   -3.9682  -24.0452 H   0  0  0  0  0  0  0  0  0  0  0  0
   -9.1313   -4.1678  -24.2748 H   0  0  0  0  0  0  0  0  0  0  0  0
   -9.5043   -3.1289  -21.9890 H   0  0  0  0  0  0  0  0  0  0  0  0
   -7.6354   -3.3063  -20.5870 H   0  0  0  0  0  0  0  0  0  0  0  0
   -6.4817   -3.1121  -21.9239 H   0  0  0  0  0  0  0  0  0  0  0  0
  -10.2012   -1.0754  -23.4060 C   0  0  0  0  0  0  0  0  0  0  0  0
  -11.2060   -1.4172  -22.4923 C   0  0  0  0  0  0  0  0  0  0  0  0
  -12.4983   -0.9983  -22.7275 C   0  0  0  0  0  0  0  0  0  0  0  0
  -13.4623   -1.3496  -21.8615 F   0  0  0  0  0  0  0  0  0  0  0  0
  -12.8417   -0.2077  -23.8177 C   0  0  0  0  0  0  0  0  0  0  0  0
  -11.8356    0.2222  -24.6589 C   0  0  0  0  0  0  0  0  0  0  0  0
  -10.5239   -0.2026  -24.4547 C   0  0  0  0  0  0  0  0  0  0  0  0
   -9.4557    0.3915  -25.3169 C   0  0  0  0  0  0  0  0  0  0  0  0
   -9.6862    1.2262  -26.1817 O   0  0  0  0  0  0  0  0  0  0  0  0
  -12.0053    0.9363  -25.4558 H   0  0  0  0  0  0  0  0  0  0  0  0
  -13.8761    0.0778  -23.9543 H   0  0  0  0  0  0  0  0  0  0  0  0
  -11.0020   -1.9769  -21.5859 H   0  0  0  0  0  0  0  0  0  0  0  0
   -8.3171   -2.1223  -25.1888 H   0  0  0  0  0  0  0  0  0  0  0  0
   -6.9116   -1.4681  -24.2917 H   0  0  0  0  0  0  0  0  0  0  0  0
   -6.2175    0.5672  -24.9181 H   0  0  0  0  0  0  0  0  0  0  0  0
   -7.3678    1.7049  -25.6758 H   0  0  0  0  0  0  0  0  0  0  0  0
   -5.7890   -0.7995  -27.0922 O   0  0  0  0  0  0  0  0  0  0  0  0
   -5.6012   -1.0914  -28.4342 N   0  0  0  0  0  0  0  0  0  0  0  0
   -7.8193    1.3529  -28.4283 H   0  0  0  0  0  0  0  0  0  0  0  0
   -7.5123   -0.0150  -30.8718 H   0  0  0  0  0  0  0  0  0  0  0  0
   -6.2230   -1.2385  -31.0276 H   0  0  0  0  0  0  0  0  0  0  0  0
   -5.8298    0.4994  -31.0125 H   0  0  0  0  0  0  0  0  0  0  0  0
  1  2  1  0
  2  3  1  0
  3  4  2  0
  4  5  1  0
  5  6  1  0
  6  7  1  0
  8  7  1  6
  8  9  1  0
  9 10  2  0
  9 11  1  0
 11 12  1  0
 12 13  2  0
 13 14  1  0
 14 15  2  0
 15 16  1  0
 16 17  2  0
 17 18  1  0
 18 19  2  0
 19 20  1  0
 20 21  2  0
 20 22  1  0
 19 23  1  0
 18 24  1  0
 17 25  1  0
 15 26  1  0
 13 27  1  0
 11 28  1  0
 28 29  1  0
 29 30  1  0
 30 31  1  0
 30 32  1  0
 30 33  1  0
 29 34  1  1
 28 35  1  0
 28 36  1  0
  8 37  1  0
 37 38  2  0
 38 39  1  0
 39 40  1  0
 39 41  2  0
 41 42  1  0
 42 43  2  0
 43 44  1  0
 44 45  2  0
 42 46  1  0
 41 47  1  0
 38 48  1  0
  7 49  1  0
  7 50  1  0
  5 51  1  0
  5 52  1  0
  4 53  1  0
 53 54  1  0
  3 55  1  0
  1 56  1  0
  1 57  1  0
  1 58  1  0
 54  2  2  0
 44  6  1  0
 29  8  1  0
 43 37  1  0
 21 12  1  0
 21 16  1  0
M  END
>  <cnnaffinities>  (65) 
[5.65681]

>  <score>  (65) 
5.65681

>  <index>  (65) 
67

>  <Smiles>  (65) 
C(c1c(c(C(N2C([C@@]3(C(=O)N(c4c(nc(c5c(c(c(c(c45)[H])[H])[H])[H])[H])[H])C([C@@]3(C([H])([H])[H])[H])([H])[H])c3c(c(F)c(c(c3C2=O)[H])[H])[H])([H])[H])([H])[H])on1)[H])([H])([H])[H]

>  <h>  (65) 
<NA>

>  <Training>  (65) 
True

>  <Success>  (65) 
True

>  <enamine_searched>  (65) 
False

>  <enamine_id>  (65) 
nan

$$$$

     RDKit          3D

 65 70  0  0  0  0  0  0  0  0999 V2000
   -8.9755    0.5850  -21.2420 O   0  0  0  0  0  0  0  0  0  0  0  0
   -8.0243    0.1923  -21.8986 C   0  0  0  0  0  0  0  0  0  0  0  0
   -7.2304   -0.9997  -21.3654 C   0  0  0  0  0  0  0  0  0  0  0  0
   -6.4629   -0.5549  -20.1383 C   0  0  0  0  0  0  0  0  0  0  0  0
   -6.9011   -0.8757  -18.8816 C   0  0  0  0  0  0  0  0  0  0  0  0
   -6.3464   -0.4392  -17.7216 N   0  0  0  0  0  0  0  0  0  0  0  0
   -5.3137    0.3626  -17.8205 C   0  0  0  0  0  0  0  0  0  0  0  0
   -4.7412    0.7800  -19.0530 C   0  0  0  0  0  0  0  0  0  0  0  0
   -3.6430    1.6765  -19.1213 C   0  0  0  0  0  0  0  0  0  0  0  0
   -3.1692    2.1170  -20.3271 C   0  0  0  0  0  0  0  0  0  0  0  0
   -3.7495    1.6492  -21.5228 C   0  0  0  0  0  0  0  0  0  0  0  0
   -4.7968    0.7576  -21.4803 C   0  0  0  0  0  0  0  0  0  0  0  0
   -5.3361    0.3095  -20.2480 C   0  0  0  0  0  0  0  0  0  0  0  0
   -5.2299    0.4118  -22.4095 H   0  0  0  0  0  0  0  0  0  0  0  0
   -3.3726    1.9950  -22.4831 H   0  0  0  0  0  0  0  0  0  0  0  0
   -2.3575    2.8364  -20.3676 H   0  0  0  0  0  0  0  0  0  0  0  0
   -3.2023    2.0214  -18.1901 H   0  0  0  0  0  0  0  0  0  0  0  0
   -4.8823    0.7320  -16.8888 H   0  0  0  0  0  0  0  0  0  0  0  0
   -7.7622   -1.5333  -18.7628 H   0  0  0  0  0  0  0  0  0  0  0  0
   -7.9692   -1.7581  -21.0883 H   0  0  0  0  0  0  0  0  0  0  0  0
   -6.5672   -1.4317  -22.1153 H   0  0  0  0  0  0  0  0  0  0  0  0
   -7.5797    0.8491  -23.0421 N   0  0  0  0  0  0  0  0  0  0  0  0
   -7.0492    0.1464  -24.2247 C   0  0  0  0  0  0  0  0  0  0  0  0
   -8.1120   -0.3238  -25.1939 C   0  0  0  0  0  0  0  0  0  0  0  0
   -8.5633   -1.7511  -25.3122 C   0  0  0  0  0  0  0  0  0  0  0  0
  -10.1732   -1.8059  -26.4719 C   0  0  0  0  0  0  0  0  0  0  0  0
  -10.1006   -1.5449  -26.2099 C   0  0  0  0  0  0  0  0  0  0  0  0
   -9.9384   -0.1006  -26.8470 C   0  0  0  0  0  0  0  0  0  0  0  0
   -9.7285    0.0892  -28.6710 Cl  0  0  0  0  0  0  0  0  0  0  0  0
   -8.8061    0.5109  -26.0337 C   0  0  0  0  0  0  0  0  0  0  0  0
   -8.6022    1.5694  -26.1487 H   0  0  0  0  0  0  0  0  0  0  0  0
  -10.8486    0.4656  -26.6439 H   0  0  0  0  0  0  0  0  0  0  0  0
   -9.5394   -2.6127  -26.8374 H   0  0  0  0  0  0  0  0  0  0  0  0
   -8.7744   -2.0676  -24.2451 H   0  0  0  0  0  0  0  0  0  0  0  0
   -6.4789   -0.7166  -23.8639 H   0  0  0  0  0  0  0  0  0  0  0  0
   -6.2978    0.8117  -24.6846 H   0  0  0  0  0  0  0  0  0  0  0  0
   -7.8448    2.2920  -23.0888 C   0  0  2  0  0  0  0  0  0  0  0  0
   -9.2877    2.7175  -23.4423 C   0  0  0  0  0  0  0  0  0  0  0  0
   -9.1316    4.2114  -23.8136 C   0  0  0  0  0  0  0  0  0  0  0  0
   -7.6353    4.4704  -23.6094 C   0  0  2  0  0  0  0  0  0  0  0  0
   -6.9986    3.1507  -24.0369 C   0  0  0  0  0  0  0  0  0  0  0  0
   -7.1785    2.9363  -25.0927 H   0  0  0  0  0  0  0  0  0  0  0  0
   -5.9273    3.0893  -23.8102 H   0  0  0  0  0  0  0  0  0  0  0  0
   -7.4334    4.4591  -22.0821 N   0  0  2  0  0  4  0  0  0  0  0  0
   -6.1831    5.1016  -21.5695 C   0  0  0  0  0  0  0  0  0  0  0  0
   -6.3004    6.6135  -21.4961 C   0  0  0  0  0  0  0  0  0  0  0  0
   -5.0785    7.3643  -20.9473 C   0  0  0  0  0  0  0  0  0  0  0  0
   -4.9714    8.1657  -22.1365 O   0  0  0  0  0  0  0  0  0  0  0  0
   -6.0097    7.4100  -22.7785 C   0  0  0  0  0  0  0  0  0  0  0  0
   -6.8133    8.0459  -23.1708 H   0  0  0  0  0  0  0  0  0  0  0  0
   -5.6064    6.7940  -23.5949 H   0  0  0  0  0  0  0  0  0  0  0  0
   -4.1924    6.7295  -20.7979 H   0  0  0  0  0  0  0  0  0  0  0  0
   -5.2229    7.9746  -20.0487 H   0  0  0  0  0  0  0  0  0  0  0  0
   -7.2424    6.8883  -21.0112 H   0  0  0  0  0  0  0  0  0  0  0  0
   -5.9588    4.6999  -20.5757 H   0  0  0  0  0  0  0  0  0  0  0  0
   -5.3374    4.8235  -22.2140 H   0  0  0  0  0  0  0  0  0  0  0  0
   -7.5477    2.9908  -21.7485 C   0  0  0  0  0  0  0  0  0  0  0  0
   -6.6133    2.6452  -21.3076 H   0  0  0  0  0  0  0  0  0  0  0  0
   -8.3469    2.8296  -21.0332 H   0  0  0  0  0  0  0  0  0  0  0  0
   -8.2249    4.9551  -21.6266 H   0  0  0  0  0  0  0  0  0  0  0  0
   -7.2475    5.3878  -24.0424 H   0  0  0  0  0  0  0  0  0  0  0  0
   -9.4204    4.3963  -24.8510 H   0  0  0  0  0  0  0  0  0  0  0  0
   -9.7273    4.8656  -23.1685 H   0  0  0  0  0  0  0  0  0  0  0  0
   -9.9610    2.5472  -22.6003 H   0  0  0  0  0  0  0  0  0  0  0  0
   -9.6555    2.1361  -24.2843 H   0  0  0  0  0  0  0  0  0  0  0  0
  1  2  2  0
  2  3  1  0
  3  4  1  0
  4  5  2  0
  5  6  1  0
  6  7  2  0
  7  8  1  0
  8  9  2  0
  9 10  1  0
 10 11  2  0
 11 12  1  0
 12 13  2  0
 12 14  1  0
 11 15  1  0
 10 16  1  0
  9 17  1  0
  7 18  1  0
  5 19  1  0
  3 20  1  0
  3 21  1  0
  2 22  1  0
 22 23  1  0
 23 24  1  0
 24 25  2  0
 25 26  1  0
 26 27  2  0
 27 28  1  0
 28 29  1  0
 28 30  2  0
 30 31  1  0
 27 32  1  0
 26 33  1  0
 25 34  1  0
 23 35  1  0
 23 36  1  0
 37 22  1  1
 37 38  1  0
 38 39  1  0
 39 40  1  0
 40 41  1  0
 41 42  1  0
 41 43  1  0
 40 44  1  0
 44 45  1  0
 45 46  1  0
 46 47  1  0
 47 48  1  0
 48 49  1  0
 49 50  1  0
 49 51  1  0
 47 52  1  0
 47 53  1  0
 46 54  1  0
 45 55  1  0
 45 56  1  0
 44 57  1  0
 57 58  1  0
 57 59  1  0
 44 60  1  1
 40 61  1  6
 39 62  1  0
 39 63  1  0
 38 64  1  0
 38 65  1  0
 13  4  1  0
 30 24  1  0
 41 37  1  0
 49 46  1  0
 13  8  1  0
 57 37  1  0
M  CHG  1  44   1
M  END
>  <cnnaffinities>  (66) 
[5.60826]

>  <score>  (66) 
5.60826

>  <index>  (66) 
68

>  <Smiles>  (66) 
O=C(C(c1c(nc(c2c(c(c(c(c12)[H])[H])[H])[H])[H])[H])([H])[H])N(C(c1c(c(c(c(Cl)c1[H])[H])[H])[H])([H])[H])[C@]12C(C([C@](C1([H])[H])([N@+](C(C1(C(OC1([H])[H])([H])[H])[H])([H])[H])(C2([H])[H])[H])[H])([H])[H])([H])[H]

>  <h>  (66) 
<NA>

>  <Training>  (66) 
True

>  <Success>  (66) 
True

>  <enamine_searched>  (66) 
False

>  <enamine_id>  (66) 
nan

$$$$

     RDKit          3D

 63 67  0  0  0  0  0  0  0  0999 V2000
  -10.7227   -5.9211  -28.1668 C   0  0  0  0  0  0  0  0  0  0  0  0
  -10.2958   -5.4188  -27.0107 C   0  0  0  0  0  0  0  0  0  0  0  0
   -9.9512   -3.9596  -26.9985 C   0  0  0  0  0  0  0  0  0  0  0  0
   -9.7403   -3.3417  -28.0328 O   0  0  0  0  0  0  0  0  0  0  0  0
   -9.9120   -3.3657  -25.7467 N   0  0  0  0  0  0  0  0  0  0  0  0
  -10.7444   -3.9373  -24.6888 C   0  0  0  0  0  0  0  0  0  0  0  0
  -11.3011   -2.8228  -23.8385 C   0  0  0  0  0  0  0  0  0  0  0  0
  -10.1608   -2.0788  -23.1861 C   0  0  0  0  0  0  0  0  0  0  0  0
   -9.1680   -1.5949  -24.2326 C   0  0  0  0  0  0  0  0  0  0  0  0
   -9.0420   -2.2800  -25.4637 C   0  0  0  0  0  0  0  0  0  0  0  0
   -8.0515   -1.8972  -26.3869 C   0  0  0  0  0  0  0  0  0  0  0  0
   -7.2182   -0.8277  -26.1135 C   0  0  0  0  0  0  0  0  0  0  0  0
   -7.3731   -0.1028  -24.9365 C   0  0  0  0  0  0  0  0  0  0  0  0
   -8.3515   -0.4878  -24.0293 C   0  0  0  0  0  0  0  0  0  0  0  0
   -8.5264    0.4241  -22.7756 N   0  0  1  0  0  4  0  0  0  0  0  0
   -9.6877    1.4477  -22.8950 C   0  0  0  0  0  0  0  0  0  0  0  0
   -9.4223    2.3502  -24.0537 C   0  0  0  0  0  0  0  0  0  0  0  0
  -10.0913    2.1696  -25.2622 C   0  0  0  0  0  0  0  0  0  0  0  0
   -9.8333    3.0061  -26.3397 C   0  0  0  0  0  0  0  0  0  0  0  0
   -8.9081    4.0372  -26.2195 C   0  0  0  0  0  0  0  0  0  0  0  0
   -8.2403    4.2079  -25.0117 C   0  0  0  0  0  0  0  0  0  0  0  0
   -7.0783    5.4971  -24.8502 Cl  0  0  0  0  0  0  0  0  0  0  0  0
   -8.4782    3.3709  -23.9307 C   0  0  0  0  0  0  0  0  0  0  0  0
   -7.9446    3.5190  -22.9924 H   0  0  0  0  0  0  0  0  0  0  0  0
   -8.6943    4.6939  -27.0565 H   0  0  0  0  0  0  0  0  0  0  0  0
  -10.3565    2.8535  -27.2795 H   0  0  0  0  0  0  0  0  0  0  0  0
  -10.8031    1.3508  -25.3497 H   0  0  0  0  0  0  0  0  0  0  0  0
   -9.7283    2.0015  -21.9554 H   0  0  0  0  0  0  0  0  0  0  0  0
  -10.6168    0.8893  -23.0315 H   0  0  0  0  0  0  0  0  0  0  0  0
   -8.5542   -0.2451  -21.5011 C   0  0  0  0  0  0  0  0  0  0  0  0
   -9.4138    0.0284  -20.7037 O   0  0  0  0  0  0  0  0  0  0  0  0
   -7.4667   -1.2717  -21.2390 C   0  0  0  0  0  0  0  0  0  0  0  0
   -6.5756   -0.7647  -20.1427 C   0  0  0  0  0  0  0  0  0  0  0  0
   -6.8624   -1.0437  -18.8337 C   0  0  0  0  0  0  0  0  0  0  0  0
   -6.1797   -0.5541  -17.7671 N   0  0  0  0  0  0  0  0  0  0  0  0
   -5.1618    0.2302  -18.0255 C   0  0  0  0  0  0  0  0  0  0  0  0
   -4.7484    0.6009  -19.3353 C   0  0  0  0  0  0  0  0  0  0  0  0
   -3.6281    1.4397  -19.5650 C   0  0  0  0  0  0  0  0  0  0  0  0
   -3.2976    1.8259  -20.8336 C   0  0  0  0  0  0  0  0  0  0  0  0
   -4.0819    1.4067  -21.9311 C   0  0  0  0  0  0  0  0  0  0  0  0
   -5.1538    0.5649  -21.7367 C   0  0  0  0  0  0  0  0  0  0  0  0
   -5.5047    0.1270  -20.4305 C   0  0  0  0  0  0  0  0  0  0  0  0
   -5.7140    0.2172  -22.6015 H   0  0  0  0  0  0  0  0  0  0  0  0
   -3.8255    1.7381  -22.9334 H   0  0  0  0  0  0  0  0  0  0  0  0
   -2.4423    2.4737  -21.0053 H   0  0  0  0  0  0  0  0  0  0  0  0
   -3.0600    1.7887  -18.7065 H   0  0  0  0  0  0  0  0  0  0  0  0
   -4.6030    0.6112  -17.1693 H   0  0  0  0  0  0  0  0  0  0  0  0
   -7.7103   -1.6838  -18.5931 H   0  0  0  0  0  0  0  0  0  0  0  0
   -6.9200   -1.4874  -22.1575 H   0  0  0  0  0  0  0  0  0  0  0  0
   -7.9820   -2.1850  -20.9214 H   0  0  0  0  0  0  0  0  0  0  0  0
   -7.6543    1.0052  -22.8069 H   0  0  0  0  0  0  0  0  0  0  0  0
   -6.7768    0.7891  -24.7666 H   0  0  0  0  0  0  0  0  0  0  0  0
   -6.4630   -0.5413  -26.8444 H   0  0  0  0  0  0  0  0  0  0  0  0
   -7.9646   -2.4241  -27.3266 H   0  0  0  0  0  0  0  0  0  0  0  0
  -10.5564   -1.2419  -22.6040 H   0  0  0  0  0  0  0  0  0  0  0  0
   -9.6585   -2.7455  -22.4713 H   0  0  0  0  0  0  0  0  0  0  0  0
  -11.8185   -2.1178  -24.4875 H   0  0  0  0  0  0  0  0  0  0  0  0
  -12.0157   -3.2197  -23.1085 H   0  0  0  0  0  0  0  0  0  0  0  0
  -11.5743   -4.4723  -25.1536 H   0  0  0  0  0  0  0  0  0  0  0  0
  -10.1647   -4.6540  -24.0854 H   0  0  0  0  0  0  0  0  0  0  0  0
  -10.1666   -5.9991  -26.0912 H   0  0  0  0  0  0  0  0  0  0  0  0
  -10.7657   -5.2346  -29.0112 H   0  0  0  0  0  0  0  0  0  0  0  0
  -11.0451   -6.9487  -28.3085 H   0  0  0  0  0  0  0  0  0  0  0  0
  1  2  2  0
  2  3  1  0
  3  4  2  0
  3  5  1  0
  5  6  1  0
  6  7  1  0
  7  8  1  0
  8  9  1  0
  9 10  2  0
 10 11  1  0
 11 12  2  0
 12 13  1  0
 13 14  2  0
 14 15  1  0
 15 16  1  0
 16 17  1  0
 17 18  2  0
 18 19  1  0
 19 20  2  0
 20 21  1  0
 21 22  1  0
 21 23  2  0
 23 24  1  0
 20 25  1  0
 19 26  1  0
 18 27  1  0
 16 28  1  0
 16 29  1  0
 15 30  1  0
 30 31  2  0
 30 32  1  0
 32 33  1  0
 33 34  2  0
 34 35  1  0
 35 36  2  0
 36 37  1  0
 37 38  2  0
 38 39  1  0
 39 40  2  0
 40 41  1  0
 41 42  2  0
 41 43  1  0
 40 44  1  0
 39 45  1  0
 38 46  1  0
 36 47  1  0
 34 48  1  0
 32 49  1  0
 32 50  1  0
 15 51  1  1
 13 52  1  0
 12 53  1  0
 11 54  1  0
  8 55  1  0
  8 56  1  0
  7 57  1  0
  7 58  1  0
  6 59  1  0
  6 60  1  0
  2 61  1  0
  1 62  1  0
  1 63  1  0
 10  5  1  0
 23 17  1  0
 42 33  1  0
 14  9  1  0
 42 37  1  0
M  CHG  1  15   1
M  END
>  <cnnaffinities>  (67) 
[6.32961, 5.6658]

>  <score>  (67) 
6.32961

>  <index>  (67) 
69

>  <Smiles>  (67) 
C(=C(C(=O)N1C(C(C(c2c1c(c(c(c2[N@@+](C(c1c(c(c(c(Cl)c1[H])[H])[H])[H])([H])[H])(C(=O)C(c1c(nc(c2c(c(c(c(c12)[H])[H])[H])[H])[H])[H])([H])[H])[H])[H])[H])[H])([H])[H])([H])[H])([H])[H])[H])([H])[H]

>  <h>  (67) 
<NA>

>  <Training>  (67) 
True

>  <Success>  (67) 
True

>  <enamine_searched>  (67) 
False

>  <enamine_id>  (67) 
nan

$$$$

     RDKit          3D

 52 54  0  0  0  0  0  0  0  0999 V2000
  -11.0130   -7.4182  -26.8362 C   0  0  0  0  0  0  0  0  0  0  0  0
  -10.0038   -6.3349  -26.4857 C   0  0  0  0  0  0  0  0  0  0  0  0
  -10.5819   -4.9868  -26.9025 C   0  0  0  0  0  0  0  0  0  0  0  0
  -11.0422   -5.0498  -27.8906 H   0  0  0  0  0  0  0  0  0  0  0  0
   -9.8390   -4.1896  -26.9317 H   0  0  0  0  0  0  0  0  0  0  0  0
  -11.3725   -4.6705  -26.2153 H   0  0  0  0  0  0  0  0  0  0  0  0
   -9.6714   -6.3767  -24.9821 C   0  0  0  0  0  0  0  0  0  0  0  0
   -8.5465   -5.4494  -24.4660 C   0  0  0  0  0  0  0  0  0  0  0  0
   -7.3879   -5.5203  -25.4797 C   0  0  0  0  0  0  0  0  0  0  0  0
   -7.0999   -6.5632  -25.6609 H   0  0  0  0  0  0  0  0  0  0  0  0
   -6.4871   -4.9869  -25.1696 H   0  0  0  0  0  0  0  0  0  0  0  0
   -7.6825   -5.0865  -26.4396 H   0  0  0  0  0  0  0  0  0  0  0  0
   -8.0541   -5.9675  -23.0893 C   0  0  0  0  0  0  0  0  0  0  0  0
   -6.9743   -5.0515  -22.5349 C   0  0  0  0  0  0  0  0  0  0  0  0
   -7.5295   -3.7157  -22.3384 N   0  0  0  0  0  0  0  0  0  0  0  0
   -6.7487   -2.8155  -21.6768 C   0  0  0  0  0  0  0  0  0  0  0  0
   -5.5803   -3.0463  -21.4025 O   0  0  0  0  0  0  0  0  0  0  0  0
   -7.4216   -1.5006  -21.2586 C   0  0  0  0  0  0  0  0  0  0  0  0
   -6.6473   -0.7999  -20.1877 C   0  0  0  0  0  0  0  0  0  0  0  0
   -6.9267   -1.0865  -18.8800 C   0  0  0  0  0  0  0  0  0  0  0  0
   -6.2558   -0.6033  -17.8045 N   0  0  0  0  0  0  0  0  0  0  0  0
   -5.2277    0.1725  -18.0557 C   0  0  0  0  0  0  0  0  0  0  0  0
   -4.8067    0.5409  -19.3630 C   0  0  0  0  0  0  0  0  0  0  0  0
   -3.6926    1.3894  -19.5792 C   0  0  0  0  0  0  0  0  0  0  0  0
   -3.3743    1.8131  -20.8423 C   0  0  0  0  0  0  0  0  0  0  0  0
   -4.1753    1.4240  -21.9426 C   0  0  0  0  0  0  0  0  0  0  0  0
   -5.2395    0.5776  -21.7627 C   0  0  0  0  0  0  0  0  0  0  0  0
   -5.5684    0.0887  -20.4687 C   0  0  0  0  0  0  0  0  0  0  0  0
   -5.8329    0.2672  -22.6201 H   0  0  0  0  0  0  0  0  0  0  0  0
   -3.9275    1.7865  -22.9389 H   0  0  0  0  0  0  0  0  0  0  0  0
   -2.5232    2.4685  -21.0036 H   0  0  0  0  0  0  0  0  0  0  0  0
   -3.1213    1.7233  -18.7144 H   0  0  0  0  0  0  0  0  0  0  0  0
   -4.6835    0.5632  -17.1950 H   0  0  0  0  0  0  0  0  0  0  0  0
   -7.7441   -1.7692  -18.6424 H   0  0  0  0  0  0  0  0  0  0  0  0
   -7.5631   -0.8734  -22.1459 H   0  0  0  0  0  0  0  0  0  0  0  0
   -8.4215   -1.7380  -20.8705 H   0  0  0  0  0  0  0  0  0  0  0  0
   -8.8740   -3.4578  -22.8533 C   0  0  0  0  0  0  0  0  0  0  0  0
   -9.0410   -3.9836  -24.2835 C   0  0  0  0  0  0  0  0  0  0  0  0
  -10.1066   -3.8988  -24.5275 H   0  0  0  0  0  0  0  0  0  0  0  0
   -8.4991   -3.3133  -24.9651 H   0  0  0  0  0  0  0  0  0  0  0  0
   -9.6315   -3.9189  -22.2028 H   0  0  0  0  0  0  0  0  0  0  0  0
   -9.0600   -2.3813  -22.8495 H   0  0  0  0  0  0  0  0  0  0  0  0
   -6.1188   -4.9952  -23.2194 H   0  0  0  0  0  0  0  0  0  0  0  0
   -6.5540   -5.4142  -21.5920 H   0  0  0  0  0  0  0  0  0  0  0  0
   -8.8883   -6.0076  -22.3711 H   0  0  0  0  0  0  0  0  0  0  0  0
   -7.6626   -6.9880  -23.1717 H   0  0  0  0  0  0  0  0  0  0  0  0
  -10.5962   -6.1629  -24.4234 H   0  0  0  0  0  0  0  0  0  0  0  0
   -9.4114   -7.4089  -24.7216 H   0  0  0  0  0  0  0  0  0  0  0  0
   -9.1055   -6.5346  -27.0826 H   0  0  0  0  0  0  0  0  0  0  0  0
  -10.6363   -8.4282  -26.6444 H   0  0  0  0  0  0  0  0  0  0  0  0
  -11.8923   -7.2596  -26.2079 H   0  0  0  0  0  0  0  0  0  0  0  0
  -11.3211   -7.3386  -27.8876 H   0  0  0  0  0  0  0  0  0  0  0  0
  1  2  1  0
  2  3  1  0
  3  4  1  0
  3  5  1  0
  3  6  1  0
  2  7  1  0
  7  8  1  0
  8  9  1  0
  9 10  1  0
  9 11  1  0
  9 12  1  0
  8 13  1  0
 13 14  1  0
 14 15  1  0
 15 16  1  0
 16 17  2  0
 16 18  1  0
 18 19  1  0
 19 20  2  0
 20 21  1  0
 21 22  2  0
 22 23  1  0
 23 24  2  0
 24 25  1  0
 25 26  2  0
 26 27  1  0
 27 28  2  0
 27 29  1  0
 26 30  1  0
 25 31  1  0
 24 32  1  0
 22 33  1  0
 20 34  1  0
 18 35  1  0
 18 36  1  0
 15 37  1  0
 37 38  1  0
 38 39  1  0
 38 40  1  0
 37 41  1  0
 37 42  1  0
 14 43  1  0
 14 44  1  0
 13 45  1  0
 13 46  1  0
  7 47  1  0
  7 48  1  0
  2 49  1  0
  1 50  1  0
  1 51  1  0
  1 52  1  0
 38  8  1  0
 28 19  1  0
 28 23  1  0
M  END
>  <cnnaffinities>  (68) 
[4.50962, 4.61609]

>  <score>  (68) 
4.50962

>  <index>  (68) 
70

>  <Smiles>  (68) 
C(C(C([H])([H])[H])(C(C1(C([H])([H])[H])C(C(N(C(=O)C(c2c(nc(c3c(c(c(c(c23)[H])[H])[H])[H])[H])[H])([H])[H])C(C1([H])[H])([H])[H])([H])[H])([H])[H])([H])[H])[H])([H])([H])[H]

>  <h>  (68) 
<NA>

>  <Training>  (68) 
True

>  <Success>  (68) 
True

>  <enamine_searched>  (68) 
False

>  <enamine_id>  (68) 
nan

$$$$

     RDKit          3D

 50 54  0  0  0  0  0  0  0  0999 V2000
  -10.3738   -1.0986  -23.3523 C   0  0  0  0  0  0  0  0  0  0  0  0
   -8.9375   -1.4381  -22.9844 C   0  0  1  0  0  0  0  0  0  0  0  0
   -8.3987   -0.4800  -21.9148 C   0  0  0  0  0  0  0  0  0  0  0  0
   -7.3818   -1.2578  -21.2418 N   0  0  0  0  0  0  0  0  0  0  0  0
   -6.6117   -0.7464  -20.1754 C   0  0  0  0  0  0  0  0  0  0  0  0
   -6.8965   -1.0777  -18.8743 C   0  0  0  0  0  0  0  0  0  0  0  0
   -6.2120   -0.5923  -17.8085 N   0  0  0  0  0  0  0  0  0  0  0  0
   -5.2046    0.2129  -18.0501 C   0  0  0  0  0  0  0  0  0  0  0  0
   -4.7941    0.6135  -19.3553 C   0  0  0  0  0  0  0  0  0  0  0  0
   -3.6687    1.4482  -19.5799 C   0  0  0  0  0  0  0  0  0  0  0  0
   -3.3328    1.8278  -20.8510 C   0  0  0  0  0  0  0  0  0  0  0  0
   -4.1193    1.4195  -21.9536 C   0  0  0  0  0  0  0  0  0  0  0  0
   -5.2035    0.5985  -21.7650 C   0  0  0  0  0  0  0  0  0  0  0  0
   -5.5427    0.1551  -20.4580 C   0  0  0  0  0  0  0  0  0  0  0  0
   -5.7920    0.2561  -22.6123 H   0  0  0  0  0  0  0  0  0  0  0  0
   -3.8439    1.7268  -22.9594 H   0  0  0  0  0  0  0  0  0  0  0  0
   -2.4518    2.4396  -21.0271 H   0  0  0  0  0  0  0  0  0  0  0  0
   -3.0845    1.7634  -18.7192 H   0  0  0  0  0  0  0  0  0  0  0  0
   -4.6579    0.6065  -17.1923 H   0  0  0  0  0  0  0  0  0  0  0  0
   -7.7031   -1.7708  -18.6360 H   0  0  0  0  0  0  0  0  0  0  0  0
   -7.4746   -2.6148  -21.4825 C   0  0  0  0  0  0  0  0  0  0  0  0
   -6.6724   -3.4198  -21.0628 O   0  0  0  0  0  0  0  0  0  0  0  0
   -8.7179   -2.8674  -22.3667 C   0  0  1  0  0  0  0  0  0  0  0  0
   -9.9111   -3.2866  -21.4642 C   0  0  0  0  0  0  0  0  0  0  0  0
  -11.0776   -3.7205  -22.2307 N   0  0  0  0  0  0  0  0  0  0  0  0
  -12.4450   -3.4938  -21.7790 C   0  0  0  0  0  0  0  0  0  0  0  0
  -13.0550   -2.2466  -22.2762 C   0  0  0  0  0  0  0  0  0  0  0  0
  -13.5689   -1.2959  -22.6965 N   0  0  0  0  0  0  0  0  0  0  0  0
  -12.5034   -3.5133  -20.6865 H   0  0  0  0  0  0  0  0  0  0  0  0
  -13.0494   -4.3109  -22.1932 H   0  0  0  0  0  0  0  0  0  0  0  0
  -10.9293   -4.5714  -23.2998 C   0  0  0  0  0  0  0  0  0  0  0  0
  -11.8829   -5.1093  -23.8364 O   0  0  0  0  0  0  0  0  0  0  0  0
   -9.5331   -4.7697  -23.8047 C   0  0  0  0  0  0  0  0  0  0  0  0
   -9.3297   -5.7629  -24.7603 C   0  0  0  0  0  0  0  0  0  0  0  0
   -8.0839   -5.9333  -25.3335 C   0  0  0  0  0  0  0  0  0  0  0  0
   -7.0515   -5.0854  -24.9439 C   0  0  0  0  0  0  0  0  0  0  0  0
   -5.8462   -5.2274  -25.5202 F   0  0  0  0  0  0  0  0  0  0  0  0
   -7.2189   -4.1083  -23.9840 C   0  0  0  0  0  0  0  0  0  0  0  0
   -8.4787   -3.9481  -23.3933 C   0  0  0  0  0  0  0  0  0  0  0  0
   -6.3623   -3.5172  -23.6752 H   0  0  0  0  0  0  0  0  0  0  0  0
   -7.9039   -6.6971  -26.0798 H   0  0  0  0  0  0  0  0  0  0  0  0
  -10.1782   -6.3851  -25.0299 H   0  0  0  0  0  0  0  0  0  0  0  0
   -9.5732   -4.0883  -20.7982 H   0  0  0  0  0  0  0  0  0  0  0  0
  -10.1701   -2.4268  -20.8412 H   0  0  0  0  0  0  0  0  0  0  0  0
   -9.1953   -0.1878  -21.2169 H   0  0  0  0  0  0  0  0  0  0  0  0
   -8.0072    0.4571  -22.3198 H   0  0  0  0  0  0  0  0  0  0  0  0
   -8.2932   -1.3868  -23.8742 H   0  0  0  0  0  0  0  0  0  0  0  0
  -10.4708   -0.1487  -23.8832 H   0  0  0  0  0  0  0  0  0  0  0  0
  -10.9732   -1.0087  -22.4433 H   0  0  0  0  0  0  0  0  0  0  0  0
  -10.8244   -1.8825  -23.9652 H   0  0  0  0  0  0  0  0  0  0  0  0
  1  2  1  0
  2  3  1  0
  3  4  1  0
  4  5  1  0
  5  6  2  0
  6  7  1  0
  7  8  2  0
  8  9  1  0
  9 10  2  0
 10 11  1  0
 11 12  2  0
 12 13  1  0
 13 14  2  0
 13 15  1  0
 12 16  1  0
 11 17  1  0
 10 18  1  0
  8 19  1  0
  6 20  1  0
  4 21  1  0
 21 22  2  0
 21 23  1  0
 23 24  1  1
 24 25  1  0
 25 26  1  0
 26 27  1  0
 27 28  3  0
 26 29  1  0
 26 30  1  0
 25 31  1  0
 31 32  2  0
 31 33  1  0
 33 34  2  0
 34 35  1  0
 35 36  2  0
 36 37  1  0
 36 38  1  0
 38 39  2  0
 38 40  1  0
 35 41  1  0
 34 42  1  0
 24 43  1  0
 24 44  1  0
  3 45  1  0
  3 46  1  0
  2 47  1  6
  1 48  1  0
  1 49  1  0
  1 50  1  0
 23  2  1  0
 39 33  1  0
 14  5  1  0
 39 23  1  0
 14  9  1  0
M  END
>  <cnnaffinities>  (69) 
[6.16528]

>  <score>  (69) 
6.16528

>  <index>  (69) 
71

>  <Smiles>  (69) 
C([C@]1(C(N(c2c(nc(c3c(c(c(c(c23)[H])[H])[H])[H])[H])[H])C(=O)[C@]21C(N(C(C#N)([H])[H])C(=O)c1c(c(c(F)c(c21)[H])[H])[H])([H])[H])([H])[H])[H])([H])([H])[H]

>  <h>  (69) 
<NA>

>  <Training>  (69) 
True

>  <Success>  (69) 
True

>  <enamine_searched>  (69) 
False

>  <enamine_id>  (69) 
nan

$$$$

     RDKit          3D

 41 44  0  0  0  0  0  0  0  0999 V2000
   -5.5029   -2.9698  -21.4787 O   0  0  0  0  0  0  0  0  0  0  0  0
   -6.5731   -2.5831  -21.9148 C   0  0  0  0  0  0  0  0  0  0  0  0
   -7.3653   -1.4539  -21.2598 C   0  0  0  0  0  0  0  0  0  0  0  0
   -6.6131   -0.7840  -20.1641 C   0  0  0  0  0  0  0  0  0  0  0  0
   -6.8926   -1.0693  -18.8559 C   0  0  0  0  0  0  0  0  0  0  0  0
   -6.2167   -0.5834  -17.7843 N   0  0  0  0  0  0  0  0  0  0  0  0
   -5.2026    0.2096  -18.0412 C   0  0  0  0  0  0  0  0  0  0  0  0
   -4.7953    0.5828  -19.3518 C   0  0  0  0  0  0  0  0  0  0  0  0
   -3.6553    1.3922  -19.5812 C   0  0  0  0  0  0  0  0  0  0  0  0
   -3.3178    1.7767  -20.8497 C   0  0  0  0  0  0  0  0  0  0  0  0
   -4.1131    1.3831  -21.9450 C   0  0  0  0  0  0  0  0  0  0  0  0
   -5.2006    0.5577  -21.7569 C   0  0  0  0  0  0  0  0  0  0  0  0
   -5.5465    0.1146  -20.4505 C   0  0  0  0  0  0  0  0  0  0  0  0
   -5.7706    0.2150  -22.6160 H   0  0  0  0  0  0  0  0  0  0  0  0
   -3.8537    1.7186  -22.9449 H   0  0  0  0  0  0  0  0  0  0  0  0
   -2.4387    2.3942  -21.0196 H   0  0  0  0  0  0  0  0  0  0  0  0
   -3.0807    1.7194  -18.7222 H   0  0  0  0  0  0  0  0  0  0  0  0
   -4.6401    0.5887  -17.1867 H   0  0  0  0  0  0  0  0  0  0  0  0
   -7.7222   -1.7347  -18.6156 H   0  0  0  0  0  0  0  0  0  0  0  0
   -7.6201   -0.7348  -22.0460 H   0  0  0  0  0  0  0  0  0  0  0  0
   -8.3002   -1.8921  -20.8756 H   0  0  0  0  0  0  0  0  0  0  0  0
   -7.1569   -3.1152  -23.0378 N   0  0  0  0  0  0  0  0  0  0  0  0
   -8.5623   -2.9219  -23.3850 C   0  0  0  0  0  0  0  0  0  0  0  0
   -9.4815   -3.9872  -22.7873 C   0  0  0  0  0  0  0  0  0  0  0  0
   -9.1779   -5.3857  -23.3566 C   0  0  0  0  0  0  0  0  0  0  0  0
   -7.9537   -6.0417  -22.7636 C   0  0  0  0  0  0  0  0  0  0  0  0
   -7.9447   -7.5541  -21.9196 S   0  0  0  0  0  0  0  0  0  0  0  0
   -6.2240   -7.5345  -21.7960 C   0  0  0  0  0  0  0  0  0  0  0  0
   -5.6864   -6.4302  -22.3767 C   0  0  0  0  0  0  0  0  0  0  0  0
   -6.6884   -5.5612  -22.9171 C   0  0  0  0  0  0  0  0  0  0  0  0
   -6.4749   -4.2533  -23.6460 C   0  0  0  0  0  0  0  0  0  0  0  0
   -5.4168   -3.9993  -23.7234 H   0  0  0  0  0  0  0  0  0  0  0  0
   -6.8646   -4.3265  -24.6649 H   0  0  0  0  0  0  0  0  0  0  0  0
   -4.6174   -6.2364  -22.4304 H   0  0  0  0  0  0  0  0  0  0  0  0
   -5.6691   -8.3449  -21.3386 H   0  0  0  0  0  0  0  0  0  0  0  0
   -8.9806   -5.2637  -24.4338 H   0  0  0  0  0  0  0  0  0  0  0  0
  -10.0429   -6.0346  -23.3073 H   0  0  0  0  0  0  0  0  0  0  0  0
  -10.5213   -3.7264  -23.0136 H   0  0  0  0  0  0  0  0  0  0  0  0
   -9.4030   -3.9879  -21.6949 H   0  0  0  0  0  0  0  0  0  0  0  0
   -8.6347   -2.9741  -24.4793 H   0  0  0  0  0  0  0  0  0  0  0  0
   -8.8875   -1.9131  -23.0978 H   0  0  0  0  0  0  0  0  0  0  0  0
  1  2  2  0
  2  3  1  0
  3  4  1  0
  4  5  2  0
  5  6  1  0
  6  7  2  0
  7  8  1  0
  8  9  2  0
  9 10  1  0
 10 11  2  0
 11 12  1  0
 12 13  2  0
 12 14  1  0
 11 15  1  0
 10 16  1  0
  9 17  1  0
  7 18  1  0
  5 19  1  0
  3 20  1  0
  3 21  1  0
  2 22  1  0
 22 23  1  0
 23 24  1  0
 24 25  1  0
 25 26  1  0
 26 27  1  0
 27 28  1  0
 28 29  2  0
 29 30  1  0
 30 31  1  0
 31 32  1  0
 31 33  1  0
 29 34  1  0
 28 35  1  0
 25 36  1  0
 25 37  1  0
 24 38  1  0
 24 39  1  0
 23 40  1  0
 23 41  1  0
 13  4  1  0
 31 22  1  0
 13  8  1  0
 30 26  2  0
M  END
>  <cnnaffinities>  (70) 
[4.51401, 4.78657]

>  <score>  (70) 
4.51401

>  <index>  (70) 
72

>  <Smiles>  (70) 
O=C(C(c1c(nc(c2c(c(c(c(c12)[H])[H])[H])[H])[H])[H])([H])[H])N1C(C(C(c2sc(c(c2C1([H])[H])[H])[H])([H])[H])([H])[H])([H])[H]

>  <h>  (70) 
<NA>

>  <Training>  (70) 
True

>  <Success>  (70) 
True

>  <enamine_searched>  (70) 
False

>  <enamine_id>  (70) 
nan

$$$$

     RDKit          3D

 50 53  0  0  0  0  0  0  0  0999 V2000
   -5.5970   -3.0168  -21.5777 O   0  0  0  0  0  0  0  0  0  0  0  0
   -6.7547   -2.7532  -21.8572 C   0  0  0  0  0  0  0  0  0  0  0  0
   -7.4144   -1.4794  -21.2677 C   0  0  0  0  0  0  0  0  0  0  0  0
   -6.5792   -0.8324  -20.1820 C   0  0  0  0  0  0  0  0  0  0  0  0
   -6.8730   -1.0479  -18.8624 C   0  0  0  0  0  0  0  0  0  0  0  0
   -6.1897   -0.5433  -17.7999 N   0  0  0  0  0  0  0  0  0  0  0  0
   -5.1573    0.2207  -18.0634 C   0  0  0  0  0  0  0  0  0  0  0  0
   -4.7224    0.5334  -19.3771 C   0  0  0  0  0  0  0  0  0  0  0  0
   -3.5928    1.3597  -19.6152 C   0  0  0  0  0  0  0  0  0  0  0  0
   -3.2137    1.6727  -20.8921 C   0  0  0  0  0  0  0  0  0  0  0  0
   -3.9799    1.2069  -21.9807 C   0  0  0  0  0  0  0  0  0  0  0  0
   -5.0657    0.3815  -21.7777 C   0  0  0  0  0  0  0  0  0  0  0  0
   -5.4617    0.0107  -20.4703 C   0  0  0  0  0  0  0  0  0  0  0  0
   -5.5371   -0.1065  -22.6256 H   0  0  0  0  0  0  0  0  0  0  0  0
   -3.5983    1.3524  -22.9879 H   0  0  0  0  0  0  0  0  0  0  0  0
   -2.3220    2.2710  -21.0816 H   0  0  0  0  0  0  0  0  0  0  0  0
   -3.0532    1.7672  -18.7613 H   0  0  0  0  0  0  0  0  0  0  0  0
   -4.6031    0.6285  -17.2139 H   0  0  0  0  0  0  0  0  0  0  0  0
   -7.7216   -1.6715  -18.5845 H   0  0  0  0  0  0  0  0  0  0  0  0
   -7.6153   -0.7507  -22.0665 H   0  0  0  0  0  0  0  0  0  0  0  0
   -8.3961   -1.7488  -20.8491 H   0  0  0  0  0  0  0  0  0  0  0  0
   -7.5173   -3.5823  -22.6631 N   0  0  0  0  0  0  0  0  0  0  0  0
   -8.6634   -3.1251  -23.4519 C   0  0  0  0  0  0  0  0  0  0  0  0
   -9.7355   -4.2013  -23.5631 C   0  0  0  0  0  0  0  0  0  0  0  0
   -9.1631   -5.5031  -24.1046 C   0  0  0  0  0  0  0  0  0  0  0  0
   -7.9857   -5.9376  -23.2408 C   0  0  0  0  0  0  0  0  0  0  0  0
   -6.9114   -4.8540  -23.1003 C   0  0  1  0  0  0  0  0  0  0  0  0
   -6.0436   -4.6963  -24.3701 C   0  0  0  0  0  0  0  0  0  0  0  0
   -5.2089   -5.9204  -24.6873 C   0  0  0  0  0  0  0  0  0  0  0  0
   -4.0474   -6.1888  -23.9576 C   0  0  0  0  0  0  0  0  0  0  0  0
   -3.2844   -7.3205  -24.2201 C   0  0  0  0  0  0  0  0  0  0  0  0
   -3.6709   -8.2110  -25.2177 C   0  0  0  0  0  0  0  0  0  0  0  0
   -4.8277   -7.9602  -25.9499 C   0  0  0  0  0  0  0  0  0  0  0  0
   -5.5861   -6.8241  -25.6833 C   0  0  0  0  0  0  0  0  0  0  0  0
   -6.4952   -6.6406  -26.2537 H   0  0  0  0  0  0  0  0  0  0  0  0
   -5.1412   -8.6464  -26.7323 H   0  0  0  0  0  0  0  0  0  0  0  0
   -3.0714   -9.0926  -25.4258 H   0  0  0  0  0  0  0  0  0  0  0  0
   -2.3826   -7.5098  -23.6435 H   0  0  0  0  0  0  0  0  0  0  0  0
   -3.7426   -5.4993  -23.1729 H   0  0  0  0  0  0  0  0  0  0  0  0
   -6.6864   -4.4569  -25.2258 H   0  0  0  0  0  0  0  0  0  0  0  0
   -5.3814   -3.8372  -24.2158 H   0  0  0  0  0  0  0  0  0  0  0  0
   -6.2383   -5.1545  -22.2957 H   0  0  0  0  0  0  0  0  0  0  0  0
   -8.3528   -6.1939  -22.2419 H   0  0  0  0  0  0  0  0  0  0  0  0
   -7.5380   -6.8543  -23.6383 H   0  0  0  0  0  0  0  0  0  0  0  0
   -9.9338   -6.2835  -24.1226 H   0  0  0  0  0  0  0  0  0  0  0  0
   -8.8391   -5.3755  -25.1464 H   0  0  0  0  0  0  0  0  0  0  0  0
  -10.1669   -4.3776  -22.5733 H   0  0  0  0  0  0  0  0  0  0  0  0
  -10.5521   -3.8477  -24.2007 H   0  0  0  0  0  0  0  0  0  0  0  0
   -9.0862   -2.2315  -22.9905 H   0  0  0  0  0  0  0  0  0  0  0  0
   -8.3533   -2.8305  -24.4667 H   0  0  0  0  0  0  0  0  0  0  0  0
  1  2  2  0
  2  3  1  0
  3  4  1  0
  4  5  2  0
  5  6  1  0
  6  7  2  0
  7  8  1  0
  8  9  2  0
  9 10  1  0
 10 11  2  0
 11 12  1  0
 12 13  2  0
 12 14  1  0
 11 15  1  0
 10 16  1  0
  9 17  1  0
  7 18  1  0
  5 19  1  0
  3 20  1  0
  3 21  1  0
  2 22  1  0
 22 23  1  0
 23 24  1  0
 24 25  1  0
 25 26  1  0
 26 27  1  0
 27 28  1  0
 28 29  1  0
 29 30  2  0
 30 31  1  0
 31 32  2  0
 32 33  1  0
 33 34  2  0
 34 35  1  0
 33 36  1  0
 32 37  1  0
 31 38  1  0
 30 39  1  0
 28 40  1  0
 28 41  1  0
 27 42  1  1
 26 43  1  0
 26 44  1  0
 25 45  1  0
 25 46  1  0
 24 47  1  0
 24 48  1  0
 23 49  1  0
 23 50  1  0
 13  4  1  0
 27 22  1  0
 34 29  1  0
 13  8  1  0
M  END
>  <cnnaffinities>  (71) 
[5.50667, 5.2331]

>  <score>  (71) 
5.50667

>  <index>  (71) 
73

>  <Smiles>  (71) 
O=C(C(c1c(nc(c2c(c(c(c(c12)[H])[H])[H])[H])[H])[H])([H])[H])N1C(C(C(C([C@]1(C(c1c(c(c(c(c1[H])[H])[H])[H])[H])([H])[H])[H])([H])[H])([H])[H])([H])[H])([H])[H]

>  <h>  (71) 
<NA>

>  <Training>  (71) 
True

>  <Success>  (71) 
True

>  <enamine_searched>  (71) 
False

>  <enamine_id>  (71) 
nan

$$$$

     RDKit          3D

 43 47  0  0  0  0  0  0  0  0999 V2000
   -9.4149   -0.4343  -20.9946 O   0  0  0  0  0  0  0  0  0  0  0  0
   -8.7410   -1.3607  -21.3830 C   0  0  0  0  0  0  0  0  0  0  0  0
   -9.1345   -2.4456  -22.1157 N   0  0  0  0  0  0  0  0  0  0  0  0
   -8.0374   -3.1467  -22.7373 C   0  0  1  0  0  0  0  0  0  0  0  0
   -8.1052   -4.6893  -22.7141 C   0  0  0  0  0  0  0  0  0  0  0  0
   -8.2237   -4.7223  -24.2734 C   0  0  2  0  0  0  0  0  0  0  0  0
   -7.1779   -5.5235  -24.9868 C   0  0  0  0  0  0  0  0  0  0  0  0
   -5.8218   -5.2783  -24.7416 C   0  0  0  0  0  0  0  0  0  0  0  0
   -4.8303   -6.0108  -25.3847 C   0  0  0  0  0  0  0  0  0  0  0  0
   -5.1794   -7.0130  -26.2894 C   0  0  0  0  0  0  0  0  0  0  0  0
   -6.5195   -7.2768  -26.5444 C   0  0  0  0  0  0  0  0  0  0  0  0
   -7.4986   -6.5353  -25.8934 C   0  0  0  0  0  0  0  0  0  0  0  0
   -9.1668   -6.9192  -26.2489 Cl  0  0  0  0  0  0  0  0  0  0  0  0
   -6.8255   -8.0484  -27.2449 H   0  0  0  0  0  0  0  0  0  0  0  0
   -4.4091   -7.5881  -26.7972 H   0  0  0  0  0  0  0  0  0  0  0  0
   -3.7852   -5.7950  -25.1783 H   0  0  0  0  0  0  0  0  0  0  0  0
   -5.5511   -4.4959  -24.0290 H   0  0  0  0  0  0  0  0  0  0  0  0
   -8.0325   -3.1702  -24.2946 C   0  0  0  0  0  0  0  0  0  0  0  0
   -8.8528   -2.6037  -24.7490 H   0  0  0  0  0  0  0  0  0  0  0  0
   -7.0969   -2.8303  -24.7562 H   0  0  0  0  0  0  0  0  0  0  0  0
   -9.2223   -5.0215  -24.6051 H   0  0  0  0  0  0  0  0  0  0  0  0
   -8.9690   -5.0735  -22.1637 H   0  0  0  0  0  0  0  0  0  0  0  0
   -7.1944   -5.1547  -22.3192 H   0  0  0  0  0  0  0  0  0  0  0  0
   -6.8391   -2.5139  -22.0492 C   0  0  0  0  0  0  0  0  0  0  0  0
   -5.6735   -2.7984  -22.2174 O   0  0  0  0  0  0  0  0  0  0  0  0
   -7.3395   -1.5108  -21.2089 N   0  0  0  0  0  0  0  0  0  0  0  0
   -6.5885   -0.8519  -20.1860 C   0  0  0  0  0  0  0  0  0  0  0  0
   -6.9098   -1.0640  -18.8666 C   0  0  0  0  0  0  0  0  0  0  0  0
   -6.2165   -0.5503  -17.8210 N   0  0  0  0  0  0  0  0  0  0  0  0
   -5.1811    0.2040  -18.0937 C   0  0  0  0  0  0  0  0  0  0  0  0
   -4.7562    0.5369  -19.4079 C   0  0  0  0  0  0  0  0  0  0  0  0
   -3.6277    1.3709  -19.6297 C   0  0  0  0  0  0  0  0  0  0  0  0
   -3.2617    1.7104  -20.9015 C   0  0  0  0  0  0  0  0  0  0  0  0
   -4.0280    1.2512  -21.9945 C   0  0  0  0  0  0  0  0  0  0  0  0
   -5.1145    0.4269  -21.8062 C   0  0  0  0  0  0  0  0  0  0  0  0
   -5.4969    0.0274  -20.4961 C   0  0  0  0  0  0  0  0  0  0  0  0
   -5.6347    0.0041  -22.6612 H   0  0  0  0  0  0  0  0  0  0  0  0
   -3.6933    1.4763  -23.0024 H   0  0  0  0  0  0  0  0  0  0  0  0
   -2.3735    2.3109  -21.0814 H   0  0  0  0  0  0  0  0  0  0  0  0
   -3.0796    1.7373  -18.7669 H   0  0  0  0  0  0  0  0  0  0  0  0
   -4.6298    0.6060  -17.2464 H   0  0  0  0  0  0  0  0  0  0  0  0
   -7.7586   -1.6892  -18.5997 H   0  0  0  0  0  0  0  0  0  0  0  0
  -10.0987   -2.6030  -22.3631 H   0  0  0  0  0  0  0  0  0  0  0  0
  1  2  2  0
  2  3  1  0
  4  3  1  6
  4  5  1  0
  5  6  1  0
  6  7  1  0
  7  8  2  0
  8  9  1  0
  9 10  2  0
 10 11  1  0
 11 12  2  0
 12 13  1  0
 11 14  1  0
 10 15  1  0
  9 16  1  0
  8 17  1  0
  6 18  1  0
 18 19  1  0
 18 20  1  0
  6 21  1  1
  5 22  1  0
  5 23  1  0
  4 24  1  0
 24 25  2  0
 24 26  1  0
 26 27  1  0
 27 28  2  0
 28 29  1  0
 29 30  2  0
 30 31  1  0
 31 32  2  0
 32 33  1  0
 33 34  2  0
 34 35  1  0
 35 36  2  0
 35 37  1  0
 34 38  1  0
 33 39  1  0
 32 40  1  0
 30 41  1  0
 28 42  1  0
  3 43  1  0
 26  2  1  0
 36 27  1  0
 18  4  1  0
 36 31  1  0
 12  7  1  0
M  END
>  <cnnaffinities>  (72) 
[5.62979]

>  <score>  (72) 
5.62979

>  <index>  (72) 
74

>  <Smiles>  (72) 
O=C1N([C@]2(C([C@](c3c(c(c(c(c3Cl)[H])[H])[H])[H])(C2([H])[H])[H])([H])[H])C(=O)N1c1c(nc(c2c(c(c(c(c12)[H])[H])[H])[H])[H])[H])[H]

>  <h>  (72) 
<NA>

>  <Training>  (72) 
True

>  <Success>  (72) 
True

>  <enamine_searched>  (72) 
False

>  <enamine_id>  (72) 
nan

$$$$

     RDKit          3D

 66 71  0  0  0  0  0  0  0  0999 V2000
   -7.4189    3.3990  -21.8956 C   0  0  0  0  0  0  0  0  0  0  0  0
   -8.3519    2.9154  -22.9074 N   0  0  0  0  0  0  0  0  0  0  0  0
   -7.8037    2.1741  -23.9216 C   0  0  0  0  0  0  0  0  0  0  0  0
   -6.5979    2.0108  -24.0484 O   0  0  0  0  0  0  0  0  0  0  0  0
   -8.7940    1.5534  -24.9045 C   0  0  0  0  0  0  0  0  0  0  0  0
   -9.4464    0.4049  -24.3103 N   0  0  0  0  0  0  0  0  0  0  0  0
   -8.6911   -0.8306  -24.1604 C   0  0  0  0  0  0  0  0  0  0  0  0
   -9.0642   -1.5678  -22.8513 C   0  0  2  0  0  0  0  0  0  0  0  0
   -8.5461   -0.7762  -21.6299 C   0  0  0  0  0  0  0  0  0  0  0  0
   -9.0375    0.2145  -21.1274 O   0  0  0  0  0  0  0  0  0  0  0  0
   -7.3918   -1.3752  -21.1915 N   0  0  0  0  0  0  0  0  0  0  0  0
   -6.6162   -0.7843  -20.1676 C   0  0  0  0  0  0  0  0  0  0  0  0
   -6.9237   -1.0423  -18.8585 C   0  0  0  0  0  0  0  0  0  0  0  0
   -6.2251   -0.5664  -17.7997 N   0  0  0  0  0  0  0  0  0  0  0  0
   -5.1997    0.2101  -18.0585 C   0  0  0  0  0  0  0  0  0  0  0  0
   -4.7859    0.5768  -19.3720 C   0  0  0  0  0  0  0  0  0  0  0  0
   -3.6493    1.3946  -19.6087 C   0  0  0  0  0  0  0  0  0  0  0  0
   -3.3054    1.7547  -20.8830 C   0  0  0  0  0  0  0  0  0  0  0  0
   -4.0864    1.3373  -21.9809 C   0  0  0  0  0  0  0  0  0  0  0  0
   -5.1706    0.5121  -21.7854 C   0  0  0  0  0  0  0  0  0  0  0  0
   -5.5289    0.0887  -20.4733 C   0  0  0  0  0  0  0  0  0  0  0  0
   -5.7613    0.1978  -22.6415 H   0  0  0  0  0  0  0  0  0  0  0  0
   -3.8312    1.6625  -22.9871 H   0  0  0  0  0  0  0  0  0  0  0  0
   -2.4272    2.3710  -21.0544 H   0  0  0  0  0  0  0  0  0  0  0  0
   -3.0741    1.7288  -18.7505 H   0  0  0  0  0  0  0  0  0  0  0  0
   -4.6209    0.5771  -17.2090 H   0  0  0  0  0  0  0  0  0  0  0  0
   -7.7797   -1.6739  -18.6308 H   0  0  0  0  0  0  0  0  0  0  0  0
   -7.0083   -2.5574  -21.9302 C   0  0  0  0  0  0  0  0  0  0  0  0
   -8.2928   -2.9158  -22.6998 C   0  0  2  0  0  0  0  0  0  0  0  0
   -8.0100   -3.7180  -23.9852 C   0  0  0  0  0  0  0  0  0  0  0  0
   -7.5004   -5.0539  -23.7498 N   0  0  0  0  0  0  0  0  0  0  0  0
   -6.1949   -5.3849  -23.4865 C   0  0  0  0  0  0  0  0  0  0  0  0
   -5.0783   -4.6095  -23.8896 C   0  0  0  0  0  0  0  0  0  0  0  0
   -3.8302   -4.9625  -23.6131 N   0  0  0  0  0  0  0  0  0  0  0  0
   -3.6637   -6.1040  -22.9414 C   0  0  0  0  0  0  0  0  0  0  0  0
   -4.7485   -6.8763  -22.5621 C   0  0  0  0  0  0  0  0  0  0  0  0
   -6.0052   -6.5346  -22.8370 N   0  0  0  0  0  0  0  0  0  0  0  0
   -4.6210   -7.8047  -22.0060 H   0  0  0  0  0  0  0  0  0  0  0  0
   -2.6454   -6.4077  -22.7091 H   0  0  0  0  0  0  0  0  0  0  0  0
   -5.2120   -3.6849  -24.4483 H   0  0  0  0  0  0  0  0  0  0  0  0
   -8.1499   -5.7541  -23.4133 H   0  0  0  0  0  0  0  0  0  0  0  0
   -7.2729   -3.1842  -24.5919 H   0  0  0  0  0  0  0  0  0  0  0  0
   -8.9145   -3.8040  -24.6014 H   0  0  0  0  0  0  0  0  0  0  0  0
   -8.8895   -3.5613  -22.0494 H   0  0  0  0  0  0  0  0  0  0  0  0
   -6.6883   -3.3496  -21.2474 H   0  0  0  0  0  0  0  0  0  0  0  0
   -6.1685   -2.3491  -22.6139 H   0  0  0  0  0  0  0  0  0  0  0  0
  -10.5735   -1.6512  -22.7826 C   0  0  0  0  0  0  0  0  0  0  0  0
  -11.1903   -2.5774  -21.9410 C   0  0  0  0  0  0  0  0  0  0  0  0
  -12.5662   -2.5926  -21.8194 C   0  0  0  0  0  0  0  0  0  0  0  0
  -13.2803   -3.7035  -20.6922 Cl  0  0  0  0  0  0  0  0  0  0  0  0
  -13.3850   -1.7169  -22.5308 C   0  0  0  0  0  0  0  0  0  0  0  0
  -12.7786   -0.7708  -23.3280 C   0  0  0  0  0  0  0  0  0  0  0  0
  -11.3920   -0.7179  -23.4307 C   0  0  0  0  0  0  0  0  0  0  0  0
  -10.8086    0.4178  -24.2042 C   0  0  0  0  0  0  0  0  0  0  0  0
  -11.4995    1.3103  -24.6725 O   0  0  0  0  0  0  0  0  0  0  0  0
  -13.3521   -0.0389  -23.8826 H   0  0  0  0  0  0  0  0  0  0  0  0
  -14.4642   -1.7830  -22.4433 H   0  0  0  0  0  0  0  0  0  0  0  0
  -10.6151   -3.2903  -21.3630 H   0  0  0  0  0  0  0  0  0  0  0  0
   -8.9093   -1.4974  -25.0047 H   0  0  0  0  0  0  0  0  0  0  0  0
   -7.6210   -0.5927  -24.1869 H   0  0  0  0  0  0  0  0  0  0  0  0
   -8.2403    1.2531  -25.8014 H   0  0  0  0  0  0  0  0  0  0  0  0
   -9.5778    2.2653  -25.1844 H   0  0  0  0  0  0  0  0  0  0  0  0
   -9.2821    2.6729  -22.5882 H   0  0  0  0  0  0  0  0  0  0  0  0
   -6.9200    2.5541  -21.3901 H   0  0  0  0  0  0  0  0  0  0  0  0
   -6.6571    4.0071  -22.3884 H   0  0  0  0  0  0  0  0  0  0  0  0
   -7.9309    4.0346  -21.1673 H   0  0  0  0  0  0  0  0  0  0  0  0
  1  2  1  0
  2  3  1  0
  3  4  2  0
  3  5  1  0
  5  6  1  0
  6  7  1  0
  8  7  1  6
  8  9  1  0
  9 10  2  0
  9 11  1  0
 11 12  1  0
 12 13  2  0
 13 14  1  0
 14 15  2  0
 15 16  1  0
 16 17  2  0
 17 18  1  0
 18 19  2  0
 19 20  1  0
 20 21  2  0
 20 22  1  0
 19 23  1  0
 18 24  1  0
 17 25  1  0
 15 26  1  0
 13 27  1  0
 11 28  1  0
 28 29  1  0
 29 30  1  0
 30 31  1  0
 31 32  1  0
 32 33  2  0
 33 34  1  0
 34 35  2  0
 35 36  1  0
 36 37  2  0
 36 38  1  0
 35 39  1  0
 33 40  1  0
 31 41  1  0
 30 42  1  0
 30 43  1  0
 29 44  1  1
 28 45  1  0
 28 46  1  0
  8 47  1  0
 47 48  2  0
 48 49  1  0
 49 50  1  0
 49 51  2  0
 51 52  1  0
 52 53  2  0
 53 54  1  0
 54 55  2  0
 52 56  1  0
 51 57  1  0
 48 58  1  0
  7 59  1  0
  7 60  1  0
  5 61  1  0
  5 62  1  0
  2 63  1  0
  1 64  1  0
  1 65  1  0
  1 66  1  0
 54  6  1  0
 29  8  1  0
 37 32  1  0
 53 47  1  0
 21 12  1  0
 21 16  1  0
M  END
>  <cnnaffinities>  (73) 
[6.63115, 6.59949]

>  <score>  (73) 
6.63115

>  <index>  (73) 
75

>  <Smiles>  (73) 
C(N(C(=O)C(N1C([C@@]2(C(=O)N(c3c(nc(c4c(c(c(c(c34)[H])[H])[H])[H])[H])[H])C([C@@]2(C(N(c2c(nc(c(n2)[H])[H])[H])[H])([H])[H])[H])([H])[H])c2c(c(Cl)c(c(c2C1=O)[H])[H])[H])([H])[H])([H])[H])[H])([H])([H])[H]

>  <h>  (73) 
<NA>

>  <Training>  (73) 
True

>  <Success>  (73) 
True

>  <enamine_searched>  (73) 
False

>  <enamine_id>  (73) 
nan

$$$$

     RDKit          3D

 66 71  0  0  0  0  0  0  0  0999 V2000
   -8.1176   -3.8168  -23.9103 C   0  0  0  0  0  0  0  0  0  0  0  0
   -8.3438   -3.0224  -22.6193 C   0  0  1  0  0  0  0  0  0  0  0  0
   -7.0255   -2.5960  -21.9359 C   0  0  0  0  0  0  0  0  0  0  0  0
   -7.3977   -1.4071  -21.1883 N   0  0  0  0  0  0  0  0  0  0  0  0
   -6.6126   -0.8046  -20.1679 C   0  0  0  0  0  0  0  0  0  0  0  0
   -6.9101   -1.0471  -18.8514 C   0  0  0  0  0  0  0  0  0  0  0  0
   -6.2017   -0.5557  -17.8052 N   0  0  0  0  0  0  0  0  0  0  0  0
   -5.1698    0.2061  -18.0760 C   0  0  0  0  0  0  0  0  0  0  0  0
   -4.7506    0.5507  -19.3923 C   0  0  0  0  0  0  0  0  0  0  0  0
   -3.6239    1.3846  -19.6269 C   0  0  0  0  0  0  0  0  0  0  0  0
   -3.2620    1.7195  -20.9022 C   0  0  0  0  0  0  0  0  0  0  0  0
   -4.0242    1.2576  -21.9948 C   0  0  0  0  0  0  0  0  0  0  0  0
   -5.1116    0.4322  -21.7942 C   0  0  0  0  0  0  0  0  0  0  0  0
   -5.5060    0.0520  -20.4819 C   0  0  0  0  0  0  0  0  0  0  0  0
   -5.6158   -0.0068  -22.6504 H   0  0  0  0  0  0  0  0  0  0  0  0
   -3.6895    1.4710  -23.0082 H   0  0  0  0  0  0  0  0  0  0  0  0
   -2.3725    2.3173  -21.0887 H   0  0  0  0  0  0  0  0  0  0  0  0
   -3.0724    1.7558  -18.7669 H   0  0  0  0  0  0  0  0  0  0  0  0
   -4.6187    0.6105  -17.2263 H   0  0  0  0  0  0  0  0  0  0  0  0
   -7.7599   -1.6746  -18.5908 H   0  0  0  0  0  0  0  0  0  0  0  0
   -8.6271   -0.8961  -21.5313 C   0  0  0  0  0  0  0  0  0  0  0  0
   -9.1519    0.0541  -20.9765 O   0  0  0  0  0  0  0  0  0  0  0  0
   -9.1740   -1.7056  -22.7359 C   0  0  1  0  0  0  0  0  0  0  0  0
   -8.8581   -0.9605  -24.0603 C   0  0  0  0  0  0  0  0  0  0  0  0
   -9.5716    0.2948  -24.1591 N   0  0  0  0  0  0  0  0  0  0  0  0
   -8.8510    1.5072  -24.4997 C   0  0  0  0  0  0  0  0  0  0  0  0
   -8.2693    2.1724  -23.2495 C   0  0  0  0  0  0  0  0  0  0  0  0
   -7.5924    3.4813  -23.5154 N   0  0  0  0  0  4  0  0  0  0  0  0
   -6.3350    3.3635  -24.3588 C   0  0  0  0  0  0  0  0  0  0  0  0
   -5.6259    4.7092  -24.4586 C   0  0  0  0  0  0  0  0  0  0  0  0
   -5.3269    5.2553  -23.1920 O   0  0  0  0  0  0  0  0  0  0  0  0
   -6.5108    5.4718  -22.4540 C   0  0  0  0  0  0  0  0  0  0  0  0
   -7.2685    4.1752  -22.2141 C   0  0  0  0  0  0  0  0  0  0  0  0
   -8.2064    4.3662  -21.6835 H   0  0  0  0  0  0  0  0  0  0  0  0
   -6.6541    3.4925  -21.6150 H   0  0  0  0  0  0  0  0  0  0  0  0
   -7.1658    6.1799  -22.9885 H   0  0  0  0  0  0  0  0  0  0  0  0
   -6.2061    5.9170  -21.5028 H   0  0  0  0  0  0  0  0  0  0  0  0
   -4.6689    4.6043  -24.9778 H   0  0  0  0  0  0  0  0  0  0  0  0
   -6.2606    5.4107  -25.0264 H   0  0  0  0  0  0  0  0  0  0  0  0
   -5.6700    2.6265  -23.8956 H   0  0  0  0  0  0  0  0  0  0  0  0
   -6.6079    3.0158  -25.3570 H   0  0  0  0  0  0  0  0  0  0  0  0
   -8.2830    4.0779  -24.0218 H   0  0  0  0  0  0  0  0  0  0  0  0
   -9.0624    2.3432  -22.5128 H   0  0  0  0  0  0  0  0  0  0  0  0
   -7.5371    1.4975  -22.7892 H   0  0  0  0  0  0  0  0  0  0  0  0
   -9.5610    2.1652  -25.0061 H   0  0  0  0  0  0  0  0  0  0  0  0
   -8.0522    1.2286  -25.1967 H   0  0  0  0  0  0  0  0  0  0  0  0
  -10.9074    0.3659  -23.9065 C   0  0  0  0  0  0  0  0  0  0  0  0
  -11.5888    1.3412  -24.2044 O   0  0  0  0  0  0  0  0  0  0  0  0
  -11.4945   -0.8298  -23.2136 C   0  0  0  0  0  0  0  0  0  0  0  0
  -12.8802   -0.8793  -23.0961 C   0  0  0  0  0  0  0  0  0  0  0  0
  -13.4755   -1.8928  -22.3786 C   0  0  0  0  0  0  0  0  0  0  0  0
  -12.6736   -2.8390  -21.7449 C   0  0  0  0  0  0  0  0  0  0  0  0
  -13.4326   -3.9528  -20.6460 Cl  0  0  0  0  0  0  0  0  0  0  0  0
  -11.2988   -2.8405  -21.8986 C   0  0  0  0  0  0  0  0  0  0  0  0
  -10.6835   -1.8306  -22.6507 C   0  0  0  0  0  0  0  0  0  0  0  0
  -10.7226   -3.6042  -21.3879 H   0  0  0  0  0  0  0  0  0  0  0  0
  -14.5507   -1.9489  -22.2725 H   0  0  0  0  0  0  0  0  0  0  0  0
  -13.4613   -0.0877  -23.5569 H   0  0  0  0  0  0  0  0  0  0  0  0
   -7.7890   -0.7359  -24.1182 H   0  0  0  0  0  0  0  0  0  0  0  0
   -9.1356   -1.6232  -24.8967 H   0  0  0  0  0  0  0  0  0  0  0  0
   -6.2443   -2.3786  -22.6818 H   0  0  0  0  0  0  0  0  0  0  0  0
   -6.6280   -3.3643  -21.2628 H   0  0  0  0  0  0  0  0  0  0  0  0
   -8.8821   -3.6562  -21.9085 H   0  0  0  0  0  0  0  0  0  0  0  0
   -7.6074   -4.7661  -23.7068 H   0  0  0  0  0  0  0  0  0  0  0  0
   -7.4884   -3.2573  -24.6146 H   0  0  0  0  0  0  0  0  0  0  0  0
   -9.0600   -4.0480  -24.4215 H   0  0  0  0  0  0  0  0  0  0  0  0
  1  2  1  0
  2  3  1  0
  3  4  1  0
  4  5  1  0
  5  6  2  0
  6  7  1  0
  7  8  2  0
  8  9  1  0
  9 10  2  0
 10 11  1  0
 11 12  2  0
 12 13  1  0
 13 14  2  0
 13 15  1  0
 12 16  1  0
 11 17  1  0
 10 18  1  0
  8 19  1  0
  6 20  1  0
  4 21  1  0
 21 22  2  0
 21 23  1  0
 23 24  1  6
 24 25  1  0
 25 26  1  0
 26 27  1  0
 27 28  1  0
 28 29  1  0
 29 30  1  0
 30 31  1  0
 31 32  1  0
 32 33  1  0
 33 34  1  0
 33 35  1  0
 32 36  1  0
 32 37  1  0
 30 38  1  0
 30 39  1  0
 29 40  1  0
 29 41  1  0
 28 42  1  0
 27 43  1  0
 27 44  1  0
 26 45  1  0
 26 46  1  0
 25 47  1  0
 47 48  2  0
 47 49  1  0
 49 50  2  0
 50 51  1  0
 51 52  2  0
 52 53  1  0
 52 54  1  0
 54 55  2  0
 54 56  1  0
 51 57  1  0
 50 58  1  0
 24 59  1  0
 24 60  1  0
  3 61  1  0
  3 62  1  0
  2 63  1  1
  1 64  1  0
  1 65  1  0
  1 66  1  0
 23  2  1  0
 33 28  1  0
 55 49  1  0
 14  5  1  0
 55 23  1  0
 14  9  1  0
M  CHG  1  28   1
M  END
>  <cnnaffinities>  (74) 
[6.2367, 5.65413, 5.53926]

>  <score>  (74) 
6.2367

>  <index>  (74) 
76

>  <Smiles>  (74) 
C([C@]1(C(N(c2c(nc(c3c(c(c(c(c23)[H])[H])[H])[H])[H])[H])C(=O)[C@]21C(N(C(C([N+]1(C(C(OC(C1([H])[H])([H])[H])([H])[H])([H])[H])[H])([H])[H])([H])[H])C(=O)c1c(c(c(Cl)c(c21)[H])[H])[H])([H])[H])([H])[H])[H])([H])([H])[H]

>  <h>  (74) 
<NA>

>  <Training>  (74) 
True

>  <Success>  (74) 
True

>  <enamine_searched>  (74) 
False

>  <enamine_id>  (74) 
nan

$$$$

     RDKit          3D

 55 60  0  0  0  0  0  0  0  0999 V2000
   -8.2229   -4.0467  -23.7100 C   0  0  0  0  0  0  0  0  0  0  0  0
   -8.4787   -3.1794  -22.4794 C   0  0  1  0  0  0  0  0  0  0  0  0
   -7.1760   -2.4787  -22.0375 C   0  0  0  0  0  0  0  0  0  0  0  0
   -7.6481   -1.3524  -21.2588 N   0  0  0  0  0  0  0  0  0  0  0  0
   -6.9116   -0.7469  -20.2132 C   0  0  0  0  0  0  0  0  0  0  0  0
   -7.1868   -1.0649  -18.9083 C   0  0  0  0  0  0  0  0  0  0  0  0
   -6.4350   -0.6692  -17.8529 N   0  0  0  0  0  0  0  0  0  0  0  0
   -5.3891    0.0811  -18.0944 C   0  0  0  0  0  0  0  0  0  0  0  0
   -5.0171    0.5250  -19.3940 C   0  0  0  0  0  0  0  0  0  0  0  0
   -3.8868    1.3557  -19.6085 C   0  0  0  0  0  0  0  0  0  0  0  0
   -3.6049    1.8235  -20.8618 C   0  0  0  0  0  0  0  0  0  0  0  0
   -4.4379    1.4927  -21.9532 C   0  0  0  0  0  0  0  0  0  0  0  0
   -5.5222    0.6669  -21.7735 C   0  0  0  0  0  0  0  0  0  0  0  0
   -5.8224    0.1395  -20.4903 C   0  0  0  0  0  0  0  0  0  0  0  0
   -6.1607    0.4156  -22.6151 H   0  0  0  0  0  0  0  0  0  0  0  0
   -4.2107    1.8880  -22.9394 H   0  0  0  0  0  0  0  0  0  0  0  0
   -2.7459    2.4696  -21.0241 H   0  0  0  0  0  0  0  0  0  0  0  0
   -3.2655    1.6195  -18.7559 H   0  0  0  0  0  0  0  0  0  0  0  0
   -4.7857    0.3831  -17.2366 H   0  0  0  0  0  0  0  0  0  0  0  0
   -8.0414   -1.6959  -18.6760 H   0  0  0  0  0  0  0  0  0  0  0  0
   -8.9731   -1.0518  -21.4823 C   0  0  0  0  0  0  0  0  0  0  0  0
   -9.5649   -0.1389  -20.9530 O   0  0  0  0  0  0  0  0  0  0  0  0
   -9.5110   -2.0129  -22.5845 C   0  0  1  0  0  0  0  0  0  0  0  0
   -9.3821   -1.2418  -23.9177 C   0  0  0  0  0  0  0  0  0  0  0  0
  -10.2721   -0.0923  -23.9305 N   0  0  0  0  0  0  0  0  0  0  0  0
   -9.8274    1.1771  -24.4784 C   0  0  0  0  0  0  0  0  0  0  0  0
   -9.7874    1.2016  -25.9779 C   0  0  0  0  0  0  0  0  0  0  0  0
   -9.1529    0.3718  -26.8351 C   0  0  0  0  0  0  0  0  0  0  0  0
   -9.4614    0.7633  -28.1077 O   0  0  0  0  0  0  0  0  0  0  0  0
  -10.2841    1.8133  -27.9422 C   0  0  0  0  0  0  0  0  0  0  0  0
  -10.5153    2.1318  -26.7148 N   0  0  0  0  0  0  0  0  0  0  0  0
  -10.6488    2.2901  -28.8437 H   0  0  0  0  0  0  0  0  0  0  0  0
   -8.4649   -0.4582  -26.7421 H   0  0  0  0  0  0  0  0  0  0  0  0
  -10.5243    1.9598  -24.1674 H   0  0  0  0  0  0  0  0  0  0  0  0
   -8.8538    1.4123  -24.0234 H   0  0  0  0  0  0  0  0  0  0  0  0
  -11.6122   -0.2633  -23.7229 C   0  0  0  0  0  0  0  0  0  0  0  0
  -12.4520    0.4917  -24.1950 O   0  0  0  0  0  0  0  0  0  0  0  0
  -11.9578   -1.3785  -22.7912 C   0  0  0  0  0  0  0  0  0  0  0  0
  -13.2559   -1.3714  -22.2765 C   0  0  0  0  0  0  0  0  0  0  0  0
  -13.6415   -2.3245  -21.3557 C   0  0  0  0  0  0  0  0  0  0  0  0
  -12.7312   -3.3331  -21.0619 C   0  0  0  0  0  0  0  0  0  0  0  0
  -13.1076   -4.2483  -20.1530 F   0  0  0  0  0  0  0  0  0  0  0  0
  -11.4400   -3.3714  -21.5670 C   0  0  0  0  0  0  0  0  0  0  0  0
  -10.9922   -2.3203  -22.3790 C   0  0  0  0  0  0  0  0  0  0  0  0
  -10.7883   -4.1716  -21.2283 H   0  0  0  0  0  0  0  0  0  0  0  0
  -14.5981   -2.2966  -20.8422 H   0  0  0  0  0  0  0  0  0  0  0  0
  -13.9304   -0.5808  -22.5933 H   0  0  0  0  0  0  0  0  0  0  0  0
   -9.6061   -1.9318  -24.7413 H   0  0  0  0  0  0  0  0  0  0  0  0
   -8.3593   -0.8815  -24.0519 H   0  0  0  0  0  0  0  0  0  0  0  0
   -6.5199   -3.1121  -21.4322 H   0  0  0  0  0  0  0  0  0  0  0  0
   -6.5963   -2.1505  -22.9180 H   0  0  0  0  0  0  0  0  0  0  0  0
   -8.7849   -3.8282  -21.6490 H   0  0  0  0  0  0  0  0  0  0  0  0
   -9.1141   -4.5769  -24.0554 H   0  0  0  0  0  0  0  0  0  0  0  0
   -7.8480   -3.4415  -24.5438 H   0  0  0  0  0  0  0  0  0  0  0  0
   -7.4531   -4.7975  -23.4904 H   0  0  0  0  0  0  0  0  0  0  0  0
  1  2  1  0
  2  3  1  0
  3  4  1  0
  4  5  1  0
  5  6  2  0
  6  7  1  0
  7  8  2  0
  8  9  1  0
  9 10  2  0
 10 11  1  0
 11 12  2  0
 12 13  1  0
 13 14  2  0
 13 15  1  0
 12 16  1  0
 11 17  1  0
 10 18  1  0
  8 19  1  0
  6 20  1  0
  4 21  1  0
 21 22  2  0
 21 23  1  0
 23 24  1  6
 24 25  1  0
 25 26  1  0
 26 27  1  0
 27 28  2  0
 28 29  1  0
 29 30  1  0
 30 31  2  0
 30 32  1  0
 28 33  1  0
 26 34  1  0
 26 35  1  0
 25 36  1  0
 36 37  2  0
 36 38  1  0
 38 39  2  0
 39 40  1  0
 40 41  2  0
 41 42  1  0
 41 43  1  0
 43 44  2  0
 43 45  1  0
 40 46  1  0
 39 47  1  0
 24 48  1  0
 24 49  1  0
  3 50  1  0
  3 51  1  0
  2 52  1  1
  1 53  1  0
  1 54  1  0
  1 55  1  0
 23  2  1  0
 31 27  1  0
 44 38  1  0
 14  5  1  0
 44 23  1  0
 14  9  1  0
M  END
>  <cnnaffinities>  (75) 
[6.23268, 5.12167]

>  <score>  (75) 
6.23268

>  <index>  (75) 
77

>  <Smiles>  (75) 
C([C@]1(C(N(c2c(nc(c3c(c(c(c(c23)[H])[H])[H])[H])[H])[H])C(=O)[C@]21C(N(C(c1c(oc(n1)[H])[H])([H])[H])C(=O)c1c(c(c(F)c(c21)[H])[H])[H])([H])[H])([H])[H])[H])([H])([H])[H]

>  <h>  (75) 
<NA>

>  <Training>  (75) 
True

>  <Success>  (75) 
True

>  <enamine_searched>  (75) 
False

>  <enamine_id>  (75) 
nan

$$$$

     RDKit          3D

 56 60  0  0  0  0  0  0  0  0999 V2000
  -14.5896   -1.0607  -22.7752 C   0  0  0  0  0  0  0  0  0  0  0  0
  -13.4708   -1.9451  -22.5760 N   0  0  0  0  0  0  0  0  0  0  0  0
  -13.3100   -2.6264  -21.4118 C   0  0  0  0  0  0  0  0  0  0  0  0
  -13.9039   -2.3712  -20.3780 O   0  0  0  0  0  0  0  0  0  0  0  0
  -12.3626   -3.8078  -21.5283 C   0  0  0  0  0  0  0  0  0  0  0  0
  -11.1245   -3.6336  -22.2754 N   0  0  0  0  0  0  0  0  0  0  0  0
   -9.9483   -3.2014  -21.5302 C   0  0  0  0  0  0  0  0  0  0  0  0
   -8.7769   -2.7356  -22.4285 C   0  0  2  0  0  0  0  0  0  0  0  0
   -7.5715   -2.5089  -21.4957 C   0  0  0  0  0  0  0  0  0  0  0  0
   -6.8332   -3.3454  -21.0209 O   0  0  0  0  0  0  0  0  0  0  0  0
   -7.4220   -1.1547  -21.2637 N   0  0  0  0  0  0  0  0  0  0  0  0
   -6.6293   -0.6846  -20.1891 C   0  0  0  0  0  0  0  0  0  0  0  0
   -6.8708   -1.0887  -18.9008 C   0  0  0  0  0  0  0  0  0  0  0  0
   -6.1864   -0.6357  -17.8191 N   0  0  0  0  0  0  0  0  0  0  0  0
   -5.2062    0.2103  -18.0307 C   0  0  0  0  0  0  0  0  0  0  0  0
   -4.8198    0.6749  -19.3230 C   0  0  0  0  0  0  0  0  0  0  0  0
   -3.7056    1.5286  -19.5367 C   0  0  0  0  0  0  0  0  0  0  0  0
   -3.3918    1.9529  -20.7985 C   0  0  0  0  0  0  0  0  0  0  0  0
   -4.1780    1.5631  -21.9053 C   0  0  0  0  0  0  0  0  0  0  0  0
   -5.2513    0.7277  -21.7299 C   0  0  0  0  0  0  0  0  0  0  0  0
   -5.5783    0.2491  -20.4360 C   0  0  0  0  0  0  0  0  0  0  0  0
   -5.8444    0.4066  -22.5798 H   0  0  0  0  0  0  0  0  0  0  0  0
   -3.9320    1.9248  -22.8979 H   0  0  0  0  0  0  0  0  0  0  0  0
   -2.5465    2.6157  -20.9592 H   0  0  0  0  0  0  0  0  0  0  0  0
   -3.1187    1.8411  -18.6776 H   0  0  0  0  0  0  0  0  0  0  0  0
   -4.6608    0.5663  -17.1548 H   0  0  0  0  0  0  0  0  0  0  0  0
   -7.6596   -1.8079  -18.6908 H   0  0  0  0  0  0  0  0  0  0  0  0
   -8.4842   -0.3766  -21.8771 C   0  0  0  0  0  0  0  0  0  0  0  0
   -8.9666   -1.2941  -23.0069 C   0  0  2  0  0  0  0  0  0  0  0  0
  -10.3516   -0.9417  -23.5152 C   0  0  0  0  0  0  0  0  0  0  0  0
  -11.0740   -0.9629  -22.6963 H   0  0  0  0  0  0  0  0  0  0  0  0
  -10.3597    0.0605  -23.9548 H   0  0  0  0  0  0  0  0  0  0  0  0
  -10.6799   -1.6547  -24.2779 H   0  0  0  0  0  0  0  0  0  0  0  0
   -8.2559   -1.2127  -23.8397 H   0  0  0  0  0  0  0  0  0  0  0  0
   -8.1170    0.5863  -22.2390 H   0  0  0  0  0  0  0  0  0  0  0  0
   -9.2939   -0.1685  -21.1567 H   0  0  0  0  0  0  0  0  0  0  0  0
   -8.5376   -3.8125  -23.4694 C   0  0  0  0  0  0  0  0  0  0  0  0
   -7.2715   -4.0304  -24.0292 C   0  0  0  0  0  0  0  0  0  0  0  0
   -7.0835   -5.0452  -24.9537 C   0  0  0  0  0  0  0  0  0  0  0  0
   -5.5068   -5.3077  -25.6429 Cl  0  0  0  0  0  0  0  0  0  0  0  0
   -8.1334   -5.8615  -25.3714 C   0  0  0  0  0  0  0  0  0  0  0  0
   -9.3910   -5.6192  -24.8536 C   0  0  0  0  0  0  0  0  0  0  0  0
   -9.5982   -4.6099  -23.9140 C   0  0  0  0  0  0  0  0  0  0  0  0
  -10.9850   -4.4208  -23.3981 C   0  0  0  0  0  0  0  0  0  0  0  0
  -11.9471   -4.9257  -23.9592 O   0  0  0  0  0  0  0  0  0  0  0  0
  -10.2486   -6.2065  -25.1611 H   0  0  0  0  0  0  0  0  0  0  0  0
   -7.9568   -6.6615  -26.0864 H   0  0  0  0  0  0  0  0  0  0  0  0
   -6.4219   -3.4280  -23.7283 H   0  0  0  0  0  0  0  0  0  0  0  0
   -9.5581   -4.0137  -20.8990 H   0  0  0  0  0  0  0  0  0  0  0  0
  -10.2642   -2.3829  -20.8804 H   0  0  0  0  0  0  0  0  0  0  0  0
  -12.9374   -4.5408  -22.0995 H   0  0  0  0  0  0  0  0  0  0  0  0
  -12.1879   -4.1976  -20.5274 H   0  0  0  0  0  0  0  0  0  0  0  0
  -13.0567   -2.3821  -23.3843 H   0  0  0  0  0  0  0  0  0  0  0  0
  -14.2585   -0.0739  -23.1073 H   0  0  0  0  0  0  0  0  0  0  0  0
  -15.2756   -1.4659  -23.5165 H   0  0  0  0  0  0  0  0  0  0  0  0
  -15.1148   -1.0079  -21.8233 H   0  0  0  0  0  0  0  0  0  0  0  0
  1  2  1  0
  2  3  1  0
  3  4  2  0
  3  5  1  0
  5  6  1  0
  6  7  1  0
  8  7  1  1
  8  9  1  0
  9 10  2  0
  9 11  1  0
 11 12  1  0
 12 13  2  0
 13 14  1  0
 14 15  2  0
 15 16  1  0
 16 17  2  0
 17 18  1  0
 18 19  2  0
 19 20  1  0
 20 21  2  0
 20 22  1  0
 19 23  1  0
 18 24  1  0
 17 25  1  0
 15 26  1  0
 13 27  1  0
 11 28  1  0
 28 29  1  0
 29 30  1  0
 30 31  1  0
 30 32  1  0
 30 33  1  0
 29 34  1  6
 28 35  1  0
 28 36  1  0
  8 37  1  0
 37 38  2  0
 38 39  1  0
 39 40  1  0
 39 41  2  0
 41 42  1  0
 42 43  2  0
 43 44  1  0
 44 45  2  0
 42 46  1  0
 41 47  1  0
 38 48  1  0
  7 49  1  0
  7 50  1  0
  5 51  1  0
  5 52  1  0
  2 53  1  0
  1 54  1  0
  1 55  1  0
  1 56  1  0
 44  6  1  0
 29  8  1  0
 43 37  1  0
 21 12  1  0
 21 16  1  0
M  END
>  <cnnaffinities>  (76) 
[6.42817]

>  <score>  (76) 
6.42817

>  <index>  (76) 
78

>  <Smiles>  (76) 
C(N(C(=O)C(N1C([C@@]2(C(=O)N(c3c(nc(c4c(c(c(c(c34)[H])[H])[H])[H])[H])[H])C([C@@]2(C([H])([H])[H])[H])([H])[H])c2c(c(Cl)c(c(c2C1=O)[H])[H])[H])([H])[H])([H])[H])[H])([H])([H])[H]

>  <h>  (76) 
<NA>

>  <Training>  (76) 
True

>  <Success>  (76) 
True

>  <enamine_searched>  (76) 
False

>  <enamine_id>  (76) 
nan

$$$$

     RDKit          3D

 45 49  0  0  0  0  0  0  0  0999 V2000
   -9.6297   -0.9230  -24.0344 C   0  0  0  0  0  0  0  0  0  0  0  0
   -8.6448   -1.3744  -23.0844 N   0  0  0  0  0  0  0  0  0  0  0  0
   -8.4227   -0.7192  -21.8997 C   0  0  0  0  0  0  0  0  0  0  0  0
   -9.0052    0.2410  -21.4558 O   0  0  0  0  0  0  0  0  0  0  0  0
   -7.3506   -1.3911  -21.2867 N   0  0  0  0  0  0  0  0  0  0  0  0
   -6.5981   -0.7986  -20.2347 C   0  0  0  0  0  0  0  0  0  0  0  0
   -6.9285   -1.0668  -18.9345 C   0  0  0  0  0  0  0  0  0  0  0  0
   -6.2444   -0.5906  -17.8635 N   0  0  0  0  0  0  0  0  0  0  0  0
   -5.2158    0.1889  -18.0993 C   0  0  0  0  0  0  0  0  0  0  0  0
   -4.7811    0.5638  -19.4047 C   0  0  0  0  0  0  0  0  0  0  0  0
   -3.6404    1.3869  -19.6118 C   0  0  0  0  0  0  0  0  0  0  0  0
   -3.2610    1.7301  -20.8833 C   0  0  0  0  0  0  0  0  0  0  0  0
   -4.0204    1.2993  -21.9970 C   0  0  0  0  0  0  0  0  0  0  0  0
   -5.1102    0.4803  -21.8222 C   0  0  0  0  0  0  0  0  0  0  0  0
   -5.5025    0.0779  -20.5139 C   0  0  0  0  0  0  0  0  0  0  0  0
   -5.6587    0.1118  -22.6830 H   0  0  0  0  0  0  0  0  0  0  0  0
   -3.7099    1.5755  -23.0037 H   0  0  0  0  0  0  0  0  0  0  0  0
   -2.3736    2.3378  -21.0524 H   0  0  0  0  0  0  0  0  0  0  0  0
   -3.0762    1.7198  -18.7427 H   0  0  0  0  0  0  0  0  0  0  0  0
   -4.6665    0.5703  -17.2366 H   0  0  0  0  0  0  0  0  0  0  0  0
   -7.7815   -1.7084  -18.7253 H   0  0  0  0  0  0  0  0  0  0  0  0
   -6.9134   -2.4792  -22.0528 C   0  0  0  0  0  0  0  0  0  0  0  0
   -6.0114   -3.2272  -21.7672 O   0  0  0  0  0  0  0  0  0  0  0  0
   -7.7708   -2.4940  -23.3061 C   0  0  0  0  0  0  0  0  0  0  0  0
   -6.9768   -2.5679  -24.6359 C   0  0  0  0  0  0  0  0  0  0  0  0
   -7.6200   -3.8713  -24.9507 N   0  0  0  0  0  0  0  0  0  0  0  0
   -8.4198   -3.9301  -26.4282 S   0  0  0  0  0  0  0  0  0  0  0  0
   -9.4710   -2.9158  -26.4227 O   0  0  0  0  0  0  0  0  0  0  0  0
   -7.3849   -3.9072  -27.4433 O   0  0  0  0  0  0  0  0  0  0  0  0
   -9.2161   -5.5149  -26.4770 C   0  0  0  0  0  0  0  0  0  0  0  0
  -10.3282   -5.6205  -27.4894 C   0  0  0  0  0  0  0  0  0  0  0  0
  -10.6533   -5.5930  -26.0350 C   0  0  0  0  0  0  0  0  0  0  0  0
  -11.0823   -4.6828  -25.6272 H   0  0  0  0  0  0  0  0  0  0  0  0
  -10.9652   -6.5147  -25.5583 H   0  0  0  0  0  0  0  0  0  0  0  0
  -10.5393   -4.7387  -28.0840 H   0  0  0  0  0  0  0  0  0  0  0  0
  -10.4263   -6.5573  -28.0246 H   0  0  0  0  0  0  0  0  0  0  0  0
   -8.5475   -6.3594  -26.3288 H   0  0  0  0  0  0  0  0  0  0  0  0
   -8.4048   -3.8538  -23.7009 C   0  0  0  0  0  0  0  0  0  0  0  0
   -9.4879   -3.8575  -23.8486 H   0  0  0  0  0  0  0  0  0  0  0  0
   -8.1131   -4.6809  -23.0525 H   0  0  0  0  0  0  0  0  0  0  0  0
   -5.9006   -2.6831  -24.5006 H   0  0  0  0  0  0  0  0  0  0  0  0
   -7.1754   -1.7659  -25.3526 H   0  0  0  0  0  0  0  0  0  0  0  0
  -10.1622   -0.0977  -23.5639 H   0  0  0  0  0  0  0  0  0  0  0  0
   -9.1469   -0.5782  -24.9528 H   0  0  0  0  0  0  0  0  0  0  0  0
  -10.3205   -1.7346  -24.2721 H   0  0  0  0  0  0  0  0  0  0  0  0
  1  2  1  0
  2  3  1  0
  3  4  2  0
  3  5  1  0
  5  6  1  0
  6  7  2  0
  7  8  1  0
  8  9  2  0
  9 10  1  0
 10 11  2  0
 11 12  1  0
 12 13  2  0
 13 14  1  0
 14 15  2  0
 14 16  1  0
 13 17  1  0
 12 18  1  0
 11 19  1  0
  9 20  1  0
  7 21  1  0
  5 22  1  0
 22 23  2  0
 22 24  1  0
 24 25  1  0
 25 26  1  0
 26 27  1  0
 27 28  2  0
 27 29  2  0
 27 30  1  0
 30 31  1  0
 31 32  1  0
 32 33  1  0
 32 34  1  0
 31 35  1  0
 31 36  1  0
 30 37  1  0
 26 38  1  0
 38 39  1  0
 38 40  1  0
 25 41  1  0
 25 42  1  0
  1 43  1  0
  1 44  1  0
  1 45  1  0
 24  2  1  0
 32 30  1  0
 15  6  1  0
 38 24  1  0
 15 10  1  0
M  END
>  <cnnaffinities>  (77) 
[4.87009, 5.09232]

>  <score>  (77) 
4.87009

>  <index>  (77) 
79

>  <Smiles>  (77) 
C(N1C(=O)N(c2c(nc(c3c(c(c(c(c23)[H])[H])[H])[H])[H])[H])C(=O)C21C(N(S(=O)(=O)C1(C(C1([H])[H])([H])[H])[H])C2([H])[H])([H])[H])([H])([H])[H]

>  <h>  (77) 
<NA>

>  <Training>  (77) 
True

>  <Success>  (77) 
True

>  <enamine_searched>  (77) 
False

>  <enamine_id>  (77) 
nan

$$$$

     RDKit          3D

 60 65  0  0  0  0  0  0  0  0999 V2000
   -6.8179    3.5292  -23.4431 C   0  0  0  0  0  0  0  0  0  0  0  0
   -7.5702    2.6904  -24.3513 N   0  0  0  0  0  0  0  0  0  0  0  0
   -6.9988    1.6075  -24.9121 C   0  0  0  0  0  0  0  0  0  0  0  0
   -5.7991    1.3863  -24.8343 O   0  0  0  0  0  0  0  0  0  0  0  0
   -7.9256    0.7081  -25.7155 C   0  0  0  0  0  0  0  0  0  0  0  0
   -8.9471    0.0201  -24.9902 N   0  0  0  0  0  0  0  0  0  0  0  0
   -8.6269   -1.2742  -24.4082 C   0  0  0  0  0  0  0  0  0  0  0  0
   -9.1287   -1.4072  -22.9463 C   0  0  2  0  0  0  0  0  0  0  0  0
   -8.3052   -0.4734  -22.0256 C   0  0  0  0  0  0  0  0  0  0  0  0
   -8.3246    0.7425  -22.0227 O   0  0  0  0  0  0  0  0  0  0  0  0
   -7.4900   -1.2381  -21.2243 N   0  0  0  0  0  0  0  0  0  0  0  0
   -6.6759   -0.7067  -20.1969 C   0  0  0  0  0  0  0  0  0  0  0  0
   -6.9198   -1.0470  -18.8883 C   0  0  0  0  0  0  0  0  0  0  0  0
   -6.2191   -0.5844  -17.8259 N   0  0  0  0  0  0  0  0  0  0  0  0
   -5.1966    0.1994  -18.0746 C   0  0  0  0  0  0  0  0  0  0  0  0
   -4.7915    0.5786  -19.3860 C   0  0  0  0  0  0  0  0  0  0  0  0
   -3.6522    1.4001  -19.6037 C   0  0  0  0  0  0  0  0  0  0  0  0
   -3.2890    1.7668  -20.8706 C   0  0  0  0  0  0  0  0  0  0  0  0
   -4.0610    1.3464  -21.9779 C   0  0  0  0  0  0  0  0  0  0  0  0
   -5.1573    0.5388  -21.7949 C   0  0  0  0  0  0  0  0  0  0  0  0
   -5.5576    0.1362  -20.4894 C   0  0  0  0  0  0  0  0  0  0  0  0
   -5.7090    0.1913  -22.6631 H   0  0  0  0  0  0  0  0  0  0  0  0
   -3.7817    1.6417  -22.9871 H   0  0  0  0  0  0  0  0  0  0  0  0
   -2.4100    2.3853  -21.0316 H   0  0  0  0  0  0  0  0  0  0  0  0
   -3.0906    1.7385  -18.7365 H   0  0  0  0  0  0  0  0  0  0  0  0
   -4.6330    0.5768  -17.2195 H   0  0  0  0  0  0  0  0  0  0  0  0
   -7.7498   -1.7117  -18.6495 H   0  0  0  0  0  0  0  0  0  0  0  0
   -7.5956   -2.6597  -21.4594 C   0  0  0  0  0  0  0  0  0  0  0  0
   -8.8338   -2.8126  -22.3476 C   0  0  2  0  0  0  0  0  0  0  0  0
   -8.7328   -3.9717  -23.3327 C   0  0  0  0  0  0  0  0  0  0  0  0
   -7.8829   -3.8455  -24.0137 H   0  0  0  0  0  0  0  0  0  0  0  0
   -9.6434   -4.0500  -23.9364 H   0  0  0  0  0  0  0  0  0  0  0  0
   -8.6012   -4.9201  -22.8007 H   0  0  0  0  0  0  0  0  0  0  0  0
   -9.6486   -3.0457  -21.6676 H   0  0  0  0  0  0  0  0  0  0  0  0
   -7.7272   -3.1803  -20.5115 H   0  0  0  0  0  0  0  0  0  0  0  0
   -6.6888   -3.0517  -21.9341 H   0  0  0  0  0  0  0  0  0  0  0  0
  -10.6000   -1.0134  -22.9474 C   0  0  0  0  0  0  0  0  0  0  0  0
  -11.5261   -1.6124  -22.0817 C   0  0  0  0  0  0  0  0  0  0  0  0
  -12.8453   -1.2015  -22.0902 C   0  0  0  0  0  0  0  0  0  0  0  0
  -14.0038   -2.0121  -21.0602 Cl  0  0  0  0  0  0  0  0  0  0  0  0
  -13.2891   -0.1632  -22.9043 C   0  0  0  0  0  0  0  0  0  0  0  0
  -12.3826    0.4535  -23.7472 C   0  0  0  0  0  0  0  0  0  0  0  0
  -11.0564    0.0113  -23.7962 C   0  0  0  0  0  0  0  0  0  0  0  0
  -10.1504    0.6437  -24.8019 C   0  0  0  0  0  0  0  0  0  0  0  0
  -10.4422    1.6664  -25.4168 O   0  0  0  0  0  0  0  0  0  0  0  0
  -12.6515    1.2699  -24.4111 H   0  0  0  0  0  0  0  0  0  0  0  0
  -14.3448    0.0932  -22.8791 H   0  0  0  0  0  0  0  0  0  0  0  0
  -11.2549   -2.4057  -21.3919 H   0  0  0  0  0  0  0  0  0  0  0  0
   -7.5449   -1.3881  -24.4565 H   0  0  0  0  0  0  0  0  0  0  0  0
   -9.0814   -2.0685  -25.0128 H   0  0  0  0  0  0  0  0  0  0  0  0
   -7.2457   -0.0187  -26.8368 C   0  0  0  0  0  0  0  0  0  0  0  0
   -8.1779    1.1075  -27.1389 C   0  0  0  0  0  0  0  0  0  0  0  0
   -9.1629    0.8669  -27.5223 H   0  0  0  0  0  0  0  0  0  0  0  0
   -7.7739    2.0604  -27.4542 H   0  0  0  0  0  0  0  0  0  0  0  0
   -7.5867   -1.0272  -27.0431 H   0  0  0  0  0  0  0  0  0  0  0  0
   -6.1829    0.1701  -26.9007 H   0  0  0  0  0  0  0  0  0  0  0  0
   -8.5727    2.7633  -24.3851 H   0  0  0  0  0  0  0  0  0  0  0  0
   -6.4515    2.9439  -22.5899 H   0  0  0  0  0  0  0  0  0  0  0  0
   -5.9529    3.9642  -23.9496 H   0  0  0  0  0  0  0  0  0  0  0  0
   -7.4638    4.3318  -23.0843 H   0  0  0  0  0  0  0  0  0  0  0  0
  1  2  1  0
  2  3  1  0
  3  4  2  0
  3  5  1  0
  5  6  1  0
  6  7  1  0
  8  7  1  6
  8  9  1  0
  9 10  2  0
  9 11  1  0
 11 12  1  0
 12 13  2  0
 13 14  1  0
 14 15  2  0
 15 16  1  0
 16 17  2  0
 17 18  1  0
 18 19  2  0
 19 20  1  0
 20 21  2  0
 20 22  1  0
 19 23  1  0
 18 24  1  0
 17 25  1  0
 15 26  1  0
 13 27  1  0
 11 28  1  0
 28 29  1  0
 29 30  1  0
 30 31  1  0
 30 32  1  0
 30 33  1  0
 29 34  1  1
 28 35  1  0
 28 36  1  0
  8 37  1  0
 37 38  2  0
 38 39  1  0
 39 40  1  0
 39 41  2  0
 41 42  1  0
 42 43  2  0
 43 44  1  0
 44 45  2  0
 42 46  1  0
 41 47  1  0
 38 48  1  0
  7 49  1  0
  7 50  1  0
  5 51  1  0
 51 52  1  0
 52 53  1  0
 52 54  1  0
 51 55  1  0
 51 56  1  0
  2 57  1  0
  1 58  1  0
  1 59  1  0
  1 60  1  0
 52  5  1  0
 44  6  1  0
 29  8  1  0
 43 37  1  0
 21 12  1  0
 21 16  1  0
M  END
>  <cnnaffinities>  (78) 
[5.64445]

>  <score>  (78) 
5.64445

>  <index>  (78) 
80

>  <Smiles>  (78) 
C(N(C(=O)C1(N2C([C@@]3(C(=O)N(c4c(nc(c5c(c(c(c(c45)[H])[H])[H])[H])[H])[H])C([C@@]3(C([H])([H])[H])[H])([H])[H])c3c(c(Cl)c(c(c3C2=O)[H])[H])[H])([H])[H])C(C1([H])[H])([H])[H])[H])([H])([H])[H]

>  <h>  (78) 
<NA>

>  <Training>  (78) 
True

>  <Success>  (78) 
True

>  <enamine_searched>  (78) 
False

>  <enamine_id>  (78) 
nan

$$$$

     RDKit          3D

 36 38  0  0  0  0  0  0  0  0999 V2000
   -8.5113    0.7123  -21.4664 O   0  0  0  0  0  0  0  0  0  0  0  0
   -8.3853   -0.4005  -21.9341 C   0  0  0  0  0  0  0  0  0  0  0  0
   -7.4391   -1.4325  -21.2766 C   0  0  0  0  0  0  0  0  0  0  0  0
   -6.5823   -0.8273  -20.1854 C   0  0  0  0  0  0  0  0  0  0  0  0
   -6.8793   -1.0419  -18.8638 C   0  0  0  0  0  0  0  0  0  0  0  0
   -6.1949   -0.5372  -17.8015 N   0  0  0  0  0  0  0  0  0  0  0  0
   -5.1571    0.2204  -18.0632 C   0  0  0  0  0  0  0  0  0  0  0  0
   -4.7270    0.5372  -19.3788 C   0  0  0  0  0  0  0  0  0  0  0  0
   -3.6000    1.3670  -19.6159 C   0  0  0  0  0  0  0  0  0  0  0  0
   -3.2307    1.6938  -20.8939 C   0  0  0  0  0  0  0  0  0  0  0  0
   -4.0009    1.2305  -21.9827 C   0  0  0  0  0  0  0  0  0  0  0  0
   -5.0852    0.4054  -21.7790 C   0  0  0  0  0  0  0  0  0  0  0  0
   -5.4708    0.0237  -20.4699 C   0  0  0  0  0  0  0  0  0  0  0  0
   -5.5889   -0.0454  -22.6282 H   0  0  0  0  0  0  0  0  0  0  0  0
   -3.6422    1.4078  -22.9919 H   0  0  0  0  0  0  0  0  0  0  0  0
   -2.3485    2.3026  -21.0829 H   0  0  0  0  0  0  0  0  0  0  0  0
   -3.0571    1.7686  -18.7632 H   0  0  0  0  0  0  0  0  0  0  0  0
   -4.6037    0.6265  -17.2140 H   0  0  0  0  0  0  0  0  0  0  0  0
   -7.7290   -1.6602  -18.5838 H   0  0  0  0  0  0  0  0  0  0  0  0
   -6.8058   -1.8999  -22.0437 H   0  0  0  0  0  0  0  0  0  0  0  0
   -8.0420   -2.2456  -20.8461 H   0  0  0  0  0  0  0  0  0  0  0  0
   -9.0570   -0.7712  -23.0912 N   0  0  0  0  0  0  0  0  0  0  0  0
  -10.0043    0.1948  -23.6401 C   0  0  0  0  0  0  0  0  0  0  0  0
  -11.3788    0.2140  -23.0184 C   0  0  0  0  0  0  0  0  0  0  0  0
  -12.0207   -0.7910  -22.4148 C   0  0  0  0  0  0  0  0  0  0  0  0
  -11.5706   -2.1752  -22.1550 C   0  0  0  0  0  0  0  0  0  0  0  0
  -10.4462   -2.7788  -22.5490 C   0  0  0  0  0  0  0  0  0  0  0  0
   -9.3661   -2.1597  -23.4021 C   0  0  0  0  0  0  0  0  0  0  0  0
   -8.4497   -2.7538  -23.3576 H   0  0  0  0  0  0  0  0  0  0  0  0
   -9.6811   -2.1696  -24.4519 H   0  0  0  0  0  0  0  0  0  0  0  0
  -10.2862   -3.8158  -22.2486 H   0  0  0  0  0  0  0  0  0  0  0  0
  -12.2817   -2.7639  -21.5769 H   0  0  0  0  0  0  0  0  0  0  0  0
  -13.0217   -0.5836  -22.0384 H   0  0  0  0  0  0  0  0  0  0  0  0
  -11.8914    1.1768  -23.0834 H   0  0  0  0  0  0  0  0  0  0  0  0
  -10.1080   -0.0438  -24.7050 H   0  0  0  0  0  0  0  0  0  0  0  0
   -9.5571    1.1907  -23.5907 H   0  0  0  0  0  0  0  0  0  0  0  0
  1  2  2  0
  2  3  1  0
  3  4  1  0
  4  5  2  0
  5  6  1  0
  6  7  2  0
  7  8  1  0
  8  9  2  0
  9 10  1  0
 10 11  2  0
 11 12  1  0
 12 13  2  0
 12 14  1  0
 11 15  1  0
 10 16  1  0
  9 17  1  0
  7 18  1  0
  5 19  1  0
  3 20  1  0
  3 21  1  0
  2 22  1  0
 22 23  1  0
 23 24  1  0
 24 25  2  0
 25 26  1  0
 26 27  2  0
 27 28  1  0
 28 29  1  0
 28 30  1  0
 27 31  1  0
 26 32  1  0
 25 33  1  0
 24 34  1  0
 23 35  1  0
 23 36  1  0
 13  4  1  0
 28 22  1  0
 13  8  1  0
M  END
>  <cnnaffinities>  (79) 
[4.11149, 4.11151, 4.3657, 4.36568]

>  <score>  (79) 
4.11149

>  <index>  (79) 
81

>  <Smiles>  (79) 
O=C(C(c1c(nc(c2c(c(c(c(c12)[H])[H])[H])[H])[H])[H])([H])[H])N1C(C(=C(C(=C(C1([H])[H])[H])[H])[H])[H])([H])[H]

>  <h>  (79) 
<NA>

>  <Training>  (79) 
True

>  <Success>  (79) 
True

>  <enamine_searched>  (79) 
False

>  <enamine_id>  (79) 
nan

$$$$

     RDKit          3D

 54 57  0  0  0  0  0  0  0  0999 V2000
  -10.6765    0.3763  -25.3835 C   0  0  0  0  0  0  0  0  0  0  0  0
   -9.8030   -0.6076  -24.8937 O   0  0  0  0  0  0  0  0  0  0  0  0
   -8.4835   -0.5155  -25.2024 C   0  0  0  0  0  0  0  0  0  0  0  0
   -7.9512    0.5122  -25.9796 C   0  0  0  0  0  0  0  0  0  0  0  0
   -6.5841    0.5425  -26.2400 C   0  0  0  0  0  0  0  0  0  0  0  0
   -5.7661   -0.4512  -25.7195 C   0  0  0  0  0  0  0  0  0  0  0  0
   -6.3129   -1.4697  -24.9359 C   0  0  0  0  0  0  0  0  0  0  0  0
   -7.6727   -1.5378  -24.6701 C   0  0  0  0  0  0  0  0  0  0  0  0
   -8.3117   -2.6558  -23.8307 C   0  0  1  0  0  0  0  0  0  0  0  0
   -9.1482   -3.6417  -24.6812 C   0  0  0  0  0  0  0  0  0  0  0  0
   -8.4047   -4.8515  -25.2683 C   0  0  1  0  0  0  0  0  0  0  0  0
   -7.5031   -4.5279  -26.4658 C   0  0  0  0  0  0  0  0  0  0  0  0
   -6.6805   -3.8592  -26.1928 H   0  0  0  0  0  0  0  0  0  0  0  0
   -7.0684   -5.4441  -26.8836 H   0  0  0  0  0  0  0  0  0  0  0  0
   -8.0767   -4.0389  -27.2617 H   0  0  0  0  0  0  0  0  0  0  0  0
   -7.6733   -5.5480  -24.1155 C   0  0  0  0  0  0  0  0  0  0  0  0
   -6.7182   -4.5993  -23.4010 C   0  0  0  0  0  0  0  0  0  0  0  0
   -7.3661   -3.3621  -22.9582 N   0  0  0  0  0  0  0  0  0  0  0  0
   -6.7443   -2.7487  -21.8897 C   0  0  0  0  0  0  0  0  0  0  0  0
   -5.7227   -3.2110  -21.4075 O   0  0  0  0  0  0  0  0  0  0  0  0
   -7.3946   -1.4848  -21.2938 C   0  0  0  0  0  0  0  0  0  0  0  0
   -6.5843   -0.8350  -20.1976 C   0  0  0  0  0  0  0  0  0  0  0  0
   -6.8753   -1.0687  -18.8774 C   0  0  0  0  0  0  0  0  0  0  0  0
   -6.1974   -0.5607  -17.8114 N   0  0  0  0  0  0  0  0  0  0  0  0
   -5.1687    0.2075  -18.0676 C   0  0  0  0  0  0  0  0  0  0  0  0
   -4.7462    0.5519  -19.3800 C   0  0  0  0  0  0  0  0  0  0  0  0
   -3.6213    1.3825  -19.6060 C   0  0  0  0  0  0  0  0  0  0  0  0
   -3.2543    1.7119  -20.8812 C   0  0  0  0  0  0  0  0  0  0  0  0
   -4.0140    1.2502  -21.9790 C   0  0  0  0  0  0  0  0  0  0  0  0
   -5.0983    0.4256  -21.7829 C   0  0  0  0  0  0  0  0  0  0  0  0
   -5.4913    0.0455  -20.4736 C   0  0  0  0  0  0  0  0  0  0  0  0
   -5.6165   -0.0075  -22.6383 H   0  0  0  0  0  0  0  0  0  0  0  0
   -3.6842    1.4788  -22.9911 H   0  0  0  0  0  0  0  0  0  0  0  0
   -2.3576    2.2919  -21.0649 H   0  0  0  0  0  0  0  0  0  0  0  0
   -3.0616    1.7365  -18.7427 H   0  0  0  0  0  0  0  0  0  0  0  0
   -4.6234    0.6170  -17.2149 H   0  0  0  0  0  0  0  0  0  0  0  0
   -7.7267   -1.6891  -18.6013 H   0  0  0  0  0  0  0  0  0  0  0  0
   -7.6102   -0.7753  -22.1014 H   0  0  0  0  0  0  0  0  0  0  0  0
   -8.3694   -1.7881  -20.8883 H   0  0  0  0  0  0  0  0  0  0  0  0
   -6.3215   -5.0586  -22.4951 H   0  0  0  0  0  0  0  0  0  0  0  0
   -5.8519   -4.3776  -24.0457 H   0  0  0  0  0  0  0  0  0  0  0  0
   -8.4168   -5.9167  -23.3928 H   0  0  0  0  0  0  0  0  0  0  0  0
   -7.1025   -6.4139  -24.4865 H   0  0  0  0  0  0  0  0  0  0  0  0
   -9.1804   -5.5431  -25.6273 H   0  0  0  0  0  0  0  0  0  0  0  0
   -9.6258   -3.0608  -25.4784 H   0  0  0  0  0  0  0  0  0  0  0  0
   -9.9398   -4.0291  -24.0245 H   0  0  0  0  0  0  0  0  0  0  0  0
   -9.0383   -2.1591  -23.1754 H   0  0  0  0  0  0  0  0  0  0  0  0
   -5.6670   -2.2567  -24.5464 H   0  0  0  0  0  0  0  0  0  0  0  0
   -4.7011   -0.4569  -25.9234 H   0  0  0  0  0  0  0  0  0  0  0  0
   -6.1689    1.3455  -26.8474 H   0  0  0  0  0  0  0  0  0  0  0  0
   -8.6018    1.2827  -26.3763 H   0  0  0  0  0  0  0  0  0  0  0  0
  -11.6595    0.0605  -25.0271 H   0  0  0  0  0  0  0  0  0  0  0  0
  -10.6539    0.4201  -26.4830 H   0  0  0  0  0  0  0  0  0  0  0  0
  -10.4260    1.3706  -24.9850 H   0  0  0  0  0  0  0  0  0  0  0  0
  1  2  1  0
  2  3  1  0
  3  4  2  0
  4  5  1  0
  5  6  2  0
  6  7  1  0
  7  8  2  0
  8  9  1  0
  9 10  1  0
 10 11  1  0
 11 12  1  0
 12 13  1  0
 12 14  1  0
 12 15  1  0
 11 16  1  0
 16 17  1  0
 17 18  1  0
 18 19  1  0
 19 20  2  0
 19 21  1  0
 21 22  1  0
 22 23  2  0
 23 24  1  0
 24 25  2  0
 25 26  1  0
 26 27  2  0
 27 28  1  0
 28 29  2  0
 29 30  1  0
 30 31  2  0
 30 32  1  0
 29 33  1  0
 28 34  1  0
 27 35  1  0
 25 36  1  0
 23 37  1  0
 21 38  1  0
 21 39  1  0
 17 40  1  0
 17 41  1  0
 16 42  1  0
 16 43  1  0
 11 44  1  6
 10 45  1  0
 10 46  1  0
  9 47  1  1
  7 48  1  0
  6 49  1  0
  5 50  1  0
  4 51  1  0
  1 52  1  0
  1 53  1  0
  1 54  1  0
  8  3  1  0
 18  9  1  0
 31 22  1  0
 31 26  1  0
M  END
>  <cnnaffinities>  (80) 
[5.50944, 5.63751, 4.99828]

>  <score>  (80) 
5.50944

>  <index>  (80) 
82

>  <Smiles>  (80) 
C(Oc1c(c(c(c(c1[C@]1(C([C@@](C([H])([H])[H])(C(C(N1C(=O)C(c1c(nc(c2c(c(c(c(c12)[H])[H])[H])[H])[H])[H])([H])[H])([H])[H])([H])[H])[H])([H])[H])[H])[H])[H])[H])[H])([H])([H])[H]

>  <h>  (80) 
<NA>

>  <Training>  (80) 
True

>  <Success>  (80) 
True

>  <enamine_searched>  (80) 
False

>  <enamine_id>  (80) 
nan

$$$$

     RDKit          3D

 46 50  0  0  0  0  0  0  0  0999 V2000
   -5.6163   -4.0274  -25.8467 N   0  0  0  0  0  0  0  0  0  0  0  0
   -5.7939   -2.6825  -26.8202 S   0  0  0  0  0  0  0  0  0  0  0  0
   -6.0470   -3.0856  -28.1976 O   0  0  0  0  0  0  0  0  0  0  0  0
   -4.6771   -1.8063  -26.5109 O   0  0  0  0  0  0  0  0  0  0  0  0
   -7.3014   -2.0247  -26.1884 C   0  0  0  0  0  0  0  0  0  0  0  0
   -8.1726   -1.4404  -27.1041 C   0  0  0  0  0  0  0  0  0  0  0  0
   -9.3541   -0.8814  -26.6561 C   0  0  0  0  0  0  0  0  0  0  0  0
   -9.6643   -0.9183  -25.2931 C   0  0  0  0  0  0  0  0  0  0  0  0
   -8.7879   -1.5060  -24.3647 C   0  0  0  0  0  0  0  0  0  0  0  0
   -7.6131   -2.0920  -24.8390 C   0  0  0  0  0  0  0  0  0  0  0  0
   -6.9548   -2.6279  -24.1598 H   0  0  0  0  0  0  0  0  0  0  0  0
   -9.1121   -1.5347  -22.8736 C   0  0  1  0  0  0  0  0  0  0  0  0
  -10.6186   -1.2790  -22.7019 C   0  0  0  0  0  0  0  0  0  0  0  0
  -11.0453   -0.1004  -23.5735 C   0  0  0  0  0  0  0  0  0  0  0  0
  -10.8825   -0.4123  -24.9555 O   0  0  0  0  0  0  0  0  0  0  0  0
  -10.4541    0.7929  -23.3326 H   0  0  0  0  0  0  0  0  0  0  0  0
  -12.1095    0.1195  -23.4435 H   0  0  0  0  0  0  0  0  0  0  0  0
  -10.8415   -1.0850  -21.6501 H   0  0  0  0  0  0  0  0  0  0  0  0
  -11.1732   -2.1694  -23.0218 H   0  0  0  0  0  0  0  0  0  0  0  0
   -8.6624   -2.7647  -22.2248 N   0  0  0  0  0  0  0  0  0  0  0  0
   -7.4872   -2.5966  -21.5328 C   0  0  0  0  0  0  0  0  0  0  0  0
   -6.6731   -3.4321  -21.2197 O   0  0  0  0  0  0  0  0  0  0  0  0
   -7.3859   -1.2166  -21.2894 N   0  0  0  0  0  0  0  0  0  0  0  0
   -6.6239   -0.6610  -20.2239 C   0  0  0  0  0  0  0  0  0  0  0  0
   -6.9208   -0.9872  -18.9237 C   0  0  0  0  0  0  0  0  0  0  0  0
   -6.2365   -0.5303  -17.8464 N   0  0  0  0  0  0  0  0  0  0  0  0
   -5.2024    0.2433  -18.0710 C   0  0  0  0  0  0  0  0  0  0  0  0
   -4.7815    0.6613  -19.3647 C   0  0  0  0  0  0  0  0  0  0  0  0
   -3.6306    1.4748  -19.5605 C   0  0  0  0  0  0  0  0  0  0  0  0
   -3.2739    1.8590  -20.8241 C   0  0  0  0  0  0  0  0  0  0  0  0
   -4.0590    1.4802  -21.9385 C   0  0  0  0  0  0  0  0  0  0  0  0
   -5.1777    0.7006  -21.7712 C   0  0  0  0  0  0  0  0  0  0  0  0
   -5.5415    0.2386  -20.4768 C   0  0  0  0  0  0  0  0  0  0  0  0
   -5.7914    0.4094  -22.6205 H   0  0  0  0  0  0  0  0  0  0  0  0
   -3.7575    1.7747  -22.9400 H   0  0  0  0  0  0  0  0  0  0  0  0
   -2.3726    2.4452  -20.9843 H   0  0  0  0  0  0  0  0  0  0  0  0
   -3.0441    1.7648  -18.6908 H   0  0  0  0  0  0  0  0  0  0  0  0
   -4.6328    0.5657  -17.2016 H   0  0  0  0  0  0  0  0  0  0  0  0
   -7.7520   -1.6494  -18.7003 H   0  0  0  0  0  0  0  0  0  0  0  0
   -8.3051   -0.5060  -22.0660 C   0  0  0  0  0  0  0  0  0  0  0  0
   -8.4331    0.6942  -22.0717 O   0  0  0  0  0  0  0  0  0  0  0  0
   -8.7386   -3.6346  -22.7276 H   0  0  0  0  0  0  0  0  0  0  0  0
  -10.0639   -0.4274  -27.3425 H   0  0  0  0  0  0  0  0  0  0  0  0
   -7.9188   -1.4707  -28.1590 H   0  0  0  0  0  0  0  0  0  0  0  0
   -4.6299   -4.2554  -25.7789 H   0  0  0  0  0  0  0  0  0  0  0  0
   -6.1613   -4.8011  -26.2154 H   0  0  0  0  0  0  0  0  0  0  0  0
  1  2  1  0
  2  3  2  0
  2  4  2  0
  2  5  1  0
  5  6  2  0
  6  7  1  0
  7  8  2  0
  8  9  1  0
  9 10  2  0
 10 11  1  0
  9 12  1  0
 12 13  1  0
 13 14  1  0
 14 15  1  0
 14 16  1  0
 14 17  1  0
 13 18  1  0
 13 19  1  0
 12 20  1  1
 20 21  1  0
 21 22  2  0
 21 23  1  0
 23 24  1  0
 24 25  2  0
 25 26  1  0
 26 27  2  0
 27 28  1  0
 28 29  2  0
 29 30  1  0
 30 31  2  0
 31 32  1  0
 32 33  2  0
 32 34  1  0
 31 35  1  0
 30 36  1  0
 29 37  1  0
 27 38  1  0
 25 39  1  0
 23 40  1  0
 40 41  2  0
 20 42  1  0
  7 43  1  0
  6 44  1  0
  1 45  1  0
  1 46  1  0
 10  5  1  0
 40 12  1  0
 15  8  1  0
 33 24  1  0
 33 28  1  0
M  END
>  <cnnaffinities>  (81) 
[5.28125, 5.47704, 5.47671, 5.23048]

>  <score>  (81) 
5.28125

>  <index>  (81) 
83

>  <Smiles>  (81) 
N(S(=O)(=O)c1c(c(c2c(c1[H])[C@@]1(C(C(O2)([H])[H])([H])[H])N(C(=O)N(c2c(nc(c3c(c(c(c(c23)[H])[H])[H])[H])[H])[H])C1=O)[H])[H])[H])([H])[H]

>  <h>  (81) 
<NA>

>  <Training>  (81) 
True

>  <Success>  (81) 
True

>  <enamine_searched>  (81) 
False

>  <enamine_id>  (81) 
nan

$$$$

     RDKit          3D

 63 68  0  0  0  0  0  0  0  0999 V2000
   -8.2323   -3.6421  -23.9415 C   0  0  0  0  0  0  0  0  0  0  0  0
   -8.4080   -2.9022  -22.6206 C   0  0  1  0  0  0  0  0  0  0  0  0
   -7.0811   -2.4569  -21.9762 C   0  0  0  0  0  0  0  0  0  0  0  0
   -7.4728   -1.3067  -21.1873 N   0  0  0  0  0  0  0  0  0  0  0  0
   -6.6730   -0.7390  -20.1594 C   0  0  0  0  0  0  0  0  0  0  0  0
   -6.9522   -1.0224  -18.8466 C   0  0  0  0  0  0  0  0  0  0  0  0
   -6.2294   -0.5683  -17.7928 N   0  0  0  0  0  0  0  0  0  0  0  0
   -5.1937    0.1925  -18.0521 C   0  0  0  0  0  0  0  0  0  0  0  0
   -4.7814    0.5582  -19.3664 C   0  0  0  0  0  0  0  0  0  0  0  0
   -3.6614    1.4015  -19.5935 C   0  0  0  0  0  0  0  0  0  0  0  0
   -3.3255    1.7817  -20.8652 C   0  0  0  0  0  0  0  0  0  0  0  0
   -4.0994    1.3509  -21.9633 C   0  0  0  0  0  0  0  0  0  0  0  0
   -5.1775    0.5137  -21.7696 C   0  0  0  0  0  0  0  0  0  0  0  0
   -5.5485    0.0933  -20.4622 C   0  0  0  0  0  0  0  0  0  0  0  0
   -5.7897    0.2319  -22.6224 H   0  0  0  0  0  0  0  0  0  0  0  0
   -3.8366    1.6731  -22.9678 H   0  0  0  0  0  0  0  0  0  0  0  0
   -2.4698    2.4293  -21.0378 H   0  0  0  0  0  0  0  0  0  0  0  0
   -3.1036    1.7558  -18.7298 H   0  0  0  0  0  0  0  0  0  0  0  0
   -4.6216    0.5716  -17.2030 H   0  0  0  0  0  0  0  0  0  0  0  0
   -7.7962   -1.6635  -18.6009 H   0  0  0  0  0  0  0  0  0  0  0  0
   -8.6857   -0.7638  -21.5524 C   0  0  0  0  0  0  0  0  0  0  0  0
   -9.1513    0.2523  -21.0713 O   0  0  0  0  0  0  0  0  0  0  0  0
   -9.3066   -1.6310  -22.6828 C   0  0  1  0  0  0  0  0  0  0  0  0
   -9.1413   -0.8952  -24.0465 C   0  0  0  0  0  0  0  0  0  0  0  0
   -9.9942    0.2782  -24.1650 N   0  0  0  0  0  0  0  0  0  0  0  0
   -9.4775    1.4232  -24.9078 C   0  0  0  0  0  0  0  0  0  0  0  0
   -8.2361    1.9300  -24.1711 C   0  0  0  0  0  0  0  0  0  0  0  0
   -7.0989    1.5762  -24.4371 O   0  0  0  0  0  0  0  0  0  0  0  0
   -8.5487    2.7304  -23.1148 N   0  0  0  0  0  0  0  0  0  0  0  0
   -7.5897    3.0170  -22.0724 C   0  0  0  0  0  0  0  0  0  0  0  0
   -6.8936    4.3445  -22.2093 C   0  0  0  0  0  0  0  0  0  0  0  0
   -6.2087    4.4221  -23.4006 F   0  0  0  0  0  0  0  0  0  0  0  0
   -6.2301    5.0172  -21.0615 C   0  0  0  0  0  0  0  0  0  0  0  0
   -7.4412    5.6441  -21.7215 C   0  0  0  0  0  0  0  0  0  0  0  0
   -8.3865    5.6753  -21.1805 H   0  0  0  0  0  0  0  0  0  0  0  0
   -7.2380    6.4942  -22.3688 H   0  0  0  0  0  0  0  0  0  0  0  0
   -6.3544    4.5916  -20.0710 H   0  0  0  0  0  0  0  0  0  0  0  0
   -5.2706    5.4774  -21.2765 H   0  0  0  0  0  0  0  0  0  0  0  0
   -6.8359    2.2342  -22.0817 H   0  0  0  0  0  0  0  0  0  0  0  0
   -8.1193    2.9358  -21.1262 H   0  0  0  0  0  0  0  0  0  0  0  0
   -9.5225    2.8527  -22.8827 H   0  0  0  0  0  0  0  0  0  0  0  0
   -9.2478    1.1515  -25.9459 H   0  0  0  0  0  0  0  0  0  0  0  0
  -10.2589    2.1861  -24.9166 H   0  0  0  0  0  0  0  0  0  0  0  0
  -11.2873    0.2864  -23.7305 C   0  0  0  0  0  0  0  0  0  0  0  0
  -12.0602    1.2047  -23.9837 O   0  0  0  0  0  0  0  0  0  0  0  0
  -11.7189   -0.8952  -22.9090 C   0  0  0  0  0  0  0  0  0  0  0  0
  -13.0752   -0.9829  -22.5919 C   0  0  0  0  0  0  0  0  0  0  0  0
  -13.5532   -2.0251  -21.8286 C   0  0  0  0  0  0  0  0  0  0  0  0
  -12.6547   -3.0026  -21.4224 C   0  0  0  0  0  0  0  0  0  0  0  0
  -13.1161   -4.0106  -20.6624 F   0  0  0  0  0  0  0  0  0  0  0  0
  -11.3095   -2.9520  -21.7388 C   0  0  0  0  0  0  0  0  0  0  0  0
  -10.8008   -1.8597  -22.4600 C   0  0  0  0  0  0  0  0  0  0  0  0
  -10.6801   -3.7600  -21.3833 H   0  0  0  0  0  0  0  0  0  0  0  0
  -14.5975   -2.1025  -21.5505 H   0  0  0  0  0  0  0  0  0  0  0  0
  -13.7410   -0.2118  -22.9634 H   0  0  0  0  0  0  0  0  0  0  0  0
   -9.3754   -1.5836  -24.8701 H   0  0  0  0  0  0  0  0  0  0  0  0
   -8.1033   -0.5666  -24.1561 H   0  0  0  0  0  0  0  0  0  0  0  0
   -6.3279   -2.1872  -22.7334 H   0  0  0  0  0  0  0  0  0  0  0  0
   -6.6435   -3.2374  -21.3428 H   0  0  0  0  0  0  0  0  0  0  0  0
   -8.8705   -3.5810  -21.9012 H   0  0  0  0  0  0  0  0  0  0  0  0
   -7.6797   -3.0275  -24.6613 H   0  0  0  0  0  0  0  0  0  0  0  0
   -7.6760   -4.5740  -23.8081 H   0  0  0  0  0  0  0  0  0  0  0  0
   -9.2054   -3.8808  -24.3847 H   0  0  0  0  0  0  0  0  0  0  0  0
  1  2  1  0
  2  3  1  0
  3  4  1  0
  4  5  1  0
  5  6  2  0
  6  7  1  0
  7  8  2  0
  8  9  1  0
  9 10  2  0
 10 11  1  0
 11 12  2  0
 12 13  1  0
 13 14  2  0
 13 15  1  0
 12 16  1  0
 11 17  1  0
 10 18  1  0
  8 19  1  0
  6 20  1  0
  4 21  1  0
 21 22  2  0
 21 23  1  0
 23 24  1  6
 24 25  1  0
 25 26  1  0
 26 27  1  0
 27 28  2  0
 27 29  1  0
 29 30  1  0
 30 31  1  0
 31 32  1  0
 31 33  1  0
 33 34  1  0
 34 35  1  0
 34 36  1  0
 33 37  1  0
 33 38  1  0
 30 39  1  0
 30 40  1  0
 29 41  1  0
 26 42  1  0
 26 43  1  0
 25 44  1  0
 44 45  2  0
 44 46  1  0
 46 47  2  0
 47 48  1  0
 48 49  2  0
 49 50  1  0
 49 51  1  0
 51 52  2  0
 51 53  1  0
 48 54  1  0
 47 55  1  0
 24 56  1  0
 24 57  1  0
  3 58  1  0
  3 59  1  0
  2 60  1  1
  1 61  1  0
  1 62  1  0
  1 63  1  0
 23  2  1  0
 34 31  1  0
 52 46  1  0
 14  5  1  0
 52 23  1  0
 14  9  1  0
M  END
>  <cnnaffinities>  (82) 
[6.46361]

>  <score>  (82) 
6.46361

>  <index>  (82) 
84

>  <Smiles>  (82) 
C([C@]1(C(N(c2c(nc(c3c(c(c(c(c23)[H])[H])[H])[H])[H])[H])C(=O)[C@]21C(N(C(C(=O)N(C(C1(F)C(C1([H])[H])([H])[H])([H])[H])[H])([H])[H])C(=O)c1c(c(c(F)c(c21)[H])[H])[H])([H])[H])([H])[H])[H])([H])([H])[H]

>  <h>  (82) 
<NA>

>  <Training>  (82) 
True

>  <Success>  (82) 
True

>  <enamine_searched>  (82) 
False

>  <enamine_id>  (82) 
nan

$$$$

     RDKit          3D

 57 62  0  0  0  0  0  0  0  0999 V2000
   -6.7690    3.5705  -23.2264 C   0  0  0  0  0  0  0  0  0  0  0  0
   -7.6521    2.9319  -24.1850 N   0  0  0  0  0  0  0  0  0  0  0  0
   -7.2218    1.8133  -24.8229 C   0  0  0  0  0  0  0  0  0  0  0  0
   -6.0716    1.3998  -24.7393 O   0  0  0  0  0  0  0  0  0  0  0  0
   -8.2804    1.0990  -25.6660 C   0  0  0  0  0  0  0  0  0  0  0  0
   -9.1366    0.2708  -24.8472 N   0  0  0  0  0  0  0  0  0  0  0  0
   -8.6893   -1.0672  -24.4907 C   0  0  0  0  0  0  0  0  0  0  0  0
   -9.0145   -1.4270  -23.0192 C   0  0  2  0  0  0  0  0  0  0  0  0
   -8.1823   -0.5270  -22.0776 C   0  0  0  0  0  0  0  0  0  0  0  0
   -8.2028    0.6882  -22.0526 O   0  0  0  0  0  0  0  0  0  0  0  0
   -7.4287   -1.3137  -21.2268 N   0  0  0  0  0  0  0  0  0  0  0  0
   -6.6321   -0.7709  -20.1906 C   0  0  0  0  0  0  0  0  0  0  0  0
   -6.9058   -1.0697  -18.8779 C   0  0  0  0  0  0  0  0  0  0  0  0
   -6.2121   -0.5866  -17.8204 N   0  0  0  0  0  0  0  0  0  0  0  0
   -5.1989    0.2069  -18.0765 C   0  0  0  0  0  0  0  0  0  0  0  0
   -4.7862    0.5746  -19.3884 C   0  0  0  0  0  0  0  0  0  0  0  0
   -3.6449    1.3931  -19.6086 C   0  0  0  0  0  0  0  0  0  0  0  0
   -3.2719    1.7424  -20.8777 C   0  0  0  0  0  0  0  0  0  0  0  0
   -4.0397    1.3053  -21.9807 C   0  0  0  0  0  0  0  0  0  0  0  0
   -5.1220    0.4789  -21.7968 C   0  0  0  0  0  0  0  0  0  0  0  0
   -5.5276    0.0911  -20.4874 C   0  0  0  0  0  0  0  0  0  0  0  0
   -5.6530    0.1060  -22.6660 H   0  0  0  0  0  0  0  0  0  0  0  0
   -3.7653    1.6010  -22.9907 H   0  0  0  0  0  0  0  0  0  0  0  0
   -2.3874    2.3507  -21.0423 H   0  0  0  0  0  0  0  0  0  0  0  0
   -3.0860    1.7380  -18.7444 H   0  0  0  0  0  0  0  0  0  0  0  0
   -4.6386    0.5865  -17.2236 H   0  0  0  0  0  0  0  0  0  0  0  0
   -7.7511   -1.7121  -18.6363 H   0  0  0  0  0  0  0  0  0  0  0  0
   -7.7063   -2.7321  -21.3539 C   0  0  0  0  0  0  0  0  0  0  0  0
   -8.5533   -2.8388  -22.6171 C   0  0  0  0  0  0  0  0  0  0  0  0
   -9.4419   -4.0381  -22.8035 C   0  0  0  0  0  0  0  0  0  0  0  0
   -8.1976   -3.8998  -23.6253 C   0  0  0  0  0  0  0  0  0  0  0  0
   -8.2990   -3.6655  -24.6807 H   0  0  0  0  0  0  0  0  0  0  0  0
   -7.3589   -4.5516  -23.3979 H   0  0  0  0  0  0  0  0  0  0  0  0
   -9.4784   -4.7976  -22.0190 H   0  0  0  0  0  0  0  0  0  0  0  0
  -10.3936   -3.8687  -23.3021 H   0  0  0  0  0  0  0  0  0  0  0  0
   -6.7732   -3.2981  -21.4461 H   0  0  0  0  0  0  0  0  0  0  0  0
   -8.2626   -3.1093  -20.4872 H   0  0  0  0  0  0  0  0  0  0  0  0
  -10.5095   -1.1523  -22.8549 C   0  0  0  0  0  0  0  0  0  0  0  0
  -11.3249   -1.9267  -22.0408 C   0  0  0  0  0  0  0  0  0  0  0  0
  -12.6889   -1.7008  -21.9705 C   0  0  0  0  0  0  0  0  0  0  0  0
  -13.6192   -2.7764  -20.9796 Cl  0  0  0  0  0  0  0  0  0  0  0  0
  -13.2967   -0.6117  -22.5862 C   0  0  0  0  0  0  0  0  0  0  0  0
  -12.4695    0.2158  -23.3269 C   0  0  0  0  0  0  0  0  0  0  0  0
  -11.1227   -0.0780  -23.5130 C   0  0  0  0  0  0  0  0  0  0  0  0
  -10.3550    0.7664  -24.4826 C   0  0  0  0  0  0  0  0  0  0  0  0
  -10.7750    1.8377  -24.9113 O   0  0  0  0  0  0  0  0  0  0  0  0
  -12.8202    1.1248  -23.7883 H   0  0  0  0  0  0  0  0  0  0  0  0
  -14.3628   -0.4324  -22.4685 H   0  0  0  0  0  0  0  0  0  0  0  0
  -10.8965   -2.6974  -21.4220 H   0  0  0  0  0  0  0  0  0  0  0  0
   -9.1978   -1.7924  -25.1370 H   0  0  0  0  0  0  0  0  0  0  0  0
   -7.6076   -1.1351  -24.6428 H   0  0  0  0  0  0  0  0  0  0  0  0
   -8.9314    1.8220  -26.1613 H   0  0  0  0  0  0  0  0  0  0  0  0
   -7.7694    0.4762  -26.4046 H   0  0  0  0  0  0  0  0  0  0  0  0
   -8.6475    3.0810  -24.0882 H   0  0  0  0  0  0  0  0  0  0  0  0
   -7.2818    4.4049  -22.7423 H   0  0  0  0  0  0  0  0  0  0  0  0
   -6.4462    2.8506  -22.4620 H   0  0  0  0  0  0  0  0  0  0  0  0
   -5.8793    3.9487  -23.7382 H   0  0  0  0  0  0  0  0  0  0  0  0
  1  2  1  0
  2  3  1  0
  3  4  2  0
  3  5  1  0
  5  6  1  0
  6  7  1  0
  8  7  1  6
  8  9  1  0
  9 10  2  0
  9 11  1  0
 11 12  1  0
 12 13  2  0
 13 14  1  0
 14 15  2  0
 15 16  1  0
 16 17  2  0
 17 18  1  0
 18 19  2  0
 19 20  1  0
 20 21  2  0
 20 22  1  0
 19 23  1  0
 18 24  1  0
 17 25  1  0
 15 26  1  0
 13 27  1  0
 11 28  1  0
 28 29  1  0
 29 30  1  0
 30 31  1  0
 31 32  1  0
 31 33  1  0
 30 34  1  0
 30 35  1  0
 28 36  1  0
 28 37  1  0
  8 38  1  0
 38 39  2  0
 39 40  1  0
 40 41  1  0
 40 42  2  0
 42 43  1  0
 43 44  2  0
 44 45  1  0
 45 46  2  0
 43 47  1  0
 42 48  1  0
 39 49  1  0
  7 50  1  0
  7 51  1  0
  5 52  1  0
  5 53  1  0
  2 54  1  0
  1 55  1  0
  1 56  1  0
  1 57  1  0
 45  6  1  0
 29  8  1  0
 44 38  1  0
 21 12  1  0
 31 29  1  0
 21 16  1  0
M  END
>  <cnnaffinities>  (83) 
[5.23965]

>  <score>  (83) 
5.23965

>  <index>  (83) 
85

>  <Smiles>  (83) 
C(N(C(=O)C(N1C([C@@]2(C(=O)N(c3c(nc(c4c(c(c(c(c34)[H])[H])[H])[H])[H])[H])C(C32C(C3([H])[H])([H])[H])([H])[H])c2c(c(Cl)c(c(c2C1=O)[H])[H])[H])([H])[H])([H])[H])[H])([H])([H])[H]

>  <h>  (83) 
<NA>

>  <Training>  (83) 
True

>  <Success>  (83) 
True

>  <enamine_searched>  (83) 
False

>  <enamine_id>  (83) 
nan

$$$$

     RDKit          3D

 43 45  0  0  0  0  0  0  0  0999 V2000
   -8.5470   -5.5635  -25.7817 C   0  0  0  0  0  0  0  0  0  0  0  0
   -9.0632   -5.4493  -24.3445 C   0  0  1  0  0  0  0  0  0  0  0  0
   -8.0269   -5.8764  -23.3084 C   0  0  0  0  0  0  0  0  0  0  0  0
   -6.9382   -4.8326  -23.0940 C   0  0  0  0  0  0  0  0  0  0  0  0
   -7.5132   -3.5412  -22.7113 N   0  0  0  0  0  0  0  0  0  0  0  0
   -6.7551   -2.7459  -21.8630 C   0  0  0  0  0  0  0  0  0  0  0  0
   -5.6166   -3.0480  -21.5525 O   0  0  0  0  0  0  0  0  0  0  0  0
   -7.4123   -1.4756  -21.2696 C   0  0  0  0  0  0  0  0  0  0  0  0
   -6.5785   -0.8315  -20.1827 C   0  0  0  0  0  0  0  0  0  0  0  0
   -6.8727   -1.0489  -18.8638 C   0  0  0  0  0  0  0  0  0  0  0  0
   -6.1897   -0.5439  -17.8007 N   0  0  0  0  0  0  0  0  0  0  0  0
   -5.1575    0.2197  -18.0638 C   0  0  0  0  0  0  0  0  0  0  0  0
   -4.7229    0.5336  -19.3767 C   0  0  0  0  0  0  0  0  0  0  0  0
   -3.5940    1.3603  -19.6154 C   0  0  0  0  0  0  0  0  0  0  0  0
   -3.2176    1.6779  -20.8917 C   0  0  0  0  0  0  0  0  0  0  0  0
   -3.9835    1.2125  -21.9805 C   0  0  0  0  0  0  0  0  0  0  0  0
   -5.0686    0.3880  -21.7759 C   0  0  0  0  0  0  0  0  0  0  0  0
   -5.4635    0.0139  -20.4700 C   0  0  0  0  0  0  0  0  0  0  0  0
   -5.5396   -0.1007  -22.6232 H   0  0  0  0  0  0  0  0  0  0  0  0
   -3.6034    1.3600  -22.9877 H   0  0  0  0  0  0  0  0  0  0  0  0
   -2.3234    2.2731  -21.0809 H   0  0  0  0  0  0  0  0  0  0  0  0
   -3.0548    1.7659  -18.7604 H   0  0  0  0  0  0  0  0  0  0  0  0
   -4.6046    0.6280  -17.2137 H   0  0  0  0  0  0  0  0  0  0  0  0
   -7.7218   -1.6719  -18.5848 H   0  0  0  0  0  0  0  0  0  0  0  0
   -7.6222   -0.7489  -22.0680 H   0  0  0  0  0  0  0  0  0  0  0  0
   -8.3934   -1.7520  -20.8545 H   0  0  0  0  0  0  0  0  0  0  0  0
   -8.5392   -2.9981  -23.6122 C   0  0  1  0  0  0  0  0  0  0  0  0
   -7.9412   -2.2914  -24.8392 C   0  0  0  0  0  0  0  0  0  0  0  0
   -8.7287   -1.9766  -25.5353 H   0  0  0  0  0  0  0  0  0  0  0  0
   -7.2481   -2.9320  -25.3942 H   0  0  0  0  0  0  0  0  0  0  0  0
   -7.3898   -1.3880  -24.5499 H   0  0  0  0  0  0  0  0  0  0  0  0
   -9.5900   -4.0637  -23.9663 C   0  0  0  0  0  0  0  0  0  0  0  0
  -10.2123   -3.6824  -24.7835 H   0  0  0  0  0  0  0  0  0  0  0  0
  -10.2623   -4.1725  -23.1081 H   0  0  0  0  0  0  0  0  0  0  0  0
   -9.0794   -2.2370  -23.0428 H   0  0  0  0  0  0  0  0  0  0  0  0
   -6.3007   -4.7548  -23.9881 H   0  0  0  0  0  0  0  0  0  0  0  0
   -6.2734   -5.1444  -22.2898 H   0  0  0  0  0  0  0  0  0  0  0  0
   -7.5754   -6.8268  -23.6115 H   0  0  0  0  0  0  0  0  0  0  0  0
   -8.5230   -6.0623  -22.3510 H   0  0  0  0  0  0  0  0  0  0  0  0
   -9.9158   -6.1412  -24.2751 H   0  0  0  0  0  0  0  0  0  0  0  0
   -7.5999   -5.0389  -25.9393 H   0  0  0  0  0  0  0  0  0  0  0  0
   -8.3801   -6.6149  -26.0500 H   0  0  0  0  0  0  0  0  0  0  0  0
   -9.2686   -5.1519  -26.4971 H   0  0  0  0  0  0  0  0  0  0  0  0
  1  2  1  0
  2  3  1  0
  3  4  1  0
  4  5  1  0
  5  6  1  0
  6  7  2  0
  6  8  1  0
  8  9  1  0
  9 10  2  0
 10 11  1  0
 11 12  2  0
 12 13  1  0
 13 14  2  0
 14 15  1  0
 15 16  2  0
 16 17  1  0
 17 18  2  0
 17 19  1  0
 16 20  1  0
 15 21  1  0
 14 22  1  0
 12 23  1  0
 10 24  1  0
  8 25  1  0
  8 26  1  0
  5 27  1  0
 27 28  1  0
 28 29  1  0
 28 30  1  0
 28 31  1  0
 27 32  1  0
 32 33  1  0
 32 34  1  0
 27 35  1  1
  4 36  1  0
  4 37  1  0
  3 38  1  0
  3 39  1  0
  2 40  1  6
  1 41  1  0
  1 42  1  0
  1 43  1  0
 32  2  1  0
 18  9  1  0
 18 13  1  0
M  END
>  <cnnaffinities>  (84) 
[4.86821, 4.46676, 4.66084, 4.7602]

>  <score>  (84) 
4.86821

>  <index>  (84) 
86

>  <Smiles>  (84) 
C([C@]1(C(C(N(C(=O)C(c2c(nc(c3c(c(c(c(c23)[H])[H])[H])[H])[H])[H])([H])[H])[C@@](C([H])([H])[H])(C1([H])[H])[H])([H])[H])([H])[H])[H])([H])([H])[H]

>  <h>  (84) 
<NA>

>  <Training>  (84) 
True

>  <Success>  (84) 
True

>  <enamine_searched>  (84) 
False

>  <enamine_id>  (84) 
nan

$$$$

     RDKit          3D

 59 64  0  0  0  0  0  0  0  0999 V2000
   -8.3844   -4.1977  -23.5667 C   0  0  0  0  0  0  0  0  0  0  0  0
   -8.6139   -3.2374  -22.4056 C   0  0  1  0  0  0  0  0  0  0  0  0
   -7.3030   -2.5606  -21.9763 C   0  0  0  0  0  0  0  0  0  0  0  0
   -7.7646   -1.4070  -21.2353 N   0  0  0  0  0  0  0  0  0  0  0  0
   -7.0224   -0.7955  -20.2000 C   0  0  0  0  0  0  0  0  0  0  0  0
   -7.2790   -1.1233  -18.8939 C   0  0  0  0  0  0  0  0  0  0  0  0
   -6.5170   -0.7203  -17.8507 N   0  0  0  0  0  0  0  0  0  0  0  0
   -5.4756    0.0316  -18.1046 C   0  0  0  0  0  0  0  0  0  0  0  0
   -5.1238    0.4844  -19.4064 C   0  0  0  0  0  0  0  0  0  0  0  0
   -4.0037    1.3253  -19.6292 C   0  0  0  0  0  0  0  0  0  0  0  0
   -3.7427    1.8014  -20.8865 C   0  0  0  0  0  0  0  0  0  0  0  0
   -4.5817    1.4574  -21.9693 C   0  0  0  0  0  0  0  0  0  0  0  0
   -5.6486    0.6139  -21.7813 C   0  0  0  0  0  0  0  0  0  0  0  0
   -5.9371    0.0911  -20.4917 C   0  0  0  0  0  0  0  0  0  0  0  0
   -6.2852    0.3374  -22.6166 H   0  0  0  0  0  0  0  0  0  0  0  0
   -4.3798    1.8663  -22.9564 H   0  0  0  0  0  0  0  0  0  0  0  0
   -2.8932    2.4562  -21.0550 H   0  0  0  0  0  0  0  0  0  0  0  0
   -3.3759    1.5892  -18.7819 H   0  0  0  0  0  0  0  0  0  0  0  0
   -4.8572    0.3251  -17.2564 H   0  0  0  0  0  0  0  0  0  0  0  0
   -8.1304   -1.7577  -18.6522 H   0  0  0  0  0  0  0  0  0  0  0  0
   -9.0624   -1.0539  -21.5264 C   0  0  0  0  0  0  0  0  0  0  0  0
   -9.6249   -0.0779  -21.0738 O   0  0  0  0  0  0  0  0  0  0  0  0
   -9.6151   -2.0573  -22.5822 C   0  0  1  0  0  0  0  0  0  0  0  0
   -9.5128   -1.3524  -23.9507 C   0  0  0  0  0  0  0  0  0  0  0  0
  -10.3708   -0.1840  -23.9521 N   0  0  0  0  0  0  0  0  0  0  0  0
   -9.8122    1.1103  -24.2927 C   0  0  0  0  0  0  0  0  0  0  0  0
   -9.9112    1.3877  -25.7630 C   0  0  0  0  0  0  0  0  0  0  0  0
   -9.2659    0.7606  -26.8084 C   0  0  0  0  0  0  0  0  0  0  0  0
   -9.8721    1.3003  -27.9597 C   0  0  0  0  0  0  0  0  0  0  0  0
  -10.8114    2.1892  -27.6539 N   0  0  0  0  0  0  0  0  0  0  0  0
  -10.8286    2.2223  -26.3140 N   0  0  0  0  0  0  0  0  0  0  0  0
  -11.8230    3.0344  -25.6371 C   0  0  0  0  0  0  0  0  0  0  0  0
  -11.3507    3.7766  -24.9892 H   0  0  0  0  0  0  0  0  0  0  0  0
  -12.4732    2.3760  -25.0644 H   0  0  0  0  0  0  0  0  0  0  0  0
  -12.3917    3.5466  -26.4084 H   0  0  0  0  0  0  0  0  0  0  0  0
   -9.7062    1.0271  -28.9939 H   0  0  0  0  0  0  0  0  0  0  0  0
   -8.4790    0.0142  -26.7171 H   0  0  0  0  0  0  0  0  0  0  0  0
  -10.3030    1.8752  -23.6790 H   0  0  0  0  0  0  0  0  0  0  0  0
   -8.7636    1.0932  -23.9754 H   0  0  0  0  0  0  0  0  0  0  0  0
  -11.7042   -0.2877  -23.6859 C   0  0  0  0  0  0  0  0  0  0  0  0
  -12.5411    0.4913  -24.1254 O   0  0  0  0  0  0  0  0  0  0  0  0
  -12.0524   -1.3761  -22.7270 C   0  0  0  0  0  0  0  0  0  0  0  0
  -13.3160   -1.3358  -22.1486 C   0  0  0  0  0  0  0  0  0  0  0  0
  -13.6971   -2.2997  -21.2418 C   0  0  0  0  0  0  0  0  0  0  0  0
  -12.8013   -3.3299  -20.9874 C   0  0  0  0  0  0  0  0  0  0  0  0
  -13.1684   -4.2473  -20.0790 F   0  0  0  0  0  0  0  0  0  0  0  0
  -11.5344   -3.3811  -21.5353 C   0  0  0  0  0  0  0  0  0  0  0  0
  -11.0917   -2.3252  -22.3331 C   0  0  0  0  0  0  0  0  0  0  0  0
  -10.8806   -4.1857  -21.2192 H   0  0  0  0  0  0  0  0  0  0  0  0
  -14.6563   -2.2905  -20.7435 H   0  0  0  0  0  0  0  0  0  0  0  0
  -13.9595   -0.5088  -22.4141 H   0  0  0  0  0  0  0  0  0  0  0  0
   -9.8113   -2.0484  -24.7464 H   0  0  0  0  0  0  0  0  0  0  0  0
   -8.4838   -1.0240  -24.1382 H   0  0  0  0  0  0  0  0  0  0  0  0
   -6.7056   -2.2670  -22.8561 H   0  0  0  0  0  0  0  0  0  0  0  0
   -6.6770   -3.2078  -21.3529 H   0  0  0  0  0  0  0  0  0  0  0  0
   -8.9527   -3.8071  -21.5331 H   0  0  0  0  0  0  0  0  0  0  0  0
   -9.2827   -4.7683  -23.8186 H   0  0  0  0  0  0  0  0  0  0  0  0
   -7.5916   -4.9105  -23.3048 H   0  0  0  0  0  0  0  0  0  0  0  0
   -8.0545   -3.6604  -24.4629 H   0  0  0  0  0  0  0  0  0  0  0  0
  1  2  1  0
  2  3  1  0
  3  4  1  0
  4  5  1  0
  5  6  2  0
  6  7  1  0
  7  8  2  0
  8  9  1  0
  9 10  2  0
 10 11  1  0
 11 12  2  0
 12 13  1  0
 13 14  2  0
 13 15  1  0
 12 16  1  0
 11 17  1  0
 10 18  1  0
  8 19  1  0
  6 20  1  0
  4 21  1  0
 21 22  2  0
 21 23  1  0
 23 24  1  6
 24 25  1  0
 25 26  1  0
 26 27  1  0
 27 28  2  0
 28 29  1  0
 29 30  2  0
 30 31  1  0
 31 32  1  0
 32 33  1  0
 32 34  1  0
 32 35  1  0
 29 36  1  0
 28 37  1  0
 26 38  1  0
 26 39  1  0
 25 40  1  0
 40 41  2  0
 40 42  1  0
 42 43  2  0
 43 44  1  0
 44 45  2  0
 45 46  1  0
 45 47  1  0
 47 48  2  0
 47 49  1  0
 44 50  1  0
 43 51  1  0
 24 52  1  0
 24 53  1  0
  3 54  1  0
  3 55  1  0
  2 56  1  1
  1 57  1  0
  1 58  1  0
  1 59  1  0
 23  2  1  0
 31 27  1  0
 48 42  1  0
 14  5  1  0
 48 23  1  0
 14  9  1  0
M  END
>  <cnnaffinities>  (85) 
[6.25985]

>  <score>  (85) 
6.25985

>  <index>  (85) 
87

>  <Smiles>  (85) 
C([C@]1(C(N(c2c(nc(c3c(c(c(c(c23)[H])[H])[H])[H])[H])[H])C(=O)[C@]21C(N(C(c1c(c(nn1C([H])([H])[H])[H])[H])([H])[H])C(=O)c1c(c(c(F)c(c21)[H])[H])[H])([H])[H])([H])[H])[H])([H])([H])[H]

>  <h>  (85) 
<NA>

>  <Training>  (85) 
True

>  <Success>  (85) 
True

>  <enamine_searched>  (85) 
False

>  <enamine_id>  (85) 
nan

$$$$

     RDKit          3D

 40 42  0  0  0  0  0  0  0  0999 V2000
   -5.4602   -1.6674  -23.5937 O   0  0  0  0  0  0  0  0  0  0  0  0
   -5.7876   -2.2460  -22.5670 C   0  0  0  0  0  0  0  0  0  0  0  0
   -6.8824   -1.6724  -21.6456 C   0  0  0  0  0  0  0  0  0  0  0  0
   -6.3385   -0.9593  -20.4252 C   0  0  0  0  0  0  0  0  0  0  0  0
   -6.7144   -1.3160  -19.1533 C   0  0  0  0  0  0  0  0  0  0  0  0
   -6.2282   -0.7680  -18.0092 N   0  0  0  0  0  0  0  0  0  0  0  0
   -5.3123    0.1631  -18.1365 C   0  0  0  0  0  0  0  0  0  0  0  0
   -4.8484    0.6465  -19.3865 C   0  0  0  0  0  0  0  0  0  0  0  0
   -3.8336    1.6302  -19.4758 C   0  0  0  0  0  0  0  0  0  0  0  0
   -3.4529    2.1276  -20.6936 C   0  0  0  0  0  0  0  0  0  0  0  0
   -4.0945    1.6733  -21.8678 C   0  0  0  0  0  0  0  0  0  0  0  0
   -5.0715    0.7119  -21.8113 C   0  0  0  0  0  0  0  0  0  0  0  0
   -5.4256    0.1261  -20.5641 C   0  0  0  0  0  0  0  0  0  0  0  0
   -5.5332    0.3496  -22.7223 H   0  0  0  0  0  0  0  0  0  0  0  0
   -3.8049    2.0872  -22.8288 H   0  0  0  0  0  0  0  0  0  0  0  0
   -2.6847    2.8916  -20.7626 H   0  0  0  0  0  0  0  0  0  0  0  0
   -3.3813    1.9807  -18.5532 H   0  0  0  0  0  0  0  0  0  0  0  0
   -4.8948    0.5868  -17.2219 H   0  0  0  0  0  0  0  0  0  0  0  0
   -7.4642   -2.0943  -18.9985 H   0  0  0  0  0  0  0  0  0  0  0  0
   -7.4873   -0.9870  -22.2530 H   0  0  0  0  0  0  0  0  0  0  0  0
   -7.5695   -2.4675  -21.3360 H   0  0  0  0  0  0  0  0  0  0  0  0
   -5.1741   -3.4032  -22.1829 N   0  0  0  0  0  0  0  0  0  0  0  0
   -4.1564   -3.9816  -23.0505 C   0  0  0  0  0  0  0  0  0  0  0  0
   -4.4962   -5.4359  -23.3744 C   0  0  0  0  0  0  0  0  0  0  0  0
   -4.5699   -6.1823  -22.0472 C   0  0  0  0  0  0  0  0  0  0  0  0
   -4.6123   -7.6900  -22.2002 C   0  0  0  0  0  0  0  0  0  0  0  0
   -4.8892   -8.2697  -20.9942 F   0  0  0  0  0  0  0  0  0  0  0  0
   -3.3579   -8.0946  -22.5838 F   0  0  0  0  0  0  0  0  0  0  0  0
   -5.3291   -8.0678  -22.9412 H   0  0  0  0  0  0  0  0  0  0  0  0
   -5.6623   -5.5715  -21.1759 C   0  0  0  0  0  0  0  0  0  0  0  0
   -5.3504   -4.0971  -20.9229 C   0  0  0  0  0  0  0  0  0  0  0  0
   -4.4326   -4.0158  -20.3256 H   0  0  0  0  0  0  0  0  0  0  0  0
   -6.1230   -3.5997  -20.3434 H   0  0  0  0  0  0  0  0  0  0  0  0
   -5.7147   -6.0747  -20.2103 H   0  0  0  0  0  0  0  0  0  0  0  0
   -6.6308   -5.6924  -21.6828 H   0  0  0  0  0  0  0  0  0  0  0  0
   -3.6081   -6.0258  -21.5652 H   0  0  0  0  0  0  0  0  0  0  0  0
   -5.4608   -5.4960  -23.9000 H   0  0  0  0  0  0  0  0  0  0  0  0
   -3.7220   -5.8706  -24.0182 H   0  0  0  0  0  0  0  0  0  0  0  0
   -3.1987   -3.9539  -22.5077 H   0  0  0  0  0  0  0  0  0  0  0  0
   -4.0902   -3.3461  -23.9334 H   0  0  0  0  0  0  0  0  0  0  0  0
  1  2  2  0
  2  3  1  0
  3  4  1  0
  4  5  2  0
  5  6  1  0
  6  7  2  0
  7  8  1  0
  8  9  2  0
  9 10  1  0
 10 11  2  0
 11 12  1  0
 12 13  2  0
 12 14  1  0
 11 15  1  0
 10 16  1  0
  9 17  1  0
  7 18  1  0
  5 19  1  0
  3 20  1  0
  3 21  1  0
  2 22  1  0
 22 23  1  0
 23 24  1  0
 24 25  1  0
 25 26  1  0
 26 27  1  0
 26 28  1  0
 26 29  1  0
 25 30  1  0
 30 31  1  0
 31 32  1  0
 31 33  1  0
 30 34  1  0
 30 35  1  0
 25 36  1  0
 24 37  1  0
 24 38  1  0
 23 39  1  0
 23 40  1  0
 13  4  1  0
 31 22  1  0
 13  8  1  0
M  END
>  <cnnaffinities>  (86) 
[3.87001, 4.39288, 4.43402, 4.43424, 4.43429]

>  <score>  (86) 
3.87001

>  <index>  (86) 
88

>  <Smiles>  (86) 
O=C(C(c1c(nc(c2c(c(c(c(c12)[H])[H])[H])[H])[H])[H])([H])[H])N1C(C(C(C(F)(F)[H])(C(C1([H])[H])([H])[H])[H])([H])[H])([H])[H]

>  <h>  (86) 
<NA>

>  <Training>  (86) 
True

>  <Success>  (86) 
True

>  <enamine_searched>  (86) 
False

>  <enamine_id>  (86) 
nan

$$$$

     RDKit          3D

 43 45  0  0  0  0  0  0  0  0999 V2000
   -6.1807   -4.3987  -27.1681 C   0  0  0  0  0  0  0  0  0  0  0  0
   -6.0120   -3.3628  -26.0550 C   0  0  0  0  0  0  0  0  0  0  0  0
   -5.3430   -2.1243  -26.6528 C   0  0  0  0  0  0  0  0  0  0  0  0
   -4.3659   -2.3754  -27.0750 H   0  0  0  0  0  0  0  0  0  0  0  0
   -5.9565   -1.7161  -27.4605 H   0  0  0  0  0  0  0  0  0  0  0  0
   -5.1859   -1.3217  -25.9312 H   0  0  0  0  0  0  0  0  0  0  0  0
   -5.1612   -3.9885  -24.9443 C   0  0  0  0  0  0  0  0  0  0  0  0
   -5.0955   -3.1380  -23.6941 C   0  0  0  0  0  0  0  0  0  0  0  0
   -6.4116   -2.7407  -23.2236 N   0  0  0  0  0  0  0  0  0  0  0  0
   -6.5077   -2.6345  -21.8511 C   0  0  0  0  0  0  0  0  0  0  0  0
   -5.8857   -3.3814  -21.1153 O   0  0  0  0  0  0  0  0  0  0  0  0
   -7.3642   -1.5010  -21.2774 C   0  0  0  0  0  0  0  0  0  0  0  0
   -6.6253   -0.7742  -20.1802 C   0  0  0  0  0  0  0  0  0  0  0  0
   -6.8961   -1.0472  -18.8669 C   0  0  0  0  0  0  0  0  0  0  0  0
   -6.2058   -0.5744  -17.7941 N   0  0  0  0  0  0  0  0  0  0  0  0
   -5.2004    0.2280  -18.0529 C   0  0  0  0  0  0  0  0  0  0  0  0
   -4.8034    0.6084  -19.3648 C   0  0  0  0  0  0  0  0  0  0  0  0
   -3.6546    1.4110  -19.5829 C   0  0  0  0  0  0  0  0  0  0  0  0
   -3.2837    1.7631  -20.8563 C   0  0  0  0  0  0  0  0  0  0  0  0
   -4.0747    1.3535  -21.9597 C   0  0  0  0  0  0  0  0  0  0  0  0
   -5.1588    0.5288  -21.7736 C   0  0  0  0  0  0  0  0  0  0  0  0
   -5.5401    0.1116  -20.4667 C   0  0  0  0  0  0  0  0  0  0  0  0
   -5.7229    0.1874  -22.6410 H   0  0  0  0  0  0  0  0  0  0  0  0
   -3.7999    1.6755  -22.9611 H   0  0  0  0  0  0  0  0  0  0  0  0
   -2.3968    2.3647  -21.0276 H   0  0  0  0  0  0  0  0  0  0  0  0
   -3.0651    1.7120  -18.7201 H   0  0  0  0  0  0  0  0  0  0  0  0
   -4.6257    0.5992  -17.2026 H   0  0  0  0  0  0  0  0  0  0  0  0
   -7.7274   -1.7071  -18.6211 H   0  0  0  0  0  0  0  0  0  0  0  0
   -8.2792   -1.9560  -20.8743 H   0  0  0  0  0  0  0  0  0  0  0  0
   -7.6467   -0.8218  -22.0863 H   0  0  0  0  0  0  0  0  0  0  0  0
   -7.3093   -2.1450  -24.2045 C   0  0  0  0  0  0  0  0  0  0  0  0
   -7.3848   -3.0213  -25.4595 C   0  0  0  0  0  0  0  0  0  0  0  0
   -8.0122   -2.5437  -26.2221 H   0  0  0  0  0  0  0  0  0  0  0  0
   -7.8711   -3.9625  -25.1903 H   0  0  0  0  0  0  0  0  0  0  0  0
   -6.9891   -1.1298  -24.4838 H   0  0  0  0  0  0  0  0  0  0  0  0
   -8.3026   -2.0480  -23.7629 H   0  0  0  0  0  0  0  0  0  0  0  0
   -4.6612   -3.6769  -22.8562 H   0  0  0  0  0  0  0  0  0  0  0  0
   -4.4749   -2.2441  -23.8642 H   0  0  0  0  0  0  0  0  0  0  0  0
   -4.1453   -4.1806  -25.3101 H   0  0  0  0  0  0  0  0  0  0  0  0
   -5.5991   -4.9596  -24.6937 H   0  0  0  0  0  0  0  0  0  0  0  0
   -5.2104   -4.6766  -27.5949 H   0  0  0  0  0  0  0  0  0  0  0  0
   -6.6449   -5.3135  -26.7877 H   0  0  0  0  0  0  0  0  0  0  0  0
   -6.8100   -4.0180  -27.9794 H   0  0  0  0  0  0  0  0  0  0  0  0
  1  2  1  0
  2  3  1  0
  3  4  1  0
  3  5  1  0
  3  6  1  0
  2  7  1  0
  7  8  1  0
  8  9  1  0
  9 10  1  0
 10 11  2  0
 10 12  1  0
 12 13  1  0
 13 14  2  0
 14 15  1  0
 15 16  2  0
 16 17  1  0
 17 18  2  0
 18 19  1  0
 19 20  2  0
 20 21  1  0
 21 22  2  0
 21 23  1  0
 20 24  1  0
 19 25  1  0
 18 26  1  0
 16 27  1  0
 14 28  1  0
 12 29  1  0
 12 30  1  0
  9 31  1  0
 31 32  1  0
 32 33  1  0
 32 34  1  0
 31 35  1  0
 31 36  1  0
  8 37  1  0
  8 38  1  0
  7 39  1  0
  7 40  1  0
  1 41  1  0
  1 42  1  0
  1 43  1  0
 32  2  1  0
 22 13  1  0
 22 17  1  0
M  END
>  <cnnaffinities>  (87) 
[4.522, 4.45002, 4.45017, 4.45004, 4.45023]

>  <score>  (87) 
4.522

>  <index>  (87) 
89

>  <Smiles>  (87) 
C(C1(C([H])([H])[H])C(C(N(C(=O)C(c2c(nc(c3c(c(c(c(c23)[H])[H])[H])[H])[H])[H])([H])[H])C(C1([H])[H])([H])[H])([H])[H])([H])[H])([H])([H])[H]

>  <h>  (87) 
<NA>

>  <Training>  (87) 
True

>  <Success>  (87) 
True

>  <enamine_searched>  (87) 
False

>  <enamine_id>  (87) 
nan

$$$$

     RDKit          3D

 64 68  0  0  0  0  0  0  0  0999 V2000
   -7.2553   -4.5541  -27.8360 C   0  0  0  0  0  0  0  0  0  0  0  0
   -7.9258   -3.4648  -27.1413 N   0  0  0  0  0  0  0  0  0  0  0  0
   -9.1255   -3.7184  -26.5372 C   0  0  0  0  0  0  0  0  0  0  0  0
   -9.5668   -4.8516  -26.4546 O   0  0  0  0  0  0  0  0  0  0  0  0
   -9.8739   -2.5068  -25.9614 C   0  0  0  0  0  0  0  0  0  0  0  0
   -9.9995   -2.5339  -24.5048 N   0  0  0  0  0  0  0  0  0  0  0  0
   -9.2312   -1.5527  -23.7118 C   0  0  0  0  0  0  0  0  0  0  0  0
   -8.7764   -2.0648  -22.3128 C   0  0  2  0  0  0  0  0  0  0  0  0
   -8.1930   -0.9500  -21.4446 C   0  0  0  0  0  0  0  0  0  0  0  0
   -8.8274   -0.0404  -20.9466 O   0  0  0  0  0  0  0  0  0  0  0  0
   -6.8582   -1.1949  -21.2441 N   0  0  0  0  0  0  0  0  0  0  0  0
   -6.1883   -0.5907  -20.1480 C   0  0  0  0  0  0  0  0  0  0  0  0
   -6.5066   -0.9384  -18.8577 C   0  0  0  0  0  0  0  0  0  0  0  0
   -5.8508   -0.4815  -17.7620 N   0  0  0  0  0  0  0  0  0  0  0  0
   -4.8613    0.3573  -17.9561 C   0  0  0  0  0  0  0  0  0  0  0  0
   -4.4514    0.8245  -19.2377 C   0  0  0  0  0  0  0  0  0  0  0  0
   -3.3762    1.7350  -19.4023 C   0  0  0  0  0  0  0  0  0  0  0  0
   -3.0581    2.2077  -20.6455 C   0  0  0  0  0  0  0  0  0  0  0  0
   -3.7984    1.8021  -21.7788 C   0  0  0  0  0  0  0  0  0  0  0  0
   -4.8339    0.9088  -21.6483 C   0  0  0  0  0  0  0  0  0  0  0  0
   -5.1604    0.3749  -20.3738 C   0  0  0  0  0  0  0  0  0  0  0  0
   -5.4120    0.5999  -22.5143 H   0  0  0  0  0  0  0  0  0  0  0  0
   -3.5438    2.1995  -22.7572 H   0  0  0  0  0  0  0  0  0  0  0  0
   -2.2386    2.9106  -20.7713 H   0  0  0  0  0  0  0  0  0  0  0  0
   -2.8274    2.0482  -18.5186 H   0  0  0  0  0  0  0  0  0  0  0  0
   -4.3276    0.7137  -17.0741 H   0  0  0  0  0  0  0  0  0  0  0  0
   -7.3181   -1.6351  -18.6573 H   0  0  0  0  0  0  0  0  0  0  0  0
   -6.3743   -2.3432  -21.9955 C   0  0  0  0  0  0  0  0  0  0  0  0
   -7.6531   -3.1514  -22.3156 C   0  0  2  0  0  0  0  0  0  0  0  0
   -7.5799   -4.0038  -23.5903 C   0  0  0  0  0  0  0  0  0  0  0  0
   -6.4296   -5.3692  -23.5827 S   0  0  0  0  0  0  0  0  0  0  0  0
   -6.5465   -6.0142  -24.8805 O   0  0  0  0  0  0  0  0  0  0  0  0
   -5.1464   -4.9084  -23.0810 O   0  0  0  0  0  0  0  0  0  0  0  0
   -7.0168   -6.4256  -22.4603 N   0  0  0  0  0  0  0  0  0  0  0  0
   -8.2953   -7.0764  -22.7134 C   0  0  0  0  0  0  0  0  0  0  0  0
   -8.2205   -7.6382  -23.6459 H   0  0  0  0  0  0  0  0  0  0  0  0
   -9.1374   -6.3744  -22.7903 H   0  0  0  0  0  0  0  0  0  0  0  0
   -8.4946   -7.7700  -21.8941 H   0  0  0  0  0  0  0  0  0  0  0  0
   -6.8121   -6.1337  -21.5150 H   0  0  0  0  0  0  0  0  0  0  0  0
   -7.2767   -3.4143  -24.4578 H   0  0  0  0  0  0  0  0  0  0  0  0
   -8.5552   -4.4456  -23.8126 H   0  0  0  0  0  0  0  0  0  0  0  0
   -7.8755   -3.8210  -21.4711 H   0  0  0  0  0  0  0  0  0  0  0  0
   -5.8978   -2.0139  -22.9298 H   0  0  0  0  0  0  0  0  0  0  0  0
   -5.6390   -2.9110  -21.4223 H   0  0  0  0  0  0  0  0  0  0  0  0
  -10.0463   -2.4362  -21.5636 C   0  0  0  0  0  0  0  0  0  0  0  0
  -10.4438   -3.7090  -21.4882 C   0  0  0  0  0  0  0  0  0  0  0  0
  -13.2036   -3.7086  -20.8962 C   0  0  0  0  0  0  0  0  0  0  0  0
  -14.0243   -4.5684  -20.2887 F   0  0  0  0  0  0  0  0  0  0  0  0
  -13.1503   -3.5912  -20.9275 C   0  0  0  0  0  0  0  0  0  0  0  0
  -12.6664   -3.4918  -22.1797 C   0  0  0  0  0  0  0  0  0  0  0  0
  -11.1953   -3.2989  -22.5013 C   0  0  0  0  0  0  0  0  0  0  0  0
  -11.0574   -3.2566  -23.9696 C   0  0  0  0  0  0  0  0  0  0  0  0
  -11.8806   -3.8353  -24.6435 O   0  0  0  0  0  0  0  0  0  0  0  0
  -13.1949   -4.3653  -22.2439 H   0  0  0  0  0  0  0  0  0  0  0  0
  -12.9303   -2.9302  -19.9220 H   0  0  0  0  0  0  0  0  0  0  0  0
  -10.4673   -1.6111  -20.9644 H   0  0  0  0  0  0  0  0  0  0  0  0
   -9.8384   -0.6579  -23.5355 H   0  0  0  0  0  0  0  0  0  0  0  0
   -8.3536   -1.2611  -24.2966 H   0  0  0  0  0  0  0  0  0  0  0  0
  -10.8757   -2.5183  -26.4021 H   0  0  0  0  0  0  0  0  0  0  0  0
   -9.3777   -1.5759  -26.2569 H   0  0  0  0  0  0  0  0  0  0  0  0
   -7.6615   -2.5135  -27.3446 H   0  0  0  0  0  0  0  0  0  0  0  0
   -6.2170   -4.2826  -28.0290 H   0  0  0  0  0  0  0  0  0  0  0  0
   -7.7452   -4.8053  -28.7843 H   0  0  0  0  0  0  0  0  0  0  0  0
   -7.2859   -5.4281  -27.1840 H   0  0  0  0  0  0  0  0  0  0  0  0
  1  2  1  0
  2  3  1  0
  3  4  2  0
  3  5  1  0
  5  6  1  0
  6  7  1  0
  8  7  1  6
  8  9  1  0
  9 10  2  0
  9 11  1  0
 11 12  1  0
 12 13  2  0
 13 14  1  0
 14 15  2  0
 15 16  1  0
 16 17  2  0
 17 18  1  0
 18 19  2  0
 19 20  1  0
 20 21  2  0
 20 22  1  0
 19 23  1  0
 18 24  1  0
 17 25  1  0
 15 26  1  0
 13 27  1  0
 11 28  1  0
 28 29  1  0
 29 30  1  0
 30 31  1  0
 31 32  2  0
 31 33  2  0
 31 34  1  0
 34 35  1  0
 35 36  1  0
 35 37  1  0
 35 38  1  0
 34 39  1  0
 30 40  1  0
 30 41  1  0
 29 42  1  1
 28 43  1  0
 28 44  1  0
  8 45  1  0
 45 46  2  0
 46 47  1  0
 47 48  1  0
 47 49  2  0
 49 50  1  0
 50 51  2  0
 51 52  1  0
 52 53  2  0
 50 54  1  0
 49 55  1  0
 46 56  1  0
  7 57  1  0
  7 58  1  0
  5 59  1  0
  5 60  1  0
  2 61  1  0
  1 62  1  0
  1 63  1  0
  1 64  1  0
 52  6  1  0
 29  8  1  0
 51 45  1  0
 21 12  1  0
 21 16  1  0
M  END
>  <cnnaffinities>  (88) 
[6.01441]

>  <score>  (88) 
6.01441

>  <index>  (88) 
90

>  <Smiles>  (88) 
C(N(C(=O)C(N1C([C@@]2(C(=O)N(c3c(nc(c4c(c(c(c(c34)[H])[H])[H])[H])[H])[H])C([C@@]2(C(S(=O)(=O)N(C([H])([H])[H])[H])([H])[H])[H])([H])[H])c2c(c(F)c(c(c2C1=O)[H])[H])[H])([H])[H])([H])[H])[H])([H])([H])[H]

>  <h>  (88) 
<NA>

>  <Training>  (88) 
True

>  <Success>  (88) 
True

>  <enamine_searched>  (88) 
False

>  <enamine_id>  (88) 
nan

$$$$

     RDKit          3D

 66 71  0  0  0  0  0  0  0  0999 V2000
   -7.4189    3.3991  -21.8956 C   0  0  0  0  0  0  0  0  0  0  0  0
   -8.3519    2.9154  -22.9074 N   0  0  0  0  0  0  0  0  0  0  0  0
   -7.8037    2.1741  -23.9216 C   0  0  0  0  0  0  0  0  0  0  0  0
   -6.5979    2.0108  -24.0484 O   0  0  0  0  0  0  0  0  0  0  0  0
   -8.7940    1.5534  -24.9045 C   0  0  0  0  0  0  0  0  0  0  0  0
   -9.4464    0.4049  -24.3103 N   0  0  0  0  0  0  0  0  0  0  0  0
   -8.6911   -0.8306  -24.1604 C   0  0  0  0  0  0  0  0  0  0  0  0
   -9.0642   -1.5678  -22.8513 C   0  0  2  0  0  0  0  0  0  0  0  0
   -8.5461   -0.7762  -21.6299 C   0  0  0  0  0  0  0  0  0  0  0  0
   -9.0375    0.2145  -21.1274 O   0  0  0  0  0  0  0  0  0  0  0  0
   -7.3918   -1.3752  -21.1915 N   0  0  0  0  0  0  0  0  0  0  0  0
   -6.6162   -0.7843  -20.1676 C   0  0  0  0  0  0  0  0  0  0  0  0
   -6.9237   -1.0423  -18.8585 C   0  0  0  0  0  0  0  0  0  0  0  0
   -6.2251   -0.5664  -17.7997 N   0  0  0  0  0  0  0  0  0  0  0  0
   -5.1997    0.2101  -18.0585 C   0  0  0  0  0  0  0  0  0  0  0  0
   -4.7859    0.5768  -19.3720 C   0  0  0  0  0  0  0  0  0  0  0  0
   -3.6493    1.3946  -19.6087 C   0  0  0  0  0  0  0  0  0  0  0  0
   -3.3054    1.7547  -20.8830 C   0  0  0  0  0  0  0  0  0  0  0  0
   -4.0864    1.3373  -21.9809 C   0  0  0  0  0  0  0  0  0  0  0  0
   -5.1706    0.5121  -21.7854 C   0  0  0  0  0  0  0  0  0  0  0  0
   -5.5289    0.0887  -20.4733 C   0  0  0  0  0  0  0  0  0  0  0  0
   -5.7613    0.1978  -22.6415 H   0  0  0  0  0  0  0  0  0  0  0  0
   -3.8312    1.6624  -22.9871 H   0  0  0  0  0  0  0  0  0  0  0  0
   -2.4272    2.3710  -21.0544 H   0  0  0  0  0  0  0  0  0  0  0  0
   -3.0741    1.7288  -18.7505 H   0  0  0  0  0  0  0  0  0  0  0  0
   -4.6209    0.5771  -17.2090 H   0  0  0  0  0  0  0  0  0  0  0  0
   -7.7797   -1.6739  -18.6308 H   0  0  0  0  0  0  0  0  0  0  0  0
   -7.0083   -2.5574  -21.9302 C   0  0  0  0  0  0  0  0  0  0  0  0
   -8.2928   -2.9158  -22.6998 C   0  0  2  0  0  0  0  0  0  0  0  0
   -8.0100   -3.7180  -23.9852 C   0  0  0  0  0  0  0  0  0  0  0  0
   -7.5004   -5.0539  -23.7498 N   0  0  0  0  0  0  0  0  0  0  0  0
   -6.1949   -5.3849  -23.4865 C   0  0  0  0  0  0  0  0  0  0  0  0
   -5.0783   -4.6094  -23.8896 C   0  0  0  0  0  0  0  0  0  0  0  0
   -3.8302   -4.9625  -23.6132 N   0  0  0  0  0  0  0  0  0  0  0  0
   -3.6637   -6.1040  -22.9414 C   0  0  0  0  0  0  0  0  0  0  0  0
   -4.7485   -6.8763  -22.5621 C   0  0  0  0  0  0  0  0  0  0  0  0
   -6.0052   -6.5346  -22.8370 N   0  0  0  0  0  0  0  0  0  0  0  0
   -4.6210   -7.8047  -22.0059 H   0  0  0  0  0  0  0  0  0  0  0  0
   -2.6454   -6.4077  -22.7091 H   0  0  0  0  0  0  0  0  0  0  0  0
   -5.2120   -3.6849  -24.4483 H   0  0  0  0  0  0  0  0  0  0  0  0
   -8.1498   -5.7541  -23.4133 H   0  0  0  0  0  0  0  0  0  0  0  0
   -7.2729   -3.1842  -24.5919 H   0  0  0  0  0  0  0  0  0  0  0  0
   -8.9145   -3.8040  -24.6014 H   0  0  0  0  0  0  0  0  0  0  0  0
   -8.8895   -3.5613  -22.0494 H   0  0  0  0  0  0  0  0  0  0  0  0
   -6.6883   -3.3496  -21.2474 H   0  0  0  0  0  0  0  0  0  0  0  0
   -6.1685   -2.3491  -22.6139 H   0  0  0  0  0  0  0  0  0  0  0  0
  -10.5735   -1.6512  -22.7826 C   0  0  0  0  0  0  0  0  0  0  0  0
  -11.1903   -2.5774  -21.9410 C   0  0  0  0  0  0  0  0  0  0  0  0
  -12.5662   -2.5926  -21.8194 C   0  0  0  0  0  0  0  0  0  0  0  0
  -13.2803   -3.7035  -20.6922 Cl  0  0  0  0  0  0  0  0  0  0  0  0
  -13.3850   -1.7169  -22.5308 C   0  0  0  0  0  0  0  0  0  0  0  0
  -12.7786   -0.7708  -23.3280 C   0  0  0  0  0  0  0  0  0  0  0  0
  -11.3920   -0.7179  -23.4307 C   0  0  0  0  0  0  0  0  0  0  0  0
  -10.8086    0.4178  -24.2042 C   0  0  0  0  0  0  0  0  0  0  0  0
  -11.4995    1.3103  -24.6725 O   0  0  0  0  0  0  0  0  0  0  0  0
  -13.3521   -0.0389  -23.8826 H   0  0  0  0  0  0  0  0  0  0  0  0
  -14.4642   -1.7831  -22.4433 H   0  0  0  0  0  0  0  0  0  0  0  0
  -10.6151   -3.2903  -21.3630 H   0  0  0  0  0  0  0  0  0  0  0  0
   -8.9093   -1.4974  -25.0047 H   0  0  0  0  0  0  0  0  0  0  0  0
   -7.6210   -0.5927  -24.1869 H   0  0  0  0  0  0  0  0  0  0  0  0
   -8.2403    1.2531  -25.8014 H   0  0  0  0  0  0  0  0  0  0  0  0
   -9.5778    2.2653  -25.1844 H   0  0  0  0  0  0  0  0  0  0  0  0
   -9.2821    2.6729  -22.5882 H   0  0  0  0  0  0  0  0  0  0  0  0
   -6.9200    2.5541  -21.3901 H   0  0  0  0  0  0  0  0  0  0  0  0
   -6.6571    4.0071  -22.3884 H   0  0  0  0  0  0  0  0  0  0  0  0
   -7.9309    4.0346  -21.1673 H   0  0  0  0  0  0  0  0  0  0  0  0
  1  2  1  0
  2  3  1  0
  3  4  2  0
  3  5  1  0
  5  6  1  0
  6  7  1  0
  8  7  1  6
  8  9  1  0
  9 10  2  0
  9 11  1  0
 11 12  1  0
 12 13  2  0
 13 14  1  0
 14 15  2  0
 15 16  1  0
 16 17  2  0
 17 18  1  0
 18 19  2  0
 19 20  1  0
 20 21  2  0
 20 22  1  0
 19 23  1  0
 18 24  1  0
 17 25  1  0
 15 26  1  0
 13 27  1  0
 11 28  1  0
 28 29  1  0
 29 30  1  0
 30 31  1  0
 31 32  1  0
 32 33  2  0
 33 34  1  0
 34 35  2  0
 35 36  1  0
 36 37  2  0
 36 38  1  0
 35 39  1  0
 33 40  1  0
 31 41  1  0
 30 42  1  0
 30 43  1  0
 29 44  1  1
 28 45  1  0
 28 46  1  0
  8 47  1  0
 47 48  2  0
 48 49  1  0
 49 50  1  0
 49 51  2  0
 51 52  1  0
 52 53  2  0
 53 54  1  0
 54 55  2  0
 52 56  1  0
 51 57  1  0
 48 58  1  0
  7 59  1  0
  7 60  1  0
  5 61  1  0
  5 62  1  0
  2 63  1  0
  1 64  1  0
  1 65  1  0
  1 66  1  0
 54  6  1  0
 29  8  1  0
 37 32  1  0
 53 47  1  0
 21 12  1  0
 21 16  1  0
M  END
>  <cnnaffinities>  (89) 
[6.63115, 6.59964]

>  <score>  (89) 
6.63115

>  <index>  (89) 
91

>  <Smiles>  (89) 
C(N(C(=O)C(N1C([C@@]2(C(=O)N(c3c(nc(c4c(c(c(c(c34)[H])[H])[H])[H])[H])[H])C([C@@]2(C(N(c2c(nc(c(n2)[H])[H])[H])[H])([H])[H])[H])([H])[H])c2c(c(Cl)c(c(c2C1=O)[H])[H])[H])([H])[H])([H])[H])[H])([H])([H])[H]

>  <h>  (89) 
<NA>

>  <Training>  (89) 
True

>  <Success>  (89) 
True

>  <enamine_searched>  (89) 
False

>  <enamine_id>  (89) 
nan

$$$$

     RDKit          3D

 60 65  0  0  0  0  0  0  0  0999 V2000
   -6.7834   -3.4340  -26.0888 C   0  0  0  0  0  0  0  0  0  0  0  0
   -7.0160   -2.8849  -24.8158 O   0  0  0  0  0  0  0  0  0  0  0  0
   -7.9934   -3.5896  -24.0784 C   0  0  0  0  0  0  0  0  0  0  0  0
   -8.2986   -2.8776  -22.7600 C   0  0  1  0  0  0  0  0  0  0  0  0
   -7.0266   -2.5340  -21.9681 C   0  0  0  0  0  0  0  0  0  0  0  0
   -7.3873   -1.3306  -21.2382 N   0  0  0  0  0  0  0  0  0  0  0  0
   -6.6184   -0.7727  -20.1832 C   0  0  0  0  0  0  0  0  0  0  0  0
   -6.9261   -1.0415  -18.8767 C   0  0  0  0  0  0  0  0  0  0  0  0
   -6.2286   -0.5672  -17.8141 N   0  0  0  0  0  0  0  0  0  0  0  0
   -5.2011    0.2102  -18.0656 C   0  0  0  0  0  0  0  0  0  0  0  0
   -4.7842    0.5878  -19.3734 C   0  0  0  0  0  0  0  0  0  0  0  0
   -3.6605    1.4234  -19.6041 C   0  0  0  0  0  0  0  0  0  0  0  0
   -3.3174    1.7870  -20.8787 C   0  0  0  0  0  0  0  0  0  0  0  0
   -4.0725    1.3329  -21.9793 C   0  0  0  0  0  0  0  0  0  0  0  0
   -5.1281    0.4718  -21.7801 C   0  0  0  0  0  0  0  0  0  0  0  0
   -5.5173    0.0882  -20.4728 C   0  0  0  0  0  0  0  0  0  0  0  0
   -5.6758    0.0732  -22.6302 H   0  0  0  0  0  0  0  0  0  0  0  0
   -3.7998    1.6640  -22.9800 H   0  0  0  0  0  0  0  0  0  0  0  0
   -2.4444    2.4073  -21.0492 H   0  0  0  0  0  0  0  0  0  0  0  0
   -3.0878    1.7625  -18.7466 H   0  0  0  0  0  0  0  0  0  0  0  0
   -4.6360    0.5804  -17.2093 H   0  0  0  0  0  0  0  0  0  0  0  0
   -7.7782   -1.6768  -18.6423 H   0  0  0  0  0  0  0  0  0  0  0  0
   -8.6120   -0.7974  -21.5777 C   0  0  0  0  0  0  0  0  0  0  0  0
   -9.1553    0.1105  -20.9849 O   0  0  0  0  0  0  0  0  0  0  0  0
   -9.1502   -1.5693  -22.8089 C   0  0  1  0  0  0  0  0  0  0  0  0
   -8.8893   -0.7874  -24.1224 C   0  0  0  0  0  0  0  0  0  0  0  0
   -9.7345    0.3877  -24.2395 N   0  0  0  0  0  0  0  0  0  0  0  0
   -9.1517    1.6208  -24.7597 C   0  0  0  0  0  0  0  0  0  0  0  0
   -8.3509    2.3948  -23.7449 C   0  0  0  0  0  0  0  0  0  0  0  0
   -8.8776    3.3057  -22.7948 C   0  0  0  0  0  0  0  0  0  0  0  0
   -7.9382    3.7749  -21.9673 N   0  0  0  0  0  0  0  0  0  0  0  0
   -6.8141    3.1923  -22.3939 N   0  0  0  0  0  0  0  0  0  0  0  0
   -7.0008    2.3602  -23.4495 C   0  0  0  0  0  0  0  0  0  0  0  0
   -6.1471    1.8320  -23.8537 H   0  0  0  0  0  0  0  0  0  0  0  0
   -5.9316    3.3466  -21.9261 H   0  0  0  0  0  0  0  0  0  0  0  0
   -9.8996    3.6441  -22.6670 H   0  0  0  0  0  0  0  0  0  0  0  0
   -8.5381    1.3637  -25.6293 H   0  0  0  0  0  0  0  0  0  0  0  0
   -9.9898    2.2242  -25.1251 H   0  0  0  0  0  0  0  0  0  0  0  0
  -11.0877    0.3164  -24.0486 C   0  0  0  0  0  0  0  0  0  0  0  0
  -11.8593    1.1634  -24.4777 O   0  0  0  0  0  0  0  0  0  0  0  0
  -11.5575   -0.8492  -23.2368 C   0  0  0  0  0  0  0  0  0  0  0  0
  -12.9291   -0.9524  -23.0082 C   0  0  0  0  0  0  0  0  0  0  0  0
  -13.4263   -1.9219  -22.1676 C   0  0  0  0  0  0  0  0  0  0  0  0
  -12.5289   -2.7938  -21.5621 C   0  0  0  0  0  0  0  0  0  0  0  0
  -13.1508   -3.9605  -20.4424 Cl  0  0  0  0  0  0  0  0  0  0  0  0
  -11.1672   -2.7215  -21.7945 C   0  0  0  0  0  0  0  0  0  0  0  0
  -10.6515   -1.7481  -22.6579 C   0  0  0  0  0  0  0  0  0  0  0  0
  -10.5215   -3.4108  -21.2658 H   0  0  0  0  0  0  0  0  0  0  0  0
  -14.4857   -2.0026  -21.9508 H   0  0  0  0  0  0  0  0  0  0  0  0
  -13.5774   -0.2376  -23.4981 H   0  0  0  0  0  0  0  0  0  0  0  0
   -9.0704   -1.4761  -24.9585 H   0  0  0  0  0  0  0  0  0  0  0  0
   -7.8449   -0.4711  -24.1740 H   0  0  0  0  0  0  0  0  0  0  0  0
   -6.1776   -2.3621  -22.6405 H   0  0  0  0  0  0  0  0  0  0  0  0
   -6.7594   -3.3424  -21.2778 H   0  0  0  0  0  0  0  0  0  0  0  0
   -8.8745   -3.5982  -22.1744 H   0  0  0  0  0  0  0  0  0  0  0  0
   -7.6285   -4.6053  -23.8621 H   0  0  0  0  0  0  0  0  0  0  0  0
   -8.9182   -3.6935  -24.6702 H   0  0  0  0  0  0  0  0  0  0  0  0
   -6.0191   -2.8242  -26.5780 H   0  0  0  0  0  0  0  0  0  0  0  0
   -6.4176   -4.4693  -26.0218 H   0  0  0  0  0  0  0  0  0  0  0  0
   -7.6934   -3.4220  -26.7086 H   0  0  0  0  0  0  0  0  0  0  0  0
  1  2  1  0
  2  3  1  0
  3  4  1  0
  4  5  1  0
  5  6  1  0
  6  7  1  0
  7  8  2  0
  8  9  1  0
  9 10  2  0
 10 11  1  0
 11 12  2  0
 12 13  1  0
 13 14  2  0
 14 15  1  0
 15 16  2  0
 15 17  1  0
 14 18  1  0
 13 19  1  0
 12 20  1  0
 10 21  1  0
  8 22  1  0
  6 23  1  0
 23 24  2  0
 23 25  1  0
 25 26  1  6
 26 27  1  0
 27 28  1  0
 28 29  1  0
 29 30  1  0
 30 31  2  0
 31 32  1  0
 32 33  1  0
 33 34  1  0
 32 35  1  0
 30 36  1  0
 28 37  1  0
 28 38  1  0
 27 39  1  0
 39 40  2  0
 39 41  1  0
 41 42  2  0
 42 43  1  0
 43 44  2  0
 44 45  1  0
 44 46  1  0
 46 47  2  0
 46 48  1  0
 43 49  1  0
 42 50  1  0
 26 51  1  0
 26 52  1  0
  5 53  1  0
  5 54  1  0
  4 55  1  1
  3 56  1  0
  3 57  1  0
  1 58  1  0
  1 59  1  0
  1 60  1  0
 25  4  1  0
 33 29  2  0
 47 41  1  0
 16  7  1  0
 47 25  1  0
 16 11  1  0
M  END
>  <cnnaffinities>  (90) 
[5.97796, 5.19635]

>  <score>  (90) 
5.97796

>  <index>  (90) 
92

>  <Smiles>  (90) 
C(OC([C@]1(C(N(c2c(nc(c3c(c(c(c(c23)[H])[H])[H])[H])[H])[H])C(=O)[C@]21C(N(C(c1c(nn(c1[H])[H])[H])([H])[H])C(=O)c1c(c(c(Cl)c(c21)[H])[H])[H])([H])[H])([H])[H])[H])([H])[H])([H])([H])[H]

>  <h>  (90) 
<NA>

>  <Training>  (90) 
True

>  <Success>  (90) 
True

>  <enamine_searched>  (90) 
False

>  <enamine_id>  (90) 
nan

$$$$

     RDKit          3D

 62 67  0  0  0  0  0  0  0  0999 V2000
  -11.4284    2.5513  -22.1040 C   0  0  0  0  0  0  0  0  0  0  0  0
  -10.4540    3.2784  -23.0200 C   0  0  0  0  0  0  0  0  0  0  0  0
   -9.1465    2.6720  -23.2626 N   0  0  0  0  0  0  0  0  0  0  0  0
   -6.9350    2.8528  -23.5446 N   0  0  0  0  0  0  0  0  0  0  0  0
   -7.9611    3.1988  -22.8073 C   0  0  0  0  0  0  0  0  0  0  0  0
   -7.4636    2.0842  -24.5523 C   0  0  0  0  0  0  0  0  0  0  0  0
   -8.8134    1.9425  -24.3932 C   0  0  0  0  0  0  0  0  0  0  0  0
   -9.8123    1.1402  -25.1423 C   0  0  0  0  0  0  0  0  0  0  0  0
  -10.2782   -0.0127  -24.3727 N   0  0  0  0  0  0  0  0  0  0  0  0
   -9.3206   -1.0767  -24.1389 C   0  0  0  0  0  0  0  0  0  0  0  0
   -9.4829   -1.7555  -22.7568 C   0  0  2  0  0  0  0  0  0  0  0  0
   -8.9964   -0.8201  -21.6045 C   0  0  0  0  0  0  0  0  0  0  0  0
   -9.6223    0.0635  -21.0603 O   0  0  0  0  0  0  0  0  0  0  0  0
   -7.6990   -1.1572  -21.2925 N   0  0  0  0  0  0  0  0  0  0  0  0
   -6.9701   -0.6128  -20.2090 C   0  0  0  0  0  0  0  0  0  0  0  0
   -7.2308   -1.0007  -18.9200 C   0  0  0  0  0  0  0  0  0  0  0  0
   -6.4491   -0.6758  -17.8605 N   0  0  0  0  0  0  0  0  0  0  0  0
   -5.3879    0.0613  -18.0811 C   0  0  0  0  0  0  0  0  0  0  0  0
   -5.0258    0.5683  -19.3587 C   0  0  0  0  0  0  0  0  0  0  0  0
   -3.8958    1.4048  -19.5590 C   0  0  0  0  0  0  0  0  0  0  0  0
   -3.6509    1.9529  -20.7881 C   0  0  0  0  0  0  0  0  0  0  0  0
   -4.5086    1.6740  -21.8764 C   0  0  0  0  0  0  0  0  0  0  0  0
   -5.5699    0.8164  -21.7157 C   0  0  0  0  0  0  0  0  0  0  0  0
   -5.8549    0.2457  -20.4526 C   0  0  0  0  0  0  0  0  0  0  0  0
   -6.2403    0.6170  -22.5469 H   0  0  0  0  0  0  0  0  0  0  0  0
   -4.3503    2.1515  -22.8380 H   0  0  0  0  0  0  0  0  0  0  0  0
   -2.8085    2.6262  -20.9250 H   0  0  0  0  0  0  0  0  0  0  0  0
   -3.2557    1.6199  -18.7067 H   0  0  0  0  0  0  0  0  0  0  0  0
   -4.7585    0.3034  -17.2244 H   0  0  0  0  0  0  0  0  0  0  0  0
   -8.0915   -1.6296  -18.7020 H   0  0  0  0  0  0  0  0  0  0  0  0
   -7.1751   -2.2162  -22.1237 C   0  0  0  0  0  0  0  0  0  0  0  0
   -8.4518   -2.9159  -22.6247 C   0  0  2  0  0  0  0  0  0  0  0  0
   -8.1822   -3.7552  -23.8685 C   0  0  0  0  0  0  0  0  0  0  0  0
   -7.6774   -3.1522  -24.6326 H   0  0  0  0  0  0  0  0  0  0  0  0
   -9.1043   -4.1487  -24.3099 H   0  0  0  0  0  0  0  0  0  0  0  0
   -7.5210   -4.5973  -23.6376 H   0  0  0  0  0  0  0  0  0  0  0  0
   -8.7984   -3.5674  -21.8144 H   0  0  0  0  0  0  0  0  0  0  0  0
   -6.5151   -2.8719  -21.5499 H   0  0  0  0  0  0  0  0  0  0  0  0
   -6.5928   -1.8108  -22.9707 H   0  0  0  0  0  0  0  0  0  0  0  0
  -10.9543   -2.0797  -22.5694 C   0  0  0  0  0  0  0  0  0  0  0  0
  -11.4068   -3.1471  -21.7818 C   0  0  0  0  0  0  0  0  0  0  0  0
  -12.7054   -3.1275  -21.3055 C   0  0  0  0  0  0  0  0  0  0  0  0
  -13.1123   -4.0917  -20.4623 F   0  0  0  0  0  0  0  0  0  0  0  0
  -13.6071   -2.1109  -21.6059 C   0  0  0  0  0  0  0  0  0  0  0  0
  -13.2114   -1.1507  -22.5106 C   0  0  0  0  0  0  0  0  0  0  0  0
  -11.9235   -1.1780  -23.0442 C   0  0  0  0  0  0  0  0  0  0  0  0
  -11.6028   -0.1715  -24.1085 C   0  0  0  0  0  0  0  0  0  0  0  0
  -12.4764    0.5194  -24.6274 O   0  0  0  0  0  0  0  0  0  0  0  0
  -13.8863   -0.3613  -22.8264 H   0  0  0  0  0  0  0  0  0  0  0  0
  -14.5953   -2.1203  -21.1579 H   0  0  0  0  0  0  0  0  0  0  0  0
  -10.7684   -3.9824  -21.5122 H   0  0  0  0  0  0  0  0  0  0  0  0
   -8.3202   -0.6466  -24.2211 H   0  0  0  0  0  0  0  0  0  0  0  0
   -9.4297   -1.8417  -24.9199 H   0  0  0  0  0  0  0  0  0  0  0  0
  -10.7026    1.7280  -25.3943 H   0  0  0  0  0  0  0  0  0  0  0  0
   -9.3485    0.7898  -26.0734 H   0  0  0  0  0  0  0  0  0  0  0  0
   -6.8395    1.6423  -25.3186 H   0  0  0  0  0  0  0  0  0  0  0  0
   -7.9373    3.8697  -21.9618 H   0  0  0  0  0  0  0  0  0  0  0  0
  -10.9819    3.4204  -23.9759 H   0  0  0  0  0  0  0  0  0  0  0  0
  -10.2553    4.2736  -22.6141 H   0  0  0  0  0  0  0  0  0  0  0  0
  -11.0343    2.2724  -21.1257 H   0  0  0  0  0  0  0  0  0  0  0  0
  -12.2786    3.2324  -21.9754 H   0  0  0  0  0  0  0  0  0  0  0  0
  -11.7972    1.6379  -22.5669 H   0  0  0  0  0  0  0  0  0  0  0  0
  1  2  1  0
  2  3  1  0
  3  4  1  0
  4  5  2  0
  5  6  1  0
  6  7  2  0
  7  8  1  0
  8  9  1  0
  9 10  1  0
 11 10  1  6
 11 12  1  0
 12 13  2  0
 12 14  1  0
 14 15  1  0
 15 16  2  0
 16 17  1  0
 17 18  2  0
 18 19  1  0
 19 20  2  0
 20 21  1  0
 21 22  2  0
 22 23  1  0
 23 24  2  0
 23 25  1  0
 22 26  1  0
 21 27  1  0
 20 28  1  0
 18 29  1  0
 16 30  1  0
 14 31  1  0
 31 32  1  0
 32 33  1  0
 33 34  1  0
 33 35  1  0
 33 36  1  0
 32 37  1  1
 31 38  1  0
 31 39  1  0
 11 40  1  0
 40 41  2  0
 41 42  1  0
 42 43  1  0
 42 44  2  0
 44 45  1  0
 45 46  2  0
 46 47  1  0
 47 48  2  0
 45 49  1  0
 44 50  1  0
 41 51  1  0
 10 52  1  0
 10 53  1  0
  8 54  1  0
  8 55  1  0
  6 56  1  0
  5 57  1  0
  2 58  1  0
  2 59  1  0
  1 60  1  0
  1 61  1  0
  1 62  1  0
  7  3  1  0
 47  9  1  0
 32 11  1  0
 46 40  1  0
 24 15  1  0
 24 19  1  0
M  END
>  <cnnaffinities>  (91) 
[6.60695, 5.8778]

>  <score>  (91) 
6.60695

>  <index>  (91) 
93

>  <Smiles>  (91) 
C(C(n1nc(c(c1C(N1C([C@@]2(C(=O)N(c3c(nc(c4c(c(c(c(c34)[H])[H])[H])[H])[H])[H])C([C@@]2(C([H])([H])[H])[H])([H])[H])c2c(c(F)c(c(c2C1=O)[H])[H])[H])([H])[H])([H])[H])[H])[H])([H])[H])([H])([H])[H]

>  <h>  (91) 
<NA>

>  <Training>  (91) 
True

>  <Success>  (91) 
True

>  <enamine_searched>  (91) 
False

>  <enamine_id>  (91) 
nan

$$$$

     RDKit          3D

 66 71  0  0  0  0  0  0  0  0999 V2000
   -7.3546    3.4430  -21.9156 C   0  0  0  0  0  0  0  0  0  0  0  0
   -8.2203    2.9702  -22.9874 N   0  0  0  0  0  0  0  0  0  0  0  0
   -7.6443    2.2259  -23.9794 C   0  0  0  0  0  0  0  0  0  0  0  0
   -6.4399    2.0494  -24.0726 O   0  0  0  0  0  0  0  0  0  0  0  0
   -8.6190    1.6190  -24.9889 C   0  0  0  0  0  0  0  0  0  0  0  0
   -9.3200    0.4916  -24.4157 N   0  0  0  0  0  0  0  0  0  0  0  0
   -8.5829   -0.7472  -24.2389 C   0  0  0  0  0  0  0  0  0  0  0  0
   -9.0099   -1.4809  -22.9491 C   0  0  2  0  0  0  0  0  0  0  0  0
   -8.4825   -0.7166  -21.7154 C   0  0  0  0  0  0  0  0  0  0  0  0
   -8.9172    0.3203  -21.2469 O   0  0  0  0  0  0  0  0  0  0  0  0
   -7.3976   -1.3911  -21.2131 N   0  0  0  0  0  0  0  0  0  0  0  0
   -6.6163   -0.8042  -20.1845 C   0  0  0  0  0  0  0  0  0  0  0  0
   -6.9322   -1.0510  -18.8743 C   0  0  0  0  0  0  0  0  0  0  0  0
   -6.2387   -0.5709  -17.8133 N   0  0  0  0  0  0  0  0  0  0  0  0
   -5.2111    0.2037  -18.0708 C   0  0  0  0  0  0  0  0  0  0  0  0
   -4.7945    0.5709  -19.3831 C   0  0  0  0  0  0  0  0  0  0  0  0
   -3.6570    1.3900  -19.6129 C   0  0  0  0  0  0  0  0  0  0  0  0
   -3.3057    1.7524  -20.8848 C   0  0  0  0  0  0  0  0  0  0  0  0
   -4.0822    1.3323  -21.9863 C   0  0  0  0  0  0  0  0  0  0  0  0
   -5.1663    0.5045  -21.7948 C   0  0  0  0  0  0  0  0  0  0  0  0
   -5.5358    0.0818  -20.4858 C   0  0  0  0  0  0  0  0  0  0  0  0
   -5.7420    0.1776  -22.6566 H   0  0  0  0  0  0  0  0  0  0  0  0
   -3.8272    1.6602  -22.9908 H   0  0  0  0  0  0  0  0  0  0  0  0
   -2.4218    2.3604  -21.0514 H   0  0  0  0  0  0  0  0  0  0  0  0
   -3.0855    1.7219  -18.7502 H   0  0  0  0  0  0  0  0  0  0  0  0
   -4.6350    0.5720  -17.2208 H   0  0  0  0  0  0  0  0  0  0  0  0
   -7.7919   -1.6762  -18.6455 H   0  0  0  0  0  0  0  0  0  0  0  0
   -7.0610   -2.5997  -21.9424 C   0  0  0  0  0  0  0  0  0  0  0  0
   -8.3007   -2.8638  -22.8133 C   0  0  2  0  0  0  0  0  0  0  0  0
   -7.9261   -3.6206  -24.0938 C   0  0  0  0  0  0  0  0  0  0  0  0
   -9.0885   -3.9630  -24.8827 N   0  0  0  0  0  0  0  0  0  0  0  0
   -8.9845   -4.5898  -26.0852 C   0  0  0  0  0  0  0  0  0  0  0  0
  -10.1295   -4.9097  -26.8406 C   0  0  0  0  0  0  0  0  0  0  0  0
   -9.9265   -5.5287  -28.0507 C   0  0  0  0  0  0  0  0  0  0  0  0
   -8.7117   -5.8383  -28.5328 N   0  0  0  0  0  0  0  0  0  0  0  0
   -7.7089   -5.4994  -27.7363 C   0  0  0  0  0  0  0  0  0  0  0  0
   -7.7615   -4.8916  -26.5455 N   0  0  0  0  0  0  0  0  0  0  0  0
   -6.7050   -5.7440  -28.0948 H   0  0  0  0  0  0  0  0  0  0  0  0
  -10.7698   -5.8001  -28.6842 H   0  0  0  0  0  0  0  0  0  0  0  0
  -11.1283   -4.6818  -26.4856 H   0  0  0  0  0  0  0  0  0  0  0  0
  -10.0084   -3.7482  -24.5282 H   0  0  0  0  0  0  0  0  0  0  0  0
   -7.3925   -4.5455  -23.8373 H   0  0  0  0  0  0  0  0  0  0  0  0
   -7.2396   -3.0289  -24.7175 H   0  0  0  0  0  0  0  0  0  0  0  0
   -8.9779   -3.5180  -22.2547 H   0  0  0  0  0  0  0  0  0  0  0  0
   -6.8590   -3.4283  -21.2562 H   0  0  0  0  0  0  0  0  0  0  0  0
   -6.1667   -2.4591  -22.5695 H   0  0  0  0  0  0  0  0  0  0  0  0
  -10.5222   -1.5229  -22.8941 C   0  0  0  0  0  0  0  0  0  0  0  0
  -11.1605   -2.4041  -22.0183 C   0  0  0  0  0  0  0  0  0  0  0  0
  -12.5373   -2.3970  -21.9131 C   0  0  0  0  0  0  0  0  0  0  0  0
  -13.2828   -3.4583  -20.7590 Cl  0  0  0  0  0  0  0  0  0  0  0  0
  -13.3299   -1.5316  -22.6661 C   0  0  0  0  0  0  0  0  0  0  0  0
  -12.7003   -0.6247  -23.4941 C   0  0  0  0  0  0  0  0  0  0  0  0
  -11.3115   -0.5965  -23.5856 C   0  0  0  0  0  0  0  0  0  0  0  0
  -10.6873    0.5140  -24.3665 C   0  0  0  0  0  0  0  0  0  0  0  0
  -11.3529    1.4017  -24.8810 O   0  0  0  0  0  0  0  0  0  0  0  0
  -13.2531    0.1023  -24.0751 H   0  0  0  0  0  0  0  0  0  0  0  0
  -14.4105   -1.5698  -22.5828 H   0  0  0  0  0  0  0  0  0  0  0  0
  -10.5960   -3.0732  -21.3785 H   0  0  0  0  0  0  0  0  0  0  0  0
   -8.7582   -1.4138  -25.0927 H   0  0  0  0  0  0  0  0  0  0  0  0
   -7.5119   -0.5179  -24.2056 H   0  0  0  0  0  0  0  0  0  0  0  0
   -8.0440    1.3003  -25.8654 H   0  0  0  0  0  0  0  0  0  0  0  0
   -9.3796    2.3443  -25.2913 H   0  0  0  0  0  0  0  0  0  0  0  0
   -9.1795    2.7585  -22.7370 H   0  0  0  0  0  0  0  0  0  0  0  0
   -7.9418    4.0046  -21.1840 H   0  0  0  0  0  0  0  0  0  0  0  0
   -6.5943    4.1136  -22.3270 H   0  0  0  0  0  0  0  0  0  0  0  0
   -6.8475    2.5974  -21.4250 H   0  0  0  0  0  0  0  0  0  0  0  0
  1  2  1  0
  2  3  1  0
  3  4  2  0
  3  5  1  0
  5  6  1  0
  6  7  1  0
  8  7  1  6
  8  9  1  0
  9 10  2  0
  9 11  1  0
 11 12  1  0
 12 13  2  0
 13 14  1  0
 14 15  2  0
 15 16  1  0
 16 17  2  0
 17 18  1  0
 18 19  2  0
 19 20  1  0
 20 21  2  0
 20 22  1  0
 19 23  1  0
 18 24  1  0
 17 25  1  0
 15 26  1  0
 13 27  1  0
 11 28  1  0
 28 29  1  0
 29 30  1  0
 30 31  1  0
 31 32  1  0
 32 33  2  0
 33 34  1  0
 34 35  2  0
 35 36  1  0
 36 37  2  0
 36 38  1  0
 34 39  1  0
 33 40  1  0
 31 41  1  0
 30 42  1  0
 30 43  1  0
 29 44  1  1
 28 45  1  0
 28 46  1  0
  8 47  1  0
 47 48  2  0
 48 49  1  0
 49 50  1  0
 49 51  2  0
 51 52  1  0
 52 53  2  0
 53 54  1  0
 54 55  2  0
 52 56  1  0
 51 57  1  0
 48 58  1  0
  7 59  1  0
  7 60  1  0
  5 61  1  0
  5 62  1  0
  2 63  1  0
  1 64  1  0
  1 65  1  0
  1 66  1  0
 54  6  1  0
 29  8  1  0
 37 32  1  0
 53 47  1  0
 21 12  1  0
 21 16  1  0
M  END
>  <cnnaffinities>  (92) 
[5.73881]

>  <score>  (92) 
5.73881

>  <index>  (92) 
95

>  <Smiles>  (92) 
C(N(C(=O)C(N1C([C@@]2(C(=O)N(c3c(nc(c4c(c(c(c(c34)[H])[H])[H])[H])[H])[H])C([C@@]2(C(N(c2c(c(nc(n2)[H])[H])[H])[H])([H])[H])[H])([H])[H])c2c(c(Cl)c(c(c2C1=O)[H])[H])[H])([H])[H])([H])[H])[H])([H])([H])[H]

>  <h>  (92) 
<NA>

>  <Training>  (92) 
True

>  <Success>  (92) 
True

>  <enamine_searched>  (92) 
False

>  <enamine_id>  (92) 
nan

$$$$

     RDKit          3D

 66 70  0  0  0  0  0  0  0  0999 V2000
   -7.4069    3.4022  -21.9179 C   0  0  0  0  0  0  0  0  0  0  0  0
   -8.3486    2.9177  -22.9172 N   0  0  0  0  0  0  0  0  0  0  0  0
   -7.8257    2.1699  -23.9342 C   0  0  0  0  0  0  0  0  0  0  0  0
   -6.6279    1.9725  -24.0646 O   0  0  0  0  0  0  0  0  0  0  0  0
   -8.8419    1.5707  -24.9070 C   0  0  0  0  0  0  0  0  0  0  0  0
   -9.4980    0.4322  -24.2927 N   0  0  0  0  0  0  0  0  0  0  0  0
   -8.7466   -0.8046  -24.1393 C   0  0  0  0  0  0  0  0  0  0  0  0
   -9.1072   -1.5302  -22.8207 C   0  0  2  0  0  0  0  0  0  0  0  0
   -8.5574   -0.7401  -21.6097 C   0  0  0  0  0  0  0  0  0  0  0  0
   -9.0171    0.2692  -21.1059 O   0  0  0  0  0  0  0  0  0  0  0  0
   -7.4084   -1.3618  -21.1826 N   0  0  0  0  0  0  0  0  0  0  0  0
   -6.6209   -0.7814  -20.1610 C   0  0  0  0  0  0  0  0  0  0  0  0
   -6.9252   -1.0405  -18.8517 C   0  0  0  0  0  0  0  0  0  0  0  0
   -6.2259   -0.5633  -17.7944 N   0  0  0  0  0  0  0  0  0  0  0  0
   -5.1973    0.2068  -18.0576 C   0  0  0  0  0  0  0  0  0  0  0  0
   -4.7852    0.5734  -19.3710 C   0  0  0  0  0  0  0  0  0  0  0  0
   -3.6541    1.3966  -19.6086 C   0  0  0  0  0  0  0  0  0  0  0  0
   -3.3193    1.7680  -20.8803 C   0  0  0  0  0  0  0  0  0  0  0  0
   -4.1039    1.3517  -21.9777 C   0  0  0  0  0  0  0  0  0  0  0  0
   -5.1860    0.5231  -21.7806 C   0  0  0  0  0  0  0  0  0  0  0  0
   -5.5381    0.0949  -20.4706 C   0  0  0  0  0  0  0  0  0  0  0  0
   -5.7804    0.2139  -22.6366 H   0  0  0  0  0  0  0  0  0  0  0  0
   -3.8554    1.6842  -22.9814 H   0  0  0  0  0  0  0  0  0  0  0  0
   -2.4425    2.3838  -21.0526 H   0  0  0  0  0  0  0  0  0  0  0  0
   -3.0804    1.7331  -18.7494 H   0  0  0  0  0  0  0  0  0  0  0  0
   -4.6220    0.5751  -17.2075 H   0  0  0  0  0  0  0  0  0  0  0  0
   -7.7804   -1.6716  -18.6238 H   0  0  0  0  0  0  0  0  0  0  0  0
   -7.0592   -2.5617  -21.9185 C   0  0  0  0  0  0  0  0  0  0  0  0
   -8.3502   -2.8827  -22.6901 C   0  0  2  0  0  0  0  0  0  0  0  0
   -8.0798   -3.6688  -23.9754 C   0  0  0  0  0  0  0  0  0  0  0  0
   -7.5288   -4.9353  -23.6761 O   0  0  0  0  0  0  0  0  0  0  0  0
   -8.4631   -6.0126  -23.5896 C   0  0  0  0  0  0  0  0  0  0  0  0
   -7.9514   -6.9515  -22.5094 C   0  0  0  0  0  0  0  0  0  0  0  0
   -7.8286   -6.4114  -21.5693 H   0  0  0  0  0  0  0  0  0  0  0  0
   -6.9768   -7.3507  -22.8072 H   0  0  0  0  0  0  0  0  0  0  0  0
   -8.6473   -7.7821  -22.3466 H   0  0  0  0  0  0  0  0  0  0  0  0
   -8.5760   -6.7306  -24.9351 C   0  0  0  0  0  0  0  0  0  0  0  0
   -8.9194   -6.0541  -25.7274 H   0  0  0  0  0  0  0  0  0  0  0  0
   -9.2859   -7.5650  -24.8586 H   0  0  0  0  0  0  0  0  0  0  0  0
   -7.5957   -7.1281  -25.2247 H   0  0  0  0  0  0  0  0  0  0  0  0
   -9.4608   -5.6256  -23.3059 H   0  0  0  0  0  0  0  0  0  0  0  0
   -8.9965   -3.7568  -24.5837 H   0  0  0  0  0  0  0  0  0  0  0  0
   -7.3284   -3.1413  -24.5790 H   0  0  0  0  0  0  0  0  0  0  0  0
   -8.9497   -3.5301  -22.0461 H   0  0  0  0  0  0  0  0  0  0  0  0
   -6.7766   -3.3712  -21.2381 H   0  0  0  0  0  0  0  0  0  0  0  0
   -6.2135   -2.3916  -22.6030 H   0  0  0  0  0  0  0  0  0  0  0  0
  -10.6146   -1.6153  -22.7369 C   0  0  0  0  0  0  0  0  0  0  0  0
  -11.2256   -2.5543  -21.9045 C   0  0  0  0  0  0  0  0  0  0  0  0
  -12.5982   -2.5736  -21.7698 C   0  0  0  0  0  0  0  0  0  0  0  0
  -13.3032   -3.7000  -20.6558 Cl  0  0  0  0  0  0  0  0  0  0  0  0
  -13.4224   -1.6898  -22.4610 C   0  0  0  0  0  0  0  0  0  0  0  0
  -12.8236   -0.7432  -23.2626 C   0  0  0  0  0  0  0  0  0  0  0  0
  -11.4383   -0.6846  -23.3828 C   0  0  0  0  0  0  0  0  0  0  0  0
  -10.8598    0.4445  -24.1755 C   0  0  0  0  0  0  0  0  0  0  0  0
  -11.5535    1.3305  -24.6529 O   0  0  0  0  0  0  0  0  0  0  0  0
  -13.4046   -0.0133  -23.8102 H   0  0  0  0  0  0  0  0  0  0  0  0
  -14.4996   -1.7459  -22.3551 H   0  0  0  0  0  0  0  0  0  0  0  0
  -10.6524   -3.2729  -21.3330 H   0  0  0  0  0  0  0  0  0  0  0  0
   -8.9676   -1.4830  -24.9751 H   0  0  0  0  0  0  0  0  0  0  0  0
   -7.6762   -0.5728  -24.1699 H   0  0  0  0  0  0  0  0  0  0  0  0
   -9.6198    2.2908  -25.1831 H   0  0  0  0  0  0  0  0  0  0  0  0
   -8.3192    1.2562  -25.8188 H   0  0  0  0  0  0  0  0  0  0  0  0
   -9.2875    2.6957  -22.6024 H   0  0  0  0  0  0  0  0  0  0  0  0
   -6.6427    4.0097  -22.4145 H   0  0  0  0  0  0  0  0  0  0  0  0
   -6.9160    2.5563  -21.4059 H   0  0  0  0  0  0  0  0  0  0  0  0
   -7.9239    4.0477  -21.2035 H   0  0  0  0  0  0  0  0  0  0  0  0
  1  2  1  0
  2  3  1  0
  3  4  2  0
  3  5  1  0
  5  6  1  0
  6  7  1  0
  8  7  1  6
  8  9  1  0
  9 10  2  0
  9 11  1  0
 11 12  1  0
 12 13  2  0
 13 14  1  0
 14 15  2  0
 15 16  1  0
 16 17  2  0
 17 18  1  0
 18 19  2  0
 19 20  1  0
 20 21  2  0
 20 22  1  0
 19 23  1  0
 18 24  1  0
 17 25  1  0
 15 26  1  0
 13 27  1  0
 11 28  1  0
 28 29  1  0
 29 30  1  0
 30 31  1  0
 31 32  1  0
 32 33  1  0
 33 34  1  0
 33 35  1  0
 33 36  1  0
 32 37  1  0
 37 38  1  0
 37 39  1  0
 37 40  1  0
 32 41  1  0
 30 42  1  0
 30 43  1  0
 29 44  1  1
 28 45  1  0
 28 46  1  0
  8 47  1  0
 47 48  2  0
 48 49  1  0
 49 50  1  0
 49 51  2  0
 51 52  1  0
 52 53  2  0
 53 54  1  0
 54 55  2  0
 52 56  1  0
 51 57  1  0
 48 58  1  0
  7 59  1  0
  7 60  1  0
  5 61  1  0
  5 62  1  0
  2 63  1  0
  1 64  1  0
  1 65  1  0
  1 66  1  0
 54  6  1  0
 29  8  1  0
 53 47  1  0
 21 12  1  0
 21 16  1  0
M  END
>  <cnnaffinities>  (93) 
[5.84283, 5.8182, 5.65859]

>  <score>  (93) 
5.84283

>  <index>  (93) 
96

>  <Smiles>  (93) 
C(N(C(=O)C(N1C([C@@]2(C(=O)N(c3c(nc(c4c(c(c(c(c34)[H])[H])[H])[H])[H])[H])C([C@@]2(C(OC(C([H])([H])[H])(C([H])([H])[H])[H])([H])[H])[H])([H])[H])c2c(c(Cl)c(c(c2C1=O)[H])[H])[H])([H])[H])([H])[H])[H])([H])([H])[H]

>  <h>  (93) 
<NA>

>  <Training>  (93) 
True

>  <Success>  (93) 
True

>  <enamine_searched>  (93) 
False

>  <enamine_id>  (93) 
nan

$$$$

     RDKit          3D

 40 43  0  0  0  0  0  0  0  0999 V2000
   -9.7160   -5.3006  -23.4915 C   0  0  0  0  0  0  0  0  0  0  0  0
  -10.6610   -4.3394  -22.7610 C   0  0  2  0  0  0  0  0  0  0  0  0
  -11.4445   -3.4863  -23.7523 C   0  0  0  0  0  0  0  0  0  0  0  0
  -10.5713   -2.6328  -24.4599 O   0  0  0  0  0  0  0  0  0  0  0  0
   -9.9121   -1.7107  -23.6187 C   0  0  0  0  0  0  0  0  0  0  0  0
   -9.0918   -2.3579  -22.4797 C   0  0  1  0  0  0  0  0  0  0  0  0
  -10.0103   -3.3700  -21.7761 C   0  0  0  0  0  0  0  0  0  0  0  0
  -10.8208   -2.7816  -21.3288 H   0  0  0  0  0  0  0  0  0  0  0  0
   -9.4777   -3.8719  -20.9581 H   0  0  0  0  0  0  0  0  0  0  0  0
   -7.7869   -2.8987  -22.8773 N   0  0  0  0  0  0  0  0  0  0  0  0
   -6.7664   -2.5130  -22.0309 C   0  0  0  0  0  0  0  0  0  0  0  0
   -5.6410   -2.9407  -21.9526 O   0  0  0  0  0  0  0  0  0  0  0  0
   -7.3063   -1.4771  -21.2460 N   0  0  0  0  0  0  0  0  0  0  0  0
   -6.6003   -0.8272  -20.2046 C   0  0  0  0  0  0  0  0  0  0  0  0
   -6.9454   -1.0691  -18.8999 C   0  0  0  0  0  0  0  0  0  0  0  0
   -6.2744   -0.5701  -17.8352 N   0  0  0  0  0  0  0  0  0  0  0  0
   -5.2340    0.1870  -18.0828 C   0  0  0  0  0  0  0  0  0  0  0  0
   -4.7933    0.5403  -19.3908 C   0  0  0  0  0  0  0  0  0  0  0  0
   -3.6715    1.3806  -19.5988 C   0  0  0  0  0  0  0  0  0  0  0  0
   -3.3484    1.7869  -20.8636 C   0  0  0  0  0  0  0  0  0  0  0  0
   -4.1451    1.3981  -21.9670 C   0  0  0  0  0  0  0  0  0  0  0  0
   -5.2184    0.5602  -21.7937 C   0  0  0  0  0  0  0  0  0  0  0  0
   -5.5361    0.0742  -20.4958 C   0  0  0  0  0  0  0  0  0  0  0  0
   -5.8334    0.2658  -22.6415 H   0  0  0  0  0  0  0  0  0  0  0  0
   -3.8921    1.7567  -22.9610 H   0  0  0  0  0  0  0  0  0  0  0  0
   -2.4930    2.4364  -21.0267 H   0  0  0  0  0  0  0  0  0  0  0  0
   -3.1117    1.7180  -18.7285 H   0  0  0  0  0  0  0  0  0  0  0  0
   -4.6917    0.5791  -17.2246 H   0  0  0  0  0  0  0  0  0  0  0  0
   -7.7940   -1.7065  -18.6771 H   0  0  0  0  0  0  0  0  0  0  0  0
   -8.6619   -1.2859  -21.4891 C   0  0  0  0  0  0  0  0  0  0  0  0
   -9.3589   -0.4233  -21.0049 O   0  0  0  0  0  0  0  0  0  0  0  0
   -7.7357   -3.8432  -23.2415 H   0  0  0  0  0  0  0  0  0  0  0  0
   -9.2419   -1.1343  -24.2604 H   0  0  0  0  0  0  0  0  0  0  0  0
  -10.6531   -1.0456  -23.1484 H   0  0  0  0  0  0  0  0  0  0  0  0
  -12.2237   -2.9049  -23.2237 H   0  0  0  0  0  0  0  0  0  0  0  0
  -11.9391   -4.1099  -24.5016 H   0  0  0  0  0  0  0  0  0  0  0  0
  -11.3770   -4.9427  -22.2005 H   0  0  0  0  0  0  0  0  0  0  0  0
   -9.1191   -4.7998  -24.2613 H   0  0  0  0  0  0  0  0  0  0  0  0
  -10.3229   -6.0476  -24.0104 H   0  0  0  0  0  0  0  0  0  0  0  0
   -9.0671   -5.8354  -22.7863 H   0  0  0  0  0  0  0  0  0  0  0  0
  1  2  1  0
  2  3  1  0
  3  4  1  0
  4  5  1  0
  5  6  1  0
  6  7  1  0
  7  8  1  0
  7  9  1  0
  6 10  1  6
 10 11  1  0
 11 12  2  0
 11 13  1  0
 13 14  1  0
 14 15  2  0
 15 16  1  0
 16 17  2  0
 17 18  1  0
 18 19  2  0
 19 20  1  0
 20 21  2  0
 21 22  1  0
 22 23  2  0
 22 24  1  0
 21 25  1  0
 20 26  1  0
 19 27  1  0
 17 28  1  0
 15 29  1  0
 13 30  1  0
 30 31  2  0
 10 32  1  0
  5 33  1  0
  5 34  1  0
  3 35  1  0
  3 36  1  0
  2 37  1  1
  1 38  1  0
  1 39  1  0
  1 40  1  0
  7  2  1  0
 23 14  1  0
 30  6  1  0
 23 18  1  0
M  END
>  <cnnaffinities>  (94) 
[4.82067]

>  <score>  (94) 
4.82067

>  <index>  (94) 
97

>  <Smiles>  (94) 
C([C@@]1(C(OC([C@@]2(C1([H])[H])N(C(=O)N(c1c(nc(c3c(c(c(c(c13)[H])[H])[H])[H])[H])[H])C2=O)[H])([H])[H])([H])[H])[H])([H])([H])[H]

>  <h>  (94) 
<NA>

>  <Training>  (94) 
True

>  <Success>  (94) 
True

>  <enamine_searched>  (94) 
False

>  <enamine_id>  (94) 
nan

$$$$
